#------------------------------------------------------------------------------
#$Date: 2015-07-05 14:13:24 +0300 (Sun, 05 Jul 2015) $
#$Revision: 140267 $
#$URL: svn://www.crystallography.net/cod/cif/1/52/05/1520513.cif $
#------------------------------------------------------------------------------
#
# This file is available in the Crystallography Open Database (COD),
# http://www.crystallography.net/
#
# All data on this site have been placed in the public domain by the
# contributors.
#
data_1520513
loop_
_publ_author_name
'Chang, Meng-Yang'
'Cheng, Yu-Chieh'
'Lu, Yi-Ju'
_publ_section_title
;
 Synthesis of Substituted Benzenes via Bi(OTf)3-Mediated Intramolecular
 Carbonyl Allylation of \a-Prenyl or \a-Geranyl \b-Arylketosulfones.
;
_journal_issue                   12
_journal_name_full               'Organic letters'
_journal_page_first              3142
_journal_page_last               3145
_journal_paper_doi               10.1021/acs.orglett.5b01461
_journal_volume                  17
_journal_year                    2015
_chemical_formula_sum            'C24 H24'
_chemical_formula_weight         312.43
_space_group_crystal_system      monoclinic
_space_group_IT_number           14
_space_group_name_Hall           '-P 2yn'
_space_group_name_H-M_alt        'P 1 21/n 1'
_symmetry_space_group_name_Hall  '-P 2yn'
_symmetry_space_group_name_H-M   'P 1 21/n 1'
_atom_sites_solution_hydrogens   geom
_audit_creation_method           SHELXL-2014/6
_cell_angle_alpha                90
_cell_angle_beta                 100.806(3)
_cell_angle_gamma                90
_cell_formula_units_Z            4
_cell_length_a                   7.4014(9)
_cell_length_b                   30.606(4)
_cell_length_c                   7.7390(10)
_cell_measurement_reflns_used    1902
_cell_measurement_temperature    100(2)
_cell_measurement_theta_max      25.9803
_cell_measurement_theta_min      2.6620
_cell_volume                     1722.0(4)
_computing_cell_refinement       'SAINT V8.34A (Bruker AXS Inc., 2013)'
_computing_data_collection       'APEX2 (Bruker AXS, 2010)'
_computing_data_reduction        'SAINT V8.34A (Bruker AXS Inc., 2013)'
_computing_molecular_graphics    'SHELXTL (Sheldrick, 2008)'
_computing_publication_material  SHELXTL
_computing_structure_refinement  'SHELXL-2014/6 (Sheldrick, 2014)'
_diffrn_ambient_temperature      100(2)
_diffrn_detector_area_resol_mean 8.3333
_diffrn_measured_fraction_theta_full 1.000
_diffrn_measured_fraction_theta_max 0.998
_diffrn_measurement_device_type  'Bruker APEX-II CCD'
_diffrn_measurement_method       '\f and \w scans'
_diffrn_radiation_type           MoK\a
_diffrn_radiation_wavelength     0.71073
_diffrn_reflns_av_R_equivalents  0.0610
_diffrn_reflns_av_unetI/netI     0.0510
_diffrn_reflns_laue_measured_fraction_full 1.000
_diffrn_reflns_laue_measured_fraction_max 0.998
_diffrn_reflns_limit_h_max       9
_diffrn_reflns_limit_h_min       -6
_diffrn_reflns_limit_k_max       38
_diffrn_reflns_limit_k_min       -38
_diffrn_reflns_limit_l_max       9
_diffrn_reflns_limit_l_min       -8
_diffrn_reflns_number            14875
_diffrn_reflns_point_group_measured_fraction_full 1.000
_diffrn_reflns_point_group_measured_fraction_max 0.998
_diffrn_reflns_theta_full        25.242
_diffrn_reflns_theta_max         26.431
_diffrn_reflns_theta_min         1.331
_exptl_absorpt_coefficient_mu    0.068
_exptl_absorpt_correction_T_max  0.9485
_exptl_absorpt_correction_T_min  0.8256
_exptl_absorpt_correction_type   multi-scan
_exptl_absorpt_process_details   'SADABS V2014/4 (Bruker AXS Inc.)'
_exptl_crystal_colour            Colorless
_exptl_crystal_density_diffrn    1.205
_exptl_crystal_density_meas      ?
_exptl_crystal_density_method    'not measured'
_exptl_crystal_description       Columnar
_exptl_crystal_F_000             672
_exptl_crystal_size_max          0.25
_exptl_crystal_size_mid          0.10
_exptl_crystal_size_min          0.10
_refine_diff_density_max         0.324
_refine_diff_density_min         -0.212
_refine_diff_density_rms         0.046
_refine_ls_extinction_method     none
_refine_ls_goodness_of_fit_ref   1.040
_refine_ls_hydrogen_treatment    constr
_refine_ls_matrix_type           full
_refine_ls_number_parameters     219
_refine_ls_number_reflns         3538
_refine_ls_number_restraints     0
_refine_ls_restrained_S_all      1.040
_refine_ls_R_factor_all          0.0751
_refine_ls_R_factor_gt           0.0478
_refine_ls_shift/su_max          0.000
_refine_ls_shift/su_mean         0.000
_refine_ls_structure_factor_coef Fsqd
_refine_ls_weighting_details
'w=1/[\s^2^(Fo^2^)+(0.0576P)^2^+0.2014P] where P=(Fo^2^+2Fc^2^)/3'
_refine_ls_weighting_scheme      calc
_refine_ls_wR_factor_gt          0.1081
_refine_ls_wR_factor_ref         0.1200
_reflns_Friedel_coverage         0.000
_reflns_number_gt                2542
_reflns_number_total             3538
_reflns_threshold_expression     'I > 2\s(I)'
_cod_data_source_file            ol5b01461_si_001.cif
_cod_data_source_block           mo_150229lt_0m
_cod_depositor_comments
;
The following automatic conversions were performed:

'_exptl_crystal_density_meas' value 'not measured' was changed to '?'
- the value is perceived as not measured.

Automatic conversion script
Id: cif_fix_values 3271 2015-04-21 07:52:19Z andrius 

 Adding full bibliography for 1520513--1520517.cif.
;
_cod_database_code               1520513
_shelx_space_group_comment
;
The symmetry employed for this shelxl refinement is uniquely defined
by the following loop, which should always be used as a source of
symmetry information in preference to the above space-group names.
They are only intended as comments.
;
_shelxl_version_number           2014/6
_shelx_res_file
;
TITL mo_150229lt_0m in P2(1)/n
CELL 0.71073 7.4014 30.6059 7.7390 90.000 100.806 90.000
ZERR 4.00 0.0009 0.0039 0.0010 0.000 0.003 0.000
LATT 1
SYMM -x+1/2, y+1/2, -z+1/2
SFAC C H
UNIT 96 96
TEMP -173.000
ACTA
L.S. 4
FMAP 2
PLAN 5
BOND $H
WGHT    0.057600    0.201400
FVAR       0.67408
C1    1   -0.490353    0.175219    0.458483    11.00000    0.01659    0.02396 =
         0.02593   -0.00255    0.00717    0.00154
AFIX 137
H9    2   -0.546320    0.168868    0.336018    11.00000   -1.50000
H10   2   -0.549931    0.200879    0.498845    11.00000   -1.50000
H1    2   -0.506305    0.150043    0.532416    11.00000   -1.50000
AFIX   0
C2    1   -0.284161    0.184421    0.471293    11.00000    0.01550    0.01819 =
         0.01688   -0.00089    0.00510    0.00039
C3    1   -0.186056    0.146872    0.394959    11.00000    0.01230    0.01724 =
         0.01445   -0.00055   -0.00015    0.00069
C4    1   -0.219607    0.103562    0.439908    11.00000    0.01268    0.01966 =
         0.01436    0.00196    0.00385   -0.00228
AFIX  43
H5    2   -0.312390    0.097947    0.506809    11.00000   -1.20000
AFIX   0
C5    1   -0.121306    0.068746    0.389526    11.00000    0.01551    0.01469 =
         0.01694    0.00167    0.00159   -0.00316
AFIX  43
H18   2   -0.148109    0.039852    0.421829    11.00000   -1.20000
AFIX   0
C6    1    0.017031    0.075739    0.291546    11.00000    0.01316    0.01693 =
         0.01167   -0.00092   -0.00026   -0.00129
C7    1    0.132223    0.038819    0.249073    11.00000    0.01546    0.01595 =
         0.01206    0.00196    0.00208    0.00078
C8    1    0.319502    0.044527    0.248306    11.00000    0.01783    0.01514 =
         0.02109   -0.00259    0.00316   -0.00292
AFIX  43
H4    2    0.372336    0.072793    0.268244    11.00000   -1.20000
AFIX   0
C9    1    0.429603    0.009601    0.218910    11.00000    0.01086    0.01979 =
         0.02194   -0.00030    0.00334   -0.00082
AFIX  43
H21   2    0.556563    0.014312    0.219385    11.00000   -1.20000
AFIX   0
C10   1    0.355905   -0.032588    0.188488    11.00000    0.01603    0.01457 =
         0.01333    0.00116    0.00278    0.00110
C11   1    0.475334   -0.070622    0.168134    11.00000    0.01382    0.01498 =
         0.01510    0.00232    0.00464   -0.00208
C12   1    0.412476   -0.104511    0.050443    11.00000    0.01491    0.01983 =
         0.01518    0.00146    0.00004   -0.00067
AFIX  43
H3    2    0.293033   -0.102788   -0.020288    11.00000   -1.20000
AFIX   0
C13   1    0.521945   -0.140434    0.035841    11.00000    0.02290    0.01709 =
         0.01638   -0.00229    0.00414   -0.00258
AFIX  43
H24   2    0.476603   -0.163270   -0.043689    11.00000   -1.20000
AFIX   0
C14   1    0.698003   -0.143353    0.136823    11.00000    0.02013    0.01621 =
         0.02195    0.00208    0.00723    0.00252
AFIX  43
H2    2    0.773405   -0.167911    0.125461    11.00000   -1.20000
AFIX   0
C15   1   -0.194801    0.189438    0.667477    11.00000    0.02269    0.02386 =
         0.01949   -0.00292    0.00383    0.00124
AFIX 137
H6    2   -0.209253    0.162174    0.729885    11.00000   -1.50000
H8    2   -0.254856    0.213324    0.719392    11.00000   -1.50000
H7    2   -0.063643    0.195997    0.677526    11.00000   -1.50000
AFIX   0
C16   1   -0.263491    0.227386    0.373361    11.00000    0.02420    0.01672 =
         0.02324    0.00096    0.00907    0.00582
AFIX  23
H17   2   -0.348146    0.226794    0.258010    11.00000   -1.20000
H16   2   -0.300652    0.252025    0.441868    11.00000   -1.20000
AFIX   0
C17   1   -0.068595    0.235450    0.343570    11.00000    0.02943    0.01393 =
         0.02888    0.00112    0.01224   -0.00161
AFIX  23
H15   2    0.017937    0.235716    0.457855    11.00000   -1.20000
H11   2   -0.062026    0.264219    0.286597    11.00000   -1.20000
AFIX   0
C18   1   -0.014817    0.199464    0.226795    11.00000    0.01920    0.01693 =
         0.02465    0.00257    0.00814   -0.00014
AFIX  23
H12   2   -0.084290    0.203442    0.105446    11.00000   -1.20000
H14   2    0.117784    0.202121    0.223426    11.00000   -1.20000
AFIX   0
C19   1   -0.052474    0.153933    0.290675    11.00000    0.01231    0.01653 =
         0.01547    0.00144   -0.00013   -0.00087
C20   1    0.046830    0.118681    0.242707    11.00000    0.01330    0.01909 =
         0.01471    0.00009    0.00401   -0.00044
AFIX  43
H13   2    0.138328    0.124088    0.174124    11.00000   -1.20000
AFIX   0
C21   1    0.058316   -0.003031    0.212505    11.00000    0.01165    0.01864 =
         0.01397    0.00331    0.00194   -0.00092
AFIX  43
H20   2   -0.069437   -0.007584    0.208074    11.00000   -1.20000
AFIX   0
C22   1    0.167458   -0.037840    0.182737    11.00000    0.01715    0.01345 =
         0.01560    0.00089    0.00113   -0.00241
AFIX  43
H19   2    0.113317   -0.065831    0.157927    11.00000   -1.20000
AFIX   0
C23   1    0.652203   -0.074190    0.269991    11.00000    0.01567    0.01570 =
         0.01829   -0.00226    0.00346   -0.00250
AFIX  43
H23   2    0.697451   -0.051682    0.351168    11.00000   -1.20000
AFIX   0
C24   1    0.762669   -0.110169    0.254180    11.00000    0.01338    0.02191 =
         0.02121    0.00236    0.00163   -0.00046
AFIX  43
H22   2    0.882599   -0.112016    0.323874    11.00000   -1.20000
AFIX   0
HKLF 4 1 1 0 0 0 1 0 0 0 1

REM  mo_150229lt_0m in P2(1)/n
REM R1 =  0.0478 for    2542 Fo > 4sig(Fo)  and  0.0751 for all    3538 data
REM    219 parameters refined using      0 restraints

END

WGHT      0.0576      0.2014

REM Highest difference peak  0.324,  deepest hole -0.212,  1-sigma level  0.046
Q1    1   0.8326 -0.1732  0.1412  11.00000  0.05    0.32
Q2    1  -0.2656  0.2046  0.4228  11.00000  0.05    0.28
Q3    1  -0.2498  0.1654  0.4289  11.00000  0.05    0.26
Q4    1   0.4154 -0.0522  0.1843  11.00000  0.05    0.25
Q5    1  -0.3796  0.1814  0.4642  11.00000  0.05    0.24
;
_shelx_res_checksum              26142
_shelx_hkl_file
;
   1   0   0 1.91988 1.92730   3
   2   0   0 250.277 9.89124   3
   3   0   0 0.55965 1.28571   1
   3   0   0 -4.6597 3.29779   3
   3   0   0 -0.1227 1.21805   1
   4   0   0 529.440 10.1614   1
   4   0   0 509.362 19.0986   3
   4   0   0 505.857 9.79356   1
   5   0   0 -4.2415 4.89757   3
   5   0   0 0.16969 2.13146   1
   5   0   0 -1.0441 2.35528   1
   6   0   0 85.5400 6.23858   1
   6   0   0 91.3896 6.84946   1
   6   0   0 112.773 14.3516   3
   7   0   0 -0.2987 3.28414   1
   8   0   0 22.9413 5.38150   1
   9   0   0 3.50124 4.55308   1
   0  -1   0 -0.9055 0.11328   1
   0   1   0 -0.9183 0.14271   2
   0   1   0 -0.9321 0.11138   1
   1  -1   0 41.3376 3.31453   3
   1  -1   0 38.7898 1.50860   1
   1  -1   0 37.8894 1.49460   1
   1   1   0 38.7419 3.40074   3
   2  -1   0 777.024 10.2129   1
   2  -1   0 706.991 9.99230   1
   2  -1   0 749.412 17.0829   3
   2   1   0 759.504 17.5076   3
   3  -1   0 1.73684 3.68876   3
   3  -1   0 4.78499 1.64606   1
   3  -1   0 4.29075 1.49333   1
   3   1   0 -0.8751 3.65125   3
   3   1   0 4.66927 1.36391   1
   4  -1   0 22.5151 3.07575   1
   4  -1   0 27.0160 6.49224   3
   4   1   0 21.1043 2.75931   1
   4   1   0 25.6920 2.75124   1
   4   1   0 26.3376 6.39383   3
   5  -1   0 7.41576 2.61901   1
   5  -1   0 2.21941 2.80123   1
   5  -1   0 12.0353 6.61375   3
   5   1   0 1.84261 2.46402   1
   5   1   0 1.93566 5.90381   3
   5   1   0 6.63995 2.66745   1
   6  -1   0 59.6473 5.83371   1
   6  -1   0 54.5862 11.1442   3
   6  -1   0 56.8212 5.59198   1
   6   1   0 40.3762 9.95273   3
   6   1   0 56.6422 5.45632   1
   6   1   0 61.3667 5.69706   1
   6   1   0 56.6382 5.41198   1
   7  -1   0 10.1876 4.13002   1
   7   1   0 10.6682 4.06236   1
   7   1   0 4.88205 8.53585   3
   8  -1   0 10.3687 4.66761   1
   8   1   0 16.9697 4.86336   1
   9  -1   0 11.7125 5.42347   1
   9   1   0 11.3412 4.94114   1
   0  -2   0 637.412 9.11768   1
   1  -2   0 747.214 11.4844   1
   1  -2   0 781.498 10.8104   1
   1   2   0 754.480 12.7121   2
   1   2   0 748.793 10.0643   1
   1   2   0 759.965 10.0957   1
   2  -2   0 47.6059 2.88878   1
   2  -2   0 45.6192 3.00877   1
   2  -2   0 44.6559 5.32674   3
   2   2   0 46.7648 5.78992   3
   3  -2   0 5.28152 1.90671   1
   3  -2   0 3.78967 1.65164   1
   3  -2   0 8.70859 4.24131   3
   3   2   0 1.23879 3.96934   3
   3   2   0 2.21927 1.45620   1
   3   2   0 4.00678 1.44352   1
   4  -2   0 1423.64 21.4471   1
   4  -2   0 1452.81 21.7887   1
   4  -2   0 1440.71 33.1429   3
   4   2   0 1439.78 20.8688   1
   4   2   0 1448.75 33.7583   3
   4   2   0 1413.93 20.4344   1
   5  -2   0 8.20354 2.80802   1
   5  -2   0 11.3281 3.23349   1
   5  -2   0 7.07303 6.17393   3
   5   2   0 2.81326 2.61521   1
   5   2   0 12.8662 2.94071   1
   5   2   0 9.41356 6.51309   3
   5   2   0 8.33625 2.86075   1
   6  -2   0 32.3038 4.60528   1
   6  -2   0 34.9379 5.12604   1
   6   2   0 45.0944 5.08181   1
   6   2   0 36.6985 9.88411   3
   6   2   0 39.1499 4.75007   1
   7  -2   0 4.49956 3.87176   1
   7   2   0 6.04803 3.72932   1
   7   2   0 9.80070 7.69747   3
   8  -2   0 7.07978 4.47063   1
   8   2   0 1.78682 3.99733   1
   9  -2   0 42.2894 7.33654   1
   9   2   0 41.2568 6.87318   1
   0  -3   0 -1.8641 1.13939   1
   0   3   0 -1.7846 1.56605   3
   0   3   0 -0.4181 1.21404   2
   0   3   0 0.25170 0.96494   1
   1  -3   0 20.5892 2.24160   1
   1   3   0 16.9064 3.11560   3
   1   3   0 24.2932 1.98831   1
   1   3   0 21.6057 2.95311   2
   2  -3   0 35.0487 2.94111   1
   2  -3   0 38.7148 3.10628   1
   2   3   0 36.3811 2.58403   1
   2   3   0 31.3328 5.22407   3
   2   3   0 42.4259 2.72611   1
   3  -3   0 109.822 4.63416   1
   3  -3   0 116.950 4.92779   1
   3   3   0 110.426 3.96635   1
   3   3   0 107.984 9.73381   3
   3   3   0 114.108 4.08648   1
   4  -3   0 1592.72 24.1057   1
   4  -3   0 1558.93 23.8463   1
   4   3   0 1619.96 22.9606   1
   4   3   0 1596.88 36.1597   3
   4   3   0 1551.13 22.4473   1
   5  -3   0 -0.0437 2.36484   1
   5  -3   0 0.94437 2.90314   1
   5   3   0 2.33128 5.92265   3
   5   3   0 0.38405 2.44238   1
   5   3   0 -1.7528 2.39895   1
   6  -3   0 16.3635 3.95774   1
   6  -3   0 21.1776 4.64563   1
   6   3   0 9.89532 7.92732   3
   6   3   0 17.5713 3.86520   1
   6   3   0 18.4890 4.11572   1
   7  -3   0 42.8121 6.16993   1
   7   3   0 38.7805 5.70758   1
   7   3   0 26.3691 9.82510   3
   8  -3   0 14.0649 4.92632   1
   8   3   0 29.8381 11.1667   3
   8   3   0 17.1842 5.03043   1
   9  -3   0 111.141 10.6481   1
   9   3   0 119.997 10.2523   1
   0  -4   0 706.697 11.8692   1
   0   4   0 696.911 12.0395   2
   0   4   0 724.222 12.5739   3
   0   4   0 702.440 11.6785   1
   1  -4   0 1474.14 20.7229   1
   1   4   0 1488.95 20.2609   1
  -1   4   0 1431.19 20.3845   1
   1   4   0 1487.47 23.8127   3
   1   4   0 1438.46 22.4348   2
   2  -4   0 51.7339 4.28001   1
   2  -4   0 51.1376 3.90382   1
   2   4   0 49.9562 3.39771   1
   2   4   0 53.1651 6.13940   3
   2   4   0 48.9259 3.34153   1
   2   4   0 49.7313 5.11013   2
   3  -4   0 169.187 6.05560   1
   3  -4   0 179.609 6.38833   1
   3   4   0 175.291 5.50426   1
   3   4   0 162.582 5.40064   1
   4  -4   0 629.418 13.2688   1
   4  -4   0 650.157 13.4842   1
   4   4   0 655.132 12.5538   1
   4   4   0 638.281 12.3878   1
   4   4   0 659.881 22.4721   3
   5  -4   0 86.4161 6.36303   1
   5  -4   0 89.1808 5.88037   1
   5   4   0 116.530 13.7759   3
   5   4   0 89.2089 5.77513   1
   5   4   0 91.3964 6.01077   1
   6  -4   0 23.7424 5.32428   1
   6  -4   0 28.3760 5.19789   1
   6   4   0 13.7191 4.04974   1
   6   4   0 12.1095 7.91499   3
   6   4   0 26.9477 4.60553   1
   7  -4   0 70.6316 7.48082   1
   7   4   0 73.8657 7.04561   1
   7   4   0 74.4843 13.8493   3
   8  -4   0 8.69888 4.98059   1
   8   4   0 6.47752 4.26571   1
   8   4   0 -0.8923 8.56891   3
   9  -4   0 5.94152 5.39936   1
   9   4   0 2.71304 4.23269   1
   0  -5   0 -1.2519 2.07566   1
   0   5   0 0.24903 2.93028   3
   0   5   0 0.07891 1.76427   1
   0   5   0 -3.6041 2.10493   2
   1  -5   0 157.822 6.13601   1
  -1  -5   0 159.742 5.78961   1
  -1   5   0 147.769 5.50615   1
   1   5   0 161.678 7.34689   2
   1   5   0 165.222 5.68404   1
   1   5   0 152.282 7.64046   3
   2  -5   0 19.1479 3.35502   1
   2   5   0 26.1191 3.24847   1
   2   5   0 21.8783 4.81754   3
   2   5   0 21.8029 2.85183   1
   2   5   0 24.8866 4.61476   2
   3  -5   0 -1.5157 2.51712   1
   3  -5   0 -1.7478 2.06098   1
   3   5   0 -0.8145 2.12843   1
   3   5   0 1.05219 4.24522   3
   3   5   0 0.31379 2.04449   1
   4  -5   0 4.08543 2.90671   1
   4  -5   0 3.61014 2.32681   1
   4   5   0 -1.4155 2.15891   1
   4   5   0 -1.5319 4.49826   3
   4   5   0 2.35356 2.48189   1
   5  -5   0 46.8027 5.30754   1
   5  -5   0 49.2096 5.75415   1
   5   5   0 53.6852 5.14133   1
   5   5   0 54.7635 9.89712   3
   5   5   0 49.4905 4.96606   1
   6  -5   0 106.104 8.23494   1
   6   5   0 103.040 7.58557   1
   6   5   0 115.688 7.69123   1
   6   5   0 89.5619 13.1869   3
   7  -5   0 23.4104 5.69399   1
   7   5   0 23.0441 10.0270   3
   7   5   0 34.6774 5.50456   1
   8  -5   0 11.1425 5.24958   1
   8   5   0 2.69358 8.31488   3
   8   5   0 16.3822 4.81303   1
   9  -5   0 102.595 10.6479   1
   9   5   0 87.1889 8.96561   1
   0  -6   0 69.1261 5.04735   1
   0   6   0 78.8666 6.23638   3
   0   6   0 69.1931 4.65076   1
   0   6   0 64.9460 5.01487   2
   1  -6   0 1098.22 18.8670   1
  -1  -6   0 1098.58 18.0554   1
  -1   6   0 1104.80 18.2377   1
   1   6   0 1129.12 18.0842   1
   1   6   0 1111.72 21.3464   3
   1   6   0 1122.24 20.3198   2
   2  -6   0 189.623 7.45040   1
   2   6   0 179.138 8.71997   2
   2   6   0 178.179 9.93837   3
   2   6   0 182.785 6.44015   1
   3  -6   0 34.3289 4.10631   1
   3   6   0 34.9282 3.68668   1
   3   6   0 28.2697 6.40713   3
   3   6   0 29.7626 3.60818   1
   3   6   0 22.6371 4.92519   2
   4  -6   0 53.1885 4.91535   1
   4  -6   0 68.0898 5.76038   1
   4   6   0 67.0281 5.18662   1
   4   6   0 57.0456 8.80280   3
   4   6   0 70.3101 5.03539   1
   5  -6   0 166.906 8.08035   1
   5  -6   0 162.112 8.97466   1
   5   6   0 159.085 7.69731   1
   5   6   0 145.878 14.9523   3
   5   6   0 158.888 7.83027   1
   6  -6   0 28.2874 5.68711   1
   6   6   0 27.0429 4.86858   1
   6   6   0 10.5479 7.62927   3
   6   6   0 18.1122 5.25526   1
   7  -6   0 19.1586 5.28122   1
   7   6   0 20.0124 9.68625   3
   7   6   0 21.5471 4.96004   1
   8  -6   0 197.466 12.3044   1
   8   6   0 199.135 22.3676   3
   8   6   0 205.511 11.2792   1
   0  -7   0 -0.4240 3.56909   1
   0   7   0 2.09595 5.10635   3
   0   7   0 -2.1583 2.58067   1
   0   7   0 1.74711 3.68568   2
  -1  -7   0 254.139 8.78784   1
   1  -7   0 240.460 8.86882   1
   1   7   0 250.078 10.8233   3
  -1   7   0 245.198 8.28810   1
   1   7   0 253.938 8.25714   1
   1   7   0 258.650 10.0747   2
   2  -7   0 456.602 11.7086   1
   2   7   0 451.117 10.9286   1
  -2   7   0 439.277 11.6567   1
   3  -7   0 247.786 9.24809   1
   3   7   0 256.287 8.53052   1
   3   7   0 267.687 11.4769   2
   3   7   0 258.007 8.35694   1
   4  -7   0 7.00341 3.70035   1
   4  -7   0 6.05628 2.89068   1
   4   7   0 6.04427 2.80046   1
   4   7   0 2.12797 5.02589   3
   4   7   0 6.78512 3.13857   1
   5  -7   0 2.89222 3.06623   1
   5  -7   0 -3.7199 3.62419   1
   5   7   0 -3.2573 3.40474   1
   5   7   0 0.33646 6.00099   3
   5   7   0 4.92638 3.24666   1
   6  -7   0 128.200 9.47914   1
   6   7   0 114.352 15.0039   3
   6   7   0 122.932 8.22057   1
   7  -7   0 42.9029 7.08166   1
   7   7   0 42.9903 6.53684   1
   7   7   0 33.5476 10.7979   3
   8  -7   0 10.6896 5.81110   1
   8   7   0 5.10531 4.71803   1
   8   7   0 10.7165 9.60844   3
   0  -8   0 150.195 8.31152   1
   0   8   0 151.889 8.39546   2
   0   8   0 159.075 10.5477   3
   0   8   0 161.084 7.38996   1
   1  -8   0 248.774 9.53282   1
  -1  -8   0 246.723 9.21689   1
   1   8   0 250.339 10.4815   2
  -1   8   0 266.572 9.81022   2
   1   8   0 264.125 8.89487   1
   1   8   0 232.019 10.9565   3
  -1   8   0 250.773 8.79462   1
   2  -8   0 22.6072 4.21213   1
   2   8   0 27.8257 5.77281   3
   2   8   0 32.2214 4.00217   1
   2   8   0 32.3147 5.56658   2
  -2   8   0 25.4912 3.64614   1
   3  -8   0 17.6419 3.95803   1
   3   8   0 13.6374 4.70709   1
   3   8   0 11.0731 5.15088   3
   3   8   0 14.5269 3.29940   1
   3   8   0 15.2243 4.82976   2
   4  -8   0 12.4569 4.29183   1
   4   8   0 4.67554 3.57361   1
   4   8   0 15.1273 6.53159   3
   4   8   0 13.9456 3.57469   1
   5  -8   0 93.2682 8.15115   1
   5  -8   0 104.614 8.14932   1
   5   8   0 92.2435 6.94365   1
   5   8   0 93.2974 12.9257   3
   5   8   0 103.075 7.68379   1
   6  -8   0 773.128 20.4323   1
   6   8   0 781.676 19.2896   1
   6   8   0 756.697 31.3775   3
   7  -8   0 83.6494 9.13117   1
   7   8   0 84.3317 15.2526   3
   7   8   0 73.0059 7.61517   1
   8  -8   0 218.306 13.1900   1
   8   8   0 151.470 20.5299   3
   8   8   0 222.843 12.5242   1
   0  -9   0 -1.4355 4.06768   1
   0   9   0 -4.9464 3.91385   2
   0   9   0 0.72588 6.01805   3
   0   9   0 -6.7600 2.62171   1
   1  -9   0 346.567 11.4502   1
  -1  -9   0 335.506 11.0253   1
  -1   9   0 358.836 10.6786   1
   1   9   0 350.633 12.3768   2
   1   9   0 341.501 12.9667   3
  -1   9   0 351.806 11.5424   2
   1   9   0 357.825 10.8443   1
   2  -9   0 4.16747 3.74805   1
   2   9   0 21.5348 3.65492   1
   2   9   0 10.9368 4.88621   3
  -2   9   0 9.44548 2.98719   1
   2   9   0 13.2839 4.67150   2
   3  -9   0 262.769 10.3395   1
   3   9   0 252.105 13.7906   3
   3   9   0 233.608 11.8284   2
   3   9   0 261.266 9.51474   1
   4  -9   0 27.0879 5.26273   1
   4   9   0 31.6854 4.49817   1
   4   9   0 30.4834 5.09479   1
   4   9   0 43.0845 8.87655   3
   5  -9   0 314.776 13.0512   1
   5   9   0 334.753 20.1399   3
   5   9   0 328.808 12.0498   1
   5   9   0 309.397 11.5510   1
   6  -9   0 573.782 18.3422   1
   6   9   0 640.094 29.0142   3
   6   9   0 616.141 17.5229   1
   7  -9   0 -2.9545 4.60395   1
   7   9   0 2.13542 4.28340   1
   7   9   0 1.42373 7.62510   3
   8  -9   0 -10.909 4.75803   1
   8   9   0 5.37858 9.00243   3
   8   9   0 -8.0599 3.94908   1
   0 -10   0 42.3832 6.04473   1
   0  10   0 44.1485 7.07211   3
   0  10   0 52.9686 5.57094   1
   0  10   0 45.8536 6.23429   2
  -1 -10   0 16.9178 4.71529   1
   1 -10   0 13.8244 4.32163   1
   1  10   0 10.1287 3.53417   1
   1  10   0 9.39426 5.16466   3
  -1  10   0 14.8368 3.73798   1
  -1  10   0 15.1852 4.55429   2
   1  10   0 9.89636 4.32036   2
   2 -10   0 49.9325 5.90303   1
  -2 -10   0 63.9072 5.59563   1
  -2  10   0 61.8715 5.62646   1
   2  10   0 62.3391 7.19559   2
   2  10   0 57.7397 7.48718   3
   2  10   0 66.0686 5.88230   1
   3 -10   0 43.7633 5.95511   1
   3  10   0 39.0465 7.29603   3
   3  10   0 42.7511 6.92927   2
   3  10   0 45.9388 5.30225   1
   4 -10   0 239.439 11.3869   1
   4  10   0 247.829 10.1129   1
   4  10   0 226.134 15.3558   3
   4  10   0 255.191 12.2495   1
   4  10   0 230.708 13.3319   2
   5 -10   0 145.458 10.3735   1
   5  10   0 144.386 8.83420   1
   5  10   0 119.246 14.3502   3
   5  10   0 132.389 9.35949   1
   6 -10   0 477.283 17.0281   1
   6  10   0 482.335 15.9681   1
   6  10   0 489.630 26.5752   3
   7 -10   0 -0.8840 5.18308   1
   7  10   0 4.27713 4.58801   1
   7  10   0 9.56371 8.45178   3
   8 -10   0 6.07859 5.93866   1
   8  10   0 3.15030 8.99059   3
   8  10   0 7.64591 5.31995   1
   0 -11   0 3.98200 4.19475   1
   0  11   0 -1.0620 5.34461   3
   0  11   0 4.98521 4.22131   2
   0  11   0 -1.7383 2.97113   1
  -1 -11   0 127.743 8.12073   1
   1 -11   0 118.894 8.29527   1
   1  11   0 89.1975 7.94783   2
  -1  11   0 120.455 7.61140   1
   1  11   0 106.886 7.15557   1
   1  11   0 114.215 9.23696   3
  -1  11   0 118.192 8.16066   2
   2 -11   0 1454.70 27.3714   1
  -2 -11   0 1438.04 25.1493   1
   2  11   0 1496.06 30.1351   2
  -2  11   0 1415.32 25.7628   1
   2  11   0 1447.59 26.4499   1
   2  11   0 1461.34 31.7387   3
   3 -11   0 0.97405 3.89278   1
   3  11   0 1.81756 4.11625   2
   3  11   0 -1.9510 4.59822   3
   3  11   0 4.75085 3.33735   1
   4 -11   0 -4.9760 4.13804   1
   4  11   0 -0.4917 5.39968   3
   4  11   0 -0.1863 4.74634   2
   4  11   0 9.87699 3.85504   1
   5 -11   0 220.537 12.3255   1
   5  11   0 228.029 17.5576   3
   5  11   0 207.158 11.1605   1
   5  11   0 206.517 10.5321   1
   6 -11   0 89.7940 9.45771   1
   6  11   0 80.7486 8.29687   1
   6  11   0 84.2591 14.0585   3
   7 -11   0 2.79704 5.32483   1
   7  11   0 14.3168 9.24225   3
   7  11   0 6.01757 5.23532   1
   8 -11   0 11.9026 6.25321   1
   8  11   0 0.75476 8.44211   3
   8  11   0 6.06246 5.40368   1
   0 -12   0 -2.8749 4.09905   1
   0  12   0 -3.1442 5.28870   3
   0  12   0 2.88371 4.26154   2
   0  12   0 1.95262 3.23678   1
  -1 -12   0 186.598 9.83430   1
   1 -12   0 179.872 9.78641   1
  -1  12   0 163.464 8.63527   1
  -1  12   0 171.311 9.42305   2
   1  12   0 198.225 10.8173   2
   1  12   0 181.374 9.13556   1
   1  12   0 177.016 11.2236   3
  -2 -12   0 968.520 20.4422   1
   2 -12   0 1024.30 22.8989   1
   2  12   0 1012.34 24.9163   2
  -2  12   0 1031.35 21.4709   1
   2  12   0 1023.54 21.8389   1
   2  12   0 1020.26 25.9980   3
  -2  12   0 1016.77 22.3222   2
   3 -12   0 133.436 10.0765   1
   3  12   0 124.101 11.0618   2
  -3  12   0 134.363 7.35333   1
   3  12   0 152.171 8.80792   1
   3  12   0 155.984 12.2977   3
   4 -12   0 89.3907 8.91471   1
   4  12   0 123.290 8.42498   1
   4  12   0 96.9074 11.9469   3
   4  12   0 96.9897 10.5654   2
   5 -12   0 88.7677 9.99227   1
   5  12   0 106.052 9.07002   1
   5  12   0 77.2689 12.8822   3
   6 -12   0 79.4655 9.50256   1
   6  12   0 76.8023 8.33948   1
   6  12   0 89.1261 14.7032   3
   7 -12   0 48.2429 8.45893   1
   7  12   0 56.2087 7.93672   1
   7  12   0 29.3411 10.7429   3
   8 -12   0 8.04019 6.77626   1
   8  12   0 -1.9709 7.85510   3
   8  12   0 10.1407 5.45051   1
   0 -13   0 -3.0750 4.05435   1
   0  13   0 -1.8010 3.25057   1
   0  13   0 -4.6367 4.04152   2
   0  13   0 -6.9634 5.38485   3
   1 -13   0 11.6013 4.91228   1
  -1 -13   0 22.6235 5.45708   1
   1  13   0 19.3223 4.41211   1
   1  13   0 18.4311 5.48106   2
   1  13   0 8.42174 5.47225   3
  -1  13   0 13.7501 4.26399   1
  -1  13   0 17.2095 4.94458   2
   2 -13   0 382.523 14.4954   1
  -2 -13   0 384.770 12.8612   1
  -2  13   0 379.064 13.9551   2
   2  13   0 396.940 15.9890   2
   2  13   0 391.829 13.4176   1
   2  13   0 403.840 16.6296   3
  -2  13   0 377.255 12.8692   1
   3 -13   0 33.7354 6.39785   1
  -3  13   0 34.0934 4.91703   1
   3  13   0 32.7896 7.10432   2
   3  13   0 43.7645 6.17313   1
   3  13   0 29.8071 7.42303   3
   4 -13   0 117.740 10.3783   1
   4  13   0 112.718 9.25027   1
   4  13   0 89.9340 11.9582   3
   4  13   0 127.734 12.5541   2
   5 -13   0 144.694 11.9389   1
   5  13   0 133.834 10.5819   1
   5  13   0 101.761 13.8469   3
   6 -13   0 -5.8831 5.23598   1
   6  13   0 -6.2056 6.52307   3
   6  13   0 5.78555 4.24678   1
   7 -13   0 21.6629 7.06716   1
   7  13   0 13.9662 9.89668   3
   7  13   0 28.2584 6.58017   1
   8 -13   0 2.96507 6.19405   1
   8  13   0 12.1335 5.91476   1
   8  13   0 4.50023 9.25131   3
   0 -14   0 -3.6316 4.26170   1
   0  14   0 -2.4418 4.46039   2
   0  14   0 -4.2877 5.39878   3
   0  14   0 2.63959 3.62353   1
   1 -14   0 304.982 13.2434   1
  -1 -14   0 301.461 12.8775   1
   1  14   0 303.710 13.7885   2
   1  14   0 280.845 13.8681   3
   1  14   0 313.114 12.4270   1
  -1  14   0 317.574 12.7822   2
  -1  14   0 294.795 12.2111   1
   2 -14   0 1410.49 29.3324   1
  -2 -14   0 1411.04 27.6770   1
  -2  14   0 1407.56 28.8152   2
  -2  14   0 1433.03 28.1217   1
   2  14   0 1486.48 29.0357   1
   2  14   0 1416.91 32.2211   2
   2  14   0 1449.25 33.2518   3
   3 -14   0 13.8932 5.86843   1
   3  14   0 24.8889 6.73557   2
   3  14   0 10.9479 4.41166   1
  -3  14   0 13.2579 3.84870   1
   3  14   0 13.8557 6.69047   3
   4 -14   0 26.6660 7.04664   1
   4  14   0 32.7704 5.99290   1
   4  14   0 33.9207 8.78626   3
   4  14   0 22.0201 7.28938   2
   5 -14   0 69.8443 9.35599   1
   5  14   0 56.5250 11.6620   3
   5  14   0 58.7180 7.59881   1
   6 -14   0 22.5440 7.20074   1
   6  14   0 16.0116 9.39716   3
   6  14   0 25.3443 6.42447   1
   7 -14   0 2.79466 6.24809   1
   7  14   0 10.7955 9.06202   3
   7  14   0 2.68758 5.04525   1
   8 -14   0 19.8479 8.17529   1
   8  14   0 6.92748 9.79006   3
   8  14   0 9.65843 6.23180   1
   0 -15   0 2.99572 4.90914   1
   0  15   0 0.08836 4.38839   2
   0  15   0 -7.3196 5.59997   3
   0  15   0 -0.4154 3.41184   1
   1 -15   0 69.4833 8.14940   1
  -1 -15   0 80.1859 8.26690   1
   1  15   0 75.0647 7.62619   1
   1  15   0 61.6240 7.97894   2
   1  15   0 86.3638 9.96873   3
  -1  15   0 94.0095 8.94174   2
  -1  15   0 74.0298 7.65133   1
  -2 -15   0 520.025 16.2619   1
   2 -15   0 517.112 17.6122   1
  -2  15   0 516.818 17.0674   2
   2  15   0 514.282 16.6649   1
   2  15   0 484.423 18.7164   2
  -2  15   0 524.710 16.2459   1
   2  15   0 534.393 19.8843   3
   3 -15   0 41.6569 7.64735   1
   3  15   0 47.7989 6.78395   1
  -3  15   0 55.6059 6.55794   1
   3  15   0 38.8215 7.51860   2
   3  15   0 27.8644 7.89390   3
  -3  15   0 33.4918 7.14551   2
   4 -15   0 120.934 11.1703   1
   4  15   0 78.7413 10.8525   2
   4  15   0 79.8776 11.9564   3
   4  15   0 95.5141 9.21801   1
   5 -15   0 15.2871 7.24516   1
   5  15   0 17.0758 8.53774   3
   5  15   0 5.42697 5.11063   1
   6 -15   0 57.9843 9.51688   1
   6  15   0 63.5828 8.51092   1
   6  15   0 57.7138 13.0695   3
   7 -15   0 21.2823 7.88721   1
   7  15   0 35.3788 12.2585   3
   7  15   0 32.1889 7.73417   1
   8 -15   0 3.15928 6.90061   1
   8  15   0 5.04370 5.55470   1
   8  15   0 -0.8960 7.99345   3
   0 -16   0 20.0247 6.33876   1
   0  16   0 39.3815 6.26741   1
   0  16   0 41.4095 8.33725   3
   0  16   0 17.3412 5.89473   2
   1 -16   0 69.0663 8.32594   1
  -1 -16   0 97.9499 9.50620   1
   1  16   0 79.0552 9.25552   2
   1  16   0 74.0745 8.24354   1
  -1  16   0 70.6174 7.60888   1
  -1  16   0 75.3425 10.1556   3
   1  16   0 65.5353 9.09499   3
  -1  16   0 80.8272 9.04332   2
   2 -16   0 502.063 17.7414   1
  -2 -16   0 470.295 16.2982   1
  -2  16   0 447.182 15.6302   1
  -2  16   0 483.072 16.9716   2
   2  16   0 471.624 19.3230   3
   2  16   0 498.848 19.3721   2
   2  16   0 481.729 16.7763   1
   3 -16   0 11.4159 6.53731   1
   3  16   0 8.82775 6.31033   2
  -3  16   0 12.5764 4.53487   1
   3  16   0 19.8576 5.35908   1
   3  16   0 12.8164 7.00893   3
  -3  16   0 18.7166 6.56484   2
   4 -16   0 105.588 11.3179   1
   4  16   0 70.5059 10.8437   2
   4  16   0 87.8475 9.27829   1
   4  16   0 92.5093 13.2107   3
   5 -16   0 39.6230 8.64490   1
   5  16   0 39.0245 7.21580   1
   5  16   0 70.9592 13.1740   3
   5  16   0 23.0408 8.71466   2
   6 -16   0 7.59168 6.82345   1
   6  16   0 6.89293 5.61563   1
   6  16   0 12.5615 9.07047   3
   7 -16   0 -1.6341 6.55275   1
   7  16   0 -3.1382 4.97491   1
   7  16   0 -4.7902 8.30023   3
   8 -16   0 2.83853 7.36276   1
   8  16   0 -2.7510 8.47413   3
   8  16   0 -5.3049 5.44062   1
   0 -17   0 -4.4987 4.86931   1
   0  17   0 2.06877 4.97702   2
   0  17   0 -0.0284 3.72972   1
   0  17   0 -7.5161 6.28917   3
   1 -17   0 -7.3781 5.10639   1
  -1 -17   0 11.8269 5.82046   1
  -1  17   0 -2.0282 7.28046   3
  -1  17   0 4.35191 5.25325   2
   1  17   0 -0.5764 4.96371   2
   1  17   0 -0.1005 3.72237   1
   1  17   0 -1.5660 5.57419   3
  -1  17   0 1.44871 3.66748   1
  -2 -17   0 337.105 14.3748   1
   2 -17   0 318.431 15.2493   1
   2  17   0 324.348 16.4335   2
  -2  17   0 324.612 14.6380   2
   2  17   0 354.007 15.0588   1
   2  17   0 323.528 16.7860   3
  -2  17   0 324.968 13.7474   1
   3 -17   0 2.95532 6.02465   1
  -3 -17   0 0.72353 4.75396   1
   3  17   0 10.6412 4.94451   1
   3  17   0 6.19700 6.14585   2
  -3  17   0 8.07225 4.12263   1
  -3  17   0 8.07883 5.98465   2
   3  17   0 3.94841 6.32961   3
   4 -17   0 15.5185 7.36099   1
  -4  17   0 23.6109 7.06130   2
   4  17   0 32.7046 6.77379   1
   4  17   0 23.7080 8.40960   2
   4  17   0 15.7032 8.35626   3
   5 -17   0 95.3580 11.3356   1
   5  17   0 75.4967 9.36454   1
   5  17   0 81.8772 12.0110   2
   5  17   0 79.1070 13.5939   3
   6 -17   0 166.332 14.7210   1
   6  17   0 144.118 12.8220   1
   6  17   0 156.497 18.5186   3
   7 -17   0 27.8618 8.27905   1
   7  17   0 28.6940 11.5720   3
   7  17   0 25.0857 7.77939   1
   8 -17   0 33.2689 9.95090   1
   8  17   0 27.5003 8.37843   1
   8  17   0 20.4218 11.9672   3
   0 -18   0 24.3947 6.90207   1
   0  18   0 8.19368 5.75860   2
   0  18   0 13.1521 5.18528   1
   0  18   0 16.7478 7.95595   3
   1 -18   0 -8.5426 5.44066   1
  -1 -18   0 -5.7159 5.12853   1
  -1  18   0 0.07586 5.20420   2
   1  18   0 -3.4931 3.81902   1
  -1  18   0 -2.6450 3.48101   1
   1  18   0 -4.5103 4.55468   2
   1  18   0 -7.2090 5.47301   3
  -1  18   0 -10.079 7.39044   3
   2 -18   0 -3.8304 5.51908   1
  -2 -18   0 -1.5909 5.14962   1
  -2  18   0 2.87010 5.43927   2
   2  18   0 1.19928 5.30248   2
   2  18   0 2.23214 4.68176   1
  -2  18   0 -3.1309 3.64917   1
   2  18   0 -2.4638 5.88207   3
   3 -18   0 45.2716 8.75708   1
  -3 -18   0 62.9880 8.15627   1
   3  18   0 75.3141 11.5607   3
   3  18   0 58.8446 10.2159   2
  -3  18   0 39.9615 8.16146   2
  -3  18   0 51.6065 6.98919   1
   3  18   0 58.6090 8.31457   1
   4 -18   0 43.3978 9.26789   1
   4  18   0 28.0174 8.69652   2
   4  18   0 39.2868 7.73663   1
  -4  18   0 27.0274 7.60602   2
   4  18   0 40.1386 10.4432   3
   5 -18   0 7.47846 7.19099   1
   5  18   0 1.17896 6.27317   2
   5  18   0 8.34937 8.10885   3
   5  18   0 0.38716 4.61453   1
   6 -18   0 574.561 23.9531   1
   6  18   0 603.149 22.3253   1
   6  18   0 560.859 29.8780   3
   7 -18   0 61.3258 10.7530   1
   7  18   0 58.5773 15.2089   3
   7  18   0 42.2238 9.08303   1
   8 -18   0 13.0616 8.83967   1
   8  18   0 14.5214 10.8719   3
   8  18   0 -2.7428 6.33138   1
   0 -19   0 4.93328 5.91332   1
   0  19   0 -0.7237 3.99086   1
   0  19   0 -6.6535 5.16351   2
   0  19   0 2.43212 7.10473   3
   1 -19   0 40.4498 8.28573   1
  -1 -19   0 31.2861 7.62473   1
  -1  19   0 35.5298 7.87678   2
  -1  19   0 43.9496 10.1951   3
  -1  19   0 26.2401 6.19579   1
   1  19   0 29.8812 8.19768   2
   1  19   0 39.1837 7.28761   1
   1  19   0 25.2070 8.04327   3
   2 -19   0 33.0803 8.46797   1
  -2 -19   0 34.0214 7.60008   1
   2  19   0 46.3980 9.94407   3
  -2  19   0 39.3778 6.87599   1
  -2  19   0 31.0556 7.54764   2
   2  19   0 50.0794 7.85288   1
   2  19   0 43.8545 8.74686   2
  -3 -19   0 0.48381 5.31857   1
   3 -19   0 5.27014 7.15248   1
   3  19   0 -2.1940 6.25662   3
   3  19   0 -1.4580 5.38996   2
   3  19   0 -0.0943 4.77266   1
  -3  19   0 9.77114 4.59894   1
  -3  19   0 0.59006 5.83735   2
   4 -19   0 82.9685 11.3465   1
  -4  19   0 90.7022 11.0462   2
   4  19   0 81.2897 12.2011   2
   4  19   0 82.8136 13.7436   3
   4  19   0 78.4761 9.79024   1
   5 -19   0 117.872 12.9820   1
   5  19   0 130.779 17.0518   3
   5  19   0 105.169 13.6575   2
   5  19   0 122.150 11.7756   1
  -5  19   0 118.133 12.3647   2
   6 -19   0 815.757 28.7280   1
   6  19   0 854.596 36.8641   3
   6  19   0 879.082 27.6933   1
   7 -19   0 -4.4634 6.54036   1
   7  19   0 9.66193 6.66683   1
   7  19   0 2.49816 9.51767   3
   0 -20   0 39.6354 8.44545   1
   0  20   0 39.0916 7.19539   1
   0  20   0 59.4659 10.7503   3
   0  20   0 45.0159 8.84470   2
   1 -20   0 113.998 11.6354   1
  -1 -20   0 170.966 13.5250   1
   1  20   0 142.729 13.6450   3
  -1  20   0 165.959 15.1470   3
   1  20   0 131.624 11.3594   1
  -1  20   0 147.878 12.9185   2
  -1  20   0 123.311 11.3100   1
   1  20   0 129.873 12.8176   2
  -2 -20   0 52.5422 8.98584   1
   2 -20   0 57.6604 10.2317   1
   2  20   0 49.6665 10.1582   3
   2  20   0 44.8010 9.22175   2
  -2  20   0 44.6594 8.57911   2
  -2  20   0 68.0173 8.82874   1
   2  20   0 55.7164 8.53367   1
   3 -20   0 75.8834 11.2398   1
  -3 -20   0 63.6029 11.1624   1
   3  20   0 72.4683 9.45268   1
   3  20   0 60.1652 10.1482   2
  -3  20   0 71.6897 8.61470   1
   3  20   0 76.1007 12.3311   3
  -3  20   0 41.8205 8.73954   2
   4 -20   0 -1.6735 7.11252   1
   4  20   0 -5.8845 4.51724   1
   4  20   0 4.70910 7.17583   2
  -4  20   0 -1.5564 6.47613   2
   4  20   0 -3.7570 6.78747   3
   5 -20   0 13.8992 7.57551   1
  -5  20   0 -7.3347 5.77436   2
   5  20   0 7.35249 7.17123   2
   5  20   0 11.9329 8.31929   3
   5  20   0 10.3222 6.04540   1
   6 -20   0 52.1354 10.6375   1
   6  20   0 55.6961 13.6849   3
  -6  20   0 59.0630 10.0004   2
   6  20   0 53.4752 9.52656   1
   7 -20   0 0.94729 7.77608   1
   7  20   0 4.11573 6.13865   1
   7  20   0 3.85350 9.51686   3
   0 -21   0 6.04950 7.07333   1
   0  21   0 -5.9746 5.61169   2
   0  21   0 14.5529 8.82511   3
   0  21   0 5.72639 4.71921   1
   1 -21   0 18.7049 8.19422   1
  -1 -21   0 11.1837 7.30802   1
  -1  21   0 14.8606 9.97832   3
   1  21   0 6.11442 6.45353   2
  -1  21   0 19.7792 6.30020   1
   1  21   0 10.0189 8.22688   3
   1  21   0 10.9005 5.63258   1
  -1  21   0 21.6460 7.69933   2
   2 -21   0 125.854 13.3978   1
  -2 -21   0 115.674 11.3221   1
  -2  21   0 101.089 10.5426   1
   2  21   0 90.9047 12.5014   3
   2  21   0 70.8857 10.6829   2
   2  21   0 96.9607 10.5097   1
  -2  21   0 94.8444 11.3757   2
   3 -21   0 1.32942 7.96801   1
   3  21   0 0.18853 6.40709   2
  -3  21   0 1.42727 4.58091   1
  -3  21   0 -5.5183 5.96467   2
   3  21   0 4.28670 7.68579   3
   3  21   0 -6.3463 4.45821   1
   4 -21   0 9.30277 8.09256   1
  -4  21   0 8.66341 7.28392   2
   4  21   0 17.0117 8.22616   2
   4  21   0 10.9226 8.55029   3
   4  21   0 14.8899 6.91624   1
   5 -21   0 -1.9077 6.85374   1
   5  21   0 -5.1750 5.58395   2
   5  21   0 10.8643 8.40626   3
  -5  21   0 -9.9667 6.11056   2
   5  21   0 3.63023 5.51980   1
   6 -21   0 51.1670 10.9550   1
  -6  21   0 28.8598 9.99292   2
   6  21   0 43.0224 8.97482   1
   6  21   0 37.9647 12.1029   3
   7 -21   0 12.5449 8.68659   1
   7  21   0 14.8504 11.0391   3
   7  21   0 17.3086 7.48507   1
   0 -22   0 7.92260 7.59707   1
   0  22   0 14.9385 8.06078   2
   0  22   0 5.08442 8.10426   3
   0  22   0 2.54481 5.34376   1
   1 -22   0 178.449 15.0712   1
  -1 -22   0 130.093 12.6900   1
   1  22   0 149.753 15.3607   3
   1  22   0 138.002 13.9039   2
  -1  22   0 137.675 12.3516   1
  -1  22   0 131.780 14.7674   3
   1  22   0 111.972 11.6506   1
  -1  22   0 123.368 12.9151   2
  -2 -22   0 265.881 15.8234   1
   2 -22   0 276.819 17.9487   1
   2  22   0 268.731 15.4341   1
  -2  22   0 257.088 16.1403   2
   2  22   0 262.820 18.1856   3
   2  22   0 184.456 16.1288   2
  -2  22   0 259.064 19.8586   3
  -2  22   0 281.084 15.2385   1
   3 -22   0 36.9560 9.91135   1
  -3  22   0 30.9541 8.59251   2
   3  22   0 38.3577 10.6974   3
  -3  22   0 32.3844 7.33369   1
   3  22   0 16.7832 6.98937   1
   3  22   0 33.4593 9.65717   2
   4 -22   0 1.84681 7.69241   1
  -4  22   0 17.2509 7.56483   2
   4  22   0 2.35227 7.85770   3
   4  22   0 6.30154 7.24045   2
   4  22   0 5.75792 5.73118   1
   5 -22   0 19.5735 9.07822   1
   5  22   0 39.5199 8.67740   1
   5  22   0 34.5020 10.0828   2
  -5  22   0 30.9973 8.88307   2
   5  22   0 56.3213 12.6758   3
   6 -22   0 16.9022 8.99555   1
   6  22   0 7.04586 9.22511   3
   6  22   0 0.95395 5.60141   1
   7 -22   0 2.61789 8.76412   1
   7  22   0 1.26478 6.08055   1
   7  22   0 2.76329 10.3731   3
   0 -23   0 3.39537 7.86537   1
   0  23   0 -11.270 7.35560   3
   0  23   0 -0.5196 4.90593   1
   0  23   0 1.81066 7.04772   2
   1 -23   0 111.202 13.1641   1
  -1 -23   0 98.7284 12.1786   1
  -1  23   0 107.084 12.4422   2
   1  23   0 105.409 11.8900   1
   1  23   0 124.863 14.3139   2
  -1  23   0 98.5983 13.4927   3
  -1  23   0 99.5849 11.0038   1
   1  23   0 130.345 14.7956   3
  -2 -23   0 100.411 12.2279   1
   2 -23   0 106.323 13.5221   1
  -2  23   0 109.608 15.4691   3
   2  23   0 101.552 11.7412   1
  -2  23   0 107.208 12.7991   2
   2  23   0 115.444 14.2075   3
  -2  23   0 85.0062 10.4412   1
   2  23   0 136.478 15.2630   2
   3 -23   0 -5.0356 7.85320   1
  -3  23   0 4.87726 7.07966   2
   3  23   0 9.27590 7.45349   2
   3  23   0 -7.3487 6.87342   3
  -3  23   0 -1.6555 4.38266   1
   3  23   0 -3.2218 4.90918   1
   4 -23   0 43.9649 10.5671   1
   4  23   0 36.8250 10.8836   3
  -4  23   0 33.0240 8.59863   2
   4  23   0 33.1311 8.09517   1
   4  23   0 26.5777 9.23741   2
   5 -23   0 104.096 13.9612   1
   5  23   0 132.994 17.9143   3
  -5  23   0 121.362 13.1953   2
   5  23   0 103.562 14.5670   2
   5  23   0 135.404 13.9077   1
   6 -23   0 203.102 18.7173   1
   6  23   0 187.738 22.3050   3
   6  23   0 163.946 15.9153   1
   7 -23   0 25.0547 10.3890   1
   7  23   0 23.1420 8.88176   1
   7  23   0 36.4029 14.0167   3
   0 -24   0 277.809 18.7037   1
   0  24   0 245.547 15.4827   1
   0  24   0 296.392 18.3999   2
   0  24   0 265.457 18.6416   3
  -1 -24   0 24.5146 8.96537   1
   1 -24   0 20.0724 9.79829   1
  -1  24   0 27.2709 7.15796   1
   1  24   0 14.2362 8.97668   3
  -1  24   0 12.7436 7.87770   2
   1  24   0 19.3772 6.91560   1
   1  24   0 26.7831 9.23246   2
  -1  24   0 35.3612 10.7631   3
  -2 -24   0 225.477 16.5004   1
   2 -24   0 225.693 18.2245   1
  -2  24   0 225.662 14.2741   1
  -2  24   0 223.376 16.6801   2
   2  24   0 204.607 17.8873   2
   2  24   0 231.216 15.5331   1
  -2  24   0 241.476 20.4698   3
   2  24   0 237.861 18.6436   3
   3 -24   0 160.133 15.6848   1
   3  24   0 155.990 16.4001   2
  -3  24   0 132.598 13.8097   2
  -3  24   0 145.112 16.3432   1
   3  24   0 124.167 13.0324   1
   3  24   0 157.949 16.7653   3
   4 -24   0 130.215 15.0046   1
  -4  24   0 103.060 12.6100   2
   4  24   0 112.748 12.8273   1
   4  24   0 106.299 15.7459   3
   4  24   0 105.172 14.4072   2
   5 -24   0 -2.8487 7.87467   1
   5  24   0 7.22545 7.69242   2
  -5  24   0 -1.3691 6.22890   2
   5  24   0 3.72824 8.29491   3
   5  24   0 1.61553 5.90470   1
   6 -24   0 116.989 15.1094   1
   6  24   0 136.176 15.2171   1
   6  24   0 89.4777 16.4554   3
   7 -24   0 38.6514 11.6696   1
   7  24   0 42.7626 15.1039   3
   7  24   0 54.0088 11.3386   1
   0 -25   0 6.90640 8.88783   1
   0  25   0 5.78036 7.81453   2
   0  25   0 1.22307 5.27556   1
   0  25   0 -2.3816 8.56333   3
  -1 -25   0 826.483 28.4482   1
   1 -25   0 842.128 30.1300   1
  -1  25   0 811.700 29.3063   3
   1  25   0 837.182 30.0426   3
   1  25   0 889.094 28.7801   1
  -1  25   0 872.368 28.3636   1
   1  25   0 804.699 29.5163   2
  -1  25   0 838.649 28.4801   2
  -2 -25   0 25.8596 8.91995   1
   2 -25   0 9.95681 8.90477   1
   2  25   0 13.9528 8.37881   2
  -2  25   0 23.5430 12.3898   3
  -2  25   0 23.6124 7.15144   1
   2  25   0 13.2234 7.10740   1
  -2  25   0 11.6530 7.79593   2
   2  25   0 20.3713 9.05456   3
   3 -25   0 169.786 16.7469   1
   3  25   0 179.437 17.6786   2
  -3  25   0 179.668 16.1538   2
   3  25   0 173.866 17.8297   3
   3  25   0 166.424 15.2836   1
   4 -25   0 56.3576 12.4866   1
   4  25   0 69.1720 13.5894   3
   4  25   0 61.1480 12.0611   2
   4  25   0 67.7256 10.6769   1
  -4  25   0 64.4311 10.5465   2
   5 -25   0 29.1458 10.6416   1
   5  25   0 22.7195 8.91775   2
   5  25   0 22.9648 10.4058   3
  -5  25   0 17.0062 7.99118   2
   5  25   0 42.7977 9.09425   1
   6 -25   0 -4.4202 8.61092   1
   6  25   0 6.46892 9.60013   3
   6  25   0 17.5890 7.86211   1
   0 -26   0 1603.85 41.6774   1
   0  26   0 1656.94 42.7654   2
   0  26   0 1645.63 41.1437   1
   0  26   0 1651.22 42.1488   3
   1 -26   0 328.329 20.4180   1
  -1 -26   0 321.415 19.4092   1
  -1  26   0 346.993 21.8238   3
  -1  26   0 368.360 20.0237   2
   1  26   0 309.759 19.6473   2
   1  26   0 311.888 18.2135   1
   1  26   0 289.929 19.7371   3
  -1  26   0 289.998 17.3830   1
   2 -26   0 15.4962 9.62376   1
  -2 -26   0 3.50922 7.59062   1
  -2  26   0 7.71313 10.7609   3
   2  26   0 7.09006 7.65723   3
  -2  26   0 1.99955 5.51907   1
   2  26   0 6.39545 6.21013   1
   2  26   0 -2.0853 7.03701   2
  -2  26   0 1.87078 7.12658   2
   3 -26   0 4.66172 8.98128   1
   3  26   0 -1.3882 6.95508   2
   3  26   0 4.51269 7.44022   3
   3  26   0 -3.9261 5.23445   1
  -3  26   0 3.33534 6.95832   2
   4 -26   0 3.95259 9.29575   1
  -4  26   0 9.37103 7.70581   2
   4  26   0 3.63690 8.24583   3
   4  26   0 -2.1390 5.61587   1
   4  26   0 -2.8716 6.96472   2
   5 -26   0 8.18425 9.27662   1
   5  26   0 11.6810 8.91769   3
  -5  26   0 9.19164 7.67660   2
   5  26   0 4.92519 7.72568   2
   5  26   0 -4.5038 5.78123   1
   6 -26   0 12.5201 10.1104   1
   6  26   0 20.7501 9.80123   2
   6  26   0 21.0788 8.74300   1
   6  26   0 -4.3461 8.13063   3
   0 -27   0 26.4495 9.76432   1
   0  27   0 28.0232 10.1587   3
   0  27   0 18.8450 7.29914   1
   0  27   0 19.4333 8.44034   2
  -1 -27   0 18.5401 9.20302   1
   1 -27   0 2.01872 8.18132   1
  -1  27   0 9.80071 9.50796   3
  -1  27   0 7.58475 6.17781   1
   1  27   0 2.79014 7.75071   3
  -1  27   0 3.65529 7.60751   2
   1  27   0 2.72161 5.94945   1
   1  27   0 3.69109 7.44842   2
   2 -27   0 82.4592 13.3039   1
  -2  27   0 52.8866 13.1943   3
  -2  27   0 81.4671 11.1072   1
   2  27   0 69.7303 11.0235   1
   2  27   0 73.8316 12.8017   2
   2  27   0 57.8185 12.0471   3
  -2  27   0 79.3891 12.6657   2
   3 -27   0 -2.7418 8.45252   1
  -3  27   0 3.29203 12.3303   3
  -3  27   0 2.17483 7.78613   2
   3  27   0 10.7369 8.49329   3
   3  27   0 -1.2236 6.03203   1
   3  27   0 7.17054 7.15448   2
   4 -27   0 36.1637 11.6901   1
   4  27   0 60.0505 13.4117   3
   4  27   0 43.8512 11.8119   2
   4  27   0 50.8018 9.90601   1
   5 -27   0 -0.3451 9.09457   1
   5  27   0 8.50897 9.02030   3
   5  27   0 4.57069 8.20213   2
   5  27   0 10.9162 7.47925   1
  -5  27   0 13.5428 7.81071   2
   6 -27   0 20.6368 10.7947   1
   6  27   0 6.86562 7.86051   1
   6  27   0 9.30436 10.3698   3
   6  27   0 15.1368 9.71240   2
   0 -28   0 1228.80 36.6629   1
   0  28   0 1162.59 35.1069   1
   0  28   0 1191.91 36.8969   2
   0  28   0 1136.19 36.1978   3
  -1 -28   0 11.3662 8.92811   1
   1 -28   0 28.1403 10.1557   1
   1  28   0 7.09053 7.04680   1
  -1  28   0 9.14921 6.61209   1
   1  28   0 31.3542 9.57921   3
  -1  28   0 14.5232 8.89360   2
   1  28   0 14.3564 8.33711   2
  -1  28   0 14.2222 9.50345   3
   2 -28   0 35.6596 11.1424   1
  -2  28   0 34.7016 11.5708   3
  -2  28   0 27.4173 9.27243   2
  -2  28   0 29.1655 8.24133   1
   2  28   0 22.8823 9.57683   3
   2  28   0 6.95493 7.58503   2
   2  28   0 30.8709 8.70039   1
   3 -28   0 117.025 15.5356   1
   3  28   0 102.176 15.1333   3
  -3  28   0 146.883 18.9161   3
   3  28   0 129.659 14.7752   1
   3  28   0 95.5120 14.0776   2
  -3  28   0 117.345 14.4992   2
   4 -28   0 -3.0630 9.09441   1
   4  28   0 7.56486 8.78188   2
  -4  28   0 3.25073 7.40959   2
   4  28   0 13.3101 9.27061   3
   4  28   0 8.75631 6.78261   1
   5 -28   0 -7.9831 8.97179   1
   5  28   0 -4.2413 7.24987   3
   5  28   0 0.30017 6.48540   1
  -5  28   0 -0.4093 6.82282   2
   5  28   0 7.75050 8.08251   2
   6 -28   0 121.843 17.1823   1
   6  28   0 134.366 20.9010   3
   6  28   0 107.122 14.6881   1
   6  28   0 121.836 19.0074   2
   0 -29   0 35.8372 10.3246   1
   0  29   0 20.0281 9.38552   3
   0  29   0 10.0363 7.46544   2
   0  29   0 14.9597 7.16489   1
   1 -29   0 68.1390 13.1504   1
  -1 -29   0 66.2340 12.8274   1
   1  29   0 64.7797 11.2947   1
   1  29   0 64.7477 12.7342   2
  -1  29   0 72.1221 12.2828   2
   1  29   0 74.7581 12.7038   3
  -1  29   0 62.7540 10.5289   1
  -1  29   0 69.2654 13.3592   3
   2 -29   0 43.2169 12.2337   1
   2  29   0 56.8316 11.7121   3
   2  29   0 32.6060 10.0593   2
   2  29   0 61.3108 10.8814   1
  -2  29   0 52.6652 11.4550   2
  -2  29   0 39.4378 9.17560   1
  -2  29   0 57.8812 13.6736   3
   3 -29   0 124.951 17.1239   1
  -3  29   0 81.4507 13.2007   2
  -3  29   0 105.457 17.3345   3
   3  29   0 81.9811 12.3650   1
   3  29   0 100.431 15.2739   2
   3  29   0 84.5999 13.9690   3
   4 -29   0 104.211 15.6863   1
   4  29   0 108.977 17.0036   3
  -4  29   0 104.316 13.8095   2
   4  29   0 111.924 16.6739   2
   4  29   0 114.285 14.6341   1
   5 -29   0 4.92156 9.90328   1
  -5  29   0 -2.9575 7.02129   2
   5  29   0 14.0981 7.81214   1
   5  29   0 21.5799 10.4872   3
   5  29   0 17.1193 9.59294   2
   0 -30   0 177.640 18.4686   1
   0  30   0 182.692 18.5108   3
   0  30   0 196.942 18.1026   1
   0  30   0 164.307 17.7375   2
   1 -30   0 148.306 17.2048   1
  -1 -30   0 191.850 18.4564   1
  -1  30   0 182.303 18.4585   3
  -1  30   0 166.000 16.2494   1
   1  30   0 157.425 16.1511   1
   1  30   0 177.103 18.1605   3
   1  30   0 164.509 17.8493   2
  -1  30   0 138.792 16.1063   2
   2 -30   0 60.5293 13.4295   1
   2  30   0 55.2991 12.2504   3
  -2  30   0 102.610 15.6708   3
  -2  30   0 76.9688 11.8531   1
   2  30   0 92.4291 13.3404   1
  -2  30   0 86.3832 13.5578   2
   2  30   0 74.9506 13.7171   2
   3 -30   0 33.7889 12.0838   1
   3  30   0 20.2287 8.31875   1
   3  30   0 21.2890 9.73810   3
   3  30   0 23.8612 9.56665   2
  -3  30   0 30.0420 9.91152   2
  -3  30   0 0.02294 12.7765   3
   4 -30   0 39.4441 13.0210   1
  -4  30   0 -10.813 14.4567   3
  -4  30   0 56.6456 11.2476   2
   4  30   0 47.4148 11.7916   2
   4  30   0 30.2117 11.3933   3
   4  30   0 52.3065 10.8165   1
   5 -30   0 5.02890 9.90276   1
   5  30   0 2.99734 8.91945   2
  -5  30   0 1.31611 7.57351   2
   5  30   0 -6.2302 6.04382   1
   5  30   0 11.0134 9.15158   3
   0 -31   0 1.18103 9.19424   1
   0  31   0 11.0287 8.69190   3
   0  31   0 4.28080 6.65253   1
   0  31   0 5.65587 7.19024   2
  -1 -31   0 37.5302 11.5371   1
   1 -31   0 46.5094 12.5246   1
   1  31   0 61.1465 11.2927   1
   1  31   0 44.7176 11.0959   2
   1  31   0 61.1078 12.6146   3
  -1  31   0 62.9051 12.8192   3
  -1  31   0 61.0248 10.9742   1
  -1  31   0 45.5016 11.1244   2
   2 -31   0 70.2602 14.4373   1
  -2  31   0 92.3669 14.8854   1
  -2  31   0 87.1837 15.0592   3
   2  31   0 84.5818 12.4105   1
   2  31   0 111.764 15.9968   3
  -2  31   0 79.5165 13.5704   2
   2  31   0 56.7629 12.1699   2
   3 -31   0 1.91688 9.22763   1
  -3  31   0 -0.0459 7.43979   2
   3  31   0 0.89655 7.30445   2
   3  31   0 -6.5554 6.74477   3
  -3  31   0 4.32969 11.8742   3
   3  31   0 8.18611 7.31416   1
   4 -31   0 2.47976 9.61056   1
  -4  31   0 9.51461 8.13095   2
   4  31   0 6.48960 7.49595   1
  -4  31   0 -31.259 13.0129   3
   4  31   0 9.33143 9.51400   3
   4  31   0 9.53724 8.95440   2
   5 -31   0 -3.1399 10.6798   1
  -5  31   0 17.4994 9.29042   2
   5  31   0 -3.8141 7.92543   2
   5  31   0 -1.6612 6.94215   1
   5  31   0 17.9738 10.0367   3
   0 -32   0 208.407 20.3877   1
   0  32   0 202.841 18.9102   1
   0  32   0 187.854 18.8001   3
   0  32   0 193.193 19.5191   2
   1 -32   0 38.1164 12.8312   1
  -1  32   0 42.1520 10.2088   1
   1  32   0 53.2312 12.0251   3
  -1  32   0 45.0934 11.5233   3
  -1  32   0 41.9833 11.4025   2
   1  32   0 25.8853 9.05398   1
   1  32   0 19.4610 9.33047   2
   2 -32   0 28.5453 12.5514   1
   2  32   0 24.9303 9.84968   2
   2  32   0 25.8270 9.87955   3
   2  32   0 22.7168 8.73384   1
  -2  32   0 31.3873 11.1813   3
  -2  32   0 18.0030 10.1317   2
   3 -32   0 15.9468 11.6868   1
   3  32   0 -1.9884 6.28421   1
   3  32   0 2.73555 8.07398   3
  -3  32   0 -2.0161 8.05184   2
  -3  32   0 -6.1509 10.4616   3
   3  32   0 2.90677 7.75878   2
   4 -32   0 102.682 17.1465   1
   4  32   0 115.887 18.1782   3
  -4  32   0 86.9471 14.0106   2
   4  32   0 118.131 15.6116   1
   4  32   0 111.125 17.2710   2
  -4  32   0 59.6740 22.2279   3
   5  32   0 48.7853 14.1444   3
   5  32   0 52.2634 13.6130   2
   0 -33   0 -10.659 9.14072   1
   0  33   0 0.15510 6.07639   1
   0  33   0 23.7590 9.93961   2
   0  33   0 -2.9595 7.09162   3
   1 -33   0 72.5061 14.7977   1
   1  33   0 91.6002 13.9595   1
   1  33   0 81.4556 14.0845   2
  -1  33   0 73.4600 12.9257   1
  -1  33   0 105.430 15.5591   3
  -1  33   0 80.9195 13.8169   2
   1  33   0 76.0097 13.6653   3
   2 -33   0 -10.395 9.34581   1
   2  33   0 2.20377 7.27813   2
   2  33   0 4.31745 7.04773   1
  -2  33   0 8.92914 9.93450   3
  -2  33   0 -0.4204 8.06162   2
   2  33   0 12.3530 8.92104   3
   3 -33   0 -11.756 9.84732   1
   3  33   0 0.05226 6.97786   2
  -3  33   0 -8.2407 10.7887   3
  -3  33   0 1.16802 7.61601   2
   3  33   0 8.38151 7.81436   1
   3  33   0 6.65603 7.96405   3
   4 -33   0 3.91874 11.2110   1
  -4  33   0 4.27640 7.71523   2
   4  33   0 6.85743 7.85367   1
   4  33   0 -7.1239 7.40415   3
   4  33   0 -1.1735 7.80366   2
   0 -34   0 34.2704 12.1569   1
   0  34   0 15.7190 8.55357   1
   0  34   0 27.8713 10.6326   3
   0  34   0 37.4728 10.9677   2
   1 -34   0 120.244 17.3356   1
   1  34   0 110.433 15.0796   1
   1  34   0 103.154 16.5211   2
   1  34   0 102.824 15.5630   3
  -1  34   0 108.203 15.2185   3
  -1  34   0 123.082 15.7358   1
  -1  34   0 121.194 16.1524   2
   2 -34   0 37.4533 13.1510   1
  -2  34   0 70.4135 13.7664   3
   2  34   0 65.2249 13.2544   3
  -2  34   0 46.6848 11.5096   2
   2  34   0 59.5961 13.0435   2
   2  34   0 53.4562 11.8091   1
   3 -34   0 -2.9948 10.4806   1
   3  34   0 3.16026 7.54220   3
  -3  34   0 3.43044 8.44097   2
   3  34   0 6.08980 8.23810   2
   3  34   0 -6.9187 6.34401   1
  -3  34   0 -9.0441 10.5430   3
   4 -34   0 7.07082 11.9179   1
  -4  34   0 -10.398 7.23547   2
   4  34   0 10.2164 9.48521   3
   4  34   0 -4.8502 6.60673   1
   4  34   0 2.54817 9.10457   2
   0 -35   0 18.1081 11.4082   1
   0  35   0 -8.8186 5.54040   1
   0  35   0 21.0468 9.44652   2
   0  35   0 11.2083 8.54766   3
   1 -35   0 2.53398 10.1981   1
   1  35   0 -0.8966 6.78222   1
  -1  35   0 20.2639 9.75616   3
  -1  35   0 7.17315 8.59267   2
  -1  35   0 19.5983 8.79028   1
   1  35   0 -1.6449 7.20238   2
   1  35   0 4.92133 8.20613   3
   2 -35   0 10.3997 12.3740   1
   2  35   0 30.7355 10.7407   3
  -2  35   0 13.6777 10.1831   3
  -2  35   0 5.03952 8.96631   2
   2  35   0 27.9740 10.5204   2
   2  35   0 15.5902 8.41129   1
   3 -35   0 14.8031 12.5155   1
   3  35   0 12.3294 8.74891   1
   3  35   0 9.37836 9.32688   2
   3  35   0 29.7444 10.9501   3
  -3  35   0 16.6243 10.1031   2
   0 -36   0 148.680 26.0813   1
   0  36   0 158.178 18.5993   1
   0  36   0 166.744 18.8579   3
   0  36   0 148.116 18.5820   2
   1 -36   0 -7.2125 9.68483   1
  -1  36   0 3.30209 8.55599   2
   1  36   0 -11.541 6.54989   2
   1  36   0 2.99183 8.22809   3
  -1  36   0 7.58704 7.69439   1
  -1  36   0 -0.3809 7.82448   3
   1  36   0 3.53053 7.43137   1
   2 -36   0 23.9851 12.9619   1
   2  36   0 12.1016 9.23469   2
  -2  36   0 36.9666 12.2979   3
   2  36   0 30.6144 10.6620   3
   2  36   0 12.9647 8.73363   1
  -2  36   0 23.3694 10.4649   2
   3 -36   0 -8.2440 11.4150   1
   3  36   0 -3.2723 7.82883   2
   3  36   0 -4.3536 6.96725   1
  -3  36   0 6.39076 8.35738   2
   3  36   0 0.65487 7.61987   3
   0  37   0 2.21909 7.03379   1
   0  37   0 22.0094 9.40971   3
   0  37   0 -2.5311 7.95779   2
   1 -37   0 4.25819 11.5966   1
   1  37   0 8.68047 8.99450   2
  -1  37   0 28.0816 10.4831   3
  -1  37   0 10.7110 9.63546   2
   1  37   0 8.62186 7.83853   1
   1  37   0 21.6831 9.69151   3
   2 -37   0 3.89828 12.2174   1
   2  37   0 15.2621 9.27686   1
   2  37   0 30.2216 10.9874   3
   2  37   0 3.91196 8.45787   2
  -2  37   0 31.3608 11.2188   2
   0  38   0 65.7066 13.4943   3
   0  38   0 49.3153 11.7811   1
   0  38   0 85.9173 15.6968   2
   1 -38   0 16.6171 13.8783   1
  -1  38   0 21.7047 9.57162   3
   1  38   0 2.70309 9.03434   2
   1  38   0 13.3515 9.73984   3
  -1  38   0 7.92501 8.51175   2
   1  38   0 -3.3375 7.03661   1
   9   0  -1 -2.0855 4.40751   1
   8   0  -1 1.30525 4.24766   1
   7   0  -1 256.138 12.3058   1
   6   0  -1 0.32087 3.79995   1
   5   0  -1 49.5773 5.62731   1
   5   0  -1 53.1713 5.84072   1
   4   0  -1 -0.9595 4.41147   3
   4   0  -1 -2.3537 2.42918   1
   4   0  -1 0.58478 2.55213   1
   4   0  -1 -1.8600 2.54107   1
   3   0  -1 1790.28 34.4046   3
   3   0  -1 1788.64 27.3890   1
  -2   0   1 -2.6571 2.48751   1
   2   0  -1 -1.4800 2.30120   1
  -1   0   1 1776.32 24.6221   1
   1   0  -1 1791.63 24.7737   1
   0   0  -1 -11.933 1.29572   1
   0   0   1 -12.300 1.63423   1
   1   0   1 1323.47 20.9410   3
   1   0   1 1347.73 17.3400   2
   2   0   1 -0.1474 3.42533   3
   3   0   1 643.468 18.6910   3
   4   0   1 0.89727 4.30351   3
   5   0   1 63.2354 10.0542   3
   6   0   1 -3.3476 5.87173   3
   7   0   1 45.1208 4.60706   1
   7   0   1 56.7022 12.5952   3
   8   0   1 6.80397 3.55671   1
   9  -1  -1 17.6253 6.30714   1
   9   1  -1 9.95117 5.37816   1
   8  -1  -1 19.3519 5.63946   1
   8   1  -1 9.70936 4.98588   1
   7  -1  -1 -1.3473 3.98883   1
   7   1  -1 0.12511 4.07863   1
   6  -1  -1 -6.9705 3.20661   1
   6   1  -1 -1.0537 3.60291   1
   5  -1  -1 74.8867 6.56980   1
   5  -1  -1 74.8667 6.74776   1
   5  -1  -1 69.6056 6.32856   1
   5   1  -1 80.2462 6.95560   1
   5   1  -1 75.4813 6.55374   1
   5   1  -1 60.6260 9.99545   3
   4  -1  -1 78.5538 6.20187   1
   4   1  -1 74.6304 5.87132   1
   4   1  -1 79.3394 6.25122   1
   4   1  -1 97.5105 10.5901   3
   3  -1  -1 1947.64 29.4318   1
   3   1  -1 1950.06 29.1821   1
   3   1  -1 1934.62 36.3728   3
   2  -1  -1 515.995 11.3526   1
  -2  -1   1 526.877 14.7363   1
   2   1  -1 519.835 11.1876   1
  -2   1   1 516.811 10.8168   1
   1  -1  -1 29.1698 3.07957   1
  -1  -1   1 34.8638 3.44203   1
  -1   1   1 37.4401 3.33028   1
  -1   1   1 34.1604 3.25528   1
   1   1  -1 31.6950 3.11124   1
   0  -1  -1 5.81981 1.80864   1
   0  -1   1 5.89622 2.04614   1
   0   1   1 2.70592 1.96361   1
   0   1  -1 4.33573 1.73065   1
   2  -1   1 392.220 11.9429   3
   2   1   1 410.906 12.8128   3
   2   1   1 399.209 9.07101   2
   3  -1   1 11.9427 4.49082   3
   3   1   1 6.99579 4.30577   3
   4  -1   1 1.68276 4.65099   3
   4   1   1 3.65987 4.95151   3
   5  -1   1 47.7731 9.28528   3
   5   1   1 47.1584 9.46770   3
   6  -1   1 1.44756 2.10119   1
   6  -1   1 0.97792 6.43403   3
   6  -1   1 0.50233 2.29484   1
   6   1   1 9.90083 7.43352   3
   7  -1   1 51.7718 5.16684   1
   7  -1   1 35.6225 10.9923   3
   7   1   1 55.2630 4.93581   1
   7   1   1 43.5053 11.4154   3
   8  -1   1 104.995 7.71648   1
   8   1   1 111.615 7.38066   1
   8   1   1 91.9381 16.6179   3
   9  -2  -1 35.2723 7.81708   1
   9   2  -1 27.9650 6.58079   1
   8  -2  -1 10.0479 5.05779   1
   8   2  -1 -1.1764 4.19887   1
   7  -2  -1 67.3002 7.89462   1
   7   2  -1 70.0537 7.83979   1
   6  -2  -1 10.5960 4.61112   1
   6   2  -1 6.17257 4.15788   1
   6   2  -1 11.4261 7.76104   3
   5  -2  -1 64.5425 6.46482   1
   5  -2  -1 68.6585 6.35605   1
   5   2  -1 66.1243 10.6836   3
   5   2  -1 62.9881 6.40168   1
   5   2  -1 72.6622 6.67625   1
   4  -2  -1 6.48271 3.29432   1
   4   2  -1 6.57807 3.14214   1
   4   2  -1 3.98280 2.95511   1
   4   2  -1 12.3457 5.67058   3
   3  -2  -1 993.499 18.4287   1
   3   2  -1 1023.53 18.4853   1
   3   2  -1 977.507 24.1016   3
   2  -2  -1 379.462 9.86471   1
  -2  -2   1 394.949 10.3853   1
   2   2  -1 379.683 9.56990   1
  -2   2   1 378.682 9.23597   1
   1  -2  -1 1276.63 19.5228   1
  -1  -2   1 1285.85 19.4826   1
  -1   2   1 1315.81 19.6585   1
   1   2  -1 1286.39 19.5870   1
   1   2  -1 1296.80 20.3471   3
   0  -2   1 332.513 7.49909   1
   0  -2  -1 334.274 7.06872   1
   0   2  -1 328.307 7.11244   1
   0   2   1 321.644 7.18359   1
   1  -2   1 3431.58 42.7162   3
   1  -2   1 3419.20 40.4182   1
   1  -2   1 3429.66 40.5586   1
   1   2   1 3419.18 46.2574   3
   1   2   1 3431.00 42.6423   2
   1   2   1 3342.10 39.3379   1
   1   2   1 3375.14 39.3293   1
   2  -2   1 3613.99 49.7263   3
   2   2   1 3509.18 51.7190   3
   2   2   1 3547.72 46.0443   2
   3  -2   1 889.009 21.6658   3
   3   2   1 890.569 23.1659   3
   4  -2   1 16.7735 5.71272   3
   4   2   1 27.4111 6.82401   3
   5  -2   1 175.165 14.0019   3
   5   2   1 148.754 14.4258   3
   6  -2   1 1.77149 2.39153   1
   6  -2   1 5.51801 6.93046   3
   6  -2   1 5.81512 2.72308   1
   6   2   1 -0.4970 6.53130   3
   7  -2   1 154.126 7.65590   1
   7   2   1 153.500 6.93951   1
   7   2   1 124.355 16.5969   3
   8  -2   1 46.5029 6.05592   1
   8   2   1 49.0161 5.53458   1
   8   2   1 29.0444 11.4373   3
   9  -3  -1 9.43821 6.26349   1
   9   3  -1 19.5044 6.22830   1
   8  -3  -1 -1.7156 4.44228   1
   8   3  -1 2.00679 4.25988   1
   7  -3  -1 65.1950 7.79290   1
   7   3  -1 60.2878 7.50084   1
   7   3  -1 41.2255 11.5181   3
   6  -3  -1 1.87016 4.26955   1
   6   3  -1 -6.0943 3.43324   1
   6   3  -1 4.54712 6.98780   3
   5  -3  -1 134.980 8.54112   1
   5   3  -1 149.274 8.48027   1
   5   3  -1 170.852 15.8817   3
   5   3  -1 141.371 8.50842   1
   4  -3  -1 443.416 12.6503   1
   4   3  -1 441.519 15.7147   1
   4   3  -1 447.850 12.2973   1
   4   3  -1 439.196 18.1860   3
   3  -3  -1 7.06037 2.98325   1
   3   3  -1 7.10118 4.32261   3
   3   3  -1 2.17511 2.52623   1
  -2  -3   1 230.763 7.41376   1
   2  -3  -1 234.753 7.95865   1
   2   3  -1 225.250 9.90404   3
   2   3  -1 243.408 7.77102   1
  -2   3   1 230.047 7.57182   1
  -1  -3   1 2155.57 29.5918   1
   1  -3  -1 2160.27 29.9216   1
  -1   3   1 2151.31 29.8252   1
   1   3  -1 2175.23 30.4322   3
   1   3  -1 2159.08 29.7717   1
   0  -3  -1 1725.84 23.8044   1
   0  -3   1 1763.91 24.5337   1
   0   3   1 1777.32 24.1624   1
   0   3  -1 1751.76 24.1200   1
   1  -3   1 826.037 13.0624   1
   1  -3   1 818.011 13.1678   3
   1  -3   1 811.809 13.6922   1
   1   3   1 822.265 14.8384   2
   1   3   1 847.551 12.0383   1
   1   3   1 797.364 17.3506   3
   1   3   1 785.773 11.9176   1
   2  -3   1 111.553 6.65995   3
   2  -3   1 112.491 3.61383   1
   2  -3   1 111.896 3.36075   1
   2   3   1 114.199 8.22318   3
   2   3   1 117.828 6.13363   2
   3  -3   1 95.4497 8.37529   3
   3   3   1 97.6899 9.32106   3
   4  -3   1 8.68353 5.03558   3
   4   3   1 1.41248 4.86099   3
   5  -3   1 0.29704 5.40917   3
   5  -3   1 -0.2806 1.90232   1
   5  -3   1 0.66208 2.25898   1
   5   3   1 -2.7064 5.75058   3
   6  -3   1 -1.4396 6.36535   3
   6  -3   1 7.03165 3.15669   1
   6  -3   1 10.3866 2.90273   1
   6   3   1 7.03369 7.43243   3
   7  -3   1 57.4517 5.84603   1
   7   3   1 55.2240 12.2976   3
   7   3   1 58.9693 5.01355   1
   8  -3   1 53.9650 6.39141   1
   8   3   1 61.4387 14.1836   3
   8   3   1 50.7356 5.52646   1
   9  -4  -1 1.50452 5.47723   1
   9   4  -1 37.3338 7.63691   1
   8  -4  -1 6.50807 5.15216   1
   8   4  -1 11.3665 5.14037   1
   7  -4  -1 17.1081 5.68941   1
   7   4  -1 21.7092 5.67316   1
   7   4  -1 12.8252 9.25542   3
   6  -4  -1 23.2739 5.51453   1
   6   4  -1 14.4819 4.66903   1
   6   4  -1 24.3447 8.79626   3
   5  -4  -1 7.30347 4.00760   1
   5   4  -1 12.5319 4.22209   1
   5   4  -1 13.8180 4.25236   1
   5   4  -1 8.25844 6.74329   3
   4  -4  -1 24.7056 4.50142   1
   4   4  -1 45.9330 8.27093   3
   4   4  -1 31.5754 4.45425   1
   3  -4  -1 210.847 8.38162   1
   3   4  -1 221.440 11.6140   3
   3   4  -1 213.215 8.09573   1
  -2  -4   1 1123.62 18.3639   1
   2  -4  -1 1097.93 19.5248   1
  -2   4   1 1076.66 18.5161   1
   2   4  -1 1107.91 19.1021   1
   2   4  -1 1048.27 22.1118   3
  -1  -4   1 4779.07 60.2200   1
   1  -4  -1 4856.53 60.6260   1
   1   4  -1 4885.37 61.0486   3
  -1   4   1 4937.84 60.7097   1
   1   4  -1 4873.63 60.5388   1
   0  -4  -1 475.194 9.87510   1
   0  -4   1 484.838 10.6380   1
   0   4  -1 484.348 9.97714   1
   0   4   1 490.014 10.1573   1
   0   4  -1 494.992 9.49767   2
   1  -4   1 596.127 11.4370   1
   1   4   1 568.077 15.4152   3
  -1   4  -1 578.177 8.88626   2
   1   4   1 604.898 10.3385   1
   1   4   1 585.685 13.0162   2
   1   4   1 589.882 10.3844   1
   1   4   1 574.946 10.4545   1
   2  -4   1 -0.2707 1.63588   1
   2  -4   1 2.66966 3.10451   3
   2  -4   1 0.42627 2.05639   1
   2   4   1 -0.2944 3.77121   3
   2   4   1 1.22668 2.86443   2
   3  -4   1 34.2974 2.79806   1
   3  -4   1 43.9513 5.97408   3
   3  -4   1 34.1669 2.85627   1
   3   4   1 24.9209 4.41049   2
   3   4   1 26.2680 6.05718   3
   4  -4   1 31.8889 2.99585   1
   4  -4   1 33.9650 6.76317   3
   4  -4   1 31.2152 3.14976   1
   4   4   1 29.4734 7.12755   3
   5  -4   1 256.173 16.0696   3
   5  -4   1 270.264 8.16429   1
   5  -4   1 262.086 7.91593   1
   5   4   1 265.521 17.6951   3
   6  -4   1 3.22045 3.17805   1
   6  -4   1 2.27967 2.65908   1
   6   4   1 8.19158 7.33809   3
   7  -4   1 91.7449 7.23752   1
   7   4   1 81.8613 14.3208   3
   7   4   1 99.5744 6.22298   1
   8  -4   1 30.5060 5.65868   1
   8   4   1 29.4909 4.72459   1
   8   4   1 15.3821 9.84883   3
   9  -5  -1 116.323 12.1121   1
   9   5  -1 105.425 10.9911   1
   8  -5  -1 100.138 10.5460   1
   8   5  -1 90.0635 9.57557   1
   8   5  -1 95.3050 16.8129   3
   7  -5  -1 786.656 22.3239   1
   7   5  -1 798.336 21.6349   1
   7   5  -1 751.390 33.3526   3
   6  -5  -1 3.80667 4.56584   1
   6   5  -1 1.62425 7.11982   3
   6   5  -1 1.26459 3.92613   1
   5  -5  -1 114.875 8.78561   1
   5   5  -1 111.311 8.32793   1
   5   5  -1 80.4659 11.3039   3
   5   5  -1 116.805 7.98850   1
   4  -5  -1 622.899 15.7569   1
   4   5  -1 600.429 14.9523   1
   3  -5  -1 1.62080 3.02680   1
   3   5  -1 0.65332 2.51857   1
   3   5  -1 0.70005 4.05668   3
   2  -5  -1 41.0489 4.66953   1
  -2  -5   1 29.0240 4.06760   1
   2   5  -1 25.0650 4.92474   3
   2   5  -1 40.1434 4.33083   1
  -2   5   1 42.0415 4.44411   1
  -1  -5   1 1121.49 19.1191   1
   1  -5  -1 1080.62 19.0894   1
   1   5  -1 1093.73 18.9174   3
   1   5  -1 1080.30 18.5992   1
   1   5  -1 1030.60 19.5576   2
  -1   5   1 1089.33 18.7941   1
   0  -5  -1 548.914 11.6845   1
   0  -5   1 573.543 12.4586   1
   0   5  -1 584.402 11.3385   2
   0   5   1 586.920 11.8800   1
   0   5  -1 565.600 8.74040   3
   0   5  -1 562.018 11.7309   1
   0   5   1 584.239 15.2108   3
   1  -5   1 90.3121 6.19398   1
   1   5   1 91.9107 6.85741   2
   1   5   1 84.8806 8.31510   3
  -1   5  -1 87.2552 5.75611   1
  -1   5  -1 93.8471 4.38969   2
   1   5   1 97.9501 4.88681   1
   2  -5   1 59.8159 4.14513   1
   2  -5   1 71.5329 4.85001   1
   2   5   1 67.0257 3.80303   1
   2   5   1 68.0687 3.47873   1
   2   5   1 66.5313 6.18828   2
   2   5   1 58.6699 7.20980   3
   3  -5   1 157.003 5.72587   1
   3  -5   1 148.174 9.17192   3
   3  -5   1 164.570 6.01316   1
   3   5   1 162.879 11.0279   3
   3   5   1 148.933 8.41650   2
   4  -5   1 16.7855 5.64322   3
   4  -5   1 7.68205 2.84601   1
   4  -5   1 6.55190 2.36935   1
   4   5   1 14.1309 6.09116   3
   5  -5   1 97.6751 5.53509   1
   5  -5   1 102.669 6.38952   1
   5   5   1 100.839 13.9118   3
   6  -5   1 -4.2525 3.10555   1
   6  -5   1 5.80153 3.30909   1
   6   5   1 -0.3649 2.64867   1
   6   5   1 3.11751 2.51437   1
   6   5   1 -0.3811 6.47288   3
   7  -5   1 4.58332 3.94875   1
   7   5   1 3.33805 7.68816   3
   7   5   1 -3.2082 2.72832   1
   8  -5   1 118.081 9.36135   1
   8   5   1 105.336 7.44159   1
   8   5   1 85.3113 16.1047   3
   9  -6  -1 32.4580 7.98040   1
   9   6  -1 48.1669 8.39948   1
   8  -6  -1 9.86352 5.79207   1
   8   6  -1 10.6389 5.47134   1
   8   6  -1 12.9457 9.53954   3
   7  -6  -1 124.759 10.7174   1
   7   6  -1 129.824 10.6062   1
   7   6  -1 122.579 16.9137   3
   6  -6  -1 0.06029 4.66346   1
   6   6  -1 2.97951 4.21440   1
   6   6  -1 1.18671 6.64707   3
   5  -6  -1 53.9492 6.81496   1
   5   6  -1 55.1348 6.35948   1
   5   6  -1 51.9887 9.45156   3
   5   6  -1 47.1773 7.23655   1
   4  -6  -1 4.11664 3.49251   1
   4   6  -1 0.84167 2.84410   1
   4   6  -1 -1.9398 4.47615   3
   3  -6  -1 237.065 9.57470   1
   3   6  -1 228.993 8.87462   1
   3   6  -1 228.800 12.1856   3
  -2  -6   1 3.12310 3.15742   1
   2  -6  -1 -0.6714 2.98813   1
   2   6  -1 -0.7233 3.36930   3
  -2   6   1 3.82772 2.71405   1
   2   6  -1 -0.7442 2.56792   1
   1  -6  -1 3323.51 44.8828   1
  -1  -6   1 3338.21 44.9508   1
   1   6  -1 3266.33 44.7087   1
  -1   6   1 3315.30 44.8147   1
   1   6  -1 3285.80 45.8390   2
   1   6  -1 3325.68 44.6722   3
   0  -6   1 333.611 10.3796   1
   0  -6  -1 328.639 9.52600   1
   0   6  -1 344.484 9.33395   1
   0   6   1 335.165 9.41102   1
   0   6   1 355.456 13.7464   3
   0   6  -1 336.468 7.23923   3
   0   6   1 340.169 10.8673   2
   0   6  -1 348.576 9.07292   2
   1  -6   1 22.2748 4.12047   1
   1   6   1 26.4134 5.03167   2
   1   6   1 22.4915 3.34018   1
  -1   6  -1 12.7640 2.73368   1
  -1   6  -1 12.3460 2.88759   2
   1   6   1 12.1412 5.93537   3
   2  -6   1 23.2521 3.61630   1
   2   6   1 16.7697 4.15500   2
   2   6   1 18.0049 5.51567   3
   2   6   1 19.5032 2.92100   1
   2   6   1 14.3472 2.53325   1
   3  -6   1 84.8032 4.97847   1
   3  -6   1 100.717 5.84157   1
   3   6   1 99.0253 8.09287   2
   3   6   1 100.032 4.12464   1
   3   6   1 92.8482 4.40287   1
   3   6   1 94.6047 9.75814   3
   4  -6   1 127.408 6.63694   1
   4  -6   1 124.668 6.14898   1
   4   6   1 117.214 4.68317   1
   4   6   1 113.683 12.4527   3
   5  -6   1 12.1934 3.26533   1
   5  -6   1 10.2813 3.75220   1
   5   6   1 9.74007 2.51076   1
   5   6   1 11.8413 2.86682   1
   5   6   1 7.69042 7.12866   3
   6  -6   1 125.794 8.33012   1
   6   6   1 114.450 15.3112   3
   6   6   1 122.216 6.21143   1
   6   6   1 117.218 6.39456   1
   7  -6   1 95.5991 8.07580   1
   7   6   1 95.6187 6.85056   1
   7   6   1 65.1539 13.3517   3
   8  -6   1 236.951 11.9671   1
   8   6   1 247.064 10.5450   1
   8   6   1 237.466 24.7760   3
   9  -7  -1 177.244 15.0747   1
   9   7  -1 179.148 13.5018   1
   8  -7  -1 20.7385 6.56880   1
   8   7  -1 10.2435 9.77677   3
   8   7  -1 21.3844 6.17139   1
   7  -7  -1 132.021 11.1446   1
   7   7  -1 120.930 10.3828   1
   7   7  -1 100.073 14.8095   3
   6  -7  -1 0.78774 5.01534   1
   6   7  -1 -3.9985 3.66363   1
   6   7  -1 2.81130 7.13492   3
   5  -7  -1 107.897 9.12394   1
   5   7  -1 104.399 8.41553   1
   5   7  -1 102.108 12.3959   3
   4  -7  -1 171.549 9.53171   1
   4   7  -1 192.626 13.2457   3
   4   7  -1 184.213 8.96473   1
   3  -7  -1 30.3287 4.87591   1
  -3   7   1 40.9737 4.48236   1
   3   7  -1 43.7321 5.17696   1
   3   7  -1 37.6625 6.72809   3
   2  -7  -1 93.5842 7.06423   1
  -2  -7   1 90.4858 6.34189   1
   2   7  -1 110.036 8.14300   3
   2   7  -1 81.1714 6.06915   1
  -2   7   1 94.0741 6.07249   1
   2   7  -1 112.416 8.16859   2
  -1  -7   1 373.033 11.5092   1
   1  -7  -1 364.932 11.2076   1
   1   7  -1 371.330 11.6202   2
   1   7  -1 375.200 10.7284   3
  -1   7   1 366.955 10.9866   1
   1   7  -1 383.765 11.0028   1
   0  -7   1 1336.32 23.4318   1
   0  -7  -1 1373.22 22.9295   1
   0   7  -1 1359.47 19.8753   3
   0   7   1 1412.45 23.0407   1
   0   7   1 1357.28 24.4595   2
   0   7  -1 1367.38 22.8205   1
   0   7  -1 1371.54 22.4832   2
   0   7   1 1368.64 27.0452   3
  -1  -7  -1 339.025 9.67007   1
   1  -7   1 328.713 10.3187   1
  -1   7  -1 317.814 8.36909   2
   1   7   1 321.041 9.07045   1
   1   7   1 320.151 11.3573   2
   1   7   1 309.630 13.2504   3
  -1   7  -1 319.345 8.94214   1
   2  -7   1 11.3931 3.48349   1
  -2   7  -1 7.85042 2.76639   2
   2   7   1 2.19538 4.47858   3
   2   7   1 5.32611 3.54764   2
   2   7   1 10.3771 2.63989   1
   2   7   1 6.53986 2.86401   1
   3  -7   1 19.7511 3.33118   1
   3  -7   1 19.5006 3.73782   1
   3   7   1 16.9533 2.79263   1
   3   7   1 18.5069 3.13870   1
   3   7   1 19.9000 6.37561   3
   3   7   1 24.5804 5.22879   2
   4  -7   1 33.3082 4.64210   1
   4  -7   1 30.4049 4.15572   1
   4   7   1 28.7541 3.57745   1
   4   7   1 34.1186 6.30481   2
   4   7   1 32.4292 3.31036   1
   4   7   1 31.7800 7.59599   3
   5  -7   1 43.3024 5.66983   1
   5  -7   1 42.9892 5.14067   1
   5   7   1 30.9354 3.77662   1
   5   7   1 40.6856 4.37645   1
   5   7   1 36.7679 9.32120   3
   6  -7   1 45.2125 6.06808   1
   6   7   1 35.2422 4.59021   1
   6   7   1 34.7041 4.39831   1
   6   7   1 29.6796 10.2902   3
   7  -7   1 82.9650 7.94876   1
   7   7   1 93.5869 16.0433   3
   7   7   1 100.420 7.55961   1
   8  -7   1 15.8432 5.26451   1
   8   7   1 11.3818 4.45816   1
   8   7   1 -1.5210 8.38297   3
   9  -8  -1 14.3236 7.09376   1
   9   8  -1 14.8612 6.44667   1
   8  -8  -1 41.7003 8.12687   1
   8   8  -1 56.6318 8.65625   1
   8   8  -1 52.4360 13.4930   3
   7  -8  -1 17.5977 6.34023   1
   7   8  -1 8.51573 4.95433   1
   7   8  -1 2.79539 7.63568   3
   6  -8  -1 4.15094 4.94399   1
   6   8  -1 -2.4988 4.01326   1
   6   8  -1 3.44045 6.98179   3
   5  -8  -1 82.3154 8.49119   1
   5   8  -1 83.7689 12.3592   3
   5   8  -1 86.8123 8.21216   1
   4  -8  -1 -1.0325 3.72459   1
   4   8  -1 2.85406 3.31496   1
   4   8  -1 1.21982 4.88630   3
   3  -8  -1 552.701 15.3493   1
   3   8  -1 571.691 14.9778   1
   3   8  -1 555.526 18.7707   3
  -3   8   1 565.067 13.8589   1
  -2  -8   1 149.588 7.72189   1
   2  -8  -1 146.886 8.07475   1
   2   8  -1 158.093 9.11639   3
  -2   8   1 156.206 7.69198   1
   2   8  -1 152.010 7.74710   1
   2   8  -1 151.378 8.97023   2
   1  -8  -1 2140.10 32.7170   1
  -1  -8   1 2100.92 32.6329   1
  -1   8   1 2088.95 32.5814   1
   1   8  -1 2049.42 32.2953   1
   1   8  -1 2033.73 33.3052   2
   1   8  -1 2074.28 32.1355   3
   0  -8  -1 0.37115 3.63266   1
   0  -8   1 5.39235 4.47821   1
   0   8   1 11.7687 5.12472   2
   0   8  -1 7.27616 3.19166   1
   0   8  -1 -1.3428 3.20357   3
   0   8  -1 7.23819 3.65872   2
   0   8   1 22.6496 7.35631   3
   0   8   1 8.11930 3.48030   1
   1  -8   1 25.0365 4.55690   1
  -1  -8  -1 35.4833 4.55172   1
  -1   8  -1 26.4879 3.65215   1
   1   8   1 29.8292 6.73281   3
   1   8   1 29.4037 4.12739   1
  -1   8  -1 25.3762 3.82226   2
   1   8   1 28.8626 5.44138   2
   2  -8   1 85.6935 6.30240   1
   2   8   1 80.8157 5.33147   1
  -2   8  -1 68.5703 5.12425   2
   2   8   1 79.8054 7.44903   2
   2   8   1 81.4753 9.35496   3
   3  -8   1 611.561 14.5343   1
   3   8   1 589.526 20.9414   3
   3   8   1 595.976 17.5062   2
   3   8   1 579.283 12.5918   1
   3   8   1 595.812 12.6613   1
   4  -8   1 108.081 7.68514   1
   4  -8   1 108.801 6.73008   1
   4   8   1 110.339 9.80588   2
   4   8   1 105.059 6.38990   1
   4   8   1 104.004 5.51363   1
   4   8   1 114.927 12.9197   3
   5  -8   1 121.539 7.63332   1
   5  -8   1 130.027 8.63785   1
   5   8   1 119.699 14.0851   3
   5   8   1 126.653 6.51579   1
   5   8   1 118.847 7.10785   1
   6  -8   1 71.8732 7.37198   1
   6   8   1 84.8746 6.64039   1
   6   8   1 73.6779 13.4512   3
   7  -8   1 41.5882 6.70447   1
   7   8   1 43.1129 12.0372   3
   7   8   1 53.5131 6.25940   1
   8  -8   1 2.30853 5.17386   1
   8   8   1 3.64132 4.05938   1
   8   8   1 -0.1984 8.82080   3
   8  -9  -1 37.0182 8.07488   1
   8   9  -1 45.3514 8.25096   1
   8   9  -1 35.7894 12.3328   3
   7  -9  -1 246.812 14.0912   1
   7   9  -1 195.389 20.3566   3
   7   9  -1 272.100 13.8618   1
   6  -9  -1 53.5100 7.82917   1
   6   9  -1 61.6059 7.69534   1
   6   9  -1 50.4312 11.2057   3
   5  -9  -1 135.422 10.6908   1
   5   9  -1 180.112 17.3683   3
   5   9  -1 129.529 9.31234   1
   4  -9  -1 2.97941 4.14717   1
   4   9  -1 1.17132 3.35895   1
   4   9  -1 3.14992 5.34377   3
   3  -9  -1 838.349 19.9084   1
   3   9  -1 842.091 23.8011   3
   3   9  -1 843.809 19.2918   1
  -3   9   1 835.417 18.0191   1
  -2  -9   1 311.597 10.7734   1
   2  -9  -1 306.684 11.3160   1
   2   9  -1 284.329 11.9531   3
   2   9  -1 331.860 11.1587   1
   2   9  -1 317.010 12.4979   2
  -2   9   1 308.922 10.8488   1
   1  -9  -1 50.8492 6.03643   1
  -1  -9   1 55.3139 6.29930   1
   1   9  -1 54.7057 6.37383   2
   1   9  -1 44.1028 5.04749   1
   1   9  -1 42.9470 5.22328   3
  -1   9   1 49.5631 5.26488   1
   0  -9  -1 198.294 9.10925   1
   0  -9   1 176.675 9.22388   1
   0   9   1 200.102 13.8857   3
   0   9  -1 194.627 8.52551   2
   0   9   1 188.586 8.44939   1
   0   9  -1 196.364 8.36974   1
   0   9  -1 181.669 7.55826   3
  -1  -9  -1 88.9279 6.51140   1
   1  -9   1 75.5473 6.51451   1
   1   9   1 82.3032 6.17942   1
  -1   9  -1 85.0151 6.07301   2
   1   9   1 79.7030 8.95895   3
   1   9   1 77.1775 7.34416   2
  -1   9  -1 77.5092 5.69219   1
   2  -9   1 270.941 10.1113   1
   2   9   1 283.036 12.2642   2
   2   9   1 288.683 14.1245   3
   2   9   1 267.404 9.04098   1
  -2   9  -1 277.296 8.57281   2
   3  -9   1 29.7527 5.11492   1
   3   9   1 17.8724 3.85853   1
   3   9   1 37.3016 6.37029   2
   3   9   1 23.0509 3.68628   1
   3   9   1 21.2231 6.68715   3
   4  -9   1 220.228 9.45271   1
   4  -9   1 217.766 10.0652   1
   4   9   1 226.824 8.40380   1
   4   9   1 195.833 8.50212   1
   4   9   1 208.224 15.1739   3
   4   9   1 222.892 12.2652   2
   5  -9   1 7.83938 3.86002   1
   5  -9   1 7.66738 4.92655   1
   5   9   1 10.1102 4.08467   1
   5   9   1 11.1553 3.48045   1
   5   9   1 6.13254 7.02082   3
   6  -9   1 32.4905 6.23645   1
   6   9   1 21.4057 9.45107   3
   6   9   1 33.9094 4.98009   1
   7  -9   1 1.84618 4.90975   1
   7   9   1 0.20117 7.38139   3
   7   9   1 8.72719 3.89216   1
   8  -9   1 46.0364 7.58393   1
   8   9   1 44.0562 6.62873   1
   8   9   1 43.4473 13.2184   3
   8 -10  -1 27.8031 7.68503   1
   8  10  -1 26.1397 7.04950   1
   8  10  -1 12.4836 10.5455   3
   7 -10  -1 83.0956 10.2378   1
   7  10  -1 98.5240 10.1523   1
   7  10  -1 77.0172 14.3839   3
   6 -10  -1 21.2627 6.84295   1
   6  10  -1 34.5209 6.87931   1
   6  10  -1 37.3503 10.4867   3
   5 -10  -1 481.902 17.4836   1
   5  10  -1 546.042 17.0423   1
   5  10  -1 495.113 23.5150   3
   4 -10  -1 17.4676 5.21759   1
   4  10  -1 0.99238 5.15239   3
   4  10  -1 3.81850 3.74207   1
   3 -10  -1 686.783 18.2758   1
  -3  10   1 666.449 16.1684   1
   3  10  -1 699.937 21.9812   3
   3  10  -1 684.089 20.8374   2
   3  10  -1 693.293 17.6252   1
  -2 -10   1 4.17234 3.95269   1
   2 -10  -1 2.87450 3.92637   1
  -2  10   1 5.94036 3.42478   1
   2  10  -1 5.33584 4.10471   3
   2  10  -1 11.5795 4.76155   2
   2  10  -1 9.30482 3.62566   1
  -1 -10   1 269.487 11.2569   1
   1 -10  -1 279.665 11.1329   1
   1  10  -1 272.466 10.5232   1
   1  10  -1 271.961 10.4318   3
   1  10  -1 279.377 11.1504   2
  -1  10   1 268.342 10.3781   1
   0 -10   1 264.217 11.1516   1
   0 -10  -1 249.104 10.0627   1
   0  10  -1 253.150 9.11966   3
   0  10  -1 251.576 9.83978   2
   0  10  -1 249.483 9.85476   1
   0  10   1 254.487 9.92880   1
   0  10   1 252.708 11.4500   2
   0  10   1 285.253 14.7727   3
  -1 -10  -1 199.956 8.95876   1
   1 -10   1 203.074 9.97955   1
   1  10   1 205.613 10.6456   2
  -1  10  -1 201.090 8.26285   2
  -1  10  -1 204.869 8.42556   1
   1  10   1 206.347 8.77632   1
   1  10   1 187.375 12.2313   3
   2 -10   1 11.1074 4.24767   1
   2  10   1 7.13827 5.56443   3
   2  10   1 9.47711 3.22228   1
  -2  10  -1 9.28178 3.37639   2
  -2  10  -1 13.3249 3.02707   1
   2  10   1 13.0616 5.09271   2
   3 -10   1 248.473 10.6354   1
   3  10   1 214.842 11.7595   2
   3  10   1 217.132 9.02180   1
   3  10   1 216.231 8.38760   1
   3  10   1 205.888 13.9259   3
   4 -10   1 8.71337 4.78955   1
   4  10   1 7.28835 4.01063   1
   4  10   1 -1.6657 4.64924   2
   4  10   1 10.0973 6.77075   3
   4  10   1 0.15637 2.77407   1
   5 -10   1 76.3245 8.04059   1
   5 -10   1 72.1837 9.59666   1
   5  10   1 75.3173 6.58163   1
   5  10   1 98.6581 7.73934   1
   5  10   1 68.6491 12.2103   3
   6 -10   1 -2.8812 4.53101   1
   6  10   1 0.82301 3.58446   1
   6  10   1 8.56638 8.46826   3
   7 -10   1 19.0260 6.04029   1
   7  10   1 -4.7271 7.68801   3
   7  10   1 1.59862 3.97256   1
   8 -10   1 92.9169 9.96404   1
   8  10   1 112.970 9.87501   1
   8  10   1 103.344 17.9077   3
   8 -11  -1 -2.0240 5.46318   1
   8  11  -1 3.61396 5.38695   1
   8  11  -1 -7.5226 7.21930   3
   7 -11  -1 22.0033 6.70764   1
   7  11  -1 16.1076 9.55791   3
   7  11  -1 17.7670 6.26489   1
   6 -11  -1 57.6984 8.68610   1
   6  11  -1 55.6572 7.87093   1
   6  11  -1 37.1325 10.1729   3
   5 -11  -1 113.164 10.3912   1
   5  11  -1 103.924 9.54532   1
   5  11  -1 83.4866 12.4516   3
   4 -11  -1 146.732 10.5605   1
   4  11  -1 172.032 15.3462   3
   4  11  -1 152.219 9.73879   1
   3 -11  -1 286.843 12.5377   1
  -3 -11   1 305.003 10.7466   1
  -3  11   1 291.671 10.9019   1
   3  11  -1 311.837 12.0924   1
   3  11  -1 299.809 14.1031   2
   3  11  -1 281.211 14.3990   3
   2 -11  -1 32.6327 5.74589   1
  -2 -11   1 49.3523 6.25038   1
   2  11  -1 58.7660 6.48269   1
   2  11  -1 58.7972 7.40877   3
   2  11  -1 41.0703 6.49965   2
  -2  11   1 47.0431 5.79655   1
   1 -11  -1 114.169 8.44430   1
  -1 -11   1 132.517 8.75386   1
   1  11  -1 122.894 7.85228   3
   1  11  -1 108.310 8.15329   2
   1  11  -1 131.049 7.87571   1
  -1  11   1 135.095 8.18120   1
   0 -11  -1 296.995 11.2842   1
   0 -11   1 304.110 12.1723   1
   0  11  -1 306.606 10.3675   3
   0  11   1 325.575 15.6691   3
   0  11  -1 301.589 11.0779   1
   0  11  -1 301.062 11.1789   2
   0  11   1 326.415 11.2353   1
   0  11   1 335.104 12.9330   2
  -1 -11  -1 1070.77 21.3240   1
   1 -11   1 1095.50 22.8461   1
   1  11   1 1089.02 26.6084   3
   1  11   1 1058.04 21.4014   1
  -1  11  -1 1065.25 20.7087   2
  -1  11  -1 1078.39 21.3827   1
   1  11   1 1064.31 24.1393   2
   2 -11   1 5.27047 4.18711   1
   2  11   1 4.63818 3.12147   1
  -2  11  -1 4.90205 3.41490   2
   2  11   1 -0.0379 4.53420   2
   2  11   1 16.0224 6.03118   3
  -2  11  -1 4.23835 2.73970   1
   3 -11   1 109.766 8.66529   1
  -3  11  -1 94.2291 7.06156   2
   3  11   1 106.811 10.2411   2
   3  11   1 95.9523 11.4131   3
   3  11   1 90.9638 6.69179   1
   4 -11   1 90.4471 8.36420   1
   4  11   1 93.6850 6.98083   1
   4  11   1 85.3737 9.81015   2
   4  11   1 115.535 13.8047   3
   4  11   1 98.9023 7.82314   1
   5 -11   1 -5.6833 4.93745   1
   5  11   1 -0.5275 7.15469   3
   5  11   1 5.83322 3.53961   1
   5  11   1 4.94655 4.74671   1
   6 -11   1 197.922 12.0267   1
   6  11   1 237.118 10.9941   1
   6  11   1 231.551 21.8698   3
   7 -11   1 29.0452 7.06117   1
   7  11   1 33.9040 12.2797   3
   7  11   1 27.5907 5.70907   1
   8 -11   1 58.7334 9.28213   1
   8  11   1 65.3913 8.46610   1
   8  11   1 73.5506 15.4931   3
   8 -12  -1 32.2713 8.49190   1
   8  12  -1 23.7786 11.4667   3
   8  12  -1 33.5003 7.60067   1
   7 -12  -1 0.36520 5.51651   1
   7  12  -1 -11.966 6.24245   3
   7  12  -1 0.85286 5.05813   1
   6 -12  -1 14.2605 6.29049   1
   6  12  -1 18.2002 5.91993   1
   6  12  -1 11.3072 7.81770   3
   5 -12  -1 679.618 21.6050   1
   5  12  -1 696.752 28.0409   3
   5  12  -1 720.332 21.1268   1
   4 -12  -1 21.6578 6.32244   1
   4  12  -1 32.5798 5.90100   1
   4  12  -1 17.6344 7.12660   3
  -3 -12   1 19.8966 4.68729   1
   3 -12  -1 18.4704 5.59736   1
   3  12  -1 17.1163 4.64956   1
   3  12  -1 14.1745 5.74931   3
   3  12  -1 10.2739 4.82352   2
  -3  12   1 29.7432 4.95758   1
  -2 -12   1 307.277 12.2436   1
   2 -12  -1 345.728 13.2655   1
  -2  12   1 314.833 11.9837   1
   2  12  -1 316.812 12.3307   1
   2  12  -1 333.210 14.0587   3
   2  12  -1 328.766 13.9891   2
  -1 -12   1 832.980 20.1467   1
   1 -12  -1 816.393 20.0093   1
  -1  12   1 835.805 21.2094   2
  -1  12   1 801.952 19.6572   1
   1  12  -1 807.872 19.2252   3
   1  12  -1 825.850 19.6755   1
   1  12  -1 831.085 20.5504   2
   0 -12  -1 390.952 13.1409   1
   0 -12   1 381.461 13.5798   1
   0  12  -1 388.450 12.8170   1
   0  12   1 379.851 16.9248   3
   0  12  -1 384.792 13.1198   2
   0  12   1 389.615 14.3792   2
   0  12   1 395.609 13.0650   1
   0  12  -1 376.045 11.8434   3
   1 -12   1 672.798 18.1548   1
  -1 -12  -1 657.736 16.8334   1
  -1  12  -1 659.366 16.6199   1
   1  12   1 711.675 21.7673   3
  -1  12  -1 658.878 16.2549   2
   1  12   1 694.506 17.1328   1
   1  12   1 692.792 19.7015   2
   2 -12   1 246.922 11.4321   1
  -2  12  -1 227.526 9.20263   1
  -2  12  -1 234.703 9.42067   2
   2  12   1 253.450 14.3525   3
   2  12   1 241.095 12.6882   2
   2  12   1 257.307 10.3133   1
   3 -12   1 31.0461 6.01916   1
   3  12   1 23.2897 7.71461   3
  -3  12  -1 39.4100 5.39813   2
   3  12   1 42.5123 7.59915   2
   3  12   1 37.7055 5.17627   1
   4 -12   1 6.72769 5.47254   1
   4  12   1 11.0238 7.55125   3
   4  12   1 12.6225 4.06988   1
   4  12   1 8.34030 5.74564   2
   4  12   1 4.28040 4.43321   1
   5 -12   1 276.207 14.1207   1
   5  12   1 281.357 20.0049   3
   5  12   1 302.673 16.9661   2
   5  12   1 279.305 11.6430   1
   6 -12   1 76.3521 9.12324   1
   6  12   1 63.9548 7.41935   1
   6  12   1 66.5855 13.5952   3
   7 -12   1 20.5112 7.07747   1
   7  12   1 21.5516 5.72924   1
   7  12   1 16.2386 9.97539   3
   8 -12   1 2.26665 6.31613   1
   8  12   1 4.19995 9.05317   3
   8  12   1 2.10036 5.09081   1
   8 -13  -1 -1.9949 6.07361   1
   8  13  -1 -7.8176 7.39610   3
   8  13  -1 11.0196 6.42372   1
   7 -13  -1 -3.6668 5.81823   1
   7  13  -1 -2.6715 7.21733   3
   7  13  -1 -3.4942 4.26222   1
   6 -13  -1 10.4018 5.91261   1
   6  13  -1 3.59126 4.78324   1
   6  13  -1 7.00662 7.37727   3
   5 -13  -1 124.697 11.4819   1
   5  13  -1 115.423 10.6625   1
   5  13  -1 104.171 13.9889   3
   4 -13  -1 -6.8388 4.75551   1
  -4  13   1 -1.4326 3.25839   1
   4  13  -1 3.60480 4.06209   1
   4  13  -1 -4.0392 5.21424   3
   3 -13  -1 11.5813 5.25991   1
  -3 -13   1 8.28181 4.63085   1
  -3  13   1 13.8982 4.13617   1
   3  13  -1 10.9801 4.31408   1
   3  13  -1 7.68595 5.00753   2
   3  13  -1 14.2362 6.06789   3
   2 -13  -1 223.548 11.7359   1
  -2 -13   1 213.107 11.1874   1
  -2  13   1 228.794 10.8774   1
   2  13  -1 211.288 11.6623   3
   2  13  -1 234.050 10.9382   1
   2  13  -1 226.759 12.3088   2
  -1 -13   1 566.178 17.1416   1
   1 -13  -1 546.582 16.6696   1
   1  13  -1 523.266 15.9561   1
  -1  13   1 535.006 16.2019   1
   1  13  -1 554.970 17.1527   2
  -1  13   1 542.070 17.5291   2
   1  13  -1 546.659 16.0391   3
   0 -13  -1 44.8846 6.54200   1
   0 -13   1 47.5288 6.76892   1
   0  13  -1 53.2022 6.34654   3
   0  13   1 43.8646 5.93045   1
   0  13  -1 62.7458 6.79599   1
   0  13   1 57.7363 7.88513   2
   0  13  -1 72.6642 7.52891   2
   0  13   1 44.6223 9.18424   3
   1 -13   1 546.736 16.7618   1
  -1 -13  -1 565.731 16.0109   1
  -1  13  -1 567.886 15.4708   3
  -1  13  -1 529.960 15.0574   2
   1  13   1 515.823 17.5697   2
   1  13   1 494.223 19.2788   3
   1  13   1 553.765 16.0182   1
  -1  13  -1 533.215 15.2871   1
   2 -13   1 50.3932 7.21259   1
   2  13   1 30.9914 7.62239   3
   2  13   1 41.2152 5.73478   1
  -2  13  -1 60.1719 6.42058   2
   2  13   1 49.2152 7.78406   2
  -2  13  -1 44.3648 5.44724   1
   3 -13   1 223.454 12.0745   1
   3  13   1 243.422 13.9929   2
   3  13   1 204.377 15.0424   3
   3  13   1 233.757 10.5443   1
  -3  13  -1 212.025 9.79807   2
   4 -13   1 560.604 18.5820   1
   4  13   1 571.404 25.1485   3
   4  13   1 512.401 15.7647   1
  -4  13  -1 552.857 15.6964   2
   4  13   1 560.660 21.2291   2
   5 -13   1 0.04915 5.96857   1
   5  13   1 0.84843 3.77375   1
   5  13   1 -0.8969 5.69386   2
   5  13   1 18.5486 9.08442   3
   6 -13   1 -0.7780 5.62804   1
   6  13   1 4.90637 4.60654   1
   6  13   1 10.0321 8.22587   3
   7 -13   1 7.23567 6.04716   1
   7  13   1 5.85287 4.80357   1
   7  13   1 -2.8966 8.41809   3
   8 -13   1 5.89048 6.32770   1
   8  13   1 -1.5546 4.71574   1
   8  13   1 -1.8689 8.17188   3
   8 -14  -1 16.8163 7.88709   1
   8  14  -1 17.7001 7.13649   1
   8  14  -1 16.7889 10.4423   3
   7 -14  -1 180.561 15.0960   1
   7  14  -1 149.832 19.2936   3
   7  14  -1 183.260 13.4655   1
   6 -14  -1 130.566 12.5666   1
   6  14  -1 154.395 12.7882   1
   6  14  -1 166.504 18.9457   3
   5 -14  -1 149.771 12.6921   1
   5  14  -1 152.919 11.6134   1
   5  14  -1 137.396 16.1245   3
   4 -14  -1 22.1412 7.03288   1
  -4  14   1 22.7603 4.92428   1
   4  14  -1 18.8870 7.33443   3
   4  14  -1 19.2369 5.50752   1
  -3 -14   1 91.9131 8.15179   1
   3 -14  -1 85.7092 8.99930   1
   3  14  -1 73.1255 7.81561   1
   3  14  -1 86.1972 10.4004   2
   3  14  -1 102.286 11.0770   3
  -3  14   1 85.3896 8.15251   1
   2 -14  -1 58.3114 7.63428   1
  -2 -14   1 80.8219 8.38504   1
  -2  14   1 74.6659 7.93191   1
   2  14  -1 71.0804 7.48871   1
   2  14  -1 58.7517 7.84803   2
   2  14  -1 57.8724 7.95130   3
   1 -14  -1 2031.54 36.6862   1
  -1 -14   1 2133.22 37.5631   1
  -1  14   1 2036.71 36.8653   1
  -1  14   1 2041.42 38.1858   2
   1  14  -1 2055.22 36.3951   3
   1  14  -1 1990.63 37.6028   2
   1  14  -1 1978.53 36.5702   1
   0 -14  -1 69.7827 7.59833   1
   0 -14   1 51.1314 7.31626   1
   0  14  -1 85.4014 8.05487   1
   0  14  -1 70.8997 7.54731   3
   0  14   1 56.6643 7.81705   2
   0  14   1 68.5636 7.15903   1
   0  14  -1 88.9567 8.33944   2
   0  14   1 73.7116 10.3100   3
   1 -14   1 156.350 11.0362   1
  -1 -14  -1 130.256 9.53673   1
   1  14   1 145.677 9.38519   1
  -1  14  -1 159.820 10.6453   3
   1  14   1 133.282 12.4249   3
  -1  14  -1 155.850 9.27955   2
   1  14   1 163.882 11.3764   2
  -1  14  -1 153.781 9.06553   1
   2 -14   1 -2.7593 4.73395   1
  -2 -14  -1 3.68039 3.86529   1
   2  14   1 -6.8739 5.45350   3
   2  14   1 1.28619 4.92036   2
  -2  14  -1 -2.1178 2.75335   1
   2  14   1 -3.7573 3.11980   1
  -2  14  -1 -5.1672 3.75764   2
   3 -14   1 -2.3868 4.99810   1
  -3  14  -1 2.76093 4.18946   2
   3  14   1 -7.3302 4.55060   2
   3  14   1 -4.3666 3.10478   1
   3  14   1 -6.7882 5.54852   3
   4 -14   1 29.0621 7.37663   1
  -4  14  -1 48.0056 6.73097   2
   4  14   1 43.3686 10.0557   3
   4  14   1 53.7833 9.04577   2
   4  14   1 42.4595 6.09853   1
   5 -14   1 1687.21 35.7708   1
   5  14   1 1642.21 40.2597   2
   5  14   1 1730.78 47.8433   3
   5  14   1 1651.37 32.7414   1
   6 -14   1 41.1544 8.19515   1
   6  14   1 41.3135 6.90748   1
   6  14   1 29.0150 11.3086   3
   7 -14   1 -4.7587 5.76216   1
   7  14   1 1.31330 9.15953   3
   7  14   1 1.21331 4.31814   1
   8 -14   1 22.0691 8.12284   1
   8  14   1 18.4447 11.4272   3
   8  14   1 37.4189 7.70579   1
   8 -15  -1 5.85238 6.93315   1
   8  15  -1 -9.9160 4.73177   1
   8  15  -1 -4.8014 8.08662   3
   7 -15  -1 -1.3120 6.71983   1
   7  15  -1 6.13414 5.90799   1
   7  15  -1 -1.5095 7.67943   3
   6 -15  -1 40.7229 8.97511   1
   6  15  -1 47.3695 8.11309   1
   6  15  -1 41.2137 11.2474   3
   5 -15  -1 488.081 20.3373   1
   5  15  -1 525.860 26.0752   3
   5  15  -1 519.847 19.4115   1
   4 -15  -1 374.873 17.0008   1
   4  15  -1 371.200 15.6509   1
   4  15  -1 365.294 19.6960   3
  -4  15   1 409.454 14.5748   1
   4  15  -1 363.063 18.7765   2
  -3 -15   1 328.431 13.4815   1
   3 -15  -1 318.463 15.3493   1
   3  15  -1 314.242 16.2746   3
  -3  15   1 345.114 13.5700   1
   3  15  -1 329.942 14.2656   1
   3  15  -1 328.592 16.5126   2
   2 -15  -1 302.526 14.2351   1
  -2 -15   1 312.690 13.6119   1
   2  15  -1 269.083 14.0494   2
  -2  15   1 282.060 12.3471   1
   2  15  -1 317.687 13.6373   1
   2  15  -1 333.347 14.5385   3
  -1 -15   1 45.0593 7.31820   1
   1 -15  -1 44.9565 6.85541   1
   1  15  -1 39.1861 5.98464   1
   1  15  -1 51.7538 7.48095   3
   1  15  -1 42.1300 7.04789   2
  -1  15   1 57.2621 8.47762   2
  -1  15   1 50.4416 6.90447   1
   0 -15   1 187.743 11.8459   1
   0 -15  -1 139.509 10.5638   1
   0  15   1 145.632 13.2177   3
   0  15   1 164.934 10.1293   1
   0  15  -1 157.165 10.0416   2
   0  15   1 121.976 10.5197   2
   0  15  -1 161.942 9.97233   3
   0  15  -1 159.609 9.65276   1
  -1 -15  -1 117.999 9.62705   1
   1 -15   1 144.225 11.3103   1
  -1  15  -1 95.4954 8.32469   1
   1  15   1 125.858 9.14595   1
  -1  15  -1 117.325 9.34944   2
  -1  15  -1 107.509 9.83454   3
   1  15   1 127.978 11.5980   2
   1  15   1 109.060 11.8346   3
   2 -15   1 3.24691 5.55300   1
  -2 -15  -1 4.25229 4.40796   1
   2  15   1 7.22057 5.60989   2
  -2  15  -1 5.53853 3.70037   1
   2  15   1 11.7193 6.74844   3
  -2  15  -1 0.46360 4.15777   2
   2  15   1 3.39547 3.93304   1
   3 -15   1 71.4363 8.91527   1
  -3  15  -1 72.2953 8.51430   1
   3  15   1 66.2271 10.7993   3
   3  15   1 74.6345 10.2455   2
   3  15   1 67.4884 7.58415   1
  -3  15  -1 69.4316 7.50377   2
   4 -15   1 365.211 16.6586   1
   4  15   1 381.566 14.7173   1
  -4  15  -1 351.916 13.6003   2
   4  15   1 360.236 18.4355   2
   4  15   1 374.267 21.5976   3
   5 -15   1 275.549 15.5597   1
   5  15   1 280.171 21.2763   3
  -5  15  -1 264.194 12.5731   2
   5  15   1 269.201 13.1533   1
   5  15   1 265.019 16.6358   2
   6 -15   1 48.9161 9.21736   1
   6  15   1 59.7438 7.94247   1
   6  15   1 61.2222 13.1788   3
   7 -15   1 19.7169 7.93653   1
   7  15   1 24.7469 6.56535   1
   7  15   1 29.0397 11.9540   3
   8 -15   1 12.5869 7.59547   1
   8  15   1 5.66044 8.97852   3
   8  15   1 5.33827 5.61610   1
   8 -16  -1 -0.1904 6.95173   1
   8  16  -1 -2.6597 7.65415   3
   8  16  -1 3.14890 6.34359   1
   7 -16  -1 31.3457 9.03789   1
   7  16  -1 29.6282 11.7312   3
   7  16  -1 9.81626 6.18308   1
   6 -16  -1 2.70258 6.16470   1
   6  16  -1 4.83550 7.73867   3
   6  16  -1 -4.5081 4.38112   1
   5 -16  -1 830.394 26.1832   1
   5  16  -1 827.237 25.1273   1
   5  16  -1 837.506 32.5232   3
   4 -16  -1 109.973 11.5442   1
   4  16  -1 125.697 13.6965   2
  -4  16   1 138.005 9.58057   1
   4  16  -1 151.849 15.3871   3
   4  16  -1 146.679 11.1180   1
  -3 -16   1 0.46710 5.02052   1
   3 -16  -1 3.84758 6.09646   1
   3  16  -1 -3.3704 4.84428   3
   3  16  -1 -1.4837 5.11950   2
   3  16  -1 5.59846 4.49470   1
  -3  16   1 -1.6653 3.67483   1
   2 -16  -1 119.494 10.9057   1
  -2 -16   1 136.038 10.8867   1
   2  16  -1 144.139 10.6254   3
   2  16  -1 131.732 9.69776   1
  -2  16   1 135.950 9.67507   1
  -2  16   1 131.033 11.6141   2
   2  16  -1 149.408 13.0942   2
   1 -16  -1 24.7258 6.25670   1
  -1 -16   1 18.9497 6.11458   1
  -1  16   1 32.1276 6.12435   1
   1  16  -1 29.6395 6.32328   3
  -1  16   1 26.3955 6.93454   2
   1  16  -1 18.9974 5.17647   1
   1  16  -1 20.9809 5.73094   2
   0 -16   1 51.6594 7.82565   1
   0 -16  -1 38.0935 7.14883   1
   0  16  -1 57.0886 7.03656   1
   0  16   1 35.9576 6.22512   1
   0  16   1 65.8202 9.00074   2
   0  16  -1 55.5730 7.66279   2
   0  16  -1 47.9441 7.09856   3
   0  16   1 58.3277 10.2379   3
  -1 -16  -1 26.1817 6.25342   1
   1 -16   1 28.0213 6.95606   1
   1  16   1 41.5326 9.70166   3
  -1  16  -1 34.7818 5.80798   1
  -1  16  -1 42.3468 7.64285   3
   1  16   1 41.8565 7.87620   2
  -1  16  -1 35.8101 6.48850   2
   1  16   1 29.1468 5.86775   1
   2 -16   1 4.49175 6.18390   1
  -2 -16  -1 10.9390 4.95729   1
  -2  16  -1 17.1264 5.25018   2
  -2  16  -1 2.96263 3.65090   1
   2  16   1 10.5218 7.33968   3
   2  16   1 -1.2657 5.39731   2
   2  16   1 5.24801 4.17858   1
   3 -16   1 53.8457 8.67993   1
  -3  16  -1 67.7958 7.78698   2
   3  16   1 50.4850 10.0375   3
  -3  16  -1 70.4835 6.91413   1
   3  16   1 60.0131 9.62752   2
   3  16   1 52.5059 7.12094   1
   4 -16   1 11.8157 7.20817   1
  -4  16  -1 4.42457 5.01697   2
   4  16   1 7.61168 6.60717   2
   4  16   1 3.87905 4.68186   1
   4  16   1 13.8265 8.50089   3
   5 -16   1 415.832 18.2214   1
   5  16   1 368.496 19.4624   2
   5  16   1 393.749 16.1984   1
  -5  16  -1 380.317 14.7929   2
   5  16   1 414.945 24.3192   3
   6 -16   1 44.7674 9.04097   1
   6  16   1 53.8625 8.14470   1
   6  16   1 60.4190 13.6462   3
   7 -16   1 218.535 15.9879   1
   7  16   1 223.280 24.4349   3
   7  16   1 212.996 13.5360   1
   8 -16   1 45.9525 10.5396   1
   8  16   1 93.9877 18.6915   3
   8  16   1 76.0940 10.5165   1
   8 -17  -1 -3.4040 7.22627   1
   8  17  -1 0.52265 8.99216   3
   8  17  -1 2.74606 6.84471   1
   7 -17  -1 137.032 14.2182   1
   7  17  -1 200.368 16.1740   1
   7  17  -1 151.108 19.6038   3
   6 -17  -1 12.8718 7.32212   1
   6  17  -1 10.6252 6.12414   1
   6  17  -1 10.0288 8.83602   3
   5 -17  -1 461.966 20.2801   1
   5  17  -1 449.261 24.2029   3
   5  17  -1 459.552 19.1104   1
   4 -17  -1 7.22603 7.12459   1
   4  17  -1 3.05982 6.76053   3
   4  17  -1 1.40893 4.70071   1
  -4  17   1 -1.7789 3.92139   1
   4  17  -1 0.09252 5.56998   2
  -3 -17   1 57.6453 8.06389   1
   3 -17  -1 61.9488 9.36601   1
   3  17  -1 60.7773 8.28161   1
  -3  17   1 45.4379 7.01743   1
   3  17  -1 64.2334 10.3122   3
   3  17  -1 48.1306 9.17472   2
  -2 -17   1 0.13518 5.15138   1
   2 -17  -1 -5.7841 5.16576   1
   2  17  -1 11.8079 5.69508   2
   2  17  -1 3.19500 5.01827   3
  -2  17   1 -2.9356 5.42570   2
   2  17  -1 8.57202 4.57885   1
  -2  17   1 -0.4352 3.78468   1
  -1 -17   1 -0.0960 5.49951   1
   1 -17  -1 3.41141 5.35794   1
   1  17  -1 1.46622 4.79826   3
  -1  17   1 7.20655 6.03224   2
  -1  17   1 1.31082 4.01800   1
  -1  17   1 4.23109 8.28988   3
   1  17  -1 0.68144 4.01393   1
   1  17  -1 3.43468 4.87778   2
   0 -17  -1 395.363 16.3330   1
   0 -17   1 428.881 16.8446   1
   0  17   1 418.389 17.5933   2
   0  17  -1 396.746 15.7373   2
   0  17  -1 399.485 15.4526   1
   0  17   1 392.721 19.6221   3
   0  17   1 397.006 15.6185   1
   0  17  -1 418.376 15.1731   3
  -1 -17  -1 263.952 13.4251   1
   1 -17   1 273.043 14.5573   1
   1  17   1 299.440 17.5655   3
  -1  17  -1 275.712 13.0648   2
   1  17   1 272.390 13.3563   1
  -1  17  -1 302.672 13.2322   1
   1  17   1 279.857 15.2301   2
  -1  17  -1 267.227 13.8331   3
   2 -17   1 -1.7912 5.93361   1
  -2 -17  -1 -7.5859 4.55356   1
   2  17   1 10.7783 7.38660   3
   2  17   1 -0.9558 3.91181   1
  -2  17  -1 6.25115 3.96023   1
  -2  17  -1 4.07571 4.69973   2
   2  17   1 -3.2133 5.60419   2
   3 -17   1 74.4966 10.2897   1
  -3  17  -1 65.2296 7.08272   1
   3  17   1 60.9178 11.5061   3
  -3  17  -1 63.0448 7.88680   2
   3  17   1 68.5124 10.4050   2
   3  17   1 53.9037 7.34095   1
   4 -17   1 126.440 12.3961   1
   4  17   1 133.233 11.0554   1
   4  17   1 142.117 16.7137   3
   4  17   1 175.940 16.4357   2
  -4  17  -1 137.061 10.3233   2
   5 -17   1 105.166 11.5826   1
  -5  17  -1 107.939 9.91885   2
   5  17   1 111.862 13.2400   2
   5  17   1 129.786 16.8528   3
   5  17   1 98.9022 10.3134   1
   6 -17   1 55.7947 9.67993   1
   6  17   1 69.6098 9.33127   1
   6  17   1 52.3304 13.2647   3
   7 -17   1 103.901 12.5689   1
   7  17   1 92.3714 17.0608   3
   7  17   1 100.891 11.2230   1
   8 -18  -1 29.9468 9.80225   1
   8  18  -1 24.3729 8.54423   1
   8  18  -1 38.2009 13.7089   3
   7 -18  -1 178.275 16.3366   1
   7  18  -1 188.721 22.4039   3
   7  18  -1 210.482 17.4189   1
   6 -18  -1 11.3820 7.73507   1
   6  18  -1 9.54342 8.83578   3
   6  18  -1 8.58497 5.82462   1
   5 -18  -1 197.410 15.8585   1
   5  18  -1 198.822 13.8063   1
   5  18  -1 175.926 18.0919   3
   4 -18  -1 5.27509 7.19101   1
  -4  18   1 0.46500 6.08653   1
   4  18  -1 26.6808 8.61746   3
   4  18  -1 7.58615 5.65040   1
   4  18  -1 3.88151 6.43450   2
  -3 -18   1 226.307 13.1797   1
   3 -18  -1 248.231 15.2699   1
  -3  18   1 245.199 13.1128   1
   3  18  -1 262.071 16.4051   3
   3  18  -1 212.186 15.3665   2
   3  18  -1 209.759 13.0108   1
  -2 -18   1 28.1650 7.15508   1
   2 -18  -1 34.9756 7.76551   1
   2  18  -1 36.9077 7.79999   3
   2  18  -1 33.2740 6.77689   1
   2  18  -1 41.4792 7.93938   2
  -2  18   1 25.9167 6.05114   1
  -2  18   1 31.2773 7.98869   2
   1 -18  -1 -1.0224 5.69613   1
  -1 -18   1 5.82510 5.97973   1
  -1  18   1 -3.2183 3.36016   1
   1  18  -1 -2.7863 3.75302   1
  -1  18   1 0.12389 8.50701   3
   1  18  -1 2.87944 5.25588   2
  -1  18   1 -7.2417 5.22129   2
   1  18  -1 2.51627 4.87300   3
   0 -18  -1 0.01624 5.40846   1
   0 -18   1 0.83091 5.39442   1
   0  18   1 -0.9240 3.72919   1
   0  18   1 -5.6729 7.39533   3
   0  18  -1 -3.3513 3.48265   1
   0  18  -1 4.64707 5.06286   3
   0  18   1 3.96303 6.29659   2
   0  18  -1 6.54519 4.85078   2
  -1 -18  -1 232.331 13.3097   1
   1 -18   1 234.133 14.8338   1
  -1  18  -1 250.398 13.4615   3
   1  18   1 236.984 14.8246   2
   1  18   1 249.436 16.7147   3
   1  18   1 227.278 12.7603   1
  -1  18  -1 229.234 12.9000   2
  -1  18  -1 220.546 12.1764   1
  -2 -18  -1 6.56527 5.65270   1
   2 -18   1 3.11072 6.96809   1
   2  18   1 -7.8848 7.22260   3
  -2  18  -1 4.91944 5.04000   2
  -2  18  -1 8.15865 4.36188   1
   2  18   1 2.28643 5.95656   2
   2  18   1 -0.7430 4.13002   1
   3 -18   1 75.0438 10.7295   1
   3  18   1 63.2076 11.9912   3
   3  18   1 77.6267 8.71655   1
  -3  18  -1 92.9308 8.68582   1
   3  18   1 66.4925 10.5517   2
  -3  18  -1 119.013 10.3735   2
   4 -18   1 20.7331 8.27275   1
  -4  18  -1 0.71578 5.42064   2
   4  18   1 -2.5491 6.41765   2
   4  18   1 3.63834 4.88436   1
   4  18   1 16.1046 9.03084   3
   5 -18   1 22.2358 8.37376   1
  -5  18  -1 19.8642 6.51818   2
   5  18   1 24.8214 6.88111   1
   5  18   1 18.2235 9.51159   3
   5  18   1 29.3190 9.17428   2
   6 -18   1 244.371 16.6337   1
   6  18   1 216.527 13.9099   1
   6  18   1 189.083 21.3590   3
   7 -18   1 9.23955 7.80342   1
   7  18   1 10.2349 6.11014   1
   7  18   1 10.1436 10.8037   3
   8 -19  -1 1.91360 8.03530   1
   8  19  -1 -4.4290 8.78300   3
   8  19  -1 -4.8074 5.59421   1
   7 -19  -1 154.790 15.9082   1
   7  19  -1 139.613 19.9494   3
   7  19  -1 135.419 14.2795   1
   6 -19  -1 148.801 15.1786   1
   6  19  -1 172.388 14.9786   1
   6  19  -1 144.890 18.7481   3
   5 -19  -1 17.5004 8.16817   1
   5  19  -1 -0.2485 5.14654   1
   5  19  -1 11.8228 8.58078   3
   4 -19  -1 65.2485 10.9363   1
   4  19  -1 53.3552 8.90274   1
   4  19  -1 49.3099 10.6617   3
   4  19  -1 51.5190 10.4095   2
   3 -19  -1 -3.8370 6.90722   1
  -3 -19   1 16.4877 6.82677   1
  -3  19   1 9.23375 7.53283   2
   3  19  -1 -0.5685 5.95051   3
   3  19  -1 12.2319 7.41295   2
  -3  19   1 16.1106 5.65236   1
   3  19  -1 5.54288 5.57132   1
  -2 -19   1 33.4550 7.93386   1
   2 -19  -1 33.9713 8.19936   1
   2  19  -1 45.3400 8.82337   2
  -2  19   1 29.3059 8.19723   2
  -2  19   1 30.8446 6.69428   1
   2  19  -1 28.3238 7.65498   3
   2  19  -1 36.0481 7.17304   1
   1 -19  -1 26.3666 7.41669   1
  -1 -19   1 30.1855 7.89214   1
   1  19  -1 27.2065 6.93144   3
  -1  19   1 29.1709 7.93430   2
  -1  19   1 26.7389 6.15130   1
  -1  19   1 29.4188 10.8802   3
   1  19  -1 37.1739 7.92649   2
   1  19  -1 16.7838 5.83102   1
   0 -19   1 118.327 11.3599   1
   0 -19  -1 123.788 11.4812   1
   0  19  -1 125.726 11.0478   3
   0  19   1 123.087 12.2104   2
   0  19   1 126.210 14.2415   3
   0  19   1 119.099 10.4572   1
   0  19  -1 98.8998 10.2193   2
   0  19  -1 114.742 10.5689   1
  -1 -19  -1 68.7563 9.38180   1
   1 -19   1 94.2264 11.2024   1
   1  19   1 80.6357 11.1353   2
   1  19   1 95.0478 12.9717   3
  -1  19  -1 68.8821 9.04142   2
  -1  19  -1 69.2124 9.36819   3
  -1  19  -1 76.2402 8.85428   1
   1  19   1 67.5094 8.58775   1
  -2 -19  -1 138.846 11.4520   1
   2 -19   1 96.3580 11.3781   1
   2  19   1 120.388 14.3489   3
   2  19   1 98.9408 9.86496   1
   2  19   1 86.4361 11.3017   2
  -2  19  -1 140.649 11.3189   1
  -2  19  -1 112.067 10.7195   2
   3 -19   1 5.55514 7.38970   1
   3  19   1 12.1068 8.75788   3
   3  19   1 5.62577 4.94011   1
   3  19   1 17.5119 7.71915   2
  -3  19  -1 3.27968 5.69842   2
  -3  19  -1 11.0132 4.77831   1
   4 -19   1 92.5521 12.0591   1
   4  19   1 98.6010 10.7984   1
  -4  19  -1 108.186 10.4399   2
   4  19   1 100.555 13.3543   2
   4  19   1 83.0877 13.6980   3
   5 -19   1 -4.5085 6.72082   1
   5  19   1 5.33407 8.29815   3
   5  19   1 -7.0481 5.83962   2
  -5  19  -1 0.91182 5.18123   2
   5  19   1 0.86288 4.96641   1
   6 -19   1 9.11215 7.74677   1
   6  19   1 14.0055 7.84570   2
   6  19   1 3.10050 8.45543   3
   6  19   1 6.79590 5.44139   1
   7 -19   1 22.2088 8.71568   1
   7  19   1 5.61347 9.98386   3
   7  19   1 18.7813 6.91655   1
   7 -20  -1 -4.5284 7.38409   1
   7  20  -1 14.7399 10.1980   3
   7  20  -1 6.98732 6.36053   1
   6 -20  -1 8.56182 7.76627   1
   6  20  -1 7.22271 8.18929   3
   6  20  -1 -7.1107 4.79560   1
   5 -20  -1 295.059 18.3516   1
   5  20  -1 276.899 16.3330   1
   5  20  -1 288.339 21.1495   3
   4 -20  -1 18.2008 8.79739   1
   4  20  -1 11.0917 7.79700   2
   4  20  -1 9.86202 7.98048   3
   4  20  -1 6.62047 5.71579   1
  -3 -20   1 32.0089 8.06447   1
   3 -20  -1 18.3027 8.29005   1
  -3  20   1 25.8325 8.68515   2
   3  20  -1 31.1436 7.13107   1
   3  20  -1 31.4805 9.03105   3
   3  20  -1 22.2707 8.02931   2
  -3  20   1 26.4785 6.79868   1
  -2 -20   1 -0.0149 6.74120   1
   2 -20  -1 -1.6729 6.51992   1
  -2  20   1 2.44509 4.74798   1
   2  20  -1 0.29819 4.57165   1
   2  20  -1 -1.1537 5.63893   3
  -2  20   1 0.77118 7.25686   2
   2  20  -1 3.20385 5.84421   2
   1 -20  -1 9.31892 7.03231   1
  -1 -20   1 6.26982 7.00321   1
  -1  20   1 -3.3419 6.22046   2
   1  20  -1 1.59623 5.56719   3
   1  20  -1 6.94945 6.09795   2
   1  20  -1 1.07903 4.87741   1
  -1  20   1 6.43009 10.2304   3
  -1  20   1 2.12658 4.70562   1
   0 -20  -1 23.2877 7.54819   1
   0 -20   1 5.82872 6.84033   1
   0  20   1 13.0943 7.25912   2
   0  20  -1 5.51124 5.02800   1
   0  20   1 -0.2645 8.53922   3
   0  20  -1 10.9442 5.91199   2
   0  20  -1 15.8522 6.56258   3
   0  20   1 9.01701 5.23840   1
  -1 -20  -1 85.5308 10.3977   1
   1 -20   1 89.4650 11.2511   1
  -1  20  -1 80.9198 9.95934   2
  -1  20  -1 82.7834 9.54297   1
  -1  20  -1 100.406 10.8513   3
   1  20   1 85.1500 11.4411   2
   1  20   1 111.500 14.2571   3
   1  20   1 64.2624 8.52493   1
  -2 -20  -1 93.9939 10.2698   1
   2 -20   1 90.1286 11.6099   1
   2  20   1 103.499 13.1256   2
   2  20   1 88.8280 13.3095   3
  -2  20  -1 89.9003 9.71630   1
  -2  20  -1 85.3536 9.96573   2
   2  20   1 77.2090 9.38071   1
   3 -20   1 28.9364 9.28238   1
   3  20   1 22.5654 9.79927   3
   3  20   1 66.3989 12.0805   2
  -3  20  -1 41.9452 7.65681   2
  -3  20  -1 51.3566 8.40394   1
   3  20   1 35.1076 7.43810   1
   4 -20   1 15.8728 8.35353   1
  -4  20  -1 27.8947 6.96948   2
   4  20   1 27.2449 7.10909   1
   4  20   1 22.8343 9.84072   3
   4  20   1 20.4935 8.46009   2
   5 -20   1 1.35291 7.52050   1
   5  20   1 -8.1875 4.53060   1
   5  20   1 -0.8067 6.58582   2
  -5  20  -1 3.70669 5.47740   2
   5  20   1 -0.3578 7.72948   3
   6 -20   1 66.4545 11.6367   1
   6  20   1 59.5972 9.12773   1
   6  20   1 37.2443 12.2512   3
   6  20   1 59.1052 12.1161   2
   7 -20   1 236.296 19.7289   1
   7  20   1 217.042 15.4331   1
   7  20   1 242.171 27.7432   3
   7 -21  -1 18.0788 9.07519   1
   7  21  -1 19.7361 8.07549   1
   7  21  -1 21.2344 11.8141   3
   6 -21  -1 0.05434 7.42700   1
   6  21  -1 -8.0239 6.96906   3
   6  21  -1 3.74664 6.04802   1
   5 -21  -1 248.048 17.9366   1
   5  21  -1 266.104 20.8510   3
   5  21  -1 273.182 16.7107   1
   4 -21  -1 52.6376 10.8117   1
   4  21  -1 41.2994 10.2157   3
   4  21  -1 41.0383 8.46727   1
   4  21  -1 65.3786 11.9970   2
  -4  21   1 43.3112 10.2008   2
  -3 -21   1 23.9738 7.84027   1
   3 -21  -1 11.6775 8.49184   1
   3  21  -1 8.76455 6.10819   1
  -3  21   1 2.41226 7.53058   2
   3  21  -1 16.8488 7.90238   3
   3  21  -1 5.39214 7.04676   2
  -3  21   1 14.8641 6.16801   1
   2 -21  -1 89.2439 11.6668   1
  -2 -21   1 120.002 12.3989   1
   2  21  -1 95.4142 10.7910   1
   2  21  -1 113.062 12.7125   3
  -2  21   1 107.594 12.6102   2
   2  21  -1 118.965 12.8552   2
  -2  21   1 106.071 11.1737   1
  -1 -21   1 -4.7525 6.62632   1
   1 -21  -1 0.37166 6.84362   1
  -1  21   1 -2.6332 4.36684   1
   1  21  -1 5.43742 5.09649   1
  -1  21   1 9.69753 11.4062   3
  -1  21   1 11.0803 6.98995   2
   1  21  -1 -6.0741 5.48633   2
   1  21  -1 -5.5989 5.56951   3
   0 -21  -1 1.94213 6.46856   1
   0 -21   1 1.12583 7.17834   1
   0  21  -1 -5.2689 5.44717   2
   0  21   1 -2.2714 6.76464   2
   0  21   1 -2.2744 8.71802   3
   0  21  -1 3.96329 4.65765   1
   0  21  -1 -0.8196 6.03968   3
   0  21   1 10.3253 6.00478   1
  -1 -21  -1 2.25903 6.46201   1
   1 -21   1 -3.6528 7.15111   1
   1  21   1 -4.1839 7.67490   3
   1  21   1 2.10801 4.90522   1
  -1  21  -1 -3.2680 5.33613   2
   1  21   1 -2.4826 6.60165   2
  -1  21  -1 3.02546 4.62388   1
  -1  21  -1 13.9864 7.77238   3
   2 -21   1 127.776 13.6681   1
  -2 -21  -1 139.648 12.0693   1
   2  21   1 118.079 14.9534   3
  -2  21  -1 111.922 10.6769   1
   2  21   1 118.962 13.7573   2
   2  21   1 122.807 12.1518   1
  -2  21  -1 116.471 11.6871   2
  -2  21  -1 116.219 13.2184   3
   3 -21   1 8.17560 8.18871   1
   3  21   1 13.5379 8.69998   3
   3  21   1 0.67184 5.01607   1
   3  21   1 -4.4063 6.79305   2
  -3  21  -1 -2.9958 5.41364   2
   4 -21   1 13.4154 8.43380   1
  -4  21  -1 -0.1595 5.85435   2
   4  21   1 0.59582 4.89727   1
   4  21   1 2.48502 7.56609   3
   4  21   1 4.84372 6.69266   2
   5 -21   1 14.0928 8.41934   1
   5  21   1 0.65729 8.04910   3
   5  21   1 7.17936 7.93160   2
  -5  21  -1 7.49595 6.72677   2
   5  21   1 5.17621 5.99984   1
   6 -21   1 23.6557 9.50060   1
   6  21   1 0.34993 8.52524   3
   6  21   1 5.96237 8.16258   2
   6  21   1 20.5774 7.33217   1
   7 -21   1 11.1444 8.68726   1
   7  21   1 -4.0484 5.18128   1
   7  21   1 5.64917 10.0613   3
   7 -22  -1 2.11407 7.66203   1
   7  22  -1 5.55698 9.27785   3
   7  22  -1 3.61451 6.35713   1
   6 -22  -1 -7.2813 7.24709   1
   6  22  -1 1.21169 8.58451   3
   6  22  -1 6.43321 6.55778   1
   5 -22  -1 23.5218 9.26217   1
  -5  22   1 38.5016 9.68849   2
   5  22  -1 50.5385 11.1870   2
   5  22  -1 37.0647 10.7469   3
   5  22  -1 39.5433 8.72619   1
   4 -22  -1 21.2721 8.71454   1
   4  22  -1 20.5392 8.60964   2
  -4  22   1 13.4546 8.83662   2
   4  22  -1 27.9966 9.07361   3
   4  22  -1 31.0679 7.66962   1
  -3 -22   1 -3.8357 6.52159   1
   3 -22  -1 -3.9094 7.41118   1
  -3  22   1 -3.3857 5.09059   1
  -3  22   1 -7.0205 7.10304   2
   3  22  -1 -9.2972 5.61641   3
   3  22  -1 4.40413 5.52269   1
   3  22  -1 0.46609 6.68713   2
   2 -22  -1 25.5612 9.47583   1
  -2 -22   1 31.6403 8.73627   1
  -2  22   1 29.9170 9.32589   2
   2  22  -1 24.6170 8.20903   2
   2  22  -1 30.3966 7.68992   1
   2  22  -1 31.6419 8.61046   3
  -2  22   1 23.0674 6.83888   1
  -1 -22   1 219.811 16.1100   1
   1 -22  -1 220.247 16.6196   1
   1  22  -1 234.876 14.7999   1
  -1  22   1 235.130 14.2472   1
  -1  22   1 233.558 16.4958   2
  -1  22   1 236.492 20.1705   3
   1  22  -1 236.930 15.7788   2
   1  22  -1 227.733 14.6565   3
   0 -22   1 27.8512 9.00999   1
   0 -22  -1 23.1114 8.38680   1
   0  22   1 48.4462 10.4057   2
   0  22  -1 43.8216 9.13206   2
   0  22   1 39.3065 11.4778   3
   0  22  -1 33.7736 8.12800   3
   0  22  -1 43.1674 8.00844   1
   0  22   1 33.1289 7.64300   1
  -1 -22  -1 38.3851 8.73047   1
   1 -22   1 20.3720 9.11485   1
   1  22   1 30.1763 9.59836   2
  -1  22  -1 32.8685 8.89645   3
  -1  22  -1 29.6572 8.09502   2
  -1  22  -1 30.0199 6.94534   1
   1  22   1 32.8861 7.54765   1
   1  22   1 31.1691 11.0532   3
  -2 -22  -1 38.0027 8.62379   1
   2 -22   1 30.4829 9.90160   1
   2  22   1 20.1469 6.66621   1
  -2  22  -1 39.3450 7.44384   1
   2  22   1 36.8614 9.15449   2
   2  22   1 38.7538 11.4110   3
  -2  22  -1 40.2199 10.8203   3
  -2  22  -1 37.7690 8.25293   2
   3 -22   1 27.5569 9.68776   1
  -3  22  -1 29.3328 7.80367   2
   3  22   1 26.0786 9.49413   2
   3  22   1 11.7586 9.10778   3
   3  22   1 22.7683 7.01711   1
   4 -22   1 46.2255 10.7220   1
   4  22   1 41.3842 8.54065   1
   4  22   1 28.1486 9.16222   2
  -4  22  -1 22.3657 7.14696   2
   4  22   1 29.3831 10.3875   3
   5 -22   1 51.9449 11.0744   1
   5  22   1 36.2054 8.21667   1
   5  22   1 48.6090 11.3430   2
   5  22   1 36.2757 11.8162   3
   6 -22   1 19.7377 9.29281   1
   6  22   1 13.4652 6.79075   1
   6  22   1 30.5558 10.0539   2
   6  22   1 26.9251 11.3195   3
   7 -22   1 -0.4012 8.26371   1
   7  22   1 14.5660 10.8702   3
   7  22   1 -1.5106 5.85788   1
   7 -23  -1 150.223 17.2911   1
   7  23  -1 205.118 24.6258   3
   7  23  -1 209.122 18.5941   1
   6 -23  -1 11.0562 8.93249   1
  -6  23   1 -0.6806 7.95072   2
   6  23  -1 5.57649 6.53917   1
   6  23  -1 10.8451 9.42419   3
   5 -23  -1 27.7713 10.3759   1
  -5  23   1 39.5207 10.4501   2
   5  23  -1 41.7705 9.06666   1
   5  23  -1 38.4098 11.0959   3
   5  23  -1 13.2433 8.41397   2
   4 -23  -1 39.5511 10.3248   1
   4  23  -1 55.7722 9.76725   1
  -4  23   1 56.7790 10.8475   2
   4  23  -1 43.3454 10.5265   3
   4  23  -1 47.1356 10.9493   2
   3 -23  -1 2.17392 7.83687   1
  -3  23   1 11.0932 5.98315   1
   3  23  -1 11.7478 8.05604   2
   3  23  -1 15.3475 8.00637   3
   3  23  -1 0.03054 5.93681   1
  -3  23   1 -2.0776 7.35251   2
  -2 -23   1 24.6904 8.88393   1
   2 -23  -1 18.1477 9.10956   1
   2  23  -1 20.3755 7.03992   1
   2  23  -1 24.9964 8.43988   3
   2  23  -1 26.5274 8.38322   2
  -2  23   1 9.55389 8.59782   2
  -2  23   1 27.2484 7.52056   1
  -2  23   1 29.6933 13.0674   3
  -1 -23   1 1555.37 38.2439   1
   1 -23  -1 1625.50 39.1535   1
  -1  23   1 1486.07 39.1709   2
  -1  23   1 1591.66 37.8951   1
   1  23  -1 1601.87 37.8280   3
   1  23  -1 1628.23 38.4420   1
  -1  23   1 1608.14 43.6836   3
   1  23  -1 1538.87 39.2438   2
   0 -23   1 41.1864 9.41428   1
   0 -23  -1 38.3642 9.79045   1
   0  23   1 39.3018 8.30377   1
   0  23   1 42.7221 12.5306   3
   0  23   1 30.7673 9.54208   2
   0  23  -1 30.2509 7.46713   1
   0  23  -1 30.4861 8.36616   2
   0  23  -1 27.6045 8.13565   3
  -1 -23  -1 38.7450 9.22534   1
   1 -23   1 25.6187 9.82222   1
   1  23   1 28.6940 9.36442   2
  -1  23  -1 16.6036 7.47643   2
   1  23   1 19.9069 6.97796   1
  -1  23  -1 10.8140 8.01170   3
  -1  23  -1 21.2648 6.78226   1
   1  23   1 35.7720 11.2651   3
  -2 -23  -1 374.597 18.3368   1
   2 -23   1 370.763 20.6212   1
  -2  23  -1 411.527 20.8639   3
  -2  23  -1 408.828 17.9466   1
   2  23   1 389.876 23.3097   3
   2  23   1 393.783 18.5957   1
   2  23   1 334.709 20.4450   2
  -2  23  -1 359.623 17.6798   2
   3 -23   1 196.541 17.4228   1
   3  23   1 206.092 20.6600   3
  -3  23  -1 170.255 13.8473   2
   3  23   1 145.349 16.1927   2
   3  23   1 174.739 15.1241   1
   4 -23   1 189.610 17.4431   1
   4  23   1 163.072 14.8294   1
   4  23   1 154.921 16.4183   2
   4  23   1 190.964 20.3263   3
  -4  23  -1 173.712 14.0463   2
   5 -23   1 16.8027 9.63434   1
   5  23   1 34.1674 10.5028   2
   5  23   1 28.1264 7.86329   1
   5  23   1 16.2575 9.65689   3
   6 -23   1 32.8827 10.9175   1
   6  23   1 35.4754 12.8294   3
   6  23   1 15.4912 9.05100   2
   6  23   1 43.7649 9.13840   1
   7 -23   1 -5.1973 8.48114   1
   7  23   1 -0.4131 9.53774   3
   7  23   1 2.76532 6.58214   1
   7 -24  -1 3.68779 8.80318   1
   7  24  -1 -0.3868 8.83356   3
   7  24  -1 4.67075 6.58074   1
   6 -24  -1 63.5694 12.1780   1
   6  24  -1 46.4109 9.99561   1
   6  24  -1 63.3600 14.0036   3
  -6  24   1 51.7598 11.6944   2
   5 -24  -1 30.0858 10.1747   1
   5  24  -1 57.8261 13.1051   3
  -5  24   1 35.6751 10.5807   2
   5  24  -1 29.2975 8.41292   1
   5  24  -1 34.0028 10.2801   2
   4 -24  -1 3.50911 7.59773   1
   4  24  -1 6.71740 6.14035   1
   4  24  -1 5.52617 7.11237   3
   4  24  -1 1.04286 7.06406   2
  -4  24   1 2.71732 7.98452   2
   3 -24  -1 8.21518 8.59350   1
   3  24  -1 -10.349 5.46207   2
  -3  24   1 7.64899 8.08958   2
   3  24  -1 2.80494 5.53411   1
   3  24  -1 8.71088 7.10838   3
  -3  24   1 0.63907 4.93354   1
  -2 -24   1 45.6986 9.99511   1
   2 -24  -1 53.1417 11.5806   1
  -2  24   1 29.4915 8.02566   1
  -2  24   1 47.2514 14.0759   3
   2  24  -1 33.0179 9.09233   3
  -2  24   1 31.5770 10.4704   2
   2  24  -1 44.1686 8.98279   1
   2  24  -1 32.3075 8.91155   2
   1 -24  -1 1483.82 37.6896   1
  -1 -24   1 1373.82 36.4855   1
  -1  24   1 1431.26 41.1964   3
   1  24  -1 1387.95 36.3139   1
   1  24  -1 1368.88 37.3037   2
  -1  24   1 1395.73 36.0862   1
  -1  24   1 1405.32 37.8572   2
   1  24  -1 1379.37 35.7110   3
   0 -24  -1 9.39312 8.31444   1
   0 -24   1 12.3412 8.24780   1
   0  24  -1 -5.1799 5.89957   2
   0  24   1 -4.3436 5.31187   1
   0  24   1 3.09196 9.95743   3
   0  24  -1 0.35423 5.04619   1
   0  24  -1 -1.5222 6.68365   3
   0  24   1 2.76471 8.09752   2
  -1 -24  -1 74.7461 11.3333   1
   1 -24   1 94.8569 12.9331   1
  -1  24  -1 69.6283 10.6494   2
   1  24   1 65.3371 13.0265   3
  -1  24  -1 74.9544 10.1466   1
  -1  24  -1 72.1769 11.2906   3
   1  24   1 75.4586 10.5433   1
   1  24   1 60.7476 11.7300   2
   2 -24   1 729.659 27.9110   1
   2  24   1 707.646 28.3937   2
   2  24   1 741.003 26.0251   1
  -2  24  -1 701.960 24.2452   1
  -2  24  -1 686.596 25.8213   3
   2  24   1 685.083 29.6738   3
  -2  24  -1 767.564 25.5790   2
   3 -24   1 15.2695 9.12830   1
   3  24   1 35.9193 10.0137   2
   3  24   1 34.0491 10.8066   3
  -3  24  -1 35.3363 8.10749   2
   3  24   1 25.0702 7.21615   1
   4 -24   1 57.5796 12.3359   1
   4  24   1 83.1240 14.9645   3
  -4  24  -1 71.3351 10.3454   2
   4  24   1 79.0615 11.1707   1
   4  24   1 75.3105 12.5758   2
   5 -24   1 4.98365 8.96952   1
   5  24   1 -0.8235 7.55038   2
   5  24   1 1.30262 6.27462   1
   5  24   1 0.50080 8.20889   3
   6 -24   1 6.41455 9.30968   1
   6  24   1 6.47900 6.24697   1
   6  24   1 -1.4017 7.34830   2
   6  24   1 1.30648 8.69671   3
   7  25  -1 7.04832 10.6714   3
   7  25  -1 20.6287 8.82536   1
   6 -25  -1 3.64183 8.35240   1
   6  25  -1 5.48027 6.78153   1
   6  25  -1 1.01278 8.40296   3
  -6  25   1 6.62011 8.38666   2
   5 -25  -1 10.7158 9.18210   1
  -5  25   1 1.38968 8.19341   2
   5  25  -1 14.7616 9.06751   3
   5  25  -1 4.22588 8.04551   2
   5  25  -1 11.2049 7.01811   1
   4 -25  -1 40.0134 11.1041   1
   4  25  -1 18.7644 8.94556   3
   4  25  -1 19.6704 9.44372   2
  -4  25   1 27.8571 9.39621   2
   4  25  -1 42.9303 9.40581   1
   3 -25  -1 93.8418 13.3693   1
   3  25  -1 120.366 14.7150   3
   3  25  -1 117.056 14.8537   2
   3  25  -1 100.821 12.3263   1
  -3  25   1 111.225 12.5143   1
  -3  25   1 114.277 14.1403   2
  -2 -25   1 16.4452 8.85301   1
   2 -25  -1 10.1230 8.98744   1
  -2  25   1 29.1047 9.64049   2
   2  25  -1 13.0883 7.67992   2
  -2  25   1 34.4614 8.09754   1
  -2  25   1 7.22900 12.8895   3
   2  25  -1 25.6004 8.57312   3
   2  25  -1 13.8874 7.01522   1
   1 -25  -1 195.633 17.2262   1
  -1 -25   1 238.903 18.3840   1
  -1  25   1 233.592 20.8549   3
   1  25  -1 219.668 15.4885   1
  -1  25   1 207.575 15.2861   1
   1  25  -1 239.110 17.1117   2
  -1  25   1 216.914 18.3834   2
   1  25  -1 193.450 15.1393   3
   0 -25  -1 13.9647 8.99977   1
   0 -25   1 14.9216 9.13753   1
   0  25  -1 11.1670 7.65949   2
   0  25  -1 11.4939 7.63540   3
   0  25   1 -2.9605 10.7076   3
   0  25  -1 18.2327 7.05553   1
   0  25   1 2.27308 8.33316   2
   0  25   1 10.5146 6.39164   1
   1 -25   1 1241.93 36.2410   1
  -1 -25  -1 1230.23 33.7156   1
  -1  25  -1 1187.23 33.2253   1
   1  25   1 1194.15 37.9287   3
  -1  25  -1 1218.27 33.5584   2
   1  25   1 1269.24 37.6874   2
   1  25   1 1199.90 34.1500   1
  -1  25  -1 1206.19 32.3118   3
   2 -25   1 241.375 19.6216   1
   2  25   1 259.576 18.9205   2
  -2  25  -1 215.859 15.5303   2
   2  25   1 236.255 16.1122   1
  -2  25  -1 224.942 17.5144   3
   2  25   1 208.283 19.3469   3
  -2  25  -1 225.169 14.7095   1
   3 -25   1 13.3528 9.26952   1
   3  25   1 17.5328 7.28678   1
   3  25   1 19.0952 9.32411   2
  -3  25  -1 -9.1855 10.1683   3
  -3  25  -1 19.9702 7.38863   2
   3  25   1 4.06192 8.39239   3
   4 -25   1 8.69640 8.98902   1
   4  25   1 0.70410 6.80577   2
  -4  25  -1 4.21754 6.32247   2
   4  25   1 -7.0335 7.06909   3
   4  25   1 2.32838 6.28670   1
   5 -25   1 5.84090 9.36949   1
   5  25   1 -1.2397 7.91015   3
   5  25   1 5.04608 6.60418   1
   5  25   1 4.08653 7.97738   2
   6 -25   1 47.7918 12.3077   1
   6  25   1 44.6804 12.3590   2
   6  25   1 28.7571 8.80745   1
   6  25   1 31.9045 12.5566   3
   6 -26  -1 0.33225 8.30597   1
  -6  26   1 0.88039 8.70776   2
   6  26  -1 4.97871 7.08617   1
   6  26  -1 11.5107 9.25311   3
   5 -26  -1 36.8092 10.9092   1
  -5  26   1 51.1844 11.6169   2
   5  26  -1 43.5916 12.3016   3
   5  26  -1 20.3052 9.18270   2
   5  26  -1 39.1903 9.62075   1
   4 -26  -1 -1.3713 7.80974   1
   4  26  -1 13.3029 8.03475   3
   4  26  -1 12.7156 8.54810   2
   4  26  -1 1.80821 5.84978   1
  -4  26   1 10.0124 8.45021   2
   3 -26  -1 2.93256 8.33385   1
   3  26  -1 -2.9238 5.22304   1
   3  26  -1 3.21534 6.89529   3
  -3  26   1 13.8303 6.91800   1
  -3  26   1 12.6333 8.30756   2
   3  26  -1 12.5646 8.45746   2
   2 -26  -1 107.223 14.2179   1
  -2 -26   1 108.964 13.6125   1
  -2  26   1 120.118 13.1781   1
   2  26  -1 135.545 14.4979   3
  -2  26   1 115.062 17.6034   3
   2  26  -1 126.752 14.4441   2
   2  26  -1 116.103 13.6194   1
  -2  26   1 144.398 15.8573   2
  -1 -26   1 -7.5852 7.76252   1
   1 -26  -1 12.1576 8.79599   1
   1  26  -1 3.83203 6.66306   2
  -1  26   1 7.76069 6.38560   1
  -1  26   1 4.50279 8.34177   2
   1  26  -1 6.61239 6.15720   1
   1  26  -1 6.27028 6.88378   3
  -1  26   1 -5.9027 10.2617   3
   0 -26   1 435.407 22.7679   1
   0 -26  -1 483.176 23.2742   1
   0  26  -1 428.208 21.3657   2
   0  26  -1 447.337 20.6561   1
   0  26   1 431.556 20.7529   1
   0  26  -1 410.564 20.1059   3
   0  26   1 451.990 25.4028   3
   0  26   1 459.637 23.5415   2
  -1 -26  -1 68.9976 11.5756   1
   1 -26   1 65.7813 12.3634   1
   1  26   1 64.9750 13.4847   3
   1  26   1 59.8260 11.5354   2
  -1  26  -1 89.1659 11.3199   1
  -1  26  -1 87.6863 12.0558   3
   1  26   1 68.0692 10.1242   1
  -1  26  -1 74.1102 11.0634   2
   2 -26   1 2.46160 8.53575   1
  -2  26  -1 1.30666 6.57177   2
   2  26   1 4.03155 8.44496   3
  -2  26  -1 -1.1429 4.92865   1
   2  26   1 -1.6901 5.61455   1
  -2  26  -1 -1.3382 8.02332   3
   2  26   1 12.2191 7.98778   2
   3 -26   1 54.9886 12.2191   1
  -3  26  -1 45.5795 12.9163   3
  -3  26  -1 56.9083 9.74954   2
   3  26   1 58.9727 10.4220   1
   3  26   1 56.6923 11.5498   2
   3  26   1 55.1817 12.5782   3
   4 -26   1 13.1960 10.0163   1
   4  26   1 -0.8235 5.82037   1
   4  26   1 9.22094 7.97924   2
  -4  26  -1 -5.4274 5.84161   2
   4  26   1 4.85765 8.66360   3
   5 -26   1 16.8783 9.85249   1
   5  26   1 11.8128 8.26247   2
   5  26   1 15.8470 7.44583   1
   5  26   1 14.9898 10.2917   3
   6 -26   1 87.5450 15.0474   1
   6  26   1 38.4165 9.73889   1
   6  26   1 69.6760 13.9087   2
   6  26   1 63.5161 14.6312   3
   6 -27  -1 -0.9941 9.55251   1
   6  27  -1 5.25468 9.25888   3
  -6  27   1 7.87582 8.89652   2
   6  27  -1 9.99281 7.77719   1
   5 -27  -1 21.5119 10.2817   1
   5  27  -1 6.04559 8.37656   3
   5  27  -1 7.00565 7.96950   2
   5  27  -1 13.4351 7.62696   1
  -5  27   1 11.4009 8.80841   2
   4 -27  -1 7.22211 9.10849   1
   4  27  -1 12.9184 7.02485   1
  -4  27   1 7.46395 8.47991   2
   4  27  -1 12.5360 8.55271   3
   4  27  -1 12.8563 8.47129   2
   3 -27  -1 114.634 15.6185   1
   3  27  -1 80.6615 12.1909   1
  -3  27   1 88.7425 13.4047   2
   3  27  -1 108.075 14.7722   3
   3  27  -1 100.797 14.6440   2
  -3  27   1 125.514 19.5157   1
   2 -27  -1 265.263 19.8075   1
  -2 -27   1 253.692 18.2908   1
  -2  27   1 260.531 18.8284   2
   2  27  -1 259.417 18.1312   2
  -2  27   1 280.050 17.8401   1
   2  27  -1 322.501 19.0095   1
   2  27  -1 282.180 18.4743   3
  -2  27   1 296.154 24.2066   3
  -1 -27   1 0.87187 7.71686   1
  -1  27   1 -2.0081 7.67097   2
   1  27  -1 3.96716 6.41489   3
   1  27  -1 5.96747 7.23929   2
   1  27  -1 0.49635 6.05231   1
  -1  27   1 -7.4309 5.12676   1
  -1  27   1 19.6088 10.6884   3
   0 -27   1 28.9584 10.6139   1
   0 -27  -1 32.4588 10.3383   1
   0  27  -1 24.6464 8.04691   3
   0  27   1 17.3625 10.9605   3
   0  27   1 28.0631 9.78855   2
   0  27   1 16.1347 7.44398   1
   0  27  -1 18.6593 7.19957   1
   0  27  -1 23.0495 8.13621   2
   1 -27   1 17.7422 9.49450   1
  -1 -27  -1 8.75568 7.99446   1
   1  27   1 16.9356 10.1051   3
  -1  27  -1 18.1806 7.74453   2
   1  27   1 1.78765 5.87290   1
  -1  27  -1 9.54992 7.82686   3
   1  27   1 5.58768 7.93066   2
  -1  27  -1 14.8412 6.74530   1
   2 -27   1 -4.2443 8.30547   1
   2  27   1 -3.3928 7.84358   3
   2  27   1 -3.5863 6.65235   2
   2  27   1 1.62282 6.06526   1
  -2  27  -1 11.1808 6.27748   1
  -2  27  -1 4.11633 6.53745   2
  -2  27  -1 0.51085 8.12368   3
   3 -27   1 297.415 21.4326   1
   3  27   1 286.186 21.5322   3
  -3  27  -1 322.088 21.5454   3
   3  27   1 300.950 21.1959   2
   3  27   1 317.328 19.7282   1
  -3  27  -1 280.155 17.3856   2
   4 -27   1 8.13763 9.74030   1
   4  27   1 4.28041 8.48642   3
   4  27   1 9.01972 7.92807   2
   4  27   1 3.29340 6.50786   1
  -4  27  -1 -1.0074 6.49511   2
   5 -27   1 0.64988 10.0778   1
   5  27   1 2.43159 6.65016   1
   5  27   1 -1.3277 7.98188   3
   5  27   1 -3.2791 7.16725   2
   6 -27   1 10.9211 10.4579   1
   6  27   1 0.29411 9.07834   3
   6  27   1 1.25913 7.82633   2
   6  27   1 -4.0908 6.61949   1
   6 -28  -1 -5.4878 9.40541   1
   6  28  -1 7.79026 7.23917   1
  -6  28   1 -1.5337 8.54021   2
   6  28  -1 13.6213 9.99090   3
   5 -28  -1 4.69144 9.47221   1
   5  28  -1 -0.7607 6.35260   1
   5  28  -1 -6.0255 6.99028   2
   5  28  -1 8.16082 8.56428   3
  -5  28   1 -1.0394 8.14447   2
   4 -28  -1 11.9926 9.56549   1
  -4  28   1 2.59995 8.11737   2
   4  28  -1 2.32629 5.92739   1
   4  28  -1 -5.8097 6.74203   3
   4  28  -1 -1.0166 7.76650   2
   3 -28  -1 194.851 19.1535   1
   3  28  -1 200.736 18.0770   1
   3  28  -1 208.088 19.8398   3
   3  28  -1 234.152 21.2750   2
  -3  28   1 243.723 18.2446   2
  -3  28   1 193.350 21.8326   3
   2 -28  -1 76.1270 13.3523   1
  -2 -28   1 84.3546 12.9871   1
  -2  28   1 85.8000 12.2460   1
  -2  28   1 69.2890 12.5480   2
   2  28  -1 53.0268 10.1314   1
  -2  28   1 91.6220 16.4216   3
   2  28  -1 82.8762 13.0656   2
   2  28  -1 99.5059 13.4404   3
   1 -28  -1 25.9279 9.93365   1
  -1 -28   1 39.5041 11.0364   1
  -1  28   1 72.5677 13.9416   3
  -1  28   1 34.5145 10.4115   2
   1  28  -1 57.5777 10.7386   3
  -1  28   1 47.8238 10.0398   1
   1  28  -1 50.8270 10.8523   2
   1  28  -1 71.3024 11.6305   1
   0 -28   1 83.4213 13.6376   1
   0 -28  -1 91.6029 13.3297   1
   0  28  -1 76.9974 12.0170   2
   0  28  -1 80.8744 11.5765   1
   0  28  -1 112.201 12.8478   3
   0  28   1 65.2799 14.0128   3
   0  28   1 100.987 14.3954   2
   0  28   1 96.2771 12.4493   1
   1 -28   1 18.5782 9.78395   1
  -1 -28  -1 37.9492 10.3210   1
   1  28   1 38.9429 10.7717   2
  -1  28  -1 16.8209 8.14776   2
   1  28   1 44.7990 12.0079   3
  -1  28  -1 58.9352 10.3352   1
   1  28   1 36.5467 9.58247   1
  -1  28  -1 50.1304 10.0216   3
   2 -28   1 2.90280 8.70561   1
  -2  28  -1 6.92204 6.73531   2
   2  28   1 -6.8086 6.35169   2
   2  28   1 -0.1191 8.55902   3
  -2  28  -1 9.23205 8.33477   3
   2  28   1 0.93901 6.01418   1
  -2  28  -1 0.46064 6.06068   1
   3 -28   1 58.5830 13.3767   1
  -3  28  -1 104.804 13.2913   2
  -3  28  -1 84.0218 14.5553   3
   3  28   1 49.4958 12.2373   3
   3  28   1 57.2062 11.7595   2
   3  28   1 70.8417 11.5574   1
   4 -28   1 -1.8156 8.99439   1
   4  28   1 6.69007 7.29593   1
   4  28   1 9.64984 8.19876   2
  -4  28  -1 3.40639 6.78815   2
   4  28   1 4.37822 8.20856   3
   5 -28   1 31.1026 11.8849   1
   5  28   1 13.7402 9.90849   3
   5  28   1 23.5011 11.1224   2
   5  28   1 19.2760 8.10468   1
   6 -29  -1 10.4381 10.5163   1
  -6  29   1 -5.1404 8.45810   2
   6  29  -1 7.98843 9.74755   3
   6  29  -1 -5.9347 6.05007   1
   5 -29  -1 8.39504 10.2070   1
  -5  29   1 17.4904 9.00973   2
   5  29  -1 14.5244 7.70472   1
   5  29  -1 9.09424 8.92597   3
   5  29  -1 10.1982 8.03672   2
   4 -29  -1 11.2359 10.3761   1
  -4  29   1 6.40630 8.40731   2
   4  29  -1 11.1370 9.20937   2
   4  29  -1 6.37080 8.03067   3
   4  29  -1 -7.4727 5.85380   1
   3 -29  -1 -8.8272 7.99913   1
   3  29  -1 -3.8805 6.13198   1
  -3  29   1 -8.9746 12.3584   3
   3  29  -1 9.04839 8.24290   3
  -3  29   1 2.71447 8.39064   2
   3  29  -1 16.9140 8.64877   2
   2 -29  -1 4.51391 9.55818   1
   2  29  -1 16.1427 7.43752   1
  -2  29   1 -2.6153 5.73635   1
   2  29  -1 0.85688 6.88682   2
  -2  29   1 6.15669 11.6651   3
   2  29  -1 7.24685 7.11934   3
  -2  29   1 11.8423 9.18040   2
   1 -29  -1 69.4231 13.2126   1
  -1 -29   1 54.6275 12.0382   1
   1  29  -1 55.4845 10.6870   3
  -1  29   1 79.9097 14.7331   3
  -1  29   1 39.4475 11.1854   2
   1  29  -1 56.6074 10.9549   2
  -1  29   1 45.1245 9.80699   1
   1  29  -1 57.7139 10.7252   1
   0 -29   1 60.4116 12.4229   1
   0 -29  -1 83.7147 13.6860   1
   0  29   1 91.5110 15.3627   3
   0  29  -1 78.4108 11.7464   3
   0  29   1 95.3778 14.6249   2
   0  29   1 83.7957 12.2789   1
   0  29  -1 65.1011 11.5392   2
   0  29  -1 59.0967 10.5597   1
  -1 -29  -1 1.12283 8.87367   1
   1 -29   1 2.04879 8.98789   1
   1  29   1 -8.5347 5.63323   1
   1  29   1 -1.7109 7.42937   2
  -1  29  -1 0.45074 5.98157   1
  -1  29  -1 -1.9910 6.42400   2
  -1  29  -1 3.22156 6.69652   3
   1  29   1 2.53915 8.38644   3
   2 -29   1 -2.2882 9.32131   1
   2  29   1 -0.6692 8.42990   3
  -2  29  -1 -2.4628 6.15360   2
   2  29   1 -8.9780 5.78540   1
   2  29   1 13.4022 8.49235   2
  -2  29  -1 5.20377 8.44675   3
   3 -29   1 21.6046 11.2642   1
   3  29   1 39.3774 10.7220   2
  -3  29  -1 43.7615 9.82949   2
   3  29   1 42.4036 11.8408   3
   3  29   1 21.7738 8.57267   1
  -3  29  -1 46.4915 14.7133   3
   4 -29   1 -6.4406 9.17538   1
   4  29   1 -4.3727 8.05784   3
   4  29   1 6.27055 8.16005   2
  -4  29  -1 3.12523 6.89338   2
   4  29   1 -9.7083 5.50781   1
   5 -29   1 1.18244 10.5395   1
   5  29   1 4.34381 9.09238   3
   5  29   1 -7.6306 6.16675   1
   5  29   1 4.14638 9.28317   2
   5 -30  -1 -4.9745 9.33791   1
   5  30  -1 5.00546 7.10311   1
  -5  30   1 6.38970 8.61467   2
   5  30  -1 -2.1682 8.08453   3
   5  30  -1 4.76513 7.87345   2
   4 -30  -1 5.34279 9.69242   1
   4  30  -1 7.44069 7.40175   1
   4  30  -1 3.05697 8.07605   2
  -4  30   1 3.44479 8.63897   2
   4  30  -1 19.0601 9.62125   3
   3 -30  -1 -6.8711 9.36391   1
   3  30  -1 -6.8845 5.91408   1
  -3  30   1 -3.2729 8.31039   2
   3  30  -1 5.18917 7.49808   3
   3  30  -1 7.04868 7.79222   2
  -3  30   1 -19.879 12.0895   3
   2 -30  -1 8.55162 9.65851   1
   2  30  -1 13.5651 8.49032   2
   2  30  -1 8.27135 7.47553   3
   2  30  -1 1.08880 6.51224   1
  -2  30   1 -0.3260 8.50951   2
  -2  30   1 0.02447 11.5482   3
  -2  30   1 6.74452 6.65150   1
  -1 -30   1 11.6494 9.69239   1
   1 -30  -1 15.0333 9.99379   1
   1  30  -1 10.0379 7.20940   1
  -1  30   1 19.5254 11.0489   3
   1  30  -1 10.7143 7.77391   3
  -1  30   1 6.79653 8.75839   2
   1  30  -1 13.3383 7.90611   2
  -1  30   1 6.42186 6.59796   1
   0 -30   1 18.3064 10.3570   1
   0 -30  -1 20.6894 10.0342   1
   0  30  -1 22.6854 8.03362   3
   0  30   1 2.83529 9.93509   3
   0  30  -1 -1.2989 6.43561   2
   0  30  -1 18.7878 7.80117   1
   0  30   1 22.1669 9.69588   2
   0  30   1 4.23099 6.62948   1
   1 -30   1 82.0857 14.3045   1
   1  30   1 56.2638 12.4336   2
  -1  30  -1 43.7242 10.2854   2
  -1  30  -1 57.2075 10.4325   1
   1  30   1 51.5940 10.6109   1
  -1  30  -1 76.6859 11.9663   3
   1  30   1 43.1215 12.3563   3
   2 -30   1 29.2913 11.3953   1
   2  30   1 17.5931 8.20575   1
  -2  30  -1 29.6368 9.55290   3
   2  30   1 14.2418 9.72226   3
   2  30   1 10.1612 8.72582   2
  -2  30  -1 24.0816 8.93992   2
   3 -30   1 -7.5410 8.93116   1
   3  30   1 5.60689 8.27191   3
   3  30   1 2.25878 6.50311   1
   3  30   1 2.16172 7.25691   2
  -3  30  -1 9.45290 7.40239   2
   4 -30   1 52.0266 13.2679   1
   4  30   1 47.6282 12.4076   3
   4  30   1 55.7315 11.4143   1
  -4  30  -1 47.6117 10.3108   2
   4  30   1 36.2201 10.9783   2
   5 -30   1 31.7730 12.6981   1
   5  30   1 47.1612 13.3418   3
   5  30   1 35.7387 11.9172   2
   5  30   1 39.1439 10.3144   1
   5 -31  -1 -5.6798 10.2275   1
  -5  31   1 -3.8722 8.20102   2
   5  31  -1 13.3172 8.69073   1
   5  31  -1 8.74304 8.64837   2
   5  31  -1 4.31095 8.70584   3
   4 -31  -1 42.6129 12.2708   1
   4  31  -1 22.3060 10.0345   2
   4  31  -1 16.8529 9.67559   3
  -4  31   1 29.1610 10.7176   2
   4  31  -1 23.4687 8.82970   1
  -4  31   1 -25.876 14.4087   3
   3 -31  -1 -7.1881 9.16014   1
  -3  31   1 -10.053 7.69399   2
   3  31  -1 -0.7137 6.64044   3
   3  31  -1 -5.0755 7.10522   2
   3  31  -1 5.05386 6.97964   1
  -3  31   1 -31.994 11.2502   3
   2 -31  -1 58.4728 13.2507   1
  -2  31   1 40.6776 11.7452   2
   2  31  -1 44.6339 10.5899   3
  -2  31   1 44.5207 14.0540   3
  -2  31   1 41.4351 10.0675   1
   2  31  -1 14.7341 7.77099   1
   2  31  -1 26.9312 9.62370   2
   1 -31  -1 45.9194 12.1576   1
  -1 -31   1 31.5813 11.9389   1
  -1  31   1 53.3414 12.7338   2
  -1  31   1 46.9119 10.7341   1
   1  31  -1 63.7947 11.5984   3
  -1  31   1 66.7062 14.1981   3
   1  31  -1 35.9697 10.2904   2
   1  31  -1 37.0256 9.98467   1
   0 -31  -1 3.88959 9.17521   1
   0 -31   1 1.62636 9.30769   1
   0  31   1 -1.6713 9.10763   3
   0  31  -1 9.12954 6.87773   1
   0  31  -1 2.16070 7.06978   2
   0  31   1 -10.257 5.00868   1
   0  31   1 6.41530 8.80473   2
   0  31  -1 9.80005 7.25340   3
   1 -31   1 4.49494 9.96810   1
  -1  31  -1 10.8583 6.91298   1
   1  31   1 3.45515 8.87305   3
  -1  31  -1 11.3344 7.70400   3
   1  31   1 3.86459 7.53266   2
  -1  31  -1 5.11638 7.46410   2
   1  31   1 7.08357 6.76826   1
   2 -31   1 8.66229 10.5458   1
   2  31   1 3.32711 7.25946   2
   2  31   1 3.84212 7.01278   1
   2  31   1 15.1612 9.69926   3
  -2  31  -1 6.54825 8.73572   3
  -2  31  -1 13.3311 7.66714   2
   3 -31   1 26.8023 11.0771   1
  -3  31  -1 4.51625 6.98054   2
   3  31   1 0.34298 8.44405   3
   3  31   1 6.30638 7.92599   2
   3  31   1 4.09012 6.81237   1
   4 -31   1 19.8679 11.6002   1
  -4  31  -1 7.72463 7.97367   2
   4  31   1 4.26875 7.18632   1
   4  31   1 9.89463 9.19977   2
   4  31   1 8.30952 8.97567   3
   5 -31   1 3.75548 10.6803   1
   5  31   1 25.0685 9.16655   1
   5  31   1 17.4509 10.9804   2
   5  31   1 25.0033 11.6474   3
   5 -32  -1 4.65532 11.7452   1
  -5  32   1 9.02417 9.34840   2
   5  32  -1 33.3685 11.1688   2
   5  32  -1 26.5243 9.84113   1
   5  32  -1 21.8870 11.1685   3
   4 -32  -1 3.95812 10.4940   1
   4  32  -1 9.51844 7.32258   1
   4  32  -1 7.17095 8.69278   3
  -4  32   1 -0.9660 9.00451   2
  -4  32   1 -36.043 12.9570   3
   4  32  -1 6.92153 8.35643   2
   3 -32  -1 16.8902 11.0303   1
   3  32  -1 0.48405 7.58761   2
   3  32  -1 10.7016 8.56723   3
  -3  32   1 -10.447 12.0253   3
  -3  32   1 21.8110 10.3170   2
   3  32  -1 7.83940 7.30267   1
   2 -32  -1 74.7306 14.5542   1
  -2  32   1 65.5077 14.6713   3
  -2  32   1 58.3274 13.2585   2
   2  32  -1 62.8049 11.9017   1
   2  32  -1 51.4403 11.9081   2
   2  32  -1 86.2076 13.2444   3
  -2  32   1 88.6273 13.8382   1
  -1 -32   1 227.460 21.0734   1
   1 -32  -1 217.245 21.0446   1
   1  32  -1 228.588 17.5700   3
  -1  32   1 226.423 22.1757   3
   1  32  -1 217.320 20.1952   1
  -1  32   1 221.625 20.1974   1
  -1  32   1 202.192 20.8349   2
   1  32  -1 231.199 20.8643   2
   0 -32   1 -3.1264 9.27067   1
   0 -32  -1 -9.4030 8.70352   1
   0  32  -1 -1.8577 6.79743   2
   0  32   1 -0.9468 6.54007   1
   0  32  -1 -6.4693 5.29275   1
   0  32   1 9.35555 8.84060   2
   0  32   1 4.14069 9.16378   3
   0  32  -1 7.26391 7.41567   3
   1 -32   1 21.6019 11.3512   1
  -1  32  -1 38.2167 9.83279   2
   1  32   1 29.1908 10.4449   2
  -1  32  -1 39.6603 9.63263   3
  -1  32  -1 33.3087 9.17525   1
   1  32   1 33.0919 9.53317   1
   1  32   1 41.6322 12.0621   3
   2 -32   1 5.30553 9.55550   1
   2  32   1 2.11518 6.88437   1
   2  32   1 -0.0452 7.33909   2
  -2  32  -1 -2.0815 6.12580   2
   2  32   1 1.40393 8.49055   3
   3 -32   1 10.7306 10.8572   1
  -3  32  -1 -1.6669 6.65678   2
   3  32   1 1.27218 6.90763   1
   3  32   1 12.3264 9.56500   3
   3  32   1 -5.7320 6.97138   2
   4 -32   1 9.95023 12.0290   1
   4  32   1 -5.9434 7.52217   2
   4  32   1 -1.1500 8.18148   3
  -4  32  -1 3.28712 6.88981   2
   4  32   1 -4.0630 6.46510   1
   4 -33  -1 22.2926 12.2301   1
  -4  33   1 18.3254 16.3546   3
  -4  33   1 15.2555 10.1101   2
   4  33  -1 21.5133 9.10633   1
   4  33  -1 15.3303 9.53560   3
   4  33  -1 23.2848 10.7169   2
   3 -33  -1 3.09556 10.4113   1
   3  33  -1 6.49979 8.20008   3
   3  33  -1 15.4887 8.00746   1
   3  33  -1 4.60544 9.07705   2
  -3  33   1 -0.0826 8.65554   2
  -3  33   1 9.34619 13.6878   3
   2 -33  -1 70.8872 14.8477   1
   2  33  -1 24.4989 9.77584   2
   2  33  -1 29.5476 9.28472   1
  -2  33   1 52.4906 12.8657   2
  -2  33   1 57.7479 14.5830   3
   2  33  -1 36.0383 10.0777   3
  -2  33   1 28.7330 9.34442   1
   1 -33  -1 3.30891 10.1815   1
  -1 -33   1 0.25837 9.36732   1
   1  33  -1 20.1893 8.43074   3
   1  33  -1 10.8136 8.32922   2
  -1  33   1 11.4721 9.10118   2
  -1  33   1 11.0996 10.1738   3
   1  33  -1 2.11793 6.69168   1
  -1  33   1 12.2267 8.38138   1
   0 -33  -1 7.37826 9.67228   1
   0 -33   1 19.0241 11.5186   1
   0  33  -1 34.8621 9.13582   3
   0  33   1 12.3931 8.96388   2
   0  33  -1 5.05842 7.25638   1
   0  33   1 7.40122 7.63868   1
   0  33  -1 14.4659 8.10071   2
   0  33   1 14.3769 10.7429   3
   1 -33   1 32.6991 12.1740   1
  -1  33  -1 38.6080 9.73861   3
   1  33   1 26.4931 10.0769   2
   1  33   1 35.2041 11.3092   3
   1  33   1 21.9030 8.79752   1
  -1  33  -1 32.7375 9.64912   1
  -1  33  -1 20.7143 8.81150   2
   2 -33   1 27.8282 12.0569   1
   2  33   1 0.47323 7.94800   2
   2  33   1 46.5263 12.4299   3
   2  33   1 27.6209 9.93273   1
  -2  33  -1 18.1043 8.55730   2
   3 -33   1 14.3796 11.3255   1
   3  33   1 11.9222 8.76027   2
  -3  33  -1 10.6451 7.44692   2
   3  33   1 18.0656 10.4204   3
   3  33   1 4.49433 7.59013   1
   4 -33   1 4.63373 11.9655   1
   4  33   1 32.1630 11.4038   2
   4  33   1 16.2523 8.98100   1
   4  33   1 33.7705 12.1908   3
   4 -34  -1 56.7183 15.0298   1
  -4  34   1 75.1380 14.4969   2
   4  34  -1 41.9019 11.9671   1
   4  34  -1 59.9738 14.1425   2
  -4  34   1 33.0194 17.9642   3
   4  34  -1 63.6321 13.7580   3
   3 -34  -1 25.6957 12.4254   1
  -3  34   1 21.7786 13.9853   3
   3  34  -1 28.8720 10.5664   3
   3  34  -1 21.2368 10.1262   2
  -3  34   1 52.4864 13.2389   2
   3  34  -1 35.1385 10.3384   1
   2 -34  -1 8.95263 11.1008   1
  -2  34   1 22.8336 11.0474   2
   2  34  -1 16.0320 7.74176   1
   2  34  -1 5.47007 8.28335   2
  -2  34   1 20.9867 11.8043   3
   2  34  -1 15.5434 8.16929   3
   1 -34  -1 17.5405 11.7584   1
  -1  34   1 4.17523 9.99755   3
  -1  34   1 -2.3154 7.84850   2
   1  34  -1 5.37166 6.69205   3
   1  34  -1 1.42987 6.87637   1
  -1  34   1 -1.6918 7.04794   1
   1  34  -1 -2.2993 6.68336   2
   0 -34   1 -7.4156 9.07997   1
   0  34   1 6.48001 9.56907   3
   0  34   1 -4.1633 7.53719   2
   0  34  -1 15.4911 7.65800   3
   0  34   1 9.16521 7.61661   1
   0  34  -1 -2.9592 6.04159   1
   0  34  -1 7.74361 8.18834   2
   1 -34   1 57.0744 14.4425   1
   1  34   1 88.9837 15.7652   3
  -1  34  -1 104.064 15.8218   1
   1  34   1 62.6288 11.8531   1
  -1  34  -1 77.2665 13.2190   2
   1  34   1 89.6326 15.7476   2
   2 -34   1 -8.0218 9.47499   1
  -2  34  -1 -1.1229 6.99896   2
   2  34   1 15.3682 10.0430   3
   2  34   1 -5.7987 6.46032   1
   2  34   1 0.95685 7.87880   2
   3 -34   1 5.60649 10.9968   1
   3  34   1 14.6367 10.2898   3
  -3  34  -1 16.2347 8.35961   2
   3  34   1 21.3619 10.4659   2
   3  34   1 -6.8614 6.54681   1
   3 -35  -1 105.376 18.1049   1
   3  35  -1 144.643 18.3194   3
  -3  35   1 146.210 18.4206   2
  -3  35   1 173.385 22.6448   3
   3  35  -1 107.148 16.6269   2
   3  35  -1 155.115 19.0584   1
   2 -35  -1 9.90310 11.8173   1
   2  35  -1 2.74149 6.95117   3
  -2  35   1 1.40864 9.67272   2
  -2  35   1 27.6561 11.8865   3
   2  35  -1 -5.4521 6.61873   2
   2  35  -1 4.40739 7.23310   1
   1 -35  -1 13.9266 11.5726   1
   1  35  -1 0.42915 6.72292   1
  -1  35   1 30.9325 11.5650   3
   1  35  -1 7.35745 7.18659   3
  -1  35   1 4.82740 9.06269   2
   1  35  -1 -2.6241 6.68178   2
  -1  35   1 10.7447 7.91127   1
   0 -35   1 21.0065 11.6866   1
   0  35  -1 34.6909 10.3022   1
   0  35   1 33.0449 10.4740   1
   0  35   1 34.8478 11.2952   2
   0  35  -1 44.1026 11.6435   2
   0  35   1 34.0454 11.4905   3
   0  35  -1 42.1726 10.3304   3
   1 -35   1 13.9609 11.7752   1
  -1  35  -1 10.6381 8.70145   2
   1  35   1 7.73796 8.64578   2
   1  35   1 39.7233 11.8448   3
   1  35   1 2.32017 7.19815   1
   2 -35   1 18.8970 11.5789   1
  -2  35  -1 9.16313 8.55112   2
   2  35   1 26.4473 9.85719   1
   2  35   1 10.6291 9.05798   2
   2  35   1 16.6973 10.2347   3
   3 -35   1 5.48180 12.1748   1
   3  35   1 16.1466 9.92982   3
  -3  35  -1 2.07583 7.64734   2
   3  35   1 -6.4916 6.82822   1
   3  35   1 -2.9806 7.04365   2
   3 -36  -1 54.4299 15.6015   1
   3  36  -1 50.7644 13.2552   2
  -3  36   1 53.4544 14.1483   2
  -3  36   1 46.5045 15.6345   3
   3  36  -1 52.8244 12.6655   1
   3  36  -1 70.9948 14.6866   3
   2 -36  -1 35.6300 13.6617   1
   2  36  -1 46.8051 12.5872   2
  -2  36   1 36.0762 12.2927   2
   2  36  -1 26.8922 10.0758   1
  -2  36   1 27.4430 13.2714   3
   2  36  -1 41.0178 11.1244   3
   1 -36  -1 -2.9974 11.1116   1
  -1  36   1 -4.5982 8.43611   2
   1  36  -1 -4.5874 6.15445   1
  -1  36   1 0.19456 7.25816   1
  -1  36   1 18.8666 10.8711   3
   1  36  -1 11.4495 8.29062   2
   1  36  -1 21.1547 8.36463   3
   0 -36   1 15.1731 12.3129   1
   0  36  -1 5.24623 8.21876   2
   0  36   1 30.7238 11.3530   2
   0  36  -1 24.4969 8.98404   1
   0  36   1 47.2380 11.4419   1
   0  36   1 39.1678 12.6679   3
   1 -36   1 12.5154 11.6559   1
  -1  36  -1 13.4123 8.82135   2
   1  36   1 20.2921 9.47019   1
   1  36   1 23.4610 10.9674   2
   1  36   1 26.0058 11.4965   3
   2 -36   1 -2.6971 10.9096   1
  -2  36  -1 1.65066 7.61926   2
   2  36   1 3.21285 7.89207   1
   2  36   1 -9.9119 7.78910   2
   2  36   1 2.95021 8.59492   3
   2 -37  -1 28.9882 13.8176   1
   2  37  -1 15.6549 9.36783   2
  -2  37   1 43.4352 14.0691   3
   2  37  -1 16.3641 9.75808   1
   2  37  -1 40.8211 11.0116   3
  -2  37   1 7.94983 10.0175   2
   1 -37  -1 33.2918 13.8943   1
  -1  37   1 32.2345 11.5494   2
   1  37  -1 39.8979 10.4153   3
   1  37  -1 35.4719 11.8941   2
   1  37  -1 36.0557 10.9705   1
  -1  37   1 59.1326 12.7329   1
  -1  37   1 29.1521 12.1036   3
   0 -37   1 15.2027 12.5262   1
   0  37   1 19.0314 10.7920   2
   0  37   1 29.8284 11.2338   3
   0  37  -1 22.5196 10.7487   2
   0  37  -1 1.91280 8.09971   1
   0  37   1 10.5795 8.61138   1
   1 -37   1 53.6594 15.3676   1
  -1  37  -1 97.1767 15.5863   2
   1  37   1 92.7003 16.2221   2
   1  37   1 51.7561 12.7474   1
   1  37   1 94.2028 16.6958   3
   0  38   1 279.808 26.8277   2
   0  38  -1 276.232 24.6812   2
   0  38  -1 224.688 22.3622   1
   0  38   1 314.720 25.2029   3
   0  38   1 238.347 23.3544   1
   9   0  -2 1.27000 5.49456   1
   8   0  -2 42.5459 8.06540   1
   7   0  -2 4.61180 4.76228   1
   6   0  -2 14.1971 5.40445   1
   5   0  -2 -2.1354 3.60992   1
   4   0  -2 82.6982 7.60410   1
  -3   0   2 -2.2913 2.77671   1
   3   0  -2 7.69632 3.54852   1
  -2   0   2 1.31448 3.30449   1
   2   0  -2 -3.8754 2.67523   1
  -1   0   2 -0.3777 3.82121   1
   1   0  -2 -3.4574 2.92741   1
   0   0   2 9999.99 117.411   1
   0   0  -2 9785.94 116.234   1
   1   0   2 -2.3062 3.88202   3
   1   0   2 -3.8768 2.93163   1
   2   0   2 1011.61 14.4877   1
   2   0   2 1031.63 15.6065   2
   2   0   2 1027.40 14.2978   1
   2   0   2 1006.68 21.5300   3
   3   0   2 13.9781 4.86652   3
   4   0   2 207.097 13.3634   3
   5   0   2 4.18291 5.89207   3
   6   0   2 39.1826 9.82358   3
   7   0   2 -3.7295 6.82120   3
   8   0   2 59.6432 14.0885   3
   9  -1  -2 -3.2820 5.44658   1
   9   1  -2 0.04916 5.31147   1
   8  -1  -2 10.1216 5.56773   1
   8   1  -2 22.5360 6.45200   1
   7  -1  -2 4.16912 5.15223   1
   7   1  -2 11.2669 5.38129   1
   6  -1  -2 7.54479 4.92147   1
   6   1  -2 10.9309 5.36108   1
   5  -1  -2 58.3628 7.30703   1
   5   1  -2 47.9177 6.92353   1
   4  -1  -2 79.8780 7.33750   1
   4   1  -2 88.8399 7.54294   1
   3  -1  -2 89.7175 6.79404   1
  -3  -1   2 83.8748 6.19601   1
  -3   1   2 85.5760 6.29773   1
   3   1  -2 82.7579 7.03480   1
   2  -1  -2 127.432 7.46680   1
  -2  -1   2 151.619 7.87748   1
  -2   1   2 133.187 7.51886   1
   2   1  -2 125.268 7.21994   1
  -2   1   2 131.555 7.27598   1
   1  -1  -2 18.7665 3.99849   1
  -1  -1   2 23.5380 4.90494   1
  -1   1   2 18.1608 4.40116   1
   1   1  -2 20.2724 3.98049   1
   0  -1  -2 4592.38 57.1294   1
   0  -1   2 4576.17 58.0819   1
   0   1  -2 4539.03 57.2370   1
   0   1   2 4482.04 58.0500   1
   1  -1   2 4935.98 60.1056   1
   1  -1   2 4971.07 62.1919   3
   1   1   2 4785.94 59.5251   1
   1   1   2 4800.30 64.3737   3
   2  -1   2 219.837 9.51622   3
   2  -1   2 208.117 5.45017   1
   2  -1   2 207.493 5.84084   1
   2   1   2 211.803 5.19082   1
   2   1   2 211.204 4.93846   1
   2   1   2 217.988 6.79332   2
   2   1   2 216.728 10.0759   3
   3  -1   2 1579.43 31.4884   3
   3   1   2 1538.96 32.2683   3
   4  -1   2 137.846 11.3019   3
   4   1   2 142.774 12.7373   3
   5  -1   2 5.26340 6.17290   3
   5   1   2 -2.1273 5.70001   3
   6  -1   2 26.9356 9.22653   3
   6   1   2 28.7136 9.22996   3
   7  -1   2 -5.3769 6.97689   3
   7   1   2 -2.1124 7.35924   3
   8  -1   2 -14.736 7.24871   3
   8   1   2 15.3877 9.57195   3
   9  -2  -2 15.5976 7.07248   1
   9   2  -2 19.4370 7.08673   1
   8  -2  -2 13.7659 6.38567   1
   8   2  -2 7.67738 5.58373   1
   7  -2  -2 48.9707 7.97726   1
   7   2  -2 48.3908 7.78225   1
   6  -2  -2 53.8563 7.85893   1
   6   2  -2 54.8148 7.77343   1
   5  -2  -2 40.6826 6.43896   1
   5   2  -2 39.6733 6.26400   1
   4  -2  -2 69.9093 7.07329   1
   4   2  -2 65.5083 6.79825   1
   3  -2  -2 9.55470 3.57549   1
  -3  -2   2 9.95948 3.48259   1
  -3  -2   2 3.46316 3.25552   1
  -3   2   2 7.13933 3.24218   1
   3   2  -2 10.4827 3.59649   1
  -2  -2   2 15.8611 4.24403   1
   2  -2  -2 11.3714 3.62784   1
  -2   2   2 12.0793 3.83767   1
   2   2  -2 8.43190 3.36497   1
  -1  -2   2 3159.30 44.1213   1
   1  -2  -2 3142.67 43.6898   1
  -1   2   2 3168.22 44.1589   1
   1   2  -2 3165.57 43.9057   1
   0  -2  -2 4227.41 53.8679   1
   0  -2   2 4288.29 54.9735   1
   0   2  -2 4197.05 54.0133   1
   0   2   2 4261.21 55.1335   1
   1  -2   2 1239.06 19.9365   1
   1  -2   2 1242.40 20.2253   3
   1   2   2 1236.64 24.0667   3
   1   2   2 1249.66 19.5047   1
   2  -2   2 20.5753 2.94710   1
   2  -2   2 18.3640 4.18653   3
   2  -2   2 16.1289 2.37397   1
   2   2   2 22.9077 2.48409   1
   2   2   2 23.3259 5.14083   3
   2   2   2 21.6809 3.42501   2
   2   2   2 21.0320 2.26061   1
   3  -2   2 309.821 12.9708   3
   3   2   2 325.208 14.3782   3
   3   2   2 311.889 9.32983   2
   4  -2   2 324.252 15.2218   3
   4   2   2 290.742 15.6687   3
   5  -2   2 10.8991 6.53866   3
   5   2   2 -5.9699 5.72227   3
   6  -2   2 53.9759 11.0177   3
   6   2   2 58.6030 11.3177   3
   7  -2   2 16.4038 9.52251   3
   7   2   2 25.3836 10.2988   3
   8   2   2 32.8848 11.8570   3
   9  -3  -2 15.1895 7.26798   1
   9   3  -2 10.6849 6.11045   1
   8  -3  -2 -1.5813 4.80102   1
   8   3  -2 2.07817 5.08845   1
   7  -3  -2 4.94199 4.99520   1
   7   3  -2 8.11716 4.85550   1
   6  -3  -2 0.67966 4.62970   1
   6   3  -2 6.24172 4.87522   1
   5  -3  -2 54.5925 7.26421   1
   5   3  -2 79.1197 8.25345   1
   4  -3  -2 245.803 11.1851   1
   4   3  -2 247.422 11.0344   1
  -3  -3   2 552.860 13.9389   1
   3  -3  -2 564.338 15.2572   1
   3   3  -2 534.382 14.8681   1
  -3   3   2 540.233 14.1178   1
   2  -3  -2 23.5648 4.25341   1
  -2  -3   2 41.6448 5.46541   1
   2   3  -2 31.0155 4.73108   1
  -2   3   2 37.6049 4.98195   1
   1  -3  -2 4948.94 64.3949   1
  -1  -3   2 4940.67 64.6516   1
  -1   3   2 4955.44 64.7855   1
  -1   3   2 5022.45 64.8782   1
   1   3  -2 5059.37 64.6461   1
   0  -3   2 1627.76 25.6131   1
   0  -3  -2 1548.99 24.2001   1
   0   3   2 1526.29 24.8936   1
   0   3  -2 1547.86 24.3498   1
   1  -3   2 1386.77 21.0273   3
   1  -3   2 1437.32 22.4849   1
   1   3   2 1408.66 23.0748   2
   1   3   2 1420.36 21.7730   1
   1   3   2 1409.26 27.0143   3
   2  -3   2 85.4196 4.36690   1
   2  -3   2 74.7318 4.98618   1
   2  -3   2 72.8977 5.89509   3
   2   3   2 76.7703 5.89731   2
   2   3   2 70.7955 3.89573   1
   2   3   2 69.3214 7.57043   3
   2   3   2 65.0607 3.66681   1
   3  -3   2 77.7535 4.15329   1
   3  -3   2 76.2806 7.73429   3
   3  -3   2 74.5351 3.61341   1
   3   3   2 76.2981 8.90190   3
   3   3   2 78.6546 5.90372   2
   4  -3   2 45.5039 7.45756   3
   4   3   2 36.1470 7.91913   3
   5  -3   2 316.513 17.4678   3
   5   3   2 309.403 18.5421   3
   6  -3   2 386.750 20.9182   3
   6   3   2 394.758 22.4770   3
   7  -3   2 34.0532 10.5747   3
   7  -3   2 37.3713 4.44228   1
   7   3   2 52.1846 12.7883   3
   8  -3   2 29.1535 4.81198   1
   8   3   2 15.9576 9.87025   3
   9  -4  -2 35.7874 8.47367   1
   9   4  -2 30.5373 8.06817   1
   8  -4  -2 34.6494 8.06460   1
   8   4  -2 47.6726 8.25591   1
   7  -4  -2 11.3463 5.68761   1
   7   4  -2 11.7870 5.41032   1
   6  -4  -2 82.4030 9.39518   1
   6   4  -2 74.3918 8.68501   1
   5  -4  -2 71.0108 7.99455   1
   5   4  -2 83.7316 8.47379   1
   5   4  -2 60.4345 10.2836   3
   4  -4  -2 926.722 21.6479   1
   4   4  -2 873.934 26.4372   3
   4   4  -2 911.989 21.3729   1
   3  -4  -2 898.269 20.1412   1
  -3  -4   2 932.699 18.8731   1
   3   4  -2 918.124 20.2535   1
   3   4  -2 871.704 23.3319   3
  -3   4   2 908.043 19.1224   1
  -2  -4   2 563.547 14.4661   1
   2  -4  -2 564.362 14.7786   1
  -2   4   2 557.347 14.4217   1
   2   4  -2 546.271 14.3222   1
   1  -4  -2 195.952 8.55579   1
  -1  -4   2 205.309 9.19799   1
  -1   4   2 209.662 8.88530   1
   1   4  -2 195.661 8.40875   1
   0  -4  -2 2158.66 31.3270   1
   0  -4   2 2177.30 32.6951   1
   0   4   2 2139.28 32.2003   1
   0   4  -2 2166.09 31.5896   1
   1  -4   2 1885.33 28.2522   1
   1  -4   2 1857.09 25.2045   3
   1   4   2 1881.21 27.4248   1
   1   4   2 1893.28 33.8055   3
   1   4   2 1854.48 29.2491   2
   2  -4   2 -2.4976 2.68851   1
   2  -4   2 2.68648 2.11978   1
   2  -4   2 3.32912 2.87836   3
   2   4   2 4.69976 4.52380   3
   2   4   2 -0.0313 2.01733   1
   2   4   2 2.40507 2.21464   1
   2   4   2 3.36211 3.36634   2
   3  -4   2 4.07153 3.97618   3
   3  -4   2 5.62762 2.56389   1
   3  -4   2 8.44071 2.11766   1
   3   4   2 -3.0196 2.88810   2
   3   4   2 2.81652 4.89316   3
   4  -4   2 46.1595 3.85603   1
   4  -4   2 45.4459 7.67325   3
   4  -4   2 47.7733 3.54844   1
   4   4   2 40.3842 8.68018   3
   5  -4   2 115.422 5.24327   1
   5  -4   2 114.141 5.87478   1
   5  -4   2 120.649 12.7551   3
   5   4   2 94.5385 12.5995   3
   6  -4   2 27.2069 3.62741   1
   6  -4   2 28.2409 8.83400   3
   6  -4   2 27.1307 3.88778   1
   6   4   2 32.3951 10.0101   3
   7  -4   2 20.8912 4.33118   1
   7   4   2 13.1505 8.91886   3
   8  -4   2 2.47984 3.66072   1
   8   4   2 -11.593 7.35638   3
   9  -5  -2 7.86716 6.49204   1
   9   5  -2 13.1667 6.28750   1
   8  -5  -2 94.3771 11.2961   1
   8   5  -2 125.586 12.5487   1
   7  -5  -2 18.0151 6.29246   1
   7   5  -2 15.6739 5.75731   1
   6  -5  -2 -2.6543 4.78098   1
   6   5  -2 2.68393 4.88508   1
   6   5  -2 -2.2804 6.87488   3
   5  -5  -2 109.946 9.55476   1
   5   5  -2 143.793 15.0191   3
   5   5  -2 104.986 9.31575   1
   4  -5  -2 245.613 11.5294   1
   4   5  -2 258.223 14.5994   3
   4   5  -2 257.819 11.3673   1
  -4   5   2 275.890 12.9983   1
  -3  -5   2 23.4937 4.43379   1
   3  -5  -2 15.7958 4.49727   1
  -3   5   2 22.1797 4.25377   1
   3   5  -2 13.8064 4.09084   1
   3   5  -2 20.4217 5.14961   3
   2  -5  -2 128.706 7.85508   1
  -2  -5   2 144.735 8.14152   1
   2   5  -2 154.591 8.53212   3
  -2   5   2 151.843 8.27767   1
   2   5  -2 156.015 8.30493   1
   1  -5  -2 215.443 8.99593   1
  -1  -5   2 237.029 9.67552   1
  -1   5   2 224.473 9.30756   1
   1   5  -2 230.899 9.02544   1
   0  -5  -2 328.469 9.86136   1
   0  -5   2 334.244 10.9286   1
   0   5   2 315.464 10.2451   1
   0   5  -2 319.538 9.77622   1
   0   5   2 319.728 10.5155   1
   1  -5   2 1.48155 3.46775   1
   1  -5   2 1.36113 1.72243   3
   1   5   2 2.74411 5.75580   3
   1   5   2 0.80849 3.45408   2
   1   5   2 -2.2108 2.46979   1
   2  -5   2 46.8667 4.68422   1
   2  -5   2 43.2588 4.69503   3
   2  -5   2 38.2469 4.01857   1
   2   5   2 35.1004 5.19991   2
   2   5   2 40.8082 3.71639   1
   2   5   2 39.1777 6.84823   3
   2   5   2 39.5903 3.72929   1
   3  -5   2 46.0809 4.48417   1
   3  -5   2 53.7978 4.26951   1
   3  -5   2 51.1326 6.44887   3
   3   5   2 49.9296 3.58457   1
   3   5   2 53.0745 3.45727   1
   3   5   2 57.4421 5.94320   2
   3   5   2 65.2495 8.97256   3
   4  -5   2 -1.5010 2.93966   1
   4  -5   2 6.12830 4.78769   3
   4  -5   2 -3.1419 2.05128   1
   4   5   2 1.49077 5.73115   3
   4   5   2 7.95490 3.79766   2
   5  -5   2 237.949 15.2325   3
   5  -5   2 232.154 8.41749   1
   5  -5   2 219.276 7.69694   1
   5   5   2 234.433 17.0185   3
   6  -5   2 32.3042 4.55300   1
   6   5   2 44.1804 10.7158   3
   7  -5   2 19.2092 4.65341   1
   7   5   2 18.1727 9.43290   3
   8  -5   2 43.8276 6.07986   1
   8   5   2 43.5763 13.2204   3
   9  -6  -2 5.90088 6.54877   1
   9   6  -2 4.14388 5.76113   1
   8  -6  -2 287.516 16.7001   1
   8   6  -2 324.379 16.8989   1
   7  -6  -2 2.18848 4.96389   1
   7   6  -2 -0.7474 4.64055   1
   6  -6  -2 607.844 20.7821   1
   6   6  -2 590.454 19.7565   1
   6   6  -2 576.767 27.1226   3
   5  -6  -2 4.73238 4.70286   1
   5   6  -2 -3.1085 5.26602   3
   5   6  -2 -0.5137 3.85098   1
   4  -6  -2 255.126 12.1019   1
   4   6  -2 255.260 11.5404   1
   4   6  -2 259.536 14.9075   3
  -4   6   2 260.967 10.0939   1
  -3  -6   2 28.2018 5.01274   1
   3  -6  -2 19.5271 4.86197   1
   3   6  -2 27.6336 5.82565   3
  -3   6   2 22.5197 4.56550   1
   3   6  -2 24.3885 4.77331   1
   2  -6  -2 -2.6787 3.14291   1
  -2  -6   2 0.67765 3.86737   1
   2   6  -2 2.47132 3.12862   1
   2   6  -2 -0.5768 3.12101   3
  -2   6   2 -0.8236 3.10728   1
   1  -6  -2 357.928 11.5021   1
  -1  -6   2 362.697 11.8948   1
  -1   6   2 362.903 11.6130   1
   1   6  -2 324.252 11.0042   1
   1   6  -2 346.683 9.61023   3
   0  -6   2 29.1435 5.14560   1
   0  -6  -2 19.9276 3.98747   1
   0   6   2 24.5216 4.35062   1
   0   6  -2 19.7347 3.72982   1
   0   6   2 42.7581 8.00550   3
   1  -6   2 54.4156 5.49590   1
   1   6   2 50.3572 7.76141   3
   1   6   2 66.5706 5.53843   1
   1   6   2 60.5870 6.34951   2
   1   6   2 62.6466 5.47004   1
  -1   6  -2 52.2955 4.47531   1
   2  -6   2 6.10103 3.46857   1
   2  -6   2 7.38908 2.91172   3
   2   6   2 6.31773 2.70785   1
   2   6   2 2.48648 3.70691   2
   2   6   2 -5.7662 4.32153   3
   2   6   2 3.60456 2.52886   1
   3  -6   2 8.09502 2.64295   1
   3  -6   2 13.6454 3.71522   1
   3  -6   2 14.7972 4.33699   3
   3   6   2 16.6558 2.66234   1
   3   6   2 12.1940 4.17268   2
   3   6   2 18.0438 3.00339   1
   3   6   2 7.93258 5.34736   3
   4  -6   2 131.210 7.42276   1
   4  -6   2 118.378 6.21544   1
   4  -6   2 130.630 10.5775   3
   4   6   2 139.378 14.2498   3
   4   6   2 144.219 9.28627   2
   5  -6   2 309.198 10.6537   1
   5  -6   2 321.674 9.92214   1
   5  -6   2 323.951 16.9929   3
   5   6   2 301.356 19.7463   3
   6  -6   2 35.0408 5.25651   1
   6   6   2 38.4940 10.7790   3
   7  -6   2 4.72435 4.20830   1
   7   6   2 2.79574 8.38949   3
   8  -6   2 36.5367 6.10632   1
   8   6   2 36.0812 12.5113   3
   9  -7  -2 13.1069 7.09316   1
   9   7  -2 8.36616 6.26061   1
   8  -7  -2 18.8744 7.10001   1
   8   7  -2 7.76564 6.01604   1
   7  -7  -2 23.9111 7.04721   1
   7   7  -2 7.15323 8.17532   3
   7   7  -2 22.0307 6.83192   1
   6  -7  -2 1399.72 32.1950   1
   6   7  -2 1342.00 41.1335   3
   6   7  -2 1374.45 31.4390   1
   5  -7  -2 6.07775 5.39235   1
   5   7  -2 4.81065 4.29031   1
   5   7  -2 -0.1323 5.66012   3
   4  -7  -2 290.740 12.8837   1
  -4   7   2 268.274 10.5499   1
   4   7  -2 288.901 15.5183   3
   4   7  -2 290.614 12.3514   1
  -3  -7   2 1.56211 3.83582   1
   3  -7  -2 4.54153 4.07475   1
   3   7  -2 11.1147 4.06908   1
   3   7  -2 6.75858 4.45021   3
  -3   7   2 9.10983 3.82432   1
   2  -7  -2 53.8396 6.20737   1
  -2  -7   2 58.8428 6.23684   1
   2   7  -2 52.1648 5.87280   1
   2   7  -2 56.8383 6.28038   3
  -2   7   2 49.9496 5.84332   1
  -1  -7   2 1031.87 21.6234   1
   1  -7  -2 1025.28 20.7797   1
  -1   7   2 1007.50 20.9491   1
   1   7  -2 1003.75 20.6504   1
   1   7  -2 1027.27 18.3240   3
   0  -7   2 54.1116 6.29816   1
   0  -7  -2 49.5335 5.36793   1
   0   7   2 33.9336 4.85082   1
   0   7   2 42.4935 8.37034   3
   0   7  -2 52.9394 5.49964   1
   1  -7   2 2.76472 3.80276   1
   1   7   2 0.73521 2.89403   1
   1   7   2 -1.8087 5.28574   3
   1   7   2 -0.0810 3.84139   2
  -1   7  -2 2.38125 2.39522   1
   2  -7   2 17.2492 4.27869   1
   2   7   2 16.8858 3.59012   1
   2   7   2 15.5582 6.16122   3
   2   7   2 24.6928 5.11034   2
   2   7   2 18.1414 3.35085   1
   3  -7   2 12.6403 3.21736   1
   3  -7   2 10.4963 3.92631   1
   3   7   2 22.9854 6.86055   3
   3   7   2 16.7170 2.95846   1
   3   7   2 16.3873 4.79138   2
   3   7   2 10.5163 3.08800   1
   4  -7   2 5.48423 4.09221   1
   4  -7   2 6.02820 2.95648   1
   4   7   2 4.75385 2.36003   1
   4   7   2 2.64980 2.89130   1
   4   7   2 -3.8962 5.62707   3
   4   7   2 -1.0035 4.04361   2
   5  -7   2 0.33190 2.89828   1
   5  -7   2 -5.3097 3.83483   1
   5   7   2 2.62516 6.92241   3
   6  -7   2 161.761 9.26373   1
   6   7   2 181.403 19.7664   3
   7  -7   2 53.8749 6.54373   1
   7   7   2 57.2906 13.1659   3
   8  -7   2 2.47657 4.78711   1
   8   7   2 0.67252 8.86965   3
   9  -8  -2 0.09438 6.03187   1
   9   8  -2 -6.0855 5.32653   1
   8  -8  -2 105.626 11.9255   1
   8   8  -2 98.2999 11.7373   1
   7  -8  -2 10.1281 6.32878   1
   7   8  -2 14.5085 9.20982   3
   7   8  -2 15.1058 6.16495   1
   6  -8  -2 1677.66 36.4254   1
   6   8  -2 1565.46 44.9262   3
   6   8  -2 1656.81 35.4531   1
   5  -8  -2 33.1652 7.19878   1
   5   8  -2 45.9079 7.00344   1
   5   8  -2 40.7240 9.06155   3
   4  -8  -2 65.5308 7.98503   1
   4   8  -2 78.4368 9.95992   3
  -4   8   2 95.1806 7.54693   1
   4   8  -2 88.0681 8.51353   1
  -3  -8   2 -1.1637 3.74498   1
   3  -8  -2 -0.6448 3.76199   1
   3   8  -2 1.77953 3.94067   3
   3   8  -2 4.32311 3.44471   1
  -3   8   2 5.79326 3.41665   1
  -2  -8   2 80.7601 7.47912   1
   2  -8  -2 79.1033 7.38786   1
  -2   8   2 76.1757 7.03509   1
   2   8  -2 76.6246 7.18399   3
   2   8  -2 61.9402 6.30854   1
  -1  -8   2 374.071 12.9854   1
   1  -8  -2 369.205 12.2324   1
   1   8  -2 354.322 11.8478   1
  -1   8   2 372.444 12.3097   1
   1   8  -2 365.495 10.0576   3
   0  -8  -2 33.2476 4.96288   1
   0  -8   2 32.8079 5.52529   1
   0   8  -2 26.1020 4.08344   2
   0   8  -2 27.8370 4.45745   1
   0   8   2 30.1777 7.92968   3
   0   8   2 32.2949 4.83711   1
  -1  -8  -2 159.502 8.28953   1
   1  -8   2 151.951 8.63604   1
   1   8   2 162.508 9.45314   2
   1   8   2 142.183 7.37752   1
  -1   8  -2 152.366 5.89564   2
   1   8   2 163.574 12.1475   3
  -1   8  -2 137.730 6.74999   1
   2  -8   2 212.793 9.67967   1
   2   8   2 221.686 13.4216   3
   2   8   2 229.108 11.0744   2
  -2   8  -2 210.250 5.31475   2
   2   8   2 229.529 8.38843   1
   3  -8   2 10.1940 3.35508   1
   3  -8   2 15.7222 4.50099   1
   3   8   2 11.4895 3.01573   1
   3   8   2 8.77830 6.14214   3
   3   8   2 12.4648 4.94373   2
   3   8   2 4.70889 3.17713   1
   4  -8   2 0.19841 3.96592   1
   4  -8   2 0.66774 2.81410   1
   4   8   2 1.79690 2.64080   1
   4   8   2 -2.8810 4.21451   2
   4   8   2 2.02593 3.29005   1
   4   8   2 8.95156 6.85981   3
   5  -8   2 56.0243 5.94236   1
   5  -8   2 41.4862 6.34766   1
   5   8   2 62.9409 12.2550   3
   5   8   2 59.9600 4.84098   1
   5   8   2 54.6900 5.30199   1
   6  -8   2 3.99971 4.34741   1
   6   8   2 -0.7759 7.13877   3
   6   8   2 2.07493 2.68400   1
   7  -8   2 13.1850 5.44004   1
   7   8   2 -2.2144 8.48664   3
   7   8   2 10.4391 3.67804   1
   8  -8   2 10.5370 6.04210   1
   8   8   2 10.0695 3.84170   1
   8   8   2 7.03878 10.0121   3
   8  -9  -2 156.024 14.2708   1
   8   9  -2 168.694 14.6254   1
   8   9  -2 147.692 19.6720   3
   7  -9  -2 7.60849 6.17013   1
   7   9  -2 10.2087 8.11740   3
   7   9  -2 15.5915 5.99881   1
   6  -9  -2 138.596 12.3296   1
   6   9  -2 127.713 15.7121   3
   6   9  -2 155.583 11.8439   1
   5  -9  -2 382.920 16.4884   1
   5   9  -2 385.617 15.7795   1
   5   9  -2 367.663 20.3320   3
   4  -9  -2 22.3866 5.84018   1
  -4   9   2 18.7534 4.60425   1
   4   9  -2 16.1726 4.94784   1
   4   9  -2 12.0150 5.89431   3
  -3  -9   2 6.37930 4.08976   1
   3  -9  -2 0.44013 4.07241   1
   3   9  -2 -0.5774 3.16228   1
   3   9  -2 -5.3767 3.37027   3
  -3   9   2 2.60860 3.38826   1
   2  -9  -2 1128.25 24.2977   1
  -2  -9   2 1143.64 23.7940   1
   2   9  -2 1125.49 24.1392   3
  -2   9   2 1197.07 24.6398   1
   2   9  -2 1192.52 24.5327   1
   1  -9  -2 10.8459 4.03712   1
  -1  -9   2 4.88279 4.58471   1
   1   9  -2 14.6400 3.39660   3
   1   9  -2 4.36500 3.35244   1
  -1   9   2 16.1753 4.25247   1
   0  -9  -2 970.242 20.1374   1
   0  -9   2 984.946 21.6465   1
   0   9  -2 1000.35 20.4537   1
   0   9  -2 997.837 19.5105   2
   0   9   2 1008.56 26.5621   3
   0   9  -2 998.608 14.2574   3
   0   9   2 1021.83 21.0369   1
  -1  -9  -2 179.551 8.24839   1
   1  -9   2 181.943 9.62510   1
   1   9   2 183.693 10.3908   2
   1   9   2 190.993 13.2056   3
  -1   9  -2 199.602 7.11936   2
   1   9   2 194.523 8.74403   1
  -1   9  -2 187.885 8.03623   1
   2  -9   2 23.9336 5.20784   1
   2   9   2 30.6599 4.50182   1
   2   9   2 30.7760 7.43482   3
  -2   9  -2 29.6033 2.96754   2
   2   9   2 31.7631 6.04460   2
   3  -9   2 79.7877 7.46341   1
   3   9   2 79.8132 8.42655   2
   3   9   2 74.1763 10.7225   3
   3   9   2 77.5318 5.87668   1
   3   9   2 82.6663 6.27325   1
   4  -9   2 93.7637 8.12049   1
   4  -9   2 107.693 7.24571   1
   4   9   2 86.8603 9.60992   2
   4   9   2 97.1297 6.13238   1
   4   9   2 100.889 7.09779   1
   4   9   2 89.9641 12.4755   3
   5  -9   2 63.4588 7.29619   1
   5   9   2 68.2868 5.69537   1
   5   9   2 65.5482 8.84239   2
   5   9   2 36.7870 10.5242   3
   5   9   2 70.4711 6.24521   1
   6  -9   2 3.89594 4.74500   1
   6   9   2 -1.4805 2.80644   1
   6   9   2 6.65243 7.53959   3
   7  -9   2 43.2639 7.28402   1
   7   9   2 55.8755 5.96519   1
   7   9   2 59.1290 14.2593   3
   8  -9   2 48.2673 8.15184   1
   8   9   2 46.4445 13.8033   3
   8   9   2 48.8948 6.11525   1
   8 -10  -2 -1.2004 6.02212   1
   8  10  -2 -0.4685 8.41061   3
   8  10  -2 11.7235 6.05626   1
   7 -10  -2 9.26307 6.38733   1
   7  10  -2 -1.8781 4.63686   1
   7  10  -2 -0.5487 7.29694   3
   6 -10  -2 37.2737 7.86676   1
   6  10  -2 11.0476 5.63744   1
   6  10  -2 10.6802 7.88031   3
   5 -10  -2 11.6707 5.95264   1
   5  10  -2 10.9378 7.07375   3
   5  10  -2 7.30143 5.05287   1
  -4 -10   2 200.657 12.9664   1
   4 -10  -2 214.361 12.3818   1
   4  10  -2 210.553 13.8706   3
   4  10  -2 224.937 11.6976   1
  -4  10   2 213.266 10.6216   1
  -3 -10   2 93.9870 8.25583   1
   3 -10  -2 88.5668 8.65328   1
   3  10  -2 91.9363 9.42767   3
   3  10  -2 83.9183 8.01555   1
  -3  10   2 95.3290 8.21662   1
   2 -10  -2 2775.94 44.5710   1
  -2 -10   2 2717.23 43.6917   1
  -2  10   2 2730.34 44.1147   1
   2  10  -2 2758.51 44.3628   3
   2  10  -2 2767.17 44.3874   1
   1 -10  -2 33.1024 5.82101   1
  -1 -10   2 33.8092 5.88249   1
   1  10  -2 35.3280 5.31111   1
   1  10  -2 39.3279 4.56381   3
  -1  10   2 38.9061 5.74374   1
   1  10  -2 23.3509 4.82827   2
   0 -10  -2 14.9871 4.50175   1
   0 -10   2 27.3410 5.75967   1
   0  10   2 16.1164 5.57816   2
   0  10  -2 17.6868 3.98285   1
   0  10  -2 18.9995 2.40886   3
   0  10   2 28.2963 5.08893   1
   0  10   2 18.7319 7.93611   3
   0  10  -2 12.7137 3.77719   2
   1 -10   2 -4.8053 3.79383   1
  -1 -10  -2 4.27898 3.61116   1
   1  10   2 4.90951 3.35497   1
  -1  10  -2 1.17771 2.62597   2
   1  10   2 3.89540 4.45846   2
   1  10   2 -1.4695 6.06546   3
  -1  10  -2 1.80546 2.67377   1
   2 -10   2 0.97317 4.33109   1
  -2  10  -2 0.78688 2.20579   2
   2  10   2 0.03838 4.36053   2
   2  10   2 2.29386 5.89639   3
   2  10   2 1.71135 3.02009   1
   3 -10   2 90.1602 8.05875   1
   3  10   2 100.346 12.2063   3
   3  10   2 99.7903 6.72698   1
   3  10   2 74.7233 8.62730   2
  -3  10  -2 89.6527 4.20939   2
   3  10   2 100.181 7.26086   1
   4 -10   2 288.929 11.4305   1
   4 -10   2 313.824 12.8741   1
   4  10   2 275.653 14.3387   2
   4  10   2 290.286 10.7579   1
   4  10   2 294.727 10.1580   1
   4  10   2 290.705 18.6572   3
   5 -10   2 229.376 11.9354   1
   5  10   2 213.496 9.03683   1
   5  10   2 221.303 9.92364   1
   5  10   2 225.757 20.4421   3
   5  10   2 213.596 13.4566   2
   6 -10   2 81.8841 8.69697   1
   6  10   2 81.4816 6.85617   1
   6  10   2 78.5412 14.5587   3
   7 -10   2 54.4565 7.91040   1
   7  10   2 55.0227 6.37598   1
   7  10   2 80.0466 15.7410   3
   8 -10   2 6.41156 6.36858   1
   8  10   2 5.30447 4.14799   1
   8  10   2 -0.3018 9.59087   3
   8 -11  -2 9.46574 6.68991   1
   8  11  -2 -4.8213 7.85681   3
   8  11  -2 -5.0380 5.31650   1
   7 -11  -2 6.54010 6.34110   1
   7  11  -2 -1.4343 4.69324   1
   7  11  -2 2.60135 8.23999   3
   6 -11  -2 -1.7555 5.56803   1
   6  11  -2 3.60917 5.12096   1
   6  11  -2 1.81720 6.93936   3
   5 -11  -2 60.2344 8.99440   1
   5  11  -2 57.7470 10.6162   3
   5  11  -2 52.9125 7.89126   1
  -4 -11   2 -5.4855 3.92710   1
   4 -11  -2 12.7686 5.66369   1
   4  11  -2 10.6647 4.75597   1
  -4  11   2 6.93192 4.18810   1
   4  11  -2 -7.7074 4.41225   3
   3 -11  -2 59.1046 7.44381   1
  -3 -11   2 57.5061 7.10199   1
   3  11  -2 56.4666 8.05814   3
  -3  11   2 61.8837 7.02330   1
   3  11  -2 69.3116 7.70982   1
   2 -11  -2 939.701 22.8011   1
  -2 -11   2 962.292 22.4845   1
   2  11  -2 948.658 22.3872   3
  -2  11   2 921.465 22.2360   1
   2  11  -2 944.154 22.7106   1
  -1 -11   2 458.171 15.5141   1
   1 -11  -2 445.105 14.7847   1
   1  11  -2 421.684 11.9584   3
   1  11  -2 416.972 14.1440   1
   1  11  -2 458.135 14.6475   2
  -1  11   2 456.446 14.8936   1
   0 -11   2 1314.05 27.1973   1
   0 -11  -2 1317.16 25.7078   1
   0  11  -2 1352.59 26.1013   1
   0  11   2 1322.68 26.4656   1
   0  11   2 1347.05 32.5778   3
   0  11  -2 1337.56 19.7728   3
   0  11   2 1320.80 28.4875   2
   0  11  -2 1342.40 25.2427   2
   1 -11   2 91.9096 8.34768   1
  -1 -11  -2 91.2376 7.11265   1
  -1  11  -2 98.9000 6.75783   1
   1  11   2 92.3171 7.58214   1
   1  11   2 102.781 11.4393   3
   1  11   2 107.199 9.54723   2
  -1  11  -2 83.8881 5.95835   2
   2 -11   2 15.4209 5.39434   1
   2  11   2 23.9374 6.29261   2
   2  11   2 10.2562 3.98556   1
  -2  11  -2 16.9164 3.35045   2
   2  11   2 16.3383 7.34111   3
   3 -11   2 -2.0567 4.85001   1
  -3  11  -2 -1.6514 2.16994   2
   3  11   2 2.49861 3.31236   1
   3  11   2 2.05563 6.17822   3
   3  11   2 0.16247 3.54077   1
   3  11   2 5.49981 4.57915   2
   4 -11   2 80.0775 8.42620   1
   4  11   2 103.660 10.5626   2
   4  11   2 99.2431 7.59892   1
   4  11   2 101.058 7.91102   1
   4  11   2 121.642 14.8995   3
   5 -11   2 246.004 12.7071   1
   5  11   2 231.704 18.9072   3
   5  11   2 238.457 14.2034   2
   5  11   2 236.604 9.88805   1
   6 -11   2 19.2689 6.21843   1
   6  11   2 23.7729 10.1814   3
   6  11   2 32.8570 5.34309   1
   7 -11   2 33.2825 7.38422   1
   7  11   2 30.6620 5.43580   1
   7  11   2 37.2829 11.7294   3
   8 -11   2 2.44185 6.36176   1
   8  11   2 10.1380 4.55508   1
   8  11   2 20.7161 11.1500   3
   8 -12  -2 -1.1063 6.27844   1
   8  12  -2 4.55807 8.52242   3
   8  12  -2 18.9069 7.21033   1
   7 -12  -2 -5.4812 5.66812   1
   7  12  -2 11.4570 6.15009   1
   7  12  -2 1.67017 7.94540   3
   6 -12  -2 50.8102 9.09524   1
   6  12  -2 62.4702 12.3403   3
   6  12  -2 68.2506 9.32287   1
   5 -12  -2 248.277 15.0603   1
   5  12  -2 268.851 17.8327   3
   5  12  -2 263.392 14.0041   1
  -4 -12   2 13.6856 5.00843   1
   4 -12  -2 14.9502 6.31602   1
  -4  12   2 16.4221 4.97059   1
   4  12  -2 17.1300 5.62834   1
   4  12  -2 20.4028 7.22524   3
  -3 -12   2 28.6262 6.04819   1
   3 -12  -2 19.3100 5.79118   1
  -3  12   2 29.8008 5.63597   1
   3  12  -2 38.4019 7.03119   3
   3  12  -2 27.4280 5.67849   1
   2 -12  -2 299.171 13.3574   1
  -2 -12   2 274.490 12.8304   1
   2  12  -2 296.004 12.3561   3
   2  12  -2 290.264 13.7618   2
  -2  12   2 288.861 12.5176   1
   2  12  -2 288.254 12.5872   1
  -1 -12   2 1350.87 28.3041   1
   1 -12  -2 1338.20 27.7159   1
  -1  12   2 1392.68 28.3488   1
   1  12  -2 1338.16 27.8286   2
   1  12  -2 1350.82 24.4182   3
   1  12  -2 1333.48 27.7629   1
   0 -12  -2 249.719 11.0924   1
   0 -12   2 254.840 12.3166   1
   0  12  -2 259.722 7.48202   3
   0  12   2 239.865 11.2139   1
   0  12   2 256.279 16.6543   3
   0  12  -2 256.496 10.6736   2
   0  12   2 270.489 13.3670   2
   0  12  -2 258.786 10.9227   1
  -1 -12  -2 0.78894 3.89414   1
   1 -12   2 -0.9004 4.67194   1
  -1  12  -2 -0.6561 2.76133   2
  -1  12  -2 1.07223 2.79051   3
   1  12   2 2.08874 3.56284   1
   1  12   2 -2.1990 4.36614   2
  -1  12  -2 5.16550 3.10206   1
   1  12   2 -8.4066 6.74962   3
   2 -12   2 402.225 15.0343   1
  -2  12  -2 407.526 10.7815   2
   2  12   2 418.316 19.2871   3
  -2  12  -2 397.882 11.8110   1
   2  12   2 401.241 16.1877   2
   2  12   2 412.463 13.5004   1
   3 -12   2 95.4794 9.21890   1
   3  12   2 97.9495 12.4693   3
   3  12   2 113.348 8.00415   1
  -3  12  -2 95.5945 5.62563   2
   3  12   2 99.9817 10.4568   2
   4 -12   2 40.9523 7.42128   1
   4  12   2 42.3172 5.77199   1
   4  12   2 32.2660 9.71945   3
   4  12   2 28.1188 7.39093   2
  -4  12  -2 45.0539 4.30461   2
   4  12   2 27.4743 5.67804   1
   5 -12   2 764.226 21.8002   1
   5  12   2 779.493 18.9481   1
   5  12   2 760.317 24.9465   2
   5  12   2 807.292 32.3216   3
   6 -12   2 119.083 10.6984   1
   6  12   2 120.191 8.43810   1
   6  12   2 128.127 17.8476   3
   7 -12   2 46.7681 8.53370   1
   7  12   2 45.0703 13.4282   3
   7  12   2 35.5137 6.10739   1
   8 -12   2 82.2696 10.9355   1
   8  12   2 91.7729 9.01910   1
   8  12   2 100.390 18.2849   3
   8 -13  -2 -0.6472 6.44410   1
   8  13  -2 5.22211 6.11207   1
   8  13  -2 1.98681 8.24332   3
   7 -13  -2 5.25038 6.32786   1
   7  13  -2 9.58226 9.54234   3
   7  13  -2 4.94567 5.94078   1
   6 -13  -2 16.1291 6.98335   1
   6  13  -2 5.72543 5.50107   1
   6  13  -2 4.29523 7.32283   3
   5 -13  -2 123.422 12.2029   1
   5  13  -2 119.200 14.5172   3
   5  13  -2 122.696 11.5852   1
  -4 -13   2 186.449 10.7421   1
   4 -13  -2 191.128 13.1840   1
   4  13  -2 173.439 11.8321   1
  -4  13   2 183.917 10.7049   1
   4  13  -2 171.744 14.0209   3
   3 -13  -2 44.0426 7.43180   1
  -3 -13   2 47.8367 7.39069   1
  -3  13   2 53.0713 6.98420   1
   3  13  -2 53.7896 7.35100   1
   3  13  -2 55.1803 8.56591   3
   2 -13  -2 164.993 11.3477   1
  -2 -13   2 179.777 11.2994   1
   2  13  -2 161.123 10.0207   1
   2  13  -2 177.240 10.2653   3
   2  13  -2 189.821 11.7048   2
  -2  13   2 190.018 10.8969   1
  -1 -13   2 378.390 15.2264   1
   1 -13  -2 440.040 15.3501   1
   1  13  -2 410.051 14.6528   1
  -1  13   2 448.863 15.5960   1
   1  13  -2 416.990 15.3130   2
   1  13  -2 420.890 12.6058   3
   0 -13   2 -6.5103 4.69064   1
   0 -13  -2 4.28611 4.39977   1
   0  13  -2 0.37867 3.48826   2
   0  13   2 3.90972 3.87613   1
   0  13  -2 2.23289 3.21815   1
   0  13  -2 0.18009 2.44911   3
   0  13   2 -2.2806 4.74735   2
   0  13   2 6.47131 8.24169   3
   1 -13   2 34.6102 6.75764   1
  -1 -13  -2 22.7063 5.40439   1
  -1  13  -2 36.3730 4.21284   3
   1  13   2 29.0565 9.14891   3
  -1  13  -2 30.0451 4.98093   1
   1  13   2 30.3476 6.81578   2
  -1  13  -2 27.2506 4.66184   2
   1  13   2 28.1757 5.29525   1
   2 -13   2 30.9282 6.76514   1
  -2  13  -2 42.1171 5.26348   1
  -2  13  -2 36.7227 4.62275   2
   2  13   2 36.2295 9.22387   3
   2  13   2 67.1053 8.88076   2
   2  13   2 41.0411 5.91958   1
   3 -13   2 356.777 15.3692   1
   3  13   2 383.094 16.9519   2
  -3  13  -2 347.390 10.1865   2
   3  13   2 374.239 20.1198   3
   3  13   2 356.272 13.2066   1
   4 -13   2 136.002 11.4881   1
   4  13   2 150.184 10.2446   1
   4  13   2 133.302 15.2259   3
   4  13   2 134.693 8.85592   1
   4  13   2 145.531 13.3305   2
  -4  13  -2 135.065 6.49626   2
   5 -13   2 63.5911 8.96345   1
   5  13   2 64.1849 12.8448   3
   5  13   2 69.4822 10.4564   2
   5  13   2 69.0501 7.45523   1
   6 -13   2 60.1646 9.11471   1
   6  13   2 86.8551 15.4682   3
   6  13   2 63.2401 7.23490   1
   7 -13   2 3.47319 6.15358   1
   7  13   2 -3.9402 8.01718   3
   7  13   2 -0.0678 3.82136   1
   8 -14  -2 -2.3609 6.51647   1
   8  14  -2 5.46399 6.23493   1
   8  14  -2 -3.9927 8.16046   3
   7 -14  -2 30.2721 8.39823   1
   7  14  -2 25.4881 7.80644   1
   7  14  -2 28.9520 10.7428   3
   6 -14  -2 18.4699 7.28572   1
   6  14  -2 8.39399 7.33492   3
   6  14  -2 21.1651 6.92961   1
   5 -14  -2 26.3316 7.99081   1
   5  14  -2 22.3410 8.92422   3
   5  14  -2 13.3667 6.33842   1
   4 -14  -2 300.711 15.9032   1
  -4 -14   2 317.819 13.7252   1
  -4  14   2 320.605 13.8504   1
   4  14  -2 274.910 16.7422   3
   4  14  -2 298.174 14.9109   1
  -3 -14   2 22.2720 6.24100   1
   3 -14  -2 19.0715 6.58279   1
   3  14  -2 18.5392 5.46304   1
  -3  14   2 19.2389 5.69030   1
   3  14  -2 26.1429 6.49551   3
   2 -14  -2 17.5358 5.90470   1
  -2 -14   2 12.6885 5.93521   1
   2  14  -2 12.1225 4.61419   1
   2  14  -2 14.9868 4.95493   3
   2  14  -2 12.4193 5.34170   2
  -2  14   2 14.0151 4.95400   1
  -1 -14   2 610.661 19.4312   1
   1 -14  -2 634.148 18.9335   1
   1  14  -2 621.920 16.0574   3
  -1  14   2 621.310 18.9092   1
   1  14  -2 624.480 18.6105   1
   1  14  -2 640.507 19.3820   2
   0 -14  -2 215.813 11.6540   1
   0 -14   2 246.955 12.8776   1
   0  14  -2 246.937 11.2912   2
   0  14   2 247.150 13.6969   2
   0  14  -2 252.659 8.46293   3
   0  14   2 248.659 17.4004   3
   0  14  -2 229.139 11.0934   1
   0  14   2 246.491 12.1761   1
  -1 -14  -2 68.4742 7.49439   1
   1 -14   2 71.2640 8.76564   1
  -1  14  -2 87.9700 5.93332   3
  -1  14  -2 71.7344 7.17187   1
   1  14   2 64.6556 7.29080   1
   1  14   2 61.3751 10.7044   3
   1  14   2 68.2997 9.03376   2
  -1  14  -2 72.8476 6.90778   2
   2 -14   2 977.216 25.0268   1
   2  14   2 987.996 30.6545   3
  -2  14  -2 980.877 21.2323   1
   2  14   2 988.259 23.3558   1
  -2  14  -2 978.257 19.8299   2
   2  14   2 989.171 26.9499   2
   3 -14   2 6.95416 6.21939   1
  -3  14  -2 4.12813 3.49843   2
   3  14   2 -2.2127 7.16365   3
   3  14   2 -3.3749 5.27189   2
   3  14   2 0.14802 3.99373   1
   4 -14   2 28.5356 7.94044   1
   4  14   2 29.1757 5.90746   1
   4  14   2 33.4126 10.8091   3
   4  14   2 17.6165 7.09506   2
  -4  14  -2 30.7829 4.46802   2
   5 -14   2 11.0234 6.35876   1
   5  14   2 4.85272 4.17895   1
   5  14   2 5.73815 7.91214   3
   5  14   2 8.13491 6.16160   2
   6 -14   2 48.5008 8.80253   1
   6  14   2 39.0621 6.53325   1
   6  14   2 41.3234 12.1874   3
   7 -14   2 16.3734 7.59119   1
   7  14   2 43.8177 13.9547   3
   7  14   2 35.2381 6.74244   1
   8 -15  -2 19.5687 8.63535   1
   8  15  -2 12.5600 7.09440   1
   8  15  -2 7.98349 9.58860   3
   7 -15  -2 2.06656 6.47413   1
   7  15  -2 5.48442 8.00555   3
   7  15  -2 5.44257 5.84341   1
   6 -15  -2 -2.2621 5.84272   1
   6  15  -2 13.3824 6.16611   1
   6  15  -2 8.96815 7.83109   3
   5 -15  -2 221.651 15.5345   1
   5  15  -2 226.371 17.5713   3
   5  15  -2 238.072 14.6239   1
   4 -15  -2 331.074 16.8120   1
  -4 -15   2 322.426 14.2621   1
   4  15  -2 319.635 15.7420   1
  -4  15   2 308.408 14.1022   1
   4  15  -2 339.107 18.8228   3
  -3 -15   2 20.5294 6.40149   1
   3 -15  -2 21.6780 6.96112   1
   3  15  -2 29.5622 6.96784   3
   3  15  -2 19.9779 5.88913   1
  -3  15   2 21.2399 5.85221   1
  -2 -15   2 2.14100 5.50104   1
   2 -15  -2 14.6087 6.02058   1
   2  15  -2 9.35297 4.64771   3
   2  15  -2 7.92052 5.07091   2
   2  15  -2 5.29193 4.46237   1
  -2  15   2 7.37997 4.59783   1
   1 -15  -2 349.784 14.9180   1
  -1 -15   2 334.080 15.1682   1
   1  15  -2 334.455 14.1419   1
  -1  15   2 357.460 14.5295   1
   1  15  -2 356.426 12.2991   3
   1  15  -2 356.187 14.7728   2
   0 -15   2 383.923 16.0132   1
   0 -15  -2 379.391 14.6066   1
   0  15   2 359.769 14.6140   1
   0  15  -2 374.069 14.1679   1
   0  15  -2 368.481 10.7987   3
   0  15  -2 367.500 13.8847   2
   0  15   2 394.190 17.0830   2
   0  15   2 361.053 20.6764   3
  -1 -15  -2 258.273 12.2779   1
   1 -15   2 265.905 13.6940   1
   1  15   2 277.413 12.6380   1
   1  15   2 280.847 15.4245   2
   1  15   2 294.650 18.2074   3
  -1  15  -2 258.520 11.5345   1
  -1  15  -2 266.860 9.07957   3
  -1  15  -2 258.986 11.0808   2
   2 -15   2 45.2174 8.13168   1
   2  15   2 74.3403 9.99731   2
   2  15   2 29.7603 5.87769   1
   2  15   2 52.7320 10.8518   3
  -2  15  -2 69.0072 6.78021   2
  -2  15  -2 67.5424 7.06601   1
   3 -15   2 281.576 15.1137   1
   3  15   2 289.040 19.0941   3
   3  15   2 266.180 12.4828   1
   3  15   2 251.720 15.3002   2
  -3  15  -2 262.729 10.0818   2
   4 -15   2 46.1351 9.16496   1
   4  15   2 41.7341 10.7981   3
   4  15   2 43.4357 6.71992   1
   4  15   2 37.2053 8.74753   2
  -4  15  -2 42.3308 5.32911   2
   5 -15   2 40.5855 8.43192   1
   5  15   2 44.0404 7.00040   1
   5  15   2 36.6741 10.6841   3
   5  15   2 46.4031 9.63159   2
   6 -15   2 49.6748 9.33119   1
   6  15   2 70.4075 14.7968   3
   6  15   2 51.1468 7.56192   1
   7 -15   2 -4.7035 6.39765   1
   7  15   2 3.37136 4.88456   1
   7  15   2 -0.4168 8.94476   3
   8 -16  -2 14.0460 8.38246   1
   8  16  -2 19.1215 7.87551   1
   8  16  -2 15.3912 10.5006   3
   7 -16  -2 12.4984 7.76425   1
   7  16  -2 3.16353 8.50292   3
   7  16  -2 12.9390 6.75974   1
   6 -16  -2 59.2452 10.4865   1
   6  16  -2 71.5439 10.2555   1
   6  16  -2 60.2383 12.7828   3
   5 -16  -2 57.2133 10.1406   1
   5  16  -2 56.0255 9.41078   1
   5  16  -2 37.1461 10.2724   3
   4 -16  -2 1.65050 6.41493   1
  -4 -16   2 0.94836 5.48741   1
   4  16  -2 -5.7760 5.54838   3
  -4  16   2 1.08345 4.56612   1
   4  16  -2 4.10967 5.09944   1
  -3 -16   2 0.12698 5.77427   1
   3 -16  -2 1.84288 6.20901   1
   3  16  -2 18.3352 7.14185   2
   3  16  -2 6.94708 4.88917   1
  -3  16   2 13.8648 5.49119   1
   3  16  -2 5.82733 5.52051   3
  -2 -16   2 324.075 15.3049   1
   2 -16  -2 311.432 15.6967   1
   2  16  -2 322.411 13.9828   3
   2  16  -2 314.962 14.7010   1
   2  16  -2 332.345 15.8318   2
  -2  16   2 321.510 14.5336   1
  -1 -16   2 193.731 12.9692   1
   1 -16  -2 196.927 12.7805   1
   1  16  -2 201.855 11.8607   1
   1  16  -2 206.330 10.1232   3
   1  16  -2 205.109 12.0209   2
  -1  16   2 228.829 14.4624   2
  -1  16   2 198.273 11.5598   1
   0 -16  -2 34.1135 6.75522   1
   0 -16   2 24.1355 7.01095   1
   0  16  -2 24.3164 5.62602   2
   0  16  -2 34.3247 6.25820   1
   0  16   2 23.9925 10.0149   3
   0  16   2 30.7077 5.97070   1
   0  16  -2 26.1348 4.42129   3
   0  16   2 14.9530 6.84877   2
  -1 -16  -2 171.667 11.0604   1
   1 -16   2 183.640 12.8580   1
  -1  16  -2 181.762 8.32754   3
   1  16   2 171.619 16.1173   3
   1  16   2 158.329 13.0190   2
  -1  16  -2 186.887 10.6254   1
   1  16   2 191.919 11.1568   1
  -1  16  -2 186.488 10.2924   2
   2 -16   2 130.069 11.7252   1
   2  16   2 115.210 9.72853   1
   2  16   2 119.253 14.4518   3
  -2  16  -2 121.521 8.15368   1
  -2  16  -2 114.088 8.18736   2
   2  16   2 135.691 12.9321   2
   3 -16   2 7.08015 6.62856   1
   3  16   2 2.09729 8.25169   3
  -3  16  -2 5.09798 4.05841   2
   3  16   2 5.87480 6.64913   2
   3  16   2 2.74647 4.23067   1
   4 -16   2 177.604 14.5767   1
  -4  16  -2 187.688 9.07523   2
   4  16   2 203.510 12.0312   1
   4  16   2 196.796 15.0577   2
   4  16   2 188.959 18.8130   3
   5 -16   2 313.859 17.3271   1
   5  16   2 313.876 22.6483   3
   5  16   2 313.339 18.5552   2
   5  16   2 340.039 14.9733   1
   6 -16   2 287.486 17.2023   1
   6  16   2 297.210 19.2617   2
   6  16   2 279.911 23.1786   3
   6  16   2 275.057 13.9310   1
   7 -16   2 8.60198 7.99109   1
   7  16   2 7.52724 5.55797   1
   7  16   2 -5.0933 7.62253   3
   8 -17  -2 3.72275 7.79677   1
   8  17  -2 15.3327 10.5974   3
   8  17  -2 -1.1677 6.21977   1
   7 -17  -2 7.09689 7.47439   1
   7  17  -2 17.5184 9.77381   3
   7  17  -2 25.8470 8.27484   1
   6 -17  -2 2.83216 7.19091   1
   6  17  -2 10.2347 6.21446   1
   6  17  -2 16.2147 8.75524   3
   5 -17  -2 158.600 15.1000   1
   5  17  -2 175.355 17.9945   3
   5  17  -2 132.832 12.9519   1
   4 -17  -2 78.1925 11.2138   1
  -4  17   2 54.1543 7.92759   1
   4  17  -2 81.5192 12.0784   3
   4  17  -2 64.5062 9.00789   1
  -3 -17   2 100.455 10.5688   1
   3 -17  -2 120.735 11.9948   1
   3  17  -2 128.589 12.9887   2
  -3  17   2 128.063 11.4323   1
   3  17  -2 123.148 12.5201   3
   3  17  -2 107.136 10.9972   1
   2 -17  -2 347.406 16.3634   1
  -2 -17   2 294.266 15.8200   1
   2  17  -2 353.132 16.7678   2
   2  17  -2 341.591 15.6903   1
  -2  17   2 313.622 15.2559   1
   2  17  -2 321.439 14.5835   3
   1 -17  -2 41.0913 7.69882   1
  -1 -17   2 23.5170 7.31313   1
   1  17  -2 31.1088 5.92754   3
  -1  17   2 18.5243 5.67045   1
   1  17  -2 30.4151 6.69807   1
   1  17  -2 24.7542 6.22595   2
  -1  17   2 33.8961 8.13966   2
  -1  17   2 44.7523 11.3962   3
   0 -17  -2 53.6297 8.19017   1
   0 -17   2 63.6359 9.44631   1
   0  17  -2 48.1349 7.06351   2
   0  17  -2 56.0727 7.59669   1
   0  17   2 52.5062 11.5403   3
   0  17  -2 65.7117 6.34248   3
   0  17   2 48.4635 7.24662   1
   0  17   2 51.0458 9.11570   2
   1 -17   2 21.9890 7.19946   1
  -1 -17  -2 27.9622 6.64201   1
   1  17   2 27.5025 7.96354   2
  -1  17  -2 37.2711 5.43763   3
   1  17   2 19.2580 5.76755   1
   1  17   2 12.2441 9.16853   3
  -1  17  -2 25.8197 5.77306   2
  -1  17  -2 24.9166 5.57211   1
   2 -17   2 58.2661 9.63043   1
  -2 -17  -2 71.9742 8.15410   1
   2  17   2 61.2505 7.76501   1
  -2  17  -2 71.1258 7.52856   1
   2  17   2 79.6874 12.8391   3
  -2  17  -2 82.9667 8.04891   2
   2  17   2 60.8347 10.3247   2
   3 -17   2 4.31078 7.16534   1
  -3  17  -2 1.51692 4.01787   2
   3  17   2 6.23998 6.68151   2
   3  17   2 4.87059 8.18574   3
   3  17   2 0.78299 4.45744   1
   4 -17   2 109.846 12.2240   1
   4  17   2 107.373 12.8627   2
  -4  17  -2 97.5644 8.14185   2
   4  17   2 93.4057 14.4252   3
   4  17   2 117.783 11.1685   1
   5 -17   2 167.901 14.4532   1
   5  17   2 182.649 16.7310   2
   5  17   2 176.129 11.9413   1
   5  17   2 175.521 19.8744   3
   6 -17   2 44.2092 10.0550   1
   6  17   2 52.6025 8.19554   1
   6  17   2 30.3640 10.9356   3
   6  17   2 56.4775 11.3780   2
   7 -17   2 101.210 13.2806   1
   7  17   2 67.1311 15.9976   3
   7  17   2 71.6670 9.64060   1
   8 -18  -2 144.001 16.1509   1
   8  18  -2 136.044 15.7871   1
   8  18  -2 106.839 18.2745   3
   7 -18  -2 20.9107 9.33943   1
   7  18  -2 29.6398 11.4667   3
   7  18  -2 20.6075 7.48511   1
   6 -18  -2 99.7605 13.2037   1
   6  18  -2 94.2558 15.0226   3
   6  18  -2 91.2300 11.8757   1
   5 -18  -2 499.837 22.1713   1
   5  18  -2 542.983 22.1159   1
   5  18  -2 509.917 25.7783   3
   4 -18  -2 1.88635 7.14992   1
   4  18  -2 8.47299 6.72674   3
  -4  18   2 16.8868 6.07882   1
   4  18  -2 3.22436 5.12560   1
   3 -18  -2 42.7058 9.17795   1
  -3 -18   2 43.8608 8.35012   1
   3  18  -2 39.1481 8.63538   2
   3  18  -2 30.8019 7.33127   1
  -3  18   2 45.4433 7.85981   1
   3  18  -2 35.4903 8.06158   3
  -2 -18   2 1.52787 6.86687   1
   2 -18  -2 -1.9739 5.62987   1
   2  18  -2 -3.2257 4.00218   3
   2  18  -2 2.12757 4.93475   1
  -2  18   2 2.20649 4.94121   1
   2  18  -2 -3.5029 4.90571   2
   1 -18  -2 14.5813 6.25488   1
  -1 -18   2 18.9122 7.44438   1
  -1  18   2 12.9551 10.7746   3
  -1  18   2 9.04965 7.26354   2
   1  18  -2 21.8135 6.26640   1
   1  18  -2 16.2064 6.32682   2
   1  18  -2 18.4013 5.07484   3
  -1  18   2 17.2023 6.19722   1
   0 -18  -2 -0.4432 5.54801   1
   0 -18   2 0.95537 6.45667   1
   0  18   2 4.85807 9.18110   3
   0  18  -2 -0.8460 3.38850   3
   0  18  -2 -1.3941 4.18019   2
   0  18  -2 1.25351 4.30492   1
   0  18   2 3.27923 6.22280   2
   0  18   2 -1.9774 4.05592   1
   1 -18   2 18.0478 7.43253   1
  -1 -18  -2 11.2324 6.52213   1
   1  18   2 15.8750 9.50647   3
   1  18   2 24.8401 8.29415   2
  -1  18  -2 20.0601 5.52286   1
   1  18   2 23.9244 5.97311   1
  -1  18  -2 11.2495 5.26639   2
  -1  18  -2 14.6237 4.82732   3
  -2 -18  -2 2.54698 5.29450   1
   2 -18   2 -6.1383 6.77348   1
   2  18   2 0.28791 4.28442   1
  -2  18  -2 -1.0953 3.64523   1
  -2  18  -2 -0.9608 4.10766   2
   2  18   2 -1.3964 8.10344   3
   2  18   2 4.41330 6.91473   2
  -2  18  -2 12.6643 6.74673   3
   3 -18   2 98.6037 11.8274   1
  -3  18  -2 79.3605 8.11155   2
   3  18   2 68.7583 11.2948   2
   3  18   2 77.7135 13.8802   3
   3  18   2 85.4264 9.75149   1
   4 -18   2 84.8351 11.6419   1
   4  18   2 106.063 10.7279   1
  -4  18  -2 96.6552 8.29338   2
   4  18   2 100.989 15.0977   3
   4  18   2 108.677 13.0365   2
   5 -18   2 84.7415 11.7640   1
   5  18   2 78.5088 9.33999   1
   5  18   2 37.3122 9.75890   2
   5  18   2 89.0746 15.3625   3
   6 -18   2 131.066 14.2687   1
   6  18   2 145.983 16.1660   2
   6  18   2 134.382 11.9467   1
   6  18   2 137.018 19.5327   3
   7 -18   2 48.7708 10.7286   1
   7  18   2 63.1385 15.8304   3
   7  18   2 48.8616 8.48825   1
   8 -19  -2 75.9675 13.0814   1
   8  19  -2 95.7908 13.6423   1
   8  19  -2 64.6455 15.9435   3
   7 -19  -2 -4.4470 6.81770   1
   7  19  -2 -16.584 5.69877   3
   7  19  -2 -0.5418 6.14545   1
   6 -19  -2 245.808 17.8518   1
   6  19  -2 223.446 21.4630   3
   6  19  -2 232.481 16.2274   1
   5 -19  -2 265.479 17.8259   1
   5  19  -2 277.849 16.7918   1
   5  19  -2 288.280 19.9061   3
   4 -19  -2 96.9093 12.5987   1
   4  19  -2 84.1130 10.9944   1
  -4  19   2 94.5340 10.4978   1
   4  19  -2 92.2123 12.6098   3
  -3 -19   2 4.89969 6.87350   1
   3 -19  -2 3.13357 6.85297   1
   3  19  -2 8.50934 5.77834   1
  -3  19   2 3.40623 4.78911   1
   3  19  -2 8.07327 5.94744   3
   3  19  -2 -5.4137 5.18329   2
   2 -19  -2 178.077 15.2623   1
  -2 -19   2 165.864 14.2736   1
  -2  19   2 126.752 11.7193   1
  -2  19   2 175.209 16.1676   2
   2  19  -2 111.339 11.2990   1
   2  19  -2 139.534 10.9340   3
   2  19  -2 173.366 15.2502   2
  -1 -19   2 7.17729 7.31802   1
   1 -19  -2 17.6441 7.61188   1
   1  19  -2 16.4962 5.80384   1
  -1  19   2 19.5839 11.5123   3
  -1  19   2 18.3417 8.14123   2
  -1  19   2 28.6675 7.07674   1
   1  19  -2 22.2990 5.60461   3
   1  19  -2 19.9088 6.60210   2
   0 -19   2 -2.8553 6.45032   1
   0 -19  -2 5.79029 6.25105   1
   0  19   2 -0.9002 4.35693   1
   0  19  -2 -2.4918 4.59253   2
   0  19   2 -5.9311 6.31501   2
   0  19  -2 2.48375 4.17143   3
   0  19   2 -14.409 8.62812   3
   0  19  -2 -6.0980 3.74383   1
  -1 -19  -2 39.6873 8.02214   1
   1 -19   2 46.6527 9.26529   1
  -1  19  -2 50.4496 6.61239   3
   1  19   2 55.7965 12.3475   3
  -1  19  -2 44.2834 7.19305   1
  -1  19  -2 44.1625 7.31204   2
   1  19   2 31.1762 9.06131   2
   1  19   2 31.5293 7.04662   1
  -2 -19  -2 61.0758 8.52689   1
   2 -19   2 48.6074 10.0734   1
  -2  19  -2 58.2699 7.75126   2
  -2  19  -2 57.4827 8.83044   3
   2  19   2 40.1643 9.82551   2
  -2  19  -2 58.5481 7.64220   1
   2  19   2 59.1373 8.75573   1
   2  19   2 71.1662 13.2406   3
   3 -19   2 5.28022 8.04758   1
   3  19   2 -2.3173 6.61896   2
   3  19   2 1.57585 4.96470   1
  -3  19  -2 4.37289 4.89182   2
   3  19   2 -3.6166 8.34750   3
   4 -19   2 11.6321 8.03181   1
  -4  19  -2 11.5648 4.86923   2
   4  19   2 2.18245 6.61413   2
   4  19   2 12.8978 5.80098   1
   4  19   2 17.3348 9.36944   3
   5 -19   2 77.2225 11.6889   1
   5  19   2 32.2714 9.40399   2
   5  19   2 66.0518 9.17455   1
   5  19   2 65.6377 14.1311   3
   6 -19   2 18.2583 8.73351   1
   6  19   2 21.0759 8.55792   2
   6  19   2 19.5846 10.1788   3
   6  19   2 31.8788 7.50468   1
   7 -19   2 7.85352 9.13435   1
   7  19   2 21.4259 11.9054   3
   7  19   2 15.8621 6.82596   1
   7 -20  -2 4.29559 7.72226   1
   7  20  -2 8.60674 9.48468   3
   7  20  -2 1.45269 6.58157   1
   6 -20  -2 193.387 17.7438   1
   6  20  -2 211.763 15.8539   1
   6  20  -2 210.915 21.8596   3
   5 -20  -2 14.0126 8.13586   1
   5  20  -2 11.1706 6.17494   1
   5  20  -2 5.34579 7.75860   3
   4 -20  -2 168.665 15.9735   1
   4  20  -2 199.211 16.5132   1
   4  20  -2 184.059 17.2611   3
  -4  20   2 139.430 12.7193   1
   3 -20  -2 138.467 14.5321   1
  -3 -20   2 124.930 12.5896   1
  -3  20   2 118.033 12.0419   1
   3  20  -2 126.982 14.1277   2
   3  20  -2 111.130 11.8555   1
   3  20  -2 125.360 13.0502   3
  -2 -20   2 8.02904 7.66523   1
   2 -20  -2 -3.4632 7.00868   1
  -2  20   2 13.7464 8.15050   2
  -2  20   2 2.80991 4.82489   1
   2  20  -2 -0.2549 4.78107   1
   2  20  -2 6.64879 5.31230   3
   2  20  -2 -2.3521 5.44245   2
   1 -20  -2 9.54846 7.04823   1
  -1 -20   2 10.3146 7.49171   1
   1  20  -2 5.44145 5.78139   2
  -1  20   2 2.71794 5.18286   1
  -1  20   2 6.95292 11.2946   3
   1  20  -2 6.54608 5.02669   3
   1  20  -2 10.6934 5.61029   1
  -1  20   2 11.4764 8.15384   2
   0 -20  -2 0.93421 6.42322   1
   0 -20   2 -3.3174 7.13327   1
   0  20  -2 6.37461 4.62877   3
   0  20   2 -0.6923 10.4626   3
   0  20  -2 1.22504 4.59340   1
   0  20   2 -5.9890 4.68256   1
   0  20   2 14.5243 7.86675   2
   0  20  -2 7.63279 5.49338   2
  -1 -20  -2 61.9711 9.29573   1
   1 -20   2 74.2981 10.8724   1
   1  20   2 67.5049 13.1036   3
  -1  20  -2 82.5772 8.09985   3
   1  20   2 61.0646 10.9164   2
   1  20   2 74.2062 10.0106   1
  -1  20  -2 86.6786 9.41641   1
  -1  20  -2 85.0459 9.71606   2
   2 -20   2 62.4072 10.7532   1
  -2 -20  -2 59.2603 11.6607   1
   2  20   2 69.3193 11.9551   2
  -2  20  -2 73.8612 8.70459   2
  -2  20  -2 63.3593 8.93039   3
  -2  20  -2 66.3656 8.48904   1
   2  20   2 67.6248 9.22479   1
   2  20   2 62.9146 13.2043   3
   3 -20   2 -3.2830 7.94749   1
   3  20   2 12.4940 9.76134   3
   3  20   2 -0.8396 6.96035   2
   3  20   2 3.84389 5.30974   1
  -3  20  -2 0.58912 4.53349   2
   4 -20   2 -13.899 7.11468   1
   4  20   2 -1.2158 5.22974   1
  -4  20  -2 0.59227 4.60746   2
   4  20   2 7.03064 6.72789   2
   4  20   2 13.2106 9.31329   3
   5 -20   2 72.7609 11.7554   1
   5  20   2 49.6720 10.9732   2
   5  20   2 86.5254 10.5471   1
   5  20   2 72.6861 14.4680   3
   6 -20   2 101.529 13.9167   1
   6  20   2 98.3016 16.5903   3
   6  20   2 104.877 14.6964   2
   6  20   2 113.497 12.3184   1
   7 -20   2 5.60927 9.08234   1
   7  20   2 3.69521 6.10910   1
   7  20   2 1.93117 8.92342   3
   7 -21  -2 20.2709 9.31875   1
   7  21  -2 12.3137 9.58237   3
   7  21  -2 8.54133 7.68393   1
   6 -21  -2 62.3478 11.9040   1
   6  21  -2 76.5147 14.6047   3
   6  21  -2 72.2039 11.5409   1
   5 -21  -2 79.4019 12.4881   1
   5  21  -2 70.0475 10.8637   1
   5  21  -2 98.8326 15.0683   3
   4 -21  -2 126.020 13.5834   1
   4  21  -2 146.346 15.5582   3
   4  21  -2 130.004 13.2543   1
  -3 -21   2 15.4898 8.11785   1
   3 -21  -2 -0.1132 7.68212   1
   3  21  -2 5.49245 6.16040   3
  -3  21   2 1.98113 5.39881   1
   3  21  -2 7.13907 6.97248   2
  -3  21   2 -5.6206 8.27623   2
   3  21  -2 -0.0952 5.39690   1
   2 -21  -2 68.5056 11.1071   1
  -2 -21   2 60.5369 10.4373   1
  -2  21   2 39.6104 8.21964   1
   2  21  -2 42.7317 8.84082   1
   2  21  -2 44.1482 8.25174   3
   2  21  -2 61.1877 10.2261   2
  -2  21   2 46.5010 10.6854   2
   1 -21  -2 91.8958 11.6384   1
  -1 -21   2 108.319 12.5799   1
   1  21  -2 107.624 10.1747   3
  -1  21   2 93.1673 16.4179   3
  -1  21   2 104.684 12.7926   2
  -1  21   2 103.020 11.4895   1
   1  21  -2 89.9283 10.7838   1
   0 -21  -2 65.4445 10.1732   1
   0 -21   2 69.6888 10.9884   1
   0  21  -2 98.6436 10.9390   1
   0  21   2 80.1829 15.0070   3
   0  21  -2 90.9867 8.88801   3
   0  21   2 75.5105 11.7544   2
   0  21   2 68.6576 9.40958   1
   0  21  -2 66.4782 9.29189   2
  -1 -21  -2 39.5832 8.55856   1
   1 -21   2 34.4632 9.34882   1
  -1  21  -2 25.2803 6.87934   2
  -1  21  -2 42.3558 6.90985   3
   1  21   2 24.4196 11.2756   3
   1  21   2 15.8996 6.44072   1
   1  21   2 24.2210 8.77654   2
  -1  21  -2 34.3999 7.16832   1
   2 -21   2 58.9216 11.0912   1
   2  21   2 35.8887 10.2711   2
  -2  21  -2 52.4543 7.95678   1
   2  21   2 51.6471 8.74534   1
  -2  21  -2 49.2862 8.53594   3
   2  21   2 25.1206 11.2411   3
  -2  21  -2 45.8786 7.92741   2
   3 -21   2 4.40147 8.29655   1
   3  21   2 6.97916 7.25885   2
   3  21   2 12.5196 9.94802   3
  -3  21  -2 15.5051 5.97823   2
   3  21   2 16.0369 6.64277   1
   4 -21   2 376.442 20.8080   1
   4  21   2 367.313 24.4471   3
   4  21   2 417.457 18.7493   1
  -4  21  -2 421.063 18.4649   2
   4  21   2 420.553 22.5277   2
   5 -21   2 4.32025 8.19768   1
   5  21   2 5.22352 7.47326   2
   5  21   2 2.59166 8.27244   3
   5  21   2 1.61927 5.27721   1
   6 -21   2 2.76932 8.34399   1
   6  21   2 -1.6279 6.47056   2
   6  21   2 5.34500 9.25696   3
   6  21   2 4.61391 5.71736   1
   7 -21   2 5.33700 9.62784   1
   7  21   2 4.82506 6.54886   1
   7  21   2 2.09554 9.43629   3
   7 -22  -2 26.8725 10.7467   1
   7  22  -2 39.1619 12.0937   3
   7  22  -2 29.1169 9.03572   1
   6 -22  -2 46.7567 11.1924   1
   6  22  -2 35.0517 9.49605   1
   6  22  -2 57.4533 13.1983   3
   5 -22  -2 -7.1412 7.50442   1
   5  22  -2 -5.9272 6.27145   3
   5  22  -2 -4.6811 5.42132   1
   4 -22  -2 390.093 21.1553   1
   4  22  -2 317.569 20.8472   2
   4  22  -2 316.941 18.3718   1
   4  22  -2 333.002 20.0002   3
   3 -22  -2 176.417 16.2657   1
  -3 -22   2 161.810 14.4926   1
   3  22  -2 172.571 14.1219   3
   3  22  -2 203.700 15.1197   1
  -3  22   2 187.821 17.6197   2
  -3  22   2 195.189 13.8305   1
   3  22  -2 157.410 15.4940   2
  -2 -22   2 69.3843 11.2041   1
   2 -22  -2 83.2627 11.9660   1
  -2  22   2 112.313 14.2645   2
   2  22  -2 103.187 11.3849   3
  -2  22   2 115.112 12.3327   1
   2  22  -2 111.913 13.4693   2
   2  22  -2 73.9304 10.2537   1
  -1 -22   2 0.10109 7.69831   1
   1 -22  -2 -6.7796 6.46638   1
  -1  22   2 7.87171 12.3971   3
  -1  22   2 -0.3667 7.64278   2
   1  22  -2 9.73243 6.49098   2
  -1  22   2 1.52977 5.27533   1
   1  22  -2 4.45450 4.98814   3
   1  22  -2 8.06522 5.55971   1
   0 -22  -2 174.109 14.5266   1
   0 -22   2 203.166 17.0633   1
   0  22  -2 152.800 10.6120   3
   0  22   2 185.002 19.7035   3
   0  22  -2 165.587 12.4270   2
   0  22   2 170.000 16.3168   2
   0  22   2 182.433 15.1834   1
   0  22  -2 185.606 13.4794   1
  -1 -22  -2 77.3373 10.9790   1
   1 -22   2 108.684 13.5370   1
  -1  22  -2 94.6010 10.5915   2
   1  22   2 104.735 13.6621   2
  -1  22  -2 115.538 9.84140   3
   1  22   2 68.6453 14.4008   3
  -1  22  -2 89.7936 10.6219   1
   1  22   2 95.0623 11.4233   1
   2 -22   2 89.7446 13.1091   1
  -2  22  -2 104.332 10.2986   3
   2  22   2 98.3215 13.7750   2
  -2  22  -2 101.321 10.7229   1
   2  22   2 106.133 16.2831   3
   2  22   2 107.501 12.2328   1
  -2  22  -2 83.5281 9.80720   2
   3 -22   2 31.9457 10.0963   1
   3  22   2 49.1889 11.2231   2
   3  22   2 49.2602 9.06618   1
  -3  22  -2 43.9329 7.73035   2
   3  22   2 44.3944 12.3724   3
   4 -22   2 125.349 14.6400   1
   4  22   2 136.080 15.4412   2
   4  22   2 159.231 13.6132   1
   4  22   2 171.936 20.1661   3
   5 -22   2 20.8002 9.92618   1
   5  22   2 9.03847 7.49581   2
   5  22   2 20.3445 11.7047   3
   5  22   2 13.8435 6.78489   1
   6 -22   2 5.15374 8.91264   1
   6  22   2 -2.4396 6.86885   2
   6  22   2 10.1218 10.5641   3
   6  22   2 11.8726 6.82585   1
   7 -23  -2 9.45883 9.16548   1
   7  23  -2 20.7071 11.0374   3
   7  23  -2 29.4047 9.41602   1
   6 -23  -2 -11.032 7.68515   1
   6  23  -2 0.69044 7.57310   3
   6  23  -2 1.64625 6.41863   1
   5 -23  -2 5.81189 8.48093   1
   5  23  -2 13.1865 8.73379   3
   5  23  -2 12.1207 6.83507   1
   4 -23  -2 176.075 16.5255   1
   4  23  -2 161.595 15.0285   1
   4  23  -2 157.022 16.6276   2
   4  23  -2 185.391 17.6556   3
  -4  23   2 184.103 18.0831   2
   3 -23  -2 23.6514 9.31196   1
  -3 -23   2 27.0132 9.32926   1
   3  23  -2 38.2959 8.96205   3
  -3  23   2 39.7141 10.9918   2
   3  23  -2 22.7233 8.61753   2
  -3  23   2 26.6592 7.57320   1
   3  23  -2 27.0538 8.18587   1
  -2 -23   2 10.4375 8.39605   1
   2 -23  -2 12.1978 8.79627   1
   2  23  -2 1.69743 5.65095   1
  -2  23   2 3.78978 9.07009   2
   2  23  -2 0.42865 5.39187   3
  -2  23   2 11.7183 6.55871   1
   2  23  -2 0.19663 6.22097   2
   1 -23  -2 19.4823 8.95627   1
  -1 -23   2 12.8392 8.57056   1
   1  23  -2 14.5740 5.95691   3
  -1  23   2 6.55498 5.89822   1
   1  23  -2 13.2771 7.22028   2
  -1  23   2 10.6825 9.04141   2
  -1  23   2 26.3076 13.4479   3
   1  23  -2 13.9459 6.47592   1
   0 -23   2 41.6148 10.4619   1
   0 -23  -2 27.4213 8.96575   1
   0  23  -2 44.2105 7.51363   3
   0  23   2 46.8422 11.6045   2
   0  23   2 26.1241 7.81850   1
   0  23  -2 30.9815 7.42416   1
   0  23  -2 34.4576 8.33996   2
   0  23   2 20.8717 12.3510   3
   1 -23   2 22.1913 9.79966   1
  -1 -23  -2 24.4473 8.69856   1
  -1  23  -2 29.4410 7.91614   2
  -1  23  -2 28.9550 7.34388   1
   1  23   2 26.6710 7.66098   1
  -1  23  -2 33.3501 7.02820   3
   1  23   2 23.9590 9.60155   2
   1  23   2 17.2550 11.4001   3
   2 -23   2 264.877 19.4166   1
   2  23   2 246.900 22.0610   3
  -2  23  -2 259.037 14.0493   3
  -2  23  -2 276.409 14.9221   1
   2  23   2 245.863 16.0201   1
   2  23   2 270.246 19.2784   2
  -2  23  -2 272.822 14.5878   2
   3 -23   2 74.2355 12.9983   1
   3  23   2 46.9133 11.9129   3
  -3  23  -2 70.2240 8.71302   2
  -3  23  -2 38.1501 15.1061   3
   3  23   2 33.9866 9.58568   2
   3  23   2 37.4529 8.08794   1
   4 -23   2 0.92747 8.72776   1
   4  23   2 -6.4626 8.02870   3
   4  23   2 0.06202 5.04932   1
   4  23   2 -0.3254 6.68630   2
   5 -23   2 -1.0593 8.28800   1
   5  23   2 13.1445 6.45309   1
   5  23   2 18.9974 10.3723   3
   5  23   2 6.14991 7.55914   2
   6 -23   2 118.435 15.7910   1
   6  23   2 109.779 15.6654   2
   6  23   2 84.7449 11.9106   1
   6  23   2 113.916 18.5075   3
   7 -24  -2 11.5317 9.77687   1
   7  24  -2 9.29501 7.88083   1
   7  24  -2 6.29610 9.88187   3
   6 -24  -2 9.39102 9.42885   1
   6  24  -2 20.1760 8.45046   1
   6  24  -2 23.6834 11.0890   3
   5 -24  -2 18.0010 9.45014   1
   5  24  -2 9.52536 7.15997   1
   5  24  -2 8.95634 8.17633   3
   4 -24  -2 6.21243 8.63468   1
   4  24  -2 19.8146 7.72977   1
   4  24  -2 18.6883 8.21964   3
  -4  24   2 19.3924 9.93829   2
   4  24  -2 20.2284 8.76075   2
  -3 -24   2 -14.591 7.08789   1
   3 -24  -2 2.96346 7.94967   1
   3  24  -2 1.38552 6.66571   2
   3  24  -2 -4.2981 4.81433   1
   3  24  -2 4.96289 6.29425   3
  -3  24   2 0.49142 5.81826   1
  -3  24   2 6.17401 8.25487   2
   2 -24  -2 24.9625 9.35241   1
  -2 -24   2 11.7736 8.73646   1
  -2  24   2 34.7328 14.4691   3
   2  24  -2 6.62942 6.77641   1
   2  24  -2 3.87833 5.97041   3
  -2  24   2 18.2833 9.68988   2
   2  24  -2 20.3114 8.36497   2
  -2  24   2 16.8197 6.74063   1
  -1 -24   2 29.7105 10.1191   1
   1 -24  -2 44.4971 10.7747   1
  -1  24   2 25.5386 7.93286   1
  -1  24   2 34.8057 10.4270   2
  -1  24   2 27.2849 14.6820   3
   1  24  -2 27.8994 7.13309   3
   1  24  -2 29.4713 7.76852   1
   1  24  -2 26.1413 8.30874   2
   0 -24  -2 569.737 23.9646   1
   0 -24   2 537.531 24.4988   1
   0  24  -2 626.129 23.6625   1
   0  24  -2 615.145 20.0395   3
   0  24   2 572.127 23.5332   1
   0  24  -2 578.335 22.0622   2
   0  24   2 519.040 28.6770   3
   0  24   2 594.766 26.1255   2
   1 -24   2 18.9344 9.65206   1
  -1 -24  -2 3.50142 7.89873   1
  -1  24  -2 16.1177 6.50454   1
   1  24   2 7.04937 5.91347   1
  -1  24  -2 7.26008 5.77076   3
   1  24   2 5.78693 8.82719   2
   1  24   2 5.41112 10.4025   3
  -1  24  -2 11.4682 6.66042   2
   2 -24   2 11.3776 9.36973   1
  -2  24  -2 12.7082 6.50807   2
   2  24   2 12.5316 8.42314   2
  -2  24  -2 26.0313 7.26721   3
   2  24   2 10.0207 6.43521   1
  -2  24  -2 6.42294 6.52050   1
   2  24   2 -2.8097 8.89343   3
   3 -24   2 10.1095 9.04085   1
   3  24   2 7.03637 5.76088   1
   3  24   2 2.64765 8.67046   3
  -3  24  -2 3.19070 5.48817   2
   3  24   2 21.2258 9.06131   2
   4 -24   2 23.2375 10.2831   1
   4  24   2 -2.8575 6.63987   2
   4  24   2 -2.9679 5.33155   1
   4  24   2 1.45898 8.68952   3
   5 -24   2 -3.6438 8.15955   1
   5  24   2 -2.3548 5.26104   1
   5  24   2 2.59130 8.87707   3
   5  24   2 5.01536 7.59402   2
   6 -24   2 2.45820 9.13682   1
   6  24   2 1.05871 9.23215   3
   6  24   2 1.78278 6.45985   1
   6  24   2 8.55405 7.87070   2
   6 -25  -2 27.5026 10.8403   1
   6  25  -2 24.5681 8.81456   1
  -6  25   2 20.4065 10.4761   2
   6  25  -2 37.8018 11.7297   3
   5 -25  -2 7.14224 8.90909   1
  -5  25   2 3.05493 9.04657   2
   5  25  -2 0.41757 5.99702   1
   5  25  -2 0.15789 6.92016   3
   4 -25  -2 3.29597 8.84884   1
   4  25  -2 -0.8331 5.81643   1
  -4  25   2 -4.7537 8.36214   2
   4  25  -2 2.77122 6.91906   2
   4  25  -2 0.84092 6.81241   3
   3 -25  -2 7.49867 8.17947   1
   3  25  -2 -4.3864 5.31778   1
   3  25  -2 3.97289 6.84105   2
  -3  25   2 -5.0785 7.51120   2
   3  25  -2 -4.5005 5.01782   3
  -3  25   2 2.68463 5.78869   1
  -2 -25   2 12.8154 8.70234   1
   2 -25  -2 8.66225 8.32916   1
   2  25  -2 14.4357 6.74583   3
  -2  25   2 0.90868 6.14129   1
  -2  25   2 -0.3371 8.69408   2
  -2  25   2 11.6699 13.0182   3
   2  25  -2 5.57851 6.78458   2
   2  25  -2 1.96947 5.50952   1
  -1 -25   2 34.5371 10.7263   1
   1 -25  -2 62.0232 11.8440   1
   1  25  -2 49.5533 8.70054   3
  -1  25   2 29.9885 13.4027   3
  -1  25   2 44.2480 8.85784   1
   1  25  -2 39.4415 9.23717   2
  -1  25   2 57.1479 12.6259   2
   1  25  -2 21.8156 7.49231   1
   0 -25  -2 566.770 23.9169   1
   0 -25   2 581.233 25.9984   1
   0  25  -2 554.077 23.0159   1
   0  25   2 552.430 29.8938   3
   0  25   2 570.514 23.7861   1
   0  25  -2 541.753 19.4561   3
   0  25  -2 553.923 22.5445   2
   0  25   2 539.522 26.2444   2
  -1 -25  -2 94.7999 12.4444   1
   1 -25   2 115.913 14.4458   1
   1  25   2 87.8563 13.9878   2
  -1  25  -2 104.661 11.9802   2
   1  25   2 100.375 12.6568   1
  -1  25  -2 108.519 12.1125   1
   1  25   2 117.663 17.2287   3
  -1  25  -2 121.386 10.7220   3
   2 -25   2 -6.7603 8.35296   1
  -2  25  -2 4.31070 5.66161   2
  -2  25  -2 3.08209 6.37227   3
   2  25   2 -1.9080 8.90273   3
   2  25   2 1.16224 5.84447   1
   2  25   2 3.25099 7.66299   2
   3 -25   2 130.450 15.4063   1
   3  25   2 110.256 16.6382   3
   3  25   2 113.418 12.8970   1
  -3  25  -2 119.270 11.7512   2
   3  25   2 106.936 14.5791   2
   4 -25   2 -9.9638 8.46171   1
   4  25   2 -1.4034 8.32802   3
   4  25   2 2.39904 7.12801   2
   4  25   2 2.57097 6.27345   1
   5 -25   2 10.8823 9.96701   1
   5  25   2 7.10880 6.31746   1
   5  25   2 3.61956 7.59045   2
   5  25   2 -8.1512 7.92495   3
   6 -25   2 14.9841 11.1650   1
   6  25   2 -2.0032 7.14493   2
   6  25   2 10.4671 10.5784   3
   6  25   2 10.6811 7.07190   1
   6 -26  -2 46.2784 12.4861   1
  -6  26   2 81.7600 14.6789   2
   6  26  -2 73.6994 15.0575   3
   6  26  -2 97.2290 14.4558   1
   5 -26  -2 64.3276 12.8861   1
  -5  26   2 30.0135 11.5772   2
   5  26  -2 63.4438 11.2686   1
   5  26  -2 43.0523 11.6782   3
   4 -26  -2 5.20998 8.71198   1
  -4  26   2 -10.814 7.64555   2
   4  26  -2 3.63022 7.31838   2
   4  26  -2 12.0768 7.74633   3
   4  26  -2 11.7492 7.39897   1
   3 -26  -2 11.7578 8.94889   1
  -3  26   2 3.93258 9.43301   2
   3  26  -2 2.65040 6.25622   1
   3  26  -2 8.65862 6.57572   3
  -3  26   2 6.62245 6.33591   1
   3  26  -2 11.4779 8.06123   2
  -2 -26   2 43.4048 10.9428   1
   2 -26  -2 22.4243 9.74167   1
   2  26  -2 30.9099 8.28410   1
  -2  26   2 32.0165 8.72514   1
  -2  26   2 25.1067 14.1248   3
  -2  26   2 45.2100 11.2626   2
   2  26  -2 38.5623 8.76255   3
   2  26  -2 26.9317 8.81332   2
   1 -26  -2 176.022 16.6131   1
  -1 -26   2 170.357 17.1910   1
   1  26  -2 178.769 16.3143   1
   1  26  -2 169.237 16.0219   2
  -1  26   2 150.875 14.3878   1
  -1  26   2 163.190 19.6242   3
  -1  26   2 150.545 16.3474   2
   1  26  -2 185.108 12.7945   3
   0 -26   2 1474.02 40.4586   1
   0 -26  -2 1420.51 38.1920   1
   0  26  -2 1394.63 32.5571   3
   0  26   2 1451.41 38.2193   1
   0  26   2 1362.54 44.4690   3
   0  26  -2 1436.06 38.1995   1
   0  26  -2 1391.51 36.7715   2
   0  26   2 1391.43 40.8409   2
   1 -26   2 6.86841 8.69334   1
  -1 -26  -2 1.32104 9.12471   1
   1  26   2 4.42889 6.30340   1
  -1  26  -2 5.82281 5.87205   1
   1  26   2 5.55490 9.81140   3
  -1  26  -2 16.2759 5.98909   3
   1  26   2 4.43720 8.16908   2
  -1  26  -2 0.95497 6.05557   2
   2 -26   2 135.731 15.7358   1
   2  26   2 170.589 17.9240   2
   2  26   2 129.653 13.7571   1
   2  26   2 129.679 17.5065   3
  -2  26  -2 186.414 15.2854   2
   3 -26   2 74.2928 13.4847   1
   3  26   2 89.4660 15.8480   3
   3  26   2 52.6953 11.7735   2
  -3  26  -2 85.5912 10.4754   2
   3  26   2 79.4977 11.2804   1
   4 -26   2 43.8124 12.1885   1
   4  26   2 40.2549 12.1788   3
   4  26   2 46.3721 9.72350   1
   4  26   2 74.0603 14.0672   2
   5 -26   2 -11.136 8.16010   1
   5  26   2 3.78295 8.79758   3
   5  26   2 2.79356 6.43045   1
   5  26   2 -6.1889 6.34125   2
   6 -26   2 62.4936 13.7344   1
   6  26   2 49.0030 12.3533   2
   6  26   2 30.8505 9.21785   1
   6  26   2 37.9014 13.2992   3
   6 -27  -2 -5.9582 8.33667   1
  -6  27   2 -0.2814 9.08053   2
   6  27  -2 -4.2424 7.83751   3
   6  27  -2 7.89050 7.95905   1
   5 -27  -2 3.95433 8.52857   1
   5  27  -2 5.39352 6.77119   1
   5  27  -2 7.23481 8.12821   3
  -5  27   2 -10.112 8.21202   2
   4 -27  -2 -17.189 7.31408   1
   4  27  -2 7.44146 7.39085   2
   4  27  -2 -2.2077 5.95333   1
  -4  27   2 0.27837 8.65534   2
   4  27  -2 -2.5780 6.16108   3
   3 -27  -2 -5.4922 7.86593   1
  -3  27   2 -5.5879 5.54819   1
   3  27  -2 2.95864 6.76791   2
  -3  27   2 -6.4275 7.57042   2
   3  27  -2 8.67756 6.55790   3
   3  27  -2 -0.1064 5.99169   1
   2 -27  -2 50.6651 11.9226   1
  -2 -27   2 62.0862 11.6639   1
  -2  27   2 46.0386 15.5201   3
   2  27  -2 26.1236 8.35865   3
   2  27  -2 73.2028 11.6120   1
  -2  27   2 45.5341 9.73189   1
   2  27  -2 54.1631 11.4748   2
  -2  27   2 40.0717 11.1976   2
  -1 -27   2 33.0180 10.4136   1
   1 -27  -2 25.5239 9.95324   1
   1  27  -2 23.7877 8.59254   2
  -1  27   2 43.1067 9.67963   1
  -1  27   2 2.97289 11.3784   3
  -1  27   2 21.9563 10.0325   2
   1  27  -2 33.7762 9.26468   1
   1  27  -2 19.4213 6.56297   3
   0 -27   2 184.551 17.6887   1
   0 -27  -2 212.474 18.1148   1
   0  27   2 161.867 19.3639   3
   0  27   2 181.981 18.9125   2
   0  27  -2 195.368 12.6150   3
   0  27  -2 203.705 15.0942   2
   0  27  -2 178.129 16.2136   1
   0  27   2 162.469 16.0791   1
   1 -27   2 274.602 21.6232   1
  -1  27  -2 245.022 16.1775   2
  -1  27  -2 244.288 16.3720   1
   1  27   2 238.320 20.8568   2
   1  27   2 232.133 17.0476   1
  -1  27  -2 271.786 13.9020   3
   1  27   2 263.534 23.6847   3
   2 -27   2 36.3837 11.3138   1
  -2  27  -2 45.0758 8.81108   2
   2  27   2 45.1608 11.8492   2
   2  27   2 28.1096 11.1267   3
   2  27   2 44.7927 9.55013   1
   3 -27   2 14.8487 10.0627   1
   3  27   2 12.9038 7.43680   1
   3  27   2 3.64143 9.00066   3
  -3  27  -2 14.1050 6.52605   2
   3  27   2 8.31030 7.51403   2
   4 -27   2 -6.1005 9.05872   1
   4  27   2 14.8437 10.4201   3
   4  27   2 6.22663 6.64120   1
   4  27   2 9.87302 7.98772   2
   5 -27   2 4.21454 10.4919   1
   5  27   2 0.67492 7.46982   2
   5  27   2 5.09848 8.92200   3
   5  27   2 -1.9736 6.35565   1
   6 -28  -2 -2.9427 9.59805   1
   6  28  -2 -4.1111 7.14970   1
   6  28  -2 13.3123 9.81002   3
  -6  28   2 -0.0489 9.15014   2
   5 -28  -2 -5.9984 8.62088   1
  -5  28   2 7.56360 9.14856   2
   5  28  -2 -0.9261 7.38925   3
   5  28  -2 1.80240 6.66291   1
   4 -28  -2 19.4700 10.3060   1
   4  28  -2 15.0582 7.73590   1
   4  28  -2 8.41684 7.61122   3
   4  28  -2 15.7559 8.41376   2
  -4  28   2 10.3260 9.82271   2
   3 -28  -2 4.44978 9.12795   1
  -3  28   2 4.62097 9.09524   2
   3  28  -2 6.47420 6.73146   1
  -3  28   2 13.0538 7.22737   1
   3  28  -2 19.4300 8.01659   3
  -3  28   2 -10.009 13.7701   3
   3  28  -2 5.28735 7.27164   2
   2 -28  -2 150.649 17.1727   1
  -2 -28   2 115.536 15.1352   1
   2  28  -2 149.449 16.7447   2
   2  28  -2 125.042 13.7088   3
  -2  28   2 114.606 13.7128   1
  -2  28   2 100.625 18.6083   3
   2  28  -2 124.802 15.3891   1
  -2  28   2 105.525 15.1106   2
   1 -28  -2 14.3024 9.08781   1
  -1 -28   2 -5.1687 8.49062   1
   1  28  -2 10.7895 6.00923   3
  -1  28   2 -11.165 11.0898   3
   1  28  -2 1.08520 6.52553   2
  -1  28   2 18.0206 9.61676   2
  -1  28   2 7.74989 6.56185   1
   1  28  -2 -2.6415 5.71631   1
   0 -28  -2 -1.3711 8.03793   1
   0 -28   2 7.56680 9.31691   1
   0  28   2 11.4664 11.2068   3
   0  28  -2 2.18942 6.06858   1
   0  28  -2 6.60949 5.17430   3
   0  28   2 -4.9207 5.39936   1
   0  28   2 -8.9734 7.82364   2
   0  28  -2 1.40208 6.02034   2
   1 -28   2 203.751 19.5797   1
  -1  28  -2 197.318 16.8144   2
   1  28   2 190.017 19.1740   2
   1  28   2 235.411 22.9655   3
  -1  28  -2 192.993 16.9262   1
   1  28   2 153.201 15.3935   1
   2 -28   2 10.3538 9.74961   1
   2  28   2 13.3000 7.52612   1
  -2  28  -2 7.85871 6.64940   2
   2  28   2 15.6633 10.1598   3
   2  28   2 1.36969 7.76276   2
   3 -28   2 35.5960 11.9589   1
   3  28   2 35.7119 9.31783   1
   3  28   2 24.7149 10.0730   2
   3  28   2 49.6833 13.6160   3
  -3  28  -2 48.8210 9.31355   2
   4 -28   2 317.301 22.9758   1
   4  28   2 341.595 25.7326   3
   4  28   2 348.525 23.3433   2
   4  28   2 349.806 20.9630   1
   5 -28   2 7.56670 10.3768   1
   5  28   2 10.8280 8.35174   1
   5  28   2 3.32796 9.51662   3
   5  28   2 2.15313 7.62580   2
  -6  29   2 100.211 16.2378   2
   6  29  -2 99.1341 17.3486   3
   5 -29  -2 -5.8002 8.68299   1
   5  29  -2 24.3419 9.14742   1
   5  29  -2 16.4679 9.96369   3
  -5  29   2 32.1091 12.1043   2
   4 -29  -2 3.36557 9.28816   1
  -4  29   2 -4.5440 8.30073   2
   4  29  -2 -3.9918 6.78827   3
   4  29  -2 3.22982 6.90044   1
   4  29  -2 7.32791 8.00570   2
   3 -29  -2 1.62102 8.75196   1
  -3  29   2 6.67563 9.17996   2
   3  29  -2 9.62788 7.60380   1
  -3  29   2 -5.4240 6.12925   1
   3  29  -2 -1.4621 6.45885   3
   3  29  -2 -5.8222 6.27874   2
  -3  29   2 5.21496 14.5838   3
  -2 -29   2 29.0519 10.3979   1
   2 -29  -2 33.1660 11.7547   1
   2  29  -2 37.9075 8.99361   3
   2  29  -2 37.1047 10.5771   2
  -2  29   2 26.1577 8.51585   1
  -2  29   2 49.6719 15.5010   3
  -2  29   2 22.9589 10.6473   2
   2  29  -2 32.5216 9.44835   1
   1 -29  -2 10.5192 9.03773   1
  -1 -29   2 0.60795 8.78880   1
   1  29  -2 17.7221 6.81583   3
  -1  29   2 9.57029 6.96103   1
   1  29  -2 23.8743 8.18275   1
   1  29  -2 20.1628 8.00155   2
  -1  29   2 -5.3709 11.0405   3
  -1  29   2 17.9348 10.1287   2
   0 -29   2 60.2137 12.9267   1
   0 -29  -2 75.4404 13.3312   1
   0  29  -2 60.8761 11.5265   2
   0  29   2 61.8059 11.0608   1
   0  29   2 29.1169 11.3195   2
   0  29  -2 60.7149 10.7931   1
   0  29   2 63.3221 14.3004   3
   0  29  -2 56.1550 8.86584   3
   1 -29   2 96.7482 15.1019   1
   1  29   2 87.5846 13.1943   1
  -1  29  -2 115.896 13.7552   2
   1  29   2 96.1056 16.5350   3
  -1  29  -2 109.045 13.6225   1
   1  29   2 113.586 16.2974   2
   2 -29   2 38.4441 11.9920   1
   2  29   2 30.8187 10.4767   2
  -2  29  -2 30.7230 8.41370   2
   2  29   2 32.1962 11.6821   3
   2  29   2 38.8170 9.83696   1
   3 -29   2 105.603 16.0310   1
  -3  29  -2 123.201 13.0928   2
   3  29   2 107.649 15.8014   2
   3  29   2 126.604 17.9973   3
   3  29   2 96.4980 13.2314   1
   4 -29   2 71.7517 14.6147   1
   4  29   2 85.6864 14.5227   2
   4  29   2 85.8566 12.9905   1
   4  29   2 75.3070 15.6569   3
   5 -29   2 43.4416 13.1544   1
   5  29   2 58.6148 15.4368   3
   5  29   2 35.5414 10.3200   1
   5  29   2 61.4498 13.8582   2
   5 -30  -2 10.0788 10.8150   1
   5  30  -2 11.3541 8.53078   3
   5  30  -2 -6.6886 6.02543   1
  -5  30   2 -6.2975 8.14930   2
   4 -30  -2 23.9912 10.8561   1
   4  30  -2 11.9431 8.01054   1
   4  30  -2 9.87597 7.91171   3
   4  30  -2 26.9699 10.1138   2
  -4  30   2 2.01533 8.82424   2
   3 -30  -2 64.4710 13.8707   1
  -3  30   2 86.0216 15.3366   2
   3  30  -2 100.072 13.8718   3
   3  30  -2 80.6061 13.0115   1
   3  30  -2 55.5792 12.0087   2
  -3  30   2 87.7301 19.3460   3
   2 -30  -2 12.9479 9.82509   1
  -2 -30   2 1.90641 9.56168   1
  -2  30   2 5.64552 12.7680   3
   2  30  -2 3.60800 7.18123   2
  -2  30   2 6.39799 6.68776   1
   2  30  -2 12.7105 7.34634   3
   2  30  -2 -5.0325 5.85125   1
  -2  30   2 -6.2769 8.68451   2
   1 -30  -2 166.017 17.9037   1
  -1 -30   2 194.445 19.1044   1
   1  30  -2 164.316 13.3767   3
   1  30  -2 144.684 16.1839   2
  -1  30   2 129.459 15.0243   1
   1  30  -2 160.480 16.6714   1
  -1  30   2 148.261 20.0528   3
  -1  30   2 128.370 16.7038   2
   0 -30   2 -8.4249 8.67793   1
   0 -30  -2 14.3333 9.83354   1
   0  30   2 5.43624 6.85447   1
   0  30  -2 24.1869 6.96734   3
   0  30   2 -3.6116 10.0578   3
   0  30  -2 5.62040 6.65706   1
   0  30   2 19.2254 10.2562   2
   0  30  -2 22.9857 8.51608   2
   1 -30   2 246.083 21.6720   1
   1  30   2 265.424 25.0508   3
   1  30   2 184.442 19.3727   2
  -1  30  -2 224.572 17.0499   1
  -1  30  -2 228.886 16.8150   2
   2 -30   2 -4.3519 9.19063   1
   2  30   2 9.77332 9.87929   3
   2  30   2 8.27217 6.74190   1
   2  30   2 6.31123 8.01878   2
  -2  30  -2 -0.5037 6.09486   2
   3 -30   2 53.0227 13.5117   1
   3  30   2 40.9060 11.6828   2
   3  30   2 46.1551 12.9729   3
   3  30   2 40.4265 10.0648   1
  -3  30  -2 51.0239 9.85847   2
   4 -30   2 2.47399 10.2625   1
   4  30   2 0.60730 7.62744   2
   4  30   2 1.96221 6.89275   1
   4  30   2 6.28127 9.95158   3
   5 -31  -2 -8.7540 9.38324   1
  -5  31   2 0.11696 9.23244   2
   5  31  -2 19.8896 10.3526   3
   5  31  -2 17.0241 9.10926   1
   4 -31  -2 41.7790 12.5719   1
   4  31  -2 39.1162 11.3739   2
   4  31  -2 72.7747 13.7989   3
  -4  31   2 42.5868 12.5772   2
   4  31  -2 59.6794 12.3993   1
   3 -31  -2 54.0446 13.3359   1
  -3  31   2 30.8751 16.1529   3
   3  31  -2 54.6472 11.9282   1
   3  31  -2 34.5117 10.0168   3
  -3  31   2 33.6984 11.5055   2
   3  31  -2 58.4689 12.3286   2
   2 -31  -2 43.2105 12.4714   1
  -2  31   2 43.9149 10.8977   1
   2  31  -2 42.5218 10.3471   1
   2  31  -2 33.6082 9.05417   3
  -2  31   2 39.2000 12.2260   2
   2  31  -2 37.9749 10.8071   2
  -2  31   2 35.6131 14.8671   3
   1 -31  -2 64.3193 13.6864   1
  -1 -31   2 64.4240 13.8095   1
   1  31  -2 64.6789 10.3893   3
   1  31  -2 40.9834 10.4149   2
  -1  31   2 62.1411 15.1668   3
  -1  31   2 33.9100 9.17826   1
   1  31  -2 52.4074 10.9150   1
  -1  31   2 56.7018 13.7640   2
   0 -31   2 258.729 22.5818   1
   0 -31  -2 251.787 28.0127   1
   0  31  -2 230.787 17.7310   2
   0  31   2 246.939 23.0703   2
   0  31  -2 246.891 18.0702   1
   0  31   2 222.409 23.3998   3
   0  31   2 258.423 19.2632   1
   1 -31   2 15.5522 10.8638   1
   1  31   2 -3.8225 6.16245   1
  -1  31  -2 13.8591 7.82718   2
   1  31   2 8.21464 9.75766   2
   1  31   2 16.2243 10.7033   3
   2 -31   2 -16.630 8.08175   1
   2  31   2 4.95921 8.61341   2
   2  31   2 29.1109 11.9877   3
  -2  31  -2 4.08272 6.90541   2
   2  31   2 9.73164 7.64189   1
   3 -31   2 65.3947 14.3129   1
  -3  31  -2 31.0313 8.52557   2
   3  31   2 48.9280 13.4525   3
   3  31   2 36.6741 11.2612   2
   3  31   2 30.3403 10.0155   1
   4 -31   2 12.2770 11.7759   1
   4  31   2 -3.4289 7.01539   1
   4  31   2 10.1311 9.05737   2
   4  31   2 19.9113 10.7197   3
   5  32  -2 13.7704 9.13342   3
  -5  32   2 -4.9204 9.52892   2
   4 -32  -2 106.958 16.8467   1
   4  32  -2 122.227 17.0240   3
   4  32  -2 82.7200 15.1186   2
  -4  32   2 72.3298 20.8907   3
  -4  32   2 98.5928 16.7483   2
   4  32  -2 100.344 14.5847   1
   3 -32  -2 46.6057 13.2906   1
  -3  32   2 26.5417 12.0361   2
  -3  32   2 34.9719 16.9121   3
   3  32  -2 61.3138 12.8133   2
   3  32  -2 25.9070 9.17556   1
   3  32  -2 51.2833 11.5982   3
   2 -32  -2 141.323 18.2544   1
   2  32  -2 127.301 16.8103   2
   2  32  -2 138.447 16.9594   1
  -2  32   2 142.060 20.4396   3
   2  32  -2 116.011 14.4496   3
  -2  32   2 99.6263 14.1323   1
  -2  32   2 115.828 16.3374   2
  -1 -32   2 -7.9581 9.77321   1
   1 -32  -2 6.36547 10.3734   1
   1  32  -2 19.2514 7.24563   3
  -1  32   2 6.52704 11.8288   3
   1  32  -2 16.9958 8.58740   1
  -1  32   2 15.5641 8.01977   1
   1  32  -2 12.0398 8.07878   2
  -1  32   2 -2.2768 9.01127   2
   0 -32   2 5.89411 10.5343   1
   0  32   2 18.9073 11.4615   3
   0  32   2 2.90536 6.65401   1
   0  32  -2 0.56997 6.97685   1
   0  32  -2 1.01979 6.37066   2
   0  32   2 17.3725 10.7396   2
   1 -32   2 0.46321 10.0506   1
   1  32   2 0.17342 9.44450   3
   1  32   2 8.66587 9.16184   2
   1  32   2 -0.9430 6.34736   1
  -1  32  -2 17.6921 7.82840   2
   2 -32   2 4.83701 10.8845   1
   2  32   2 21.7288 11.1640   3
  -2  32  -2 33.8355 9.57610   2
   2  32   2 17.1597 9.64258   2
   2  32   2 15.9454 8.20829   1
   3 -32   2 -7.1084 9.64421   1
   3  32   2 10.1223 9.83167   3
   3  32   2 9.40857 9.12609   2
   3  32   2 -7.0711 6.47872   1
  -3  32  -2 12.8472 7.45204   2
   4 -32   2 32.1891 13.5476   1
   4  32   2 15.7927 8.97558   1
   4  32   2 16.4754 11.0420   3
   4  32   2 22.5488 10.7697   2
   4 -33  -2 -2.4057 10.1879   1
   4  33  -2 -2.1117 6.55345   1
  -4  33   2 18.1841 11.5727   2
   4  33  -2 4.28419 7.56798   3
   4  33  -2 -6.9274 6.77829   2
  -4  33   2 -15.030 15.7703   3
   3 -33  -2 100.231 17.0934   1
   3  33  -2 114.459 15.5434   3
   3  33  -2 90.9046 15.1436   2
   3  33  -2 100.868 15.1535   1
  -3  33   2 92.2356 16.1017   2
  -3  33   2 96.0201 20.3700   3
   2 -33  -2 70.9907 14.7785   1
   2  33  -2 56.1595 11.0138   3
   2  33  -2 47.2409 11.5620   2
  -2  33   2 49.8474 13.0527   2
   2  33  -2 43.7786 11.3557   1
  -2  33   2 46.3863 14.8119   3
  -2  33   2 31.1208 9.99981   1
  -1 -33   2 11.9779 10.6416   1
   1 -33  -2 16.1473 10.7166   1
  -1  33   2 16.1652 10.0940   2
  -1  33   2 23.3162 12.7115   3
   1  33  -2 15.3938 8.64824   1
   1  33  -2 29.8787 10.3948   3
   1  33  -2 31.5152 10.1330   2
  -1  33   2 7.29232 8.24049   1
   0 -33   2 -13.968 9.28572   1
   0  33  -2 1.87028 6.68648   1
   0  33  -2 -1.5508 6.65004   2
   0  33   2 18.8980 11.0325   3
   0  33   2 -0.3605 8.82284   2
   0  33   2 -0.3723 6.41726   1
   1 -33   2 -11.163 8.93668   1
  -1  33  -2 -1.7896 6.66232   2
   1  33   2 -1.2317 7.27073   1
   1  33   2 5.61301 9.33258   3
   1  33   2 8.75720 8.74640   2
   2 -33   2 -4.3492 9.98877   1
   2  33   2 -7.1899 6.81910   1
   2  33   2 14.9570 10.3264   3
  -2  33  -2 22.8157 8.67070   2
   2  33   2 10.9968 9.30841   2
   3 -33   2 -7.8629 9.65136   1
   3  33   2 -6.9779 8.03771   2
   3  33   2 10.6154 8.24184   1
  -3  33  -2 10.1042 8.10400   2
   3  33   2 11.3386 10.3587   3
   4 -34  -2 14.6009 12.1479   1
   4  34  -2 15.4742 9.79860   2
  -4  34   2 -26.617 14.6269   3
  -4  34   2 14.6646 11.2625   2
   4  34  -2 17.5324 9.36819   3
   4  34  -2 -7.0894 6.58977   1
   3 -34  -2 38.4581 13.1964   1
  -3  34   2 14.9894 11.4973   2
   3  34  -2 28.4368 9.63573   3
  -3  34   2 10.4524 14.7328   3
   3  34  -2 15.6187 9.99556   2
   3  34  -2 1.96888 7.34988   1
   2 -34  -2 37.8017 13.5550   1
  -2  34   2 35.3306 14.2588   3
   2  34  -2 29.8448 10.4638   1
   2  34  -2 45.1191 10.7110   3
   2  34  -2 27.8787 10.4475   2
  -2  34   2 36.2800 12.4539   2
  -2  34   2 30.9358 10.0650   1
  -1 -34   2 52.1259 14.1740   1
   1 -34  -2 89.6593 16.6050   1
   1  34  -2 83.3046 14.1506   2
   1  34  -2 78.5517 13.6664   1
  -1  34   2 76.5765 15.2747   2
  -1  34   2 77.9768 16.5829   3
  -1  34   2 75.6823 13.3806   1
   0 -34   2 -6.0638 9.81033   1
   0  34   2 21.5853 11.5446   3
   0  34   2 7.23574 7.92710   1
   0  34  -2 24.7205 9.36739   1
   0  34  -2 6.70311 7.72270   2
   0  34   2 2.30911 9.29052   2
   1 -34   2 18.9919 12.2080   1
   1  34   2 27.7296 11.4383   2
   1  34   2 24.6587 10.0462   1
   1  34   2 20.2662 11.4346   3
  -1  34  -2 17.6534 8.58513   2
   2 -34   2 56.4748 15.0534   1
   2  34   2 61.7290 13.1500   1
   2  34   2 66.3505 14.6222   3
   2  34   2 51.6467 13.8446   2
  -2  34  -2 63.8387 11.6835   2
   3 -34   2 9.26698 12.1745   1
   3  34   2 -5.4977 8.57574   3
   3  34   2 -10.631 6.16597   1
   3  34   2 3.52599 9.37454   2
   3 -35  -2 123.749 19.2450   1
  -3  35   2 124.116 22.0867   3
   3  35  -2 143.553 17.9929   1
   3  35  -2 108.908 17.2964   2
   3  35  -2 134.406 16.6727   3
  -3  35   2 153.148 19.6952   2
   2 -35  -2 30.0248 12.5889   1
  -2  35   2 6.69664 7.83031   1
   2  35  -2 10.2328 9.75652   2
  -2  35   2 13.1292 12.4251   3
   2  35  -2 6.69037 8.20237   3
  -2  35   2 -0.7375 9.55721   2
   2  35  -2 9.59931 8.30289   1
   1 -35  -2 115.814 19.2345   1
  -1 -35   2 99.9976 21.2691   1
  -1  35   2 94.1562 16.8396   2
   1  35  -2 66.3739 13.3588   1
  -1  35   2 91.8869 14.7652   1
   1  35  -2 81.4722 14.1000   2
  -1  35   2 81.0480 16.5814   3
   0 -35   2 113.320 18.5306   1
   0  35   2 113.187 16.4100   1
   0  35   2 98.9772 17.5861   3
   0  35   2 163.171 21.6849   2
   0  35  -2 108.293 15.5306   1
   0  35  -2 114.542 15.6476   2
   1 -35   2 28.2732 12.4725   1
   1  35   2 24.2110 10.9768   2
  -1  35  -2 31.1465 9.93013   2
   1  35   2 24.7651 11.2607   3
   1  35   2 33.6947 10.9867   1
   2 -35   2 -9.9145 10.2123   1
   2  35   2 9.56659 9.58726   3
   2  35   2 -0.7321 8.38160   2
  -2  35  -2 1.38209 6.64524   2
   2  35   2 -3.5283 6.80076   1
   2 -36  -2 -1.8988 10.3307   1
   2  36  -2 -3.4135 7.42109   2
   2  36  -2 3.88731 7.81914   1
  -2  36   2 0.68398 11.6611   3
  -2  36   2 -3.7230 9.66834   2
  -1  36   2 71.2350 16.2928   3
   1  36  -2 42.1043 11.3760   1
  -1  36   2 77.2555 17.0280   2
   1  36  -2 71.5648 13.5854   2
  -1  36   2 59.6916 13.2019   1
   0 -36   2 20.2303 13.1401   1
   0  36   2 51.0546 14.2432   3
   0  36   2 42.7216 12.6996   2
   0  36   2 29.5262 10.1715   1
   0  36  -2 6.38250 9.51254   1
   0  36  -2 30.1536 10.3356   2
   1 -36   2 59.2249 16.0328   1
   1  36   2 68.5181 13.2207   1
  -1  36  -2 64.2291 12.1136   2
   1  36   2 63.3631 15.2061   3
   1  36   2 54.5661 13.6745   2
   2 -36   2 127.582 19.9062   1
   2  36   2 161.945 21.7259   3
   2  36   2 144.036 18.9075   1
   2  36   2 155.327 20.0000   2
  -2  36  -2 172.174 17.7480   2
  -1  37   2 60.2382 15.4363   3
   1  37  -2 27.8548 10.0974   1
  -1  37   2 33.3046 13.0919   2
  -1  37   2 36.1515 10.6527   1
   1  37  -2 36.7688 11.2681   2
   0 -37   2 10.3596 12.2969   1
   0  37   2 0.93704 7.72648   1
   0  37   2 -3.6043 9.61709   3
   0  37  -2 8.46016 8.32221   2
   0  37   2 3.12398 10.0099   2
   1 -37   2 73.2111 17.1483   1
  -1  37  -2 65.1932 12.6892   2
   1  37   2 63.8912 15.1627   3
   1  37   2 41.6473 11.9406   1
   1  37   2 49.7341 13.8628   2
   9   0  -3 12.6524 7.27600   1
   8   0  -3 4.79437 5.93050   1
   7   0  -3 170.387 14.2507   1
   6   0  -3 1.53498 5.13252   1
   5   0  -3 70.0249 8.58152   1
  -4   0   3 4.09338 3.96447   1
   4   0  -3 -2.6933 3.48293   1
   3   0  -3 5.15544 4.01701   1
  -3   0   3 9.10497 4.25516   1
  -3   0   3 15.2914 4.76807   1
  -2   0   3 -3.5975 3.60965   1
   2   0  -3 -3.6105 3.04698   1
  -1   0   3 668.245 17.4351   1
   1   0  -3 659.319 16.3782   1
   0   0   3 -3.1020 3.24243   1
   0   0  -3 -1.4751 2.79044   1
   1   0   3 5218.21 69.6050   3
   1   0   3 5085.18 66.8763   1
   2   0   3 -1.3861 2.30261   1
   2   0   3 -1.3406 2.39213   2
   2   0   3 2.05630 3.33419   1
   2   0   3 -1.2718 3.74886   3
   3   0   3 14.2469 3.60699   1
   3   0   3 15.2545 2.47654   2
   3   0   3 10.0510 2.71955   1
   3   0   3 9.26644 5.28480   3
   4   0   3 1.49198 5.11862   3
   4   0   3 0.69602 2.83401   1
   5   0   3 96.6491 12.4443   3
   6   0   3 5.94966 7.00516   3
   7   0   3 39.0937 11.1992   3
   8   0   3 3.35984 8.77142   3
   9  -1  -3 67.9332 11.3623   1
   9   1  -3 103.555 13.1950   1
   8  -1  -3 2.30082 5.71680   1
   8   1  -3 2.73442 5.55425   1
   7  -1  -3 72.7033 10.3581   1
   7   1  -3 68.8731 9.83741   1
   6  -1  -3 6.31129 5.47669   1
   6   1  -3 13.9247 5.90224   1
   5  -1  -3 1.00736 4.69491   1
   5   1  -3 -4.3182 4.12296   1
  -4  -1   3 14.6092 4.50581   1
   4  -1  -3 4.97510 4.34247   1
  -4   1   3 3.10367 3.85684   1
   4   1  -3 9.68494 4.53582   1
  -3  -1   3 348.278 13.2000   1
   3  -1  -3 356.545 13.6845   1
   3   1  -3 377.583 13.9495   1
  -3   1   3 333.869 13.0527   1
   2  -1  -3 357.660 12.7242   1
  -2  -1   3 359.616 13.2427   1
  -2   1   3 359.907 13.0297   1
   2   1  -3 365.680 12.7473   1
   1  -1  -3 18.9094 4.29375   1
  -1  -1   3 24.6536 5.31012   1
   1   1  -3 17.0809 4.21876   1
  -1   1   3 26.6804 5.30015   1
   0  -1   3 442.078 13.2396   1
   0  -1  -3 434.026 12.0158   1
   0   1   3 440.457 13.3593   1
   0   1  -3 449.207 11.9972   1
   1  -1   3 685.120 16.5542   3
   1  -1   3 688.607 15.8284   1
   1   1   3 686.422 18.3369   3
   1   1   3 705.118 15.7053   1
   2  -1   3 460.781 12.0510   1
   2  -1   3 460.587 9.22998   2
   2  -1   3 437.613 14.1186   3
   2  -1   3 405.159 10.9056   1
   2   1   3 450.678 11.4179   1
   2   1   3 411.171 10.8546   1
   2   1   3 416.219 14.9792   3
   2   1   3 460.780 11.0050   2
   3  -1   3 397.204 9.65096   1
   3  -1   3 407.375 15.4681   3
   3  -1   3 391.028 10.2775   1
   3   1   3 391.943 9.89265   1
   3   1   3 390.665 9.32735   1
   3   1   3 350.422 15.6514   3
   3   1   3 378.331 9.62568   2
   4  -1   3 9.37370 2.47673   1
   4  -1   3 18.8756 6.41306   3
   4  -1   3 10.9419 3.41795   1
   4   1   3 2.51878 5.88453   3
   5  -1   3 21.2355 7.58744   3
   5   1   3 34.5393 9.06718   3
   6  -1   3 73.6439 12.2374   3
   6   1   3 88.3051 13.2374   3
   7  -1   3 6.83701 7.79055   3
   7   1   3 14.5366 9.10917   3
   8  -1   3 43.6859 13.0270   3
   8   1   3 22.6162 11.1393   3
   9  -2  -3 14.9470 7.64018   1
   9   2  -3 8.04978 7.21320   1
   8  -2  -3 195.053 14.7468   1
   8   2  -3 208.416 14.9994   1
   7  -2  -3 27.7550 7.46739   1
   7   2  -3 21.4150 7.00092   1
   6  -2  -3 12.3918 6.37111   1
   6   2  -3 13.3627 5.84374   1
   5  -2  -3 -2.6727 4.36108   1
  -5   2   3 4.30282 6.03992   1
   5   2  -3 1.50862 4.69268   1
   4  -2  -3 11.9075 4.68776   1
  -4  -2   3 14.4212 4.73295   1
   4   2  -3 12.4838 4.73271   1
  -4   2   3 16.0348 4.84531   1
  -3  -2   3 159.126 9.67544   1
   3  -2  -3 155.352 9.68890   1
   3   2  -3 153.033 9.73635   1
  -3   2   3 171.963 9.96071   1
   2  -2  -3 1003.65 22.3413   1
  -2  -2   3 1061.10 23.4264   1
  -2   2   3 1029.59 22.7135   1
  -2   2   3 1046.26 23.1742   1
   2   2  -3 1068.57 23.0210   1
  -1  -2   3 197.074 10.3083   1
   1  -2  -3 213.507 9.76303   1
  -1   2   3 210.428 10.2895   1
   1   2  -3 202.038 9.19208   1
   0  -2   3 -1.3296 3.57149   1
   0  -2  -3 3.72593 3.13269   1
   0   2  -3 2.21399 2.86237   1
   0   2   3 -4.7103 3.47355   1
   1  -2   3 17.7104 4.22327   3
   1  -2   3 12.2599 4.22447   1
   1   2   3 17.0316 4.05428   1
   1   2   3 4.30221 5.40380   3
   2  -2   3 2330.70 34.0237   1
   2  -2   3 2271.58 36.8170   3
   2  -2   3 2211.10 33.4119   1
   2   2   3 2177.71 32.7611   1
   2   2   3 2356.91 33.8057   2
   2   2   3 2271.38 33.1573   1
   2   2   3 2331.62 41.2493   3
   3  -2   3 885.575 22.6379   3
   3  -2   3 887.952 16.8389   1
   3  -2   3 884.351 16.1767   1
   3   2   3 896.774 15.7940   1
   3   2   3 901.034 15.6116   1
   3   2   3 860.962 24.6019   3
   3   2   3 905.602 17.1630   2
   4  -2   3 3.30275 2.45442   1
   4  -2   3 3.51662 3.38986   1
   4  -2   3 1.85117 4.96172   3
   4   2   3 -2.5639 5.72322   3
   5  -2   3 37.4709 4.30939   1
   5  -2   3 36.1736 8.68567   3
   5   2   3 38.6499 9.46776   3
   6  -2   3 29.7715 9.15212   3
   6   2   3 37.3867 10.0287   3
   7  -2   3 177.638 19.4064   3
   7   2   3 184.469 20.4836   3
   8  -2   3 -3.5047 8.17770   3
   8   2   3 -5.2180 8.32337   3
   9  -3  -3 15.5768 8.06722   1
   9   3  -3 5.82549 6.84481   1
   8  -3  -3 28.7394 7.71083   1
   8   3  -3 49.9884 9.55821   1
   7  -3  -3 335.025 17.0261   1
   7   3  -3 288.819 16.1679   1
   6  -3  -3 -0.8446 5.08198   1
   6   3  -3 -5.5032 4.44690   1
   5  -3  -3 3.23362 4.87383   1
  -5   3   3 10.8138 4.64992   1
   5   3  -3 0.59930 4.81294   1
   4  -3  -3 12.9061 4.77961   1
  -4  -3   3 11.0947 4.68398   1
  -4  -3   3 8.31788 4.21851   1
  -4   3   3 21.3178 5.04486   1
   4   3  -3 13.0705 4.64328   1
   3  -3  -3 313.946 12.8878   1
  -3  -3   3 324.514 12.8369   1
  -3   3   3 311.921 12.6435   1
   3   3  -3 318.537 12.9712   1
  -2  -3   3 126.605 9.38207   1
   2  -3  -3 122.087 8.45029   1
   2   3  -3 124.511 8.41230   1
  -2   3   3 136.563 8.73963   1
  -2   3   3 116.028 8.88215   1
   1  -3  -3 264.565 10.5007   1
  -1  -3   3 248.099 11.0996   1
   1   3  -3 271.201 10.5833   1
  -1   3   3 275.449 11.2693   1
   0  -3   3 915.744 19.8040   1
   0  -3  -3 926.908 18.5648   1
   0   3   3 891.173 19.7798   1
   0   3  -3 930.107 18.7281   1
   1  -3   3 487.441 12.1260   3
   1  -3   3 482.000 13.4920   1
   1   3   3 492.262 13.1927   1
   1   3   3 459.703 16.2768   3
   2  -3   3 59.1152 5.38894   1
   2  -3   3 70.8013 6.27292   1
   2  -3   3 68.5077 6.48473   3
   2   3   3 64.2903 5.23239   1
   2   3   3 61.5690 5.44895   1
   2   3   3 56.2547 5.82990   2
   2   3   3 75.9535 9.00433   3
   3  -3   3 83.8703 5.42162   1
   3  -3   3 93.8677 8.74909   3
   3  -3   3 90.7132 6.86193   1
   3   3   3 89.5389 5.66329   1
   3   3   3 89.4202 9.98735   3
   3   3   3 102.160 6.73391   2
   3   3   3 96.2835 5.46224   1
   4  -3   3 170.195 7.95927   1
   4  -3   3 174.596 6.76998   1
   4  -3   3 159.624 11.9417   3
   4   3   3 172.125 6.12151   1
   4   3   3 176.174 14.0258   3
   4   3   3 177.105 5.97179   1
   5  -3   3 77.4273 4.99389   1
   5  -3   3 103.368 12.4488   3
   5  -3   3 82.5305 6.14734   1
   5   3   3 105.155 13.5665   3
   6  -3   3 10.3638 3.67522   1
   6  -3   3 12.5990 7.09079   3
   6   3   3 6.58394 8.03288   3
   7  -3   3 12.1723 8.67556   3
   7   3   3 8.64511 8.84173   3
   8   3   3 111.775 17.6374   3
   9  -4  -3 7.59406 7.06191   1
   9   4  -3 -0.0881 5.99969   1
   8  -4  -3 78.0549 11.1227   1
   8   4  -3 67.3130 10.3388   1
   7  -4  -3 113.207 12.0450   1
   7   4  -3 121.574 12.7401   1
   6  -4  -3 112.760 11.6091   1
   6   4  -3 110.404 11.2023   1
   5  -4  -3 183.874 12.2171   1
  -5   4   3 181.550 10.2308   1
   5   4  -3 173.318 11.9258   1
   4  -4  -3 5.94076 4.58223   1
  -4  -4   3 -3.1502 3.52970   1
  -4  -4   3 6.06145 4.28562   1
   4   4  -3 3.48269 4.15194   1
  -4   4   3 7.32324 4.16000   1
  -3  -4   3 56.3153 7.03681   1
   3  -4  -3 35.5250 6.17665   1
   3   4  -3 53.0022 6.82097   1
  -3   4   3 50.2088 6.52876   1
   2  -4  -3 70.5921 7.26411   1
  -2  -4   3 77.1525 7.66527   1
  -2   4   3 77.1520 7.52006   1
   2   4  -3 86.9448 7.69362   1
  -1  -4   3 75.5333 7.36978   1
   1  -4  -3 76.7537 6.69560   1
  -1   4   3 82.9083 7.71161   1
   1   4  -3 64.9684 6.33401   1
  -1   4   3 91.0071 7.76338   1
   0  -4  -3 24.8929 4.34659   1
   0  -4   3 26.9497 4.90060   1
   0   4   3 36.9758 7.55385   3
   0   4   3 25.8265 4.96598   1
   0   4  -3 23.1640 4.06251   1
   1  -4   3 254.490 8.04804   3
   1  -4   3 260.025 10.4867   1
   1   4   3 233.429 13.2540   3
   1   4   3 278.218 10.2741   1
   2  -4   3 51.0691 5.64347   1
   2  -4   3 54.7058 5.73221   3
   2   4   3 63.3677 5.57003   1
   2   4   3 58.1558 8.54634   3
   2   4   3 55.1030 6.12329   2
   2   4   3 62.9673 5.35079   1
   3  -4   3 129.330 9.14218   3
   3  -4   3 140.357 7.90469   1
   3  -4   3 124.549 6.54700   1
   3   4   3 134.026 7.80460   2
   3   4   3 135.583 6.57565   1
   3   4   3 135.142 6.34815   1
   3   4   3 147.824 12.9144   3
   4  -4   3 44.4799 4.48385   1
   4  -4   3 50.1988 7.94019   3
   4  -4   3 54.4452 5.77430   1
   4   4   3 51.8708 4.19104   1
   4   4   3 57.3720 10.0896   3
   4   4   3 43.9050 5.63816   2
   4   4   3 45.8986 3.94907   1
   5  -4   3 48.6303 5.42959   1
   5  -4   3 61.4136 10.0461   3
   5  -4   3 55.0822 4.74917   1
   5   4   3 66.5987 11.2437   3
   6  -4   3 109.482 13.6121   3
   6  -4   3 96.0341 7.23302   1
   6   4   3 84.4153 14.0587   3
   7  -4   3 67.2763 12.5890   3
   7  -4   3 59.1511 6.10621   1
   7   4   3 46.2067 11.8860   3
   8   4   3 7.01199 9.45834   3
   9  -5  -3 18.4396 8.30494   1
   9   5  -3 39.2490 9.40341   1
   8  -5  -3 16.2192 7.12021   1
   8   5  -3 7.82846 6.61160   1
   7  -5  -3 263.970 16.1675   1
   7   5  -3 258.477 15.6640   1
   6  -5  -3 33.4691 7.81423   1
   6   5  -3 40.3893 8.04834   1
   5  -5  -3 37.8919 7.44960   1
  -5   5   3 38.1760 6.19564   1
   5   5  -3 35.5169 7.12996   1
  -4  -5   3 88.3239 8.21003   1
   4  -5  -3 96.0728 9.61646   1
  -4   5   3 81.7956 7.97416   1
   4   5  -3 92.5537 9.31402   1
   3  -5  -3 128.360 10.2744   1
  -3  -5   3 133.269 9.69976   1
  -3   5   3 125.537 9.14663   1
   3   5  -3 146.631 9.80899   1
  -2  -5   3 0.02268 4.22795   1
   2  -5  -3 -3.1809 3.67315   1
   2   5  -3 -0.9250 3.52288   1
  -2   5   3 -0.4141 3.81994   1
  -1  -5   3 211.947 10.8448   1
   1  -5  -3 204.248 9.82846   1
  -1   5   3 213.237 10.1582   1
  -1   5   3 216.133 10.4633   1
   1   5  -3 208.600 9.65984   1
   0  -5   3 502.077 15.2841   1
   0  -5  -3 512.755 13.6704   1
   0   5  -3 524.945 13.9016   1
   0   5   3 543.579 15.0159   1
   0   5   3 542.639 18.6485   3
   1  -5   3 394.476 9.03850   3
   1  -5   3 376.392 12.6385   1
  -1   5  -3 394.974 12.4276   1
   1   5   3 408.071 12.4131   1
   1   5   3 380.150 16.4888   3
   2  -5   3 1068.03 20.2038   3
   2  -5   3 1069.73 21.4842   1
   2   5   3 1082.27 20.5609   1
   2   5   3 1065.89 27.5457   3
   2   5   3 1061.34 22.0642   2
   2   5   3 1097.14 20.0470   1
   3  -5   3 104.127 7.60691   1
   3  -5   3 110.157 8.22621   3
   3  -5   3 99.2786 6.27411   1
   3   5   3 99.9003 8.11630   2
   3   5   3 92.3649 6.24887   1
   3   5   3 77.7607 10.3386   3
   3   5   3 101.689 6.18365   1
   4  -5   3 2.79259 2.84355   1
   4  -5   3 4.23874 4.25286   1
   4  -5   3 -1.1190 4.46084   3
   4   5   3 2.47058 2.78076   1
   4   5   3 -2.9957 5.73504   3
   4   5   3 -0.4718 2.78649   1
   4   5   3 -2.4253 3.49234   2
   5  -5   3 170.363 8.93041   1
   5  -5   3 159.889 7.44135   1
   5  -5   3 183.188 13.9189   3
   5   5   3 178.793 18.0427   3
   6  -5   3 57.9897 10.9239   3
   6  -5   3 56.0179 6.19075   1
   6   5   3 63.0399 12.7693   3
   7  -5   3 26.6904 5.55471   1
   7   5   3 39.2193 11.7774   3
   8  -5   3 4.41837 5.01017   1
   8   5   3 7.16444 9.38608   3
   9  -6  -3 56.8900 11.0871   1
   9   6  -3 66.6901 11.4181   1
   8  -6  -3 97.7883 12.2832   1
   8   6  -3 75.8405 11.0961   1
   7  -6  -3 141.824 13.4582   1
   7   6  -3 107.630 11.7946   1
   6  -6  -3 16.8818 7.02822   1
   6   6  -3 41.9207 8.02186   1
   5  -6  -3 81.6844 10.2650   1
  -5   6   3 84.3477 8.18268   1
   5   6  -3 70.0720 9.05677   1
  -4  -6   3 78.5559 8.00212   1
   4  -6  -3 81.5440 9.28355   1
   4   6  -3 74.7286 8.43717   1
  -4   6   3 81.6185 8.09397   1
  -3  -6   3 743.223 20.1580   1
   3  -6  -3 729.333 20.4843   1
   3   6  -3 801.541 21.0108   1
  -3   6   3 764.542 20.1910   1
  -2  -6   3 843.271 21.0995   1
   2  -6  -3 866.149 21.2438   1
   2   6  -3 848.657 20.9282   1
  -2   6   3 850.264 21.0174   1
   1  -6  -3 434.239 13.7137   1
  -1  -6   3 438.662 14.5482   1
  -1   6   3 400.984 13.9174   1
   1   6  -3 424.887 13.7112   1
   0  -6   3 6.78234 4.52105   1
   0  -6  -3 4.30892 3.42538   1
   0   6  -3 10.3975 3.38385   1
   0   6   3 6.59983 3.81486   1
   0   6   3 6.54568 3.66269   1
   0   6   3 13.3893 7.33114   3
   1  -6   3 63.4456 6.80134   1
   1  -6   3 72.2850 3.66297   3
   1   6   3 73.6447 7.40100   2
   1   6   3 71.5658 6.67450   1
   1   6   3 70.7245 10.0901   3
  -1   6  -3 74.0387 5.44359   1
   2  -6   3 28.9520 5.28853   1
   2  -6   3 23.4321 3.80218   3
   2   6   3 29.1746 4.63377   1
   2   6   3 23.2476 4.99820   2
   2   6   3 36.7098 5.19864   1
   2   6   3 30.7973 7.48897   3
   3  -6   3 235.261 10.3125   1
   3  -6   3 244.140 9.36347   1
   3  -6   3 228.634 10.5764   3
   3   6   3 225.486 15.1440   3
   3   6   3 237.319 8.70493   1
   3   6   3 246.459 8.99498   1
   3   6   3 229.662 10.8673   2
   4  -6   3 2.70694 4.82481   3
   4  -6   3 9.75196 4.83078   1
   4  -6   3 9.77235 3.53137   1
   4   6   3 6.75355 3.13936   1
   4   6   3 9.49603 6.93336   3
   4   6   3 12.6947 4.77793   2
   4   6   3 3.72055 3.16472   1
   5  -6   3 17.5003 6.84578   3
   5  -6   3 13.6749 4.82175   1
   5   6   3 13.5676 3.05741   1
   5   6   3 13.8375 3.24771   1
   5   6   3 7.10328 7.63489   3
   6  -6   3 17.7234 5.17769   1
   6   6   3 17.7232 8.93669   3
   7  -6   3 18.3387 5.58203   1
   7   6   3 7.71776 9.17955   3
   8   6   3 28.6882 12.1981   3
   9  -7  -3 289.729 19.3301   1
   9   7  -3 279.381 18.7278   1
   8  -7  -3 24.0021 8.06556   1
   8   7  -3 19.5530 7.52261   1
   7  -7  -3 1.67753 5.83966   1
   7   7  -3 0.71722 5.32267   1
   6  -7  -3 -8.8464 4.80122   1
   6   7  -3 3.50402 5.45453   1
   5  -7  -3 -7.9601 4.94752   1
   5   7  -3 3.49876 5.01740   1
  -5   7   3 -3.7926 3.77144   1
  -4  -7   3 194.962 10.9842   1
   4  -7  -3 230.890 13.2207   1
  -4   7   3 204.665 11.3500   1
   4   7  -3 177.038 11.3534   1
  -3  -7   3 112.801 9.39636   1
   3  -7  -3 85.5680 8.83238   1
   3   7  -3 81.2514 8.20728   1
  -3   7   3 87.0003 8.35051   1
  -2  -7   3 849.864 21.3626   1
   2  -7  -3 828.834 21.0175   1
  -2   7   3 792.089 20.6814   1
   2   7  -3 846.848 21.1153   1
   1  -7  -3 651.099 17.5239   1
  -1  -7   3 663.075 18.3062   1
  -1   7   3 670.112 18.1798   1
   1   7  -3 630.646 17.1266   1
   0  -7  -3 248.138 10.1541   1
   0  -7   3 276.255 12.1902   1
   0   7   3 286.911 15.8127   3
   0   7   3 260.168 11.2130   1
   0   7  -3 277.613 10.5588   1
   1  -7   3 3.64926 4.45695   1
   1   7   3 -3.6150 6.43230   3
   1   7   3 11.8257 4.05064   1
  -1   7  -3 2.66683 2.74797   1
   1   7   3 6.59541 4.66120   2
   1   7   3 2.46454 3.36772   1
   2  -7   3 -1.3410 4.11117   1
   2  -7   3 9.19710 2.90285   3
   2   7   3 8.11056 4.46077   2
   2   7   3 4.93002 3.26462   1
   2   7   3 -1.3009 5.66444   3
   3  -7   3 29.5814 5.37495   3
   3  -7   3 36.3162 5.94510   1
   3  -7   3 34.9919 4.90247   1
   3   7   3 35.5360 4.81551   1
   3   7   3 34.6189 4.74004   1
   3   7   3 25.5909 8.03295   3
   3   7   3 41.3396 6.31717   2
   4  -7   3 0.33647 2.85966   1
   4  -7   3 2.91844 4.86612   1
   4  -7   3 -6.5524 4.00850   3
   4   7   3 3.34193 6.89315   3
   4   7   3 -0.3878 2.88424   1
   4   7   3 -2.5772 4.01928   2
   4   7   3 7.86921 3.49448   1
   5  -7   3 8.85325 4.99060   1
   5  -7   3 0.94740 5.69734   3
   5   7   3 5.51491 3.29183   1
   5   7   3 4.41501 7.26213   3
   5   7   3 5.97582 2.90879   1
   6  -7   3 111.993 8.81115   1
   6   7   3 122.387 16.5347   3
   7  -7   3 4.66855 4.81937   1
   7   7   3 5.44102 8.98886   3
   8  -8  -3 0.05694 6.16375   1
   8   8  -3 6.94117 6.29883   1
   7  -8  -3 105.572 12.2770   1
   7   8  -3 135.125 13.2559   1
   6  -8  -3 95.4865 11.4579   1
   6   8  -3 103.868 11.2890   1
   5  -8  -3 474.424 19.5683   1
   5   8  -3 479.215 18.7760   1
  -5   8   3 483.202 21.8862   1
   4  -8  -3 -0.2585 5.13290   1
  -4  -8   3 8.24725 5.05907   1
   4   8  -3 0.45662 4.28444   1
  -4   8   3 7.28140 4.65463   1
   4   8  -3 4.12266 5.17378   3
  -3  -8   3 284.236 12.9273   1
   3  -8  -3 307.681 13.7712   1
   3   8  -3 301.338 13.3469   1
  -3   8   3 328.322 13.4836   1
  -2  -8   3 529.725 17.0587   1
   2  -8  -3 518.203 16.6181   1
   2   8  -3 531.728 16.6530   1
  -2   8   3 522.143 16.7873   1
  -1  -8   3 209.670 11.2651   1
   1  -8  -3 204.203 10.3597   1
  -1   8   3 221.696 10.9121   1
   1   8  -3 228.997 10.5271   1
   0  -8   3 425.695 14.8038   1
   0  -8  -3 387.698 12.7807   1
   0   8  -3 395.662 12.9088   1
   0   8   3 398.601 18.6938   3
   0   8   3 423.105 14.0864   1
   1  -8   3 396.921 14.2797   1
   1   8   3 397.430 14.5244   2
  -1   8  -3 429.230 12.1750   1
   1   8   3 415.358 18.4496   3
   1   8   3 416.810 13.5350   1
   2  -8   3 206.567 10.8694   1
   2   8   3 200.074 10.9701   2
   2   8   3 183.664 14.1788   3
   2   8   3 203.245 9.23872   1
   2   8   3 194.179 9.23908   1
   3  -8   3 10.2851 5.18101   1
   3   8   3 13.1747 3.92153   1
   3   8   3 7.96241 6.83919   3
   3   8   3 1.78953 4.58571   2
   3   8   3 8.84986 3.77463   1
   3   8   3 4.48813 3.55762   1
   4  -8   3 38.5546 6.81158   1
   4  -8   3 34.1521 5.16780   1
   4   8   3 43.9650 5.24698   1
   4   8   3 22.5261 8.86745   3
   4   8   3 33.1925 6.66947   2
   4   8   3 33.6251 4.67455   1
   5  -8   3 7.12996 5.20135   1
   5   8   3 9.76969 3.55147   1
   5   8   3 9.19111 3.38403   1
   5   8   3 0.23167 4.14411   2
   5   8   3 3.82483 7.25196   3
   6  -8   3 20.6619 5.87079   1
   6   8   3 41.0472 11.1687   3
   6   8   3 19.9995 3.86191   1
   7  -8   3 50.1613 7.71301   1
   7   8   3 75.9792 5.90934   1
   7   8   3 74.7225 15.3496   3
   8  -9  -3 31.2259 8.64820   1
   8   9  -3 5.50005 6.37654   1
   7  -9  -3 27.6236 7.90143   1
   7   9  -3 32.5636 8.33046   1
   6  -9  -3 152.127 14.3059   1
   6   9  -3 141.419 13.0399   1
   5  -9  -3 1362.67 33.3694   1
   5   9  -3 1386.34 38.7547   3
   5   9  -3 1328.36 32.5046   1
  -4  -9   3 40.1642 7.00010   1
   4  -9  -3 31.2869 7.23623   1
  -4   9   3 21.7258 5.64898   1
   4   9  -3 25.5680 6.19655   1
   4   9  -3 28.2094 7.46423   3
  -3  -9   3 14.4301 5.59646   1
   3  -9  -3 18.3709 5.81983   1
   3   9  -3 17.1267 5.51799   3
  -3   9   3 18.7667 5.35796   1
   3   9  -3 15.8695 5.31806   1
   2  -9  -3 154.988 10.3474   1
  -2  -9   3 166.905 10.8267   1
   2   9  -3 168.861 10.2453   1
  -2   9   3 156.327 10.3994   1
  -1  -9   3 405.201 15.3332   1
   1  -9  -3 400.662 14.1196   1
   1   9  -3 419.919 14.2877   1
   0  -9  -3 38.3729 5.66714   1
   0  -9   3 39.0714 6.51957   1
   0   9   3 32.3059 5.65421   1
   0   9   3 38.2154 9.68616   3
   0   9  -3 42.2547 5.72233   1
   1  -9   3 136.615 9.86761   1
  -1  -9  -3 132.881 7.91462   1
  -1   9  -3 145.019 7.74713   1
   1   9   3 133.290 13.6340   3
   1   9   3 134.215 8.62759   1
   1   9   3 151.676 10.6804   2
   2  -9   3 16.6890 5.40278   1
   2   9   3 11.5323 4.06115   1
   2   9   3 5.50851 4.91886   2
   2   9   3 6.54563 6.65163   3
   3  -9   3 10.1052 5.54354   1
   3   9   3 14.4280 4.26415   1
   3   9   3 10.9434 7.54341   3
   3   9   3 12.1763 5.59884   2
   3   9   3 19.7350 4.52667   1
   4  -9   3 143.512 10.8793   1
   4  -9   3 112.711 8.50837   1
   4   9   3 136.056 11.3351   2
   4   9   3 148.745 8.32679   1
   4   9   3 119.420 14.6328   3
   4   9   3 133.211 7.90058   1
   5  -9   3 22.4902 6.07875   1
   5   9   3 22.0266 5.82887   2
   5   9   3 28.4876 4.63478   1
   5   9   3 20.2059 8.94891   3
   6  -9   3 172.674 11.5584   1
   6   9   3 144.934 7.80339   1
   6   9   3 182.025 20.0985   3
   7  -9   3 1.95702 5.43433   1
   7   9   3 8.28480 3.54834   1
   7   9   3 1.75036 8.74026   3
   8 -10  -3 18.7581 8.15139   1
   8  10  -3 24.2059 8.23972   1
   7 -10  -3 15.3082 7.49169   1
   7  10  -3 31.4906 8.24150   1
   6 -10  -3 196.346 16.0143   1
   6  10  -3 238.136 22.0895   3
   6  10  -3 196.601 13.8457   1
   5 -10  -3 102.405 11.5644   1
   5  10  -3 112.577 11.3428   1
   5  10  -3 97.1572 12.7997   3
   4 -10  -3 536.940 19.8023   1
  -4 -10   3 501.879 17.6945   1
   4  10  -3 506.304 20.6326   3
   4  10  -3 534.067 19.2157   1
  -4  10   3 505.249 17.5834   1
   3 -10  -3 95.7008 9.54372   1
  -3 -10   3 93.6134 9.44932   1
   3  10  -3 114.353 10.4283   3
   3  10  -3 90.4060 9.18497   1
  -3  10   3 100.985 9.53631   1
  -2 -10   3 528.022 17.6139   1
   2 -10  -3 519.116 17.3393   1
  -2  10   3 531.294 17.6464   1
   2  10  -3 533.774 15.7251   3
   2  10  -3 542.697 17.4747   1
  -1 -10   3 54.5758 7.64546   1
   1 -10  -3 59.9868 7.39312   1
   1  10  -3 41.6520 5.86187   1
  -1  10   3 51.8732 6.89694   1
   0 -10   3 298.056 13.3884   1
   0 -10  -3 288.230 11.7657   1
   0  10  -3 300.095 11.8143   1
   0  10   3 314.690 19.0245   3
   0  10   3 282.603 12.5341   1
  -1 -10  -3 977.780 20.1149   1
   1 -10   3 964.102 23.5040   1
   1  10   3 974.519 24.6545   2
  -1  10  -3 972.772 20.7030   1
   1  10   3 965.038 28.7842   3
   1  10   3 1006.09 22.6000   1
   2 -10   3 1.04572 4.99033   1
   2  10   3 2.43392 3.48445   1
   2  10   3 -2.3272 4.75625   2
   2  10   3 -1.0752 6.38496   3
   3 -10   3 -0.8815 5.19197   1
   3  10   3 5.47756 5.25064   2
   3  10   3 9.04862 3.92134   1
   3  10   3 17.7321 4.64224   1
   3  10   3 2.03851 6.98237   3
   4 -10   3 9.09987 6.16962   1
   4  10   3 8.98863 5.28937   2
   4  10   3 3.69831 3.87313   1
   4  10   3 8.98104 4.47473   1
   4  10   3 0.53871 7.35869   3
   5 -10   3 270.993 13.6703   1
   5  10   3 308.980 21.1728   3
   5  10   3 255.637 10.4227   1
   5  10   3 283.994 14.5339   2
   6 -10   3 11.7208 6.12987   1
   6  10   3 8.91895 8.74959   3
   6  10   3 10.5682 3.86295   1
   7 -10   3 21.1658 6.99973   1
   7  10   3 17.6227 4.22836   1
   7  10   3 15.1385 10.4897   3
   8 -11  -3 9.96079 7.29442   1
   8  11  -3 5.71661 6.77589   1
   7 -11  -3 21.8903 7.81048   1
   7  11  -3 6.75766 9.16667   3
   7  11  -3 19.8533 7.35136   1
   6 -11  -3 14.6939 6.87465   1
   6  11  -3 28.3495 7.51397   1
   6  11  -3 16.6864 8.68105   3
   5 -11  -3 22.1952 7.47447   1
   5  11  -3 36.3400 8.98391   3
   5  11  -3 21.0404 6.81659   1
  -4 -11   3 223.317 12.5783   1
   4 -11  -3 184.402 13.1481   1
   4  11  -3 197.487 14.1156   3
  -4  11   3 189.256 11.9123   1
   4  11  -3 184.287 12.3167   1
  -3 -11   3 26.6627 6.62794   1
   3 -11  -3 23.9879 6.60904   1
   3  11  -3 17.5998 5.56929   1
   3  11  -3 33.9597 6.71637   3
  -3  11   3 15.1187 5.49507   1
  -2 -11   3 222.270 12.7828   1
   2 -11  -3 219.941 12.1459   1
  -2  11   3 221.458 12.2832   1
   2  11  -3 234.385 10.5970   3
   1 -11  -3 60.8532 7.48025   1
  -1 -11   3 50.1305 7.54431   1
  -1  11   3 58.1060 7.72422   1
   1  11  -3 61.5675 7.27205   1
   0 -11   3 153.957 11.3662   1
   0 -11  -3 153.124 9.44759   1
   0  11  -3 142.159 8.81905   1
   0  11   3 159.536 14.9959   3
   0  11   3 161.163 10.1137   1
  -1 -11  -3 122.930 8.08568   1
   1 -11   3 98.9628 9.34898   1
   1  11   3 132.116 14.4189   3
  -1  11  -3 99.4533 7.17007   1
   1  11   3 116.611 9.48870   1
   1  11   3 95.4388 9.71333   2
   2 -11   3 117.933 10.2089   1
   2  11   3 87.3222 9.89239   2
   2  11   3 114.321 13.0060   3
   2  11   3 102.466 8.63702   1
   3 -11   3 3.66696 5.72048   1
   3  11   3 -0.8888 7.08964   3
   3  11   3 1.68975 5.21674   2
   3  11   3 -2.9338 3.56903   1
   4 -11   3 219.074 13.4269   1
   4  11   3 222.109 13.2662   1
   4  11   3 238.675 10.8343   1
   4  11   3 200.061 13.2505   2
   4  11   3 196.717 18.2613   3
   5 -11   3 20.7417 6.87643   1
   5  11   3 21.0935 9.57484   3
   5  11   3 21.4007 4.74753   1
   5  11   3 23.1740 6.70912   2
   6 -11   3 173.268 12.7831   1
   6  11   3 222.500 23.0382   3
   6  11   3 169.748 9.36170   1
   7 -11   3 88.1313 10.1151   1
   7  11   3 86.5838 16.2817   3
   7  11   3 79.5534 7.47763   1
   8 -12  -3 16.3597 8.06508   1
   8  12  -3 -1.0359 6.23448   1
   7 -12  -3 47.5900 10.1364   1
   7  12  -3 35.1497 11.4045   3
   7  12  -3 31.5724 8.36699   1
   6 -12  -3 -1.3783 6.11742   1
   6  12  -3 -0.3615 6.36813   3
   6  12  -3 8.19765 5.78984   1
   5 -12  -3 28.4168 8.34586   1
   5  12  -3 29.7220 7.50683   1
   5  12  -3 38.9242 9.44273   3
  -4 -12   3 18.7127 6.43358   1
   4 -12  -3 28.9636 8.00855   1
   4  12  -3 22.3538 6.38059   1
   4  12  -3 35.0565 8.22396   3
  -4  12   3 18.1758 5.93741   1
  -3 -12   3 173.818 12.1863   1
   3 -12  -3 150.761 12.1398   1
  -3  12   3 170.588 11.2806   1
   3  12  -3 191.246 12.0744   3
   3  12  -3 181.756 11.9506   1
  -2 -12   3 246.234 13.6817   1
   2 -12  -3 236.202 12.8973   1
  -2  12   3 234.240 12.5230   1
   2  12  -3 248.636 12.7559   1
   2  12  -3 271.423 11.5081   3
  -1 -12   3 850.540 23.5459   1
   1 -12  -3 847.012 22.1929   1
  -1  12   3 859.290 22.7945   1
   1  12  -3 885.216 17.3393   3
   1  12  -3 852.047 22.2373   1
   0 -12  -3 10.1768 4.55479   1
   0 -12   3 5.77583 5.53475   1
   0  12   3 0.39377 3.90422   1
   0  12  -3 7.38553 3.82274   1
   0  12   3 -1.6666 8.90018   3
   1 -12   3 42.3426 7.51203   1
  -1 -12  -3 36.7194 5.76190   1
  -1  12  -3 47.8937 6.04375   1
   1  12   3 49.1651 6.96009   1
   1  12   3 46.7487 7.75897   2
   1  12   3 52.2896 10.7038   3
   2 -12   3 2.99404 5.64853   1
   2  12   3 0.24283 5.75605   2
   2  12   3 8.33021 7.82081   3
   2  12   3 -2.3425 3.52799   1
   3 -12   3 73.2175 9.37457   1
   3  12   3 59.8968 9.22290   2
   3  12   3 61.8934 7.31357   1
   3  12   3 54.4269 11.6474   3
   4 -12   3 1071.70 27.4007   1
   4  12   3 1080.89 29.3729   2
   4  12   3 1121.25 24.2286   1
   4  12   3 1121.40 36.3155   3
   5 -12   3 415.924 17.2427   1
   5  12   3 369.233 13.4667   1
   5  12   3 368.122 17.7412   2
   5  12   3 379.580 23.9229   3
   6 -12   3 8.45936 6.57288   1
   6  12   3 -2.0772 3.65313   1
   6  12   3 -5.3490 6.73290   3
   7 -12   3 -2.9133 6.40052   1
   7  12   3 -3.0687 8.07127   3
   7  12   3 2.66694 3.98859   1
   8 -13  -3 18.5111 8.20919   1
   8  13  -3 11.7117 7.65560   1
   7 -13  -3 42.1345 9.64305   1
   7  13  -3 21.6095 8.10655   1
   7  13  -3 32.3456 11.3556   3
   6 -13  -3 26.2131 8.49837   1
   6  13  -3 33.0033 7.47899   1
   6  13  -3 24.1083 9.64043   3
   5 -13  -3 -4.2260 6.00856   1
   5  13  -3 1.82058 6.49340   3
   5  13  -3 2.86244 5.44594   1
   4 -13  -3 156.827 13.4095   1
  -4 -13   3 188.845 12.7928   1
  -4  13   3 167.987 11.7398   1
   4  13  -3 155.863 14.3349   3
   4  13  -3 166.140 12.4658   1
   3 -13  -3 287.280 15.3836   1
  -3 -13   3 279.834 14.7130   1
   3  13  -3 300.777 14.5050   3
  -3  13   3 280.432 14.1701   1
   3  13  -3 273.148 14.3826   1
   2 -13  -3 31.5088 6.73945   1
  -2 -13   3 45.8112 7.77635   1
  -2  13   3 46.3348 7.35745   1
   2  13  -3 42.6409 7.11077   1
   2  13  -3 44.8632 6.33781   3
  -1 -13   3 91.5239 10.1410   1
   1 -13  -3 95.6981 9.17904   1
   1  13  -3 94.8079 8.96894   1
  -1  13   3 96.6308 9.65369   1
   1  13  -3 79.5341 5.74058   3
   0 -13  -3 547.488 17.1048   1
   0 -13   3 581.584 19.6604   1
   0  13   3 561.049 18.2080   1
   0  13  -3 529.253 16.8020   1
   0  13   3 534.012 24.1531   3
   0  13   3 536.298 19.8934   2
  -1 -13  -3 114.332 8.95254   1
   1 -13   3 102.431 9.92874   1
  -1  13  -3 111.384 8.92313   1
   1  13   3 109.645 11.3003   2
   1  13   3 102.179 13.8691   3
   1  13   3 93.6448 9.20928   1
   2 -13   3 -0.3703 5.98146   1
   2  13   3 -0.4118 7.68084   3
   2  13   3 1.75540 4.02275   1
   2  13   3 -2.5420 5.67683   2
   3 -13   3 31.8921 7.68575   1
   3  13   3 20.5239 5.57840   1
   3  13   3 45.0419 8.83589   2
   3  13   3 20.2008 9.31461   3
   4 -13   3 154.325 12.8182   1
   4  13   3 169.291 10.2546   1
   4  13   3 175.185 13.3611   2
   4  13   3 148.524 16.8389   3
   5 -13   3 107.370 11.0399   1
   5  13   3 103.892 15.8426   3
   5  13   3 110.873 11.9808   2
   5  13   3 129.030 9.35053   1
   6 -13   3 15.0748 7.29385   1
   6  13   3 19.6131 5.21980   1
   6  13   3 26.9352 11.0851   3
   7 -13   3 60.0681 10.0162   1
   7  13   3 67.9210 15.4482   3
   7  13   3 72.1142 7.96152   1
   8 -14  -3 22.5882 8.72571   1
   8  14  -3 57.0532 15.1447   3
   8  14  -3 46.1615 10.5236   1
   7 -14  -3 13.4941 7.41451   1
   7  14  -3 -0.2365 5.38376   1
   7  14  -3 2.29670 7.74155   3
   6 -14  -3 16.2999 7.75911   1
   6  14  -3 24.8578 7.29584   1
   6  14  -3 29.6298 9.90067   3
   5 -14  -3 146.496 14.0636   1
   5  14  -3 127.910 15.0205   3
   5  14  -3 129.002 12.6736   1
   4 -14  -3 190.272 15.0153   1
  -4 -14   3 166.939 12.7501   1
   4  14  -3 171.655 13.8905   3
   4  14  -3 172.344 12.8684   1
  -4  14   3 177.364 12.3449   1
  -3 -14   3 9.74569 6.44699   1
   3 -14  -3 2.49448 6.30433   1
  -3  14   3 15.5750 5.66222   1
   3  14  -3 5.84927 4.88468   1
   3  14  -3 8.96124 5.26833   3
  -2 -14   3 -6.9374 5.52411   1
   2 -14  -3 -5.3410 4.64386   1
   2  14  -3 -0.7750 3.38019   3
   2  14  -3 -1.6518 3.94337   1
  -2  14   3 2.57544 4.48026   1
   1 -14  -3 50.0529 7.97139   1
  -1 -14   3 56.5570 8.84650   1
   1  14  -3 49.3389 5.20701   3
  -1  14   3 53.4367 7.41198   1
   1  14  -3 44.4251 6.97062   1
   0 -14  -3 223.179 12.2100   1
   0 -14   3 223.231 14.0833   1
   0  14   3 257.424 13.0589   1
   0  14   3 222.913 14.3790   2
   0  14   3 220.291 18.4291   3
   0  14  -3 230.087 11.6375   1
   1 -14   3 7.60152 6.22887   1
  -1 -14  -3 14.3302 5.42912   1
   1  14   3 7.04183 4.47511   1
  -1  14  -3 6.86807 3.47831   2
   1  14   3 -1.0107 5.72957   2
   1  14   3 11.6500 9.49002   3
  -1  14  -3 5.57712 3.65546   1
   2 -14   3 9.38133 6.71201   1
  -2  14  -3 5.66510 3.13070   2
   2  14   3 -4.3295 8.04678   3
   2  14   3 1.71142 5.85057   2
   2  14   3 2.16179 4.24232   1
  -2  14  -3 5.72386 3.78751   1
   3 -14   3 13.7412 7.24716   1
   3  14   3 13.7744 9.29071   3
   3  14   3 10.4156 6.83857   2
   3  14   3 8.16387 4.61539   1
   4 -14   3 3.44991 6.81919   1
   4  14   3 -7.1826 7.31905   3
   4  14   3 0.66940 4.41548   1
   4  14   3 -3.3135 5.74544   2
   5 -14   3 146.390 13.1281   1
   5  14   3 135.778 17.7063   3
   5  14   3 151.827 10.4648   1
   5  14   3 163.893 14.9225   2
   6 -14   3 76.2287 10.6021   1
   6  14   3 83.0711 8.81053   1
   6  14   3 93.5780 16.5795   3
   6  14   3 116.354 13.6710   2
   7 -14   3 25.8622 8.72617   1
   7  14   3 31.0541 6.54953   1
   7  14   3 51.3421 13.8853   3
   8 -15  -3 21.7192 8.79837   1
   8  15  -3 2.94754 6.69881   1
   8  15  -3 6.25275 10.2534   3
   7 -15  -3 23.0435 8.23805   1
   7  15  -3 14.2824 6.91775   1
   7  15  -3 -3.2388 7.96929   3
   6 -15  -3 321.636 19.0416   1
   6  15  -3 307.916 21.2962   3
   6  15  -3 285.810 17.4465   1
   5 -15  -3 5.79615 7.28861   1
   5  15  -3 3.55271 6.88835   3
   5  15  -3 2.78700 5.43592   1
  -4 -15   3 41.5512 8.31903   1
   4 -15  -3 26.8628 8.36958   1
   4  15  -3 32.5864 7.33472   1
   4  15  -3 39.0310 8.62926   3
  -4  15   3 29.8069 6.80629   1
   3 -15  -3 23.7835 7.76277   1
  -3 -15   3 14.6366 7.14022   1
  -3  15   3 16.5483 5.89132   1
   3  15  -3 17.1939 5.99356   1
   3  15  -3 7.89249 5.05308   3
   2 -15  -3 194.750 13.5106   1
  -2 -15   3 155.502 13.0649   1
  -2  15   3 180.057 12.0753   1
   2  15  -3 181.175 11.8556   1
   2  15  -3 171.683 10.1042   3
   1 -15  -3 411.710 16.4373   1
  -1 -15   3 386.054 17.4300   1
  -1  15   3 377.486 16.3688   1
   1  15  -3 404.391 16.0022   1
   1  15  -3 388.253 11.7750   3
   0 -15   3 5.43503 6.68741   1
   0 -15  -3 7.43630 5.14937   1
   0  15  -3 2.38020 3.92255   2
   0  15   3 8.52101 6.75228   2
   0  15  -3 14.0196 4.79628   1
   0  15   3 3.87667 9.92126   3
   0  15   3 2.83469 4.55833   1
  -1 -15  -3 5.01821 5.36294   1
   1 -15   3 -2.8796 6.30507   1
  -1  15  -3 8.51050 4.17238   1
   1  15   3 16.7178 10.0725   3
  -1  15  -3 3.46303 3.62133   2
   1  15   3 7.81666 6.36671   2
   1  15   3 3.24852 4.54683   1
   2 -15   3 86.0367 10.8230   1
   2  15   3 76.7046 13.2880   3
   2  15   3 112.136 12.4853   2
  -2  15  -3 93.8769 8.05421   1
   2  15   3 86.4560 9.06360   1
  -2  15  -3 87.3111 6.75309   2
   3 -15   3 92.0044 11.4331   1
   3  15   3 82.3836 9.19160   1
   3  15   3 95.5882 14.8625   3
   3  15   3 109.138 12.7225   2
   4 -15   3 67.1297 10.2909   1
   4  15   3 63.3988 10.4270   2
   4  15   3 83.4900 14.4717   3
   4  15   3 64.6752 7.99948   1
   5 -15   3 7.79437 7.34165   1
   5  15   3 2.89338 5.80213   2
   5  15   3 6.33979 4.63748   1
   5  15   3 7.85352 8.50575   3
   6 -15   3 168.755 14.6776   1
   6  15   3 165.966 11.5924   1
   6  15   3 198.405 22.1303   3
   6  15   3 210.478 17.8252   2
   7 -15   3 -2.3712 7.29056   1
   7  15   3 1.61044 4.48904   1
   7  15   3 7.23230 9.99243   3
   8 -16  -3 19.4633 9.05317   1
   8  16  -3 44.1295 10.0338   1
   8  16  -3 37.4114 13.9697   3
   7 -16  -3 27.8367 8.96637   1
   7  16  -3 27.2295 8.25721   1
   7  16  -3 50.4592 12.7360   3
   6 -16  -3 -14.791 5.45160   1
   6  16  -3 -5.1310 4.80591   1
   6  16  -3 0.52906 7.10922   3
   5 -16  -3 28.1061 8.47210   1
   5  16  -3 30.9884 7.67014   1
   5  16  -3 34.5711 9.35455   3
  -4 -16   3 1107.19 29.2203   1
   4 -16  -3 1123.40 31.6660   1
   4  16  -3 1150.59 32.9601   3
   4  16  -3 1158.82 31.7833   1
  -4  16   3 1106.38 29.6992   1
   3 -16  -3 404.737 19.2755   1
  -3 -16   3 419.257 18.3358   1
   3  16  -3 393.691 17.2959   3
  -3  16   3 426.098 17.7200   1
   3  16  -3 378.205 17.5106   1
  -2 -16   3 26.5545 8.16284   1
   2 -16  -3 21.5057 7.30884   1
   2  16  -3 19.1760 5.93936   1
   2  16  -3 27.4477 5.81280   3
  -2  16   3 20.9932 6.12974   1
  -1 -16   3 70.3775 9.75304   1
   1 -16  -3 81.8033 9.59017   1
   1  16  -3 77.7035 8.65191   1
   1  16  -3 77.7772 6.42938   3
  -1  16   3 88.7126 9.93458   1
   0 -16   3 78.7745 10.5703   1
   0 -16  -3 114.276 10.3293   1
   0  16  -3 91.4391 9.33698   1
   0  16   3 86.8443 10.9945   2
   0  16   3 104.940 10.2633   1
   0  16  -3 118.399 9.85377   2
   0  16   3 141.973 17.4826   3
  -1 -16  -3 14.7787 6.08734   1
   1 -16   3 12.3732 7.18805   1
   1  16   3 26.5020 6.55688   1
   1  16   3 7.36188 7.04214   2
   1  16   3 7.93076 10.3118   3
  -1  16  -3 16.3688 4.72157   2
  -1  16  -3 15.5612 4.83911   1
   2 -16   3 97.4439 11.3260   1
  -2  16  -3 95.5451 7.50007   2
   2  16   3 83.5541 13.8019   3
   2  16   3 68.9849 8.95722   1
   2  16   3 51.8323 9.71259   2
  -2  16  -3 87.5233 8.17839   1
   3 -16   3 116.314 12.3985   1
  -3  16  -3 105.615 6.03832   2
   3  16   3 96.6335 14.5279   3
   3  16   3 114.191 10.7857   1
   3  16   3 130.427 13.8701   2
   4 -16   3 349.133 18.2025   1
   4  16   3 380.510 16.0981   1
   4  16   3 375.095 23.9166   3
   4  16   3 374.435 19.6037   2
   5 -16   3 385.676 19.7660   1
   5  16   3 411.642 16.4108   1
   5  16   3 388.643 25.4730   3
   5  16   3 386.180 19.9774   2
   6 -16   3 31.4233 9.10718   1
   6  16   3 41.3522 7.43435   1
   6  16   3 50.7174 10.4609   2
   6  16   3 48.0649 13.5678   3
   7 -16   3 -0.0254 8.00494   1
   7  16   3 8.70243 10.3585   3
   7  16   3 -1.4999 5.26262   1
   8 -17  -3 14.5805 8.87468   1
   8  17  -3 30.7219 9.74817   1
   8  17  -3 14.5046 10.6309   3
   7 -17  -3 9.68614 7.64227   1
   7  17  -3 0.54313 5.97611   1
   7  17  -3 12.6672 9.10070   3
   6 -17  -3 9.83996 7.74827   1
   6  17  -3 7.40425 7.81000   3
   6  17  -3 23.8393 8.20725   1
   5 -17  -3 616.868 24.7755   1
   5  17  -3 657.920 24.9661   1
   5  17  -3 647.653 27.8017   3
   4 -17  -3 583.617 23.6730   1
  -4 -17   3 581.825 21.8608   1
  -4  17   3 578.055 21.7903   1
   4  17  -3 591.177 23.6712   3
   4  17  -3 581.113 22.7270   1
   3 -17  -3 4.33128 7.15445   1
  -3 -17   3 10.4012 7.06436   1
   3  17  -3 5.02230 5.49495   1
   3  17  -3 6.53706 5.02314   3
  -3  17   3 10.1651 5.87582   1
  -2 -17   3 238.041 16.1580   1
   2 -17  -3 281.754 16.5141   1
  -2  17   3 282.166 15.5868   1
   2  17  -3 265.598 12.7515   3
   2  17  -3 267.974 14.7787   1
  -1 -17   3 17.3514 7.89716   1
   1 -17  -3 3.13726 5.83479   1
  -1  17   3 3.38333 7.18473   2
  -1  17   3 10.1923 5.71764   1
  -1  17   3 16.0626 11.4596   3
   1  17  -3 1.32924 4.45545   1
   1  17  -3 8.33983 3.69955   3
   1  17  -3 1.95670 4.68242   2
   0 -17  -3 0.07244 5.75473   1
   0 -17   3 -0.7134 6.76918   1
   0  17  -3 3.25546 4.18124   1
   0  17   3 3.55613 7.10617   2
   0  17  -3 -2.7098 4.10143   2
   0  17   3 3.75536 5.20105   1
   0  17  -3 -0.2427 2.17307   3
   0  17   3 -7.6261 9.94765   3
  -1 -17  -3 28.8229 7.01583   1
   1 -17   3 23.9229 8.07557   1
  -1  17  -3 27.7416 6.01488   1
   1  17   3 18.4531 11.1797   3
  -1  17  -3 19.2364 5.04102   2
   1  17   3 20.4117 6.40550   1
   1  17   3 21.2235 8.04752   2
   2 -17   3 99.8205 12.0077   1
  -2  17  -3 102.533 8.25624   2
   2  17   3 89.3048 14.4128   3
  -2  17  -3 94.6392 8.61310   1
   2  17   3 103.923 10.5785   1
   2  17   3 105.716 12.7024   2
   3 -17   3 108.083 12.5041   1
   3  17   3 102.929 13.0831   2
   3  17   3 109.496 10.8633   1
  -3  17  -3 108.113 6.79093   2
   3  17   3 136.193 17.7218   3
   4 -17   3 1.17954 7.18195   1
   4  17   3 12.7135 7.22978   2
   4  17   3 -3.6166 7.41151   3
   4  17   3 9.32556 5.26795   1
   5 -17   3 -3.3925 7.27991   1
   5  17   3 7.27773 9.00857   3
   5  17   3 10.7596 7.24956   2
   5  17   3 2.26055 4.67785   1
   6 -17   3 10.3709 8.47682   1
   6  17   3 -0.6159 8.69912   3
   6  17   3 22.5711 7.94154   2
   6  17   3 10.2045 5.84722   1
   7 -17   3 -4.8670 8.14700   1
   7  17   3 4.28891 10.0082   3
   7  17   3 19.3740 6.31399   1
   8 -18  -3 11.0005 9.33210   1
   8  18  -3 27.5752 9.35437   1
   8  18  -3 19.1315 11.5038   3
   7 -18  -3 28.5790 9.72989   1
   7  18  -3 23.6826 8.17243   1
   7  18  -3 23.7568 10.7979   3
   6 -18  -3 58.5580 11.5488   1
   6  18  -3 64.4743 12.8600   3
   6  18  -3 86.5643 12.1995   1
   5 -18  -3 136.521 14.7869   1
   5  18  -3 135.580 13.8140   1
   5  18  -3 120.344 14.9023   3
   4 -18  -3 164.997 15.1319   1
  -4 -18   3 145.201 15.2126   1
  -4  18   3 180.976 15.0191   1
   4  18  -3 154.332 15.0697   3
   4  18  -3 193.190 14.5198   1
  -3 -18   3 71.1218 10.4753   1
   3 -18  -3 75.6220 11.1966   1
   3  18  -3 73.9667 9.97505   1
  -3  18   3 79.7558 10.0627   1
   3  18  -3 71.1224 9.61932   3
   2 -18  -3 208.441 14.9121   1
  -2 -18   3 160.401 14.2893   1
  -2  18   3 190.559 13.1856   1
   2  18  -3 163.403 10.7464   3
   2  18  -3 161.116 12.1825   1
   1 -18  -3 0.32048 6.29293   1
  -1 -18   3 -2.1717 6.82543   1
   1  18  -3 3.08991 3.33124   3
   1  18  -3 -2.6776 4.12431   1
  -1  18   3 0.19132 11.9426   3
   1  18  -3 -6.1090 4.33637   2
  -1  18   3 3.35970 7.17010   2
  -1  18   3 -2.3659 4.97920   1
   0 -18  -3 250.002 14.5786   1
   0 -18   3 246.950 16.1109   1
   0  18   3 285.349 22.6865   3
   0  18  -3 254.428 8.00607   3
   0  18   3 244.652 17.4550   2
   0  18  -3 251.527 13.2592   2
   0  18  -3 246.339 13.3884   1
   0  18   3 278.277 15.1425   1
  -1 -18  -3 51.3183 8.48521   1
   1 -18   3 55.9271 10.0043   1
   1  18   3 60.7174 10.9016   2
  -1  18  -3 53.9239 7.73727   1
   1  18   3 67.6232 9.42198   1
  -1  18  -3 64.1183 7.90089   2
   1  18   3 50.1115 13.0351   3
   2 -18   3 73.1178 11.4712   1
  -2  18  -3 72.6630 7.52810   2
   2  18   3 80.9923 9.96157   1
  -2  18  -3 56.8130 7.80391   1
   2  18   3 79.7142 14.8917   3
   2  18   3 78.3586 11.8085   2
   3 -18   3 188.901 15.8978   1
  -3  18  -3 164.447 8.31137   2
   3  18   3 217.079 17.8582   2
   3  18   3 186.971 19.6499   3
   3  18   3 196.580 13.2503   1
   4 -18   3 2.03343 7.54598   1
   4  18   3 5.74134 4.77753   1
   4  18   3 -7.6628 8.05344   3
   4  18   3 -0.2244 6.35165   2
   5 -18   3 8.41234 7.84943   1
   5  18   3 5.83868 7.00438   2
   5  18   3 4.40900 5.35390   1
   5  18   3 3.10358 8.81455   3
   6 -18   3 4.87619 8.01300   1
   6  18   3 -2.0489 5.87774   2
   6  18   3 2.76618 4.92974   1
   6  18   3 -8.8951 7.31823   3
   7 -19  -3 7.42187 8.87349   1
   7  19  -3 2.49753 8.06921   3
   7  19  -3 1.41509 6.74020   1
   6 -19  -3 -13.856 6.75065   1
   6  19  -3 -4.0175 6.72989   3
   6  19  -3 2.12732 5.55672   1
   5 -19  -3 339.601 20.3633   1
   5  19  -3 317.296 20.2533   3
   5  19  -3 289.345 17.7764   1
   4 -19  -3 11.0570 7.73136   1
   4  19  -3 2.44249 5.47510   1
  -4  19   3 -1.1146 5.14929   1
   4  19  -3 14.4873 7.16227   3
   3 -19  -3 12.0952 7.69803   1
  -3 -19   3 0.79156 7.38915   1
   3  19  -3 20.1721 7.28282   1
  -3  19   3 13.6742 6.57039   1
   3  19  -3 17.3958 6.71806   3
   2 -19  -3 7.90172 7.17181   1
  -2 -19   3 8.80999 7.72876   1
   2  19  -3 8.18408 4.93652   3
   2  19  -3 -3.4026 4.76955   1
  -2  19   3 7.93965 5.67817   1
   1 -19  -3 9.21442 7.21820   1
  -1 -19   3 10.1843 7.61843   1
  -1  19   3 0.96044 5.58553   1
   1  19  -3 5.78918 5.01907   1
   1  19  -3 10.9985 5.85746   2
  -1  19   3 5.07187 7.98143   2
  -1  19   3 26.7922 13.5508   3
   1  19  -3 0.26360 3.41425   3
   0 -19   3 9.28221 7.92302   1
   0 -19  -3 7.22408 6.62913   1
   0  19  -3 1.41573 4.64501   2
   0  19  -3 3.52478 4.36416   1
   0  19   3 -5.6756 10.4337   3
   0  19  -3 7.13059 2.89058   3
   0  19   3 -3.4302 4.75975   1
   0  19   3 -2.1624 7.13476   2
  -1 -19  -3 19.0559 7.10772   1
   1 -19   3 16.7157 8.59899   1
   1  19   3 13.8230 8.12693   2
   1  19   3 23.6472 7.02555   1
  -1  19  -3 17.2759 5.34125   2
   1  19   3 12.5623 11.1460   3
  -1  19  -3 9.15868 5.13559   1
   2 -19   3 10.9095 8.80745   1
  -2  19  -3 15.5526 5.04681   2
   2  19   3 11.7791 6.12791   1
   2  19   3 29.9724 11.1015   3
   2  19   3 22.0507 8.71277   2
   3 -19   3 -3.3371 7.13518   1
   3  19   3 1.62935 9.43611   3
   3  19   3 3.49091 7.06657   2
   3  19   3 2.04637 5.12521   1
  -3  19  -3 -1.2324 3.14984   2
   4 -19   3 13.7429 8.48620   1
   4  19   3 8.54107 5.15720   1
   4  19   3 8.34011 9.24988   3
   4  19   3 10.6128 7.55384   2
   5 -19   3 129.249 14.5487   1
   5  19   3 120.779 12.1080   1
   5  19   3 121.274 18.4162   3
   5  19   3 154.297 16.7840   2
   6 -19   3 1.29115 8.52232   1
   6  19   3 8.03878 9.55727   3
   6  19   3 17.0408 7.93550   2
   6  19   3 7.49023 6.13815   1
   7 -20  -3 148.937 17.0786   1
   7  20  -3 137.799 19.1277   3
   7  20  -3 136.964 15.6248   1
   6 -20  -3 12.3934 8.19022   1
   6  20  -3 4.51506 7.80350   3
   6  20  -3 3.28003 5.96087   1
   5 -20  -3 30.0928 9.69984   1
   5  20  -3 53.2570 9.97256   1
   5  20  -3 66.8089 12.1963   3
   4 -20  -3 0.44997 7.23443   1
   4  20  -3 14.9199 6.58601   1
   4  20  -3 3.53566 6.10940   3
  -4  20   3 -1.4234 5.26350   1
   3 -20  -3 15.0450 8.42871   1
  -3 -20   3 35.8167 9.58230   1
   3  20  -3 25.7021 7.52947   3
  -3  20   3 33.1365 8.20284   1
   3  20  -3 27.6630 7.75067   1
  -2 -20   3 248.847 16.7243   1
   2 -20  -3 234.700 16.7234   1
  -2  20   3 236.105 15.2254   1
   2  20  -3 244.476 16.1358   2
   2  20  -3 199.772 14.4954   1
   2  20  -3 238.633 13.0081   3
  -1 -20   3 362.306 19.2953   1
   1 -20  -3 389.830 18.4852   1
  -1  20   3 367.074 27.0539   3
   1  20  -3 399.937 17.8030   2
  -1  20   3 399.349 21.3693   2
   1  20  -3 365.997 17.4576   1
  -1  20   3 389.087 18.3558   1
   1  20  -3 382.321 13.5148   3
   0 -20   3 11.0272 8.23081   1
   0 -20  -3 22.3715 7.57934   1
   0  20   3 9.25617 12.0514   3
   0  20  -3 19.3587 6.38924   1
   0  20   3 17.3628 8.77487   2
   0  20  -3 17.5755 3.73684   3
   0  20  -3 22.2446 6.58242   2
   0  20   3 9.63188 5.92685   1
  -1 -20  -3 51.5592 8.77794   1
   1 -20   3 37.7787 10.2220   1
   1  20   3 46.6349 10.8772   2
  -1  20  -3 58.3656 8.48340   1
   1  20   3 45.4684 8.55940   1
  -1  20  -3 49.3951 7.67396   2
   1  20   3 34.7831 13.1056   3
   2 -20   3 7.76368 8.37809   1
   2  20   3 3.58633 9.82780   3
  -2  20  -3 -4.1878 3.83106   2
   2  20   3 -1.0203 4.79936   1
   2  20   3 14.4518 8.74563   2
   3 -20   3 325.576 19.3032   1
   3  20   3 339.102 23.2778   3
  -3  20  -3 334.549 12.3079   2
   3  20   3 331.110 19.7195   2
   3  20   3 314.891 16.4349   1
   4 -20   3 17.8418 9.30592   1
   4  20   3 0.85342 6.52466   2
   4  20   3 -0.9224 5.16068   1
   4  20   3 9.25126 9.47851   3
   5 -20   3 138.271 15.3916   1
   5  20   3 133.736 18.9609   3
   5  20   3 133.172 15.6432   2
   5  20   3 130.556 12.9998   1
   6 -20   3 64.3355 12.2941   1
   6  20   3 29.2706 12.6033   3
   6  20   3 38.7629 8.11453   1
   6  20   3 45.2337 10.5986   2
   7 -21  -3 2.04541 7.94079   1
   7  21  -3 3.12517 8.08881   3
   7  21  -3 6.30768 6.92142   1
   6 -21  -3 11.5866 8.49763   1
   6  21  -3 0.66756 7.59141   3
   6  21  -3 20.3969 8.02055   1
   5 -21  -3 47.5246 11.1778   1
   5  21  -3 28.1443 8.15153   1
   5  21  -3 46.9913 11.0164   3
   4 -21  -3 12.3453 7.94968   1
   4  21  -3 -0.2793 5.46648   1
  -4  21   3 -2.9705 5.35880   1
   4  21  -3 3.25075 6.17973   3
  -3 -21   3 -3.2110 7.13239   1
   3 -21  -3 2.13856 7.62278   1
   3  21  -3 -1.9700 5.04260   3
   3  21  -3 -5.5639 5.05355   1
  -3  21   3 -0.4401 5.60266   1
  -2 -21   3 223.958 16.6884   1
   2 -21  -3 166.992 15.1979   1
   2  21  -3 196.665 12.2785   3
   2  21  -3 167.728 15.3528   2
  -2  21   3 177.239 17.3570   2
  -2  21   3 202.575 14.7205   1
   2  21  -3 203.433 14.7693   1
  -1 -21   3 283.405 18.0806   1
   1 -21  -3 278.348 16.9324   1
  -1  21   3 309.493 26.1971   3
   1  21  -3 276.973 15.7629   1
  -1  21   3 298.663 16.5200   1
  -1  21   3 288.296 19.4871   2
   1  21  -3 269.183 12.1023   3
   1  21  -3 321.894 16.9303   2
   0 -21  -3 2.87524 7.03399   1
   0 -21   3 9.13213 8.43091   1
   0  21   3 6.91317 6.21453   1
   0  21   3 19.1208 9.35013   2
   0  21  -3 6.94270 5.21200   1
   0  21  -3 12.4554 6.33142   2
   0  21   3 -6.8908 10.9032   3
   0  21  -3 6.21780 3.30533   3
  -1 -21  -3 14.7542 7.40272   1
   1 -21   3 6.89197 8.62247   1
   1  21   3 13.7361 6.49819   1
   1  21   3 5.76017 10.8809   3
  -1  21  -3 13.2760 5.62363   2
  -1  21  -3 -0.4541 4.45012   1
   1  21   3 22.5896 9.51467   2
   2 -21   3 14.0450 9.30800   1
   2  21   3 -1.3335 5.15144   1
  -2  21  -3 1.17847 4.30755   2
   2  21   3 -3.6125 7.55062   2
   2  21   3 1.89958 9.80199   3
   3 -21   3 279.093 18.6393   1
   3  21   3 278.960 15.9862   1
   3  21   3 302.804 19.8211   2
   3  21   3 289.353 21.9340   3
  -3  21  -3 313.631 13.7318   2
   4 -21   3 8.91829 8.76658   1
   4  21   3 5.38127 7.65210   2
   4  21   3 0.82829 8.18742   3
   4  21   3 1.67320 5.43125   1
   5 -21   3 18.2192 9.67505   1
   5  21   3 22.7555 11.5324   3
   5  21   3 13.7534 6.61875   1
   5  21   3 4.20468 7.13929   2
   6 -21   3 -6.2215 8.56117   1
   6  21   3 4.37188 9.66045   3
   6  21   3 -8.9603 4.80235   1
   6  21   3 9.62047 7.27540   2
   7 -22  -3 118.392 16.5297   1
   7  22  -3 89.6287 17.2336   3
   7  22  -3 98.4358 14.1855   1
   6 -22  -3 4.60573 8.56464   1
   6  22  -3 14.3916 7.88312   1
   6  22  -3 2.07045 7.43232   3
   5 -22  -3 21.2888 9.04002   1
   5  22  -3 11.9419 6.97227   1
   5  22  -3 25.0924 9.15862   3
   4 -22  -3 7.76577 7.96366   1
  -4  22   3 0.43882 5.47356   1
   4  22  -3 3.39993 6.01565   1
   4  22  -3 4.89518 6.39611   3
   3 -22  -3 10.2827 8.20959   1
  -3 -22   3 5.35741 7.75431   1
  -3  22   3 7.22543 6.27591   1
   3  22  -3 20.0128 6.98786   3
   3  22  -3 22.2531 7.55064   1
  -2 -22   3 114.195 13.8288   1
   2 -22  -3 109.534 13.3494   1
   2  22  -3 128.933 13.8541   2
   2  22  -3 117.557 11.3584   3
  -2  22   3 101.107 12.2793   1
   2  22  -3 93.2105 11.9006   1
  -2  22   3 99.6766 14.5490   2
  -1 -22   3 464.109 23.0690   1
   1 -22  -3 487.356 22.2156   1
   1  22  -3 504.766 20.9560   2
  -1  22   3 491.562 31.6855   3
   1  22  -3 528.887 21.6633   1
   1  22  -3 489.588 16.3280   3
  -1  22   3 481.258 21.2449   1
  -1  22   3 509.010 24.5522   2
   0 -22   3 3.79649 8.33784   1
   0 -22  -3 -4.9510 6.97702   1
   0  22   3 11.6428 6.54085   1
   0  22  -3 5.40353 5.47911   1
   0  22  -3 7.34461 5.79212   2
   0  22   3 -13.911 11.3542   3
   0  22   3 6.95479 8.41965   2
   0  22  -3 3.03780 3.32355   3
  -1 -22  -3 55.3580 13.7380   1
   1 -22   3 71.2936 12.1845   1
   1  22   3 51.9993 9.07521   1
  -1  22  -3 76.8660 9.90331   1
   1  22   3 47.8742 15.1097   3
  -1  22  -3 64.7394 8.61505   2
   1  22   3 60.2552 12.2136   2
   2 -22   3 32.2114 10.3132   1
   2  22   3 64.1386 14.2764   3
  -2  22  -3 69.6689 8.36927   2
   2  22   3 47.5483 11.0994   2
   2  22   3 49.7864 8.87184   1
   3 -22   3 117.096 14.0793   1
   3  22   3 114.447 14.7475   2
   3  22   3 70.9663 14.1660   3
   3  22   3 99.0865 11.7897   1
  -3  22  -3 117.487 12.8952   2
   4 -22   3 49.3167 11.3625   1
   4  22   3 33.2572 10.1835   2
   4  22   3 14.6670 6.92082   1
   4  22   3 44.3169 13.0318   3
   5 -22   3 5.97161 9.49568   1
   5  22   3 36.7902 10.2531   2
   5  22   3 27.6889 11.5742   3
   5  22   3 20.2396 7.20143   1
   6 -22   3 44.6873 12.1804   1
   6  22   3 42.2110 11.1490   2
   6  22   3 30.8025 8.65356   1
   6  22   3 13.9806 11.1047   3
   7 -23  -3 40.0262 12.0301   1
   7  23  -3 6.29966 7.50794   1
   7  23  -3 19.2111 10.1969   3
   6 -23  -3 4.56994 8.74457   1
   6  23  -3 2.14848 6.30223   1
   6  23  -3 -1.4658 7.24932   3
   5 -23  -3 13.1301 9.07301   1
   5  23  -3 7.97261 6.50307   1
   5  23  -3 2.65549 6.82924   3
   4 -23  -3 -3.1018 7.41536   1
   4  23  -3 -1.3819 5.81784   3
   4  23  -3 -7.3944 5.19778   1
  -3 -23   3 -1.0176 7.51364   1
   3 -23  -3 21.9971 9.33573   1
  -3  23   3 7.79656 6.76457   1
   3  23  -3 17.5253 7.44227   1
   3  23  -3 15.5562 6.95259   3
  -3  23   3 7.53153 9.62273   2
  -2 -23   3 10.0908 8.64431   1
   2 -23  -3 0.19363 7.77629   1
  -2  23   3 2.94623 6.20425   1
   2  23  -3 14.5815 6.92335   1
  -2  23   3 0.08552 8.72020   2
   2  23  -3 0.18306 4.61103   3
   2  23  -3 2.82312 6.30161   2
  -1 -23   3 1157.64 34.6809   1
   1 -23  -3 1171.24 33.0534   1
  -1  23   3 1185.84 42.7673   3
  -1  23   3 1079.05 35.6964   2
   1  23  -3 1174.00 33.2753   1
  -1  23   3 1159.23 34.0714   1
   1  23  -3 1135.96 32.5812   2
   1  23  -3 1149.99 26.5567   3
   0 -23   3 249.572 19.5658   1
   0 -23  -3 246.355 16.7159   1
   0  23  -3 221.885 14.8706   1
   0  23  -3 202.598 9.43620   3
   0  23   3 206.648 21.5346   3
   0  23  -3 219.417 14.2950   2
   0  23   3 252.314 20.6493   2
   0  23   3 185.657 16.0061   1
   1 -23   3 110.126 14.0367   1
  -1  23  -3 89.0343 10.4325   2
   1  23   3 83.9923 13.4511   2
   1  23   3 110.817 17.3923   3
  -1  23  -3 89.5054 10.6772   1
   1  23   3 80.4537 10.8823   1
   2 -23   3 17.5657 9.20665   1
   2  23   3 32.9232 10.5090   2
   2  23   3 27.1304 8.13430   1
   2  23   3 29.3553 11.6462   3
  -2  23  -3 39.8967 7.43280   2
   3 -23   3 -0.6252 8.27722   1
   3  23   3 -3.0858 8.54839   3
   3  23   3 0.86984 5.73541   1
   3  23   3 9.29638 8.12257   2
   4 -23   3 135.848 16.0992   1
   4  23   3 106.514 17.8851   3
   4  23   3 125.137 13.8491   1
   4  23   3 109.397 15.5654   2
   5 -23   3 63.9152 12.7276   1
   5  23   3 46.1988 11.0829   2
   5  23   3 57.0564 13.9020   3
   5  23   3 70.8605 10.8410   1
   6 -23   3 11.5991 10.1485   1
   6  23   3 17.5601 10.9467   3
   6  23   3 6.16971 7.68595   2
   6  23   3 15.7350 7.55857   1
   7 -24  -3 24.3285 11.5187   1
   7  24  -3 14.5346 10.4485   3
   7  24  -3 13.2912 8.09707   1
   6 -24  -3 12.2188 9.62497   1
   6  24  -3 -2.6474 7.12416   3
   6  24  -3 -1.8469 5.60079   1
   5 -24  -3 41.8712 11.4255   1
   5  24  -3 30.8592 9.20192   1
   5  24  -3 20.9942 9.07843   3
   4 -24  -3 46.0694 11.3373   1
   4  24  -3 34.7710 9.20447   1
   4  24  -3 41.5735 10.2377   3
   3 -24  -3 0.70340 8.18878   1
  -3 -24   3 4.57988 7.82130   1
  -3  24   3 10.5469 6.66297   1
   3  24  -3 7.46570 6.33622   1
  -3  24   3 2.61627 8.80793   2
   3  24  -3 3.29372 5.54656   3
   2 -24  -3 1.20642 7.39373   1
  -2 -24   3 -5.6605 7.54567   1
  -2  24   3 2.92796 5.98881   1
  -2  24   3 4.91028 8.69999   2
   2  24  -3 -0.4155 5.74339   2
   2  24  -3 8.38616 6.90061   1
  -2  24   3 1.39204 12.9380   3
   2  24  -3 23.3753 6.62808   3
   1 -24  -3 57.1618 11.1258   1
  -1 -24   3 33.6302 10.4472   1
   1  24  -3 36.6180 8.75357   2
  -1  24   3 48.4831 11.5423   2
  -1  24   3 60.0490 10.6594   1
   1  24  -3 41.2564 9.52046   1
  -1  24   3 66.4422 16.3147   3
   1  24  -3 41.7732 6.91824   3
   0 -24   3 17.0826 9.57830   1
   0 -24  -3 5.36054 7.78237   1
   0  24  -3 5.98196 6.00628   2
   0  24   3 3.83313 11.8132   3
   0  24   3 1.65891 8.36845   2
   0  24   3 4.42920 6.41602   1
   0  24  -3 2.83958 4.58199   3
   0  24  -3 -9.1268 4.65318   1
   1 -24   3 55.4153 11.6645   1
   1  24   3 44.3321 11.4324   2
   1  24   3 47.8542 9.28025   1
  -1  24  -3 49.3535 8.39121   2
  -1  24  -3 52.3851 8.90770   1
   1  24   3 45.1566 13.2741   3
   2 -24   3 547.646 25.7940   1
   2  24   3 479.912 27.9296   3
  -2  24  -3 503.588 18.4799   2
   2  24   3 498.062 22.7489   1
   2  24   3 446.188 24.4888   2
   3 -24   3 444.208 24.1754   1
   3  24   3 455.745 22.0524   1
   3  24   3 422.062 27.0688   3
   3  24   3 440.614 24.2434   2
   4 -24   3 180.236 18.1702   1
   4  24   3 194.506 22.5889   3
   4  24   3 189.464 19.7629   2
   4  24   3 185.636 16.5111   1
   5 -24   3 -1.1283 9.74838   1
   5  24   3 25.5236 7.85970   1
   5  24   3 12.1991 10.4675   3
   5  24   3 15.4855 8.49570   2
   6 -25  -3 36.3106 11.3059   1
   6  25  -3 10.9212 9.12415   3
   6  25  -3 9.59458 8.01540   1
   5 -25  -3 20.0334 9.86854   1
   5  25  -3 26.8732 9.33735   3
   5  25  -3 41.3018 9.77085   1
   4 -25  -3 8.75114 8.80901   1
  -4  25   3 -5.7671 8.94874   2
   4  25  -3 -3.3239 5.57492   1
   4  25  -3 6.22635 6.98046   3
  -3 -25   3 14.3160 9.43021   1
   3 -25  -3 6.19623 8.28766   1
   3  25  -3 21.4318 7.13801   3
  -3  25   3 15.1699 10.2964   2
   3  25  -3 12.1380 7.01262   1
  -3  25   3 1.37913 5.93158   1
  -2 -25   3 42.8662 10.9121   1
   2 -25  -3 78.6666 12.4169   1
  -2  25   3 69.0896 13.0847   2
   2  25  -3 49.5144 10.2131   2
   2  25  -3 75.5520 9.81282   3
  -2  25   3 76.4148 18.1916   3
  -2  25   3 56.1274 10.1377   1
   2  25  -3 66.1045 10.8058   1
   1 -25  -3 7.61954 8.33152   1
  -1 -25   3 -0.6919 7.99268   1
  -1  25   3 -7.2171 7.96509   2
  -1  25   3 21.2311 14.1261   3
   1  25  -3 6.46331 6.43106   2
  -1  25   3 -4.6903 5.64762   1
   1  25  -3 -2.4915 5.26725   1
   1  25  -3 -1.4415 3.88115   3
   0 -25   3 4.81238 8.62314   1
   0 -25  -3 -2.8973 7.29833   1
   0  25   3 -3.1552 5.72795   1
   0  25  -3 1.22787 5.62497   2
   0  25   3 0.24465 8.48381   2
   0  25   3 6.57799 11.9933   3
   0  25  -3 -1.6605 5.36168   1
   1 -25   3 61.2345 12.2866   1
   1  25   3 48.0381 13.7483   3
  -1  25  -3 52.6062 8.94129   1
   1  25   3 40.7697 11.1853   2
   1  25   3 46.2911 9.66524   1
  -1  25  -3 58.8266 9.47057   2
   2 -25   3 15.8511 9.69048   1
   2  25   3 7.79892 8.40749   2
  -2  25  -3 8.84499 5.47761   2
   2  25   3 3.73419 5.95518   1
   2  25   3 4.40427 9.59231   3
   3 -25   3 0.32273 8.90010   1
   3  25   3 3.27223 6.16654   1
   3  25   3 10.9457 8.56401   2
   3  25   3 7.92531 9.77120   3
   4 -25   3 41.8305 11.9236   1
   4  25   3 54.0420 10.2600   1
   4  25   3 59.0772 13.1482   2
   4  25   3 77.5171 16.1039   3
   5 -25   3 -1.2092 9.10807   1
   5  25   3 -5.6456 7.06512   2
   5  25   3 -1.6509 5.78984   1
   5  25   3 -2.3116 8.91939   3
   6 -26  -3 21.9865 10.9562   1
   6  26  -3 20.1025 8.62014   1
   6  26  -3 16.8463 9.91019   3
   5 -26  -3 5.48650 9.07352   1
   5  26  -3 14.6469 8.55655   3
   5  26  -3 6.65104 7.21826   1
   4 -26  -3 2.69299 8.96935   1
   4  26  -3 21.1164 8.59217   1
   4  26  -3 8.43348 7.46297   3
  -4  26   3 6.26447 9.64534   2
   3 -26  -3 5.51886 8.88232   1
   3  26  -3 5.48901 6.41778   3
   3  26  -3 11.7087 7.38006   1
  -3  26   3 2.81385 9.17164   2
  -3  26   3 2.93919 6.08456   1
   3  26  -3 7.28495 7.85866   2
  -2 -26   3 20.6288 9.86494   1
   2 -26  -3 19.1988 9.02410   1
   2  26  -3 22.3348 8.30313   1
   2  26  -3 7.64562 7.12314   2
   2  26  -3 22.3575 6.98592   3
  -2  26   3 5.28911 6.23295   1
  -2  26   3 15.6437 10.2211   2
  -2  26   3 -0.2460 14.0812   3
   1 -26  -3 -7.4347 7.48804   1
  -1 -26   3 -4.4951 8.30689   1
   1  26  -3 -1.8120 6.11137   1
  -1  26   3 3.32470 6.09659   1
   1  26  -3 -0.5422 4.07592   3
  -1  26   3 6.65275 9.26819   2
   1  26  -3 -3.3685 5.52823   2
  -1  26   3 -3.1938 12.0020   3
   0 -26  -3 377.931 20.7109   1
   0 -26   3 409.975 23.4217   1
   0  26   3 350.230 25.6520   3
   0  26  -3 387.084 19.5391   2
   0  26   3 385.923 20.9452   1
   0  26  -3 385.384 19.6642   1
   0  26   3 324.003 22.0042   2
   1 -26   3 123.972 15.2823   1
  -1  26  -3 128.910 13.3460   1
   1  26   3 142.923 19.3762   3
   1  26   3 123.911 15.7977   2
  -1  26  -3 116.441 12.2977   2
   1  26   3 132.519 14.9047   1
   2 -26   3 157.149 17.5426   1
   2  26   3 138.448 15.0543   1
  -2  26  -3 176.441 12.7300   2
   2  26   3 139.868 19.2772   3
   2  26   3 164.693 18.7232   2
   3 -26   3 51.0957 12.8654   1
   3  26   3 69.2654 13.4223   2
   3  26   3 59.8749 11.0948   1
   3  26   3 56.4260 14.5095   3
   4 -26   3 2.48720 9.53137   1
   4  26   3 11.2962 9.93433   3
   4  26   3 7.47405 6.89238   1
   4  26   3 5.58318 7.61761   2
   5 -26   3 -1.5629 9.67882   1
   5  26   3 7.35361 8.16545   2
   5  26   3 -1.4887 9.51659   3
   5  26   3 0.69417 6.52384   1
   6 -27  -3 10.8416 10.7386   1
   6  27  -3 40.6029 10.6623   1
  -6  27   3 23.2568 11.7743   2
   6  27  -3 28.8248 10.9295   3
   5 -27  -3 44.3678 12.0886   1
   5  27  -3 44.1262 10.7178   1
  -5  27   3 38.5256 12.6442   2
   5  27  -3 50.2852 11.8292   3
   4 -27  -3 1.18548 8.52119   1
   4  27  -3 -0.2855 6.62416   3
   4  27  -3 -4.8625 6.09287   1
  -4  27   3 4.41403 9.25455   2
   3 -27  -3 -4.1006 7.94504   1
   3  27  -3 -4.1144 6.36933   2
   3  27  -3 -0.2139 5.75585   3
  -3  27   3 6.20010 6.47590   1
  -3  27   3 5.43961 9.02987   2
   3  27  -3 3.01737 6.35628   1
   2 -27  -3 49.0636 11.6971   1
  -2 -27   3 47.0448 11.7326   1
   2  27  -3 45.1151 10.0771   1
   2  27  -3 52.1287 9.01672   3
  -2  27   3 27.2473 15.8076   3
   2  27  -3 52.5298 10.6387   2
  -2  27   3 54.1332 12.9586   2
  -2  27   3 40.8480 9.78869   1
  -1 -27   3 -1.3173 8.89101   1
   1 -27  -3 3.72591 8.73140   1
   1  27  -3 -2.2658 6.17823   2
  -1  27   3 -0.2834 8.26630   2
   1  27  -3 3.34767 4.40114   3
  -1  27   3 -14.638 10.5648   3
   1  27  -3 2.53260 5.77022   1
  -1  27   3 -11.652 5.14016   1
   0 -27   3 6.89063 9.22360   1
   0 -27  -3 -0.8649 7.60918   1
   0  27  -3 3.73232 5.95963   1
   0  27   3 6.57232 7.01046   1
   0  27   3 2.57307 8.45111   2
   0  27   3 6.23456 11.9100   3
   0  27  -3 5.36338 5.88786   2
   1 -27   3 169.546 17.8468   1
   1  27   3 144.215 16.9823   2
  -1  27  -3 174.421 14.8885   2
   1  27   3 154.592 19.9180   3
   1  27   3 118.409 13.8796   1
   2 -27   3 118.581 16.2858   1
  -2  27  -3 113.330 11.9689   2
   2  27   3 128.774 14.8372   1
   2  27   3 125.024 17.1788   2
   2  27   3 91.7688 16.2177   3
   3 -27   3 19.9116 10.7601   1
   3  27   3 12.6320 7.19034   1
   3  27   3 7.27640 8.59636   2
   3  27   3 11.5132 10.2852   3
   4 -27   3 1.50559 9.66405   1
   4  27   3 16.9775 7.39338   1
   4  27   3 12.0339 9.25117   2
   4  27   3 16.1112 10.4730   3
   5 -27   3 39.6172 13.2465   1
   5  27   3 45.8674 10.8043   1
   5  27   3 29.0691 12.8545   3
   5  27   3 57.5225 13.1513   2
   6 -28  -3 11.1937 10.6569   1
  -6  28   3 -15.667 9.96654   2
   6  28  -3 3.81766 8.63876   3
   6  28  -3 2.94834 8.01164   1
   5 -28  -3 119.235 17.0042   1
   5  28  -3 116.226 16.4177   3
   5  28  -3 106.529 15.5709   1
  -5  28   3 73.8315 15.4537   2
   4 -28  -3 5.93199 9.31244   1
   4  28  -3 8.28055 7.67065   3
   4  28  -3 3.57630 6.45697   1
  -4  28   3 -2.8646 9.55472   2
   3 -28  -3 -1.0895 8.52986   1
  -3  28   3 -11.153 14.2439   3
  -3  28   3 13.1882 7.62575   1
   3  28  -3 7.83904 8.11053   2
  -3  28   3 -5.7195 9.25171   2
   3  28  -3 3.89020 5.83025   3
   3  28  -3 0.98784 6.31292   1
  -2 -28   3 108.519 15.7284   1
   2 -28  -3 98.9068 14.7128   1
   2  28  -3 77.5638 12.7354   2
   2  28  -3 86.9342 10.9596   3
  -2  28   3 75.5318 14.6853   2
   2  28  -3 63.4989 11.6272   1
  -2  28   3 67.6174 18.4127   3
  -2  28   3 102.690 13.5477   1
  -1 -28   3 33.0660 10.5992   1
   1 -28  -3 35.3120 11.1859   1
   1  28  -3 37.8137 9.58884   2
   1  28  -3 33.4742 8.94917   1
  -1  28   3 24.1766 14.4591   3
  -1  28   3 23.8077 10.4905   2
  -1  28   3 24.2795 8.49821   1
   0 -28   3 49.9252 12.5558   1
   0  28   3 46.2942 12.2108   2
   0  28   3 40.0908 14.5367   3
   0  28  -3 63.7924 10.9158   2
   0  28  -3 60.8403 10.7041   1
   0  28   3 42.9266 10.1338   1
   1 -28   3 31.4023 11.1119   1
   1  28   3 34.5455 13.5746   3
   1  28   3 41.1064 9.76515   1
   1  28   3 61.0628 13.3571   2
  -1  28  -3 51.6580 9.61758   2
   2 -28   3 23.5470 11.3689   1
   2  28   3 25.9374 11.7615   3
  -2  28  -3 27.6578 7.78553   2
   2  28   3 6.63821 8.72345   2
   2  28   3 20.9090 8.26425   1
   3 -28   3 17.6109 10.9470   1
   3  28   3 1.60862 6.47844   1
   3  28   3 21.9381 10.0607   2
   3  28   3 21.7434 11.3085   3
   4 -28   3 45.2917 13.0688   1
   4  28   3 57.8731 11.1678   1
   4  28   3 76.3340 16.0671   3
   4  28   3 39.0322 11.6325   2
   5  28   3 30.1212 12.8349   3
   5  28   3 31.2260 11.1020   2
   5 -29  -3 2.57647 9.08864   1
   5  29  -3 23.2411 9.23782   3
  -5  29   3 -2.3697 9.95793   2
   5  29  -3 -1.2207 7.12527   1
   4 -29  -3 11.2578 9.89047   1
   4  29  -3 10.4238 8.12024   3
  -4  29   3 16.0963 11.0193   2
   4  29  -3 3.68661 7.17021   1
   3 -29  -3 20.0887 10.3131   1
   3  29  -3 16.6127 8.76290   2
   3  29  -3 29.0956 9.30371   1
  -3  29   3 13.7866 7.69847   1
   3  29  -3 10.7519 7.02258   3
  -3  29   3 -3.4705 14.1107   3
  -3  29   3 5.78022 10.4973   2
  -2 -29   3 35.9910 11.7856   1
   2 -29  -3 42.0617 11.4504   1
   2  29  -3 58.3697 11.4786   1
   2  29  -3 42.9784 10.6514   2
   2  29  -3 52.0382 9.37828   3
  -2  29   3 61.5694 17.8336   3
  -2  29   3 52.0384 13.5115   2
  -2  29   3 38.1986 10.3129   1
  -1 -29   3 10.4471 9.81032   1
   1 -29  -3 -13.948 7.60092   1
  -1  29   3 1.99338 6.87872   1
   1  29  -3 0.31283 6.00978   1
   1  29  -3 -3.8861 6.04685   2
  -1  29   3 -1.6807 8.77664   2
  -1  29   3 11.3347 13.0545   3
   0 -29   3 108.263 15.8698   1
   0  29   3 105.575 13.9909   1
   0  29  -3 120.016 14.2081   2
   0  29  -3 147.087 15.6378   1
   0  29   3 122.564 17.2999   2
   0  29   3 142.048 20.0412   3
   1 -29   3 51.2266 12.8979   1
   1  29   3 44.0351 14.2191   3
   1  29   3 25.6136 9.16412   1
  -1  29  -3 58.2060 10.0121   2
   1  29   3 44.4030 12.5588   2
   2 -29   3 246.892 22.7726   1
   2  29   3 207.968 21.4102   2
  -2  29  -3 190.329 14.2945   2
   2  29   3 176.798 17.5120   1
   2  29   3 184.309 21.8208   3
   3 -29   3 7.83364 10.2710   1
   3  29   3 6.07125 8.63640   2
   3  29   3 7.44466 10.3053   3
   3  29   3 2.84827 6.97607   1
   4 -29   3 17.9555 11.4228   1
   4  29   3 20.5658 11.6198   3
   4  29   3 32.6519 10.6229   2
   4  29   3 14.0338 8.64030   1
   5 -30  -3 36.5786 13.1515   1
  -5  30   3 36.6868 13.9977   2
   5  30  -3 52.9296 12.4411   3
   5  30  -3 40.4711 11.4648   1
   4 -30  -3 47.3487 12.7964   1
  -4  30   3 18.2391 11.7308   2
   4  30  -3 27.0083 9.60128   1
   4  30  -3 45.8821 11.0666   3
   3 -30  -3 -3.2976 9.21205   1
   3  30  -3 5.55731 6.74081   3
  -3  30   3 12.0653 10.7376   2
  -3  30   3 15.7146 8.59429   1
  -3  30   3 -20.534 13.7308   3
   3  30  -3 8.43557 8.23620   2
   3  30  -3 -0.9814 6.51413   1
  -2 -30   3 76.7162 14.6155   1
   2 -30  -3 67.5773 13.7529   1
  -2  30   3 61.7458 12.0854   1
  -2  30   3 46.9829 17.3534   3
   2  30  -3 35.1460 10.0691   2
   2  30  -3 82.2526 13.0986   3
   2  30  -3 55.6298 11.3639   1
  -2  30   3 62.4618 13.9558   2
  -1 -30   3 13.6623 10.7726   1
   1 -30  -3 20.1668 10.4566   1
  -1  30   3 5.02381 6.97585   1
   1  30  -3 14.5943 7.91820   1
  -1  30   3 5.38045 9.83746   2
  -1  30   3 14.3972 13.2666   3
   1  30  -3 12.0121 7.80907   2
   0 -30   3 1.91078 9.55909   1
   0  30  -3 -1.7317 5.88026   1
   0  30   3 -7.9107 10.5825   3
   0  30   3 5.16198 6.83631   1
   0  30  -3 14.8369 7.50205   2
   0  30   3 -1.1609 8.48541   2
   1 -30   3 4.51253 10.1164   1
   1  30   3 3.04054 10.2249   3
   1  30   3 3.64794 6.90604   1
  -1  30  -3 3.71276 6.58828   2
   1  30   3 11.8063 9.60763   2
   2 -30   3 9.67770 10.0220   1
   2  30   3 -7.6509 7.13459   2
  -2  30  -3 11.2500 7.12019   2
   2  30   3 6.92181 6.97125   1
   2  30   3 27.4760 12.1298   3
   3 -30   3 -5.3134 9.94038   1
   3  30   3 12.5042 10.9406   3
   3  30   3 14.0232 9.51752   2
   3  30   3 7.97713 7.51909   1
   4 -30   3 -3.0840 10.5570   1
   4  30   3 7.37698 11.1155   3
   4  30   3 2.18420 6.99465   1
   4  30   3 -6.8687 7.10844   2
   5 -31  -3 1.79957 10.4634   1
   5  31  -3 5.34095 8.31985   3
   5  31  -3 -4.3868 6.78290   1
  -5  31   3 -2.8595 10.0286   2
   4 -31  -3 3.79132 10.2900   1
   4  31  -3 12.6567 8.38454   1
  -4  31   3 16.4398 11.3462   2
   4  31  -3 1.42013 7.89799   3
   3 -31  -3 6.39169 10.1082   1
   3  31  -3 7.37987 6.62890   3
  -3  31   3 -0.5407 14.1087   3
   3  31  -3 2.37217 7.26593   1
   3  31  -3 17.3078 8.88045   2
  -3  31   3 3.66764 10.3760   2
  -2 -31   3 93.7599 16.1919   1
   2 -31  -3 103.123 16.0851   1
  -2  31   3 98.3905 16.3954   2
  -2  31   3 88.7509 19.3647   3
  -2  31   3 76.3702 13.0308   1
   2  31  -3 62.6424 12.3695   2
   2  31  -3 82.5390 13.3485   1
   1 -31  -3 10.7582 10.1682   1
  -1 -31   3 53.4609 13.3077   1
  -1  31   3 25.8314 13.6825   3
  -1  31   3 10.1828 10.5854   2
  -1  31   3 23.4690 8.66814   1
   1  31  -3 38.6267 10.2571   1
   1  31  -3 24.7638 9.50203   2
   0 -31   3 -4.6816 9.10320   1
   0  31   3 24.1873 11.4799   2
   0  31  -3 9.34441 7.43620   2
   0  31   3 3.75350 11.4936   3
   0  31   3 11.3539 7.18064   1
   0  31  -3 5.58627 7.12572   1
   1 -31   3 92.1528 15.8610   1
   1  31   3 66.6503 11.9969   1
  -1  31  -3 74.8977 11.6552   2
   1  31   3 66.6734 15.2763   3
   1  31   3 72.9383 14.1968   2
   2 -31   3 -4.2307 10.2651   1
   2  31   3 3.89199 6.82575   1
   2  31   3 12.0739 10.8260   3
   2  31   3 19.2550 10.6263   2
  -2  31  -3 9.06038 6.39065   2
   3 -31   3 7.73423 10.8490   1
   3  31   3 -4.8946 7.17160   2
   3  31   3 -2.1994 8.85346   3
   3  31   3 16.8789 8.62521   1
   4  31   3 12.2304 9.47367   2
   4  31   3 3.42375 10.3773   3
   4 -32  -3 17.6937 12.0105   1
   4  32  -3 2.48693 7.26017   3
  -4  32   3 -42.619 15.0291   3
   4  32  -3 1.74322 7.09603   1
  -4  32   3 13.2435 10.4566   2
   3 -32  -3 46.4451 13.0201   1
  -3  32   3 41.4366 13.6121   2
   3  32  -3 36.2289 10.5993   1
  -3  32   3 30.3532 17.0450   3
   3  32  -3 60.7059 11.3924   3
   3  32  -3 51.8192 12.6667   2
   2 -32  -3 59.6729 14.1758   1
  -2  32   3 52.8618 17.1054   3
   2  32  -3 65.9597 13.0603   1
  -2  32   3 41.9431 10.6354   1
  -2  32   3 72.4924 15.3454   2
   2  32  -3 61.2196 12.0645   2
  -1 -32   3 -1.6158 10.1843   1
   1 -32  -3 -7.2352 11.2993   1
  -1  32   3 21.0883 10.7496   2
   1  32  -3 7.60005 7.80501   2
  -1  32   3 3.46161 12.4026   3
   1  32  -3 -8.7233 6.05679   1
  -1  32   3 -2.6910 6.19279   1
   0 -32   3 -10.166 9.68131   1
   0  32   3 -0.8738 11.5794   3
   0  32  -3 1.90807 6.96974   1
   0  32  -3 2.95488 6.72960   2
   0  32   3 -8.1845 8.24157   2
   0  32   3 5.25791 7.09368   1
   1 -32   3 -13.037 8.99518   1
   1  32   3 6.52503 10.9254   3
  -1  32  -3 -5.4592 5.69621   2
   1  32   3 10.2316 10.0609   2
   1  32   3 5.78848 7.35065   1
   2 -32   3 5.95180 10.6890   1
   2  32   3 10.4175 9.04338   2
   2  32   3 -6.7998 6.44770   1
   2  32   3 1.53938 10.4200   3
  -2  32  -3 4.72282 6.25056   2
   3 -32   3 3.74378 11.2260   1
   3  32   3 26.4076 11.4974   2
   3  32   3 15.5578 12.0293   3
   3  32   3 14.1130 8.95140   1
   4 -33  -3 -11.754 9.84245   1
  -4  33   3 0.88470 10.5864   2
   4  33  -3 5.53357 7.95640   3
   4  33  -3 -2.5791 6.96958   1
  -4  33   3 -30.536 15.8750   3
   3 -33  -3 71.3586 15.5939   1
   3  33  -3 50.4228 12.7185   2
   3  33  -3 61.4092 13.3165   1
  -3  33   3 57.4948 19.7061   3
  -3  33   3 54.3024 14.3846   2
   2 -33  -3 0.71148 9.58270   1
   2  33  -3 10.8949 7.68518   2
  -2  33   3 13.7567 11.1809   2
  -2  33   3 8.09793 13.3348   3
  -2  33   3 15.3117 8.33097   1
   2  33  -3 10.5075 7.77573   1
  -1 -33   3 17.9181 11.7329   1
  -1  33   3 18.9896 13.6852   3
   1  33  -3 1.63648 6.92457   1
  -1  33   3 2.98171 10.1638   2
  -1  33   3 14.7452 8.80587   1
   1  33  -3 12.7027 7.74948   2
   0 -33   3 78.1840 15.7646   1
   0  33   3 51.0179 15.2536   3
   0  33  -3 57.8430 11.5275   2
   0  33   3 66.4062 14.4080   2
   0  33   3 65.7771 13.0485   1
   1 -33   3 52.8024 14.8305   1
   1  33   3 71.9327 13.3943   1
  -1  33  -3 74.6649 12.2365   2
   1  33   3 23.9805 12.1733   2
   1  33   3 82.5214 17.1037   3
   2 -33   3 3.91037 10.6906   1
  -2  33  -3 6.66219 6.74564   2
   2  33   3 -1.5722 8.69019   2
   2  33   3 14.9074 11.5437   3
   2  33   3 -0.4762 7.08530   1
   3 -33   3 5.66650 12.2152   1
   3  33   3 15.2251 10.0412   2
   3  33   3 21.7971 9.28497   1
   3  33   3 41.2804 13.6481   3
   3 -34  -3 199.156 22.5790   1
  -3  34   3 214.626 23.4256   2
   3  34  -3 190.443 22.5129   2
  -3  34   3 179.719 25.5394   3
   3  34  -3 110.822 16.3137   1
   2 -34  -3 74.6405 15.5706   1
  -2  34   3 64.8059 17.2021   3
  -2  34   3 48.8552 11.8210   1
   2  34  -3 77.6044 14.2305   2
  -2  34   3 67.7320 16.1727   2
   2  34  -3 49.4172 12.0326   1
  -1 -34   3 -13.068 8.86810   1
  -1  34   3 11.6664 12.9339   3
   1  34  -3 -4.2824 6.67514   1
   1  34  -3 4.55230 7.60452   2
  -1  34   3 -3.8948 9.83211   2
  -1  34   3 -9.2411 6.57055   1
   0 -34   3 -0.1397 10.4486   1
   0  34   3 17.3732 11.1626   2
   0  34   3 -0.3680 10.1102   3
   0  34  -3 4.37042 7.29855   2
   0  34   3 11.0737 8.05803   1
   1 -34   3 -12.405 10.3926   1
   1  34   3 8.48404 10.9420   3
  -1  34  -3 5.85741 7.52001   2
   1  34   3 -3.0905 8.99652   2
   1  34   3 -4.1443 6.74634   1
   2 -34   3 9.65924 12.8007   1
   2  34   3 -8.9779 8.79457   3
   2  34   3 -6.2686 6.79105   1
   2  34   3 -3.6813 8.38808   2
  -2  34  -3 -4.5601 8.91764   2
   2 -35  -3 -14.262 10.2058   1
  -2  35   3 -2.2693 7.01603   1
  -2  35   3 9.87821 10.8430   2
  -2  35   3 8.95721 13.6309   3
   2  35  -3 -5.2467 6.89304   2
   2  35  -3 -1.0793 7.38036   1
  -1 -35   3 3.50644 10.7677   1
  -1  35   3 23.3922 13.7371   3
   1  35  -3 -3.4785 7.39136   1
  -1  35   3 -2.3321 6.85982   1
   1  35  -3 19.5310 9.42199   2
  -1  35   3 36.7174 13.0959   2
   0 -35   3 3.71988 11.3798   1
   0  35   3 -0.9136 9.58496   2
   0  35   3 22.5257 12.6778   3
   0  35   3 14.1726 8.53598   1
   0  35  -3 3.38591 7.56667   2
   1 -35   3 10.3599 12.5348   1
   1  35   3 0.82560 7.68587   1
   1  35   3 21.0116 12.1750   3
  -1  35  -3 4.84218 7.04115   2
   1  35   3 13.7981 10.6358   2
  -1 -36   3 -7.9686 10.9660   1
   1  36  -3 14.8757 8.86846   2
  -1  36   3 14.8851 8.93824   1
  -1  36   3 29.1560 14.8466   3
  -1  36   3 19.2806 12.4145   2
   1  36  -3 9.37945 8.49995   1
   0 -36   3 -6.5994 10.9281   1
   0  36  -3 10.0187 7.94274   2
   0  36   3 -6.4218 9.86568   3
   0  36   3 7.55197 8.29368   1
   0  36   3 -7.6722 10.0095   2
   8   0  -4 87.9857 12.4545   1
   7   0  -4 3.69834 5.72877   1
   6   0  -4 20.0756 6.93198   1
   5   0  -4 1.80099 5.55854   1
  -5   0   4 3.54678 4.97986   1
   4   0  -4 21.1194 5.95460   1
  -4   0   4 21.9233 6.13228   1
   3   0  -4 -4.1932 3.76680   1
  -3   0   4 3.22211 4.67509   1
   2   0  -4 701.877 19.9870   1
  -2   0   4 721.662 20.9388   1
   1   0  -4 -2.0922 3.25165   1
  -1   0   4 6.72818 4.86079   1
   0   0  -4 1434.12 26.7474   1
   0   0   4 1411.22 29.3799   3
   0   0   4 1430.65 28.9457   1
   1   0   4 2.23745 5.17273   3
   1   0   4 -1.3978 3.89946   1
   2   0   4 459.515 11.8444   2
   2   0   4 411.352 15.8328   3
   2   0   4 470.556 14.5400   1
   3   0   4 9.60245 2.58218   2
   3   0   4 5.34985 5.33125   3
   3   0   4 7.05711 3.58641   1
   3   0   4 8.32105 4.54787   1
   4   0   4 294.456 16.6048   3
   4   0   4 332.763 10.7167   1
   4   0   4 321.964 11.7169   1
   5   0   4 -7.7150 5.13272   3
   5   0   4 -0.0689 3.84283   1
   6   0   4 0.16054 6.59464   3
   6   0   4 -5.9228 3.73261   1
   7   0   4 11.7784 8.03648   3
   8  -1  -4 10.0522 6.64558   1
   8   1  -4 10.0964 6.78095   1
   7  -1  -4 131.399 13.7133   1
   7   1  -4 103.896 12.4103   1
   6  -1  -4 90.5286 11.2678   1
   6   1  -4 77.0244 10.3927   1
   5  -1  -4 17.3847 6.58115   1
  -5  -1   4 6.27728 5.29664   1
   5   1  -4 16.7033 6.75866   1
  -5   1   4 18.5163 6.14374   1
  -4  -1   4 0.70117 4.77517   1
  -4  -1   4 7.13314 5.21878   1
   4  -1  -4 -0.0255 4.40782   1
   4   1  -4 -4.0787 4.15748   1
  -4   1   4 -0.4387 4.70241   1
  -3  -1   4 16.8985 5.72567   1
   3  -1  -4 11.2243 4.95955   1
  -3   1   4 7.61970 4.75590   1
   3   1  -4 3.43619 4.21922   1
  -3   1   4 0.64141 4.26901   1
   2  -1  -4 9.52591 4.37796   1
  -2  -1   4 12.7304 5.82505   1
   2   1  -4 6.34201 4.34565   1
  -2   1   4 14.4159 5.59040   1
   1  -1  -4 28.6785 5.59443   1
  -1  -1   4 28.9150 6.31920   1
  -1   1   4 25.1726 6.16971   1
   1   1  -4 23.6281 5.01645   1
   0  -1  -4 369.392 12.4297   1
   0  -1   4 371.515 14.8369   3
   0  -1   4 374.609 14.0524   1
   0   1  -4 377.115 12.6317   1
   0   1   4 366.695 15.8559   3
   0   1   4 382.554 14.3584   1
   1  -1   4 16.3073 5.13607   1
   1  -1   4 9.56132 5.31114   3
   1   1   4 19.2029 6.38918   3
   1   1   4 13.0303 4.73391   1
   2  -1   4 434.578 15.5055   3
   2  -1   4 474.906 14.5889   1
   2  -1   4 481.039 11.4739   2
   2   1   4 478.506 12.8165   2
   2   1   4 472.537 17.3121   3
   2   1   4 473.973 14.4953   1
   3  -1   4 822.496 18.2087   1
   3  -1   4 812.299 19.1101   1
   3  -1   4 777.345 22.6011   3
   3   1   4 808.655 17.8450   1
   3   1   4 816.343 15.6430   2
   3   1   4 789.996 18.3939   1
   3   1   4 798.523 24.1656   3
   4  -1   4 110.032 11.7929   3
   4  -1   4 114.848 8.64046   1
   4  -1   4 119.373 7.26648   1
   4   1   4 101.662 12.0353   3
   4   1   4 104.051 7.91681   1
   4   1   4 109.164 6.95373   1
   5  -1   4 -2.8321 3.76811   1
   5  -1   4 4.72802 6.18086   3
   5   1   4 -3.6855 3.43822   1
   5   1   4 3.32617 6.11681   3
   6  -1   4 3.66227 4.05810   1
   6  -1   4 -1.6610 6.09294   3
   6   1   4 7.33324 7.75844   3
   7  -1   4 44.0235 11.5183   3
   7   1   4 53.7692 12.8374   3
   8  -2  -4 42.8299 9.40110   1
   8   2  -4 57.6216 10.1445   1
   7  -2  -4 0.51898 5.21323   1
   7   2  -4 -4.4243 5.17210   1
   6  -2  -4 26.2388 7.51845   1
   6   2  -4 34.1362 7.97162   1
  -5  -2   4 16.6515 6.12229   1
   5  -2  -4 16.0376 6.57265   1
   5   2  -4 12.1332 6.28665   1
  -5   2   4 6.45002 5.22744   1
   4  -2  -4 -6.7960 4.06517   1
  -4  -2   4 5.27585 4.85472   1
  -4  -2   4 8.56182 5.22980   1
   4   2  -4 4.07338 4.87411   1
  -4   2   4 -1.6297 4.42762   1
   3  -2  -4 93.6964 9.58716   1
  -3  -2   4 60.4272 7.98126   1
  -3   2   4 63.7536 8.12657   1
  -3   2   4 56.6492 7.67628   1
   3   2  -4 69.4373 8.60126   1
   2  -2  -4 8.56040 4.41002   1
  -2  -2   4 0.32814 5.04632   1
  -2   2   4 -0.7692 4.39675   1
   2   2  -4 5.74222 4.12921   1
   1  -2  -4 38.0158 6.09092   1
  -1  -2   4 45.0909 7.25490   1
  -1   2   4 38.1924 6.67936   1
   1   2  -4 40.4107 6.02103   1
   0  -2   4 601.449 17.9094   1
   0  -2  -4 586.668 15.7633   1
   0   2   4 568.678 19.7561   3
   0   2  -4 600.496 15.8439   1
   0   2   4 586.380 17.6669   1
   1  -2   4 724.702 18.0607   3
   1  -2   4 694.119 18.6410   1
   1   2   4 694.881 18.7351   1
   1   2   4 714.441 21.0832   3
   2  -2   4 272.686 11.8566   1
   2  -2   4 294.898 8.36813   2
   2  -2   4 283.031 12.0953   3
   2   2   4 285.836 14.6400   3
   2   2   4 303.710 11.9648   1
   2   2   4 281.632 10.4807   2
   3  -2   4 321.976 11.5568   1
   3  -2   4 335.586 12.7967   1
   3  -2   4 327.531 14.4832   3
   3   2   4 348.169 11.4200   1
   3   2   4 340.562 16.5307   3
   3   2   4 331.154 10.6123   2
   3   2   4 329.592 11.9030   1
   4  -2   4 96.0287 6.94717   1
   4  -2   4 99.5408 8.18304   1
   4  -2   4 95.3744 11.0199   3
   4   2   4 101.129 7.48909   1
   4   2   4 94.5955 6.88011   1
   4   2   4 85.9053 11.5464   3
   5  -2   4 31.0984 8.11632   3
   5  -2   4 45.1818 5.94328   1
   5   2   4 39.4894 9.16285   3
   5   2   4 25.1835 4.61294   1
   6  -2   4 7.66591 4.47686   1
   6  -2   4 14.3937 8.46611   3
   6   2   4 13.8405 7.94464   3
   6   2   4 3.02656 3.54098   1
   7  -2   4 17.5263 4.93705   1
   7  -2   4 15.9332 9.12629   3
   7   2   4 21.4151 9.79602   3
   8  -3  -4 61.6467 10.8559   1
   8   3  -4 59.4986 10.3448   1
   7  -3  -4 3.14767 5.79271   1
   7   3  -4 9.96448 6.27653   1
   6  -3  -4 212.535 14.6550   1
   6   3  -4 166.571 14.2678   1
   5  -3  -4 7.80757 5.93103   1
  -5  -3   4 12.6111 5.74421   1
  -5   3   4 27.6080 6.51302   1
   5   3  -4 16.0094 6.42545   1
  -4  -3   4 107.736 10.2268   1
   4  -3  -4 73.6419 9.20566   1
  -4   3   4 93.0289 9.79264   1
   4   3  -4 83.5148 9.61738   1
  -3  -3   4 2.87588 4.92684   1
   3  -3  -4 9.15363 4.86457   1
  -3   3   4 12.4896 5.36784   1
   3   3  -4 6.00594 4.65636   1
   2  -3  -4 2.86703 4.20310   1
  -2  -3   4 6.97701 5.45352   1
  -2   3   4 7.62262 5.25491   1
   2   3  -4 7.42784 4.48974   1
  -2   3   4 3.02374 4.53703   1
  -1  -3   4 744.374 20.6602   1
   1  -3  -4 704.567 19.1412   1
  -1   3   4 690.858 19.8274   1
   1   3  -4 716.227 19.1186   1
   0  -3  -4 7.98313 3.70756   1
   0  -3   4 2.02124 4.64255   1
   0   3   4 22.1722 8.04398   3
   0   3  -4 10.6053 3.79862   1
   0   3   4 4.17279 4.50240   1
   1  -3   4 680.580 16.5472   3
   1  -3   4 619.950 17.7689   1
   1   3   4 659.404 21.2649   3
   1   3   4 631.114 17.8088   1
   2  -3   4 100.477 8.52121   1
   2  -3   4 107.564 7.75291   3
   2  -3   4 108.896 5.21965   2
   2   3   4 122.964 11.7900   3
   2   3   4 113.576 7.84877   2
   2   3   4 128.659 8.80027   1
   3  -3   4 16.4789 4.19792   1
   3  -3   4 25.5031 5.88030   1
   3  -3   4 17.1269 5.50645   3
   3   3   4 25.1052 7.68751   3
   3   3   4 20.6834 4.56921   2
   3   3   4 18.9238 4.80490   1
   3   3   4 18.1654 4.18155   1
   4  -3   4 65.3649 9.52669   3
   4  -3   4 71.3229 6.58795   1
   4  -3   4 78.3648 7.66999   1
   4   3   4 72.8969 11.3253   3
   4   3   4 85.4598 6.56696   2
   4   3   4 74.9436 6.33246   1
   4   3   4 71.5685 6.68022   1
   5  -3   4 5.42764 4.47371   1
   5  -3   4 4.08693 5.25978   3
   5   3   4 -1.9133 3.37243   1
   5   3   4 -2.2284 6.22658   3
   6  -3   4 128.506 8.85332   1
   6  -3   4 114.922 14.2351   3
   6   3   4 105.701 6.82323   1
   6   3   4 109.594 15.1571   3
   7  -3   4 52.2737 11.4576   3
   7  -3   4 61.3751 6.80747   1
   7   3   4 71.7487 14.3215   3
   8  -4  -4 79.0156 12.3364   1
   8   4  -4 84.6848 12.3437   1
   7  -4  -4 26.3147 8.19762   1
   7   4  -4 25.0804 7.63663   1
   6  -4  -4 -1.0669 5.35256   1
   6   4  -4 4.49908 5.45253   1
   5  -4  -4 21.3828 7.20731   1
  -5  -4   4 24.6239 6.48445   1
   5   4  -4 29.8406 7.79265   1
  -5   4   4 19.2141 6.08295   1
  -4  -4   4 83.8727 9.34425   1
   4  -4  -4 79.3178 9.73110   1
   4   4  -4 72.9168 9.34138   1
  -4   4   4 100.338 9.99468   1
   3  -4  -4 297.291 14.2111   1
  -3  -4   4 289.700 14.1596   1
  -3   4   4 289.486 13.9723   1
   3   4  -4 281.084 13.9833   1
  -2  -4   4 16.2039 6.08756   1
   2  -4  -4 6.90188 4.39618   1
  -2   4   4 8.68758 5.20152   1
   2   4  -4 5.16455 4.02693   1
  -2   4   4 8.32289 4.87328   1
   1  -4  -4 544.013 16.6866   1
  -1  -4   4 586.972 18.5276   1
   1   4  -4 569.677 17.0919   1
  -1   4   4 601.912 18.4462   1
   0  -4  -4 24.4210 5.01398   1
   0   4  -4 22.5920 4.63822   1
   0   4   4 32.7252 6.15175   1
   0   4   4 21.8231 8.50563   3
   1  -4   4 355.877 11.3443   3
   1  -4   4 334.510 13.4526   1
   1   4   4 340.337 16.5803   3
   1   4   4 349.697 13.4543   1
   2  -4   4 28.1148 4.99296   3
   2  -4   4 22.2098 5.83098   1
   2   4   4 19.4992 7.20873   3
   2   4   4 33.9330 5.75987   1
   2   4   4 35.3004 5.64498   2
   3  -4   4 -3.6852 4.51146   1
   3  -4   4 3.98674 3.44982   1
   3  -4   4 3.63829 4.39092   3
   3   4   4 2.16930 4.11995   1
   3   4   4 5.39100 6.48944   3
   3   4   4 8.61887 3.75949   1
   3   4   4 3.57239 4.03061   2
   4  -4   4 303.731 12.6043   1
   4  -4   4 306.278 15.3064   3
   4   4   4 287.567 10.8703   2
   4   4   4 285.344 18.0529   3
   4   4   4 275.714 10.1969   1
   4   4   4 300.969 11.2947   1
   5  -4   4 -0.8221 5.47599   3
   5  -4   4 2.67809 4.68845   1
   5   4   4 5.32417 7.26014   3
   5   4   4 6.39193 3.71340   1
   6  -4   4 133.596 9.45511   1
   6  -4   4 151.173 16.1475   3
   6   4   4 136.673 16.8769   3
   6   4   4 134.708 7.54477   1
   7  -4   4 7.69625 8.04479   3
   7  -4   4 3.04101 4.84942   1
   7   4   4 11.5551 9.07463   3
   8  -5  -4 1.89334 6.48620   1
   8   5  -4 -0.5601 5.47674   1
   7  -5  -4 220.206 16.5056   1
   7   5  -4 224.463 15.8982   1
   6  -5  -4 614.371 23.4923   1
   6   5  -4 603.326 23.4253   1
  -5  -5   4 114.716 10.9430   1
   5  -5  -4 107.615 11.8343   1
  -5  -5   4 121.389 11.2902   1
   5   5  -4 108.921 11.6573   1
  -5   5   4 137.472 11.6873   1
  -4  -5   4 174.969 11.9835   1
   4  -5  -4 143.453 12.4996   1
  -4   5   4 161.064 12.6270   1
   4   5  -4 147.953 12.3961   1
  -3  -5   4 334.681 15.5953   1
   3  -5  -4 329.979 15.0195   1
  -3   5   4 325.458 14.8448   1
   3   5  -4 353.239 15.4040   1
   2  -5  -4 89.7827 9.33108   1
  -2  -5   4 73.4346 8.57061   1
  -2   5   4 66.6266 8.22099   1
   2   5  -4 90.3140 8.96947   1
  -2   5   4 75.1253 8.57693   1
   1  -5  -4 75.8734 7.87745   1
  -1  -5   4 79.3739 8.73139   1
   1   5  -4 69.1543 7.42166   1
  -1   5   4 56.5048 7.64781   1
  -1   5   4 74.6228 8.61023   1
   0  -5  -4 797.885 19.2210   1
   0  -5   4 839.708 21.7420   1
   0   5   4 802.004 21.2289   1
   0   5  -4 809.763 19.3741   1
   0   5   4 773.460 25.2818   3
   1  -5   4 18.4599 3.81547   3
   1  -5   4 14.5931 5.47474   1
   1   5   4 24.9253 8.21883   3
   1   5   4 11.9320 4.84769   1
   2  -5   4 5.71871 3.53404   3
   2  -5   4 7.24631 5.07103   1
   2   5   4 8.97726 6.75832   3
   2   5   4 11.0024 4.49056   2
   2   5   4 4.41897 4.15967   1
   3  -5   4 57.9068 7.63926   1
   3  -5   4 50.4793 6.30067   1
   3  -5   4 52.6094 7.10964   3
   3   5   4 62.9790 10.4668   3
   3   5   4 61.5802 6.81759   1
   3   5   4 72.7545 6.75928   1
   3   5   4 58.8062 6.99778   2
   4  -5   4 393.261 14.6219   1
   4  -5   4 419.308 16.8938   3
   4   5   4 386.262 13.2523   2
   4   5   4 369.004 12.6676   1
   4   5   4 384.085 12.3092   1
   4   5   4 371.822 20.5372   3
   5  -5   4 9.04777 6.37665   3
   5  -5   4 13.6393 5.26501   1
   5   5   4 11.7031 4.05694   1
   5   5   4 13.1963 8.01044   3
   6  -5   4 1.50268 6.28912   3
   6  -5   4 11.8071 5.30316   1
   6   5   4 4.08426 3.59898   1
   6   5   4 2.35554 7.39014   3
   7  -5   4 11.0247 5.52520   1
   7   5   4 8.69780 9.44024   3
   8  -6  -4 2.15720 6.91942   1
   8   6  -4 14.2491 7.42624   1
   7  -6  -4 16.4054 7.52958   1
   7   6  -4 15.8747 6.91216   1
   6  -6  -4 311.444 18.0027   1
   6   6  -4 305.024 17.4375   1
  -5  -6   4 356.527 19.1357   1
   5  -6  -4 341.086 18.1859   1
  -5  -6   4 335.006 18.3506   1
  -5   6   4 335.414 15.4807   1
   5   6  -4 343.456 17.5725   1
   4  -6  -4 16.1746 6.39087   1
  -4  -6   4 20.5895 6.55989   1
   4   6  -4 20.5318 6.50220   1
  -4   6   4 22.5544 6.32674   1
  -3  -6   4 272.521 14.1469   1
   3  -6  -4 297.958 14.4982   1
  -3   6   4 264.506 13.9126   1
   3   6  -4 242.915 13.3143   1
   2  -6  -4 455.923 16.4558   1
  -2  -6   4 469.724 17.2559   1
   2   6  -4 436.287 16.4451   1
  -2   6   4 458.822 17.0615   1
  -1  -6   4 538.951 18.2648   1
   1  -6  -4 549.355 17.0423   1
  -1   6   4 533.444 17.7001   1
  -1   6   4 563.089 18.1795   1
   1   6  -4 549.293 17.1074   1
   0  -6  -4 107.848 8.21259   1
   0  -6   4 117.441 9.95195   1
   0   6   4 96.6161 12.3931   3
   0   6   4 117.723 9.86637   1
   0   6  -4 112.756 7.96056   1
   1  -6   4 68.0515 4.81673   3
   1  -6   4 53.4004 7.42553   1
  -1   6  -4 71.8271 6.29069   1
   1   6   4 79.4715 10.8287   3
   1   6   4 71.8003 7.75943   1
   2  -6   4 365.562 11.0221   3
   2  -6   4 348.870 14.3439   1
   2   6   4 370.837 13.6820   1
   2   6   4 347.492 17.7444   3
   2   6   4 349.230 13.7636   2
   3  -6   4 10.7773 5.91889   1
   3  -6   4 6.80298 4.23365   3
   3   6   4 2.72391 3.85676   1
   3   6   4 2.63060 6.47264   3
   3   6   4 14.5448 4.65681   1
   3   6   4 3.73807 4.63581   2
   4  -6   4 10.5109 5.60221   3
   4  -6   4 26.5915 6.45552   1
   4   6   4 14.4749 4.67778   2
   4   6   4 -0.2240 6.70632   3
   4   6   4 14.9013 4.64077   1
   5  -6   4 31.4267 6.42561   1
   5  -6   4 39.2051 8.34732   3
   5   6   4 33.6860 5.10567   1
   5   6   4 25.7310 9.25490   3
   6  -6   4 -8.1485 4.88258   1
   6  -6   4 0.95483 6.63285   3
   6   6   4 -1.3308 2.89974   1
   6   6   4 -1.5167 3.09352   1
   6   6   4 2.34101 7.26973   3
   7  -6   4 34.6991 7.03241   1
   7   6   4 31.3627 11.8476   3
   8  -7  -4 10.6508 7.56913   1
   8   7  -4 13.4947 7.42780   1
   7  -7  -4 50.6031 10.1670   1
   7   7  -4 55.3181 9.81586   1
   6  -7  -4 50.4828 9.56060   1
   6   7  -4 40.0407 8.69352   1
   5  -7  -4 368.475 18.5169   1
   5   7  -4 398.944 18.7814   1
  -5   7   4 395.413 16.9582   1
   4  -7  -4 8.13885 6.04276   1
  -4  -7   4 2.92634 5.73725   1
   4   7  -4 -8.3492 4.34894   1
  -4   7   4 0.93948 4.84124   1
  -3  -7   4 891.571 24.6340   1
   3  -7  -4 933.109 25.3414   1
  -3   7   4 907.490 24.7449   1
   3   7  -4 870.402 24.5912   1
   2  -7  -4 27.6829 6.03509   1
  -2  -7   4 27.3704 6.65192   1
   2   7  -4 25.7241 5.95913   1
  -2   7   4 30.6894 6.32019   1
  -1  -7   4 5.39490 5.54289   1
   1  -7  -4 -2.0448 3.68279   1
   1   7  -4 -0.1895 3.62126   1
  -1   7   4 2.87809 4.41742   1
   0  -7   4 81.7713 6.33575   3
   0  -7  -4 87.6153 7.85584   1
   0  -7   4 82.2211 9.02970   1
   0   7   4 81.9367 12.5083   3
   0   7   4 92.7425 8.96015   1
   0   7  -4 80.9665 7.56883   1
   0   7   4 70.0436 7.93463   1
   1  -7   4 31.5476 6.81740   1
   1   7   4 40.8312 9.55675   3
  -1   7  -4 43.9278 5.26759   1
   1   7   4 32.6188 6.15006   1
   2  -7   4 38.9035 6.94657   1
   2  -7   4 36.6153 4.35967   3
   2   7   4 31.1219 6.43605   2
   2   7   4 37.4418 6.22115   1
   2   7   4 46.6147 9.74965   3
   3  -7   4 25.9630 5.27704   3
   3  -7   4 19.8139 6.62860   1
   3   7   4 34.5545 9.21153   3
   3   7   4 20.4748 5.30513   1
   3   7   4 28.5767 6.40371   2
   3   7   4 34.2199 5.55628   1
   4  -7   4 346.749 15.0647   3
   4  -7   4 343.227 14.6131   1
   4   7   4 370.447 21.0897   3
   4   7   4 353.430 14.0661   2
   4   7   4 362.025 12.6977   1
   5  -7   4 7.52801 6.06343   3
   5  -7   4 13.8492 5.80545   1
   5   7   4 3.62340 7.35200   3
   5   7   4 7.41109 4.46106   2
   5   7   4 2.37048 3.80104   1
   6  -7   4 54.9042 7.82205   1
   6   7   4 88.8595 7.04600   1
   6   7   4 82.3149 14.8279   3
   7  -7   4 2.30815 5.77786   1
   7   7   4 1.71075 3.32282   1
   7   7   4 7.72927 9.09101   3
   8  -8  -4 63.4560 11.6685   1
   8   8  -4 53.9703 10.7630   1
   7  -8  -4 36.4203 9.20990   1
   7   8  -4 33.9078 8.56547   1
   6  -8  -4 197.916 16.7861   1
   6   8  -4 194.409 14.4802   1
   5  -8  -4 577.765 23.1194   1
  -5   8   4 585.581 20.4670   1
   5   8  -4 584.553 22.5551   1
  -4  -8   4 107.719 10.9179   1
   4  -8  -4 110.697 11.6902   1
  -4   8   4 103.526 10.8516   1
   4   8  -4 111.686 11.8757   1
  -3  -8   4 24.1385 6.78430   1
   3  -8  -4 8.79799 6.07934   1
   3   8  -4 10.4628 5.48348   1
  -3   8   4 21.5403 5.97033   1
  -2  -8   4 8.10482 5.42215   1
   2  -8  -4 4.08976 4.85429   1
   2   8  -4 3.99866 4.49596   1
  -2   8   4 2.06989 4.49812   1
  -1  -8   4 166.938 12.1660   1
   1  -8  -4 154.761 10.0401   1
  -1   8   4 180.809 11.4158   1
   1   8  -4 154.424 9.93937   1
   0  -8   4 -0.7691 3.62932   3
   0  -8  -4 -1.9519 3.65046   1
   0  -8   4 2.01811 5.34726   1
   0   8   4 1.72241 4.53887   1
   0   8  -4 -1.0742 3.30412   1
   0   8   4 -2.3965 4.04769   1
   0   8   4 4.50789 8.63944   3
   1  -8   4 -7.1024 4.64200   1
  -1   8  -4 -0.1257 2.82036   1
   1   8   4 6.62177 5.14267   2
   1   8   4 -11.675 7.21756   3
   1   8   4 -4.0193 3.87148   1
   1   8   4 3.61081 4.12661   1
   2  -8   4 460.652 10.7197   3
   2  -8   4 493.501 17.2890   1
   2   8   4 483.162 15.7759   1
   2   8   4 462.037 16.4728   2
   2   8   4 445.918 15.6623   1
   2   8   4 449.125 20.8977   3
   3  -8   4 120.149 7.98709   3
   3  -8   4 129.162 10.6251   1
   3   8   4 123.557 8.86326   1
   3   8   4 124.722 9.49784   1
   3   8   4 125.320 9.43880   1
   3   8   4 123.911 10.7702   2
   3   8   4 119.636 14.7066   3
   4  -8   4 44.7412 7.12842   3
   4  -8   4 43.6654 7.81955   1
   4   8   4 39.3910 5.93203   1
   4   8   4 42.6867 10.3873   3
   4   8   4 27.9072 5.41594   1
   4   8   4 36.6981 6.59356   2
   5  -8   4 -0.9196 5.35839   1
   5   8   4 9.85523 4.74510   2
   5   8   4 19.0339 8.95187   3
   5   8   4 10.0573 4.12574   1
   6  -8   4 56.9558 8.46476   1
   6   8   4 58.1396 6.31977   1
   6   8   4 79.9042 14.5174   3
   7  -8   4 -0.7304 5.91949   1
   7   8   4 -0.5676 3.29848   1
   7   8   4 0.39450 7.54086   3
   8  -9  -4 52.5902 10.7071   1
   8   9  -4 51.7920 10.4077   1
   7  -9  -4 -0.4129 5.94463   1
   7   9  -4 0.43266 5.88543   1
   6  -9  -4 0.52439 6.17050   1
   6   9  -4 6.55774 5.98802   1
   5  -9  -4 69.3075 10.5853   1
  -5   9   4 58.2469 8.83491   1
   5   9  -4 52.8192 9.41824   1
   4  -9  -4 25.7203 7.57616   1
  -4  -9   4 21.6366 7.22073   1
   4   9  -4 28.7119 7.26244   1
  -4   9   4 22.1684 6.85232   1
  -3  -9   4 106.633 11.1158   1
   3  -9  -4 122.909 11.7423   1
   3   9  -4 95.0593 10.2034   1
  -3   9   4 106.604 11.2024   1
  -2  -9   4 409.135 16.9802   1
   2  -9  -4 388.671 16.0980   1
  -2   9   4 390.410 16.2674   1
   2   9  -4 372.268 15.6264   1
   1  -9  -4 75.1685 8.36896   1
  -1  -9   4 57.0053 8.48299   1
   1   9  -4 64.9512 7.64372   1
  -1   9   4 71.2624 8.97850   1
   0  -9  -4 463.227 15.2753   1
   0  -9   4 450.693 17.3684   1
   0   9  -4 443.327 15.1624   1
   0   9   4 433.873 16.3914   1
   0   9   4 501.418 23.5350   3
   1  -9   4 8.28630 6.00746   1
   1   9   4 5.92954 5.42827   2
   1   9   4 -3.1661 7.90539   3
  -1   9  -4 13.0939 4.00255   1
   1   9   4 11.2579 4.95168   1
   2  -9   4 87.4336 9.77026   1
   2   9   4 76.3310 9.14350   2
   2   9   4 67.3029 12.2512   3
   2   9   4 90.9743 9.05895   1
   2   9   4 72.2738 8.29986   1
   3  -9   4 22.7206 7.01015   1
   3   9   4 17.2597 8.81485   3
   3   9   4 15.7519 5.33832   1
   3   9   4 10.7067 4.67970   1
   3   9   4 23.3357 6.67127   2
   4  -9   4 152.041 11.8559   1
   4   9   4 131.645 9.16218   1
   4   9   4 144.900 16.5775   3
   4   9   4 148.106 10.8546   2
   5  -9   4 132.460 11.3179   1
   5   9   4 136.655 17.1375   3
   5   9   4 136.719 8.83287   1
   5   9   4 149.040 10.5521   2
   6  -9   4 -6.6082 5.25903   1
   6   9   4 12.4933 4.37238   1
   6   9   4 3.07659 8.09937   3
   7  -9   4 -1.9520 6.07451   1
   7   9   4 1.26273 3.33282   1
   7   9   4 -7.1863 7.69409   3
   8 -10  -4 21.2794 8.67474   1
   8  10  -4 19.6957 7.85473   1
   7 -10  -4 25.2789 8.40230   1
   7  10  -4 27.7518 8.37204   1
   6 -10  -4 6.23372 6.63239   1
   6  10  -4 4.96626 6.04685   1
   5 -10  -4 481.458 21.4613   1
  -5  10   4 457.833 22.4924   1
   5  10  -4 466.282 20.7812   1
   4 -10  -4 25.9986 7.45475   1
  -4 -10   4 23.2868 7.48737   1
  -4  10   4 22.2209 6.58169   1
   4  10  -4 14.0679 6.50996   1
   3 -10  -4 61.9266 9.62203   1
  -3 -10   4 64.5747 9.32263   1
   3  10  -4 66.0146 9.11828   1
  -3  10   4 39.3580 7.73189   1
   2 -10  -4 -0.6777 4.63065   1
  -2 -10   4 -4.6251 5.45858   1
  -2  10   4 -2.1283 4.76230   1
   2  10  -4 5.01338 4.73703   1
  -1 -10   4 101.496 10.6660   1
   1 -10  -4 93.5850 9.37942   1
  -1  10   4 77.9651 9.06152   1
   1  10  -4 102.932 9.54926   1
   0 -10  -4 557.801 16.9236   1
   0 -10   4 560.590 19.5452   1
   0  10   4 543.729 18.5716   1
   0  10   4 547.487 24.9813   3
   0  10  -4 525.778 16.7842   1
  -1 -10  -4 97.3616 8.37297   1
   1 -10   4 84.1989 9.65644   1
   1  10   4 95.6389 9.53845   1
  -1  10  -4 91.2557 7.71452   1
   1  10   4 94.5515 10.4249   2
   1  10   4 87.6113 13.2640   3
   2 -10   4 14.4889 6.84793   1
   2  10   4 8.39853 4.92535   1
   2  10   4 3.32265 5.40899   2
   2  10   4 3.64785 7.85520   3
   3 -10   4 13.2594 6.92378   1
   3  10   4 5.72194 6.03070   2
   3  10   4 2.66248 4.63456   1
   3  10   4 1.33356 7.76089   3
   4 -10   4 142.822 11.8143   1
   4  10   4 191.282 18.4854   3
   4  10   4 161.497 11.8200   2
   4  10   4 158.307 10.0351   1
   5 -10   4 39.3062 8.02625   1
   5  10   4 53.2306 6.90504   1
   5  10   4 54.2355 8.52337   2
   5  10   4 40.9616 11.1993   3
   6 -10   4 124.370 11.7692   1
   6  10   4 117.221 17.5732   3
   6  10   4 115.422 8.68330   1
   7 -10   4 30.2670 8.02235   1
   7  10   4 43.9191 13.2641   3
   7  10   4 36.0837 5.83312   1
   8 -11  -4 -2.5924 6.57231   1
   8  11  -4 3.50501 6.78049   1
   7 -11  -4 48.0121 10.5480   1
   7  11  -4 55.8960 10.3377   1
   6 -11  -4 32.9847 8.90709   1
   6  11  -4 52.4945 9.81160   1
   5 -11  -4 0.12843 6.36336   1
   5  11  -4 0.95995 5.80340   1
   4 -11  -4 197.894 14.5342   1
  -4 -11   4 209.981 14.3324   1
   4  11  -4 210.679 14.2069   1
  -4  11   4 223.740 14.2785   1
  -3 -11   4 87.4248 10.5338   1
   3 -11  -4 91.9871 10.7082   1
  -3  11   4 112.520 11.0130   1
   3  11  -4 93.3665 10.7146   1
  -2 -11   4 339.218 16.5744   1
   2 -11  -4 372.177 16.2526   1
  -2  11   4 365.549 16.5021   1
   2  11  -4 352.327 15.6872   1
  -1 -11   4 273.636 14.7836   1
   1 -11  -4 246.574 12.9300   1
  -1  11   4 269.448 14.4911   1
   1  11  -4 277.914 13.4576   1
   0 -11   4 431.229 17.8058   1
   0 -11  -4 438.041 15.4986   1
   0  11   4 405.909 24.1188   3
   0  11   4 446.942 17.0090   1
   0  11  -4 421.782 15.3693   1
  -1 -11  -4 238.150 10.8222   1
   1 -11   4 269.787 14.8717   1
   1  11   4 230.261 12.8200   1
   1  11   4 247.687 14.7808   2
  -1  11  -4 237.528 10.8936   1
   1  11   4 272.118 19.0458   3
   2 -11   4 133.463 12.0324   1
   2  11   4 138.613 15.2913   3
   2  11   4 118.312 11.5834   2
   2  11   4 146.578 10.9091   1
   3 -11   4 55.5710 9.28256   1
   3  11   4 67.9976 8.24424   1
   3  11   4 70.3667 9.98547   2
   3  11   4 65.7924 12.3393   3
   4 -11   4 156.238 12.7619   1
   4  11   4 119.726 11.9988   2
   4  11   4 158.894 17.0416   3
   4  11   4 128.723 9.51356   1
   5 -11   4 14.1563 6.71317   1
   5  11   4 7.02503 5.27444   2
   5  11   4 9.96725 8.49162   3
   5  11   4 2.09790 4.16505   1
   6 -11   4 90.5528 10.6247   1
   6  11   4 99.4915 16.6466   3
   6  11   4 102.176 8.86591   1
   7 -11   4 -0.4368 6.68998   1
   7  11   4 3.47252 9.09692   3
   7  11   4 -0.4378 3.96118   1
   8 -12  -4 5.89485 7.46392   1
   8  12  -4 20.5802 8.68922   1
   7 -12  -4 -7.4537 6.24428   1
   7  12  -4 -4.5592 5.59743   1
   6 -12  -4 28.7625 8.66053   1
   6  12  -4 23.4196 7.60543   1
   5 -12  -4 40.2016 9.42860   1
   5  12  -4 47.4291 8.92340   1
  -4 -12   4 23.3620 7.91273   1
   4 -12  -4 24.9930 8.06176   1
   4  12  -4 23.9288 7.16271   1
  -4  12   4 26.2947 7.22281   1
   3 -12  -4 11.5127 6.60570   1
  -3 -12   4 29.2024 8.17690   1
  -3  12   4 45.0382 7.98726   1
   3  12  -4 25.0652 6.63748   1
   2 -12  -4 -6.3976 4.96556   1
  -2 -12   4 3.01823 6.34551   1
   2  12  -4 7.44402 5.16102   1
  -2  12   4 -3.9493 4.63218   1
   1 -12  -4 67.4443 8.62099   1
  -1 -12   4 57.8122 8.96590   1
   1  12  -4 58.4506 7.87492   1
  -1  12   4 51.6020 8.19135   1
   0 -12  -4 73.1816 8.30042   1
   0 -12   4 54.3009 9.03153   1
   0  12   4 60.8138 8.35035   1
   0  12  -4 66.3405 7.84802   1
   0  12   4 82.1069 14.5024   3
  -1 -12  -4 128.928 9.60032   1
   1 -12   4 137.708 12.7027   1
   1  12   4 103.535 14.6663   3
   1  12   4 117.051 12.2198   2
  -1  12  -4 123.950 9.70152   1
   1  12   4 108.736 10.3316   1
   2 -12   4 4.20370 6.58244   1
   2  12   4 -1.4455 4.35968   1
   2  12   4 -1.4098 5.88190   2
   2  12   4 -8.2447 7.80859   3
   3 -12   4 3.60143 7.15043   1
   3  12   4 23.1883 10.1583   3
   3  12   4 13.8019 5.27702   1
   3  12   4 6.01203 6.28084   2
   4 -12   4 43.3897 8.86300   1
   4  12   4 47.7375 8.58872   2
   4  12   4 29.1638 10.3618   3
   4  12   4 45.9884 7.04955   1
   5 -12   4 17.6173 7.77688   1
   5  12   4 18.0408 9.21405   3
   5  12   4 4.64417 4.59870   1
   5  12   4 14.0811 6.28344   2
   6 -12   4 3.59458 6.66368   1
   6  12   4 -3.7119 7.83984   3
   6  12   4 6.40817 4.33449   1
   7 -12   4 5.64540 7.41543   1
   7  12   4 37.4308 12.9878   3
   7  12   4 9.86037 4.59896   1
   8 -13  -4 -15.021 6.02173   1
   8  13  -4 13.1581 7.80091   1
   7 -13  -4 112.661 14.1963   1
   7  13  -4 120.146 14.6290   1
   6 -13  -4 -0.0645 6.46917   1
   6  13  -4 -1.8356 5.73978   1
   5 -13  -4 74.4516 11.3428   1
   5  13  -4 60.5495 9.73614   1
   4 -13  -4 46.5657 9.51472   1
  -4 -13   4 62.1176 9.95856   1
   4  13  -4 50.1144 8.93179   1
  -4  13   4 69.4548 9.78030   1
   3 -13  -4 40.3324 8.67480   1
  -3 -13   4 37.7187 8.84828   1
   3  13  -4 50.1266 8.56268   1
  -3  13   4 36.7745 7.84859   1
   2 -13  -4 12.2630 6.64674   1
  -2 -13   4 19.0768 7.52896   1
  -2  13   4 16.2112 6.29494   1
   2  13  -4 13.7062 5.50939   1
  -1 -13   4 240.520 15.3271   1
   1 -13  -4 211.194 12.7958   1
  -1  13   4 205.515 13.2188   1
   1  13  -4 223.446 12.8703   1
   0 -13  -4 71.5341 8.52806   1
   0 -13   4 76.3380 10.5927   1
   0  13   4 68.7195 8.99668   1
   0  13  -4 75.2551 8.43585   1
   0  13   4 47.2932 13.6408   3
   1 -13   4 18.5001 7.59935   1
  -1 -13  -4 19.2091 5.68682   1
   1  13   4 12.8084 7.25517   2
  -1  13  -4 15.8855 4.85503   1
   1  13   4 16.0810 5.72450   1
   1  13   4 8.45652 10.4886   3
   2 -13   4 2.89078 6.80508   1
   2  13   4 8.44269 6.74873   2
   2  13   4 -2.1713 4.41610   1
   2  13   4 7.32214 9.77887   3
   3 -13   4 84.0098 10.9728   1
   3  13   4 92.9290 11.8613   2
   3  13   4 84.8678 9.67881   1
   3  13   4 100.967 14.8420   3
   4 -13   4 24.9292 8.03785   1
   4  13   4 32.2628 6.57601   1
   4  13   4 22.3473 9.71541   3
   4  13   4 26.7115 7.50758   2
   5 -13   4 611.861 22.8484   1
   5  13   4 637.623 31.2431   3
   5  13   4 663.351 19.8921   1
   5  13   4 636.543 23.3729   2
   6 -13   4 56.7232 9.90447   1
   6  13   4 77.0439 15.4980   3
   6  13   4 40.4000 6.99642   1
   8 -14  -4 6.04901 8.31567   1
   8  14  -4 11.7751 7.66684   1
   7 -14  -4 9.31823 7.78397   1
   7  14  -4 3.80079 6.88842   1
   6 -14  -4 8.70174 7.43699   1
   6  14  -4 -1.6065 5.73233   1
   5 -14  -4 32.7616 9.24356   1
   5  14  -4 54.3014 9.42848   1
  -4 -14   4 39.0080 9.00121   1
   4 -14  -4 22.6033 7.94352   1
   4  14  -4 36.5918 8.36405   1
  -4  14   4 29.6053 7.83038   1
  -3 -14   4 171.096 14.7799   1
   3 -14  -4 139.934 13.8231   1
   3  14  -4 181.229 13.0486   1
  -3  14   4 179.397 13.6635   1
  -2 -14   4 804.779 25.4364   1
   2 -14  -4 793.133 24.9686   1
   2  14  -4 763.195 24.1097   1
  -2  14   4 813.446 25.3702   1
   1 -14  -4 274.405 14.5798   1
  -1 -14   4 274.201 16.4686   1
   1  14  -4 291.008 14.3260   1
  -1  14   4 272.521 15.3452   1
   0 -14  -4 393.254 15.9668   1
   0 -14   4 411.597 19.3011   1
   0  14   4 396.609 17.5784   1
   0  14   4 369.553 24.2935   3
   0  14  -4 431.200 16.2390   1
   0  14   4 413.983 20.0629   2
  -1 -14  -4 168.421 10.8258   1
   1 -14   4 214.652 15.3717   1
   1  14   4 164.121 18.3858   3
  -1  14  -4 164.469 10.1943   1
   1  14   4 167.892 12.0685   1
   1  14   4 165.616 14.7887   2
   2 -14   4 94.9065 11.4634   1
   2  14   4 145.148 12.3450   1
   2  14   4 91.2714 14.3007   3
   2  14   4 121.034 12.9454   2
   3 -14   4 15.0554 7.83341   1
   3  14   4 21.1556 10.2805   3
   3  14   4 20.7899 7.79110   2
   3  14   4 9.67179 5.31002   1
   4 -14   4 45.1835 9.40434   1
   4  14   4 36.1860 11.2235   3
   4  14   4 32.9536 6.62348   1
   4  14   4 27.3756 7.43919   2
   5 -14   4 6.43036 7.10021   1
   5  14   4 -3.7771 7.43422   3
   5  14   4 4.73245 4.74223   1
   5  14   4 1.70660 5.35972   2
   6 -14   4 4.59405 7.04577   1
   6  14   4 4.65199 5.06607   1
   6  14   4 18.7500 10.4250   3
   8 -15  -4 14.3276 8.77239   1
   8  15  -4 -0.1439 6.79450   1
   7 -15  -4 2.30554 7.05444   1
   7  15  -4 4.80036 6.98843   1
   6 -15  -4 45.5616 10.5747   1
   6  15  -4 26.2836 7.96768   1
   5 -15  -4 26.4236 8.99441   1
   5  15  -4 18.5555 7.30325   1
   5  15  -4 22.6819 8.52644   3
   4 -15  -4 490.992 21.9060   1
  -4 -15   4 456.326 20.7477   1
   4  15  -4 532.662 22.0026   3
  -4  15   4 476.947 20.4878   1
   4  15  -4 467.484 21.0763   1
   3 -15  -4 100.549 12.6865   1
  -3 -15   4 139.426 13.2509   1
  -3  15   4 100.556 11.4683   1
   3  15  -4 118.643 12.4649   1
   3  15  -4 123.542 11.3512   3
  -2 -15   4 129.615 13.1863   1
   2 -15  -4 132.257 12.5692   1
  -2  15   4 105.923 11.2694   1
   2  15  -4 133.074 12.8664   1
  -1 -15   4 59.0059 10.0928   1
   1 -15  -4 62.8648 9.31867   1
  -1  15   4 62.3081 9.43204   1
   1  15  -4 70.1071 9.17404   1
   0 -15  -4 255.064 13.9850   1
   0 -15   4 260.850 16.8722   1
   0  15  -4 258.087 13.3910   1
   0  15   4 239.743 14.7224   1
   0  15   4 256.204 21.8086   3
   0  15   4 256.709 16.7774   2
  -1 -15  -4 -4.1943 4.96551   1
   1 -15   4 0.81033 7.37549   1
  -1  15  -4 1.53923 4.00323   1
   1  15   4 4.30771 5.01995   1
   1  15   4 -4.7197 6.72544   2
   1  15   4 -10.999 9.28717   3
   2 -15   4 14.2481 8.32755   1
   2  15   4 13.7497 8.26082   2
   2  15   4 9.71922 10.1994   3
   2  15   4 9.69650 5.65191   1
   3 -15   4 245.729 16.2464   1
   3  15   4 221.755 16.0874   2
   3  15   4 247.995 19.9375   3
   3  15   4 266.355 14.3373   1
   4 -15   4 6.11840 7.52310   1
   4  15   4 1.83968 5.83671   2
   4  15   4 8.63335 8.75707   3
   4  15   4 1.41221 4.70419   1
   5 -15   4 264.794 17.5624   1
   5  15   4 278.517 17.0075   2
   5  15   4 291.656 14.6218   1
   5  15   4 278.011 25.8729   3
   6 -15   4 29.2605 9.63335   1
   6  15   4 20.7342 6.30241   1
   6  15   4 41.2377 12.7676   3
   8 -16  -4 6.00531 8.74487   1
   8  16  -4 6.32028 7.89130   1
   7 -16  -4 12.1749 8.41440   1
   7  16  -4 4.67128 7.24564   1
   6 -16  -4 4.42961 7.37997   1
   6  16  -4 3.35579 6.11742   1
   6  16  -4 1.41378 7.26651   3
   5 -16  -4 49.5367 10.3693   1
   5  16  -4 26.8434 7.82803   1
   5  16  -4 40.3497 9.73690   3
   4 -16  -4 294.882 18.4364   1
  -4 -16   4 270.968 17.0840   1
   4  16  -4 279.669 17.0060   3
   4  16  -4 233.638 16.0016   1
  -4  16   4 245.481 15.5848   1
  -3 -16   4 39.6938 9.45128   1
   3 -16  -4 26.9537 8.82762   1
   3  16  -4 44.3429 8.14711   3
   3  16  -4 22.4181 7.19790   1
  -3  16   4 45.7672 9.06280   1
  -2 -16   4 3.27373 7.21173   1
   2 -16  -4 -1.7745 6.13085   1
  -2  16   4 -0.6703 5.54217   1
   2  16  -4 9.41833 5.72119   1
  -1 -16   4 21.3277 8.51550   1
   1 -16  -4 15.1907 6.90223   1
   1  16  -4 24.5356 6.42514   1
  -1  16   4 35.2107 13.3584   3
  -1  16   4 8.22990 6.09434   1
   0 -16   4 28.8692 8.97050   1
   0 -16  -4 41.4798 8.07010   1
   0  16  -4 36.2678 7.01497   1
   0  16   4 43.3019 9.95477   2
   0  16   4 80.4606 15.6080   3
   0  16   4 34.7885 7.64734   1
  -1 -16  -4 64.2497 8.53607   1
   1 -16   4 58.5895 10.6610   1
   1  16   4 64.3684 9.25671   1
   1  16   4 42.3241 9.43782   2
  -1  16  -4 62.8058 8.00441   1
   1  16   4 57.3617 14.6326   3
   2 -16   4 27.1863 9.03559   1
   2  16   4 5.40422 5.57875   1
   2  16   4 17.4054 7.88725   2
   2  16   4 19.7359 10.7113   3
   3 -16   4 124.519 13.3804   1
   3  16   4 126.292 16.3498   3
   3  16   4 124.426 14.2979   2
   3  16   4 111.783 10.9992   1
   4 -16   4 23.8683 8.90139   1
   4  16   4 33.2657 8.42924   2
   4  16   4 16.2748 6.13960   1
   4  16   4 32.4138 11.5914   3
   5 -16   4 14.4011 8.35940   1
   5  16   4 22.5300 8.51775   2
   5  16   4 31.4458 11.4347   3
   5  16   4 10.3370 5.86199   1
   6 -16   4 -2.3337 7.73966   1
   6  16   4 1.89511 4.84582   1
   6  16   4 25.8356 8.14689   2
   6  16   4 20.0886 10.9477   3
   7 -17  -4 8.86471 8.18079   1
   7  17  -4 2.21219 6.69705   1
   6 -17  -4 114.153 14.6653   1
   6  17  -4 115.065 14.0544   1
   6  17  -4 143.423 17.8235   3
   5 -17  -4 26.2179 8.99158   1
   5  17  -4 35.9311 9.75218   3
   5  17  -4 26.7694 8.27066   1
  -4 -17   4 238.171 16.7439   1
   4 -17  -4 262.737 17.8137   1
   4  17  -4 258.319 16.5890   1
   4  17  -4 219.708 15.2226   3
  -4  17   4 210.049 15.1921   1
  -3 -17   4 -6.1923 7.36508   1
   3 -17  -4 -8.9641 6.29597   1
   3  17  -4 -0.9826 5.19048   1
   3  17  -4 7.03227 5.36154   3
  -3  17   4 -2.1931 5.46685   1
   2 -17  -4 33.9821 9.09502   1
  -2 -17   4 35.5992 9.33043   1
   2  17  -4 46.8521 6.70856   3
  -2  17   4 37.2902 8.40382   1
   2  17  -4 35.9738 8.23026   1
  -1 -17   4 4.04044 7.55377   1
   1 -17  -4 3.95140 6.38923   1
  -1  17   4 -0.4094 12.7950   3
  -1  17   4 14.3872 6.29359   1
   1  17  -4 -0.4676 4.65923   1
   0 -17   4 42.5650 9.81321   1
   0 -17  -4 32.7426 7.85865   1
   0  17   4 5.08275 12.1804   3
   0  17  -4 23.1209 6.17280   1
   0  17   4 36.1684 7.84217   1
   0  17   4 12.8605 8.44478   2
   1 -17   4 51.8234 11.1396   1
   1  17   4 59.0087 11.0933   2
   1  17   4 56.1724 8.79952   1
  -1  17  -4 68.6708 8.52370   1
   1  17   4 68.8386 14.8683   3
   2 -17   4 14.4692 8.76349   1
   2  17   4 19.5768 6.73490   1
   2  17   4 4.40848 10.4853   3
   2  17   4 13.0643 8.28311   2
   3 -17   4 10.4125 8.02858   1
   3  17   4 6.82602 7.37721   2
   3  17   4 10.3407 5.60908   1
   3  17   4 24.0369 10.0523   3
   4 -17   4 -4.7119 7.58579   1
   4  17   4 -1.1148 5.92365   2
   4  17   4 23.8557 10.4775   3
   4  17   4 -5.9089 4.34220   1
   5 -17   4 74.3142 12.0964   1
   5  17   4 62.1837 9.13496   1
   5  17   4 74.0321 11.4387   2
   5  17   4 77.4358 15.6861   3
   6 -17   4 15.2718 8.51250   1
   6  17   4 -5.1832 4.67502   1
   6  17   4 -1.6588 5.55953   2
   6  17   4 -7.0738 7.40035   3
   7 -18  -4 2.14228 7.94016   1
   7  18  -4 2.81459 6.80885   1
   6 -18  -4 44.9965 10.9888   1
   6  18  -4 22.1666 8.10203   1
   6  18  -4 28.3972 10.3057   3
   5 -18  -4 43.6790 10.7726   1
   5  18  -4 41.7213 9.97098   3
   5  18  -4 34.2981 8.72029   1
   4 -18  -4 56.6863 10.7864   1
  -4 -18   4 69.5700 11.1449   1
   4  18  -4 62.9049 10.2879   1
   4  18  -4 71.6071 10.7038   3
  -4  18   4 70.4051 10.4790   1
   3 -18  -4 161.465 15.4915   1
  -3 -18   4 186.920 16.2675   1
  -3  18   4 139.571 14.0004   1
   3  18  -4 151.851 14.5796   1
   3  18  -4 151.277 13.1510   3
  -2 -18   4 222.618 17.6620   1
   2 -18  -4 239.352 16.6482   1
  -2  18   4 214.980 15.2054   1
   2  18  -4 213.201 11.4167   3
   2  18  -4 212.426 14.7577   1
  -1 -18   4 -7.7145 7.29942   1
   1 -18  -4 -9.7367 5.75364   1
   1  18  -4 -2.3473 4.61184   1
  -1  18   4 9.53163 6.31598   1
  -1  18   4 24.8762 13.8087   3
   0 -18   4 56.0732 10.7851   1
   0 -18  -4 48.1617 8.83959   1
   0  18   4 44.6778 14.8713   3
   0  18  -4 61.4858 8.80817   1
   0  18   4 46.9018 10.5703   2
   0  18   4 52.0999 9.44747   1
   1 -18   4 34.0402 10.2913   1
   1  18   4 36.3750 7.93191   1
   1  18   4 40.2460 13.6152   3
  -1  18  -4 38.2920 7.08843   1
   1  18   4 18.1491 9.04583   2
   2 -18   4 20.7498 8.97471   1
   2  18   4 12.5383 6.26482   1
   2  18   4 9.85687 8.11423   2
   2  18   4 18.2888 10.8108   3
   3 -18   4 116.749 13.5263   1
   3  18   4 114.825 12.0360   1
   3  18   4 113.394 13.9811   2
   3  18   4 121.168 17.0364   3
   4 -18   4 34.8175 9.83025   1
   4  18   4 50.7549 10.1935   2
   4  18   4 29.1550 11.2797   3
   4  18   4 50.5202 8.98839   1
   5 -18   4 189.802 17.1122   1
   5  18   4 175.172 13.3338   1
   5  18   4 171.080 21.3017   3
   5  18   4 211.771 19.0171   2
   6 -18   4 -7.6426 7.48899   1
   6  18   4 5.21483 5.85535   1
   6  18   4 -7.7939 8.87955   3
   6  18   4 5.10099 6.67268   2
   7 -19  -4 69.4979 13.1904   1
   7  19  -4 62.3625 12.1057   1
   7  19  -4 58.1978 13.5266   3
   6 -19  -4 6.82307 7.85674   1
   6  19  -4 1.20495 6.43082   1
   6  19  -4 1.76470 7.61456   3
   5 -19  -4 22.5991 9.64529   1
   5  19  -4 30.0174 9.60328   3
   5  19  -4 25.2006 8.09061   1
   4 -19  -4 4.82172 7.57976   1
  -4 -19   4 9.56614 8.64246   1
  -4  19   4 6.10624 5.84391   1
   4  19  -4 4.72568 6.01090   1
   4  19  -4 -4.5004 4.84356   3
   3 -19  -4 2.72018 7.35778   1
  -3 -19   4 -0.3370 7.47642   1
  -3  19   4 -1.5277 5.89101   1
   3  19  -4 -5.1287 4.80338   1
   3  19  -4 -8.6321 4.16059   3
  -2 -19   4 113.022 13.5933   1
   2 -19  -4 87.8496 11.8966   1
  -2  19   4 88.8878 12.0426   1
   2  19  -4 119.963 10.2650   3
   2  19  -4 104.814 11.8142   1
  -1 -19   4 103.811 13.6311   1
   1 -19  -4 108.264 12.5400   1
  -1  19   4 103.321 12.3783   1
  -1  19   4 123.309 19.8385   3
  -1  19   4 88.4367 13.8123   2
   1  19  -4 100.340 11.4340   1
   0 -19   4 5.75358 8.77316   1
   0 -19  -4 3.53392 6.63061   1
   0  19   4 -5.1424 12.4021   3
   0  19   4 -2.1338 8.07725   2
   0  19   4 0.39481 5.66988   1
   0  19  -4 -5.1814 4.50500   1
   1 -19   4 16.7051 9.40587   1
   1  19   4 12.3417 6.74313   1
   1  19   4 2.92547 8.11514   2
   1  19   4 -10.225 11.0767   3
  -1  19  -4 12.4359 5.51661   1
   2 -19   4 9.28513 8.10628   1
   2  19   4 0.37464 5.23977   1
   2  19   4 1.41418 7.43414   2
   2  19   4 1.42685 9.51928   3
   3 -19   4 -1.0790 7.60517   1
   3  19   4 15.7531 6.58167   1
   3  19   4 -4.0016 8.76770   3
   3  19   4 2.75712 6.85307   2
   4 -19   4 340.688 20.8113   1
   4  19   4 364.833 25.1050   3
   4  19   4 349.092 20.2588   2
   4  19   4 319.151 17.4754   1
   5 -19   4 39.8028 10.9852   1
   5  19   4 32.9927 7.93376   1
   5  19   4 45.5430 10.0996   2
   5  19   4 37.5038 12.2380   3
   6 -19   4 12.5009 9.78931   1
   6  19   4 5.82907 6.08563   1
   6  19   4 7.55102 10.2211   3
   6  19   4 19.9240 7.87532   2
   7 -20  -4 15.1091 9.45898   1
   7  20  -4 -0.3370 6.69051   1
   7  20  -4 -2.8314 8.44478   3
   6 -20  -4 23.3959 10.0785   1
   6  20  -4 36.9373 9.04506   1
   6  20  -4 23.4578 9.58224   3
   5 -20  -4 124.273 15.4355   1
   5  20  -4 156.456 17.1862   3
   5  20  -4 122.965 14.4117   1
   4 -20  -4 30.9251 9.59060   1
   4  20  -4 12.7281 7.05228   1
  -4  20   4 21.5514 7.25862   1
   4  20  -4 22.3362 7.74048   3
  -3 -20   4 12.9744 8.56000   1
   3 -20  -4 -0.1450 6.92168   1
  -3  20   4 -1.5027 5.49212   1
   3  20  -4 1.32469 5.07926   3
   3  20  -4 -0.9534 5.58282   1
   2 -20  -4 6.25358 7.66377   1
  -2 -20   4 20.0954 9.60554   1
  -2  20   4 4.38629 6.40002   1
   2  20  -4 15.8154 5.09409   3
   2  20  -4 2.79981 5.77135   1
  -1 -20   4 5.18162 8.25410   1
   1 -20  -4 7.14383 7.60759   1
  -1  20   4 5.12744 13.8438   3
  -1  20   4 1.60658 5.82333   1
   1  20  -4 5.00347 5.60962   1
  -1  20   4 1.41789 8.51277   2
   0 -20  -4 44.0262 9.53524   1
   0 -20   4 36.5149 10.6128   1
   0  20   4 59.8758 16.0431   3
   0  20   4 41.3102 8.93438   1
   0  20   4 67.3668 12.7266   2
   0  20  -4 43.2932 8.36370   1
   1 -20   4 -1.0140 8.45664   1
   1  20   4 10.9865 6.44144   1
   1  20   4 9.44773 8.24221   2
   1  20   4 1.00740 11.2786   3
  -1  20  -4 -5.3387 4.09154   1
   2 -20   4 105.119 13.6812   1
   2  20   4 105.388 13.8531   2
   2  20   4 96.1573 15.7424   3
   2  20   4 118.094 12.8379   1
   3 -20   4 33.8557 10.1005   1
   3  20   4 44.0183 10.7231   2
   3  20   4 45.7918 9.04267   1
   3  20   4 30.4161 11.5566   3
   4 -20   4 94.3387 13.7994   1
   4  20   4 98.6683 13.7604   2
   4  20   4 93.8178 11.8205   1
   4  20   4 101.154 16.8913   3
   5 -20   4 6.46691 9.29807   1
   5  20   4 7.06807 9.35599   3
   5  20   4 5.45688 6.53038   2
   5  20   4 -4.7090 5.14921   1
   6 -20   4 67.1386 13.2379   1
   6  20   4 91.5029 18.0004   3
   6  20   4 95.4442 11.8780   1
   6  20   4 84.9354 13.4931   2
   7 -21  -4 83.3000 14.6857   1
   7  21  -4 71.8291 13.1389   1
   7  21  -4 48.5316 13.6005   3
   6 -21  -4 5.53990 8.51159   1
   6  21  -4 15.5048 9.58714   3
   6  21  -4 3.00881 6.58340   1
   5 -21  -4 212.335 19.3461   1
   5  21  -4 214.611 20.0840   3
   5  21  -4 204.602 18.7219   1
   4 -21  -4 208.049 18.1773   1
  -4  21   4 194.116 16.7455   1
   4  21  -4 222.664 15.8501   3
   4  21  -4 179.579 16.6287   1
  -3 -21   4 164.577 16.2283   1
   3 -21  -4 171.317 16.9146   1
   3  21  -4 195.115 17.1838   1
  -3  21   4 179.542 16.1531   1
   3  21  -4 181.807 13.0288   3
   2 -21  -4 52.0268 10.4677   1
  -2 -21   4 58.5377 12.1336   1
  -2  21   4 53.4406 9.96216   1
   2  21  -4 56.6446 10.2683   1
   2  21  -4 62.8555 8.13084   3
  -1 -21   4 -13.548 7.45207   1
   1 -21  -4 4.79853 7.03062   1
  -1  21   4 32.0350 15.3898   3
   1  21  -4 5.72065 5.46062   3
  -1  21   4 12.2347 9.56891   2
  -1  21   4 7.96947 6.72488   1
   1  21  -4 4.01750 5.49007   1
   0 -21  -4 165.943 14.2989   1
   0 -21   4 121.004 14.3631   1
   0  21   4 149.159 20.2551   3
   0  21   4 132.795 16.3095   2
   0  21  -4 146.574 13.3006   1
   0  21   4 142.753 14.2332   1
   1 -21   4 129.860 15.0788   1
   1  21   4 169.030 15.7486   1
   1  21   4 133.205 18.7236   3
   1  21   4 127.420 15.5565   2
   2 -21   4 10.4578 8.63964   1
   2  21   4 12.5445 6.59386   1
   2  21   4 13.0390 8.83740   2
   2  21   4 6.85733 10.3574   3
   3 -21   4 5.23252 8.55091   1
   3  21   4 8.36153 6.13567   1
   3  21   4 16.4773 8.71845   2
   3  21   4 5.07616 9.38323   3
   4 -21   4 5.99685 8.98653   1
   4  21   4 -5.7624 8.30163   3
   4  21   4 11.7004 7.97764   2
   4  21   4 9.33339 6.04588   1
   5 -21   4 -2.4007 8.66202   1
   5  21   4 3.62764 7.01747   2
   5  21   4 16.0830 7.17095   1
   5  21   4 27.3166 12.1111   3
   7 -22  -4 -1.5707 8.73652   1
   7  22  -4 4.72246 7.73881   1
   7  22  -4 5.18560 9.15339   3
   6 -22  -4 -9.0443 7.17824   1
   6  22  -4 4.68122 6.88075   1
   6  22  -4 -6.0287 7.23831   3
   5 -22  -4 416.123 23.5457   1
   5  22  -4 371.236 21.9857   1
   5  22  -4 363.403 21.9941   3
   4 -22  -4 75.4999 12.7816   1
   4  22  -4 63.0366 10.8898   3
  -4  22   4 43.4724 9.41077   1
   4  22  -4 51.1739 10.0525   1
  -3 -22   4 58.9182 11.5684   1
   3 -22  -4 81.2810 12.7621   1
   3  22  -4 77.8577 10.2456   3
   3  22  -4 57.0036 10.0063   1
  -3  22   4 49.5573 9.60135   1
  -2 -22   4 -4.1957 7.55337   1
   2 -22  -4 -6.3763 6.70610   1
  -2  22   4 4.39648 6.21737   1
  -2  22   4 1.91858 9.40848   2
   2  22  -4 4.50120 4.42677   3
   2  22  -4 -8.0809 4.72397   1
  -1 -22   4 43.1669 11.2259   1
   1 -22  -4 64.3224 10.7641   1
  -1  22   4 66.3440 10.6676   1
  -1  22   4 37.4753 11.3646   2
   1  22  -4 92.7980 12.1030   1
  -1  22   4 33.4590 16.1695   3
   0 -22  -4 10.3532 7.52427   1
   0 -22   4 9.54443 8.93902   1
   0  22  -4 2.94081 5.49108   1
   0  22   4 9.29355 9.18089   2
   0  22   4 -1.2098 5.80491   1
   0  22   4 -6.0888 11.3486   3
   1 -22   4 -4.7532 7.85830   1
   1  22   4 6.31337 8.60894   2
   1  22   4 8.18067 6.59287   1
   1  22   4 2.39120 10.6638   3
   2 -22   4 58.8236 11.7788   1
   2  22   4 51.0194 11.3085   2
   2  22   4 42.3140 12.9865   3
   2  22   4 64.9852 10.9653   1
   3 -22   4 -2.0179 8.21810   1
   3  22   4 -1.2867 7.31273   2
   3  22   4 9.30490 10.0331   3
   3  22   4 1.81821 5.63392   1
   4 -22   4 81.6650 13.4239   1
   4  22   4 86.5067 11.5621   1
   4  22   4 77.2081 13.3509   2
   4  22   4 59.0399 13.8199   3
   5 -22   4 149.341 17.0705   1
   5  22   4 155.339 17.1365   2
   5  22   4 157.375 21.1254   3
   5  22   4 133.365 14.5916   1
   6 -23  -4 66.4424 13.6909   1
   6  23  -4 48.5026 10.9679   1
   6  23  -4 36.6818 11.0267   3
   5 -23  -4 44.2676 11.6206   1
   5  23  -4 55.2332 10.9497   1
   5  23  -4 64.9057 12.1907   3
   4 -23  -4 55.0924 11.8932   1
   4  23  -4 54.0855 10.5201   3
  -4  23   4 48.2902 10.6178   1
   4  23  -4 36.1425 9.53271   1
   3 -23  -4 31.1638 9.59605   1
  -3 -23   4 19.5330 9.27663   1
  -3  23   4 26.6608 8.43410   1
   3  23  -4 11.4968 6.85740   1
   3  23  -4 23.4658 7.12799   3
   2 -23  -4 21.7612 8.63249   1
  -2 -23   4 1.88280 8.53251   1
   2  23  -4 6.40314 6.37751   1
  -2  23   4 12.8557 9.92344   2
  -2  23   4 -0.7442 5.90692   1
  -2  23   4 -3.5201 13.2183   3
   2  23  -4 3.99789 4.65750   3
   1 -23  -4 27.0546 8.71806   1
  -1 -23   4 28.8085 10.6970   1
   1  23  -4 59.9473 9.90695   1
  -1  23   4 38.6196 15.8418   3
  -1  23   4 47.3617 9.65166   1
  -1  23   4 25.2082 10.6052   2
   0 -23  -4 382.306 26.7013   1
   0 -23   4 467.427 24.2365   1
   0  23   4 405.632 27.5676   3
   0  23   4 438.957 23.8076   2
   0  23   4 418.029 21.1918   1
   0  23  -4 387.970 18.9863   1
   1 -23   4 75.9630 13.0817   1
   1  23   4 59.9259 10.2325   1
   1  23   4 53.2344 14.1311   3
   1  23   4 102.964 14.7503   2
   2 -23   4 -6.4322 7.81368   1
   2  23   4 6.45415 6.09337   1
   2  23   4 0.51866 7.36458   2
   2  23   4 12.2581 10.3907   3
   3 -23   4 73.7223 13.1553   1
   3  23   4 79.2189 11.4348   1
   3  23   4 76.1752 13.5925   2
   3  23   4 88.3786 16.4669   3
   4 -23   4 202.985 19.1746   1
   4  23   4 280.278 26.7899   3
   4  23   4 272.761 19.6969   2
   4  23   4 230.187 16.5813   1
   5 -23   4 146.036 17.7796   1
   5  23   4 167.247 18.7599   2
   5  23   4 154.690 16.2822   1
   5  23   4 154.876 21.2722   3
   6 -24  -4 11.8523 8.74493   1
   6  24  -4 -4.0240 6.05890   1
   6  24  -4 1.92048 7.97901   3
   5 -24  -4 1.76240 8.40336   1
   5  24  -4 4.44909 7.14521   3
   5  24  -4 -0.2259 6.36497   1
   4 -24  -4 13.1334 9.14215   1
  -4  24   4 11.8214 11.4874   1
   4  24  -4 12.0503 7.76173   1
   4  24  -4 5.37821 6.92285   3
   3 -24  -4 40.8540 10.7401   1
  -3 -24   4 38.9628 10.7869   1
   3  24  -4 56.7612 10.7584   1
  -3  24   4 21.3841 8.04466   1
   3  24  -4 48.3636 9.19339   3
   2 -24  -4 42.4325 10.3248   1
  -2 -24   4 32.4662 10.9198   1
   2  24  -4 28.0980 6.49308   3
  -2  24   4 18.1626 10.0941   2
  -2  24   4 21.8368 7.87282   1
  -2  24   4 39.4506 16.1952   3
   2  24  -4 17.3590 7.64061   1
   1 -24  -4 393.196 20.9701   1
  -1 -24   4 342.538 21.7579   1
   1  24  -4 324.174 18.7999   1
  -1  24   4 343.153 28.2942   3
  -1  24   4 369.635 20.2418   1
  -1  24   4 346.338 22.7285   2
   0 -24   4 380.734 22.3618   1
   0  24   4 349.364 20.1303   1
   0  24   4 365.379 22.4169   2
   0  24   4 350.387 27.6871   3
   0  24  -4 361.502 18.8835   1
   1 -24   4 -10.372 7.64714   1
   1  24   4 4.93026 8.63323   2
   1  24   4 -8.5329 5.74967   1
   1  24   4 0.15705 10.5462   3
   2 -24   4 2.80319 8.84324   1
   2  24   4 13.0207 10.6333   3
   2  24   4 8.14804 6.47332   1
   2  24   4 0.53447 7.89361   2
   3 -24   4 1.25759 9.12887   1
   3  24   4 4.12291 6.02537   1
   3  24   4 3.74145 8.69333   2
   3  24   4 3.77933 9.51902   3
   4 -24   4 57.5765 12.7669   1
   4  24   4 64.3233 14.7383   3
   4  24   4 65.2550 12.8250   2
   4  24   4 78.7745 11.8772   1
   5 -24   4 11.8151 10.7029   1
   5  24   4 15.6838 7.98406   1
   5  24   4 10.1610 9.70755   3
   5  24   4 12.9887 8.77997   2
   6 -25  -4 -13.934 8.74716   1
   6  25  -4 -10.596 6.55052   3
   6  25  -4 2.46667 7.12709   1
   5 -25  -4 0.42610 8.50743   1
   5  25  -4 -0.6696 6.62975   3
   5  25  -4 -1.9431 6.35536   1
   4 -25  -4 38.5131 11.4660   1
   4  25  -4 44.7784 10.6323   1
   4  25  -4 40.0953 9.68926   3
  -3 -25   4 48.3993 12.1134   1
   3 -25  -4 62.5495 12.8203   1
   3  25  -4 45.9872 10.1219   1
  -3  25   4 46.2575 13.3219   2
  -3  25   4 41.7753 10.0565   1
   3  25  -4 58.6594 9.63519   3
  -2 -25   4 -14.362 7.38542   1
   2 -25  -4 0.95717 7.65150   1
  -2  25   4 -1.5422 6.03165   1
  -2  25   4 1.53771 14.1157   3
   2  25  -4 -1.3926 5.87703   1
  -2  25   4 -12.194 7.95958   2
  -1 -25   4 5.91077 9.56047   1
   1 -25  -4 2.17846 7.68901   1
  -1  25   4 9.75731 13.7075   3
   1  25  -4 1.93870 5.80353   1
  -1  25   4 -3.6521 7.90603   2
  -1  25   4 13.7876 7.02970   1
   0 -25   4 5.68104 9.29673   1
   0  25  -4 17.7049 7.29416   1
   0  25   4 15.2845 7.41305   1
   0  25   4 32.9925 11.6375   2
   0  25   4 17.3910 12.7293   3
   1 -25   4 659.661 29.1307   1
   1  25   4 659.059 26.7537   1
   1  25   4 615.396 29.0041   2
   1  25   4 600.745 32.3322   3
   2 -25   4 425.154 24.8996   1
   2  25   4 469.997 25.6339   2
   2  25   4 503.821 23.1344   1
   2  25   4 439.994 29.2686   3
   3 -25   4 146.198 17.3504   1
   3  25   4 162.175 20.8040   3
   3  25   4 151.594 16.0700   1
   3  25   4 159.866 18.4138   2
   4 -25   4 -7.1877 9.59084   1
   4  25   4 3.66462 7.32733   1
   4  25   4 1.70465 7.06517   2
   4  25   4 3.49218 9.18361   3
   5 -25   4 3.28577 10.0895   1
   5  25   4 10.9573 8.14942   2
   5  25   4 -3.2797 8.55565   3
   5  25   4 5.97389 7.45973   1
   6 -26  -4 2.86931 9.53863   1
   6  26  -4 4.98537 7.46612   1
   6  26  -4 6.40449 8.37936   3
   5 -26  -4 19.4298 9.57519   1
   5  26  -4 0.14913 6.58828   1
   5  26  -4 7.19537 7.37038   3
   4 -26  -4 70.3547 13.4858   1
   4  26  -4 68.4211 11.6910   3
   4  26  -4 63.2519 11.7513   1
   3 -26  -4 78.1427 14.2189   1
  -3 -26   4 52.9081 12.2433   1
   3  26  -4 63.8079 10.3439   3
  -3  26   4 50.0009 10.9250   1
  -3  26   4 57.4606 14.2410   2
   3  26  -4 49.4192 10.7947   1
   2 -26  -4 11.8419 8.40806   1
  -2 -26   4 -2.6367 8.73699   1
   2  26  -4 3.18942 6.52496   1
  -2  26   4 -2.5068 14.4661   3
  -2  26   4 5.52472 6.75248   1
  -2  26   4 4.09385 9.04170   2
   1 -26  -4 1.38924 7.84393   1
  -1 -26   4 -8.5883 8.40568   1
  -1  26   4 2.89974 13.2942   3
  -1  26   4 11.2373 9.80009   2
   1  26  -4 3.98795 6.60821   1
  -1  26   4 7.60520 7.12691   1
   0 -26   4 60.8209 13.3539   1
   0  26  -4 66.4234 10.7965   1
   0  26   4 67.1522 13.2429   2
   0  26   4 74.5161 17.0579   3
   0  26   4 53.6128 10.7846   1
   1 -26   4 2.69622 9.18447   1
   1  26   4 2.30161 6.26254   1
   1  26   4 13.2215 9.24071   2
  -1  26  -4 5.49784 6.12146   2
   1  26   4 7.28631 11.3255   3
   2 -26   4 22.0000 10.7737   1
   2  26   4 12.5274 9.64955   2
   2  26   4 8.11525 7.13678   1
   2  26   4 19.9972 12.1506   3
   3 -26   4 6.83072 10.3194   1
   3  26   4 28.4400 11.5870   3
   3  26   4 24.1193 8.85729   1
   3  26   4 20.8569 10.1211   2
   4 -26   4 -6.4852 8.69654   1
   4  26   4 1.06238 9.01693   3
   4  26   4 4.33482 6.85396   1
   4  26   4 -1.7454 7.89467   2
   5 -27  -4 0.59448 8.86874   1
   5  27  -4 12.7286 8.36992   3
   5  27  -4 1.08317 6.44579   1
   4 -27  -4 -9.7360 8.21294   1
   4  27  -4 -7.1057 5.78588   1
  -4  27   4 -5.4466 9.11038   2
   4  27  -4 -2.8400 5.87924   3
   3 -27  -4 13.5246 9.94827   1
  -3  27   4 -4.9690 5.97099   1
   3  27  -4 4.65688 6.31996   3
   3  27  -4 4.28454 7.13021   1
  -3  27   4 -4.9489 9.12136   2
  -2 -27   4 100.075 15.2063   1
   2 -27  -4 101.768 14.7112   1
  -2  27   4 102.438 16.2839   2
  -2  27   4 98.4214 14.1017   1
   2  27  -4 113.461 14.9879   1
  -2  27   4 63.2535 18.7538   3
  -1 -27   4 7.33897 9.76227   1
   1 -27  -4 19.1279 9.48475   1
  -1  27   4 5.35549 7.01437   1
   1  27  -4 4.07932 6.30379   1
  -1  27   4 22.5141 14.5836   3
  -1  27   4 28.2078 11.1799   2
   0 -27   4 91.7209 15.2343   1
   0  27   4 54.2617 16.6142   3
   0  27   4 65.4290 11.3172   1
   0  27   4 64.5860 13.8307   2
   0  27  -4 78.1740 11.3558   2
   0  27  -4 59.2679 10.7624   1
   1 -27   4 -0.0391 9.63643   1
   1  27   4 9.62721 9.71361   2
   1  27   4 10.6041 12.2455   3
  -1  27  -4 9.03575 6.34794   2
   1  27   4 -0.5836 6.58761   1
   2 -27   4 2.94183 9.87538   1
   2  27   4 4.02900 10.6092   3
   2  27   4 12.2596 9.08424   2
   2  27   4 2.42909 6.41910   1
   3 -27   4 130.624 17.2295   1
   3  27   4 117.142 14.9840   1
   3  27   4 127.581 17.4991   2
   3  27   4 176.286 22.2996   3
   4 -27   4 58.9294 14.4148   1
   4  27   4 83.3937 15.1387   2
   4  27   4 68.8867 12.1556   1
   4  27   4 87.9892 17.6813   3
   5 -28  -4 13.0944 11.0646   1
  -5  28   4 5.50791 11.7520   2
   5  28  -4 5.23945 7.39490   1
   5  28  -4 0.41016 7.46698   3
   4 -28  -4 10.6487 9.59560   1
   4  28  -4 2.38958 6.99874   1
  -4  28   4 17.6518 11.9980   2
   4  28  -4 18.2085 8.50640   3
   3 -28  -4 5.93014 9.01143   1
  -3  28   4 1.76003 6.92649   1
   3  28  -4 6.47311 7.28370   1
  -3  28   4 1.95593 16.5596   3
  -3  28   4 6.45906 10.2447   2
   2 -28  -4 17.2565 9.28313   1
  -2 -28   4 -13.886 8.93015   1
  -2  28   4 3.45307 6.98429   1
   2  28  -4 4.62102 6.54013   1
  -2  28   4 -1.2258 14.9467   3
  -2  28   4 1.96618 9.75191   2
  -1 -28   4 9.35435 10.3364   1
   1 -28  -4 13.0799 12.7008   1
   1  28  -4 13.4604 7.61462   1
  -1  28   4 8.36691 9.75234   2
  -1  28   4 -6.7746 12.5504   3
  -1  28   4 9.13468 7.50124   1
   0 -28   4 27.6461 11.4380   1
   0  28  -4 50.2785 9.95391   2
   0  28   4 41.0932 15.4305   3
   0  28   4 60.8701 12.0419   1
   0  28   4 43.8702 12.4961   2
   1 -28   4 209.023 20.5472   1
   1  28   4 246.796 21.5725   1
   1  28   4 253.145 23.7686   2
  -1  28  -4 212.505 15.0761   2
   1  28   4 221.894 24.3339   3
   2 -28   4 27.0361 11.3495   1
   2  28   4 20.8230 12.0006   3
   2  28   4 14.6735 8.61960   1
   2  28   4 30.1489 11.2715   2
   3 -28   4 0.48193 10.6832   1
   3  28   4 3.55089 6.98708   1
   3  28   4 4.75950 8.44267   2
   3  28   4 17.3627 11.2702   3
   4 -28   4 -3.7091 9.36955   1
   4  28   4 6.38298 10.1768   3
   4  28   4 16.6406 8.06086   1
   4  28   4 4.11170 8.23946   2
   5 -29  -4 84.3976 15.9273   1
   5  29  -4 113.512 16.2684   1
   5  29  -4 119.991 16.6756   3
  -5  29   4 90.3633 17.8724   2
   4 -29  -4 128.151 17.4057   1
   4  29  -4 104.217 14.5164   3
   4  29  -4 96.7811 14.9648   1
  -4  29   4 136.712 19.6721   2
   3 -29  -4 21.4829 10.5071   1
   3  29  -4 16.4015 8.28584   1
  -3  29   4 8.48255 7.88723   1
  -3  29   4 -13.987 15.3325   3
  -3  29   4 -2.1232 9.14360   2
   2 -29  -4 26.0064 11.5581   1
  -2 -29   4 8.50243 10.7433   1
  -2  29   4 7.41088 10.7594   2
  -2  29   4 4.00702 14.3870   3
   2  29  -4 22.9841 8.35987   1
  -2  29   4 12.9363 7.88503   1
  -1 -29   4 70.5132 14.3974   1
  -1  29   4 71.1367 17.7475   3
   1  29  -4 61.3988 11.5127   1
  -1  29   4 44.2302 10.6406   1
  -1  29   4 57.5897 13.4529   2
   0 -29   4 2.47458 9.98300   1
   0  29   4 18.0211 11.0396   2
   0  29   4 15.4777 7.93661   1
   0  29   4 25.9942 13.6750   3
   0  29  -4 15.8420 7.51311   2
   1 -29   4 -14.750 8.88168   1
   1  29   4 5.32169 10.8087   3
  -1  29  -4 0.55918 6.23295   2
   1  29   4 2.05052 9.32255   2
   1  29   4 16.6828 8.42881   1
   2 -29   4 10.9980 11.1301   1
   2  29   4 27.2511 12.4878   3
   2  29   4 7.28733 7.48630   1
   2  29   4 0.38593 8.70114   2
   3 -29   4 14.0213 11.4761   1
   3  29   4 6.61335 8.00316   1
   3  29   4 24.2925 12.3496   3
   3  29   4 37.9272 11.8939   2
   4 -30  -4 12.9250 10.3517   1
   4  30  -4 11.9566 8.62218   1
  -4  30   4 20.1266 12.4656   2
   3 -30  -4 12.3395 10.5340   1
  -3  30   4 14.9671 16.8151   3
  -3  30   4 16.4988 8.69532   1
   3  30  -4 21.9998 9.09936   1
  -3  30   4 12.4581 11.0853   2
  -2 -30   4 -9.3393 9.07375   1
   2 -30  -4 12.1481 9.83464   1
  -2  30   4 12.2077 10.8451   2
   2  30  -4 9.74990 7.29382   1
  -2  30   4 -8.1526 14.9597   3
  -2  30   4 -0.3528 6.83686   1
  -1 -30   4 23.1987 10.8922   1
  -1  30   4 36.6681 12.6083   2
  -1  30   4 33.4562 10.2635   1
  -1  30   4 5.60335 13.5405   3
   1  30  -4 24.2205 8.62795   1
   0 -30   4 9.43204 11.0988   1
   0  30   4 15.2909 10.7300   2
   0  30   4 32.1615 15.0533   3
   0  30  -4 29.9438 8.95727   2
   0  30   4 19.3208 8.89036   1
   1 -30   4 279.522 24.2536   1
   1  30   4 289.291 21.2891   1
   1  30   4 228.638 25.2965   3
   1  30   4 297.672 25.5670   2
  -1  30  -4 283.104 17.3694   2
   2 -30   4 -3.4259 10.1991   1
   2  30   4 -6.8805 8.57387   2
   2  30   4 -0.9335 9.44480   3
   2  30   4 0.70601 6.96773   1
   3 -30   4 36.0078 12.6795   1
   3  30   4 71.3356 15.2467   2
   3  30   4 40.3982 10.9712   1
   3  30   4 47.3147 14.4134   3
   4 -31  -4 6.95926 10.6584   1
   4  31  -4 -5.6172 6.37675   1
  -4  31   4 -16.396 10.0919   2
   3 -31  -4 -6.4862 8.80555   1
  -3  31   4 3.60758 17.2601   3
   3  31  -4 -0.3714 6.72296   1
  -3  31   4 3.74955 10.1918   2
  -3  31   4 -3.3780 6.81399   1
   2 -31  -4 -2.5418 9.46501   1
  -2 -31   4 -6.3279 10.0938   1
  -2  31   4 -2.4312 10.0033   2
   2  31  -4 4.58353 7.26875   1
  -2  31   4 -2.4524 6.15057   1
  -2  31   4 -12.567 12.7381   3
  -1 -31   4 5.19330 10.0510   1
  -1  31   4 18.8506 14.4198   3
   1  31  -4 2.34885 6.81883   1
  -1  31   4 8.00215 7.71372   1
  -1  31   4 2.61573 9.99228   2
   0 -31   4 0.67967 10.3942   1
   0  31   4 13.7530 8.08665   1
   0  31   4 27.5988 14.5537   3
   0  31   4 5.31796 9.78807   2
   0  31  -4 -3.7390 5.72632   2
   1 -31   4 30.9896 13.2802   1
   1  31   4 34.8754 12.8009   2
   1  31   4 61.0295 15.6430   3
  -1  31  -4 51.7799 10.0329   2
   1  31   4 44.0367 11.1797   1
   2 -31   4 15.9937 11.8277   1
   2  31   4 11.8490 9.91421   2
   2  31   4 4.42843 7.86935   1
   2  31   4 30.3040 13.1096   3
   3 -31   4 6.49507 11.3160   1
   3  31   4 4.04403 10.6666   3
   3  31   4 4.90489 7.60130   1
   3  31   4 10.3983 10.3331   2
   4 -32  -4 19.5712 12.3402   1
   4  32  -4 29.8369 10.6936   1
  -4  32   4 -17.111 18.2411   3
  -4  32   4 29.4635 14.0747   2
   3 -32  -4 2.22026 9.51925   1
   3  32  -4 21.2392 9.55120   1
  -3  32   4 27.1901 12.3383   2
  -3  32   4 -4.0810 16.6146   3
   2 -32  -4 -1.9221 10.8587   1
  -2 -32   4 -4.9925 11.2074   1
   2  32  -4 5.89159 7.71098   1
  -2  32   4 -3.5792 9.76926   2
  -2  32   4 2.88716 7.18480   1
  -2  32   4 7.82784 14.7021   3
  -1 -32   4 99.6993 17.2999   1
  -1  32   4 93.8899 17.6835   2
  -1  32   4 72.1929 18.0472   3
   1  32  -4 97.3196 14.4639   1
  -1  32   4 88.2176 14.6867   1
   0 -32   4 15.0112 10.9925   1
   0  32   4 23.2672 11.0690   2
   0  32   4 14.3457 8.46890   1
   0  32  -4 16.0715 7.58793   2
   0  32   4 27.6225 14.1796   3
   1 -32   4 99.3210 17.1935   1
   1  32   4 100.371 15.1128   1
   1  32   4 92.8299 16.3723   2
   1  32   4 85.6937 17.7025   3
  -1  32  -4 101.031 13.0746   2
   2 -32   4 9.66652 11.7721   1
   2  32   4 7.79642 7.98182   1
   2  32   4 0.32938 9.61107   2
   2  32   4 16.6022 11.6318   3
   3 -33  -4 49.8726 13.9216   1
  -3  33   4 46.0614 14.8616   2
  -3  33   4 39.7687 19.7041   3
   3  33  -4 54.1673 12.5276   1
  -2  33   4 51.8633 11.9591   1
   2  33  -4 84.1052 14.0891   1
  -2  33   4 67.6980 19.2048   3
  -2  33   4 44.6057 14.1700   2
  -1 -33   4 3.40255 10.8581   1
   1  33  -4 9.21151 8.88859   1
  -1  33   4 -1.1232 7.46418   1
  -1  33   4 4.93434 12.9106   3
  -1  33   4 9.35845 10.9428   2
   0 -33   4 26.9165 12.4319   1
   0  33   4 26.8897 14.4959   3
   0  33   4 17.6176 9.05919   1
   0  33  -4 33.0502 9.66746   2
   0  33   4 32.5879 12.6729   2
   1 -33   4 58.1630 15.4368   1
  -1  33  -4 64.4772 11.4277   2
   1  33   4 63.7884 15.2597   2
   1  33   4 32.5700 14.7177   3
   1  33   4 47.2411 12.2730   1
  -2  34   4 19.4817 12.4524   2
  -2  34   4 21.4126 9.84189   1
   2  34  -4 20.0544 10.0448   1
  -2  34   4 21.1651 15.9753   3
  -1 -34   4 -6.7526 10.3853   1
  -1  34   4 1.22330 10.2591   2
  -1  34   4 16.2752 14.8596   3
  -1  34   4 7.16647 8.23808   1
   0 -34   4 48.8467 14.4692   1
   0  34   4 26.5548 13.2396   2
   0  34  -4 51.0670 11.6302   2
   0  34   4 62.0176 16.9782   3
   0  34   4 31.5862 10.7178   1
   1 -34   4 -14.892 10.0324   1
   1  34   4 11.3535 8.77768   1
   1  34   4 20.6791 12.5793   3
   1  34   4 5.72036 10.3358   2
  -1  34  -4 9.91581 7.78019   2
   8   0  -5 -5.1085 5.26379   1
   7   0  -5 26.8875 8.31831   1
   6   0  -5 13.1891 6.46088   1
   5   0  -5 7.35375 6.17896   1
  -5   0   5 -1.8347 5.57989   1
  -4   0   5 -1.7525 5.50413   1
   4   0  -5 -7.5552 4.85949   1
  -4   0   5 -4.3711 5.07554   1
  -3   0   5 -2.1218 5.30391   1
   3   0  -5 1.63456 4.95557   1
  -2   0   5 8.78046 5.80900   1
   2   0  -5 -1.0793 3.92118   1
   1   0  -5 10.6611 5.00254   1
  -1   0   5 16.9305 6.62957   1
   0   0  -5 1.22159 3.75304   1
   0   0   5 5.88694 5.84918   1
   0   0   5 3.50828 7.97022   3
   1   0   5 5.02288 5.24480   1
   1   0   5 6.11372 6.41414   3
   2   0   5 -1.4669 3.86281   2
   2   0   5 2.89498 5.61242   3
   2   0   5 -2.1521 4.94369   1
   3   0   5 922.687 23.4585   1
   3   0   5 913.405 26.5693   3
   3   0   5 955.092 17.3129   2
   4   0   5 -2.0210 4.63920   1
   4   0   5 -0.3534 5.37351   3
   5   0   5 3.39402 6.47820   3
   5   0   5 11.2724 5.26698   1
   6   0   5 -1.0682 6.55561   3
   6   0   5 -5.8477 4.25021   1
   8  -1  -5 127.429 14.9803   1
   8   1  -5 110.347 14.1180   1
   7  -1  -5 -5.3339 5.15476   1
   7   1  -5 1.63757 5.85995   1
   6  -1  -5 40.9377 9.07625   1
   6   1  -5 49.6734 9.55533   1
  -5  -1   5 31.9562 7.98522   1
   5  -1  -5 42.2773 8.89116   1
   5   1  -5 39.6836 8.67929   1
  -5   1   5 26.0696 7.64875   1
  -4  -1   5 11.6250 6.80613   1
   4  -1  -5 3.73704 6.02227   1
  -4  -1   5 14.5792 6.54677   1
  -4   1   5 16.5262 6.99185   1
   4   1  -5 4.28738 5.78097   1
  -4   1   5 21.8599 7.18615   1
   3  -1  -5 0.40029 4.69535   1
  -3  -1   5 4.37160 5.77174   1
  -3   1   5 -3.6300 5.25842   1
   3   1  -5 3.35578 5.15230   1
   2  -1  -5 6.92764 5.10909   1
  -2  -1   5 2.67737 5.85188   1
   2   1  -5 8.34677 4.93737   1
  -2   1   5 9.31822 6.18195   1
   1  -1  -5 199.927 11.5246   1
  -1  -1   5 203.622 13.2008   1
   1   1  -5 172.066 11.0399   1
  -1   1   5 174.830 12.6593   1
   0  -1   5 443.245 17.4708   1
   0  -1  -5 417.688 14.5616   1
   0  -1   5 403.477 17.8701   3
   0   1   5 386.716 16.6881   1
   0   1  -5 415.199 14.5567   1
   0   1   5 396.355 18.5791   3
   1  -1   5 -0.9439 4.98606   1
   1  -1   5 -0.8358 5.68627   3
   1   1   5 -0.8237 4.97966   1
   1   1   5 -0.7194 6.35306   3
   2  -1   5 -0.2709 5.27460   3
   2  -1   5 5.70158 3.87710   2
   2  -1   5 9.95865 5.69275   1
   2   1   5 0.30036 5.72494   3
   2   1   5 -1.1994 4.90903   1
   2   1   5 -6.2997 3.81156   2
   3  -1   5 59.6895 9.10289   3
   3  -1   5 46.3039 7.72945   1
   3   1   5 41.9203 8.29138   3
   3   1   5 52.2822 7.74628   1
   3   1   5 74.3776 6.12989   2
   4  -1   5 302.672 16.4053   3
   4  -1   5 291.040 13.5509   1
   4   1   5 273.828 16.6479   3
   4   1   5 281.584 13.1532   1
   5  -1   5 7.70850 5.19119   1
   5  -1   5 10.3952 7.26770   3
   5   1   5 8.70097 7.30580   3
   5   1   5 9.98047 5.28226   1
   6  -1   5 42.9981 9.86382   3
   6  -1   5 20.2474 5.89490   1
   6   1   5 20.9768 9.06040   3
   6   1   5 23.5214 5.71447   1
   8  -2  -5 57.7031 11.1341   1
   8   2  -5 54.2335 11.0487   1
   7  -2  -5 4.15182 5.94641   1
   7   2  -5 1.29974 6.04345   1
   6  -2  -5 133.475 13.5730   1
   6   2  -5 123.913 13.4317   1
  -5  -2   5 39.3277 8.32706   1
   5  -2  -5 36.2454 8.88380   1
   5   2  -5 28.4374 7.85880   1
  -5   2   5 31.5167 7.82261   1
  -4  -2   5 14.5515 7.16690   1
   4  -2  -5 10.6066 6.45613   1
   4   2  -5 14.0745 6.56033   1
  -4   2   5 16.2869 6.83462   1
   3  -2  -5 8.70945 5.69797   1
  -3  -2   5 0.91572 5.51377   1
  -3   2   5 11.7666 6.19275   1
   3   2  -5 8.95923 5.88847   1
  -3   2   5 7.37759 6.21841   1
   2  -2  -5 7.21984 5.14718   1
  -2  -2   5 18.2264 6.86608   1
  -2   2   5 0.91276 5.49471   1
   2   2  -5 0.78229 4.59422   1
  -1  -2   5 8.64350 6.01584   1
   1  -2  -5 1.10401 4.57590   1
   1   2  -5 0.74708 3.98643   1
  -1   2   5 9.38190 6.02343   1
   0  -2   5 425.194 17.3930   3
   0  -2  -5 408.888 14.4984   1
   0  -2   5 401.973 16.9317   1
   0   2   5 402.550 19.4849   3
   0   2   5 413.474 17.2748   1
   0   2  -5 372.846 14.1132   1
   1  -2   5 6.03417 5.90168   3
   1  -2   5 20.9105 6.37619   1
   1   2   5 17.6344 6.01323   1
   1   2   5 11.3751 7.83059   3
   2  -2   5 6.73261 4.83510   3
   2  -2   5 2.17379 5.27554   1
   2   2   5 -5.7274 5.62934   3
   2   2   5 0.29005 4.27739   2
   2   2   5 -0.8925 5.10543   1
   3  -2   5 145.114 11.2437   3
   3  -2   5 134.373 10.9088   1
   3   2   5 120.543 12.7425   3
   3   2   5 121.594 7.98633   2
   3   2   5 132.292 10.6947   1
   4  -2   5 175.663 11.2882   1
   4  -2   5 169.167 13.0228   3
   4   2   5 162.378 15.5485   3
   4   2   5 151.528 10.6100   1
   5  -2   5 9.58602 6.63958   3
   5  -2   5 4.16538 5.22994   1
   5   2   5 18.3475 8.27415   3
   5   2   5 17.6590 5.62884   1
   6  -2   5 48.0943 7.13202   1
   6  -2   5 48.1929 10.6864   3
   6   2   5 44.6562 6.57209   1
   6   2   5 42.9769 10.7919   3
   8  -3  -5 104.195 14.1865   1
   8   3  -5 129.162 15.2678   1
   7  -3  -5 12.8959 7.31957   1
   7   3  -5 10.4924 6.59482   1
   6  -3  -5 60.6658 10.0720   1
   6   3  -5 116.411 13.4974   1
  -5  -3   5 271.311 15.8702   1
  -5  -3   5 297.774 16.4074   1
   5  -3  -5 318.428 17.8623   1
  -5   3   5 342.609 17.1880   1
   5   3  -5 327.905 17.9530   1
   4  -3  -5 123.411 12.9002   1
  -4  -3   5 121.879 12.1790   1
  -4   3   5 140.537 12.8750   1
   4   3  -5 132.528 12.6824   1
   3  -3  -5 28.1658 7.38573   1
  -3  -3   5 34.8169 7.88518   1
   3   3  -5 22.6899 7.03380   1
  -3   3   5 37.5417 7.91655   1
  -3   3   5 24.9799 7.10858   1
  -2  -3   5 48.7302 8.96439   1
   2  -3  -5 53.7530 8.12982   1
   2   3  -5 46.7221 7.52402   1
  -2   3   5 40.1453 7.86237   1
   1  -3  -5 767.209 21.4242   1
  -1  -3   5 752.190 23.1361   1
   1   3  -5 711.111 20.8539   1
  -1   3   5 746.801 22.9452   1
   0  -3   5 558.483 18.7606   3
   0  -3  -5 571.497 17.1044   1
   0  -3   5 568.768 20.0815   1
   0   3   5 560.984 23.1592   3
   0   3  -5 574.336 17.1129   1
   0   3   5 548.650 19.3118   1
   1  -3   5 14.3023 5.97001   1
   1  -3   5 15.6310 5.81456   3
   1   3   5 24.1311 8.58553   3
   1   3   5 9.02164 5.86213   1
   2  -3   5 -6.3770 4.02344   3
   2  -3   5 8.34254 5.70815   1
   2   3   5 -0.5241 6.32062   3
   2   3   5 -6.8481 4.62017   1
   2   3   5 -1.1109 4.36412   2
   3  -3   5 8.48756 5.89261   1
   3  -3   5 35.0035 6.81212   3
   3   3   5 13.8010 7.26875   3
   3   3   5 17.7559 6.16860   1
   3   3   5 15.0787 4.74343   2
   4  -3   5 12.1611 5.66923   3
   4  -3   5 10.7398 5.45839   1
   4   3   5 4.47371 4.68041   1
   4   3   5 3.66910 6.33160   3
   5  -3   5 -7.6497 4.59567   1
   5  -3   5 0.59874 5.94284   3
   5   3   5 7.66447 6.96742   3
   5   3   5 -3.2614 4.26458   1
   6  -3   5 -1.9317 5.01210   1
   6  -3   5 7.93687 6.87299   3
   6   3   5 3.50598 7.31692   3
   6   3   5 -1.7673 4.16197   1
   8  -4  -5 8.54247 7.92806   1
   8   4  -5 8.73637 6.68245   1
   7  -4  -5 3.14634 6.79837   1
   7   4  -5 2.56050 5.68695   1
   6  -4  -5 10.4207 6.79416   1
   6   4  -5 -5.5773 4.82087   1
  -5  -4   5 84.6861 10.5765   1
  -5  -4   5 83.7697 10.4022   1
   5  -4  -5 100.459 12.7067   1
   5   4  -5 99.5632 12.0990   1
  -5   4   5 79.5293 10.7240   1
   4  -4  -5 16.9016 7.25961   1
  -4  -4   5 -4.8828 5.86576   1
  -4   4   5 3.83768 5.69922   1
   4   4  -5 5.40551 5.79672   1
  -3  -4   5 102.176 11.3735   1
   3  -4  -5 131.689 12.8535   1
  -3   4   5 88.1676 10.4185   1
   3   4  -5 99.8990 10.8342   1
  -2  -4   5 36.4344 8.28991   1
   2  -4  -5 46.8763 8.14355   1
  -2   4   5 41.1820 8.29905   1
   2   4  -5 52.4699 8.03734   1
  -2   4   5 51.7870 8.45640   1
  -1  -4   5 148.970 12.8285   1
   1  -4  -5 154.878 10.5771   1
  -1   4   5 158.856 13.1097   1
   1   4  -5 140.151 11.2780   1
   0  -4   5 -0.4825 5.44954   1
   0  -4   5 -8.6104 6.29166   3
   0  -4  -5 -3.5882 3.84801   1
   0   4  -5 -2.8297 3.50410   1
   0   4   5 -6.3769 8.54109   3
   0   4   5 8.98820 5.51703   1
   1  -4   5 62.6362 7.19824   3
   1  -4   5 61.3801 8.82927   1
   1   4   5 56.6460 10.6445   3
   1   4   5 55.1197 8.03647   1
   2  -4   5 14.8601 4.72255   3
   2  -4   5 20.7971 6.59453   1
   2   4   5 10.8009 5.47211   2
   2   4   5 10.9087 7.21560   3
   2   4   5 16.3919 5.97099   1
   3  -4   5 260.295 12.9980   3
   3  -4   5 276.551 14.2350   1
   3   4   5 242.902 13.2190   1
   3   4   5 248.565 16.4914   3
   3   4   5 233.899 11.2551   2
   4  -4   5 50.4198 7.93078   1
   4  -4   5 53.8134 8.53816   3
   4   4   5 54.4591 7.38879   1
   4   4   5 50.3366 10.3342   3
   5  -4   5 54.0452 8.28184   1
   5  -4   5 67.5697 10.2137   3
   5   4   5 82.4448 13.3473   3
   5   4   5 63.2315 7.52178   1
   6  -4   5 -6.3496 5.02081   1
   6  -4   5 6.52062 7.95133   3
   6   4   5 -8.0599 3.53569   1
   6   4   5 -2.2772 6.77321   3
   8  -5  -5 152.908 16.6084   1
   8   5  -5 160.102 17.0997   1
   7  -5  -5 64.6765 11.5886   1
   7   5  -5 51.4771 10.1111   1
   6  -5  -5 4.39961 6.85475   1
   6   5  -5 0.55920 5.63847   1
  -5  -5   5 16.8371 6.82555   1
   5  -5  -5 14.9860 7.50438   1
  -5  -5   5 12.2236 6.68483   1
  -5   5   5 11.5625 6.68335   1
   5   5  -5 17.1077 6.93005   1
   4  -5  -5 2.72041 6.33998   1
  -4  -5   5 12.1692 6.76046   1
   4   5  -5 19.5660 7.32886   1
  -4   5   5 30.7283 7.68841   1
  -3  -5   5 22.4782 7.67333   1
   3  -5  -5 10.5400 6.63873   1
   3   5  -5 7.48551 5.91903   1
  -3   5   5 17.5571 6.64629   1
   2  -5  -5 145.032 12.2432   1
  -2  -5   5 143.685 12.9659   1
   2   5  -5 135.920 11.6826   1
  -2   5   5 156.816 13.3177   1
  -2   5   5 124.739 12.1056   1
   1  -5  -5 3.85048 4.78997   1
  -1  -5   5 4.63298 6.22769   1
   1   5  -5 1.26229 4.28431   1
  -1   5   5 2.19371 5.68979   1
   0  -5   5 82.2388 9.59474   1
   0  -5   5 84.8637 9.22201   3
   0  -5  -5 92.9125 8.81186   1
   0   5   5 84.8168 9.50410   1
   0   5   5 94.6763 13.8407   3
   0   5  -5 84.1846 8.36152   1
   1  -5   5 359.956 12.1331   3
   1  -5   5 348.582 16.1861   1
   1   5   5 330.304 15.4502   1
  -1   5  -5 335.148 15.2864   1
   1   5   5 351.143 19.4259   3
   2  -5   5 49.6636 8.14651   1
   2  -5   5 55.1295 6.47923   3
   2   5   5 40.5699 9.71199   3
   2   5   5 49.2559 7.58121   2
   2   5   5 50.4975 7.84888   1
   3  -5   5 355.071 16.2936   1
   3  -5   5 365.254 14.3935   3
   3   5   5 372.281 20.0007   3
   3   5   5 364.319 15.4577   1
   3   5   5 382.215 14.2520   2
   4  -5   5 -4.1986 5.43006   1
   4  -5   5 -0.3517 4.70134   3
   4   5   5 6.71451 6.91396   3
   4   5   5 2.21110 4.56389   1
   5  -5   5 3.63330 5.70828   3
   5  -5   5 3.96070 5.78686   1
   5   5   5 8.80699 4.75984   1
   5   5   5 12.1940 7.70219   3
   6  -5   5 -6.6683 5.04358   1
   6   5   5 0.85230 4.04731   1
   6   5   5 13.7419 8.32130   3
   8  -6  -5 22.5838 9.42841   1
   8   6  -5 35.4461 9.57155   1
   7  -6  -5 6.23216 6.91081   1
   7   6  -5 9.33623 6.42242   1
   6  -6  -5 160.067 15.3180   1
   6   6  -5 128.494 13.8650   1
  -5  -6   5 55.2789 10.1330   1
   5  -6  -5 50.4712 9.89299   1
  -5   6   5 52.7069 9.37154   1
   5   6  -5 55.8472 9.96108   1
  -4  -6   5 8.04726 7.08633   1
   4  -6  -5 16.1306 7.39929   1
  -4   6   5 17.1366 7.07535   1
   4   6  -5 1.35211 5.90238   1
   3  -6  -5 -6.9460 5.49370   1
  -3  -6   5 -8.3825 5.63105   1
   3   6  -5 0.15889 4.99079   1
  -3   6   5 -2.1308 5.21143   1
  -2  -6   5 11.8985 6.75981   1
   2  -6  -5 10.5410 5.80510   1
   2   6  -5 5.62473 4.94991   1
  -2   6   5 1.54171 5.51208   1
  -2   6   5 0.74345 5.99433   1
  -1  -6   5 18.0023 7.24003   1
   1  -6  -5 19.8728 6.07808   1
   1   6  -5 18.1899 5.74786   1
  -1   6   5 6.74287 6.09608   1
  -1   6   5 15.7475 5.99485   1
   0  -6  -5 558.574 17.4413   1
   0  -6   5 572.035 20.2978   1
   0  -6   5 541.567 16.1531   3
   0   6  -5 541.771 17.2537   1
   0   6   5 565.602 19.8820   1
   0   6   5 568.577 25.3670   3
   1  -6   5 0.63353 3.54158   3
   1  -6   5 -3.3372 5.60279   1
   1   6   5 -1.4863 8.07564   3
   1   6   5 11.3239 5.99796   1
  -1   6  -5 6.07449 3.87448   1
   2  -6   5 1.50061 5.90276   1
   2  -6   5 0.68733 3.40460   3
   2   6   5 4.26321 5.48369   2
   2   6   5 0.61964 5.27748   1
   2   6   5 -4.2381 6.91543   3
   3  -6   5 165.802 10.1369   3
   3  -6   5 197.436 13.5953   1
   3   6   5 212.444 16.4389   3
   3   6   5 186.287 11.3240   2
   3   6   5 175.017 11.9096   1
   4  -6   5 51.9224 7.83339   3
   4  -6   5 45.2192 8.08397   1
   4   6   5 50.5066 7.51556   1
   4   6   5 46.2809 10.5233   3
   4   6   5 40.6443 8.44928   2
   5  -6   5 191.616 23.8410   3
   5  -6   5 172.199 12.5895   1
   5   6   5 160.673 17.7566   3
   5   6   5 170.965 10.6869   1
   6  -6   5 29.0200 7.40418   1
   6   6   5 41.8615 6.21295   1
   6   6   5 42.1639 11.8632   3
   6   6   5 38.2273 6.25795   1
   8  -7  -5 68.8238 13.0151   1
   8   7  -5 74.2008 12.5478   1
   7  -7  -5 68.0638 11.9751   1
   7   7  -5 69.4043 11.5620   1
   6  -7  -5 43.7568 10.0583   1
   6   7  -5 41.8043 9.40773   1
   5  -7  -5 266.313 17.2739   1
  -5   7   5 245.335 15.4129   1
   5   7  -5 246.062 16.5156   1
   4  -7  -5 -4.8542 6.09219   1
  -4  -7   5 -2.5945 6.35666   1
   4   7  -5 2.88205 5.96323   1
  -4   7   5 2.84309 5.98502   1
  -3  -7   5 19.8743 7.66024   1
   3  -7  -5 15.0696 6.59683   1
   3   7  -5 6.33060 5.74085   1
  -3   7   5 6.04878 6.22101   1
   2  -7  -5 2.30161 5.14516   1
  -2  -7   5 5.82019 6.75814   1
   2   7  -5 -0.3141 4.61555   1
  -2   7   5 -3.1776 5.40628   1
  -1  -7   5 80.0399 10.0754   1
   1  -7  -5 89.7433 9.71852   1
   1   7  -5 80.4336 8.91436   1
  -1   7   5 62.5966 8.69184   1
  -1   7   5 77.5050 10.0028   1
   0  -7  -5 84.2794 8.81134   1
   0  -7   5 80.0776 10.0703   1
   0  -7   5 84.8772 7.79109   3
   0   7   5 86.2375 14.5861   3
   0   7  -5 88.5610 8.71514   1
   0   7   5 82.8230 9.82918   1
   0   7   5 81.0990 9.97532   1
   1  -7   5 42.3115 8.31604   1
   1  -7   5 55.7262 5.01610   3
   1   7   5 36.3236 7.21100   1
   1   7   5 47.7691 11.2331   3
  -1   7  -5 55.7539 6.52482   1
   2  -7   5 61.6973 9.45787   1
   2  -7   5 72.8739 6.21147   3
   2   7   5 76.9787 9.52525   1
   2   7   5 63.1422 8.51342   2
   2   7   5 70.8115 11.9631   3
   3  -7   5 99.2091 10.8024   1
   3  -7   5 94.0886 8.02735   3
   3   7   5 84.3719 9.47145   1
   3   7   5 89.3543 9.45565   2
   3   7   5 82.6907 12.4110   3
   4  -7   5 -2.8323 3.95285   3
   4  -7   5 2.84517 5.80461   1
   4   7   5 3.95317 6.82004   3
   4   7   5 -0.4388 3.88676   2
   4   7   5 0.18133 4.30142   1
   5  -7   5 18.5351 7.26580   1
   5   7   5 28.0468 5.60683   1
   5   7   5 29.8657 10.1010   3
   6  -7   5 1.69560 6.18199   1
   6   7   5 3.16171 4.13876   1
   8  -8  -5 12.8046 8.32885   1
   8   8  -5 -5.8690 5.81595   1
   7  -8  -5 34.2535 10.1707   1
   7   8  -5 44.4341 9.94987   1
   6  -8  -5 2.33546 6.86449   1
   6   8  -5 6.00937 6.19879   1
   5  -8  -5 247.728 17.0097   1
  -5   8   5 246.130 15.7177   1
   5   8  -5 273.613 17.0465   1
  -4  -8   5 324.030 18.0229   1
   4  -8  -5 284.020 17.2641   1
  -4   8   5 336.650 17.5299   1
   4   8  -5 327.069 17.8507   1
  -3  -8   5 270.203 16.8889   1
   3  -8  -5 275.180 15.8851   1
   3   8  -5 303.792 16.3918   1
  -3   8   5 275.398 15.9724   1
  -2  -8   5 123.676 12.6874   1
   2  -8  -5 116.596 11.4894   1
   2   8  -5 115.350 11.6373   1
  -2   8   5 106.813 11.1396   1
   1  -8  -5 50.4957 8.10086   1
  -1  -8   5 57.9061 9.37270   1
  -1   8   5 50.1268 8.49952   1
   1   8  -5 45.5384 7.30973   1
   0  -8  -5 507.228 17.0997   1
   0  -8   5 497.285 13.0598   3
   0  -8   5 546.443 20.4441   1
   0   8   5 552.995 20.3079   1
   0   8   5 515.811 25.5870   3
   0   8  -5 510.180 17.1036   1
   0   8   5 534.064 19.8235   1
   1  -8   5 89.2674 10.4949   1
   1   8   5 91.5569 9.98419   1
   1   8   5 71.0171 13.0205   3
  -1   8  -5 113.651 8.78578   1
   1   8   5 99.9399 10.6603   1
   2  -8   5 109.364 6.00951   3
   2  -8   5 110.719 11.6979   1
   2   8   5 108.240 10.6584   1
   2   8   5 122.493 14.6357   3
   2   8   5 106.588 10.6284   2
   3  -8   5 35.8133 5.38838   3
   3  -8   5 34.8811 8.14141   1
   3   8   5 8.90112 7.96950   3
   3   8   5 33.0601 7.06484   2
   3   8   5 15.7734 6.16488   1
   4  -8   5 20.6882 7.35439   1
   4   8   5 17.8883 5.94866   1
   4   8   5 14.2372 5.50207   2
   4   8   5 10.6029 7.52598   3
   4   8   5 8.84856 4.99459   1
   5  -8   5 5.22382 5.88146   1
   5   8   5 5.18941 7.55200   3
   5   8   5 0.59065 4.35878   1
   6  -8   5 3.09557 6.48192   1
   6   8   5 15.4741 5.12363   1
   6   8   5 13.1556 9.41044   3
   8  -9  -5 0.44232 6.99482   1
   8   9  -5 -1.3933 6.81039   1
   7  -9  -5 45.5154 10.5406   1
   7   9  -5 45.1253 10.4515   1
   6   9  -5 34.3940 9.07689   1
   5  -9  -5 179.081 16.2619   1
  -5   9   5 196.996 14.4280   1
   5   9  -5 144.692 14.2275   1
  -4  -9   5 171.320 15.0457   1
   4  -9  -5 176.951 15.3985   1
   4   9  -5 161.158 14.7094   1
  -4   9   5 170.239 14.4882   1
   3  -9  -5 7.38659 6.69634   1
  -3  -9   5 3.49017 7.09669   1
   3   9  -5 7.97640 5.86258   1
  -3   9   5 3.61766 5.82908   1
   2  -9  -5 5.01711 5.87713   1
  -2  -9   5 11.4717 7.17063   1
   2   9  -5 7.02881 5.30397   1
  -2   9   5 7.06714 5.83270   1
   1  -9  -5 121.911 11.0171   1
  -1  -9   5 76.1882 10.5248   1
  -1   9   5 71.9438 9.63017   1
   1   9  -5 92.8142 9.75515   1
   0  -9   5 164.361 13.9862   1
   0  -9  -5 151.800 10.6657   1
   0   9   5 140.220 12.3860   1
   0   9  -5 150.130 10.2728   1
   0   9   5 181.436 19.2321   3
   1  -9   5 73.3018 10.4747   1
   1   9   5 112.465 14.7484   3
   1   9   5 102.700 10.7815   1
   1   9   5 89.1366 10.8760   2
   1   9   5 74.5421 9.74672   1
  -1   9  -5 91.5011 8.36581   1
   2  -9   5 124.490 12.2412   1
   2   9   5 140.518 15.8713   3
   2   9   5 111.454 10.7083   1
   2   9   5 129.831 12.2877   2
   2   9   5 121.178 11.2164   1
   3  -9   5 417.849 18.9531   1
   3   9   5 474.075 17.7758   1
   3   9   5 484.330 17.7644   1
   3   9   5 486.106 18.2884   2
   3   9   5 442.741 23.3480   3
   4  -9   5 54.3065 9.10033   1
   4   9   5 52.1483 7.84781   1
   4   9   5 67.8959 8.24057   1
   4   9   5 48.5551 7.52410   2
   4   9   5 58.0343 11.5157   3
   5  -9   5 49.6958 9.24085   1
   5   9   5 34.0442 6.70802   1
   5   9   5 63.1837 13.2902   3
   6  -9   5 35.9989 8.51458   1
   6   9   5 42.4931 6.81651   1
   6   9   5 51.5436 12.9760   3
   8 -10  -5 9.89621 7.93874   1
   8  10  -5 1.15871 7.18781   1
   7 -10  -5 1.25472 6.85503   1
   7  10  -5 3.21448 6.62620   1
   6 -10  -5 58.8996 11.3837   1
   6  10  -5 31.6544 9.00383   1
   5 -10  -5 3.89050 7.26442   1
  -5  10   5 12.8099 6.54625   1
   5  10  -5 6.68744 6.74925   1
   4 -10  -5 425.267 20.4054   1
  -4 -10   5 403.635 20.2028   1
  -4  10   5 459.925 20.3485   1
   4  10  -5 427.989 20.4618   1
   3 -10  -5 1291.25 33.6455   1
  -3 -10   5 1298.70 34.1211   1
   3  10  -5 1298.32 33.8219   1
  -3  10   5 1226.27 33.5088   1
   2 -10  -5 56.5629 9.18552   1
  -2 -10   5 47.1918 9.45214   1
   2  10  -5 40.1331 7.95989   1
  -2  10   5 51.6492 9.24792   1
  -1 -10   5 106.519 11.7539   1
   1 -10  -5 125.616 11.5793   1
  -1  10   5 103.843 11.6311   1
   1  10  -5 120.108 11.1135   1
   0 -10   5 36.9423 8.89326   1
   0 -10  -5 46.8275 7.43400   1
   0  10   5 74.0916 10.1548   1
   0  10   5 47.7053 13.8937   3
   0  10  -5 52.9322 7.52610   1
   1 -10   5 547.737 21.8879   1
   1  10   5 626.413 21.4671   1
   1  10   5 555.250 25.9705   3
  -1  10  -5 600.926 19.4860   1
   1  10   5 611.686 22.2178   2
   2 -10   5 7.54061 7.19941   1
   2  10   5 14.9361 6.29786   1
   2  10   5 2.04825 9.23631   3
   2  10   5 2.48554 6.16022   2
   3 -10   5 17.1700 7.67307   1
   3  10   5 15.3393 8.73353   3
   3  10   5 33.3682 7.71938   2
   3  10   5 25.8015 6.65841   1
   4 -10   5 264.993 16.1671   1
   4  10   5 275.495 19.9841   3
   4  10   5 293.481 14.7680   2
   4  10   5 286.312 14.4107   1
   5 -10   5 27.3725 8.15978   1
   5  10   5 28.3675 10.4239   3
   5  10   5 27.5517 6.27286   1
   6 -10   5 -2.1123 6.45955   1
   6  10   5 -4.3791 7.30306   3
   6  10   5 7.82805 5.21840   1
   8 -11  -5 19.6355 9.44691   1
   8  11  -5 16.0996 8.41560   1
   7 -11  -5 16.9737 8.48712   1
   7  11  -5 8.75114 7.04528   1
   6 -11  -5 38.6094 9.86510   1
   6  11  -5 35.4994 9.39316   1
   5 -11  -5 51.7979 10.2678   1
  -5  11   5 41.9412 11.4862   1
   5  11  -5 51.0978 9.84602   1
  -4 -11   5 218.134 15.7864   1
   4 -11  -5 223.766 16.1300   1
  -4  11   5 224.221 15.3178   1
   4  11  -5 201.593 16.7091   1
  -3 -11   5 2.01544 7.14974   1
   3 -11  -5 6.62250 6.45758   1
  -3  11   5 -0.8902 5.67228   1
   3  11  -5 2.08048 5.57461   1
  -2 -11   5 69.6671 10.4469   1
   2 -11  -5 76.6433 10.3243   1
  -2  11   5 92.4395 11.1939   1
   2  11  -5 88.5510 10.3818   1
  -1 -11   5 84.1964 11.1300   1
   1 -11  -5 115.840 11.2867   1
  -1  11   5 112.085 11.8839   1
   1  11  -5 117.042 11.1124   1
   0 -11  -5 155.698 11.8140   1
   0 -11   5 145.868 13.6800   1
   0  11  -5 138.621 11.2856   1
   0  11   5 130.799 17.9954   3
   0  11   5 152.939 13.3600   1
   1 -11   5 303.915 17.7075   1
   1  11   5 336.244 16.5893   1
   1  11   5 317.483 17.4079   2
   1  11   5 319.456 22.6515   3
   2 -11   5 227.423 15.8572   1
   2  11   5 219.076 14.4138   2
   2  11   5 211.179 13.8171   1
   2  11   5 203.484 19.2545   3
   3 -11   5 14.7781 7.34637   1
   3  11   5 15.5706 6.73031   2
   3  11   5 20.9327 9.42519   3
   3  11   5 10.3510 5.32880   1
   4 -11   5 72.9393 10.9501   1
   4  11   5 70.7307 9.05357   1
   4  11   5 88.9341 10.2977   2
   4  11   5 78.4884 13.9158   3
   5 -11   5 0.58211 6.87859   1
   5  11   5 -1.4619 4.60916   1
   5  11   5 0.15466 7.69503   3
   6 -11   5 152.026 14.0799   1
   6  11   5 153.198 11.1207   1
   6  11   5 142.768 19.5033   3
   8 -12  -5 15.0897 9.19095   1
   8  12  -5 -1.8822 6.54963   1
   7 -12  -5 7.60224 8.19019   1
   7  12  -5 11.1265 7.48486   1
   6 -12  -5 123.729 14.8137   1
   6  12  -5 167.055 17.1560   1
   5 -12  -5 11.8127 7.46377   1
   5  12  -5 1.13186 6.24098   1
  -4 -12   5 107.067 12.8713   1
   4 -12  -5 101.911 13.2976   1
   4  12  -5 128.196 13.7301   1
  -4  12   5 82.6724 11.2215   1
   3 -12  -5 77.1565 10.9978   1
  -3 -12   5 70.9124 11.2916   1
  -3  12   5 82.4616 11.4718   1
   3  12  -5 96.4764 11.9407   1
  -2 -12   5 7.70036 7.59551   1
   2 -12  -5 9.83463 6.85918   1
  -2  12   5 4.74100 6.05429   1
   2  12  -5 3.63538 5.41962   1
  -1 -12   5 97.5046 12.2169   1
   1 -12  -5 97.1393 10.7667   1
   1  12  -5 99.0370 10.5668   1
  -1  12   5 95.7510 11.2970   1
   0 -12  -5 319.219 14.8254   1
   0 -12   5 327.299 18.1732   1
   0  12   5 351.803 17.2494   1
   0  12  -5 322.553 14.7981   1
   0  12   5 310.389 23.8830   3
   1 -12   5 4.88802 7.43120   1
   1  12   5 9.88757 11.2749   3
   1  12   5 5.24982 7.30832   2
   1  12   5 -7.9565 4.86502   1
   2 -12   5 1.41755 7.39947   1
   2  12   5 0.28006 8.73454   3
   2  12   5 1.53006 6.17277   2
   2  12   5 -2.8518 4.99929   1
   3 -12   5 54.5387 9.46063   1
   3  12   5 46.3599 9.00809   2
   3  12   5 44.6961 11.7453   3
   3  12   5 44.6359 8.29708   1
   4 -12   5 1.46552 6.96463   1
   4  12   5 0.78822 4.65857   1
   4  12   5 2.08451 5.32420   2
   4  12   5 4.54177 7.54942   3
   5 -12   5 54.8240 10.3127   1
   5  12   5 54.7883 13.1385   3
   5  12   5 67.3768 8.85370   1
   6 -12   5 1.85465 7.95692   1
   6  12   5 26.8382 10.9871   3
   6  12   5 3.33392 5.11477   1
   8 -13  -5 -6.6866 7.87092   1
   8  13  -5 3.39948 7.31072   1
   7 -13  -5 35.4757 10.1725   1
   7  13  -5 55.6325 11.7026   1
   6 -13  -5 31.1271 9.32638   1
   6  13  -5 45.3128 10.2215   1
   5 -13  -5 15.3137 8.36481   1
   5  13  -5 12.2919 7.19905   1
  -4 -13   5 0.06066 7.63130   1
   4 -13  -5 -7.9727 6.19091   1
  -4  13   5 -4.3475 5.49802   1
   4  13  -5 -5.4232 5.83932   1
   3 -13  -5 218.096 16.0173   1
  -3 -13   5 210.429 16.8051   1
  -3  13   5 167.295 14.9189   1
   3  13  -5 203.956 16.3722   1
  -2 -13   5 1.73065 7.44031   1
   2 -13  -5 6.22401 6.78922   1
   2  13  -5 7.11995 5.86123   1
  -2  13   5 2.34789 6.27945   1
   1 -13  -5 157.862 13.1989   1
  -1 -13   5 152.420 14.4759   1
  -1  13   5 142.271 13.2733   1
   1  13  -5 145.100 12.4803   1
   0 -13   5 -6.9859 7.48595   1
   0 -13  -5 5.56763 5.48070   1
   0  13   5 1.50818 5.87160   1
   0  13  -5 2.21785 4.88143   1
   0  13   5 8.75709 13.0481   3
   1 -13   5 6.12913 7.65396   1
   1  13   5 -13.748 9.71323   3
   1  13   5 -2.5561 5.21588   1
   1  13   5 -6.2996 6.78188   2
   2 -13   5 193.438 15.7182   1
   2  13   5 175.972 18.4939   3
   2  13   5 184.722 15.5580   2
   2  13   5 157.343 13.2159   1
   3 -13   5 96.5102 12.1608   1
   3  13   5 98.9068 10.9042   1
   3  13   5 100.539 15.4917   3
   3  13   5 87.0064 11.0996   2
   4 -13   5 14.0753 8.19219   1
   4  13   5 25.8355 7.09130   1
   4  13   5 19.4811 9.62983   3
   4  13   5 32.6757 8.23761   2
   5 -13   5 -2.1454 7.09094   1
   5  13   5 2.89822 8.57008   3
   5  13   5 1.74659 5.06204   1
   6 -13   5 164.284 15.8189   1
   6  13   5 162.097 12.1395   1
   6  13   5 184.246 22.0460   3
   7 -14  -5 1.02421 7.62946   1
   7  14  -5 7.58132 7.35604   1
   6 -14  -5 14.1251 8.07045   1
   6  14  -5 -1.4638 6.12398   1
   5 -14  -5 0.36692 6.85602   1
   5  14  -5 -4.2435 5.89657   1
   4 -14  -5 2.44751 7.04934   1
  -4 -14   5 -2.4753 7.07787   1
  -4  14   5 2.76613 6.35309   1
   4  14  -5 3.42392 6.14009   1
   3 -14  -5 1348.20 35.9058   1
  -3 -14   5 1298.42 36.4060   1
   3  14  -5 1397.29 36.4616   1
  -3  14   5 1360.83 36.2077   1
  -2 -14   5 6.05305 8.09114   1
   2 -14  -5 2.81837 6.44272   1
  -2  14   5 3.52379 6.62201   1
   2  14  -5 -3.4050 5.41423   1
  -1 -14   5 45.6298 10.1821   1
   1 -14  -5 82.2569 10.6105   1
  -1  14   5 54.4889 9.53128   1
   1  14  -5 79.5782 10.2154   1
  -1  14   5 81.9441 17.2034   3
   0 -14   5 268.172 17.7173   1
   0 -14  -5 252.782 14.2969   1
   0  14  -5 294.063 14.7536   1
   0  14   5 273.527 24.4893   3
   0  14   5 279.967 16.8162   1
   1 -14   5 114.164 13.0937   1
   1  14   5 135.098 14.5509   2
   1  14   5 148.849 19.0920   3
   1  14   5 153.700 13.7954   1
   2 -14   5 0.28840 7.33056   1
   2  14   5 8.08662 7.31142   2
   2  14   5 19.7212 9.99205   3
   2  14   5 15.2617 6.56677   1
   3 -14   5 9.10644 7.69032   1
   3  14   5 3.46951 5.71681   1
   3  14   5 18.5672 7.49383   2
   3  14   5 5.75637 9.10312   3
   4 -14   5 -3.1673 7.12548   1
   4  14   5 10.4701 8.84107   3
   4  14   5 -0.5225 5.78441   2
   4  14   5 -8.2195 4.61867   1
   5 -14   5 92.4010 12.7771   1
   5  14   5 135.471 19.7733   3
   5  14   5 117.695 11.8585   1
   6 -14   5 4.12460 8.35346   1
   6  14   5 7.22987 10.1634   3
   6  14   5 3.48836 5.38239   1
   7 -15  -5 41.1693 11.2468   1
   7  15  -5 47.6349 11.1677   1
   6 -15  -5 18.6412 8.84252   1
   6  15  -5 -5.6366 5.95156   1
   5 -15  -5 18.8541 8.54592   1
   5  15  -5 12.0445 7.49613   1
   4 -15  -5 11.7830 7.93696   1
  -4 -15   5 -9.2614 6.67313   1
   4  15  -5 7.85058 6.44464   1
  -4  15   5 10.8747 6.86832   1
   3 -15  -5 36.4271 9.16255   1
  -3 -15   5 15.4422 8.44537   1
  -3  15   5 13.4357 7.28281   1
   3  15  -5 18.5197 7.45981   1
  -2 -15   5 360.498 20.0376   1
   2 -15  -5 369.368 18.8817   1
  -2  15   5 342.779 18.7806   1
   2  15  -5 350.500 17.9348   1
   1 -15  -5 62.0420 9.68548   1
  -1 -15   5 62.2764 11.4421   1
   1  15  -5 46.9389 8.42647   1
  -1  15   5 62.2838 10.3031   1
  -1  15   5 17.0871 14.9324   3
   0 -15  -5 23.0995 6.89601   1
   0 -15   5 5.48997 8.48222   1
   0  15   5 1.77873 8.23222   2
   0  15   5 19.8707 13.7261   3
   0  15  -5 22.3916 6.69455   1
   0  15   5 11.0621 6.54153   1
   1 -15   5 115.696 13.4775   1
   1  15   5 121.713 13.8028   2
   1  15   5 97.1664 11.4150   1
   1  15   5 135.285 18.4445   3
   2 -15   5 113.356 13.4589   1
   2  15   5 117.502 12.5409   1
   2  15   5 141.777 18.0693   3
   2  15   5 135.722 14.4084   2
   3 -15   5 40.6952 10.2391   1
   3  15   5 80.5031 11.7637   2
   3  15   5 73.8314 14.3271   3
   3  15   5 56.1033 9.42893   1
   4 -15   5 7.82009 8.52502   1
   4  15   5 26.3315 7.92245   2
   4  15   5 11.8184 6.19942   1
   4  15   5 23.4160 10.0150   3
   5 -15   5 60.4882 11.1912   1
   5  15   5 67.9221 14.4281   3
   5  15   5 71.2430 9.62968   1
   5  15   5 72.0202 11.5343   2
   6 -15   5 98.8497 13.9987   1
   6  15   5 95.8631 17.6234   3
   6  15   5 119.309 12.1214   1
   7 -16  -5 12.6956 9.13389   1
   7  16  -5 12.1981 8.44823   1
   6 -16  -5 124.055 15.6624   1
   6  16  -5 113.961 14.7817   1
   5 -16  -5 4.58531 7.40963   1
   5  16  -5 8.60107 6.94541   1
  -4 -16   5 158.047 15.7768   1
   4 -16  -5 178.964 16.5059   1
   4  16  -5 134.961 14.5899   1
  -4  16   5 162.648 15.2664   1
  -3 -16   5 89.8800 12.9964   1
   3 -16  -5 86.5013 11.9269   1
   3  16  -5 84.0357 11.7870   1
  -3  16   5 90.1260 12.0071   1
   2 -16  -5 14.9360 8.06611   1
  -2 -16   5 11.0537 8.60682   1
  -2  16   5 16.3416 7.56818   1
   2  16  -5 34.3739 7.97193   1
  -1 -16   5 6.41045 8.33604   1
   1 -16  -5 1.35841 6.55983   1
  -1  16   5 8.64256 13.6020   3
   1  16  -5 1.40615 5.47000   1
  -1  16   5 1.73632 6.23061   1
   0 -16   5 -2.4112 8.05793   1
   0 -16  -5 6.70360 6.49440   1
   0  16   5 3.70819 7.94978   2
   0  16   5 10.7232 6.69840   1
   0  16   5 3.21877 12.4356   3
   0  16  -5 2.43193 4.96968   1
   1 -16   5 165.887 15.9521   1
   1  16   5 192.398 21.1984   3
   1  16   5 170.776 16.4027   2
   1  16   5 171.217 14.7938   1
   2 -16   5 7.58218 8.09964   1
   2  16   5 3.35160 9.13653   3
   2  16   5 3.17011 5.61682   1
   2  16   5 6.13084 7.15542   2
   3 -16   5 9.06021 8.43408   1
   3  16   5 17.7828 7.07120   1
   3  16   5 20.8425 9.97364   3
   3  16   5 25.8857 8.45141   2
   4 -16   5 9.12463 8.67203   1
   4  16   5 -5.6099 4.72822   1
   4  16   5 10.3239 7.20437   2
   4  16   5 8.71078 8.90295   3
   5 -16   5 98.6037 13.4585   1
   5  16   5 82.4375 16.0291   3
   5  16   5 71.1421 9.87317   1
   5  16   5 80.0968 11.7085   2
   7 -17  -5 130.587 16.3699   1
   7  17  -5 115.510 15.8735   1
   6 -17  -5 -2.9636 6.64515   1
   6  17  -5 0.36787 6.87187   1
   5 -17  -5 71.8131 12.1565   1
   5  17  -5 48.8324 10.5353   1
  -4 -17   5 86.7962 12.7701   1
   4 -17  -5 95.2549 13.4750   1
  -4  17   5 67.4316 11.1828   1
   4  17  -5 75.9179 11.7507   1
   3 -17  -5 130.784 14.4428   1
  -3 -17   5 112.631 13.8891   1
  -3  17   5 121.977 13.5057   1
   3  17  -5 153.627 15.3162   1
   2 -17  -5 201.726 16.6037   1
  -2 -17   5 141.938 15.3236   1
   2  17  -5 156.936 14.6381   1
  -2  17   5 174.729 15.5818   1
   1 -17  -5 73.4690 10.7734   1
  -1 -17   5 51.5801 11.1554   1
  -1  17   5 86.8642 18.1276   3
  -1  17   5 66.9783 10.5718   1
   1  17  -5 82.5258 10.5688   1
   0 -17  -5 3.42663 9.30044   1
   0 -17   5 -0.5348 7.68120   1
   0  17  -5 -3.2104 4.54589   1
   0  17   5 6.79087 8.04768   2
   0  17   5 4.89925 6.15437   1
   0  17   5 6.74191 12.9435   3
   1 -17   5 3.98274 8.00983   1
   1  17   5 1.22340 5.71688   1
   1  17   5 -4.1732 7.37588   2
   1  17   5 2.41494 11.4260   3
   2 -17   5 18.5872 8.87037   1
   2  17   5 13.8496 7.74594   2
   2  17   5 1.59194 9.80000   3
   2  17   5 12.7877 6.49622   1
   3 -17   5 60.7095 11.6538   1
   3  17   5 57.9238 10.9624   2
   3  17   5 61.0937 14.2341   3
   3  17   5 59.5178 9.49443   1
   4 -17   5 7.65219 8.25636   1
   4  17   5 6.61970 5.97453   1
   4  17   5 16.4617 7.91315   2
   4  17   5 5.24596 9.17198   3
   5 -17   5 16.8503 9.07454   1
   5  17   5 31.4888 8.05525   1
   5  17   5 24.7520 11.4132   3
   5  17   5 49.7236 9.80456   2
   7 -18  -5 94.1173 15.0471   1
   7  18  -5 80.9451 14.1857   1
   6 -18  -5 19.5239 8.71997   1
   6  18  -5 19.9836 8.78843   1
   5 -18  -5 12.1416 8.27696   1
   5  18  -5 -1.2575 6.47406   1
  -4 -18   5 456.653 23.1722   1
   4 -18  -5 471.208 23.9763   1
   4  18  -5 464.518 22.8772   1
  -4  18   5 489.896 22.9565   1
  -3 -18   5 272.612 19.1890   1
   3 -18  -5 238.460 18.8072   1
   3  18  -5 274.711 17.3344   1
  -3  18   5 246.616 17.7483   1
  -2 -18   5 267.790 18.4035   1
   2 -18  -5 222.809 16.4637   1
  -2  18   5 249.544 17.1665   1
   2  18  -5 237.623 16.1839   1
   1 -18  -5 78.7153 10.9529   1
  -1 -18   5 64.4019 12.2239   1
  -1  18   5 61.0001 10.4830   1
  -1  18   5 69.1036 17.4829   3
   1  18  -5 91.1154 11.5083   1
   0 -18   5 24.3442 9.19765   1
   0  18  -5 42.7611 8.53458   1
   0  18   5 20.8153 14.1336   3
   0  18   5 32.0331 8.64873   1
   0  18   5 39.2317 10.7634   2
   1 -18   5 5.75763 7.93639   1
   1  18   5 8.45580 10.9311   3
   1  18   5 -0.6561 7.06493   2
   1  18   5 -6.2318 5.25656   1
   2 -18   5 92.3508 13.1387   1
   2  18   5 93.1552 12.9179   2
   2  18   5 77.1948 14.5689   3
   2  18   5 67.8068 10.5084   1
   3 -18   5 25.2247 9.90738   1
   3  18   5 11.8780 10.2162   3
   3  18   5 16.9970 6.90300   1
   3  18   5 8.84315 7.72397   2
   4 -18   5 -8.2181 7.32399   1
   4  18   5 2.52587 6.91829   2
   4  18   5 -5.0984 5.08444   1
   4  18   5 4.11793 8.58115   3
   5 -18   5 20.6723 9.45980   1
   5  18   5 6.69444 6.23700   1
   5  18   5 19.3967 10.5006   3
   5  18   5 21.2443 7.59187   2
   7 -19  -5 160.397 18.6815   1
   7  19  -5 203.721 20.3566   1
   6 -19  -5 28.3502 10.4827   1
   6  19  -5 24.1073 9.21942   1
   5 -19  -5 16.9156 9.46631   1
   5  19  -5 27.7678 9.29299   1
   4 -19  -5 -5.4881 7.50693   1
  -4 -19   5 -1.5401 8.55833   1
   4  19  -5 10.0629 7.10289   1
  -4  19   5 12.8934 7.63154   1
   3 -19  -5 58.0573 11.4332   1
  -3 -19   5 46.8761 11.2848   1
   3  19  -5 53.3570 10.1299   1
  -3  19   5 53.4878 10.6327   1
   2 -19  -5 170.867 15.7211   1
  -2 -19   5 191.047 17.3847   1
   2  19  -5 195.614 16.6952   1
  -2  19   5 151.984 15.6210   1
  -1 -19   5 251.632 18.7179   1
   1 -19  -5 250.478 16.3764   1
  -1  19   5 195.521 16.5246   1
  -1  19   5 194.736 23.7051   3
   1  19  -5 217.658 14.8330   1
   0 -19   5 29.3536 9.90915   1
   0  19  -5 35.0478 7.64093   1
   0  19   5 37.2319 8.57023   1
   0  19   5 32.2345 10.3426   2
   0  19   5 23.4717 13.6536   3
   1 -19   5 57.9849 11.4001   1
   1  19   5 65.0661 15.4004   3
   1  19   5 54.8916 9.82174   1
   1  19   5 58.2384 11.4108   2
   2 -19   5 147.261 15.9599   1
   2  19   5 153.415 19.1253   3
   2  19   5 160.824 14.9874   1
   2  19   5 131.575 15.3231   2
   3 -19   5 77.9049 13.2274   1
   3  19   5 91.3093 11.9439   1
   3  19   5 100.299 16.8280   3
   3  19   5 109.803 14.6940   2
   4 -19   5 23.5915 10.5731   1
   4  19   5 43.1728 10.5222   2
   4  19   5 51.6806 13.4290   3
   4  19   5 38.8666 8.44659   1
   5 -19   5 30.4552 10.6462   1
   5  19   5 27.1997 8.44262   2
   5  19   5 45.1272 13.4091   3
   5  19   5 26.5252 7.82220   1
   7 -20  -5 31.8482 11.8524   1
   7  20  -5 13.7308 8.98230   1
   6 -20  -5 111.147 16.2176   1
   6  20  -5 95.6271 14.0509   1
   5 -20  -5 15.7165 9.11959   1
   5  20  -5 -1.0325 6.60702   1
   4 -20  -5 76.7774 13.0171   1
  -4  20   5 47.5701 10.3062   1
   4  20  -5 75.8030 11.7997   1
  -3 -20   5 85.5099 13.4116   1
   3 -20  -5 86.2460 13.0463   1
  -3  20   5 74.3368 11.4683   1
   3  20  -5 85.0950 12.2700   1
   2 -20  -5 432.205 21.8381   1
  -2 -20   5 419.605 23.3926   1
   2  20  -5 455.160 21.3702   1
  -2  20   5 441.102 21.9702   1
  -1 -20   5 65.3600 12.2827   1
   1 -20  -5 37.7075 9.39599   1
   1  20  -5 57.4837 9.96335   1
  -1  20   5 56.7072 17.5235   3
  -1  20   5 48.0286 10.0578   1
  -1  20   5 66.1016 12.8303   2
   0 -20   5 49.7198 11.5808   1
   0  20   5 69.7504 12.8637   2
   0  20  -5 83.4404 10.8006   1
   0  20   5 92.3496 17.6070   3
   0  20   5 100.312 13.0400   1
   1 -20   5 -1.7326 8.07302   1
   1  20   5 2.06233 5.70957   1
   1  20   5 7.12245 8.82602   2
   1  20   5 4.42494 11.7535   3
   2 -20   5 171.253 17.1536   1
   2  20   5 185.722 18.7721   2
   2  20   5 195.801 16.6014   1
   2  20   5 196.088 21.9795   3
   3 -20   5 -1.8249 8.48467   1
   3  20   5 20.5960 10.9568   3
   3  20   5 3.20507 7.33705   2
   3  20   5 4.89238 6.62181   1
   4 -20   5 23.3097 10.2528   1
   4  20   5 19.3816 8.89015   2
   4  20   5 25.0656 11.2394   3
   4  20   5 16.1076 7.73941   1
   5 -20   5 187.838 19.0542   1
   5  20   5 246.699 17.3585   1
   5  20   5 223.359 19.9226   2
   5  20   5 225.897 25.5096   3
   6 -21  -5 20.1422 9.71184   1
   6  21  -5 10.1504 7.96028   1
   5 -21  -5 22.2096 9.97391   1
   5  21  -5 17.2302 8.26028   1
   4 -21  -5 167.231 17.1296   1
   4  21  -5 159.980 17.0739   1
  -4  21   5 144.040 15.1190   1
  -3 -21   5 -2.0816 8.33274   1
   3 -21  -5 7.42070 7.89707   1
   3  21  -5 9.11797 6.85755   1
  -3  21   5 3.73372 6.76621   1
  -2 -21   5 36.8554 10.5499   1
   2 -21  -5 30.4484 9.18552   1
  -2  21   5 31.0576 16.5127   3
   2  21  -5 19.9331 7.70939   1
  -2  21   5 14.4525 7.93742   1
   1 -21  -5 -0.6011 7.03719   1
  -1 -21   5 -2.7422 8.57139   1
   1  21  -5 -4.0665 5.05834   1
  -1  21   5 -8.2300 13.7006   3
  -1  21   5 2.96430 9.37041   2
  -1  21   5 -2.6194 6.00884   1
   0 -21   5 32.2105 10.6375   1
   0  21   5 14.3578 7.67391   1
   0  21   5 19.9650 9.52258   2
   0  21   5 13.9130 12.5952   3
   0  21  -5 26.0364 8.20430   1
   1 -21   5 47.7221 11.1167   1
   1  21   5 25.5189 9.80539   2
   1  21   5 28.4749 13.2679   3
   1  21   5 35.0474 9.26232   1
   2 -21   5 137.847 15.9851   1
   2  21   5 167.603 17.7750   2
   2  21   5 158.418 15.1842   1
   2  21   5 149.704 19.7548   3
   3 -21   5 113.951 15.4581   1
   3  21   5 90.0611 14.5356   2
   3  21   5 74.3341 15.8882   3
   3  21   5 96.0531 12.6328   1
   4 -21   5 -0.3697 8.97910   1
   4  21   5 2.21211 9.52905   3
   4  21   5 4.13063 6.34748   1
   4  21   5 -4.7024 6.10586   2
   5 -21   5 -6.8059 9.37646   1
   5  21   5 1.74603 6.74931   2
   5  21   5 0.87529 5.88193   1
   5  21   5 16.9048 10.7838   3
   6 -22  -5 6.98308 8.92888   1
   6  22  -5 -1.2994 6.37148   1
   5 -22  -5 39.3917 10.9397   1
   5  22  -5 10.2465 7.84276   1
   4 -22  -5 4.85953 7.88017   1
   4  22  -5 8.24715 7.03634   1
  -4  22   5 3.88909 6.76605   1
   3 -22  -5 5.70820 8.02951   1
  -3 -22   5 5.72863 8.69522   1
  -3  22   5 4.15427 6.91718   1
   3  22  -5 -6.4627 5.44724   1
   2 -22  -5 55.8998 10.9472   1
  -2 -22   5 57.5449 12.0079   1
  -2  22   5 54.5342 11.1169   1
   2  22  -5 61.0999 10.8387   1
  -2  22   5 46.6661 17.2889   3
  -1 -22   5 138.886 16.4246   1
   1 -22  -5 130.362 14.0484   1
   1  22  -5 187.437 16.9169   1
  -1  22   5 127.240 15.0078   1
  -1  22   5 167.325 23.1770   3
  -1  22   5 129.290 16.4682   2
   0 -22   5 45.1541 11.4641   1
   0  22   5 53.3367 16.3676   3
   0  22   5 55.3315 12.3222   2
   0  22   5 67.1588 11.1452   1
   1 -22   5 28.7719 10.0988   1
   1  22   5 21.5713 13.2906   3
   1  22   5 15.5654 7.49353   1
   1  22   5 29.6565 10.4009   2
   2 -22   5 239.277 20.6674   1
   2  22   5 263.569 25.7222   3
   2  22   5 244.429 17.5745   1
   2  22   5 253.809 21.9153   2
   3 -22   5 25.7166 11.2475   1
   3  22   5 58.6496 14.5018   3
   3  22   5 44.3275 11.6945   2
   3  22   5 39.2453 9.62704   1
   4 -22   5 16.5062 10.1704   1
   4  22   5 15.5121 8.81283   2
   4  22   5 22.8755 8.65434   1
   4  22   5 8.86281 9.53211   3
   6 -23  -5 3.61619 8.70910   1
   6  23  -5 1.02377 6.86629   1
   5 -23  -5 6.93288 8.91642   1
   5  23  -5 22.2456 9.03288   1
   4 -23  -5 11.1834 8.92999   1
  -4  23   5 1.55589 6.45477   1
   4  23  -5 4.44798 6.87966   1
  -3 -23   5 13.7035 9.77974   1
   3 -23  -5 3.19283 8.25209   1
   3  23  -5 3.06648 6.88347   1
  -3  23   5 4.29545 7.08931   1
  -2 -23   5 4.35466 9.12775   1
   2 -23  -5 15.6804 8.89027   1
   2  23  -5 7.28909 6.53719   1
  -2  23   5 19.0973 10.9551   2
  -2  23   5 -15.838 14.5202   3
  -2  23   5 12.1765 7.85036   1
   1 -23  -5 157.000 19.5950   1
  -1 -23   5 140.306 16.9806   1
  -1  23   5 89.4649 19.9141   3
  -1  23   5 119.808 15.0288   1
   1  23  -5 124.910 13.7964   1
  -1  23   5 100.367 15.4304   2
   0 -23   5 -1.8262 8.56984   1
   0  23   5 -8.4749 10.9540   3
   0  23   5 -6.2064 5.89561   1
   0  23   5 6.16370 9.19908   2
   1 -23   5 7.37623 9.39978   1
   1  23   5 -8.0589 7.45225   2
   1  23   5 -9.6302 10.8060   3
   1  23   5 -4.3503 6.00902   1
   2 -23   5 8.73102 9.27793   1
   2  23   5 10.1402 8.71964   2
   2  23   5 -0.0151 5.79363   1
   2  23   5 8.91281 11.2630   3
   3 -23   5 77.4967 14.2406   1
   3  23   5 144.844 20.7797   3
   3  23   5 70.1169 13.2379   2
   3  23   5 102.008 14.0270   1
   4 -23   5 6.98968 9.90606   1
   4  23   5 3.36877 7.13968   1
   4  23   5 11.8260 10.6379   3
   4  23   5 7.19495 7.87296   2
   6 -24  -5 2.76352 9.37316   1
   6  24  -5 -12.930 5.72369   1
   5 -24  -5 -1.6705 8.64169   1
   5  24  -5 -5.9392 6.31370   1
   4 -24  -5 -0.7555 8.49051   1
   4  24  -5 0.65919 6.72919   1
  -4  24   5 -4.5220 6.82686   1
  -3 -24   5 -18.696 7.82580   1
   3 -24  -5 21.8275 9.93716   1
  -3  24   5 1.54528 6.79170   1
   3  24  -5 3.36542 6.50231   1
   2 -24  -5 14.9044 8.99103   1
  -2 -24   5 3.58291 9.27491   1
  -2  24   5 5.40318 10.0201   2
   2  24  -5 4.18949 6.37966   1
  -2  24   5 19.6702 16.4917   3
  -2  24   5 -0.8492 6.67473   1
  -1 -24   5 68.2926 13.7133   1
  -1  24   5 77.5456 12.3946   1
  -1  24   5 66.5496 13.7676   2
  -1  24   5 81.0880 18.7826   3
   1  24  -5 90.8020 12.9380   1
   0 -24   5 -13.256 8.15499   1
   0  24   5 -9.9293 11.4630   3
   0  24   5 -3.2529 6.44003   1
   0  24   5 -2.7963 8.55237   2
   1 -24   5 7.69672 9.71222   1
   1  24   5 6.12402 12.2574   3
   1  24   5 4.77524 8.70931   2
   1  24   5 5.62083 7.29021   1
   2 -24   5 222.078 20.4224   1
   2  24   5 185.688 21.9683   3
   2  24   5 227.511 20.8510   2
   2  24   5 194.364 18.1692   1
   3 -24   5 79.6662 14.7942   1
   3  24   5 71.7254 13.5166   2
   3  24   5 64.9425 11.9266   1
   3  24   5 100.774 17.7443   3
   4 -24   5 70.0253 13.9299   1
   4  24   5 79.1031 16.4823   3
   4  24   5 34.5278 10.7526   2
   4  24   5 50.3409 10.3106   1
   5 -25  -5 14.7848 10.2963   1
   5  25  -5 12.8424 8.27289   1
   4 -25  -5 10.2856 8.87147   1
   4  25  -5 15.0641 8.19124   1
   3 -25  -5 0.21559 8.70353   1
  -3 -25   5 -11.851 8.38836   1
  -3  25   5 -3.2571 5.78278   1
   3  25  -5 4.24937 6.73914   1
  -2 -25   5 23.8587 11.1413   1
   2 -25  -5 31.4981 10.8329   1
   2  25  -5 45.6188 10.0424   1
  -2  25   5 56.8978 19.7147   3
  -2  25   5 38.5701 10.1056   1
  -2  25   5 33.1617 12.4726   2
  -1 -25   5 204.026 20.0984   1
  -1  25   5 218.065 21.6475   2
  -1  25   5 182.711 17.7967   1
   1  25  -5 216.766 18.3100   1
  -1  25   5 197.673 25.8810   3
   0 -25   5 -6.1488 9.11795   1
   0  25   5 9.96983 12.8106   3
   0  25   5 3.10700 7.17349   1
   0  25   5 18.0477 10.3194   2
   1 -25   5 9.39965 9.80307   1
   1  25   5 17.3643 10.7343   2
   1  25   5 20.6886 8.66265   1
   1  25   5 12.2970 12.5608   3
   2 -25   5 87.7619 15.2272   1
   2  25   5 78.6156 14.2590   2
   2  25   5 74.7187 12.5971   1
   2  25   5 105.469 18.5418   3
   3 -25   5 -2.3829 10.0276   1
   3  25   5 8.87165 7.19799   1
   3  25   5 10.5334 10.9651   3
   3  25   5 16.4708 9.62487   2
   4 -25   5 8.40208 10.6874   1
   4  25   5 17.9164 8.31387   1
   4  25   5 6.30407 8.56223   2
   4  25   5 21.4611 11.8582   3
   5 -26  -5 19.8299 10.6759   1
   5  26  -5 19.0225 9.08236   1
   4 -26  -5 1.42674 8.80919   1
   4  26  -5 0.16470 6.98908   1
   3 -26  -5 1.41637 9.51152   1
  -3 -26   5 7.87822 10.4479   1
  -3  26   5 -0.7534 6.90043   1
   3  26  -5 3.77853 6.42443   1
  -3  26   5 -12.084 10.4184   2
   2 -26  -5 25.3501 10.2434   1
  -2 -26   5 21.4923 11.0730   1
  -2  26   5 -0.4682 15.5502   3
  -2  26   5 46.2710 10.8237   1
  -2  26   5 19.2570 11.4373   2
   2  26  -5 34.0108 9.54288   1
  -1 -26   5 -6.1129 8.94780   1
  -1  26   5 -6.2382 8.48486   2
  -1  26   5 2.67507 7.06563   1
  -1  26   5 14.0167 14.7598   3
   1  26  -5 -0.2904 6.00041   1
   0 -26   5 8.41426 10.1772   1
   0  26   5 17.1438 10.5777   2
   0  26   5 4.60416 7.51730   1
   0  26   5 19.7062 14.0008   3
   1 -26   5 -6.2263 8.89165   1
   1  26   5 -6.7265 10.1524   3
   1  26   5 2.96919 8.60640   2
   1  26   5 11.4237 7.59182   1
   2 -26   5 27.8657 12.3897   1
   2  26   5 15.9592 11.8105   3
   2  26   5 15.2850 8.11480   1
   2  26   5 26.0424 10.8653   2
   3 -26   5 71.8957 14.9833   1
   3  26   5 122.307 15.6489   1
   3  26   5 110.166 17.1042   2
   3  26   5 105.484 18.4274   3
   5 -27  -5 59.6527 14.1755   1
   5  27  -5 45.3344 11.7117   1
   4 -27  -5 8.09176 9.31712   1
   4  27  -5 -0.9393 6.77743   1
   3 -27  -5 3.42465 9.72541   1
  -3 -27   5 9.73818 12.6942   1
  -3  27   5 5.87828 8.73813   1
   3  27  -5 10.6799 7.80219   1
  -3  27   5 -24.173 15.5846   3
  -3  27   5 -6.3481 9.54809   2
   2 -27  -5 1.00169 8.28382   1
  -2 -27   5 -23.088 7.89838   1
  -2  27   5 -1.1869 9.88080   2
  -2  27   5 -2.2411 16.1036   3
  -2  27   5 2.25318 6.76001   1
   2  27  -5 2.69197 6.78081   1
  -1 -27   5 10.0552 10.2794   1
   1  27  -5 8.74065 7.39027   1
  -1  27   5 21.0466 10.9463   2
  -1  27   5 9.91835 14.2310   3
  -1  27   5 10.2185 8.06158   1
   0 -27   5 2.52204 10.0657   1
   0  27   5 8.23577 9.84332   2
   0  27   5 29.1788 9.34894   1
   0  27   5 2.13847 12.2601   3
   1 -27   5 57.2232 13.6546   1
   1  27   5 39.9874 12.2136   2
   1  27   5 43.6584 10.2705   1
   1  27   5 48.5763 15.0687   3
   2 -27   5 36.1939 12.8118   1
   2  27   5 17.2129 8.17278   1
   2  27   5 14.2856 11.8070   3
   2  27   5 14.9977 10.2587   2
   3 -27   5 38.0608 13.2292   1
   3  27   5 52.8625 12.7100   2
   3  27   5 60.0518 15.6537   3
   3  27   5 37.5726 10.2070   1
   4 -28  -5 56.4202 14.0864   1
  -4  28   5 19.2949 12.7676   2
   4  28  -5 55.8925 13.1367   1
   3 -28  -5 85.1253 14.5209   1
   3  28  -5 52.9995 11.6616   1
  -3  28   5 40.4161 11.0004   1
  -3  28   5 54.2407 14.4149   2
  -3  28   5 18.3123 17.8681   3
  -2 -28   5 6.99331 10.8774   1
  -2  28   5 17.7394 8.92433   1
  -2  28   5 23.9931 11.8641   2
  -2  28   5 18.4147 17.0902   3
   2  28  -5 13.7266 7.88639   1
  -1 -28   5 -0.2542 9.99012   1
  -1  28   5 17.6676 14.7009   3
   1  28  -5 32.1949 11.7465   1
  -1  28   5 15.6026 7.74111   1
  -1  28   5 16.2432 10.6866   2
   0 -28   5 84.2299 15.5010   1
   0  28   5 79.5342 18.6629   3
   0  28   5 53.5091 14.0148   2
   0  28   5 77.9581 12.9411   1
   1 -28   5 44.7397 13.2145   1
   1  28   5 44.1298 15.0624   3
   1  28   5 55.7414 13.4705   2
   1  28   5 35.6651 9.62992   1
   2 -28   5 8.28835 10.7656   1
   2  28   5 1.58724 8.21707   2
   2  28   5 4.80351 11.0398   3
   2  28   5 3.47389 6.95500   1
   3 -28   5 193.121 21.6985   1
   3  28   5 214.351 22.4299   2
   3  28   5 180.285 18.6789   1
   3  28   5 177.954 23.4574   3
   4 -29  -5 1.43653 9.63354   1
   4  29  -5 -4.5145 6.63738   1
  -4  29   5 6.47750 11.5544   2
   3 -29  -5 -0.7144 9.31485   1
  -3  29   5 -3.4328 10.0545   2
   3  29  -5 -2.2472 6.35511   1
  -3  29   5 -3.0146 6.42533   1
  -3  29   5 -19.594 15.4637   3
  -2 -29   5 43.3878 13.4905   1
  -2  29   5 18.7904 11.9731   2
  -2  29   5 45.9753 19.2916   3
   2  29  -5 47.7470 10.9989   1
  -2  29   5 47.4217 11.3872   1
  -1 -29   5 2.86225 9.95467   1
  -1  29   5 3.39712 7.65452   1
  -1  29   5 42.6651 16.1839   3
  -1  29   5 10.0293 10.2773   2
   0 -29   5 113.760 17.4050   1
   0  29   5 126.299 21.2610   3
   0  29   5 163.229 21.5025   2
   0  29   5 170.923 18.9573   1
   1 -29   5 -13.689 9.76080   1
   1  29   5 -0.7900 6.79503   1
   1  29   5 9.43807 9.55992   2
   1  29   5 6.60775 11.0065   3
   2 -29   5 25.9204 12.8166   1
   2  29   5 0.21986 8.90442   2
   2  29   5 4.84764 7.55112   1
   2  29   5 8.45988 11.3083   3
   4 -30  -5 21.3100 12.3877   1
  -4  30   5 3.96019 12.1307   2
   4  30  -5 18.3464 9.72492   1
   3 -30  -5 40.6134 12.6174   1
   3  30  -5 35.7290 10.9116   1
  -3  30   5 33.4050 10.4482   1
  -3  30   5 28.9267 19.3964   3
  -3  30   5 21.6619 12.5728   2
  -2 -30   5 17.2739 11.5801   1
   2  30  -5 15.5762 8.51828   1
  -2  30   5 14.0154 12.0062   2
  -2  30   5 22.9937 16.9123   3
  -2  30   5 11.2609 8.31563   1
  -1 -30   5 0.07269 10.3148   1
  -1  30   5 10.3030 10.9184   2
  -1  30   5 7.83286 8.50563   1
  -1  30   5 28.4732 14.7111   3
   0 -30   5 10.5004 11.6415   1
   0  30   5 6.40259 12.6745   3
   0  30   5 -2.8439 9.39997   2
   0  30   5 4.95835 7.36165   1
   1 -30   5 5.43176 11.0030   1
   1  30   5 35.4374 14.2464   3
   1  30   5 5.51698 8.15138   1
   1  30   5 17.6782 11.6983   2
   2 -30   5 88.0089 17.0587   1
   2  30   5 99.2315 19.1595   3
   2  30   5 75.5496 14.1252   1
   2  30   5 87.8192 16.5813   2
   3 -31  -5 52.9091 13.5133   1
   3  31  -5 33.5343 10.4527   1
  -3  31   5 27.1234 13.3076   2
  -3  31   5 18.9315 19.6916   3
  -3  31   5 5.93216 7.98005   1
  -2 -31   5 -3.9322 10.7517   1
  -2  31   5 2.19370 11.0559   2
  -2  31   5 -10.825 15.0068   3
  -2  31   5 8.73238 8.59342   1
   2  31  -5 19.6839 9.11892   1
  -1 -31   5 48.1387 14.6504   1
  -1  31   5 68.0151 18.4335   3
  -1  31   5 56.8579 12.7570   1
  -1  31   5 61.2442 15.2574   2
   0 -31   5 105.751 17.6569   1
   0  31   5 92.1838 17.3947   2
   0  31   5 98.3743 20.8851   3
   0  31   5 100.401 15.6700   1
   1 -31   5 81.4309 16.8368   1
   1  31   5 87.1465 15.0298   1
   1  31   5 92.9415 19.1995   3
   1  31   5 108.609 18.3733   2
  -2 -32   5 -1.6777 10.9223   1
  -2  32   5 25.7893 10.1190   1
  -2  32   5 8.92217 11.8736   2
  -2  32   5 3.63487 15.5151   3
   2  32  -5 6.36478 7.56126   1
  -1 -32   5 32.3675 14.4069   1
  -1  32   5 12.1898 9.23515   1
  -1  32   5 17.8261 12.6125   2
  -1  32   5 14.0903 14.2265   3
   0 -32   5 6.47203 11.7335   1
   0  32   5 5.76336 13.1342   3
   0  32   5 -4.1606 10.1651   2
   0  32   5 2.55700 8.02001   1
   8   0  -6 4.93063 7.53946   1
   7   0  -6 2.02375 6.42392   1
   6   0  -6 73.5240 11.6910   1
  -5   0   6 -1.9841 5.91020   1
   5   0  -6 -2.0266 5.69551   1
  -4   0   6 58.9233 10.4831   1
  -4   0   6 51.0079 10.0756   1
   4   0  -6 57.5391 10.1866   1
  -3   0   6 -6.6581 5.94621   1
   3   0  -6 -10.837 4.76087   1
  -2   0   6 76.5029 10.8504   1
   2   0  -6 90.8815 10.6383   1
   1   0  -6 1.91944 4.87981   1
  -1   0   6 -8.3588 6.15333   1
   0   0  -6 125.286 10.3409   1
   0   0   6 120.052 13.5664   3
   0   0   6 115.338 12.6007   1
   1   0   6 -6.1173 6.26026   3
   1   0   6 -0.8295 6.35162   1
   2   0   6 211.112 10.8932   2
   2   0   6 208.279 13.8527   3
   2   0   6 192.890 14.0773   1
   3   0   6 9.75899 6.27121   1
   3   0   6 4.95855 5.36542   3
   4   0   6 9.11110 6.46288   3
   4   0   6 -7.2336 5.41201   1
   5   0   6 1.42353 5.53198   1
   5   0   6 4.39652 6.28292   3
   6   0   6 -12.215 4.65257   1
   8  -1  -6 4.26951 7.51548   1
   8   1  -6 10.2100 7.74451   1
   7  -1  -6 4.47402 6.88631   1
   7   1  -6 10.7320 7.08247   1
   6  -1  -6 0.77439 6.38531   1
   6   1  -6 10.7961 7.20731   1
   5  -1  -6 -1.8021 5.85861   1
  -5  -1   6 -1.6291 6.15826   1
   5   1  -6 4.92570 6.34574   1
  -5   1   6 7.18073 6.60634   1
  -4  -1   6 -0.6618 6.54114   1
  -4  -1   6 -2.6837 6.02762   1
   4  -1  -6 -9.4748 5.32589   1
  -4   1   6 -8.2372 5.71336   1
   4   1  -6 13.9666 7.04605   1
  -4   1   6 -3.3224 6.31942   1
   3  -1  -6 -3.8879 5.37563   1
  -3  -1   6 5.90597 6.87971   1
   3   1  -6 -4.7353 5.24893   1
  -3   1   6 -0.9912 6.88380   1
  -2  -1   6 110.946 12.5942   1
   2  -1  -6 88.2829 10.7692   1
  -2   1   6 95.5776 11.5948   1
   2   1  -6 94.0342 10.5768   1
   1  -1  -6 21.9523 6.91728   1
  -1  -1   6 11.7981 7.98332   1
  -1   1   6 26.0456 8.21403   1
   1   1  -6 11.8502 5.83791   1
   0  -1   6 5.55823 6.92959   1
   0  -1   6 11.3008 9.07097   3
   0  -1  -6 14.6243 5.34393   1
   0   1   6 18.6486 7.72709   1
   0   1  -6 17.3873 5.53317   1
   0   1   6 11.7032 9.60195   3
   1  -1   6 434.546 18.1764   3
   1  -1   6 464.421 19.9792   1
   1   1   6 463.753 20.0497   3
   1   1   6 430.496 19.2372   1
   2  -1   6 166.059 13.7850   1
   2  -1   6 156.257 9.50133   2
   2  -1   6 154.214 11.8852   3
   2   1   6 169.774 13.9475   1
   2   1   6 182.646 10.5208   2
   2   1   6 169.249 13.4040   3
   3  -1   6 106.003 11.3363   3
   3  -1   6 85.9029 10.2561   1
   3   1   6 91.8509 11.1405   3
   3   1   6 97.8015 10.7481   1
   4  -1   6 73.1844 10.0334   1
   4  -1   6 64.4618 10.2318   3
   4   1   6 61.7315 10.3244   3
   4   1   6 70.6882 9.68540   1
   5  -1   6 24.1377 7.19959   1
   5  -1   6 24.9782 9.33722   3
   5   1   6 31.7331 9.11218   3
   6  -1   6 2.45144 5.60354   1
   6   1   6 -2.7227 5.25727   1
   8  -2  -6 16.3439 9.37780   1
   8   2  -6 26.4349 9.12770   1
   7  -2  -6 79.6431 13.0674   1
   7   2  -6 92.1072 13.5682   1
   6  -2  -6 195.327 18.0701   1
   6   2  -6 198.223 18.0152   1
  -5  -2   6 0.72581 6.21115   1
   5  -2  -6 4.12551 6.54619   1
  -5  -2   6 1.06216 6.63065   1
   5   2  -6 2.43045 6.54452   1
  -5   2   6 2.67290 6.61522   1
   4  -2  -6 -1.6092 5.72428   1
  -4  -2   6 8.21332 6.95980   1
   4   2  -6 6.02560 6.48492   1
  -4   2   6 1.99115 6.81257   1
  -3  -2   6 19.8541 8.60220   1
   3  -2  -6 29.5820 8.05762   1
   3   2  -6 19.2015 7.60414   1
  -3   2   6 19.7014 7.68057   1
  -3   2   6 19.2091 8.12486   1
  -2  -2   6 1.86516 7.10705   1
   2  -2  -6 -2.9043 5.15515   1
   2   2  -6 2.61461 5.29998   1
  -2   2   6 -0.1815 6.49345   1
   1  -2  -6 265.565 14.3605   1
  -1  -2   6 238.001 16.6210   1
  -1   2   6 219.838 16.0078   1
   1   2  -6 230.462 13.6695   1
   0  -2   6 139.917 13.8017   3
   0  -2   6 122.797 12.6992   1
   0  -2  -6 158.459 10.9520   1
   0   2  -6 127.892 10.8914   1
   0   2   6 160.648 16.5001   3
   0   2   6 142.215 13.7102   1
   1  -2   6 8.59488 7.11941   1
   1  -2   6 6.88354 6.25911   3
   1   2   6 5.32960 7.53876   3
   1   2   6 8.57800 6.78261   1
   2  -2   6 54.7132 9.58057   1
   2  -2   6 62.1234 8.17835   3
   2   2   6 74.6225 10.6627   3
   2   2   6 62.6183 8.09828   2
   2   2   6 65.3905 9.97445   1
   3  -2   6 9.75570 5.37811   3
   3  -2   6 -0.4191 5.92792   1
   3   2   6 9.37477 5.83748   1
   3   2   6 7.70137 5.99138   3
   4  -2   6 47.2269 8.72259   3
   4  -2   6 28.4046 7.66806   1
   4   2   6 37.5797 7.94214   1
   4   2   6 34.0530 8.94700   3
   5  -2   6 16.8759 6.71730   1
   5   2   6 9.82562 7.19962   3
   5   2   6 4.08858 5.66132   1
   6  -2   6 1.94468 5.87359   1
   6   2   6 2.54857 7.40076   3
   6   2   6 -4.8918 5.01687   1
   8  -3  -6 12.7864 9.04485   1
   8   3  -6 14.6600 8.89386   1
   7  -3  -6 -11.495 6.08398   1
   7   3  -6 13.7514 7.50741   1
   6  -3  -6 3.12343 6.66661   1
   6   3  -6 -3.3221 5.54147   1
  -5  -3   6 80.9465 11.6596   1
   5  -3  -6 90.3880 12.5458   1
  -5  -3   6 93.8360 12.3162   1
  -5   3   6 95.4731 12.0082   1
   5   3  -6 99.5836 13.3412   1
   4  -3  -6 39.0713 9.42351   1
  -4  -3   6 38.4667 9.24048   1
   4   3  -6 36.3896 8.65240   1
  -4   3   6 35.4905 9.06401   1
   3  -3  -6 54.8116 9.68310   1
  -3  -3   6 54.3707 10.3037   1
  -3   3   6 41.7168 9.08570   1
  -3   3   6 46.4190 9.52276   1
   3   3  -6 64.8876 10.4078   1
   2  -3  -6 209.946 14.5477   1
  -2  -3   6 214.202 15.9682   1
  -2   3   6 219.401 15.5839   1
   2   3  -6 202.848 13.8366   1
  -1  -3   6 21.6951 8.19968   1
   1  -3  -6 23.5858 6.87279   1
  -1   3   6 7.23906 7.07417   1
   1   3  -6 25.9075 6.58625   1
   0  -3  -6 140.878 10.6811   1
   0  -3   6 126.196 13.2049   1
   0  -3   6 119.863 12.3749   3
   0   3   6 107.443 14.6906   3
   0   3  -6 121.998 10.6919   1
   0   3   6 77.8194 10.6433   1
   1  -3   6 14.4493 6.36245   3
   1  -3   6 -0.1718 6.72899   1
   1   3   6 9.38426 6.77287   1
   1   3   6 14.7508 8.90589   3
   2  -3   6 1.55640 6.27677   1
   2  -3   6 4.24985 4.46112   3
   2   3   6 7.43485 6.96894   3
   2   3   6 0.35457 5.85447   1
   2   3   6 2.83225 4.87465   2
   3  -3   6 25.3090 6.56395   3
   3  -3   6 26.5167 7.85454   1
   3   3   6 28.0002 7.70862   1
   3   3   6 13.3262 7.22383   3
   4  -3   6 118.026 11.8133   1
   4  -3   6 134.960 16.2697   3
   4   3   6 159.742 16.5479   3
   4   3   6 128.298 12.1363   1
   5  -3   6 103.094 10.9663   1
   5   3   6 135.711 16.6333   3
   5   3   6 103.138 10.6150   1
   6  -3   6 12.5594 6.61754   1
   6   3   6 8.73567 7.96199   3
   6   3   6 0.12532 5.10374   1
   8  -4  -6 30.5399 10.0699   1
   8   4  -6 25.8182 9.39759   1
   7  -4  -6 7.00216 7.93105   1
   7   4  -6 33.3547 9.18578   1
   6  -4  -6 27.7458 9.20073   1
   6   4  -6 44.8610 10.1032   1
  -5  -4   6 477.540 22.6198   1
  -5  -4   6 514.478 22.9716   1
   5  -4  -6 526.274 24.4129   1
   5   4  -6 489.789 22.8865   1
  -5   4   6 509.206 22.4897   1
  -4  -4   6 32.7736 8.68157   1
   4  -4  -6 22.5238 7.99080   1
  -4   4   6 22.3044 8.17673   1
   4   4  -6 7.48085 6.83622   1
  -3  -4   6 -2.0797 6.91548   1
   3  -4  -6 3.46953 6.32865   1
  -3   4   6 2.03568 6.33365   1
  -3   4   6 0.45019 6.78510   1
   3   4  -6 -3.7726 5.45157   1
   2  -4  -6 6.77656 6.20546   1
  -2  -4   6 8.42214 7.31952   1
  -2   4   6 7.09925 6.99104   1
   2   4  -6 8.53481 5.78309   1
  -2   4   6 11.5406 6.86765   1
   1  -4  -6 0.61242 5.36142   1
  -1  -4   6 4.78298 7.22972   1
  -1   4   6 -2.9072 5.99507   1
   1   4  -6 0.45627 4.38756   1
   0  -4  -6 116.020 10.3906   1
   0  -4   6 123.899 11.5991   3
   0  -4   6 119.321 12.6705   1
   0   4   6 105.635 12.0419   1
   0   4   6 128.023 16.3708   3
   0   4  -6 114.055 10.3530   1
   1  -4   6 240.126 15.9892   1
   1  -4   6 280.526 13.0736   3
   1   4   6 244.046 17.8882   3
   1   4   6 270.040 16.0154   1
   2  -4   6 40.7340 8.68810   1
   2  -4   6 42.3421 6.51765   3
   2   4   6 48.8325 7.84748   2
   2   4   6 48.2825 8.81228   1
   2   4   6 50.5061 10.0156   3
   3  -4   6 99.1015 11.3265   1
   3  -4   6 96.2987 9.75893   3
   3   4   6 86.9500 12.0280   3
   4  -4   6 59.9181 9.55567   1
   4   4   6 54.9120 8.92253   1
   4   4   6 83.1890 13.1531   3
   5  -4   6 57.2063 9.22470   1
   5   4   6 66.7498 12.8015   3
   5   4   6 61.0920 8.86391   1
   6   4   6 1.84141 7.16691   3
   8  -5  -6 -7.7162 6.69689   1
   8   5  -6 18.8201 8.54448   1
   7  -5  -6 12.0457 8.33161   1
   7   5  -6 16.1945 7.75054   1
   6  -5  -6 145.045 16.0540   1
   6   5  -6 115.699 14.3514   1
  -5  -5   6 53.4823 11.3066   1
  -5  -5   6 49.8139 11.2937   1
   5  -5  -6 57.2981 11.0328   1
   5   5  -6 72.0115 11.3538   1
  -5   5   6 67.5119 10.8255   1
   4  -5  -6 22.8523 8.38093   1
  -4  -5   6 28.4450 8.31342   1
   4   5  -6 21.6063 7.84066   1
  -4   5   6 7.90410 7.33197   1
   3  -5  -6 64.2817 10.4460   1
  -3  -5   6 56.5549 10.6297   1
   3   5  -6 57.4256 9.59099   1
  -3   5   6 71.2647 10.7082   1
   2  -5  -6 51.7897 9.15660   1
  -2  -5   6 42.6146 9.50466   1
   2   5  -6 53.4079 8.98619   1
  -2   5   6 39.1752 8.96560   1
  -2   5   6 56.1225 10.0872   1
   1  -5  -6 16.5307 6.40010   1
  -1  -5   6 28.5005 8.71606   1
  -1   5   6 12.3694 7.07575   1
   1   5  -6 22.0300 6.38234   1
   0  -5  -6 31.8805 7.83988   1
   0  -5   6 32.5083 7.77564   3
   0  -5   6 28.7118 8.41181   1
   0   5  -6 30.9149 6.62512   1
   0   5   6 25.0930 8.12269   1
   0   5   6 25.2965 11.9521   3
   1  -5   6 24.9496 7.93423   1
   1  -5   6 27.7372 5.71538   3
   1   5   6 25.4496 7.66496   1
   1   5   6 5.33800 9.41079   3
   2  -5   6 79.5692 10.5328   1
   2  -5   6 100.510 8.55244   3
   2   5   6 84.2362 12.5589   3
   2   5   6 76.2394 9.23717   2
   2   5   6 81.6672 10.2400   1
   3  -5   6 48.2656 9.32084   1
   3   5   6 35.9596 9.27192   3
   3   5   6 67.4504 10.7157   2
   3   5   6 32.8256 8.00527   1
   4  -5   6 6.55300 6.84997   1
   4   5   6 24.6368 8.87741   3
   4   5   6 14.6855 6.52045   1
   5  -5   6 14.0274 6.93898   1
   5   5   6 19.8268 6.07575   1
   5   5   6 26.3709 9.53270   3
   8  -6  -6 186.708 19.9851   1
   8   6  -6 141.485 17.0657   1
   7  -6  -6 49.8600 11.4970   1
   7   6  -6 91.6748 14.2217   1
   6  -6  -6 24.6410 9.27228   1
   6   6  -6 18.5468 8.17060   1
   5  -6  -6 98.6538 13.1269   1
  -5  -6   6 103.454 18.3562   1
   5   6  -6 62.7229 10.6577   1
  -5   6   6 85.4576 11.9016   1
  -4  -6   6 163.665 15.1833   1
   4  -6  -6 165.141 15.5995   1
   4   6  -6 164.443 15.8209   1
  -4   6   6 169.450 15.6953   1
   3  -6  -6 11.7091 7.24678   1
  -3  -6   6 5.21181 7.20261   1
   3   6  -6 8.07949 6.38841   1
  -3   6   6 6.13442 6.97006   1
   2  -6  -6 67.6566 9.89240   1
  -2  -6   6 71.1410 11.2911   1
   2   6  -6 49.3663 8.73964   1
  -2   6   6 61.7397 10.4484   1
  -2   6   6 67.1264 10.3261   1
  -1  -6   6 356.511 18.9581   1
   1  -6  -6 326.557 16.0843   1
  -1   6   6 336.369 17.7158   1
   1   6  -6 292.362 15.2713   1
  -1   6   6 297.860 17.4658   1
   0  -6   6 21.1774 8.14166   1
   0  -6   6 28.0476 6.99555   3
   0   6   6 35.6663 12.8808   3
   0   6   6 29.7186 8.21055   1
   0   6  -6 39.3955 7.12579   1
   1  -6   6 355.787 18.3909   1
   1  -6   6 310.895 11.5472   3
   1   6   6 290.367 19.6982   3
   1   6   6 263.181 16.3007   1
   2  -6   6 273.938 14.3461   3
   2  -6   6 288.784 16.8840   1
   2   6   6 289.185 15.9607   1
   2   6   6 262.804 18.4369   3
   2   6   6 273.302 14.5718   2
   3  -6   6 10.6515 7.22085   1
   3   6   6 19.8417 8.19110   3
   3   6   6 12.8041 6.59258   1
   3   6   6 20.7436 5.91679   2
   4  -6   6 193.477 14.4880   1
   4   6   6 192.989 18.1401   3
   4   6   6 209.321 13.6845   1
   5  -6   6 146.517 13.3302   1
   5   6   6 160.300 18.3490   3
   5   6   6 136.770 11.8151   1
   8  -7  -6 6.54943 8.65260   1
   8   7  -6 3.17882 6.94927   1
   7  -7  -6 44.4194 11.7270   1
   7   7  -6 26.6545 9.45586   1
   6  -7  -6 98.9093 14.2661   1
   6   7  -6 103.216 13.5670   1
   5  -7  -6 111.431 14.1023   1
  -5   7   6 67.3800 11.1976   1
   5   7  -6 125.018 14.6813   1
   4  -7  -6 123.639 13.9668   1
  -4  -7   6 105.387 13.2227   1
  -4   7   6 114.554 13.2530   1
   4   7  -6 123.402 13.7510   1
   3  -7  -6 369.799 19.0039   1
  -3  -7   6 399.903 21.2041   1
  -3   7   6 390.984 19.9745   1
   3   7  -6 419.319 20.0348   1
  -2  -7   6 -3.7197 6.88406   1
   2  -7  -6 0.06894 5.83569   1
   2   7  -6 12.1970 6.43655   1
  -2   7   6 2.84104 6.42665   1
  -1  -7   6 48.1420 10.4857   1
   1  -7  -6 51.6067 8.67932   1
  -1   7   6 36.8990 8.68979   1
   1   7  -6 41.6968 7.91054   1
  -1   7   6 27.1330 8.59141   1
   0  -7   6 43.2274 9.61739   1
   0  -7   6 45.5807 7.17028   3
   0   7  -6 33.9470 6.59280   1
   0   7   6 44.3966 9.54510   1
   0   7   6 39.2664 8.71533   1
   0   7   6 37.0289 13.0209   3
   1  -7   6 82.3278 6.30728   3
   1  -7   6 54.8227 10.2223   1
   1   7   6 63.2040 9.87746   1
   1   7   6 51.7718 12.2443   3
   2  -7   6 34.3085 8.55258   1
   2   7   6 21.5838 6.87741   2
   2   7   6 28.7958 7.51185   1
   2   7   6 23.0174 9.07858   3
   3  -7   6 14.7700 7.44448   1
   3   7   6 -0.3429 4.58974   2
   3   7   6 -8.6503 4.73357   1
   3   7   6 12.0377 7.25384   3
   4  -7   6 14.0108 7.45020   1
   4   7   6 32.2953 7.03505   1
   4   7   6 28.0618 9.20598   3
   5  -7   6 176.975 14.7086   1
   5   7   6 189.307 20.1486   3
   5   7   6 195.848 13.0794   1
   5   7   6 193.255 12.8636   1
   7  -8  -6 14.2317 8.49862   1
   7   8  -6 33.8966 9.83119   1
   6  -8  -6 127.185 15.8556   1
   6   8  -6 108.587 14.2881   1
   5  -8  -6 6.19734 7.42895   1
  -5   8   6 -4.6170 6.34015   1
   5   8  -6 13.7351 7.17044   1
  -4  -8   6 85.0861 12.0571   1
   4  -8  -6 77.5574 11.5669   1
  -4   8   6 87.4158 12.2936   1
   4   8  -6 62.9229 10.4879   1
   3  -8  -6 -12.787 5.45162   1
  -3  -8   6 4.21618 7.57806   1
  -3   8   6 9.23278 6.79076   1
   3   8  -6 -1.0432 5.40377   1
  -2  -8   6 73.2273 11.8610   1
   2  -8  -6 71.9676 10.3627   1
   2   8  -6 69.9520 9.85020   1
  -2   8   6 58.6502 10.2765   1
  -1  -8   6 7.38996 7.65004   1
   1  -8  -6 4.70639 6.00095   1
  -1   8   6 -1.5277 6.75770   1
   1   8  -6 6.10299 5.22976   1
  -1   8   6 -12.162 5.01976   1
   0  -8   6 64.8565 10.5555   1
   0  -8   6 73.4806 7.24751   3
   0   8  -6 74.4468 8.97547   1
   0   8   6 56.6488 9.49825   1
   0   8   6 57.1106 10.1655   1
   0   8   6 69.6508 15.2181   3
   1  -8   6 36.2047 9.23958   1
   1   8   6 52.0844 9.50600   1
   1   8   6 45.8488 8.88155   1
   1   8   6 31.5382 11.4942   3
   2  -8   6 19.4538 7.63744   1
   2   8   6 11.3931 8.70963   3
   2   8   6 5.88887 5.83875   2
   2   8   6 20.3442 7.08808   1
   3  -8   6 28.6552 8.43893   1
   3   8   6 30.0140 7.07215   2
   3   8   6 33.3722 9.82670   3
   3   8   6 18.3726 6.75634   1
   4  -8   6 137.608 13.9461   1
   4   8   6 129.077 12.1113   1
   4   8   6 143.019 16.6255   3
   4   8   6 131.849 12.2178   1
   5  -8   6 291.572 17.7821   1
   5   8   6 277.829 14.9724   1
   5   8   6 310.308 15.5945   1
   5   8   6 265.637 21.1317   3
   7  -9  -6 -0.7541 7.43638   1
   7   9  -6 4.37252 7.01596   1
   6  -9  -6 29.9515 9.76987   1
   6   9  -6 21.3762 8.53036   1
   5  -9  -6 35.3380 9.55403   1
   5   9  -6 39.4689 9.87404   1
  -5   9   6 35.0173 9.14377   1
  -4  -9   6 174.505 16.1175   1
   4  -9  -6 214.813 16.1979   1
  -4   9   6 216.562 16.4136   1
   4   9  -6 243.728 16.7762   1
   3  -9  -6 154.069 14.7940   1
  -3  -9   6 214.380 17.7831   1
   3   9  -6 206.765 16.8957   1
  -3   9   6 207.654 15.6585   1
   2  -9  -6 17.4524 7.34728   1
  -2  -9   6 -9.4840 6.74447   1
   2   9  -6 8.52011 6.06060   1
  -2   9   6 1.52287 6.61863   1
   1  -9  -6 16.0365 6.58497   1
  -1  -9   6 3.76810 7.48139   1
  -1   9   6 -1.3496 6.03607   1
   1   9  -6 13.6382 5.97245   1
   0  -9   6 14.1100 4.29832   3
   0  -9   6 0.76829 7.20319   1
   0   9   6 4.60353 6.29887   1
   0   9   6 0.73960 6.69247   1
   0   9  -6 5.23189 5.38794   1
   0   9   6 -1.6203 11.6988   3
   1  -9   6 8.84938 7.54949   1
   1   9   6 -5.8879 5.72398   1
   1   9   6 10.6537 9.81917   3
   1   9   6 12.0481 6.68952   1
   1   9   6 12.8329 7.20364   2
   2  -9   6 129.343 13.4228   1
   2   9   6 151.831 16.8432   3
   2   9   6 112.690 11.9003   2
   2   9   6 128.011 12.7251   1
   2   9   6 129.903 12.8786   1
   3  -9   6 42.5635 9.39500   1
   3   9   6 39.5861 10.8606   3
   3   9   6 32.7765 7.51044   1
   3   9   6 29.9091 7.26452   2
   3   9   6 36.9167 7.87414   1
   4  -9   6 11.4383 7.34909   1
   4   9   6 0.92885 5.47253   1
   4   9   6 6.04436 5.55009   1
   4   9   6 16.8869 8.51935   3
   5  -9   6 104.168 12.8403   1
   5   9   6 91.9171 15.6459   3
   5   9   6 127.587 12.0552   1
   7 -10  -6 -5.3739 7.17046   1
   7  10  -6 12.8597 7.90085   1
   6 -10  -6 29.4893 9.92915   1
   6  10  -6 52.9974 11.4688   1
   5 -10  -6 3.42808 7.33726   1
   5  10  -6 13.7169 8.07893   1
  -5  10   6 21.3251 9.94301   1
   4 -10  -6 474.873 22.3081   1
  -4 -10   6 417.729 22.1932   1
  -4  10   6 467.898 22.3403   1
   4  10  -6 427.752 21.8509   1
   3 -10  -6 167.990 15.7311   1
  -3 -10   6 139.197 15.1665   1
  -3  10   6 143.809 14.5819   1
   3  10  -6 140.328 14.4043   1
   2 -10  -6 68.2508 10.3935   1
  -2 -10   6 48.2657 10.3515   1
  -2  10   6 84.5791 12.1480   1
   2  10  -6 57.2840 9.69492   1
   1 -10  -6 55.9000 8.65939   1
  -1 -10   6 48.6663 10.3772   1
   1  10  -6 33.7634 7.64413   1
  -1  10   6 36.8931 14.6375   3
  -1  10   6 42.1102 9.35079   1
   0 -10   6 30.1143 9.04628   1
   0  10   6 40.8202 13.9441   3
   0  10   6 33.7851 8.41688   1
   1 -10   6 2.79032 7.54517   1
   1  10   6 -5.8852 6.26883   2
   1  10   6 -3.0752 5.63244   1
   1  10   6 4.08024 9.96529   3
   2 -10   6 59.1775 10.2277   1
   2  10   6 39.1286 11.2636   3
   2  10   6 60.7599 9.61515   2
   2  10   6 74.1964 10.5664   1
   2  10   6 70.5048 10.3199   1
   3 -10   6 2.13091 7.24734   1
   3  10   6 -3.9330 5.42582   1
   3  10   6 3.93499 7.94880   3
   3  10   6 12.0584 6.25134   2
   4 -10   6 12.6680 8.23700   1
   4  10   6 15.6096 6.36100   1
   4  10   6 16.8940 9.36740   3
   5 -10   6 -2.8207 6.84460   1
   5  10   6 -4.3151 4.95539   1
   5  10   6 0.83274 8.25788   3
   7 -11  -6 5.20721 8.53494   1
   7  11  -6 14.1014 8.09975   1
   6 -11  -6 -3.9049 6.63179   1
   6  11  -6 22.7918 9.09152   1
   5 -11  -6 122.031 15.1405   1
   5  11  -6 101.466 13.9164   1
  -4 -11   6 219.737 18.6783   1
   4 -11  -6 172.176 16.5120   1
   4  11  -6 188.045 16.8541   1
  -4  11   6 174.573 16.6759   1
   3 -11  -6 14.9536 7.52596   1
  -3 -11   6 -6.1318 7.31049   1
  -3  11   6 -2.3102 6.06653   1
   3  11  -6 2.86868 6.33120   1
  -2 -11   6 697.396 26.8656   1
   2 -11  -6 661.761 24.0353   1
  -2  11   6 639.496 25.6265   1
   2  11  -6 682.596 24.3214   1
  -1 -11   6 133.818 14.3629   1
   1 -11  -6 159.675 13.8049   1
  -1  11   6 140.692 14.5987   1
   1  11  -6 139.482 12.8512   1
  -1  11   6 107.771 18.7004   3
   0 -11   6 7.98360 8.04011   1
   0  11   6 17.3088 12.3197   3
   0  11   6 15.0445 7.28773   1
   1 -11   6 30.3966 9.09180   1
   1  11   6 37.2016 8.24021   1
   1  11   6 36.6755 11.9203   3
   1  11   6 38.6215 9.39542   2
   2 -11   6 44.5855 10.2186   1
   2  11   6 63.1509 12.6396   3
   2  11   6 65.6206 9.96099   1
   2  11   6 57.8271 9.87238   2
   3 -11   6 11.8796 8.04931   1
   3  11   6 9.17868 6.19130   2
   3  11   6 8.47979 6.41197   1
   3  11   6 9.81612 8.34234   3
   4 -11   6 153.916 15.4423   1
   4  11   6 188.188 13.8817   1
   4  11   6 186.208 19.9456   3
   5 -11   6 156.316 15.6215   1
   5  11   6 147.230 19.1600   3
   5  11   6 143.410 12.8442   1
   7 -12  -6 -8.0986 7.41315   1
   7  12  -6 24.3231 9.67436   1
   6 -12  -6 11.3531 8.19140   1
   6  12  -6 0.38303 6.57358   1
   5 -12  -6 0.22442 7.37129   1
   5  12  -6 10.0262 7.25888   1
  -4 -12   6 80.6068 12.7885   1
   4 -12  -6 69.2509 11.6395   1
  -4  12   6 75.3391 12.1156   1
   4  12  -6 65.9689 11.5233   1
   3 -12  -6 29.1908 8.85908   1
  -3 -12   6 27.6468 9.67144   1
  -3  12   6 41.3781 9.56517   1
   3  12  -6 27.9011 8.30985   1
  -2 -12   6 -1.3314 7.91582   1
   2 -12  -6 2.50470 6.56392   1
  -2  12   6 -3.1339 5.90331   1
   2  12  -6 7.74830 6.47179   1
  -1 -12   6 247.469 17.6329   1
   1 -12  -6 236.567 15.4940   1
   1  12  -6 223.434 14.5171   1
  -1  12   6 220.519 23.4861   3
  -1  12   6 242.730 16.7653   1
   0 -12   6 29.8774 9.46497   1
   0  12   6 33.6479 8.68667   1
   0  12   6 40.0970 13.8800   3
   1 -12   6 4.68909 7.65286   1
   1  12   6 21.8091 7.97454   2
   1  12   6 26.2412 7.63716   1
   1  12   6 15.2140 11.3039   3
   2 -12   6 67.8732 11.5896   1
   2  12   6 64.2298 9.77108   1
   2  12   6 56.1565 12.6472   3
   2  12   6 55.2013 10.2131   2
   3 -12   6 42.2362 10.8313   1
   3  12   6 46.4727 8.95881   2
   3  12   6 45.7454 8.80807   1
   3  12   6 55.3019 12.1484   3
   4 -12   6 6.13520 8.28278   1
   4  12   6 -1.7546 6.77589   3
   4  12   6 9.09656 6.31049   1
   5 -12   6 26.4251 9.41320   1
   5  12   6 43.2562 12.6227   3
   5  12   6 27.6119 7.85162   1
   7 -13  -6 24.9645 10.4166   1
   7  13  -6 28.1891 9.95530   1
   6 -13  -6 -1.8548 7.20000   1
   6  13  -6 17.2244 8.48272   1
   5 -13  -6 49.1895 11.1431   1
   5  13  -6 32.1472 9.53877   1
  -4 -13   6 -10.099 7.18288   1
   4 -13  -6 2.81444 7.32306   1
  -4  13   6 2.98735 6.84338   1
   4  13  -6 -4.2553 6.25825   1
   3 -13  -6 122.073 13.7440   1
  -3 -13   6 100.952 14.0394   1
  -3  13   6 137.488 15.0947   1
   3  13  -6 112.271 13.3592   1
  -2 -13   6 69.0718 11.7041   1
   2 -13  -6 71.4212 10.8637   1
   2  13  -6 82.6101 11.3233   1
  -2  13   6 72.9272 11.2281   1
  -1 -13   6 50.3832 10.9510   1
   1 -13  -6 59.1949 9.74145   1
  -1  13   6 55.3353 16.9453   3
   1  13  -6 52.4424 8.94354   1
  -1  13   6 58.2743 10.6427   1
   0 -13   6 228.152 18.3023   1
   0  13   6 181.869 15.7159   1
   0  13   6 188.061 21.0736   3
   1 -13   6 217.157 16.5248   1
   1  13   6 160.331 14.7885   1
   1  13   6 230.326 16.8420   2
   1  13   6 192.105 20.6426   3
   2 -13   6 23.0681 9.16302   1
   2  13   6 5.30780 9.39056   3
   2  13   6 16.2913 7.70968   2
   2  13   6 4.82790 5.95530   1
   3 -13   6 4.11356 7.57651   1
   3  13   6 6.73446 5.95244   1
   3  13   6 4.24174 6.28838   2
   3  13   6 -0.3957 8.12525   3
   4 -13   6 9.11055 8.07072   1
   4  13   6 13.2010 8.77236   3
   4  13   6 -0.8922 5.44908   1
   5 -13   6 95.3555 13.9985   1
   5  13   6 65.7739 14.4775   3
   5  13   6 93.3019 11.6299   1
   7 -14  -6 8.38586 8.80725   1
   7  14  -6 -10.802 5.84686   1
   6 -14  -6 15.5110 8.74864   1
   6  14  -6 6.25693 7.83811   1
   5 -14  -6 19.5741 8.79465   1
   5  14  -6 10.8139 7.58592   1
  -4 -14   6 473.076 24.2717   1
   4 -14  -6 502.689 24.3634   1
  -4  14   6 466.273 23.0535   1
   4  14  -6 517.154 24.3029   1
  -3 -14   6 -7.9423 7.37068   1
   3 -14  -6 5.05843 6.97836   1
  -3  14   6 -10.149 5.41969   1
   3  14  -6 6.70048 6.63787   1
   2 -14  -6 -1.7839 6.29949   1
  -2 -14   6 -7.3151 7.09152   1
   2  14  -6 2.89569 6.10626   1
  -2  14   6 3.58715 6.73898   1
  -1 -14   6 324.629 20.0638   1
   1 -14  -6 302.894 16.8413   1
   1  14  -6 309.674 17.2200   1
  -1  14   6 308.944 27.0857   3
  -1  14   6 344.336 20.0298   1
   0 -14   6 11.6474 8.19730   1
   0  14   6 7.54875 11.6536   3
   0  14   6 4.51065 6.59485   1
   1 -14   6 20.4841 9.21420   1
   1  14   6 7.22718 7.73389   2
   1  14   6 20.6513 11.2011   3
   1  14   6 9.25933 6.81798   1
   2 -14   6 39.3058 10.6210   1
   2  14   6 32.7271 8.47426   1
   2  14   6 29.6209 8.57304   2
   2  14   6 39.9026 11.6957   3
   3 -14   6 87.8156 13.2310   1
   3  14   6 76.0406 11.2610   2
   3  14   6 100.185 16.1172   3
   3  14   6 117.552 12.8089   1
   4 -14   6 7.26946 8.61813   1
   4  14   6 11.7689 8.63583   2
   4  14   6 10.4662 8.59183   3
   4  14   6 0.08927 5.62970   1
   5 -14   6 12.3578 8.86361   1
   5  14   6 10.7843 6.89268   1
   5  14   6 6.21968 8.32156   3
   7 -15  -6 6.12221 8.37229   1
   7  15  -6 2.01190 7.34286   1
   6 -15  -6 16.1292 8.82286   1
   6  15  -6 17.5325 8.93822   1
   5 -15  -6 -0.2527 7.26498   1
   5  15  -6 -4.9093 5.91717   1
  -4 -15   6 34.8670 10.6946   1
   4 -15  -6 12.1197 8.32303   1
   4  15  -6 22.0385 8.66674   1
  -4  15   6 36.9951 9.30723   1
  -3 -15   6 231.016 19.4845   1
   3 -15  -6 198.643 17.2275   1
   3  15  -6 233.600 18.8267   1
  -3  15   6 189.785 17.4643   1
  -2 -15   6 523.840 24.4442   1
   2 -15  -6 509.672 22.3150   1
  -2  15   6 553.392 24.9562   1
   2  15  -6 512.802 22.3965   1
  -1 -15   6 127.892 14.6739   1
   1 -15  -6 143.820 13.8317   1
   1  15  -6 130.038 13.1368   1
  -1  15   6 149.397 21.6516   3
  -1  15   6 94.7396 12.5772   1
   0 -15   6 65.6868 11.6511   1
   0  15   6 45.1394 9.75251   1
   0  15   6 82.4678 16.6079   3
   1 -15   6 22.3709 9.74272   1
   1  15   6 -1.5134 10.4323   3
   1  15   6 4.39178 6.63779   1
   1  15   6 8.10554 7.93772   2
   2 -15   6 30.0506 9.95274   1
   2  15   6 47.5787 12.7632   3
   2  15   6 32.8927 9.36911   2
   2  15   6 29.5465 8.84124   1
   3 -15   6 22.5472 9.62390   1
   3  15   6 18.8320 7.82244   1
   3  15   6 18.5468 8.09251   2
   3  15   6 21.1777 11.0484   3
   4 -15   6 6.19924 8.29439   1
   4  15   6 2.50723 6.17263   2
   4  15   6 -5.0410 5.45922   1
   4  15   6 10.2568 9.12761   3
   5 -15   6 40.4645 11.3417   1
   5  15   6 43.7698 12.9839   3
   5  15   6 28.1511 8.81682   1
   7 -16  -6 -7.5780 7.63322   1
   7  16  -6 -2.9862 6.70062   1
   6 -16  -6 30.1224 9.81998   1
   6  16  -6 20.5118 9.52311   1
   5 -16  -6 14.3361 8.99990   1
   5  16  -6 10.2972 7.69552   1
  -4 -16   6 21.4117 10.2643   1
   4 -16  -6 16.0411 8.52101   1
  -4  16   6 32.4037 8.93929   1
   4  16  -6 30.7910 9.64505   1
   3 -16  -6 7.48427 7.50523   1
  -3 -16   6 8.33776 8.81545   1
   3  16  -6 13.9063 7.40492   1
  -3  16   6 8.86659 7.43896   1
  -2 -16   6 77.3170 12.9912   1
   2 -16  -6 75.4717 11.5513   1
   2  16  -6 89.2215 12.0896   1
  -2  16   6 83.3202 12.4343   1
   1 -16  -6 336.595 24.4576   1
  -1 -16   6 353.049 21.7804   1
  -1  16   6 346.611 20.0668   1
  -1  16   6 307.482 27.8607   3
   1  16  -6 372.586 18.8047   1
   0 -16   6 1.36194 8.05477   1
   0  16   6 -2.6414 7.80900   2
   0  16   6 7.68076 6.59032   1
   0  16   6 4.30442 11.9791   3
   1 -16   6 2.10069 8.17741   1
   1  16   6 -5.8184 6.99471   2
   1  16   6 4.41512 6.29408   1
   1  16   6 -2.4479 9.81041   3
   2 -16   6 0.39811 7.99227   1
   2  16   6 10.6208 9.96480   3
   2  16   6 9.00497 6.75373   1
   2  16   6 2.54186 7.56809   2
   3 -16   6 16.1934 9.23915   1
   3  16   6 5.93915 6.58605   1
   3  16   6 23.2304 10.9458   3
   3  16   6 9.06917 7.57313   2
   4 -16   6 -2.3565 8.26240   1
   4  16   6 8.57149 9.25843   3
   4  16   6 8.97174 6.80976   1
   4  16   6 13.5478 7.02419   2
   6 -17  -6 25.1602 10.1734   1
   6  17  -6 17.4370 8.36850   1
   5 -17  -6 52.5844 11.4615   1
   5  17  -6 43.0589 10.6653   1
   4 -17  -6 307.456 20.5225   1
  -4 -17   6 295.067 21.0033   1
  -4  17   6 305.773 19.7745   1
   4  17  -6 280.026 19.7273   1
   3 -17  -6 4.15220 7.34896   1
  -3 -17   6 7.76293 8.77862   1
   3  17  -6 9.08348 7.12018   1
  -3  17   6 -0.5703 6.89760   1
   2 -17  -6 36.8963 9.15044   1
  -2 -17   6 13.6754 9.22578   1
  -2  17   6 19.0773 8.31970   1
   2  17  -6 21.6496 7.83068   1
  -1 -17   6 -9.7452 8.19319   1
  -1  17   6 -10.266 5.35428   1
  -1  17   6 -0.9823 13.7592   3
   1  17  -6 -5.1935 5.08536   1
   0 -17   6 58.3014 11.9642   1
   0  17   6 73.4060 13.2402   2
   0  17   6 60.1552 10.8890   1
   0  17   6 81.2564 17.0699   3
   1 -17   6 40.3507 10.9891   1
   1  17   6 28.3369 13.0649   3
   1  17   6 33.7970 10.3083   2
   1  17   6 24.0209 8.21398   1
   2 -17   6 11.5710 9.51941   1
   2  17   6 25.4402 8.23707   1
   2  17   6 21.1284 9.13842   2
   2  17   6 30.5942 12.1662   3
   3 -17   6 23.6470 9.98683   1
   3  17   6 41.8157 12.6718   3
   3  17   6 38.4895 10.0135   2
   3  17   6 26.5422 7.83577   1
   4 -17   6 27.3892 10.6941   1
   4  17   6 47.0333 10.4529   2
   4  17   6 18.2788 10.4564   3
   4  17   6 24.3741 8.44881   1
   6 -18  -6 112.452 16.3122   1
   6  18  -6 131.124 17.7579   1
   5 -18  -6 380.561 23.6504   1
   5  18  -6 342.670 22.4501   1
  -4 -18   6 120.841 15.9972   1
   4 -18  -6 154.369 17.2488   1
   4  18  -6 146.666 16.2870   1
  -4  18   6 113.354 14.5677   1
  -3 -18   6 -7.7118 7.57766   1
   3 -18  -6 -3.1861 6.91531   1
  -3  18   6 0.56355 7.08361   1
   3  18  -6 1.03104 5.92826   1
   2 -18  -6 114.143 13.7972   1
  -2 -18   6 146.933 16.6952   1
  -2  18   6 111.774 14.1705   1
   2  18  -6 138.057 14.6545   1
  -1 -18   6 13.9206 9.12645   1
   1  18  -6 12.9176 6.73774   1
  -1  18   6 -6.4229 14.0734   3
  -1  18   6 9.56946 7.31039   1
   0 -18   6 122.843 15.2000   1
   0  18   6 121.720 18.7292   3
   0  18   6 148.507 16.7890   2
   0  18   6 149.650 15.9717   1
   1 -18   6 -0.4689 9.00290   1
   1  18   6 -1.6933 10.9581   3
   1  18   6 -3.1464 5.72866   1
   1  18   6 -13.716 6.53085   2
   2 -18   6 -10.995 7.67913   1
   2  18   6 11.5555 8.58243   2
   2  18   6 -2.0982 9.25799   3
   2  18   6 2.53733 6.18457   1
   3 -18   6 -1.9688 8.90117   1
   3  18   6 3.87042 6.96253   1
   3  18   6 25.3944 10.6771   3
   3  18   6 7.91211 7.74896   2
   4 -18   6 13.3593 9.62252   1
   4  18   6 4.48567 6.40787   1
   4  18   6 22.1705 10.8732   3
   4  18   6 19.0378 8.14678   2
   6 -19  -6 17.7357 9.84209   1
   6  19  -6 11.8957 8.40379   1
   5 -19  -6 200.631 20.0719   1
   5  19  -6 188.749 19.1660   1
  -4 -19   6 25.2535 12.4696   1
   4 -19  -6 38.1053 11.0634   1
   4  19  -6 33.4936 10.0944   1
  -4  19   6 16.9447 8.88543   1
   3 -19  -6 141.273 15.8118   1
  -3 -19   6 128.954 16.3080   1
   3  19  -6 155.516 16.5498   1
  -3  19   6 158.880 16.8029   1
  -2 -19   6 62.8417 13.0309   1
   2 -19  -6 50.6322 10.7866   1
  -2  19   6 19.1544 16.8178   3
  -2  19   6 29.6261 9.04599   1
   2  19  -6 58.2449 10.7100   1
  -1 -19   6 10.4188 9.12509   1
   1  19  -6 9.05587 6.62171   1
  -1  19   6 0.90737 6.57083   1
  -1  19   6 7.83274 14.8916   3
   0 -19   6 56.1473 12.5993   1
   0  19   6 59.3760 12.5905   2
   0  19   6 37.6924 15.1397   3
   0  19   6 26.8275 8.65127   1
   1 -19   6 11.2051 9.65287   1
   1  19   6 9.08276 8.69745   2
   1  19   6 8.60348 7.21204   1
   1  19   6 27.9997 12.4471   3
   2 -19   6 13.8073 9.70954   1
   2  19   6 19.4161 11.3738   3
   2  19   6 -2.6569 6.85513   2
   2  19   6 -5.5290 5.37605   1
   3 -19   6 43.7518 12.0587   1
   3  19   6 47.1355 13.4005   3
   3  19   6 41.0894 9.76033   1
   3  19   6 30.1585 9.73944   2
   4 -19   6 64.6426 13.4340   1
   4  19   6 29.1091 8.83152   1
   4  19   6 42.8256 10.6006   2
   4  19   6 64.0770 14.9657   3
   6 -20  -6 6.13965 9.71653   1
   6  20  -6 11.3727 9.00801   1
   5 -20  -6 47.8000 12.5757   1
   5  20  -6 60.4637 12.5838   1
   4 -20  -6 -2.2615 7.23203   1
   4  20  -6 5.72786 7.11908   1
  -4  20   6 3.11348 7.08176   1
   3 -20  -6 62.0594 11.9186   1
  -3 -20   6 51.0638 12.2775   1
  -3  20   6 53.9536 11.1858   1
   3  20  -6 55.0637 11.0914   1
  -2 -20   6 30.7518 11.3316   1
   2 -20  -6 30.0408 9.61325   1
  -2  20   6 20.2829 8.70579   1
   2  20  -6 32.3645 9.12995   1
  -2  20   6 28.7203 17.4391   3
  -1 -20   6 252.231 21.0520   1
   1  20  -6 262.673 17.4727   1
  -1  20   6 216.350 20.9121   2
  -1  20   6 254.528 18.7608   1
  -1  20   6 233.625 27.1283   3
   0 -20   6 78.9106 13.4574   1
   0  20   6 88.0899 14.6052   2
   0  20   6 52.1234 15.8596   3
   0  20   6 91.6629 13.6458   1
   1 -20   6 -1.7753 8.87861   1
   1  20   6 7.57938 8.81449   2
   1  20   6 16.8399 12.9075   3
   1  20   6 -2.6901 6.16666   1
   2 -20   6 10.2587 9.92281   1
   2  20   6 13.8138 7.63602   1
   2  20   6 14.0285 11.0884   3
   2  20   6 22.3341 9.96561   2
   3 -20   6 -0.9738 8.98954   1
   3  20   6 12.0248 7.18048   1
   3  20   6 0.56054 8.60628   3
   3  20   6 0.12076 7.41822   2
   4 -20   6 79.9214 14.5006   1
   4  20   6 77.0337 13.0669   2
   4  20   6 67.2570 14.9952   3
   4  20   6 62.2141 11.2352   1
   6 -21  -6 153.781 19.4545   1
   6  21  -6 117.088 17.2244   1
   5 -21  -6 24.3819 10.4562   1
   5  21  -6 2.06062 7.44689   1
   4 -21  -6 5.15275 8.56454   1
  -4  21   6 6.90002 7.49157   1
   4  21  -6 0.41654 7.14764   1
  -3 -21   6 4.47206 9.49444   1
   3 -21  -6 19.3165 9.66561   1
  -3  21   6 3.61491 7.55323   1
   3  21  -6 22.0996 8.61738   1
   2 -21  -6 0.05703 7.04161   1
  -2 -21   6 -2.5886 9.03462   1
   2  21  -6 3.47865 6.97763   1
  -2  21   6 1.94626 7.01258   1
  -2  21   6 7.31707 16.4342   3
  -1 -21   6 168.777 18.7709   1
  -1  21   6 128.385 15.1245   1
  -1  21   6 119.218 17.2730   2
  -1  21   6 129.377 22.6338   3
   0 -21   6 13.0319 10.5014   1
   0  21   6 38.0546 15.4980   3
   0  21   6 35.8763 10.2327   1
   0  21   6 48.2743 11.9798   2
   1 -21   6 31.6266 10.6363   1
   1  21   6 8.58672 7.12932   1
   1  21   6 10.9711 12.1489   3
   1  21   6 16.5647 9.55337   2
   2 -21   6 34.5414 11.4698   1
   2  21   6 49.4822 14.7378   3
   2  21   6 60.3280 12.7491   2
   2  21   6 44.9853 10.2315   1
   3 -21   6 2.43371 9.47517   1
   3  21   6 12.2062 10.0594   3
   3  21   6 3.19290 7.11158   1
   3  21   6 1.78884 7.68780   2
   4 -21   6 -2.3199 9.62577   1
   4  21   6 5.58435 7.60367   1
   4  21   6 0.02920 7.25637   2
   4  21   6 2.42357 9.69280   3
   5 -22  -6 72.0103 13.9729   1
   5  22  -6 61.6685 12.9185   1
   4 -22  -6 49.6997 12.1291   1
  -4  22   6 59.8717 11.7662   1
   4  22  -6 33.2804 10.1353   1
   3 -22  -6 12.5579 9.23735   1
  -3 -22   6 -5.9860 9.17835   1
   3  22  -6 2.96939 6.85454   1
  -3  22   6 -6.4449 6.39087   1
  -2 -22   6 -12.184 8.10737   1
   2 -22  -6 -1.1942 7.66846   1
  -2  22   6 2.21384 16.5958   3
  -2  22   6 11.5780 7.97975   1
   2  22  -6 -7.3840 5.66585   1
  -1 -22   6 61.8290 12.9245   1
  -1  22   6 25.9627 11.6043   2
  -1  22   6 45.3909 17.7699   3
  -1  22   6 44.6230 11.0416   1
   0 -22   6 49.3499 12.8790   1
   0  22   6 34.3038 12.1719   2
   0  22   6 29.9485 14.9812   3
   0  22   6 34.3119 9.89817   1
   1 -22   6 55.2673 12.9497   1
   1  22   6 73.9102 16.7831   3
   1  22   6 75.7140 12.6510   1
   1  22   6 69.5572 13.6337   2
   2 -22   6 40.2096 12.1024   1
   2  22   6 37.4838 9.94122   1
   2  22   6 55.7178 14.7807   3
   2  22   6 52.8875 12.1745   2
   3 -22   6 9.83887 10.5696   1
   3  22   6 7.60215 8.92937   2
   3  22   6 11.9571 10.5173   3
   3  22   6 3.71930 6.21190   1
   5 -23  -6 16.5669 10.4072   1
   5  23  -6 58.6645 13.1075   1
   4 -23  -6 2.38466 8.00682   1
  -4  23   6 8.91474 7.70659   1
   4  23  -6 -0.5787 6.49793   1
   3 -23  -6 10.2473 8.73277   1
  -3 -23   6 9.57102 10.1595   1
  -3  23   6 13.7105 8.56283   1
   3  23  -6 6.77210 7.10616   1
  -2 -23   6 -7.5707 8.53946   1
  -2  23   6 9.90025 8.05116   1
  -2  23   6 17.4202 18.0677   3
   2  23  -6 12.6393 7.91917   1
  -2  23   6 18.5892 11.8891   2
  -1 -23   6 0.06087 9.32090   1
  -1  23   6 16.0779 15.2685   3
  -1  23   6 0.86814 6.81184   1
  -1  23   6 1.90314 9.80293   2
   0 -23   6 -16.597 8.06289   1
   0  23   6 2.96784 9.96208   2
   0  23   6 -8.4773 13.1262   3
   0  23   6 11.0499 7.48981   1
   1 -23   6 3.19595 9.95338   1
   1  23   6 9.03981 12.1822   3
   1  23   6 -4.3727 7.96056   2
   1  23   6 -1.9376 6.35335   1
   2 -23   6 15.2042 10.4794   1
   2  23   6 32.9763 13.1307   3
   2  23   6 20.6235 8.77260   1
   2  23   6 34.8365 11.1898   2
   3 -23   6 -1.0281 9.83819   1
   3  23   6 24.8894 10.3232   2
   3  23   6 -1.1856 6.64524   1
   3  23   6 24.4380 12.2808   3
   5 -24  -6 31.0352 11.7541   1
   5  24  -6 20.9967 9.59547   1
   4 -24  -6 12.3045 9.67806   1
   4  24  -6 -0.3581 7.03564   1
  -4  24   6 9.73343 8.64649   1
   3 -24  -6 23.9223 10.0409   1
  -3 -24   6 -14.838 7.43095   1
   3  24  -6 -4.4313 6.52979   1
  -3  24   6 -0.8415 6.74483   1
  -2 -24   6 26.5413 11.1575   1
  -2  24   6 0.57394 10.7036   2
   2  24  -6 25.0880 9.31163   1
  -2  24   6 7.58660 8.28808   1
  -2  24   6 35.7768 18.7037   3
  -1 -24   6 70.4771 13.9130   1
  -1  24   6 47.0751 17.3203   3
  -1  24   6 20.6131 11.2231   2
  -1  24   6 47.0784 11.7148   1
   0 -24   6 8.81616 10.6834   1
   0  24   6 48.4689 11.3812   1
   0  24   6 48.7684 16.3335   3
   0  24   6 46.9570 13.2389   2
   1 -24   6 62.2289 13.4124   1
   1  24   6 59.1411 14.0732   2
   1  24   6 50.7580 11.0879   1
   1  24   6 75.0602 17.2439   3
   2 -24   6 148.957 19.2691   1
   2  24   6 110.875 16.2336   2
   2  24   6 129.876 20.0798   3
   2  24   6 124.652 15.9685   1
   3 -24   6 30.5801 12.6090   1
   3  24   6 79.7393 15.5246   2
   3  24   6 53.1148 15.3199   3
   3  24   6 45.3456 10.9553   1
   5 -25  -6 26.2515 11.8892   1
   5  25  -6 -2.8848 7.56668   1
   4 -25  -6 8.07187 9.46288   1
   4  25  -6 3.40234 7.67882   1
  -3 -25   6 -8.8690 8.92033   1
   3 -25  -6 16.3642 9.61130   1
  -3  25   6 -4.0826 17.8405   3
  -3  25   6 13.2816 9.43571   1
   3  25  -6 18.8191 8.31517   1
  -2 -25   6 -4.3382 9.18382   1
  -2  25   6 30.9125 10.3851   1
  -2  25   6 44.6988 20.0074   3
  -2  25   6 47.9135 14.1349   2
   2  25  -6 10.1331 7.98164   1
  -1 -25   6 -5.5481 8.94965   1
  -1  25   6 -10.160 9.21523   2
  -1  25   6 10.2563 8.02038   1
  -1  25   6 10.8777 15.3950   3
   0 -25   6 8.16743 10.4484   1
   0  25   6 10.0172 10.5355   2
   0  25   6 0.21998 12.6117   3
   0  25   6 5.23226 7.79571   1
   1 -25   6 8.45034 10.1500   1
   1  25   6 -5.9579 8.24910   2
   1  25   6 5.90834 7.62595   1
   1  25   6 4.81593 12.7164   3
   2 -25   6 18.5319 11.8177   1
   2  25   6 31.4987 11.9058   2
   2  25   6 47.6695 15.1620   3
   2  25   6 17.1876 8.58636   1
   4 -26  -6 33.0610 11.8811   1
   4  26  -6 48.4198 12.3658   1
  -3 -26   6 16.3462 11.0627   1
   3 -26  -6 27.6781 10.8124   1
  -3  26   6 6.80327 17.6450   3
   3  26  -6 8.79520 8.33741   1
  -3  26   6 42.5289 14.6248   2
  -3  26   6 26.3695 9.33145   1
  -2 -26   6 9.66932 10.5454   1
   2  26  -6 -5.4130 6.35934   1
  -2  26   6 1.58897 7.18629   1
  -2  26   6 -10.900 9.25389   2
  -2  26   6 -9.1907 16.1759   3
  -1 -26   6 30.8310 12.5551   1
  -1  26   6 44.1168 16.5454   3
  -1  26   6 30.1025 10.2657   1
  -1  26   6 37.4176 13.4022   2
   0 -26   6 1.02521 10.5491   1
   0  26   6 3.23883 7.82506   1
   0  26   6 18.2627 14.6841   3
   0  26   6 6.51452 9.73719   2
   1 -26   6 69.3056 15.0819   1
   1  26   6 81.6377 18.2753   3
   1  26   6 114.094 17.6955   2
   1  26   6 80.9670 14.1722   1
   2 -26   6 10.1758 11.4979   1
   2  26   6 -6.3487 10.5801   3
   2  26   6 1.45504 9.70770   2
   2  26   6 6.09495 8.08835   1
   4 -27  -6 77.4171 15.0042   1
   4  27  -6 64.4653 13.6745   1
  -3  27   6 4.29337 11.5319   2
  -3  27   6 9.95637 8.03387   1
   3  27  -6 11.7923 8.39055   1
  -3  27   6 -12.711 17.2593   3
  -2 -27   6 70.6657 14.9875   1
  -2  27   6 48.4404 11.8531   1
  -2  27   6 67.4150 15.4316   2
   2  27  -6 76.9509 14.3986   1
  -2  27   6 39.1560 19.6446   3
  -1 -27   6 -14.089 9.05217   1
  -1  27   6 27.8935 16.5775   3
  -1  27   6 -3.4950 7.21191   1
  -1  27   6 11.0272 10.9608   2
   0 -27   6 81.7719 16.1678   1
   0  27   6 100.206 14.8858   1
   0  27   6 95.3560 20.2813   3
   0  27   6 89.6539 16.3068   2
   1 -27   6 116.898 17.9034   1
   1  27   6 92.4695 19.6611   3
   1  27   6 141.736 17.9766   1
   1  27   6 119.808 17.8932   2
   2 -27   6 -1.1343 11.1409   1
   2  27   6 3.79412 11.9175   3
   2  27   6 10.7102 10.0099   2
   2  27   6 6.46538 8.42113   1
  -3  28   6 36.8393 14.7820   2
   3  28  -6 81.2450 14.8291   1
  -3  28   6 58.5051 22.7353   3
  -3  28   6 84.4801 14.3777   1
  -2 -28   6 5.61827 10.4376   1
  -2  28   6 -25.549 14.3698   3
  -2  28   6 13.0668 8.62230   1
  -2  28   6 1.72030 11.1070   2
  -1 -28   6 21.7872 12.2038   1
  -1  28   6 22.9197 15.4992   3
  -1  28   6 12.4289 11.3775   2
  -1  28   6 4.73580 8.08819   1
   0 -28   6 9.90026 11.6478   1
   0  28   6 0.82814 7.44490   1
   0  28   6 15.9170 15.6709   3
   0  28   6 12.4763 10.9355   2
   1 -28   6 348.273 26.4038   1
   1  28   6 404.735 27.3445   2
   1  28   6 459.297 26.6843   1
   1  28   6 445.164 32.5364   3
  -3  29   6 11.9900 19.3865   3
  -3  29   6 -17.903 9.28454   2
  -2 -29   6 79.8793 15.9322   1
  -2  29   6 67.6485 13.8664   1
  -2  29   6 51.2460 20.0484   3
  -2  29   6 83.9796 17.8621   2
  -1 -29   6 1.31952 10.8104   1
  -1  29   6 10.7151 11.3663   2
  -1  29   6 5.60537 8.23805   1
  -1  29   6 24.7359 17.4650   3
   0 -29   6 49.0303 13.5069   1
   0  29   6 57.2852 18.7068   3
   0  29   6 41.4194 13.2117   2
   0  29   6 26.3266 9.75574   1
  -1 -30   6 -3.8183 10.9957   1
  -1  30   6 14.7709 14.9703   3
  -1  30   6 -2.4567 10.9479   2
  -1  30   6 7.28743 8.49154   1
   7   0  -7 46.1506 11.6047   1
   6   0  -7 11.6859 7.63174   1
   5   0  -7 116.272 14.6028   1
  -5   0   7 137.534 15.9229   1
  -4   0   7 2.74038 6.64280   1
   4   0  -7 -4.8340 6.08644   1
  -4   0   7 -0.2249 7.19182   1
   3   0  -7 6.67539 6.85289   1
  -3   0   7 6.11572 7.60080   1
   2   0  -7 3.35929 5.68850   1
  -2   0   7 0.79966 7.30435   1
   1   0  -7 169.927 21.7185   1
  -1   0   7 122.994 13.9388   1
   0   0   7 -1.5135 7.58504   3
   0   0   7 3.45766 6.91861   1
   1   0   7 136.645 13.2659   3
   1   0   7 124.057 13.6582   1
   2   0   7 7.53195 5.83495   3
   2   0   7 -6.2693 6.09957   1
   3   0   7 14.6932 6.35224   3
   3   0   7 12.6707 7.22830   1
   4   0   7 -3.9081 6.03460   1
   5   0   7 15.9541 7.71654   1
   7  -1  -7 13.6537 8.80747   1
   7   1  -7 9.74380 7.76983   1
   6  -1  -7 136.683 16.2694   1
   6   1  -7 172.054 17.3535   1
   5  -1  -7 57.2503 11.4405   1
  -5  -1   7 27.7587 10.0517   1
  -5  -1   7 60.4861 12.2769   1
   5   1  -7 40.4400 10.2213   1
  -5   1   7 51.3631 10.9669   1
  -4  -1   7 -4.4546 6.72719   1
   4  -1  -7 3.16303 6.98311   1
  -4  -1   7 10.3643 7.77138   1
  -4   1   7 -0.8473 6.90454   1
  -4   1   7 7.51718 7.10506   1
   4   1  -7 0.79319 6.94727   1
  -3  -1   7 77.3525 12.5587   1
   3  -1  -7 75.3158 11.5806   1
  -3   1   7 60.0117 11.2420   1
   3   1  -7 93.2001 12.1468   1
  -2  -1   7 17.4272 8.42389   1
   2  -1  -7 48.3940 9.21915   1
  -2   1   7 29.8122 9.11609   1
   2   1  -7 52.9417 9.59684   1
  -1  -1   7 112.553 14.0143   1
  -1   1   7 87.1211 12.0809   1
   1   1  -7 127.376 18.9661   1
   0  -1   7 -0.1625 7.10880   3
   0  -1   7 1.03170 6.85764   1
   0   1   7 6.28421 7.08687   1
   0   1   7 -3.4332 7.79360   3
   1  -1   7 7.25401 6.13595   3
   1  -1   7 19.1643 8.11228   1
   1   1   7 13.1930 7.76516   1
   1   1   7 6.39679 6.78224   3
   2  -1   7 13.7163 7.91370   1
   2  -1   7 17.6036 6.18117   3
   2   1   7 13.8570 6.62602   3
   2   1   7 2.83759 7.20384   1
   3  -1   7 22.0591 8.44642   1
   3   1   7 19.5461 6.81759   3
   3   1   7 15.6545 7.55742   1
   4  -1   7 174.398 15.4268   1
   4   1   7 196.569 16.3190   1
   5  -1   7 36.1040 9.04013   1
   5   1   7 32.4052 8.98784   1
   7  -2  -7 8.51706 8.69282   1
   7   2  -7 0.48445 7.34939   1
   6  -2  -7 22.7540 9.44337   1
   6   2  -7 6.40981 7.02302   1
   5  -2  -7 0.07167 6.91184   1
  -5  -2   7 2.44737 8.48729   1
  -5  -2   7 -8.3240 7.26097   1
  -5   2   7 7.68660 7.78895   1
   5   2  -7 -0.9500 6.02088   1
  -4  -2   7 12.7745 8.09279   1
   4  -2  -7 3.49491 6.76047   1
  -4   2   7 12.3597 7.84884   1
   4   2  -7 14.5812 7.70427   1
  -4   2   7 14.8999 8.31641   1
   3  -2  -7 87.9614 11.9727   1
  -3  -2   7 62.4244 11.1445   1
  -3   2   7 73.1960 11.8342   1
   3   2  -7 70.1604 10.6936   1
  -3   2   7 80.3539 12.5096   1
   2  -2  -7 3.27898 5.99427   1
  -2  -2   7 2.62201 7.57466   1
  -2   2   7 -1.3855 6.92784   1
   2   2  -7 4.59091 5.72380   1
  -1  -2   7 20.2297 8.77802   1
  -1   2   7 25.6473 8.78306   1
   1   2  -7 41.9517 11.9534   1
  -1   2   7 12.2156 12.1924   3
   0  -2   7 239.620 17.2757   1
   0  -2   7 217.024 14.9186   3
   0   2   7 231.890 16.9555   1
   0   2   7 207.608 17.8104   3
   1  -2   7 10.4959 5.95406   3
   1  -2   7 -4.5099 6.47227   1
   1   2   7 -2.1281 6.24361   1
   1   2   7 5.70064 6.86409   3
   2  -2   7 214.538 16.1717   1
   2  -2   7 213.032 14.0307   3
   2   2   7 201.101 16.7551   1
   2   2   7 194.176 14.7928   3
   3  -2   7 3.25964 7.52109   1
   3   2   7 12.4795 7.35056   1
   3   2   7 29.4554 8.02903   3
   4  -2   7 87.9249 11.8701   1
   4   2   7 95.6025 13.5087   3
   4   2   7 78.8929 11.1301   1
   5  -2   7 -7.2876 5.90282   1
   5   2   7 -1.1131 6.34964   1
   7  -3  -7 0.63120 7.32314   1
   7   3  -7 22.4502 9.02663   1
   6  -3  -7 0.42107 6.73360   1
   6   3  -7 5.23831 7.32388   1
  -5  -3   7 326.352 33.1852   1
   5  -3  -7 346.678 21.2707   1
  -5  -3   7 326.627 32.5405   1
   5   3  -7 347.910 21.3382   1
  -5   3   7 312.480 20.4394   1
  -4  -3   7 60.6106 11.4868   1
   4  -3  -7 54.0138 10.5802   1
   4   3  -7 63.0591 11.0938   1
  -4   3   7 63.4158 11.7456   1
   3  -3  -7 37.5748 9.26046   1
  -3  -3   7 34.6165 10.1130   1
   3   3  -7 31.7106 8.26746   1
  -3   3   7 8.94656 7.62577   1
  -3   3   7 28.7517 9.40749   1
   2  -3  -7 31.8794 8.08147   1
  -2  -3   7 30.2366 9.78157   1
   2   3  -7 35.2414 8.32326   1
  -2   3   7 24.8240 9.13379   1
  -1  -3   7 -2.6573 7.12552   1
  -1   3   7 2.85811 7.30917   1
  -1   3   7 -7.0998 10.8490   3
   1   3  -7 20.5138 11.0045   1
   0  -3   7 101.133 11.1935   3
   0  -3   7 83.6767 12.0873   1
   0   3   7 88.7581 13.4396   3
   0   3   7 102.689 13.3739   1
   1  -3   7 7.90221 5.08341   3
   1  -3   7 -7.6203 6.14653   1
   1   3   7 8.36606 7.25548   3
   1   3   7 -4.2756 5.96080   1
   2  -3   7 -1.7943 6.77964   1
   2   3   7 4.93006 6.70331   1
   2   3   7 19.1962 7.29496   3
   3  -3   7 59.3391 11.1188   1
   3   3   7 85.0734 11.6073   1
   3   3   7 113.001 13.6275   3
   4   3   7 29.8336 8.51365   3
   4   3   7 6.25413 6.41813   1
   7  -4  -7 81.8742 14.3686   1
   7   4  -7 89.6011 14.6310   1
   6  -4  -7 51.5925 11.5723   1
   6   4  -7 69.5430 12.9441   1
   5  -4  -7 18.2758 8.85952   1
   5   4  -7 22.7846 8.70392   1
  -5   4   7 9.57968 8.05245   1
  -4  -4   7 21.9242 9.30379   1
   4  -4  -7 27.2515 9.02912   1
   4   4  -7 27.6097 9.06956   1
  -4   4   7 8.02689 7.77570   1
  -3  -4   7 10.6120 8.72426   1
   3  -4  -7 24.9462 8.22265   1
  -3   4   7 16.2194 8.21071   1
   3   4  -7 28.7717 8.16677   1
  -3   4   7 29.9348 9.14702   1
   2  -4  -7 11.9417 6.68368   1
  -2  -4   7 9.28616 8.43667   1
  -2   4   7 -5.4454 6.91821   1
  -2   4   7 7.65331 7.32280   1
   2   4  -7 4.80288 6.08675   1
  -1  -4   7 91.3137 12.4407   1
   1   4  -7 89.4630 16.7249   1
  -1   4   7 83.1199 12.2543   1
  -1   4   7 79.9980 15.7518   3
   0  -4   7 202.441 13.4026   3
   0  -4   7 219.533 17.7343   1
   0   4   7 243.028 19.0844   3
   0   4   7 188.118 16.7036   1
   1  -4   7 0.56795 6.92484   1
   1  -4   7 16.6628 7.94705   3
   1   4   7 13.1147 8.21843   3
   1   4   7 10.4988 7.09126   1
   2  -4   7 34.6310 8.93490   1
   2   4   7 28.1904 7.49532   2
   2   4   7 10.6902 7.80110   1
   2   4   7 25.7624 8.29914   3
   3  -4   7 17.0002 8.22909   1
   3   4   7 48.0206 9.64274   3
   3   4   7 26.4671 8.38202   1
   4  -4   7 111.517 13.1687   1
   4   4   7 95.9682 14.0239   3
   4   4   7 119.627 12.6864   1
   7  -5  -7 60.3018 13.0577   1
   7   5  -7 82.9069 13.6821   1
   6  -5  -7 91.2148 14.2756   1
   6   5  -7 138.048 16.9616   1
   5  -5  -7 63.8890 12.3414   1
   5   5  -7 67.9370 11.7746   1
  -5   5   7 49.9639 11.3671   1
   4  -5  -7 63.2539 11.8437   1
  -4  -5   7 64.7069 11.8374   1
   4   5  -7 60.7570 11.6966   1
  -4   5   7 45.0983 10.3529   1
  -3  -5   7 15.8635 8.81421   1
   3  -5  -7 21.8877 8.14328   1
   3   5  -7 31.5038 8.25418   1
  -3   5   7 19.4019 8.29109   1
  -3   5   7 18.2828 8.38722   1
   2  -5  -7 21.4485 7.37299   1
  -2  -5   7 19.5929 9.45574   1
   2   5  -7 18.1355 6.78614   1
  -2   5   7 17.1333 8.18298   1
  -2   5   7 8.66438 7.16334   1
  -1  -5   7 4.33743 7.86021   1
  -1   5   7 -7.4569 6.24194   1
  -1   5   7 -11.112 11.0787   3
   0  -5   7 445.641 16.9310   3
   0  -5   7 416.260 21.3740   1
   0   5   7 379.662 22.6821   3
   0   5   7 436.315 21.4513   1
   1  -5   7 26.1624 8.86162   1
   1   5   7 24.9360 7.95953   1
   1   5   7 34.1705 9.75041   3
   2  -5   7 29.8095 9.09456   1
   2   5   7 18.3111 8.16695   1
   2   5   7 41.6081 8.21130   2
   2   5   7 45.2363 10.1113   3
   3  -5   7 39.4262 9.91775   1
   3   5   7 41.9052 9.33290   1
   3   5   7 37.1402 9.32819   3
   4  -5   7 42.8148 9.91260   1
   4   5   7 85.9519 13.3811   3
   4   5   7 36.7434 8.24914   1
   7  -6  -7 29.3090 10.5352   1
   7   6  -7 13.1979 8.59329   1
   6  -6  -7 229.628 20.8116   1
   6   6  -7 238.492 21.5687   1
   5  -6  -7 197.318 18.8010   1
   5   6  -7 153.430 16.3831   1
  -5   6   7 165.312 18.6666   1
  -4  -6   7 9.67660 8.50259   1
   4  -6  -7 13.1142 8.00184   1
  -4   6   7 -4.0164 6.61998   1
   4   6  -7 9.26475 7.05576   1
   3  -6  -7 22.9805 8.05441   1
  -3  -6   7 30.3257 10.4088   1
   3   6  -7 53.5559 10.2378   1
  -3   6   7 31.0572 9.50886   1
   2  -6  -7 48.9393 9.11080   1
  -2  -6   7 40.2820 10.6392   1
   2   6  -7 40.5677 8.74570   1
  -2   6   7 52.9928 10.4385   1
  -2   6   7 24.1692 8.93365   1
  -1  -6   7 4.05844 8.01632   1
  -1   6   7 23.0680 8.52456   1
  -1   6   7 -2.2837 11.8764   3
  -1   6   7 10.3324 7.13254   1
   0  -6   7 151.732 15.5116   1
   0   6   7 166.201 18.1010   3
   0   6   7 148.624 14.7107   1
   1  -6   7 8.01923 7.69748   1
   1   6   7 23.3452 7.85510   1
   1   6   7 7.09387 8.10474   3
   2  -6   7 329.315 19.7071   1
   2   6   7 307.666 19.9859   3
   2   6   7 332.968 16.5750   2
   2   6   7 300.401 18.2688   1
   3  -6   7 17.3627 8.28892   1
   3   6   7 20.7845 8.18763   3
   3   6   7 9.22442 7.06930   1
   4  -6   7 63.8840 11.2933   1
   4   6   7 67.8169 10.5145   1
   4   6   7 80.5486 13.5972   3
   7  -7  -7 3.16674 7.71916   1
   7   7  -7 1.31805 7.14052   1
   6  -7  -7 14.1226 8.28375   1
   6   7  -7 11.3744 8.06122   1
   5  -7  -7 2.03952 7.04560   1
  -5   7   7 -2.0007 7.95542   1
   5   7  -7 5.84766 7.23706   1
  -4  -7   7 13.8378 8.47959   1
   4  -7  -7 20.8570 8.69430   1
  -4   7   7 4.18606 7.29067   1
   4   7  -7 -0.3228 6.57991   1
   3  -7  -7 146.754 15.1621   1
  -3  -7   7 135.612 15.9602   1
   3   7  -7 168.003 15.9875   1
  -3   7   7 124.803 14.6750   1
  -2  -7   7 73.5161 12.1567   1
   2  -7  -7 85.8255 11.2199   1
   2   7  -7 89.4754 11.4832   1
  -2   7   7 61.4159 11.1005   1
  -1  -7   7 104.854 13.9052   1
  -1   7   7 118.813 13.6011   1
  -1   7   7 111.258 13.4504   1
  -1   7   7 75.5772 16.3006   3
   0  -7   7 2.97576 7.43913   1
   0   7   7 2.01995 9.43976   3
   0   7   7 14.9243 7.54402   1
   0   7   7 -2.8104 6.80659   1
   1  -7   7 61.1812 11.1892   1
   1   7   7 37.0692 9.05451   1
   1   7   7 31.6952 10.2504   3
   2  -7   7 47.6808 10.6754   1
   2   7   7 90.3620 13.4099   3
   2   7   7 72.8253 10.2869   2
   2   7   7 53.7945 10.6038   1
   3  -7   7 -6.7590 6.63169   1
   3   7   7 12.3607 7.00643   1
   3   7   7 14.9143 7.94992   3
   4  -7   7 -10.062 6.54317   1
   4   7   7 0.59743 6.01699   1
   4   7   7 5.31202 6.18567   1
   4   7   7 11.0251 7.72607   3
   7  -8  -7 17.6653 9.42398   1
   7   8  -7 20.8313 9.18234   1
   6  -8  -7 37.4675 10.5780   1
   6   8  -7 36.8728 10.6672   1
   5  -8  -7 13.9148 7.95015   1
  -5   8   7 -1.9278 10.4182   1
   5   8  -7 1.84474 6.96944   1
  -4  -8   7 144.174 16.2432   1
   4  -8  -7 145.059 16.1281   1
   4   8  -7 102.566 13.6589   1
  -4   8   7 100.203 13.4511   1
  -3  -8   7 255.504 19.2030   1
   3  -8  -7 235.383 17.0558   1
  -3   8   7 200.143 17.9426   1
   3   8  -7 265.501 17.4845   1
   2  -8  -7 132.738 13.8814   1
  -2  -8   7 143.336 15.9826   1
   2   8  -7 147.283 14.6505   1
  -2   8   7 130.056 14.5076   1
  -1  -8   7 -8.8646 7.11710   1
  -1   8   7 3.89435 6.82124   1
  -1   8   7 15.2562 8.02981   1
  -1   8   7 0.01360 12.8444   3
   0  -8   7 149.128 16.1494   1
   0   8   7 122.643 16.9250   3
   0   8   7 119.764 13.6944   1
   0   8   7 89.2139 12.2418   1
   1  -8   7 1.46467 7.33518   1
   1   8   7 3.18558 8.43803   3
   1   8   7 -2.1394 6.07550   1
   1   8   7 -6.3727 5.57596   1
   2  -8   7 64.0123 11.7875   1
   2   8   7 62.4344 12.1901   3
   2   8   7 85.3334 10.8356   2
   2   8   7 63.9018 10.4991   1
   2   8   7 66.3233 11.2305   1
   3  -8   7 43.8162 10.4225   1
   3   8   7 49.1129 9.81395   1
   3   8   7 48.0997 9.50792   1
   3   8   7 32.4733 9.81958   3
   4  -8   7 18.8704 8.72864   1
   4   8   7 17.2903 7.80851   3
   4   8   7 16.7117 6.86715   1
   4   8   7 11.0473 6.86383   1
   7  -9  -7 23.0330 10.2545   1
   7   9  -7 23.0218 9.57852   1
   6  -9  -7 5.66614 7.90740   1
   6   9  -7 6.33671 7.70987   1
   5  -9  -7 12.5700 8.65981   1
   5   9  -7 25.5864 9.29705   1
   4  -9  -7 -7.1166 6.69739   1
  -4  -9   7 3.02240 8.03649   1
   4   9  -7 -5.8442 6.00119   1
  -4   9   7 3.77953 7.20436   1
  -3  -9   7 13.6847 8.86298   1
   3  -9  -7 26.0635 8.52877   1
  -3   9   7 22.9100 9.10574   1
   3   9  -7 27.2694 8.18325   1
   2  -9  -7 512.640 22.3300   1
  -2  -9   7 492.065 24.4184   1
   2   9  -7 552.093 22.9244   1
  -2   9   7 486.491 23.6357   1
  -1  -9   7 21.0315 8.93812   1
  -1   9   7 29.1959 8.88327   1
  -1   9   7 24.3200 14.3996   3
   0  -9   7 252.893 18.5758   1
   0   9   7 277.983 23.3930   3
   0   9   7 261.781 18.2103   1
   0   9   7 198.601 17.2804   1
   1  -9   7 13.2132 8.54497   1
   1   9   7 20.7138 8.01562   1
   1   9   7 35.5507 10.9333   3
   1   9   7 21.3373 7.93241   1
   1   9   7 19.3539 8.49189   2
   2  -9   7 19.3923 9.45609   1
   2   9   7 31.8434 8.24789   2
   2   9   7 11.1814 6.82345   1
   2   9   7 40.3584 9.36730   1
   2   9   7 31.2892 10.2936   3
   3  -9   7 24.2197 9.24107   1
   3   9   7 20.1763 7.65499   1
   3   9   7 19.9655 9.35611   3
   3   9   7 29.0871 8.14176   1
   4  -9   7 11.3260 8.74976   1
   4   9   7 9.13186 7.10913   1
   4   9   7 9.48903 7.67979   3
   7 -10  -7 33.3462 11.3666   1
   7  10  -7 45.4813 11.9778   1
   6 -10  -7 20.4879 9.75237   1
   6  10  -7 10.4098 7.97036   1
   5 -10  -7 14.3934 9.03668   1
   5  10  -7 0.52540 7.14234   1
  -4 -10   7 1.96515 8.36038   1
   4 -10  -7 18.5680 8.99454   1
  -4  10   7 13.6528 8.34551   1
   4  10  -7 9.56077 7.78577   1
   3 -10  -7 16.8565 8.13952   1
  -3 -10   7 2.15473 8.46681   1
  -3  10   7 16.4235 7.95697   1
   3  10  -7 15.3152 7.16296   1
   2 -10  -7 10.9270 7.07003   1
  -2 -10   7 -7.7029 7.22356   1
  -2  10   7 6.03947 7.36283   1
   2  10  -7 7.60512 5.93245   1
  -1 -10   7 31.6462 9.75627   1
  -1  10   7 8.04996 13.9274   3
  -1  10   7 7.16160 7.11423   1
   0 -10   7 174.511 16.4477   1
   0  10   7 218.357 16.5247   1
   0  10   7 194.924 20.5758   3
   1 -10   7 1.84546 8.02117   1
   1  10   7 10.1444 7.39791   1
   1  10   7 -4.5143 6.73033   2
   1  10   7 11.5015 9.95312   3
   2 -10   7 0.82538 7.72730   1
   2  10   7 1.00204 6.21808   1
   2  10   7 -6.9247 5.54633   2
   2  10   7 8.22627 8.59159   3
   2  10   7 5.88966 6.94965   1
   3 -10   7 83.8385 13.0320   1
   3  10   7 142.496 17.6536   3
   3  10   7 108.154 12.9969   1
   4 -10   7 8.08190 8.47915   1
   4  10   7 -7.5613 5.68286   1
   4  10   7 3.76989 6.83830   3
   6 -11  -7 8.43765 8.98168   1
   6  11  -7 3.45808 7.23875   1
   5 -11  -7 31.2508 10.5004   1
   5  11  -7 50.8918 11.5915   1
   4 -11  -7 24.2135 9.46931   1
  -4 -11   7 14.3047 9.87029   1
   4  11  -7 26.8323 8.71865   1
  -4  11   7 39.1139 10.6474   1
   3 -11  -7 243.421 17.4579   1
  -3 -11   7 212.431 19.1865   1
  -3  11   7 197.748 18.0377   1
   3  11  -7 233.116 16.9564   1
   2 -11  -7 18.6636 7.23727   1
  -2 -11   7 -7.8695 7.70215   1
   2  11  -7 4.06800 6.14754   1
  -2  11   7 4.61022 7.29393   1
  -1 -11   7 1.71909 8.13762   1
  -1  11   7 0.57765 6.59723   1
  -1  11   7 -2.7532 13.0071   3
   0 -11   7 5.22305 8.00275   1
   0  11   7 8.15779 10.9509   3
   0  11   7 13.0496 7.50900   1
   1 -11   7 20.7438 9.78683   1
   1  11   7 33.8596 8.81501   1
   1  11   7 22.5085 11.1722   3
   1  11   7 26.9648 9.16341   2
   2 -11   7 12.3906 8.65270   1
   2  11   7 30.0074 10.2525   3
   2  11   7 21.4970 8.09784   1
   2  11   7 23.2887 8.23983   2
   3 -11   7 76.5418 12.5294   1
   3  11   7 57.7947 10.5827   1
   3  11   7 74.5684 13.7673   3
   4 -11   7 7.59913 8.46671   1
   4  11   7 -10.142 5.12162   1
   4  11   7 11.8095 8.38802   3
   6 -12  -7 2.27624 8.31752   1
   6  12  -7 9.29333 8.33573   1
   5 -12  -7 9.02409 9.00449   1
   5  12  -7 12.0838 8.45185   1
  -4 -12   7 224.521 20.1070   1
   4 -12  -7 260.380 19.8028   1
  -4  12   7 227.693 19.6202   1
   4  12  -7 258.946 19.3658   1
  -3 -12   7 89.2356 14.1823   1
   3 -12  -7 119.224 14.7228   1
  -3  12   7 79.9320 12.8683   1
   3  12  -7 120.039 14.3338   1
   2 -12  -7 64.7754 10.5835   1
  -2 -12   7 55.9688 12.2382   1
   2  12  -7 86.0605 11.8587   1
  -2  12   7 75.4842 12.6245   1
  -1 -12   7 8.20531 8.65342   1
  -1  12   7 -3.6440 12.3493   3
  -1  12   7 17.7313 8.36415   1
   0 -12   7 70.5723 12.9317   1
   0  12   7 50.0740 14.5105   3
   0  12   7 46.5617 10.0486   1
   1 -12   7 0.03053 8.00326   1
   1  12   7 5.43141 7.66944   2
   1  12   7 0.96597 6.18152   1
   1  12   7 14.9169 10.6211   3
   2 -12   7 32.3889 10.0388   1
   2  12   7 21.2946 7.95798   1
   2  12   7 9.79440 7.39916   2
   2  12   7 28.9074 11.1163   3
   3 -12   7 -7.4649 7.43942   1
   3  12   7 -10.065 5.54632   1
   3  12   7 13.9211 8.38770   3
   4 -12   7 85.5759 13.5232   1
   4  12   7 65.5711 13.6505   3
   4  12   7 64.0541 10.9046   1
   6 -13  -7 25.0756 10.2830   1
   6  13  -7 19.0433 9.46846   1
   5 -13  -7 61.9328 12.5202   1
   5  13  -7 44.5021 11.0468   1
  -4 -13   7 100.252 15.1656   1
   4 -13  -7 128.574 15.4303   1
   4  13  -7 119.652 15.3178   1
  -4  13   7 77.3271 13.1274   1
  -3 -13   7 152.539 16.9872   1
   3 -13  -7 143.923 15.8394   1
  -3  13   7 168.079 17.0123   1
   3  13  -7 167.199 16.7873   1
   2 -13  -7 34.0371 9.26986   1
  -2 -13   7 26.0276 10.4055   1
  -2  13   7 48.6149 10.6781   1
   2  13  -7 27.2683 8.24493   1
  -1 -13   7 2.74359 8.28943   1
  -1  13   7 0.47534 14.3146   3
  -1  13   7 23.7978 8.57141   1
   0 -13   7 86.8190 13.6023   1
   0  13   7 75.9088 15.8685   3
   0  13   7 58.9153 10.8017   1
   1 -13   7 1.36968 8.26248   1
   1  13   7 20.3922 11.0108   3
   1  13   7 7.02242 7.98745   2
   1  13   7 3.75172 6.83162   1
   2 -13   7 10.6150 8.14669   1
   2  13   7 7.99904 6.69408   1
   2  13   7 16.0475 9.74234   3
   2  13   7 5.31515 6.96216   2
   3 -13   7 17.4418 9.38940   1
   3  13   7 24.6865 13.2331   2
   3  13   7 34.2591 9.29355   1
   3  13   7 24.7916 10.7653   3
   4 -13   7 52.7872 12.4628   1
   4  13   7 73.1649 14.4564   3
   4  13   7 47.0565 9.86897   1
   6 -14  -7 62.5852 13.3779   1
   6  14  -7 21.1472 9.57536   1
   5 -14  -7 5.33976 8.15693   1
   5  14  -7 3.44544 7.68000   1
  -4 -14   7 45.3618 12.4645   1
   4 -14  -7 32.3058 10.4615   1
   4  14  -7 23.7486 9.03189   1
  -4  14   7 33.5610 10.3624   1
   3 -14  -7 117.783 14.6486   1
  -3 -14   7 115.648 15.9196   1
   3  14  -7 101.345 13.6769   1
  -3  14   7 96.1374 13.8387   1
   2 -14  -7 69.2833 17.7009   1
  -2 -14   7 59.2274 12.8127   1
   2  14  -7 77.1844 11.7812   1
  -2  14   7 69.9305 12.2889   1
  -1 -14   7 20.4298 9.82640   1
  -1  14   7 22.1863 8.56685   1
  -1  14   7 17.6580 15.9982   3
   0 -14   7 88.1406 14.4474   1
   0  14   7 99.6374 17.5066   3
   0  14   7 85.0184 13.0700   1
   1 -14   7 90.3493 13.9968   1
   1  14   7 70.9223 11.6856   1
   1  14   7 72.4432 12.7183   2
   1  14   7 67.9629 14.8063   3
   2 -14   7 28.7610 10.2556   1
   2  14   7 42.7347 12.2607   3
   2  14   7 7.28747 7.64664   2
   2  14   7 33.6421 9.23865   1
   3 -14   7 40.1621 11.1699   1
   3  14   7 53.4757 10.5605   1
   3  14   7 35.2486 11.9140   3
   3  14   7 51.7103 10.2128   2
   4 -14   7 17.6817 9.97561   1
   4  14   7 13.8966 7.77878   1
   4  14   7 26.2485 10.8331   3
   6 -15  -7 5.85070 8.35154   1
   6  15  -7 0.83930 8.09157   1
   5 -15  -7 44.8933 11.7883   1
   5  15  -7 64.8292 13.0259   1
   4 -15  -7 4.33582 8.52303   1
  -4 -15   7 -9.8055 8.70402   1
   4  15  -7 -3.7166 6.48930   1
  -4  15   7 -0.3407 6.90292   1
   3 -15  -7 203.434 18.6559   1
  -3 -15   7 182.643 19.0087   1
   3  15  -7 213.262 18.5945   1
  -3  15   7 150.684 16.6164   1
  -2 -15   7 46.0576 12.1430   1
  -2  15   7 53.3609 11.3402   1
   2  15  -7 59.1880 11.1415   1
  -1 -15   7 21.2344 10.0596   1
  -1  15   7 46.1947 10.7698   1
  -1  15   7 49.8755 17.5039   3
   0 -15   7 1.98900 8.14521   1
   0  15   7 -3.8568 6.86959   1
   0  15   7 -9.2759 8.10695   2
   0  15   7 3.85034 11.6067   3
   1 -15   7 56.9653 12.4132   1
   1  15   7 80.4852 13.4203   2
   1  15   7 77.6668 15.5996   3
   1  15   7 87.1341 12.8284   1
   2 -15   7 110.041 15.0121   1
   2  15   7 114.618 14.3028   1
   2  15   7 136.083 19.0260   3
   2  15   7 134.054 15.7378   2
   3 -15   7 15.1828 9.78822   1
   3  15   7 20.4959 8.10532   1
   3  15   7 7.81696 8.94324   3
   3  15   7 15.8919 7.95325   2
   6 -16  -7 30.2993 11.2909   1
   6  16  -7 22.8550 10.0620   1
   5 -16  -7 18.5638 9.54710   1
   5  16  -7 17.2563 8.96540   1
   4 -16  -7 373.913 23.1559   1
  -4 -16   7 358.237 23.6682   1
  -4  16   7 353.756 22.8398   1
   4  16  -7 404.637 23.8179   1
   3 -16  -7 11.3543 8.57592   1
  -3 -16   7 -1.2276 8.87318   1
   3  16  -7 -1.4956 6.42724   1
  -3  16   7 4.13578 7.50926   1
  -2 -16   7 46.6570 12.2450   1
  -2  16   7 20.2288 9.02153   1
   2  16  -7 52.8246 10.4894   1
  -2  16   7 39.1959 18.2186   3
  -1 -16   7 162.087 17.7429   1
  -1  16   7 177.589 18.7364   1
  -1  16   7 184.284 24.8459   3
   0 -16   7 29.2262 10.6488   1
   0  16   7 30.5838 11.0682   2
   0  16   7 48.9129 15.4397   3
   0  16   7 21.3963 8.98824   1
   1 -16   7 31.2237 10.5857   1
   1  16   7 36.4974 10.0455   1
   1  16   7 24.2548 9.77383   2
   1  16   7 55.3806 14.7810   3
   2 -16   7 19.1690 9.79343   1
   2  16   7 12.0574 8.22723   2
   2  16   7 14.1975 8.11227   1
   2  16   7 18.1788 10.4056   3
   3 -16   7 25.0415 10.6137   1
   3  16   7 15.4739 10.7130   3
   3  16   7 -0.4192 6.52796   1
   3  16   7 25.3166 8.79237   2
   6 -17  -7 2.84662 9.57337   1
   6  17  -7 -0.8494 7.71476   1
   5 -17  -7 7.58594 8.71166   1
   5  17  -7 9.96207 9.13652   1
   4 -17  -7 44.0364 11.3750   1
  -4 -17   7 34.1410 11.5739   1
   4  17  -7 48.4474 11.0829   1
  -4  17   7 46.1409 11.2348   1
   3 -17  -7 209.102 19.4113   1
  -3 -17   7 223.135 21.0462   1
  -3  17   7 204.179 19.4714   1
   3  17  -7 215.497 20.1541   1
  -2 -17   7 6.01692 8.92964   1
   2  17  -7 1.90893 6.85941   1
  -2  17   7 -12.046 15.2242   3
  -2  17   7 -5.2960 6.42412   1
  -1 -17   7 26.4423 10.9419   1
  -1  17   7 32.7696 10.0911   1
  -1  17   7 46.0460 17.8675   3
   0 -17   7 130.734 16.7641   1
   0  17   7 104.658 14.4938   1
   0  17   7 119.059 16.4449   2
   0  17   7 123.249 20.2385   3
   1 -17   7 19.0301 9.86483   1
   1  17   7 3.38232 10.5307   3
   1  17   7 -2.5033 8.12930   2
   1  17   7 2.64891 7.33677   1
   2 -17   7 -10.675 7.75288   1
   2  17   7 7.36964 7.68562   2
   2  17   7 6.88923 7.50636   1
   2  17   7 22.6560 11.3538   3
   3 -17   7 79.3911 14.2707   1
   3  17   7 54.9856 11.1877   1
   3  17   7 78.6798 15.6309   3
   3  17   7 72.0777 12.5462   2
   5 -18  -7 131.432 17.4187   1
   5  18  -7 109.018 16.1541   1
  -4 -18   7 195.966 22.2197   1
   4 -18  -7 218.095 21.1314   1
   4  18  -7 203.408 20.0787   1
  -4  18   7 128.582 16.3101   1
  -3 -18   7 65.9449 13.6964   1
   3 -18  -7 98.9629 14.3038   1
  -3  18   7 60.4578 11.9871   1
   3  18  -7 60.9896 12.1992   1
  -2 -18   7 200.650 20.0209   1
  -2  18   7 124.227 23.4929   3
   2  18  -7 176.316 17.9001   1
  -2  18   7 132.114 16.2786   1
  -1 -18   7 -0.3562 9.05988   1
  -1  18   7 12.1222 15.7129   3
  -1  18   7 8.03466 7.86102   1
   0 -18   7 84.6968 14.5003   1
   0  18   7 86.3382 18.2365   3
   0  18   7 77.2582 14.2295   2
   0  18   7 92.0130 14.0647   1
   1 -18   7 10.3765 9.55110   1
   1  18   7 20.0393 9.85409   2
   1  18   7 17.7479 8.38014   1
   1  18   7 32.4595 13.3333   3
   2 -18   7 11.4463 9.78173   1
   2  18   7 17.7308 10.5019   3
   2  18   7 -4.7730 6.40934   1
   2  18   7 4.40906 8.24728   2
   3 -18   7 12.4631 10.4984   1
   3  18   7 22.4820 9.01340   1
   3  18   7 30.1696 11.8744   3
   3  18   7 26.5726 9.69705   2
   5 -19  -7 20.2203 10.7655   1
   5  19  -7 22.3485 10.2443   1
   4 -19  -7 -2.8778 8.14269   1
   4  19  -7 7.82611 8.31954   1
  -4  19   7 1.15476 7.73520   1
   3 -19  -7 30.2587 10.2434   1
  -3 -19   7 12.4714 10.2575   1
  -3  19   7 27.8567 10.0114   1
   3  19  -7 20.5407 9.39885   1
  -2 -19   7 71.2368 14.4262   1
  -2  19   7 80.2840 13.5963   1
   2  19  -7 78.7653 19.6149   1
  -2  19   7 81.0764 21.0615   3
  -1 -19   7 3.93668 9.19503   1
  -1  19   7 1.62536 15.3746   3
  -1  19   7 1.22651 7.25469   1
   0 -19   7 -3.1632 9.13155   1
   0  19   7 -0.4426 7.23492   1
   0  19   7 -0.5244 12.5335   3
   0  19   7 -11.048 7.95454   2
   1 -19   7 24.9452 10.4786   1
   1  19   7 -6.1085 6.76916   1
   1  19   7 5.22536 11.2282   3
   1  19   7 3.82185 8.02639   2
   2 -19   7 94.8655 15.6640   1
   2  19   7 85.1487 13.3967   1
   2  19   7 97.0968 17.5673   3
   2  19   7 87.0543 14.1890   2
   3 -19   7 38.2885 12.4592   1
   3  19   7 49.8740 11.0732   1
   3  19   7 33.4674 10.5913   2
   3  19   7 48.5908 13.7558   3
   5 -20  -7 -3.1107 9.26938   1
   5  20  -7 -6.9603 7.09156   1
   4 -20  -7 0.63152 8.26682   1
   4  20  -7 5.90960 8.17832   1
  -4  20   7 -0.8073 7.58122   1
   3 -20  -7 12.4088 10.6342   1
  -3 -20   7 19.0749 10.8795   1
   3  20  -7 20.7410 9.50420   1
  -3  20   7 11.6720 8.38826   1
  -2 -20   7 76.6737 14.5490   1
  -2  20   7 87.3058 14.0761   1
  -2  20   7 88.8116 22.3698   3
  -1 -20   7 -3.2548 9.20238   1
  -1  20   7 12.4213 10.8189   2
  -1  20   7 5.11748 7.59834   1
  -1  20   7 13.2497 14.7267   3
   0 -20   7 68.1770 14.0537   1
   0  20   7 64.8805 12.5072   1
   0  20   7 77.3412 17.7926   3
   0  20   7 48.1654 12.9679   2
   1 -20   7 -1.2979 8.69675   1
   1  20   7 8.72141 7.99020   1
   1  20   7 8.73002 8.73042   2
   1  20   7 11.8787 11.0142   3
   2 -20   7 42.6492 12.7362   1
   2  20   7 76.3026 16.2776   3
   2  20   7 57.9484 11.7725   1
   2  20   7 49.9200 12.3187   2
   5 -21  -7 22.5124 11.1353   1
   5  21  -7 39.8870 12.0975   1
   4 -21  -7 101.421 15.7582   1
  -4  21   7 60.8973 12.8570   1
   4  21  -7 53.2975 12.5388   1
  -3 -21   7 19.4107 10.5623   1
   3  21  -7 17.3393 8.63203   1
  -3  21   7 3.30308 7.89657   1
  -2 -21   7 9.55699 10.0419   1
  -2  21   7 -19.096 15.0306   3
  -2  21   7 13.5611 9.17060   1
  -1 -21   7 104.889 16.3950   1
  -1  21   7 100.566 16.9211   2
  -1  21   7 96.3967 21.1256   3
  -1  21   7 84.0552 13.8672   1
   0 -21   7 110.800 15.7724   1
   0  21   7 56.1713 17.2886   3
   0  21   7 65.9284 14.2093   2
   0  21   7 63.9423 12.2359   1
   1 -21   7 10.9187 10.3518   1
   1  21   7 6.13616 7.50799   1
   1  21   7 19.4025 12.8828   3
   1  21   7 19.5131 9.58591   2
   2 -21   7 136.192 17.6443   1
   2  21   7 181.381 19.7312   2
   2  21   7 178.228 23.4317   3
   2  21   7 130.409 15.7975   1
   4 -22  -7 77.3267 14.6347   1
  -4  22   7 76.6684 14.0662   1
   4  22  -7 87.6873 14.7797   1
  -3 -22   7 38.4863 12.4507   1
  -3  22   7 48.9299 11.9869   1
   3  22  -7 44.5223 11.2935   1
  -2 -22   7 69.4003 14.5299   1
  -2  22   7 42.3104 11.2902   1
  -2  22   7 6.28785 17.1553   3
  -1 -22   7 93.8278 16.1213   1
  -1  22   7 84.8075 14.3785   1
  -1  22   7 65.0558 14.2878   2
  -1  22   7 55.5491 18.9718   3
   0 -22   7 19.9036 11.5084   1
   0  22   7 3.45243 9.79277   2
   0  22   7 11.7706 8.08871   1
   0  22   7 10.1087 12.7193   3
   1 -22   7 12.6557 10.9501   1
   1  22   7 2.60450 8.97879   2
   1  22   7 28.1753 13.6845   3
   1  22   7 13.2309 8.54729   1
   2 -22   7 -10.711 9.11429   1
   2  22   7 11.3572 10.0992   2
   2  22   7 9.13042 8.45810   1
   2  22   7 12.3502 10.9214   3
   4 -23  -7 8.86429 9.28863   1
   4  23  -7 7.72559 8.80970   1
  -4  23   7 -11.928 7.17810   1
  -3 -23   7 23.5792 11.9787   1
  -3  23   7 49.5728 11.7441   1
  -3  23   7 -5.2181 19.1273   3
   3  23  -7 45.6811 11.6040   1
  -2 -23   7 9.76171 10.3312   1
  -2  23   7 13.2228 11.7053   2
  -2  23   7 -16.054 17.7398   3
  -2  23   7 -0.2263 7.74309   1
  -1 -23   7 15.9049 11.0258   1
  -1  23   7 25.2084 12.2918   2
  -1  23   7 25.2033 16.2737   3
  -1  23   7 25.1956 10.0727   1
   0 -23   7 4.79073 10.8362   1
   0  23   7 3.47391 10.2236   2
   0  23   7 16.2425 9.07699   1
   0  23   7 19.2392 14.2769   3
   1 -23   7 21.6882 11.8626   1
   1  23   7 35.5237 10.7205   1
   1  23   7 20.0832 11.0520   2
   1  23   7 39.5540 14.9811   3
  -3 -24   7 1.08134 10.3067   1
  -3  24   7 4.74077 8.94348   1
  -3  24   7 -11.474 18.1004   3
   3  24  -7 -2.5782 6.79270   1
  -2 -24   7 -4.7838 9.91910   1
  -2  24   7 -7.1452 16.8706   3
  -2  24   7 4.47580 11.3005   2
  -2  24   7 -5.7645 6.70087   1
  -1 -24   7 100.798 16.7264   1
  -1  24   7 118.835 18.5730   2
  -1  24   7 121.806 22.9630   3
  -1  24   7 95.4101 14.9106   1
   0 -24   7 50.0910 13.7886   1
   0  24   7 46.7091 12.2308   1
   0  24   7 59.4613 14.3539   2
   0  24   7 81.5770 19.0644   3
   1 -24   7 14.5707 11.2417   1
   1  24   7 32.6503 12.2981   2
   1  24   7 15.8374 13.3304   3
   1  24   7 19.2237 9.70372   1
  -3 -25   7 147.052 19.7785   1
  -3  25   7 90.4790 25.1322   3
  -3  25   7 106.974 16.9940   1
   3  25  -7 133.096 18.7379   1
  -2 -25   7 22.2751 12.6612   1
  -2  25   7 27.2831 13.3484   2
  -2  25   7 16.1283 9.54443   1
  -2  25   7 23.6565 19.2811   3
  -1 -25   7 12.7472 11.4161   1
  -1  25   7 23.3866 16.2244   3
  -1  25   7 18.7293 9.69676   1
  -1  25   7 31.9996 12.8700   2
   0 -25   7 16.5959 11.6039   1
   0  25   7 16.2954 9.44046   1
   0  25   7 39.7555 17.5328   3
   0  25   7 13.2503 10.6329   2
  -2 -26   7 15.7006 11.8031   1
  -2  26   7 11.6199 18.8766   3
  -2  26   7 14.4259 12.1393   2
  -2  26   7 -2.4121 8.09232   1
  -1 -26   7 26.0535 12.1120   1
  -1  26   7 30.9949 11.0917   1
  -1  26   7 28.0304 16.9163   3
  -1  26   7 3.01203 11.6170   2
   6   0  -8 45.2982 11.9310   1
   5   0  -8 3.93897 7.75616   1
  -4   0   8 1.80520 8.23793   1
   4   0  -8 0.72084 7.24234   1
  -4   0   8 8.88196 8.56975   1
  -3   0   8 11.1150 8.10947   1
   3   0  -8 10.7328 7.22459   1
  -2   0   8 190.938 17.8070   1
  -1   0   8 -2.7120 10.9150   3
  -1   0   8 -0.0387 7.27792   1
   0   0   8 12.6667 8.19415   1
   0   0   8 23.0033 8.58093   3
   1   0   8 -0.3570 7.57857   1
   2   0   8 12.9943 8.52922   1
   3   0   8 1.59570 7.28468   1
   6  -1  -8 41.2394 11.5817   1
   6   1  -8 33.8972 10.5870   1
   5  -1  -8 111.867 15.5235   1
   5   1  -8 55.1115 11.9156   1
   4  -1  -8 65.1939 12.0391   1
  -4  -1   8 53.9262 11.7593   1
  -4  -1   8 68.3569 13.2535   1
  -4   1   8 66.0797 11.9625   1
  -4   1   8 40.5801 10.9460   1
   4   1  -8 70.3472 13.3473   1
   3  -1  -8 -1.0415 6.23657   1
  -3  -1   8 10.7662 8.40695   1
  -3   1   8 -8.7885 6.40125   1
   3   1  -8 6.72623 6.59006   1
  -3   1   8 12.9731 8.54893   1
  -2  -1   8 7.19591 8.32751   1
  -2   1   8 16.8829 8.69785   1
  -1  -1   8 0.69369 10.5387   3
  -1  -1   8 0.61169 7.71410   1
  -1   1   8 13.3715 8.50522   1
  -1   1   8 -25.598 9.35746   3
   0  -1   8 106.336 12.9640   3
   0  -1   8 75.9069 12.9268   1
   0   1   8 97.0976 13.1756   3
   0   1   8 79.8569 12.6431   1
   1  -1   8 102.533 14.1669   1
   1   1   8 109.955 14.1320   1
   1   1   8 128.961 13.2878   3
   2  -1   8 28.2949 9.71065   1
   2   1   8 40.9620 10.6057   1
   3  -1   8 46.7561 10.7665   1
   3   1   8 68.2495 12.2855   1
   6  -2  -8 10.9031 8.77409   1
   6   2  -8 11.5766 8.15843   1
   5  -2  -8 36.2774 10.6133   1
   5   2  -8 21.8598 9.27083   1
  -4  -2   8 192.608 18.9003   1
  -4  -2   8 191.805 18.4834   1
   4  -2  -8 197.287 18.3963   1
  -4   2   8 198.328 19.2268   1
   4   2  -8 197.298 18.9632   1
  -4   2   8 175.574 18.8370   1
   3  -2  -8 9.42209 7.16172   1
  -3  -2   8 20.2127 8.96894   1
   3   2  -8 14.8401 7.59422   1
  -3   2   8 5.58940 7.68937   1
  -3   2   8 -11.734 6.26734   1
  -2  -2   8 3.74208 8.07071   1
  -2   2   8 5.52590 7.74852   1
  -1  -2   8 5.53233 7.87794   1
  -1  -2   8 -11.956 9.29773   3
  -1   2   8 1.59592 7.36652   1
  -1   2   8 -9.8277 10.5269   3
   0  -2   8 30.3170 10.3517   1
   0   2   8 23.6258 9.33520   3
   0   2   8 23.0622 8.81561   1
   1  -2   8 763.058 30.1811   1
   1   2   8 703.519 28.7855   1
   1   2   8 706.930 26.7992   3
   2  -2   8 12.7180 8.43855   1
   2   2   8 6.87336 7.66019   1
   3  -2   8 -3.4548 7.32658   1
   3   2   8 -0.8637 6.93843   1
   6  -3  -8 31.3448 10.4055   1
   6   3  -8 44.7833 11.3071   1
   5  -3  -8 48.6749 11.7462   1
   5   3  -8 42.5771 10.7981   1
   4  -3  -8 6.17529 7.61390   1
  -4  -3   8 7.11528 8.10348   1
   4   3  -8 6.92742 7.92651   1
  -4   3   8 -8.5258 6.90549   1
  -3  -3   8 71.2485 12.6672   1
   3  -3  -8 100.293 13.1948   1
   3   3  -8 134.107 14.5420   1
  -3   3   8 95.4883 13.7911   1
  -3   3   8 81.3314 13.4632   1
  -2  -3   8 40.6948 11.1382   1
  -2   3   8 56.7569 11.2976   1
  -2   3   8 56.6537 11.5187   1
  -1  -3   8 -0.7801 7.97325   1
  -1  -3   8 -4.8415 9.91916   3
  -1   3   8 4.34950 7.82947   1
  -1   3   8 -7.0868 11.6225   3
   0  -3   8 3.89086 8.18451   1
   0   3   8 8.48770 8.68083   3
   0   3   8 -1.0691 6.58152   1
   1  -3   8 3.81495 8.42122   1
   1   3   8 16.5140 7.86717   3
   1   3   8 18.8937 8.84086   1
   2  -3   8 -3.3381 7.64449   1
   2   3   8 24.2518 7.62659   3
   2   3   8 21.0670 8.93340   1
   3  -3   8 0.61498 7.52507   1
   3   3   8 1.54951 7.38595   1
   6  -4  -8 9.72566 9.25492   1
   6   4  -8 10.0492 8.07181   1
   5  -4  -8 22.1394 9.40533   1
   5   4  -8 3.55506 7.49068   1
  -4  -4   8 50.6329 11.3042   1
   4  -4  -8 44.6960 10.7294   1
  -4   4   8 36.7268 10.5487   1
   4   4  -8 31.9264 9.85993   1
   3  -4  -8 65.0148 10.9838   1
  -3  -4   8 50.1145 11.5972   1
  -3   4   8 48.0799 11.4559   1
   3   4  -8 57.8511 10.8499   1
  -3   4   8 43.1153 11.2527   1
  -2  -4   8 56.3705 11.6999   1
  -2   4   8 52.6341 11.3544   1
  -2   4   8 36.1258 10.2833   1
  -1  -4   8 30.8965 11.1940   1
  -1  -4   8 27.7169 14.9470   3
  -1   4   8 40.3201 14.9160   3
  -1   4   8 29.1125 9.49041   1
   0  -4   8 -1.7194 7.27980   1
   0   4   8 -2.0135 8.07657   3
   0   4   8 2.66093 7.36613   1
   1  -4   8 216.343 19.3751   1
   1   4   8 235.163 17.7837   3
   1   4   8 231.926 19.7958   1
   2  -4   8 -1.2756 7.95466   1
   2   4   8 5.35731 7.33086   1
   2   4   8 12.1393 6.82373   3
   3  -4   8 11.3863 8.58168   1
   3   4   8 26.1634 8.91570   1
   6  -5  -8 14.5770 9.28524   1
   6   5  -8 9.93593 7.87656   1
   5  -5  -8 3.34796 7.65758   1
   5   5  -8 8.07684 7.51252   1
   4  -5  -8 108.379 14.4892   1
  -4  -5   8 109.795 15.2764   1
   4   5  -8 112.004 14.6174   1
  -4   5   8 84.2569 13.6095   1
  -3  -5   8 48.0028 11.9458   1
   3  -5  -8 74.6266 11.8638   1
  -3   5   8 38.3413 11.0586   1
   3   5  -8 53.4722 10.5861   1
  -2  -5   8 7.96143 8.82997   1
  -2   5   8 14.6877 8.53911   1
  -2   5   8 13.8409 8.49334   1
  -1  -5   8 -3.5992 8.11335   1
  -1   5   8 8.18936 7.83458   1
  -1   5   8 -2.1945 12.3505   3
  -1   5   8 3.29508 7.01854   1
   0  -5   8 -1.0750 7.79930   1
   0   5   8 2.25506 7.12504   1
   0   5   8 23.0104 10.4673   3
   1  -5   8 11.4822 9.12622   1
   1   5   8 26.8214 9.01856   3
   1   5   8 19.9071 8.71985   1
   2  -5   8 13.9190 8.74393   1
   2   5   8 19.3518 7.56578   3
   2   5   8 -1.9749 6.81254   1
   3  -5   8 31.2145 10.1112   1
   3   5   8 41.8601 9.91405   3
   3   5   8 33.1237 9.08669   1
   6  -6  -8 58.7066 12.8196   1
   6   6  -8 30.4520 10.4508   1
   5  -6  -8 311.090 22.0138   1
   5   6  -8 307.648 21.6753   1
   4  -6  -8 40.7655 10.3667   1
  -4  -6   8 34.8991 10.7328   1
   4   6  -8 37.3242 10.0479   1
  -4   6   8 17.0937 9.36134   1
   3  -6  -8 45.4193 9.97452   1
  -3  -6   8 39.1476 11.6368   1
   3   6  -8 51.2402 10.3757   1
  -3   6   8 43.3379 11.0431   1
  -2  -6   8 11.2982 9.52002   1
  -2   6   8 19.1899 9.07608   1
  -2   6   8 9.18363 8.13849   1
  -1  -6   8 5.34870 8.80464   1
  -1   6   8 27.3092 9.18420   1
  -1   6   8 20.6593 8.84034   1
  -1   6   8 11.9014 13.7290   3
   0  -6   8 1.19954 8.09183   1
   0   6   8 14.1454 10.2279   3
   0   6   8 6.55790 7.78269   1
   0   6   8 9.42665 7.63229   1
   1  -6   8 -10.166 7.27833   1
   1   6   8 12.8377 8.30631   3
   1   6   8 2.34033 6.98190   1
   2  -6   8 28.2327 10.4209   1
   2   6   8 29.4399 9.57810   3
   2   6   8 34.1180 9.62908   1
   3  -6   8 -0.5668 7.99802   1
   3   6   8 10.8568 7.35904   3
   3   6   8 0.94409 6.57375   1
   6  -7  -8 7.90758 8.47711   1
   6   7  -8 0.85690 7.42122   1
   5  -7  -8 176.777 18.8268   1
   5   7  -8 129.812 16.5041   1
   4  -7  -8 53.1359 11.6393   1
  -4  -7   8 45.3426 11.7364   1
  -4   7   8 45.0559 11.5746   1
   4   7  -8 64.2242 11.8548   1
   3  -7  -8 132.795 15.6137   1
  -3  -7   8 136.686 17.3060   1
   3   7  -8 141.520 15.3521   1
  -3   7   8 120.869 15.8357   1
  -2  -7   8 -1.5651 8.46291   1
  -2   7   8 -4.4989 7.16661   1
  -1  -7   8 33.1967 10.7899   1
  -1   7   8 46.2166 15.8915   3
  -1   7   8 21.6532 8.97939   1
  -1   7   8 31.4281 9.93784   1
   0  -7   8 -5.5505 7.76705   1
   0   7   8 -8.0433 9.34427   3
   0   7   8 -1.8399 6.88844   1
   0   7   8 7.69980 7.83154   1
   1  -7   8 19.9976 9.47671   1
   1   7   8 18.5389 8.55423   1
   1   7   8 24.5057 9.26545   3
   1   7   8 15.6303 8.10807   1
   2  -7   8 -9.9997 7.33269   1
   2   7   8 1.45908 6.55296   1
   2   7   8 20.0087 8.56711   3
   2   7   8 3.43302 6.67176   1
   3  -7   8 22.9776 10.3940   1
   3   7   8 9.39127 7.50028   1
   3   7   8 21.9366 8.45488   3
   3   7   8 26.9529 8.84429   1
   6  -8  -8 30.8231 10.9093   1
   6   8  -8 28.7814 10.9852   1
   5  -8  -8 171.301 18.7743   1
   5   8  -8 216.444 20.6702   1
  -4  -8   8 26.2953 11.1622   1
   4  -8  -8 53.0890 11.3518   1
   4   8  -8 60.9995 11.6339   1
  -4   8   8 53.2231 12.2741   1
   3  -8  -8 2.26601 7.28808   1
  -3  -8   8 3.11421 9.02445   1
  -3   8   8 5.43390 8.07923   1
   3   8  -8 16.0347 7.59084   1
  -2  -8   8 22.5744 10.2598   1
  -2   8   8 20.1436 9.38880   1
  -1  -8   8 2.72658 8.55174   1
  -1   8   8 -1.2233 12.6038   3
  -1   8   8 -1.7333 7.03807   1
  -1   8   8 10.1318 8.13953   1
   0  -8   8 -4.8520 8.32607   1
   0   8   8 11.4170 8.07268   1
   0   8   8 20.8701 10.9532   3
   0   8   8 8.41676 7.76505   1
   1  -8   8 136.383 16.5923   1
   1   8   8 155.362 17.7635   3
   1   8   8 128.880 15.3354   1
   1   8   8 121.524 14.8810   2
   1   8   8 126.617 15.4565   1
   2  -8   8 2.46689 8.14198   1
   2   8   8 5.30401 7.22059   1
   2   8   8 18.0538 8.67758   3
   2   8   8 2.36086 6.85187   1
   3  -8   8 25.4825 10.5535   1
   3   8   8 14.0438 8.37845   1
   3   8   8 39.5089 10.2210   1
   3   8   8 31.4285 9.39686   3
   6  -9  -8 60.4564 13.1866   1
   6   9  -8 26.0885 10.3019   1
   5  -9  -8 31.6883 10.5943   1
   5   9  -8 44.8191 11.4735   1
  -4  -9   8 82.1295 14.9626   1
   4  -9  -8 87.0418 13.8975   1
   4   9  -8 79.1581 13.2281   1
  -4   9   8 71.9375 13.4830   1
   3  -9  -8 -2.5964 7.38901   1
  -3  -9   8 -10.475 7.14596   1
   3   9  -8 1.30677 6.78225   1
  -3   9   8 1.15721 7.83735   1
  -2  -9   8 4.69837 8.98812   1
  -2   9   8 22.8038 9.47297   1
  -1  -9   8 4.34250 8.76573   1
  -1   9   8 6.29067 7.26895   1
  -1   9   8 16.0825 13.9065   3
   0  -9   8 5.21528 8.99639   1
   0   9   8 5.18866 10.2825   3
   0   9   8 4.39446 7.73201   1
   0   9   8 -2.5889 7.07753   1
   1  -9   8 -3.0612 7.98482   1
   1   9   8 -14.202 5.29876   1
   1   9   8 7.70003 8.17955   1
   1   9   8 -5.4393 6.88788   2
   1   9   8 19.0404 9.29831   3
   2  -9   8 -4.2976 7.68681   1
   2   9   8 -0.9645 6.46982   1
   2   9   8 2.62747 7.54470   1
   2   9   8 4.44238 7.30682   3
   3  -9   8 -2.7628 8.33267   1
   3   9   8 -2.2298 7.28518   1
   3   9   8 3.22366 7.30372   3
   3   9   8 1.09805 7.41586   1
   5 -10  -8 11.5192 8.92195   1
   5  10  -8 -0.2152 7.91155   1
  -4 -10   8 10.0554 9.89325   1
   4 -10  -8 28.1734 9.97277   1
  -4  10   8 29.7219 10.1791   1
   4  10  -8 35.5817 10.4239   1
  -3 -10   8 23.0893 11.1732   1
  -3  10   8 35.9143 10.3050   1
   3  10  -8 29.1540 9.41421   1
  -2 -10   8 13.2019 9.57221   1
  -2  10   8 35.0534 10.6687   1
  -1 -10   8 291.777 21.8427   1
  -1  10   8 276.233 27.1941   3
  -1  10   8 309.340 20.8549   1
   0 -10   8 53.9430 12.5026   1
   0  10   8 37.3675 10.1449   1
   0  10   8 47.0732 13.6697   3
   1 -10   8 5.96727 9.04930   1
   1  10   8 9.43510 8.27088   2
   1  10   8 8.71138 8.88220   3
   1  10   8 8.35732 7.79567   1
   2 -10   8 50.1246 12.3274   1
   2  10   8 67.1755 12.1698   1
   2  10   8 75.5603 13.6816   3
   3 -10   8 13.3025 10.0353   1
   3  10   8 35.3317 10.9504   3
   3  10   8 22.9788 9.31767   1
   5 -11  -8 37.3387 11.5295   1
   5  11  -8 20.5729 9.92386   1
  -4 -11   8 7.73688 9.65789   1
   4 -11  -8 20.3666 9.57252   1
   4  11  -8 4.06782 7.54757   1
  -4  11   8 11.5924 8.73747   1
  -3 -11   8 14.2639 10.3115   1
   3  11  -8 30.6889 9.29795   1
  -3  11   8 25.7307 10.1204   1
  -2 -11   8 87.4294 15.0919   1
  -2  11   8 73.9850 20.5258   3
  -2  11   8 115.451 15.7596   1
  -1 -11   8 12.4341 10.1354   1
  -1  11   8 -3.9878 6.71338   1
  -1  11   8 -3.0231 13.6380   3
   0 -11   8 36.6731 11.4222   1
   0  11   8 45.7488 10.7251   1
   0  11   8 38.1053 13.0687   3
   1 -11   8 -6.2549 8.14478   1
   1  11   8 7.52743 7.58366   1
   1  11   8 30.4675 10.8353   3
   1  11   8 5.53357 8.26710   2
   2 -11   8 -4.6578 8.56912   1
   2  11   8 10.9416 8.79164   3
   2  11   8 -0.8238 7.48110   1
   5 -12  -8 94.3413 15.4540   1
   5  12  -8 68.6238 14.0340   1
   4 -12  -8 120.922 15.9088   1
  -4 -12   8 65.0967 13.6312   1
  -4  12   8 35.8295 10.5879   1
   4  12  -8 99.0137 14.8525   1
  -3 -12   8 -10.370 7.89323   1
   3  12  -8 5.38228 7.30485   1
  -3  12   8 6.60815 8.18722   1
  -2 -12   8 55.5007 13.0403   1
  -2  12   8 44.0937 10.7493   1
  -2  12   8 20.7221 18.3985   3
  -1 -12   8 317.558 23.1433   1
  -1  12   8 321.782 21.7299   1
  -1  12   8 308.727 29.4429   3
   0 -12   8 29.4376 11.3062   1
   0  12   8 58.1535 11.8679   1
   0  12   8 31.0670 13.7378   3
   1 -12   8 15.4339 9.94089   1
   1  12   8 33.0757 9.66171   1
   1  12   8 55.7777 13.2083   3
   1  12   8 28.8230 10.0078   2
   2 -12   8 23.7153 11.1807   1
   2  12   8 5.22975 7.32291   1
   2  12   8 31.5101 10.8809   3
   5 -13  -8 36.5648 11.4069   1
   5  13  -8 36.2304 11.1712   1
  -4 -13   8 83.5653 16.1063   1
   4 -13  -8 86.1496 13.9992   1
   4  13  -8 90.5176 13.8487   1
  -4  13   8 92.2177 14.7387   1
  -3 -13   8 32.0241 11.4082   1
   3  13  -8 71.1597 13.0225   1
  -3  13   8 59.7847 12.8213   1
  -2 -13   8 -4.2778 8.67799   1
  -2  13   8 -9.2795 15.1594   3
  -2  13   8 9.38146 8.33680   1
  -1 -13   8 191.292 20.6590   1
  -1  13   8 197.690 25.1853   3
  -1  13   8 183.061 18.7638   1
   0 -13   8 3.57195 9.14203   1
   0  13   8 17.2750 11.9324   3
   0  13   8 23.0729 9.20720   1
   1 -13   8 0.29006 8.93988   1
   1  13   8 1.40975 7.05666   1
   1  13   8 2.26697 7.84282   2
   1  13   8 15.4191 9.84123   3
   2 -13   8 9.96272 10.3330   1
   2  13   8 23.9063 9.31236   1
   2  13   8 28.2686 11.2037   3
   2  13   8 29.7107 10.0903   2
   5 -14  -8 0.24707 8.68754   1
   5  14  -8 5.47209 8.16218   1
  -4 -14   8 63.2631 14.4745   1
   4 -14  -8 69.4436 13.1583   1
   4  14  -8 82.3323 13.9808   1
  -4  14   8 68.8658 12.8873   1
  -3 -14   8 12.4387 10.3873   1
  -3  14   8 0.06129 7.63886   1
   3  14  -8 1.95312 7.64130   1
  -2 -14   8 50.9311 13.6648   1
  -2  14   8 57.5035 12.4488   1
  -2  14   8 28.6913 18.1441   3
  -1 -14   8 101.034 15.8557   1
  -1  14   8 110.596 15.3483   1
  -1  14   8 82.1645 20.0680   3
   0 -14   8 59.0255 13.1357   1
   0  14   8 36.8812 10.6731   1
   0  14   8 32.7338 12.0411   2
   0  14   8 53.4110 15.3149   3
   1 -14   8 -2.1930 8.07951   1
   1  14   8 -6.6125 7.18007   2
   1  14   8 4.48653 7.09469   1
   1  14   8 16.6127 10.6012   3
   2 -14   8 77.3569 14.8644   1
   2  14   8 117.196 15.9699   1
   2  14   8 74.9997 12.9279   2
   2  14   8 93.4520 16.7075   3
   5 -15  -8 43.7746 12.3947   1
   5  15  -8 19.8451 10.2896   1
  -4 -15   8 -9.3811 8.78190   1
   4 -15  -8 12.4195 9.06826   1
  -4  15   8 4.38529 7.87051   1
   4  15  -8 1.71953 7.07789   1
  -3 -15   8 2.55279 10.6016   1
  -3  15   8 3.07555 8.40890   1
  -2 -15   8 62.5605 13.9022   1
  -2  15   8 51.8059 20.2977   3
  -2  15   8 47.2656 11.6462   1
  -1 -15   8 68.1876 13.7688   1
  -1  15   8 91.6847 14.6111   1
  -1  15   8 103.716 20.5542   3
   0 -15   8 38.1308 12.3882   1
   0  15   8 61.3860 16.1003   3
   0  15   8 45.3912 12.3411   2
   0  15   8 46.5230 11.4014   1
   1 -15   8 30.1889 11.5354   1
   1  15   8 16.2638 9.40008   1
   1  15   8 60.4632 13.1862   2
   1  15   8 54.5861 13.8539   3
   2 -15   8 24.3886 11.3630   1
   2  15   8 15.7142 9.07256   1
   2  15   8 18.6150 8.71055   2
   2  15   8 24.3080 11.0561   3
   4 -16  -8 -7.7102 7.57396   1
  -4 -16   8 -3.8283 9.57258   1
  -4  16   8 -4.1098 7.56380   1
   4  16  -8 6.26928 8.01033   1
  -3 -16   8 7.12323 10.7982   1
  -3  16   8 9.61941 8.75968   1
  -2 -16   8 7.97071 10.1598   1
  -2  16   8 -4.1389 16.2359   3
  -2  16   8 1.09261 7.42936   1
  -1 -16   8 351.097 25.2330   1
  -1  16   8 362.863 23.7991   1
  -1  16   8 312.716 30.1065   3
   0 -16   8 14.6362 10.7128   1
   0  16   8 14.5722 9.18663   1
   0  16   8 31.1909 14.0595   3
   0  16   8 8.84529 10.0571   2
   1 -16   8 13.9730 10.5929   1
   1  16   8 3.23163 10.0877   3
   1  16   8 6.90257 8.67850   2
   1  16   8 -8.9295 6.66668   1
   2 -16   8 12.6354 10.5042   1
   2  16   8 15.7579 9.01626   2
   2  16   8 9.35734 10.0535   3
   2  16   8 14.8312 9.40698   1
  -4 -17   8 18.0042 16.4235   1
  -4  17   8 31.3457 10.7549   1
   4  17  -8 57.3405 12.6079   1
  -3 -17   8 -1.6148 9.64219   1
  -3  17   8 -7.3523 6.88412   1
  -2 -17   8 10.9869 10.2527   1
  -2  17   8 5.63267 8.36859   1
  -2  17   8 -12.099 16.3275   3
  -1 -17   8 60.7106 14.1769   1
  -1  17   8 63.4708 18.9657   3
  -1  17   8 39.6365 11.7580   1
   0 -17   8 -7.6987 8.52519   1
   0  17   8 25.4107 13.4211   3
   0  17   8 8.92480 8.51948   1
   0  17   8 4.89520 9.20617   2
   1 -17   8 -10.057 8.89356   1
   1  17   8 2.42132 8.76217   2
   1  17   8 3.67029 8.14789   1
   1  17   8 18.6542 12.3060   3
   4  18  -8 49.4167 12.4927   1
  -4  18   8 15.9342 9.47414   1
  -3 -18   8 -6.3463 9.69352   1
  -3  18   8 -12.604 6.76594   1
  -2 -18   8 25.7818 12.0065   1
  -2  18   8 16.4003 18.3791   3
  -2  18   8 31.1381 10.8924   1
  -1 -18   8 276.835 24.6791   1
  -1  18   8 221.627 21.6075   1
  -1  18   8 336.894 32.2561   3
   0 -18   8 3.11535 9.70431   1
   0  18   8 48.3789 15.5343   3
   0  18   8 12.2756 10.6247   2
   0  18   8 -2.7077 7.57893   1
   1 -18   8 8.95978 10.7301   1
   1  18   8 13.3718 9.89528   2
   1  18   8 30.9946 10.7908   1
   1  18   8 31.0033 12.6914   3
  -3 -19   8 -1.6404 10.0515   1
  -3  19   8 6.52890 8.34810   1
  -3  19   8 6.35724 21.2703   3
  -2 -19   8 10.4867 10.8535   1
  -2  19   8 10.8549 9.14511   1
  -2  19   8 3.40464 18.4908   3
  -1 -19   8 6.17660 10.6780   1
  -1  19   8 9.79678 15.0096   3
  -1  19   8 -5.0324 9.95726   2
  -1  19   8 -4.0502 7.10987   1
   0 -19   8 18.7900 11.6362   1
   0  19   8 3.58581 9.47120   2
   0  19   8 7.03916 14.0606   3
   0  19   8 15.4977 8.92390   1
   1 -19   8 -1.0874 10.1934   1
   1  19   8 -0.9217 10.4117   3
   1  19   8 7.24314 9.37718   2
   1  19   8 -3.2913 7.62370   1
  -3 -20   8 39.0087 14.0683   1
  -3  20   8 39.9016 11.3084   1
  -3  20   8 2.05014 20.3548   3
  -2 -20   8 -2.6549 10.2192   1
  -2  20   8 4.56273 8.90322   1
  -2  20   8 -6.4159 17.1242   3
  -1 -20   8 55.8879 14.2663   1
  -1  20   8 63.4905 18.7111   3
  -1  20   8 50.6260 14.7479   2
  -1  20   8 49.1510 12.1479   1
   0 -20   8 -2.4344 10.1801   1
   0  20   8 -0.9809 9.70629   2
   0  20   8 3.13596 8.00416   1
   0  20   8 6.94172 13.5471   3
  -2 -21   8 -1.9280 10.2575   1
  -2  21   8 -24.230 16.0946   3
  -2  21   8 9.24124 8.63400   1
  -1 -21   8 29.7071 13.0281   1
  -1  21   8 49.3170 18.4560   3
  -1  21   8 31.5716 12.7035   2
  -1  21   8 29.2551 10.3917   1
  -4   0   9 -11.322 7.39025   1
  -4   0   9 -3.8748 7.98282   1
  -3   0   9 66.8689 13.6050   1
  -3   0   9 38.6167 11.0423   1
  -2   0   9 0.23658 8.09120   1
  -1   0   9 5.73674 9.03704   1
   0   0   9 6.62646 8.82750   1
   1   0   9 154.081 18.0288   1
  -4  -1   9 10.5468 9.55766   1
  -4  -1   9 29.2302 11.4299   1
  -4   1   9 12.0153 9.18626   1
  -4   1   9 25.5435 10.5509   1
  -3  -1   9 13.4377 9.27036   1
  -3   1   9 1.20941 7.95398   1
  -3   1   9 -1.3859 8.07736   1
  -2  -1   9 25.7638 10.5711   1
  -2  -1   9 -32.950 12.6674   3
  -2   1   9 31.3910 10.6653   1
  -2   1   9 -1.2056 14.2291   3
  -1  -1   9 -6.0872 7.31091   1
  -1   1   9 -5.0949 8.26147   1
  -1   1   9 9.53818 10.3954   3
   0  -1   9 40.4463 11.7317   1
   0   1   9 62.8594 12.7858   1
   1  -1   9 2.81830 8.88196   1
   1   1   9 1.21908 8.33561   1
  -4  -2   9 10.4600 9.26871   1
  -4  -2   9 14.8021 9.37510   1
  -4   2   9 -3.3477 8.04039   1
  -3  -2   9 3.81201 8.60903   1
  -3   2   9 0.74576 8.21795   1
  -3   2   9 15.0171 9.30964   1
  -2  -2   9 -4.9553 7.90978   1
  -2   2   9 -0.5592 7.67911   1
  -2   2   9 -30.383 13.0978   3
  -2   2   9 4.47177 8.19989   1
  -1  -2   9 -4.6394 7.85071   1
  -1   2   9 2.20694 7.95643   1
  -1   2   9 -4.1123 9.56189   3
   0  -2   9 4.38575 8.84492   1
   0   2   9 -7.3933 7.57405   1
   1  -2   9 17.0894 10.3121   1
   1   2   9 23.2392 9.94107   1
  -4  -3   9 6.91920 8.80837   1
  -4  -3   9 -1.9120 8.49016   1
  -4   3   9 -2.8167 8.01579   1
  -3  -3   9 149.298 18.6609   1
  -3   3   9 150.069 17.9468   1
  -3   3   9 149.708 18.3155   1
  -2  -3   9 -5.8571 7.26382   1
  -2   3   9 2.63530 7.78735   1
  -2   3   9 8.86560 9.25934   1
  -2   3   9 -33.425 12.3735   3
  -1  -3   9 -5.7636 8.35157   1
  -1   3   9 -11.702 9.43097   3
  -1   3   9 -3.2058 7.61367   1
   0  -3   9 -11.168 8.76706   1
   0   3   9 17.5416 10.0860   3
   0   3   9 -1.4489 8.04054   1
   1  -3   9 0.53932 9.48765   1
   1   3   9 8.13731 8.86484   1
  -4  -4   9 22.8825 10.1192   1
  -4   4   9 8.48175 9.71368   1
  -3  -4   9 45.1803 12.4322   1
  -3   4   9 17.9160 9.82969   1
  -3   4   9 33.3276 11.0421   1
  -2  -4   9 3.82417 8.29852   1
  -2   4   9 14.3633 9.03570   1
  -2   4   9 -12.116 13.7636   3
  -2   4   9 11.6373 8.43315   1
  -1  -4   9 7.06326 9.68509   1
  -1   4   9 -0.9742 10.4620   3
  -1   4   9 -11.208 7.26125   1
  -1   4   9 -5.8520 7.77097   1
   0  -4   9 -11.245 8.25781   1
   0   4   9 2.24440 8.28395   1
   0   4   9 29.4242 9.48577   3
   1  -4   9 -2.5475 9.28818   1
   1   4   9 -11.080 6.07367   1
  -4  -5   9 14.2428 9.30523   1
  -4   5   9 14.9435 9.57360   1
  -3  -5   9 19.6037 10.6611   1
  -3   5   9 -6.9254 7.65322   1
  -2  -5   9 136.990 17.5840   1
  -2   5   9 125.193 16.3653   1
  -2   5   9 121.575 16.6902   1
  -2   5   9 114.101 21.2436   3
  -1  -5   9 -7.1480 8.63577   1
  -1   5   9 -3.7282 10.4976   3
  -1   5   9 3.78281 8.60798   1
  -1   5   9 -4.3484 7.46643   1
   0  -5   9 226.287 22.3633   1
   0   5   9 195.369 19.7293   1
   0   5   9 204.081 19.4399   1
   0   5   9 228.474 21.0039   3
   1  -5   9 -6.1406 9.16416   1
   1   5   9 4.75187 8.22252   1
  -4  -6   9 42.8400 11.6646   1
  -4   6   9 12.0187 9.41877   1
  -3  -6   9 7.71760 9.51337   1
  -3   6   9 0.72353 8.36527   1
  -2  -6   9 52.5675 13.2210   1
  -2   6   9 21.9044 16.3018   3
  -2   6   9 34.2694 11.2923   1
  -2   6   9 48.8488 12.3306   1
  -1  -6   9 42.5457 12.5687   1
  -1   6   9 49.0686 14.8166   3
  -1   6   9 27.2632 10.5463   1
  -1   6   9 58.9138 12.5650   1
   0  -6   9 359.071 25.0025   1
   0   6   9 373.013 23.8327   1
   0   6   9 345.720 23.6838   1
   0   6   9 354.729 24.1567   3
   1  -6   9 -7.2710 8.44918   1
   1   6   9 24.2630 8.73172   3
   1   6   9 10.9793 8.42694   1
   1   6   9 4.95872 7.77163   1
  -4  -7   9 26.1457 10.2755   1
  -4   7   9 -3.6813 7.84943   1
  -3  -7   9 -4.2739 9.36445   1
  -2  -7   9 64.6599 14.5503   1
  -2   7   9 58.5284 12.3373   1
  -2   7   9 54.3395 18.6314   3
  -1  -7   9 67.4428 14.4646   1
  -1   7   9 62.8487 13.0272   1
  -1   7   9 37.5157 14.2899   3
  -1   7   9 37.5017 11.4560   1
   0  -7   9 41.0047 12.2312   1
   0   7   9 43.1646 11.5790   1
   0   7   9 50.1032 12.0662   1
   0   7   9 48.9456 13.0422   3
   1  -7   9 7.27859 9.94338   1
   1   7   9 20.2061 8.75755   3
   1   7   9 -2.6784 7.44037   1
   1   7   9 9.31042 8.50864   1
  -4  -8   9 65.1591 14.3655   1
  -4   8   9 34.6177 11.6434   1
  -3  -8   9 7.68503 10.7038   1
  -3   8   9 28.8920 10.4876   1
  -2  -8   9 57.8817 13.9602   1
  -2   8   9 82.4726 14.3722   1
  -2   8   9 67.1174 19.9348   3
  -1  -8   9 -1.9838 9.32777   1
  -1   8   9 11.9225 12.4404   3
  -1   8   9 -13.648 6.59533   1
   0  -8   9 17.3992 11.0540   1
   0   8   9 42.1814 12.5460   3
   0   8   9 31.4140 11.3024   1
   0   8   9 42.1246 11.4439   1
   1  -8   9 9.89458 10.0458   1
   1   8   9 19.0652 9.50582   1
   1   8   9 8.63813 8.64155   1
   1   8   9 25.0724 9.83752   3
  -4  -9   9 11.7068 10.2900   1
  -4   9   9 10.1499 9.01527   1
  -3  -9   9 45.1124 13.3051   1
  -3   9   9 43.1996 12.5408   1
  -2  -9   9 8.51031 10.4435   1
  -2   9   9 -34.294 13.6134   3
  -2   9   9 13.9458 9.22778   1
  -1  -9   9 -2.5834 9.06238   1
  -1   9   9 12.0860 8.97090   1
  -1   9   9 3.34629 12.7850   3
   0  -9   9 124.481 17.5688   1
   0   9   9 117.949 16.6980   1
   0   9   9 153.469 19.4178   3
   1   9   9 193.159 20.2009   3
  -4 -10   9 9.36254 10.9074   1
  -3 -10   9 -3.0239 9.63846   1
  -3  10   9 34.0121 11.2904   1
  -2 -10   9 32.3156 12.7211   1
  -2  10   9 31.6153 17.4572   3
  -2  10   9 32.1423 10.6877   1
  -1 -10   9 1.52482 10.0903   1
  -1  10   9 28.4939 10.3062   1
  -1  10   9 30.3020 14.2014   3
   0 -10   9 27.8102 11.3371   1
   0  10   9 41.6221 11.6052   1
   0  10   9 44.8340 13.5346   3
  -3 -11   9 -0.3611 10.0804   1
  -3  11   9 9.21494 8.63973   1
  -2 -11   9 47.1417 13.5560   1
  -2  11   9 45.4070 11.8493   1
  -2  11   9 52.5186 19.7416   3
  -1 -11   9 61.6992 14.4087   1
  -1  11   9 82.6403 14.0833   1
  -1  11   9 95.5691 19.3999   3
   0 -11   9 89.6189 15.9460   1
   0  11   9 127.463 19.5200   3
   0  11   9 95.1974 14.9481   1
  -3 -12   9 109.556 18.0977   1
  -3  12   9 67.8511 13.5052   1
  -2 -12   9 158.681 19.9924   1
  -2  12   9 194.281 20.9458   1
  -2  12   9 167.428 26.1349   3
  -1 -12   9 21.3892 11.2404   1
  -1  12   9 29.7129 10.6569   1
  -1  12   9 25.4216 14.8172   3
   0 -12   9 63.2327 14.8475   1
   0  12   9 81.5201 16.8331   3
   0  12   9 81.9479 15.0548   1
  -2 -13   9 -14.936 9.29148   1
  -2  13   9 -8.8079 16.3780   3
  -2  13   9 -9.4480 8.01481   1
  -1 -13   9 -8.5161 9.49765   1
  -1  13   9 12.3249 14.2314   3
  -1  13   9 -3.2780 7.24499   1
  -2 -14   9 -8.6961 9.64144   1
  -2  14   9 -2.2440 17.8537   3
  -2  14   9 -2.1276 8.26707   1
  -1  14   9 -12.484 12.0941   3
   0   0   0    0.00    0.00   0

 _exptl_absorpt_process_details 'SADABS 2014/4'
 _exptl_absorpt_correction_type   multiscan
 _exptl_absorpt_correction_T_max  0.9485
 _exptl_absorpt_correction_T_min  0.8256
 _exptl_special_details
)
 The following wavelength and cell were deduced by SADABS from the
 direction cosines etc. They are given here for emergency use only:
 CELL 0.71089    7.407   30.644    7.750   89.988  100.778   89.965
)

;
_shelx_hkl_checksum              24789
loop_
_space_group_symop_operation_xyz
'x, y, z'
'-x+1/2, y+1/2, -z+1/2'
'-x, -y, -z'
'x-1/2, -y-1/2, z-1/2'
loop_
_atom_site_label
_atom_site_type_symbol
_atom_site_fract_x
_atom_site_fract_y
_atom_site_fract_z
_atom_site_U_iso_or_equiv
_atom_site_adp_type
_atom_site_occupancy
_atom_site_site_symmetry_order
_atom_site_calc_flag
_atom_site_refinement_flags_posn
_atom_site_refinement_flags_adp
C1 C -0.4904(2) 0.17522(6) 0.4585(2) 0.0217(4) Uani 1 1 d . .
H9 H -0.5463 0.1689 0.3360 0.033 Uiso 1 1 calc R U
H10 H -0.5499 0.2009 0.4988 0.033 Uiso 1 1 calc R U
H1 H -0.5063 0.1500 0.5324 0.033 Uiso 1 1 calc R U
C2 C -0.2842(2) 0.18442(5) 0.4713(2) 0.0166(4) Uani 1 1 d . .
C3 C -0.1861(2) 0.14687(5) 0.3950(2) 0.0150(4) Uani 1 1 d . .
C4 C -0.2196(2) 0.10356(5) 0.4399(2) 0.0154(4) Uani 1 1 d . .
H5 H -0.3124 0.0979 0.5068 0.018 Uiso 1 1 calc R U
C5 C -0.1213(2) 0.06875(5) 0.3895(2) 0.0159(4) Uani 1 1 d . .
H18 H -0.1481 0.0399 0.4218 0.019 Uiso 1 1 calc R U
C6 C 0.0170(2) 0.07574(5) 0.2915(2) 0.0143(4) Uani 1 1 d . .
C7 C 0.1322(2) 0.03882(5) 0.2491(2) 0.0146(4) Uani 1 1 d . .
C8 C 0.3195(2) 0.04453(5) 0.2483(2) 0.0181(4) Uani 1 1 d . .
H4 H 0.3723 0.0728 0.2682 0.022 Uiso 1 1 calc R U
C9 C 0.4296(2) 0.00960(5) 0.2189(2) 0.0175(4) Uani 1 1 d . .
H21 H 0.5566 0.0143 0.2194 0.021 Uiso 1 1 calc R U
C10 C 0.3559(2) -0.03259(5) 0.1885(2) 0.0146(4) Uani 1 1 d . .
C11 C 0.4753(2) -0.07062(5) 0.1681(2) 0.0144(4) Uani 1 1 d . .
C12 C 0.4125(2) -0.10451(5) 0.0504(2) 0.0170(4) Uani 1 1 d . .
H3 H 0.2930 -0.1028 -0.0203 0.020 Uiso 1 1 calc R U
C13 C 0.5219(2) -0.14043(5) 0.0358(2) 0.0187(4) Uani 1 1 d . .
H24 H 0.4766 -0.1633 -0.0437 0.022 Uiso 1 1 calc R U
C14 C 0.6980(2) -0.14335(5) 0.1368(2) 0.0190(4) Uani 1 1 d . .
H2 H 0.7734 -0.1679 0.1255 0.023 Uiso 1 1 calc R U
C15 C -0.1948(2) 0.18944(6) 0.6675(2) 0.0220(4) Uani 1 1 d . .
H6 H -0.2093 0.1622 0.7299 0.033 Uiso 1 1 calc R U
H8 H -0.2549 0.2133 0.7194 0.033 Uiso 1 1 calc R U
H7 H -0.0636 0.1960 0.6775 0.033 Uiso 1 1 calc R U
C16 C -0.2635(2) 0.22739(5) 0.3734(2) 0.0208(4) Uani 1 1 d . .
H17 H -0.3481 0.2268 0.2580 0.025 Uiso 1 1 calc R U
H16 H -0.3007 0.2520 0.4419 0.025 Uiso 1 1 calc R U
C17 C -0.0686(2) 0.23545(6) 0.3436(3) 0.0232(4) Uani 1 1 d . .
H15 H 0.0179 0.2357 0.4579 0.028 Uiso 1 1 calc R U
H11 H -0.0620 0.2642 0.2866 0.028 Uiso 1 1 calc R U
C18 C -0.0148(2) 0.19946(5) 0.2268(2) 0.0197(4) Uani 1 1 d . .
H12 H -0.0843 0.2034 0.1054 0.024 Uiso 1 1 calc R U
H14 H 0.1178 0.2021 0.2234 0.024 Uiso 1 1 calc R U
C19 C -0.0525(2) 0.15393(5) 0.2907(2) 0.0151(4) Uani 1 1 d . .
C20 C 0.0468(2) 0.11868(5) 0.2427(2) 0.0155(4) Uani 1 1 d . .
H13 H 0.1383 0.1241 0.1741 0.019 Uiso 1 1 calc R U
C21 C 0.0583(2) -0.00303(5) 0.2125(2) 0.0148(4) Uani 1 1 d . .
H20 H -0.0694 -0.0076 0.2081 0.018 Uiso 1 1 calc R U
C22 C 0.1675(2) -0.03784(5) 0.1827(2) 0.0157(4) Uani 1 1 d . .
H19 H 0.1133 -0.0658 0.1579 0.019 Uiso 1 1 calc R U
C23 C 0.6522(2) -0.07419(5) 0.2700(2) 0.0165(4) Uani 1 1 d . .
H23 H 0.6975 -0.0517 0.3512 0.020 Uiso 1 1 calc R U
C24 C 0.7627(2) -0.11017(5) 0.2542(2) 0.0190(4) Uani 1 1 d . .
H22 H 0.8826 -0.1120 0.3239 0.023 Uiso 1 1 calc R U
loop_
_atom_site_aniso_label
_atom_site_aniso_U_11
_atom_site_aniso_U_22
_atom_site_aniso_U_33
_atom_site_aniso_U_23
_atom_site_aniso_U_13
_atom_site_aniso_U_12
C1 0.0166(9) 0.0240(9) 0.0259(10) -0.0026(8) 0.0072(7) 0.0015(7)
C2 0.0155(8) 0.0182(8) 0.0169(9) -0.0009(7) 0.0051(7) 0.0004(7)
C3 0.0123(8) 0.0172(8) 0.0145(8) -0.0005(7) -0.0001(6) 0.0007(7)
C4 0.0127(8) 0.0197(8) 0.0144(8) 0.0020(7) 0.0039(6) -0.0023(7)
C5 0.0155(8) 0.0147(8) 0.0169(9) 0.0017(7) 0.0016(7) -0.0032(7)
C6 0.0132(8) 0.0169(8) 0.0117(8) -0.0009(6) -0.0003(6) -0.0013(6)
C7 0.0155(8) 0.0160(8) 0.0121(8) 0.0020(7) 0.0021(6) 0.0008(7)
C8 0.0178(9) 0.0151(8) 0.0211(9) -0.0026(7) 0.0032(7) -0.0029(7)
C9 0.0109(8) 0.0198(8) 0.0219(9) -0.0003(7) 0.0033(7) -0.0008(7)
C10 0.0160(8) 0.0146(8) 0.0133(8) 0.0012(6) 0.0028(7) 0.0011(7)
C11 0.0138(8) 0.0150(8) 0.0151(9) 0.0023(7) 0.0046(7) -0.0021(6)
C12 0.0149(8) 0.0198(8) 0.0152(9) 0.0015(7) 0.0000(7) -0.0007(7)
C13 0.0229(9) 0.0171(8) 0.0164(9) -0.0023(7) 0.0041(7) -0.0026(7)
C14 0.0201(9) 0.0162(8) 0.0219(10) 0.0021(7) 0.0072(7) 0.0025(7)
C15 0.0227(9) 0.0239(9) 0.0195(9) -0.0029(8) 0.0038(7) 0.0012(8)
C16 0.0242(9) 0.0167(8) 0.0232(10) 0.0010(7) 0.0091(8) 0.0058(7)
C17 0.0294(10) 0.0139(8) 0.0289(10) 0.0011(7) 0.0122(8) -0.0016(7)
C18 0.0192(9) 0.0169(8) 0.0246(10) 0.0026(7) 0.0081(7) -0.0001(7)
C19 0.0123(8) 0.0165(8) 0.0155(9) 0.0014(7) -0.0001(6) -0.0009(7)
C20 0.0133(8) 0.0191(8) 0.0147(9) 0.0001(7) 0.0040(7) -0.0004(7)
C21 0.0116(8) 0.0186(8) 0.0140(8) 0.0033(7) 0.0019(6) -0.0009(7)
C22 0.0172(8) 0.0135(8) 0.0156(9) 0.0009(7) 0.0011(7) -0.0024(7)
C23 0.0157(8) 0.0157(8) 0.0183(9) -0.0023(7) 0.0035(7) -0.0025(7)
C24 0.0134(8) 0.0219(9) 0.0212(9) 0.0024(7) 0.0016(7) -0.0005(7)
loop_
_atom_type_symbol
_atom_type_description
_atom_type_scat_dispersion_real
_atom_type_scat_dispersion_imag
_atom_type_scat_source
C C 0.0033 0.0016 'International Tables Vol C Tables 4.2.6.8 and 6.1.1.4'
H H 0.0000 0.0000 'International Tables Vol C Tables 4.2.6.8 and 6.1.1.4'
loop_
_geom_angle_atom_site_label_1
_geom_angle_atom_site_label_2
_geom_angle_atom_site_label_3
_geom_angle
C2 C1 H9 109.5
C2 C1 H10 109.5
H9 C1 H10 109.5
C2 C1 H1 109.5
H9 C1 H1 109.5
H10 C1 H1 109.5
C3 C2 C1 111.93(13)
C3 C2 C16 110.61(14)
C1 C2 C16 108.30(13)
C3 C2 C15 107.82(13)
C1 C2 C15 108.57(14)
C16 C2 C15 109.57(14)
C4 C3 C19 117.62(15)
C4 C3 C2 119.53(15)
C19 C3 C2 122.70(15)
C5 C4 C3 121.95(16)
C5 C4 H5 119.0
C3 C4 H5 119.0
C4 C5 C6 120.68(15)
C4 C5 H18 119.7
C6 C5 H18 119.7
C20 C6 C5 117.33(15)
C20 C6 C7 121.90(15)
C5 C6 C7 120.71(14)
C8 C7 C21 117.60(15)
C8 C7 C6 121.02(14)
C21 C7 C6 121.37(15)
C9 C8 C7 121.15(15)
C9 C8 H4 119.4
C7 C8 H4 119.4
C8 C9 C10 120.92(16)
C8 C9 H21 119.5
C10 C9 H21 119.5
C22 C10 C9 117.74(14)
C22 C10 C11 121.08(14)
C9 C10 C11 121.16(14)
C23 C11 C12 118.02(15)
C23 C11 C10 120.85(14)
C12 C11 C10 121.10(14)
C13 C12 C11 120.90(15)
C13 C12 H3 119.6
C11 C12 H3 119.6
C12 C13 C14 120.44(15)
C12 C13 H24 119.8
C14 C13 H24 119.8
C24 C14 C13 119.53(15)
C24 C14 H2 120.2
C13 C14 H2 120.2
C2 C15 H6 109.5
C2 C15 H8 109.5
H6 C15 H8 109.5
C2 C15 H7 109.5
H6 C15 H7 109.5
H8 C15 H7 109.5
C17 C16 C2 113.41(13)
C17 C16 H17 108.9
C2 C16 H17 108.9
C17 C16 H16 108.9
C2 C16 H16 108.9
H17 C16 H16 107.7
C16 C17 C18 109.43(14)
C16 C17 H15 109.8
C18 C17 H15 109.8
C16 C17 H11 109.8
C18 C17 H11 109.8
H15 C17 H11 108.2
C19 C18 C17 112.64(15)
C19 C18 H12 109.1
C17 C18 H12 109.1
C19 C18 H14 109.1
C17 C18 H14 109.1
H12 C18 H14 107.8
C20 C19 C3 119.78(15)
C20 C19 C18 118.97(15)
C3 C19 C18 121.25(15)
C19 C20 C6 122.57(16)
C19 C20 H13 118.7
C6 C20 H13 118.7
C22 C21 C7 121.35(15)
C22 C21 H20 119.3
C7 C21 H20 119.3
C21 C22 C10 121.16(15)
C21 C22 H19 119.4
C10 C22 H19 119.4
C24 C23 C11 121.02(15)
C24 C23 H23 119.5
C11 C23 H23 119.5
C14 C24 C23 120.08(15)
C14 C24 H22 120.0
C23 C24 H22 120.0
loop_
_geom_bond_atom_site_label_1
_geom_bond_atom_site_label_2
_geom_bond_distance
C1 C2 1.537(2)
C1 H9 0.9800
C1 H10 0.9800
C1 H1 0.9800
C2 C3 1.536(2)
C2 C16 1.540(2)
C2 C15 1.546(2)
C3 C4 1.404(2)
C3 C19 1.405(2)
C4 C5 1.387(2)
C4 H5 0.9500
C5 C6 1.400(2)
C5 H18 0.9500
C6 C20 1.396(2)
C6 C7 1.489(2)
C7 C8 1.398(2)
C7 C21 1.401(2)
C8 C9 1.389(2)
C8 H4 0.9500
C9 C10 1.404(2)
C9 H21 0.9500
C10 C22 1.396(2)
C10 C11 1.488(2)
C11 C23 1.400(2)
C11 C12 1.401(2)
C12 C13 1.383(2)
C12 H3 0.9500
C13 C14 1.391(2)
C13 H24 0.9500
C14 C24 1.387(2)
C14 H2 0.9500
C15 H6 0.9800
C15 H8 0.9800
C15 H7 0.9800
C16 C17 1.523(2)
C16 H17 0.9900
C16 H16 0.9900
C17 C18 1.524(2)
C17 H15 0.9900
C17 H11 0.9900
C18 C19 1.522(2)
C18 H12 0.9900
C18 H14 0.9900
C19 C20 1.394(2)
C20 H13 0.9500
C21 C22 1.382(2)
C21 H20 0.9500
C22 H19 0.9500
C23 C24 1.391(2)
C23 H23 0.9500
C24 H22 0.9500
