#------------------------------------------------------------------------------
#$Date: 2017-10-07 08:35:01 +0300 (Sat, 07 Oct 2017) $
#$Revision: 201850 $
#$URL: file:///home/coder/svn-repositories/cod/cif/7/22/92/7229299.cif $
#------------------------------------------------------------------------------
#
# This file is available in the Crystallography Open Database (COD),
# http://www.crystallography.net/
#
# All data on this site have been placed in the public domain by the
# contributors.
#
data_7229299
loop_
_publ_author_name
'Hempe, M.'
'Reggelin, M.'
_publ_section_title
;
 Molecular packing and morphological stability of
 dihydro-indeno[1,2-b]fluorenes in the context of their substitution
 pattern
;
_journal_issue                   75
_journal_name_full               'RSC Adv.'
_journal_page_first              47183
_journal_paper_doi               10.1039/C7RA09401A
_journal_volume                  7
_journal_year                    2017
_chemical_formula_moiety         'C44 H62'
_chemical_formula_sum            'C44 H62'
_chemical_formula_weight         590.93
_space_group_crystal_system      triclinic
_space_group_IT_number           2
_space_group_name_Hall           '-P 1'
_space_group_name_H-M_alt        'P -1'
_symmetry_space_group_name_Hall  '-P 1'
_symmetry_space_group_name_H-M   'P -1'
_atom_sites_solution_hydrogens   geom
_audit_creation_method           SHELXL-2014/6
_audit_update_record
;
2017-08-14 deposited with the CCDC.
2017-10-06 downloaded from the CCDC.
;
_cell_angle_alpha                92.85(1)
_cell_angle_beta                 108.07(1)
_cell_angle_gamma                104.44(1)
_cell_formula_units_Z            1
_cell_length_a                   8.453(1)
_cell_length_b                   10.868(1)
_cell_length_c                   11.903(2)
_cell_measurement_reflns_used    1842
_cell_measurement_temperature    293(2)
_cell_measurement_theta_max      27.73
_cell_measurement_theta_min      2.64
_cell_volume                     997.1(2)
_computing_cell_refinement
;
CrysAlis RED (Oxford Diffraction Ltd., 2009)
;
_computing_data_collection
;
CrysAlis CCD (Oxford Diffraction Ltd., 2009)
;
_computing_data_reduction
;
CrysAlis RED (Oxford Diffraction Ltd., 2009)
;
_computing_molecular_graphics    'PLATON (Spek, 2003)'
_computing_publication_material  'SHELXL-2014/6 (Sheldrick, 2014)'
_computing_structure_refinement  'SHELXL-2014/6 (Sheldrick, 2014)'
_computing_structure_solution    'SHELXL-2014 (Sheldrick, 2014)'
_diffrn_ambient_temperature      293(2)
_diffrn_measured_fraction_theta_full 0.983
_diffrn_measured_fraction_theta_max 0.988
_diffrn_measurement_device_type
;  
Oxford Diffraction Xcalibur (TM) Single Crystal X-ray Diffractometer 
with Sapphire CCD Detector.
;
_diffrn_measurement_method
;
Rotation method data acquisition using omega scans.
;
_diffrn_radiation_type           MoK\a
_diffrn_radiation_wavelength     0.71073
_diffrn_reflns_av_R_equivalents  0.0171
_diffrn_reflns_av_unetI/netI     0.0280
_diffrn_reflns_Laue_measured_fraction_full 0.983
_diffrn_reflns_Laue_measured_fraction_max 0.988
_diffrn_reflns_limit_h_max       10
_diffrn_reflns_limit_h_min       -9
_diffrn_reflns_limit_k_max       12
_diffrn_reflns_limit_k_min       -12
_diffrn_reflns_limit_l_max       14
_diffrn_reflns_limit_l_min       -14
_diffrn_reflns_number            6087
_diffrn_reflns_point_group_measured_fraction_full 0.983
_diffrn_reflns_point_group_measured_fraction_max 0.988
_diffrn_reflns_theta_full        25.242
_diffrn_reflns_theta_max         25.186
_diffrn_reflns_theta_min         2.639
_diffrn_source                   'Enhance (Mo) X-ray Source'
_exptl_absorpt_coefficient_mu    0.055
_exptl_absorpt_correction_T_max  0.991
_exptl_absorpt_correction_T_min  0.973
_exptl_absorpt_correction_type   multi-scan
_exptl_absorpt_process_details
;
CrysAlis RED, Oxford Diffraction Ltd., 2009
Empirical absorption correction using spherical harmonics,
implemented in SCALE3 ABSPACK scaling algorithm.
;
_exptl_crystal_colour            orange
_exptl_crystal_density_diffrn    0.984
_exptl_crystal_description       prism
_exptl_crystal_F_000             326
_exptl_crystal_size_max          0.500
_exptl_crystal_size_mid          0.240
_exptl_crystal_size_min          0.160
_refine_diff_density_max         0.161
_refine_diff_density_min         -0.140
_refine_diff_density_rms         0.033
_refine_ls_extinction_method     none
_refine_ls_goodness_of_fit_ref   1.113
_refine_ls_hydrogen_treatment    constr
_refine_ls_matrix_type           full
_refine_ls_number_parameters     201
_refine_ls_number_reflns         3545
_refine_ls_number_restraints     0
_refine_ls_restrained_S_all      1.113
_refine_ls_R_factor_all          0.0965
_refine_ls_R_factor_gt           0.0608
_refine_ls_shift/su_max          0.000
_refine_ls_shift/su_mean         0.000
_refine_ls_structure_factor_coef Fsqd
_refine_ls_weighting_details
'w=1/[\s^2^(Fo^2^)+(0.0477P)^2^+0.4131P] where P=(Fo^2^+2Fc^2^)/3'
_refine_ls_weighting_scheme      calc
_refine_ls_wR_factor_gt          0.1356
_refine_ls_wR_factor_ref         0.1579
_reflns_Friedel_coverage         0.000
_reflns_number_gt                2481
_reflns_number_total             3545
_reflns_threshold_expression     'I > 2\s(I)'
_cod_data_source_file            c7ra09401a2.cif
_cod_data_source_block           1329m
_cod_database_code               7229299
_shelx_space_group_comment
;
The symmetry employed for this shelxl refinement is uniquely defined
by the following loop, which should always be used as a source of
symmetry information in preference to the above space-group names.
They are only intended as comments.
;
_shelx_estimated_absorpt_t_min   0.973
_shelx_estimated_absorpt_t_max   0.991
_shelxl_version_number           2014/6
_shelx_res_file
;
TITL 1329 (MAH-410) P-1
CELL  0.71073  8.45300 10.86800 11.90300 92.85000 108.07000 104.44000
ZERR 1  0.00100  0.00100  0.00200  0.01000  0.01000  0.01000
LATT 1
SFAC C H
UNIT 44 62
PLAN 30
FMAP 2
SHEL 12 0.835
SIZE 0.50 0.24 0.16
L.S. 14
BOND $H
CONF
ACTA
WGHT    0.047700    0.413100
FVAR       6.11661
C1    1    0.582672    0.124564    0.486103    11.00000    0.04358    0.03224 =
         0.03836    0.00357    0.01745    0.00939
C2    1    0.403807    0.084452    0.444573    11.00000    0.04545    0.03608 =
         0.04227    0.00775    0.01682    0.01537
AFIX  43
H2    2    0.339498    0.138559    0.408570    11.00000   -1.20000
AFIX   0
C3    1    0.321331   -0.041214    0.458374    11.00000    0.04117    0.03631 =
         0.03472    0.00176    0.01631    0.01049
C4    1    0.136532   -0.110723    0.423308    11.00000    0.04143    0.03898 =
         0.03940   -0.00098    0.01699    0.00885
C5    1   -0.009718   -0.072239    0.366345    11.00000    0.04672    0.05053 =
         0.05356    0.00388    0.01591    0.01541
AFIX  43
H5    2    0.000333    0.008662    0.342317    11.00000   -1.20000
AFIX   0
C6    1   -0.171628   -0.157851    0.346164    11.00000    0.04195    0.06975 =
         0.07219   -0.00097    0.01491    0.01714
AFIX  43
H6    2   -0.271109   -0.133601    0.308731    11.00000   -1.20000
AFIX   0
C7    1   -0.186749   -0.279609    0.381337    11.00000    0.04326    0.06589 =
         0.09701    0.00009    0.02576    0.00161
AFIX  43
H7    2   -0.296295   -0.335326    0.366883    11.00000   -1.20000
AFIX   0
C8    1   -0.041735   -0.318870    0.437297    11.00000    0.05323    0.04768 =
         0.08604    0.01123    0.03095    0.00513
AFIX  43
H8    2   -0.052892   -0.400251    0.460333    11.00000   -1.20000
AFIX   0
C9    1    0.120719   -0.234572    0.458431    11.00000    0.04600    0.04039 =
         0.05082    0.00191    0.02288    0.00701
C10   1    0.702293    0.254885    0.479757    11.00000    0.04576    0.03362 =
         0.04942    0.00813    0.02081    0.00924
C11   1    0.678470    0.278220    0.349410    11.00000    0.06169    0.04328 =
         0.05880    0.01528    0.02862    0.01388
AFIX  23
H11A  2    0.559490    0.279072    0.310868    11.00000   -1.20000
H11B  2    0.752402    0.362495    0.349955    11.00000   -1.20000
AFIX   0
C12   1    0.719158    0.179899    0.274736    11.00000    0.09100    0.06444 =
         0.05731    0.01742    0.03690    0.03315
AFIX  23
H12A  2    0.836829    0.176705    0.314375    11.00000   -1.20000
H12B  2    0.642186    0.095952    0.271260    11.00000   -1.20000
AFIX   0
C13   1    0.701043    0.207594    0.148916    11.00000    0.10301    0.08128 =
         0.06344    0.02376    0.04325    0.03843
AFIX  23
H13A  2    0.770856    0.294214    0.152211    11.00000   -1.20000
H13B  2    0.581133    0.203858    0.107184    11.00000   -1.20000
AFIX   0
C14   1    0.755365    0.115427    0.077870    11.00000    0.11208    0.09790 =
         0.06390    0.01947    0.04568    0.04411
AFIX  23
H14A  2    0.876239    0.121140    0.118592    11.00000   -1.20000
H14B  2    0.688091    0.028636    0.076969    11.00000   -1.20000
AFIX   0
C15   1    0.733146    0.139175   -0.048510    11.00000    0.13736    0.13128 =
         0.06920    0.02558    0.05281    0.04861
AFIX  23
H15A  2    0.798904    0.226394   -0.047766    11.00000   -1.20000
H15B  2    0.611934    0.131955   -0.089726    11.00000   -1.20000
AFIX   0
C16   1    0.789961    0.048872   -0.117678    11.00000    0.17649    0.17237 =
         0.07743    0.00197    0.06638    0.05823
AFIX 137
H16A  2    0.762967    0.065212   -0.199034    11.00000   -1.50000
H16B  2    0.730451   -0.038088   -0.115264    11.00000   -1.50000
H16C  2    0.912651    0.061973   -0.082793    11.00000   -1.50000
AFIX   0
C17   1    0.673615    0.370922    0.545758    11.00000    0.05361    0.03509 =
         0.06260    0.00486    0.02440    0.00971
AFIX  23
H17A  2    0.750115    0.449081    0.535390    11.00000   -1.20000
H17B  2    0.555610    0.373934    0.507087    11.00000   -1.20000
AFIX   0
C18   1    0.703420    0.370628    0.677599    11.00000    0.06225    0.05638 =
         0.05969   -0.00005    0.01973    0.02112
AFIX  23
H18A  2    0.814403    0.354621    0.715590    11.00000   -1.20000
H18B  2    0.614164    0.301344    0.688576    11.00000   -1.20000
AFIX   0
C19   1    0.701226    0.498054    0.738489    11.00000    0.07692    0.06490 =
         0.07338   -0.01061    0.02120    0.02357
AFIX  23
H19A  2    0.789159    0.566877    0.725546    11.00000   -1.20000
H19B  2    0.589772    0.513110    0.699985    11.00000   -1.20000
AFIX   0
C20   1    0.731983    0.504739    0.869675    11.00000    0.10439    0.10622 =
         0.07370   -0.01281    0.02084    0.04756
AFIX  23
H20A  2    0.842737    0.488590    0.908134    11.00000   -1.20000
H20B  2    0.643087    0.436730    0.882623    11.00000   -1.20000
AFIX   0
C21   1    0.732056    0.631176    0.929450    11.00000    0.16488    0.12597 =
         0.09465   -0.03160    0.03215    0.06075
AFIX  23
H21A  2    0.820116    0.699527    0.916060    11.00000   -1.20000
H21B  2    0.620764    0.646967    0.892064    11.00000   -1.20000
AFIX   0
C22   1    0.765197    0.636111    1.060687    11.00000    0.19790    0.19851 =
         0.09561   -0.04163    0.04506    0.05742
AFIX 137
H22A  2    0.771478    0.720372    1.093541    11.00000   -1.50000
H22B  2    0.872767    0.616907    1.098155    11.00000   -1.50000
H22C  2    0.672629    0.574224    1.074651    11.00000   -1.50000
AFIX   0
HKLF 4

REM  1329 (MAH-410) P-1
REM R1 =  0.0608 for    2481 Fo > 4sig(Fo)  and  0.0965 for all    3545 data
REM    201 parameters refined using      0 restraints

END

WGHT      0.0475      0.4098

REM Highest difference peak  0.161,  deepest hole -0.140,  1-sigma level  0.033
Q1    1   0.8459  0.5588  0.8018  11.00000  0.05    0.16
Q2    1   0.9006  0.5570  0.8841  11.00000  0.05    0.16
Q3    1   0.1357 -0.1612  0.4735  11.00000  0.05    0.16
Q4    1   0.5040  0.0832  0.4222  11.00000  0.05    0.15
Q5    1   0.3739 -0.0505  0.5126  11.00000  0.05    0.14
Q6    1   0.6151  0.1924  0.4928  11.00000  0.05    0.14
Q7    1   0.7502  0.7047  0.8401  11.00000  0.05    0.14
Q8    1   0.6216  0.0965  0.5409  11.00000  0.05    0.13
Q9    1   0.7915  0.4313  0.9289  11.00000  0.05    0.13
Q10   1   0.7567  0.0948  0.3080  11.00000  0.05    0.13
Q11   1   0.7043  0.5926  0.6815  11.00000  0.05    0.12
Q12   1   0.2190 -0.0565  0.4734  11.00000  0.05    0.12
Q13   1   0.2152 -0.2406  0.4737  11.00000  0.05    0.12
Q14   1   0.8072  0.0365  0.1095  11.00000  0.05    0.12
Q15   1   0.7219  0.2864  0.7168  11.00000  0.05    0.12
Q16   1   0.6890  0.3015  0.5119  11.00000  0.05    0.11
Q17   1   0.5318  0.5609  0.8780  11.00000  0.05    0.11
Q18   1   0.7247  0.3862  0.9014  11.00000  0.05    0.11
Q19   1   0.8613  0.2825  0.0130  11.00000  0.05    0.11
Q20   1  -0.0304 -0.3782  0.5248  11.00000  0.05    0.11
Q21   1   0.5938  0.2367 -0.0974  11.00000  0.05    0.11
Q22   1   0.6807  0.2977  0.1027  11.00000  0.05    0.10
Q23   1  -0.0871 -0.4396  0.4078  11.00000  0.05    0.10
Q24   1   0.0715 -0.0876  0.4346  11.00000  0.05    0.10
Q25   1   0.8974  0.2426  0.3195  11.00000  0.05    0.10
Q26   1   0.1113 -0.1936  0.3931  11.00000  0.05    0.10
Q27   1   0.5540 -0.0072  0.0194  11.00000  0.05    0.10
Q28   1   1.0216  0.5967  0.9165  11.00000  0.05    0.10
Q29   1   0.5481  0.1045  0.2410  11.00000  0.05    0.10
Q30   1  -0.0233 -0.4461  0.4603  11.00000  0.05    0.10
;
_shelx_res_checksum              29878
_shelx_hkl_file
;
   0   0  -2 127223. 850.153   3
   0   0   2 130379. 253.549   4
   0   0   3 1167.84 37.0477   4
   0   0  -3 1184.90 32.3359   3
   0   0  -4 10496.4 89.8200   3
   0   0   4 10481.2 105.986   4
   0   0   5 52339.4 259.701   4
   0   0  -5 51288.9 219.250   3
   0   0  -6 1025.83 42.3520   3
   0   0  -7 69.6350 27.9386   3
   0   0  -8 681.353 44.5109   3
   0   0  -9 471.645 42.5236   3
   0   0  -9 466.138 59.4974   2
   0   0 -10 4173.08 98.3535   3
   0   0 -10 4367.06 119.234   2
   0   0 -11 686.443 53.7525   3
   0   0 -11 658.365 74.9524   2
   0   0 -12 233.715 66.1348   2
   0   0 -13 98.2676 68.2864   2
   0   0 -14 217.342 76.0327   2
   0   1 -14 79.6973 55.4204   2
   0   1 -13 107.558 58.9149   2
   0   1 -12 293.690 64.8871   2
   0   1 -11 453.243 60.5053   2
   0   1 -11 328.717 44.6074   3
   0   1 -10 1765.72 82.5670   2
   0   1 -10 1423.55 64.6230   3
   0   1  -9 350.395 38.4006   3
   0   1  -9 406.731 51.0575   2
   0  -1   9 407.730 56.2529   4
   0   1  -8-19.0480 42.7184   2
   0  -1   8-19.2036 42.5027   4
   0   1  -8-7.28496 29.3801   3
   0   1  -7 1883.60 68.8779   2
   0   1  -7 1823.28 55.5668   3
   0  -1   7 1748.14 70.5001   4
   0  -1   6 2227.82 70.5822   4
   0   1  -6 2275.71 56.4352   3
   0   1  -6 2344.20 65.8944   2
   0   1  -5 1182.77 40.0471   3
   0   1  -5 1269.64 47.3495   2
   0  -1   5 1290.65 50.9632   4
   0   1  -4 47.8210 20.5849   3
   0  -1   4 21.9113 24.4088   4
   0   1  -4 31.3938 24.6128   2
   0   1  -3 45632.7 160.189   3
   0  -1   3 46457.3 187.690   4
   0   1  -3 45943.1 172.559   2
   0  -1   2 150163. 1106.12   4
   0   1  -2 148895. 1001.71   2
   0  -1  -1 9027.23 55.6275   3
   0  -1  -2 6514.07 56.2925   3
   0  -1  -3 12487.5 89.1122   3
   0  -1  -4 5733.68 70.0056   3
   0  -1  -5 6064.20 80.8967   3
   0  -1  -6 1227.00 46.5424   3
   0  -1  -7 268.424 33.6644   3
   0  -1  -8 149.807 36.2220   3
   0  -1  -9 12.7904 33.9769   3
   0  -1 -10 385.690 48.3417   3
   0  -1 -11 123.190 42.8626   3
   0  -1 -11 99.5799 60.2327   2
   0  -1 -12-45.4843 54.6762   2
   0  -1 -13 189.188 70.4740   2
   0   2 -14-184.083 51.6688   2
   0   2 -13-0.45096 60.2472   2
   0   2 -12 468.665 61.4882   2
   0  -2  11 331.157 59.4633   4
   0   2 -11 166.891 52.3905   2
   0   2 -10 96.3635 38.2399   3
   0  -2  10 94.8025 49.4254   4
   0   2 -10 204.375 49.9162   2
   0   2  -9 187.730 44.1315   2
   0   2  -9 85.8428 32.8564   3
   0  -2   9 121.337 45.6966   4
   0   2  -8 37.6338 30.7224   3
   0   2  -8 33.6253 39.9470   2
   0  -2   8-9.69414 48.0950   4
   0   2  -7 3083.15 67.6083   3
   0   2  -7 3334.94 82.7949   2
   0  -2   7 3101.60 89.0865   4
   0   2  -6 35814.1 221.645   2
   0   2  -6 35711.3 199.124   3
   0  -2   6 35968.8 243.827   4
   0   2  -5 7045.97 91.3213   2
   0   2  -5 7035.69 84.4235   3
   0  -2   5 7206.87 101.959   4
   0  -2   4 3357.21 66.1048   4
   0   2  -4 3311.56 58.4067   2
   0   2  -3 4425.89 56.7604   2
   0  -2   3 4472.82 66.7898   4
   0  -2   2 4018.52 55.5534   4
   0   2  -2 4050.28 46.3096   2
   0  -2   1 46656.2 158.037   4
   0  -2   1 46290.7 150.545   3
   0  -2   0 10241.9 73.2229   3
   0   2   0 10708.6 64.6538   2
   0  -2  -1 9566.56 76.3198   3
   0   2   1 9734.56 71.0615   2
   0   2   1 9482.07 44.3642   0
   0  -2  -2 1458.59 38.9702   3
   0  -2  -3 2081.51 47.7020   3
   0  -2  -4 1316.41 42.5128   3
   0  -2  -5 8811.48 102.438   3
   0  -2  -6 947.812 45.6450   3
   0  -2  -7 33.3887 33.8522   3
   0  -2  -8 213.771 39.8728   3
   0  -2  -9 754.374 57.7114   3
   0  -2 -10 218.951 48.9353   3
   0  -2 -11-1.70581 43.8630   3
   0  -2 -12 15.2593 49.7322   2
   0  -2 -13-128.754 72.2690   2
   0   3 -14-122.932 53.0859   2
   0   3 -13 86.5592 53.0909   2
   0  -3  13 617.524 77.2388   4
   0  -3  12-24.8089 52.8527   4
   0   3 -12 80.1300 49.2314   2
   0   3 -11 211.572 50.0333   2
   0  -3  11 179.637 52.8497   4
   0   3 -10 218.579 40.2082   3
   0  -3  10 234.518 59.6684   4
   0   3 -10 145.336 46.7641   2
   0  -3   9 191.789 51.8204   4
   0   3  -9 248.494 37.3055   3
   0   3  -9 221.328 46.6041   2
   0   3  -8 1196.50 59.2944   2
   0   3  -8 1198.35 52.3598   3
   0  -3   8 1179.55 67.6328   4
   0   3  -7 2520.56 64.1761   3
   0  -3   7 2453.11 82.4328   4
   0   3  -7 2284.65 68.7743   2
   0  -3   6 450.877 49.3255   4
   0   3  -6 443.584 40.4009   2
   0   3  -5 12877.3 122.419   2
   0  -3   5 12730.8 137.834   4
   0   3  -4 5182.64 70.9509   2
   0  -3   4 5174.44 84.5012   4
   0  -3   3 16.6345 28.0903   4
   0   3  -3-8.66887 18.9949   2
   0  -3   2 24260.8 137.685   3
   0   3  -2 24149.9 119.841   2
   0  -3   2 24475.4 145.677   4
   0  -3   1 55502.1 202.726   3
   0   3  -1 55885.7 168.122   2
   0   3   0 440.645 23.5092   2
   0  -3   0 448.799 33.1412   3
   0   3   1 1260.25 23.8047   0
   0  -3  -1 1236.16 40.0218   3
   0   3   1 1395.27 37.3362   2
   0  -3  -2 4994.57 72.3114   3
   0  -3  -3 2850.88 60.2163   3
   0  -3  -3 2665.01 31.4562   0
   0  -3  -4 851.896 41.7798   3
   0  -3  -5 1043.21 48.4975   3
   0  -3  -6 37.9897 34.2794   3
   0  -3  -7 123.799 37.9749   3
   0  -3  -8 2391.98 80.9122   3
   0  -3  -9 2740.23 90.5982   3
   0  -3 -10 89.7596 47.2624   3
   0  -3 -11 119.179 44.1462   3
   0  -3 -12 170.366 50.6424   3
   0  -3 -13 336.933 75.7057   2
   0  -4  14 460.225 73.4755   4
   0  -4  13-111.720 49.5648   4
   0   4 -13 218.579 58.7384   2
   0  -4  12 306.380 66.4852   4
   0   4 -12 305.426 54.6479   2
   0  -4  11 7.61072 46.5327   4
   0   4 -11 48.7876 45.4764   2
   0  -4  10-147.965 49.9976   4
   0   4 -10 21.5490 43.0029   2
   0   4  -9 117.812 34.0755   3
   0  -4   9 131.558 53.3844   4
   0   4  -9 58.5742 38.7705   2
   0   4  -8 922.816 50.3372   3
   0   4  -8 917.601 53.6378   2
   0  -4   8 822.454 63.1137   4
   0  -4   7 3271.64 93.2405   4
   0   4  -7 3246.72 79.7498   2
   0   4  -6 6260.70 96.2130   2
   0  -4   6 6452.90 114.560   4
   0   4  -5 267.931 28.7248   2
   0  -4   5 262.728 39.8096   4
   0  -4   4 1284.41 52.4072   4
   0   4  -4 1376.50 42.0688   2
   0  -4   3 9465.11 111.034   4
   0   4  -3 9584.40 90.5305   2
   0   4  -2 6228.69 69.8424   2
   0  -4   2 6231.28 86.8340   4
   0  -4   2 6302.77 83.9707   3
   0  -4   1 10034.4 102.416   3
   0   4  -1 10108.6 85.7467   2
   0   4   0 12084.0 95.7724   2
   0  -4   0 11693.1 111.562   3
   0  -4  -1 7530.95 91.8581   3
   0   4   1 7581.16 83.8282   2
   0   4   2 15214.4 124.589   2
   0  -4  -2 15417.6 135.907   3
   0   4   2 14627.8 74.3623   0
   0  -4  -3 2473.88 64.9469   3
   0  -4  -4 1786.50 59.7211   3
   0  -4  -4 1741.80 28.4059   0
   0  -4  -5 59.9212 34.4322   3
   0  -4  -6 75.4296 39.2962   3
   0  -4  -7 37.1299 40.0364   3
   0  -4  -8 8322.72 142.448   3
   0  -4  -9 99.2689 48.8993   3
   0  -4 -10 171.758 53.5274   3
   0  -4 -11 502.173 63.2232   3
   0  -4 -12 256.288 56.3703   3
   0  -5  13 412.706 58.4016   4
   0  -5  12 187.261 60.6247   4
   0  -5  11 521.905 66.3616   4
   0   5 -11 384.190 52.4087   2
   0   5 -10 955.613 64.1666   2
   0  -5  10 994.422 72.7231   4
   0   5  -9 155.713 35.5900   3
   0  -5   9 141.083 49.0799   4
   0   5  -9 126.172 43.2934   2
   0  -5   8 6.87344 48.4389   4
   0   5  -8 86.2912 37.1835   2
   0   5  -7 3773.19 84.1524   2
   0  -5   7 3865.18 101.831   4
   0   5  -6 2559.94 66.0512   2
   0  -5   6 2477.73 81.0383   4
   0  -5   5 2260.68 74.8102   4
   0   5  -5 2192.53 56.4359   2
   0   5  -4 3632.71 66.1438   2
   0  -5   4 3708.52 84.8813   4
   0   5  -3 227.176 25.8372   2
   0  -5   3 219.824 40.0060   3
   0  -5   3 229.425 37.1301   4
   0  -5   2 8782.45 114.670   4
   0   5  -2 8939.29 89.9579   2
   0  -5   2 9163.33 113.015   3
   0  -5   1 11051.0 121.467   3
   0   5  -1 11578.5 105.772   2
   0  -5   0 17566.7 152.824   3
   0   5   0 17376.6 129.295   2
   0  -5  -1 3048.25 71.3506   3
   0   5   1 2957.20 61.8598   2
   0   5   2 115.573 15.8242   0
   0   5   2 138.979 33.8291   2
   0  -5  -2 104.802 35.9371   3
   0  -5  -3 4.00426 35.8952   3
   0  -5  -4 72.4729 39.0972   3
   0  -5  -5 92.5903 41.4058   3
   0  -5  -6 469.274 52.6220   3
   0  -5  -7 1147.85 70.7041   3
   0  -5  -8 638.369 61.0856   3
   0  -5  -9 55.9933 53.3000   3
   0  -5 -10 614.832 69.2095   3
   0  -5 -11 299.508 61.6149   3
   0  -5 -12 141.808 60.4777   3
   0  -6  13 429.085 72.6174   4
   0  -6  12-153.257 55.2242   4
   0  -6  11 832.627 72.1591   4
   0  -6  10 369.303 63.8772   4
   0  -6   9 1738.57 87.9265   4
   0   6  -8 6568.83 117.719   2
   0  -6   8 7045.48 148.138   4
   0   6  -7 609.918 45.0050   2
   0  -6   7 516.126 58.4533   4
   0  -6   6 842.583 60.5006   4
   0   6  -6 743.997 42.2302   2
   0  -6   5 1234.85 64.4281   4
   0   6  -5 1192.55 46.8621   2
   0   6  -4 102.580 27.4357   2
   0  -6   4 155.918 42.9904   4
   0  -6   3 419.322 46.1975   4
   0   6  -3 462.955 31.9134   2
   0  -6   3 449.255 46.9835   3
   0  -6   2 3032.09 80.1087   4
   0   6  -2 3096.21 61.5704   2
   0  -6   2 3129.02 80.2592   3
   0   6  -1 5245.35 78.2234   2
   0  -6   1 5052.44 56.5172   5
   0  -6   1 5290.11 98.7563   3
   0  -6   0 330.841 46.4942   3
   0   6   0 323.870 32.6323   2
   0  -6  -1 8563.26 126.146   3
   0   6   1 8751.07 108.088   2
   0  -6  -2 12064.5 147.464   3
   0   6   2 12008.9 133.555   2
   0  -6  -3 3331.11 87.0359   3
   0  -6  -4-18.1759 42.7237   3
   0  -6  -5-206.108 47.9570   3
   0  -6  -6 2649.56 91.6665   3
   0  -6  -7 3830.61 110.658   3
   0  -6  -8 2093.55 95.3427   3
   0  -6  -9 262.435 57.5953   3
   0  -6 -10 257.593 62.7098   3
   0  -6 -11 40.1610 61.4912   3
   0  -6 -12-83.8601 66.6736   3
   0  -7  12 782.639 76.4719   4
   0  -7  11 391.701 68.9324   4
   0  -7  10 1511.12 86.1354   4
   0  -7   9 1354.42 82.0891   4
   0  -7   8 3205.18 110.045   4
   0  -7   7 5244.97 130.405   4
   0  -7   6 533.413 55.9110   4
   0  -7   5 35.0610 40.1796   4
   0   7  -5 18.0811 27.7729   2
   0  -7   4 65.6201 41.3600   4
   0   7  -4 23.0072 27.0763   2
   0  -7   3 82.0062 44.9330   4
   0  -7   3 8.09070 44.0461   3
   0   7  -3 16.5666 26.7566   2
   0   7  -2-10.0614 25.9622   2
   0  -7   2 32.6850 45.8848   3
   0  -7   2 30.1812 39.0187   4
   0  -7   1 46.9031 46.8258   3
   0   7  -1 42.5292 26.3358   2
   0  -7   0 2520.63 81.0967   3
   0   7   0 2442.03 65.3847   2
   0   7   1 21.1340 33.8374   2
   0  -7  -1 97.6290 48.5909   3
   0  -7  -2 4.36751 47.2122   3
   0   7   2 13.7884 35.3095   2
   0  -7  -3 3637.85 101.368   3
   0  -7  -4 185.235 54.0448   3
   0  -7  -5 655.980 63.0332   3
   0  -7  -6 253.530 56.4916   3
   0  -7  -7 99.9916 60.8527   3
   0  -7  -8 114.469 63.6991   3
   0  -8  12 269.094 66.6864   4
   0  -8  11 57.1494 59.7427   4
   0  -8  10-33.3935 50.7270   4
   0  -8   9 23.7704 46.4869   4
   0  -8   8 59.6610 51.2612   4
   0  -8   7 1147.67 77.4822   4
   0  -8   6 558.823 65.8568   4
   0  -8   5 1758.98 79.9074   4
   0  -8   4 1924.77 83.9949   4
   0  -8   3 1306.46 71.3554   4
   0  -8   3 1244.44 74.3238   3
   0  -8   2 476.945 54.5674   4
   0  -8   2 405.768 58.2443   3
   0  -8   1 619.941 64.8297   3
   0   8  -1 631.370 45.0492   2
   0  -8   0 4100.64 108.040   3
   0   8   0 4135.76 87.7415   2
   0  -8  -1 633.392 65.6058   3
   0   8   1 576.173 46.1438   2
   0  -8  -2 3643.11 108.677   3
   0   8   2 3363.90 85.6505   2
   0  -8  -3 100.999 60.4492   3
   0  -8  -4 839.325 71.3498   3
   0  -8  -5 1470.40 82.3308   3
   0  -8  -6-41.2552 55.5971   3
   0  -8  -7 49.6026 64.1604   3
   0  -8  -8 55.9587 68.5312   3
   0  -9  11 80.3242 59.1872   4
   0  -9  10 170.187 57.1816   4
   0  -9   9-231.784 52.4167   4
   0  -9   8 645.405 70.7913   4
   0  -9   7 25.1122 44.1521   4
   0  -9   6 194.203 55.5153   4
   0  -9   5 99.3321 50.9268   4
   0  -9   4 489.823 57.5193   4
   0  -9   3 2129.24 90.6129   4
   0  -9   3 1824.96 89.7406   3
   0  -9   2 2231.61 89.4337   4
   0  -9   2 2294.85 95.5134   3
   0  -9   1 135.928 57.2752   3
   0  -9   0 985.147 76.3720   3
   0  -9  -1 672.111 75.5276   3
   0  -9  -2 650.812 78.9897   3
   0  -9  -3 1208.58 81.7886   3
   0  -9  -4 39.1329 57.1938   3
   0  -9  -5 697.007 76.5340   3
   0  -9  -6 1301.92 87.2731   3
   0  -9  -7 1016.92 91.5648   3
   0  -9  -8 368.276 84.0493   3
   0 -10  10 66.3672 64.1666   4
   0 -10   9-192.611 59.0740   4
   0 -10   8 68.4294 51.1370   4
   0 -10   7 261.534 55.0701   4
   0 -10   6 7.71738 51.1594   4
   0 -10   5 159.492 52.0988   4
   0 -10   4-111.010 49.0486   4
   0 -10   3 87.0203 48.8415   4
   0 -10   3 22.9950 58.6979   3
   0 -10   2 307.238 68.4029   3
   0 -10   2 132.138 49.9232   4
   0 -10   1 473.147 64.1166   4
   0 -10   1 246.983 68.4831   3
   0 -10   0 97.2457 69.7266   3
   0 -10  -1 284.155 67.4040   3
   0 -10  -2 637.822 83.4230   3
   0 -10  -3 365.057 85.1144   3
   0 -10  -4 934.301 86.8052   3
   0 -10  -5 1537.02 103.210   3
   0 -10  -6 1093.58 96.7413   3
   0 -10  -7 794.242 93.5827   3
   0 -11   9 114.261 61.2900   4
   0 -11   8-12.0026 63.2219   4
   0 -11   7 183.224 54.7701   4
   0 -11   6 304.561 50.6402   4
   0 -11   5 407.658 60.5423   4
   0 -11   4-138.405 45.1414   4
   0 -11   3 593.157 78.7161   3
   0 -11   3 747.034 72.6716   4
   0 -11   2-3.18699 63.0989   3
   0 -11   2-145.827 46.9951   4
   0 -11   1-23.1042 72.8382   3
   0 -11   1 190.345 49.0371   4
   0 -11   0 42.3261 71.0493   3
   0 -11  -1 271.723 88.6208   3
   0 -11  -2 249.676 83.7767   3
   0 -11  -3 706.536 97.5323   3
   0 -11  -4 1122.32 96.7108   3
   0 -11  -5 757.561 84.5178   3
   0 -12   7 603.635 66.2295   4
   0 -12   6 198.896 63.7420   4
   0 -12   5 111.044 50.0653   4
   0 -12   4 97.3842 57.7100   4
   0 -12   3 121.989 78.9071   3
   0 -12   3 58.7077 53.3980   4
   0 -12   2 239.225 60.1094   4
   0 -12   2 217.978 88.8325   3
   0 -12   1 316.677 54.2262   4
   0 -12   1 412.985 91.2805   3
   0 -12   0-108.345 84.6615   3
   0 -12  -1 95.0651 84.9207   3
   0 -12  -2 255.580 91.7761   3
   0 -13   3 361.605 102.572   3
   0 -13   1 357.053 106.093   3
   1 -13  -1 144.630 95.9992   3
   1 -13   0 1019.69 81.7010   4
   1 -13   0 320.554 82.5266   3
   1 -13   1-125.153 65.2670   4
   1 -13   1 567.005 87.5641   3
   1 -13   2 498.855 60.5332   4
   1 -13   2-12.6173 82.1397   3
   1 -13   3 28.5472 57.6513   4
   1 -13   4 404.705 67.2709   4
   1 -12  -4 345.329 91.5330   3
   1 -12  -3 333.096 86.1999   3
   1 -12  -2 562.072 88.6158   3
   1 -12  -1 145.514 75.0499   3
   1 -12   0-138.262 77.1275   3
   1 -12   0 460.316 63.2735   4
   1 -12   1-111.837 46.6563   4
   1 -12   1 93.2769 65.7400   3
   1 -12   2 85.6691 52.2114   4
   1 -12   2 63.0666 77.2456   3
   1 -12   3-9.46135 71.5374   3
   1 -12   3-173.037 47.1967   4
   1 -12   4 185.598 47.8887   4
   1 -12   5-53.4749 53.2089   4
   1 -12   6 333.971 62.6222   4
   1 -11  -6 81.5976 83.5316   3
   1 -11  -5-4.36071 75.3270   3
   1 -11  -4 90.8773 65.5380   3
   1 -11  -3 248.567 82.4671   3
   1 -11  -2-72.5760 72.1690   3
   1 -11  -1 18.1861 64.8974   3
   1 -11   0 1430.65 96.3717   3
   1 -11   1 1730.22 89.7780   4
   1 -11   1 1479.79 89.5270   3
   1 -11   2 496.462 72.7222   3
   1 -11   2 358.659 57.6217   4
   1 -11   3 53.4087 51.4308   4
   1 -11   3-3.86439 66.1870   3
   1 -11   4 498.755 64.4939   4
   1 -11   5-77.3603 41.4857   4
   1 -11   6 200.274 50.8484   4
   1 -11   7 6.14105 50.2795   4
   1 -11   8 442.707 60.6373   4
   1 -10  -8 66.1205 67.9152   3
   1 -10  -7 301.521 72.6685   3
   1 -10  -6 320.103 76.2723   3
   1 -10  -5 531.823 75.9446   3
   1 -10  -4 127.786 55.6646   3
  -1  10   3 124.248 51.5753   2
   1 -10  -3 130.679 58.5462   3
  -1  10   2 399.861 55.7471   2
   1 -10  -2 579.276 77.0422   3
  -1  10   1 204.979 50.6606   2
   1 -10  -1 196.145 64.0820   3
   1 -10   0 131.293 59.0017   3
   1 -10   1 60.6272 49.4496   4
   1 -10   1-54.0375 53.3902   3
   1 -10   2 416.588 67.3725   3
   1 -10   2 230.567 56.0140   4
   1 -10   3 454.259 67.5008   3
   1 -10   3 453.915 56.7849   4
   1 -10   4 791.875 68.7806   4
   1 -10   5 628.014 62.5601   4
   1 -10   6 644.431 64.5626   4
   1 -10   7-223.450 50.6856   4
   1 -10   8 167.941 52.5184   4
   1 -10   9-193.516 59.5978   4
   1 -10  10-5.86207 59.0721   4
   1  -9  -8-52.4583 63.4896   3
   1  -9  -7 155.354 67.3541   3
   1  -9  -6-24.6098 59.7916   3
   1  -9  -5 69.8857 59.8731   3
   1  -9  -4 179.061 60.7782   3
  -1   9   3 81.9332 48.9055   2
   1  -9  -3 45.8995 55.4832   3
  -1   9   2 3241.84 95.0211   2
   1  -9  -2 3524.86 107.937   3
  -1   9   1 593.500 56.3963   2
   1  -9  -1 607.771 68.0609   3
   1  -9   0 678.720 66.5013   3
  -1   9   0 742.836 54.5639   2
   1  -9   1 3174.66 99.2807   4
  -1   9  -1 3035.37 82.7651   2
   1  -9   1 2907.26 96.7051   3
   1  -9   2 623.611 59.4337   4
   1  -9   2 577.570 64.4185   3
  -1   9  -2 485.257 51.5404   2
   1  -9   3 1810.72 81.5289   3
   1  -9   3 1906.21 83.6553   4
  -1   9  -3 1874.90 69.5507   2
   1  -9   4 1767.79 82.7156   4
   1  -9   5 1364.60 80.4448   4
   1  -9   6 2476.78 102.069   4
   1  -9   7 1185.05 77.7104   4
   1  -9   8-143.940 51.3424   4
   1  -9   9 156.266 51.4225   4
   1  -9  11-188.014 57.0383   4
   1  -8  -6-48.7649 61.0776   3
   1  -8  -5-64.4387 56.4772   3
   1  -8  -4 191.923 55.3555   3
  -1   8   3 595.159 59.6151   2
   1  -8  -3 774.473 66.5905   3
  -1   8   2 626.127 54.8373   2
   1  -8  -2 705.631 64.7187   3
  -1   8   1 3693.09 90.2110   2
   1  -8  -1 3895.69 101.658   3
  -1   8   0 1075.36 55.3204   2
   1  -8   0 1082.76 65.4420   3
  -1   8  -1 221.530 40.0742   2
   1  -8   1 282.874 51.8102   3
   1  -8   2 324.955 47.2764   4
  -1   8  -2 441.286 41.1749   2
   1  -8   2 410.503 50.8599   3
   1  -8   3 1449.74 70.3857   4
   1  -8   3 1449.40 68.2532   3
  -1   8  -3 1359.42 56.6984   2
   1  -8   4 4182.73 108.394   4
  -1   8  -4 4026.85 89.8411   2
  -1   8  -5 2224.92 75.1594   2
   1  -8   5 2186.36 87.9571   4
   1  -8   6 709.914 66.0313   4
  -1   8  -6 712.214 53.2244   2
   1  -8   7 1881.86 92.3593   4
   1  -8   8 1497.37 85.1429   4
   1  -8   9 123.264 50.8585   4
   1  -8  10 74.7637 51.2019   4
   1  -8  12 363.063 60.4200   4
   1  -7 -11 171.186 74.6657   3
   1  -7 -10 197.569 63.7887   3
   1  -7  -9 82.0390 59.5709   3
   1  -7  -8 471.189 65.6316   3
   1  -7  -7 102.291 54.0148   3
   1  -7  -6 1961.41 88.1963   3
   1  -7  -5 828.019 66.3108   3
   1  -7  -4 438.606 56.3473   3
  -1   7   3 4716.83 99.8373   2
   1  -7  -3 4393.30 103.816   3
  -1   7   2 12766.5 151.537   2
   1  -7  -2 12401.9 156.271   3
  -1   7   1 13995.3 150.934   2
   1  -7  -1 13786.8 161.799   3
  -1   7   0 2697.15 70.3528   2
   1  -7   0 2814.07 78.1144   3
   1  -7   1 898.904 53.3479   3
  -1   7  -1 832.868 46.7102   2
  -1   7  -2 1657.60 57.0911   2
   1  -7   2 1591.36 64.9907   4
   1  -7   2 1711.24 65.5189   3
   1  -7   3 1301.75 59.3037   3
  -1   7  -3 1245.31 52.7589   2
   1  -7   3 1309.74 60.9996   4
  -1   7  -4 651.482 45.7019   2
   1  -7   4 706.248 53.2053   4
   1  -7   5 788.885 58.4445   4
  -1   7  -5 746.637 50.1746   2
  -1   7  -6 1860.23 68.9573   2
   1  -7   6 1847.45 79.2927   4
  -1   7  -7 975.276 58.4254   2
   1  -7   7 906.647 65.0140   4
  -1   7  -8 6182.53 127.487   2
   1  -7   8 6745.29 149.700   4
   1  -7   9 1639.09 87.5528   4
  -1   7  -9 1589.25 77.2070   2
   1  -7  10-113.875 53.3117   4
   1  -7  11 233.085 53.7360   4
   1  -7  12 86.9083 60.2657   4
   1  -6 -12 112.048 63.7577   3
   1  -6 -11-40.2835 52.7435   3
   1  -6 -10-69.3673 58.9147   3
   1  -6  -9-10.0787 53.4464   3
   1  -6  -8 213.500 53.1030   3
   1  -6  -7 5337.16 123.802   3
   1  -6  -6 37.7874 51.0882   3
   1  -6  -5 1120.64 64.4512   3
   1  -6  -4 4997.22 105.070   3
   1  -6  -3 464.311 48.8356   3
  -1   6   3 552.287 49.0123   2
  -1   6   2 23126.8 186.793   2
   1  -6  -2 23187.7 192.661   3
   1  -6  -1 2305.43 67.1896   3
  -1   6   1 2241.08 62.7110   2
   1  -6   0 2659.89 69.8266   3
  -1   6   0 2780.36 66.9586   2
   1  -6   1 4901.16 86.7606   3
  -1   6  -1 4741.96 82.1215   2
   1  -6   2 2467.50 69.8138   4
  -1   6  -2 2426.36 61.5137   2
   1  -6   2 2528.60 66.3222   3
   1  -6   3 2273.11 65.0664   3
   1  -6   3 2198.50 70.2085   4
  -1   6  -3 2167.98 61.9755   2
  -1   6  -4 1029.28 49.6055   2
   1  -6   4 1048.76 54.3715   4
   1  -6   5 1101.00 58.9043   4
  -1   6  -5 1136.70 53.0444   2
   1  -6   6 2402.60 82.4856   4
  -1   6  -6 2232.83 71.7276   2
   1  -6   7 108.766 43.5216   4
  -1   6  -7 148.641 41.1042   2
  -1   6  -8 642.983 55.8052   2
   1  -6   8 631.322 65.6196   4
  -1   6  -9 192.813 46.7030   2
   1  -6   9 121.599 49.4628   4
  -1   6 -10 380.353 51.8605   2
   1  -6  10 442.172 66.3124   4
   1  -6  11 392.570 63.1682   4
  -1   6 -11 465.680 59.6437   2
  -1   6 -12 1381.31 79.0145   2
   1  -6  12 1466.32 90.7767   4
   1  -6  13 843.693 74.8280   4
   1  -5 -13-123.767 61.5994   3
   1  -5 -12-27.8976 53.6675   3
   1  -5 -11-29.0262 48.2447   3
   1  -5 -10 72.4667 56.1562   3
   1  -5  -9 77.1068 52.9915   3
   1  -5  -8 3646.24 105.396   3
   1  -5  -7 2794.63 89.0476   3
   1  -5  -6 1653.30 70.8097   3
   1  -5  -5 1015.24 57.5618   3
   1  -5  -4 6981.97 109.686   3
  -1   5   3 10402.9 124.014   2
   1  -5  -3 10471.1 126.707   3
  -1   5   2 21228.0 163.672   2
   1  -5  -2 21005.3 167.004   3
   1  -5  -1 6.36213 30.2207   3
  -1   5   1-24.6501 28.4973   2
  -1   5   0 3943.56 70.5745   2
   1  -5   0 3943.92 70.7717   3
   1  -5   1 594.308 36.4720   3
  -1   5  -1 582.760 36.1672   2
  -1   5  -2 807.600 38.7186   2
   1  -5   2 854.520 43.9740   4
   1  -5   2 796.638 39.9265   3
  -1   5  -3 999.343 42.9985   2
   1  -5   3 997.399 47.1080   4
  -1   5  -4 912.535 44.8410   2
   1  -5   4 984.015 50.6846   4
  -1   5  -5 36.4101 28.8041   2
   1  -5   5-2.98821 32.0652   4
   1  -5   6 1389.24 63.4492   4
  -1   5  -6 1350.06 58.3289   2
   1  -5   7 723.082 58.9555   4
  -1   5  -7 752.661 52.9047   2
  -1   5  -8 2946.32 88.4179   2
   1  -5   8 2967.67 98.3493   4
  -1   5  -9 421.881 57.1237   2
   1  -5   9 536.100 64.5332   4
   1  -5  10 777.177 67.8166   4
  -1   5 -10 863.093 66.5995   2
   1  -5  11 360.841 60.0122   4
  -1   5 -11 341.006 59.6740   2
  -1   5 -12-144.322 53.6430   2
   1  -5  12 185.684 58.7044   4
  -1   5 -13-6.22538 55.6722   2
   1  -4 -13 48.6659 61.0105   3
   1  -4 -12 90.8894 52.1811   3
   1  -4 -11-10.9773 47.0216   3
   1  -4 -10 17.5535 50.3546   3
   1  -4  -9 143.198 50.7342   3
   1  -4  -8 39.6451 47.9856   3
   1  -4  -7 1393.38 64.6704   3
   1  -4  -6 524.636 45.3829   3
   1  -4  -5-4.47336 35.9915   3
   1  -4  -4 5422.39 88.9941   3
   1  -4  -3 3166.23 66.8818   3
  -1   4   3 3634.30 71.3775   2
   1  -4  -2 10637.1 107.009   3
  -1   4   2 10803.7 108.297   2
  -1   4   1 1543.68 44.2293   2
   1  -4  -1 1434.51 42.6721   3
   1  -4   0 1433.04 41.0597   3
  -1   4   0 1518.72 43.2266   2
   1  -4   1 3842.58 65.1344   4
  -1   4  -1 3712.52 60.7646   2
   1  -4   1 3809.92 58.4274   3
   1  -4   2 2099.99 53.6090   4
   1  -4   2 2108.86 47.3512   3
  -1   4  -2 1947.10 50.4987   2
   1  -4   3 4848.79 80.9001   4
  -1   4  -3 4777.28 75.0653   2
   1  -4   4 4396.66 81.6577   4
  -1   4  -4 4447.39 79.0455   2
  -1   4  -5 703.313 43.0629   2
   1  -4   5 663.614 43.6096   4
  -1   4  -6 1.23773 30.8333   2
   1  -4   6-50.7799 40.2486   4
  -1   4  -7 4272.08 77.0035   3
   1  -4   7 4318.58 105.042   4
  -1   4  -7 4333.74 98.4214   2
   1  -4   8 116.072 51.6921   4
  -1   4  -8 98.4959 42.0301   2
  -1   4  -9 1277.60 71.8420   2
   1  -4   9 1244.15 77.4581   4
   1  -4  10 186.723 56.4992   4
  -1   4 -10 108.222 44.3290   2
  -1   4 -11-6.60745 42.1799   2
   1  -4  11-77.0957 47.0442   4
   1  -4  12 574.366 71.4672   4
  -1   4 -12 691.974 75.7808   2
  -1   4 -13 165.305 59.7436   2
   1  -4  13 579.260 69.1273   4
   1  -3 -14 326.089 66.1929   3
   1  -3 -12 122.948 49.2402   3
   1  -3 -11 27.6623 47.4241   3
   1  -3 -10 423.655 57.3351   3
   1  -3  -9 2495.66 87.1367   3
   1  -3  -8-1.04510 39.1942   3
   1  -3  -7 72.2438 37.4928   3
   1  -3  -6 242.789 37.3905   3
   1  -3  -5 1269.89 49.0391   3
   1  -3  -4 4257.70 73.1701   3
  -1   3   3 1981.00 51.7170   2
   1  -3  -3 2045.99 51.2957   3
  -1   3   2 3926.32 63.2555   2
   1  -3  -2 3946.48 60.8459   3
  -1   3   1 4532.47 61.9052   2
   1  -3  -1 4472.14 58.2043   3
   1  -3   0 649.954 27.4053   3
  -1   3   0 607.160 28.1450   2
  -1   3  -1 2065.26 43.9247   2
   1  -3   1 2035.06 44.0865   4
   1  -3   1 2086.68 38.0487   3
   1  -3   2 412.777 28.8946   4
  -1   3  -2 337.924 25.8441   2
  -1   3  -3 2087.11 50.0621   2
   1  -3   3 2091.20 50.9349   4
  -1   3  -4 595.643 36.4031   2
   1  -3   4 612.054 38.1964   4
  -1   3  -5-16.1109 31.0462   2
   1  -3   5 2.57040 33.7734   4
   1  -3   6 6276.56 110.838   4
  -1   3  -6 5905.94 80.7644   3
  -1   3  -6 6064.69 105.542   2
  -1   3  -7 59.1250 38.8897   2
   1  -3   7 59.4793 42.3513   4
  -1   3  -7 78.5431 26.9832   3
   1  -3   8 2716.97 91.8400   4
  -1   3  -8 2614.79 84.4896   2
  -1   3  -8 2689.63 64.7654   3
   1  -3   9 206.082 52.9322   4
  -1   3  -9 166.642 51.1262   2
  -1   3 -10-30.5381 53.0003   2
   1  -3  10-201.112 46.3616   4
   1  -3  11-151.106 40.0720   4
  -1   3 -11-203.254 47.9992   2
  -1   3 -12-52.9453 61.6637   2
  -1   3 -13 20.3046 63.9921   2
   1  -2 -14 509.782 71.5492   3
   1  -2 -14 369.983 73.7789   2
   1  -2 -13 240.559 54.1538   3
   1  -2 -12 136.718 43.6360   3
   1  -2 -11-25.0358 37.5061   3
   1  -2 -10-26.1167 42.4589   3
   1  -2  -9 10669.9 150.869   3
   1  -2  -8 329.687 42.5061   3
   1  -2  -7 417.159 40.7200   3
   1  -2  -6 2947.74 69.0626   3
   1  -2  -5 28.7108 29.0556   3
   1  -2  -4 18303.1 131.441   3
   1  -2  -3 63606.0 216.248   3
   1  -2  -2 145246. 286.593   3
  -1   2   2 144149. 310.986   2
  -1   2   1 48369.0 165.977   2
   1  -2  -1 46138.9 143.565   3
   1  -2  -1 46470.1 133.180   1
  -1   2   0 101055. 226.429   2
  -1   2  -1 353815. 1811.66   2
   1  -2   1 356785. 1627.38   4
   1  -2   2 9021.32 78.3674   4
  -1   2  -2 9059.21 83.6907   2
  -1   2  -3 7.75782 25.4497   2
   1  -2   3 18.5643 22.6307   4
  -1   2  -4-40.3487 28.8929   2
  -1   2  -4 14.5091 16.5247   3
   1  -2   4-3.92968 27.6819   4
  -1   2  -5 3270.69 73.7133   2
   1  -2   5 3331.47 74.5357   4
  -1   2  -5 3219.25 53.2176   3
   1  -2   6 44679.6 277.543   4
  -1   2  -6 45223.8 270.835   2
  -1   2  -6 44036.9 207.726   3
  -1   2  -7 760.383 38.8178   3
   1  -2   7 827.150 57.2709   4
  -1   2  -7 783.233 56.7256   2
   1  -2   8 2166.90 83.7824   4
  -1   2  -8 2179.41 82.0720   2
  -1   2  -8 2211.80 60.5814   3
  -1   2  -9 697.675 63.9578   2
   1  -2   9 571.691 60.4045   4
  -1   2 -10 243.120 53.1012   2
   1  -2  10 309.031 58.4506   4
  -1   2 -11-16.4443 49.7640   2
  -1   2 -12-10.9394 51.0475   2
   1  -1 -14-44.2793 55.5988   2
   1  -1 -13 342.248 71.6118   2
   1  -1 -13 270.059 48.6032   3
   1  -1 -12 447.769 54.5228   3
   1  -1 -11 25.5278 39.3040   3
   1  -1 -10 627.300 53.2540   3
   1  -1  -9 183.489 41.6768   3
   1  -1  -8 28.7665 34.4034   3
   1  -1  -7 79.5134 30.9071   3
   1  -1  -6 1735.09 55.2632   3
   1  -1  -5 40210.9 205.096   3
   1  -1  -4 162265. 368.487   3
   1  -1  -3 289443. 1738.09   3
   1  -1  -2 117827. 237.718   3
  -1   1   2 118003. 236.383   2
   1  -1  -2 117473. 938.215   1
   1  -1  -1 20986.6 71.5035   0
  -1   1   1 21835.0 71.8985   0
  -1   1  -1 21036.0 100.809   2
  -1   1  -2 1216.99 38.2298   2
   1  -1   2 1306.28 33.9714   4
  -1   1  -3 1520.55 42.8103   2
  -1   1  -3 1562.97 28.7747   3
   1  -1   3 1575.23 43.0776   4
  -1   1  -4 162.280 18.7995   3
   1  -1   4 166.533 29.9748   4
  -1   1  -4 156.593 31.9400   2
   1  -1   5 2264.96 63.0946   4
  -1   1  -5 2332.72 64.8869   2
  -1   1  -5 2234.14 46.9527   3
  -1   1  -6 1696.08 65.6621   2
  -1   1  -6 1651.46 46.5494   3
   1  -1   6 1623.94 64.3151   4
   1  -1   7 5394.04 109.171   4
  -1   1  -7 5379.32 110.613   2
  -1   1  -7 5185.55 82.3114   3
  -1   1  -8 1340.08 49.9577   3
  -1   1  -8 1379.72 74.0697   2
  -1   1  -9 256.012 54.8771   2
  -1   1 -10 133.539 56.1972   2
  -1   1 -11 26.3691 56.1213   2
  -1   1 -12 174.407 57.2895   2
  -1   1 -13 60.9673 69.4628   2
   1   0 -14 232.934 71.3874   2
   1   0 -13 296.132 61.9785   2
   1   0 -13 502.270 55.1204   3
   1   0 -12 17.3352 57.6434   2
   1   0 -12 97.0765 38.7859   3
   1   0 -11 139.445 53.9496   2
   1   0 -11-6.75806 36.8565   3
   1   0 -10 2486.99 84.3379   3
   1   0  -9 27.4984 36.5593   3
   1   0  -8-7.07729 33.5032   3
  -1   0   7 669.643 51.0562   4
   1   0  -7 720.450 43.6931   3
  -1   0   6 29155.4 212.109   4
   1   0  -6 29587.1 190.436   3
  -1   0   5 80989.5 315.808   4
   1   0  -5 81290.4 281.767   3
   1   0  -4 68263.4 233.607   3
  -1   0   4 68221.1 255.813   4
  -1   0   3 43962.0 175.548   4
   1   0  -3 44114.7 166.264   3
  -1   0   2 6526.46 55.9575   4
   1   0  -2 6636.24 55.4216   1
   1   0  -1 11.8035 14.0495   0
  -1   0   1 31.2138 17.0552   0
  -1   0   0 1224.76 25.4723   0
  -1   0  -1 606.765 24.3928   2
  -1   0  -2 6558.43 49.2699   3
  -1   0  -2 6661.98 70.3019   2
  -1   0  -3 48.6468 27.5267   2
  -1   0  -3 62.0367 16.0667   3
  -1   0  -4 200.521 32.7007   2
  -1   0  -4 172.244 19.7457   3
  -1   0  -5 2183.12 64.3222   2
  -1   0  -5 2144.17 47.5518   3
  -1   0  -6 3828.38 88.5940   2
  -1   0  -6 3761.65 66.1925   3
  -1   0  -7 521.973 36.6021   3
  -1   0  -7 526.432 55.2557   2
  -1   0  -8-16.4289 27.0247   3
  -1   0  -8-4.96963 45.7567   2
  -1   0  -9 398.393 62.4503   2
  -1   0  -9 326.925 36.8642   3
  -1   0 -10 1503.68 84.4495   2
  -1   0 -11 179.072 61.4312   2
  -1   0 -12 147.158 66.9049   2
  -1   0 -13-26.9286 63.2270   2
   1   1 -15 280.373 61.6581   2
   1   1 -14 185.729 59.2961   2
   1   1 -13 142.904 44.5106   3
   1   1 -13 325.390 59.3858   2
   1   1 -12 28.3372 37.5480   3
   1   1 -12 154.557 49.6272   2
   1   1 -11 33.6818 37.9021   3
   1   1 -11 112.178 48.1553   2
  -1  -1  10 231.582 54.9553   4
   1   1 -10 151.260 46.0368   2
   1   1 -10 84.1234 42.7857   3
   1   1  -9 668.135 53.2555   2
   1   1  -9 564.898 46.4158   3
  -1  -1   9 576.189 60.8715   4
   1   1  -8 1017.05 52.6959   3
   1   1  -8 1124.03 57.5551   2
  -1  -1   8 987.373 63.7407   4
  -1  -1   7 172.502 48.0573   4
   1   1  -7 254.107 35.9140   3
   1   1  -6 20875.3 160.766   3
  -1  -1   6 21012.3 182.850   4
  -1  -1   5 10387.6 117.543   4
   1   1  -5 10590.7 108.503   3
  -1  -1   4 2026.00 53.2567   4
  -1  -1   3 99.4509 27.8430   4
   1   1  -3 109.355 19.3749   1
  -1  -1   2 3133.97 45.1637   4
   1   1  -2 3121.83 38.7345   1
  -1  -1   1 143684. 922.821   4
  -1  -1   1 145656. 955.764   5
  -1  -1   0 121754. 909.534   0
  -1  -1   0 123771. 910.762   3
  -1  -1   0 124441. 928.423   5
   1   1   0 122222. 923.059   0
  -1  -1  -1 38031.9 130.359   3
  -1  -1  -1 37479.7 124.459   6
  -1  -1  -2 23698.8 114.736   3
  -1  -1  -3 106.282 21.1614   3
  -1  -1  -4 1380.29 39.3535   3
  -1  -1  -5 6034.67 80.6798   3
  -1  -1  -6 4.47691 26.6944   3
  -1  -1  -7 57.1935 29.1606   3
  -1  -1  -8 30.2896 31.4800   3
  -1  -1  -8 65.4287 51.1179   2
  -1  -1  -9 571.383 48.6762   3
  -1  -1  -9 544.507 66.0981   2
  -1  -1 -10 789.505 77.1830   2
  -1  -1 -11 43.3480 61.4103   2
  -1  -1 -12 97.5927 68.7313   2
  -1  -1 -13 113.759 73.2524   2
   1   2 -15 15.5019 50.6618   2
   1   2 -14 184.364 56.2982   2
   1   2 -13 352.402 63.9738   2
   1   2 -12 131.498 42.2717   3
   1   2 -12 213.423 51.0712   2
  -1  -2  12 196.475 59.9602   4
  -1  -2  11 278.526 56.8100   4
   1   2 -11 261.084 41.7785   3
   1   2 -11 412.319 55.8685   2
   1   2 -10 293.818 44.0013   3
   1   2 -10 340.692 47.4419   2
  -1  -2  10 187.459 53.7903   4
  -1  -2   9 1815.74 83.6308   4
   1   2  -9 1722.90 66.4705   3
   1   2  -9 1895.21 70.1615   2
   1   2  -8 1384.60 59.2837   2
   1   2  -8 1306.27 56.3120   3
  -1  -2   8 1293.69 70.7024   4
   1   2  -7 5962.25 95.3435   2
   1   2  -7 5843.56 98.1431   3
  -1  -2   7 5822.58 113.067   4
   1   2  -6 18928.0 146.255   2
  -1  -2   6 18477.2 175.887   4
  -1  -2   5 10939.1 123.482   4
   1   2  -5 11313.8 100.599   2
   1   2  -4 1872.34 37.9841   2
  -1  -2   4 1912.75 52.4906   4
  -1  -2   3 403.991 33.2534   4
   1   2  -3 436.219 18.5292   2
   1   2  -3 433.151 21.3646   1
  -1  -2   2 20984.4 96.7452   5
  -1  -2   2 20548.9 122.689   4
   1   2  -2 20800.4 94.8580   1
  -1  -2   1 265264. 1706.85   3
  -1  -2   1 266703. 1406.30   5
   1   2   0 31910.4 132.601   0
  -1  -2   0 32503.0 134.445   5
  -1  -2   0 32391.6 148.883   3
  -1  -2  -1 10802.5 78.0091   0
   1   2   1 10722.6 77.4463   0
  -1  -2  -1 11022.6 89.3631   3
  -1  -2  -2 179.237 18.3673   6
  -1  -2  -2 164.654 25.6065   3
  -1  -2  -3 303.805 18.5674   6
  -1  -2  -3 309.177 28.5702   3
  -1  -2  -4 1743.83 49.4821   3
  -1  -2  -5 52.5746 27.7081   3
  -1  -2  -6 284.563 34.8771   3
  -1  -2  -7 129.985 33.7216   3
  -1  -2  -8 79.2637 38.8144   3
  -1  -2  -9 6062.84 118.982   3
  -1  -2 -10 392.219 63.8443   2
  -1  -2 -10 474.348 55.4082   3
  -1  -2 -11 156.891 70.2990   2
  -1  -2 -12 41.4538 69.3762   2
  -1  -3  14 339.166 69.3457   4
   1   3 -13-108.175 49.9543   2
  -1  -3  13-53.0500 62.5885   4
   1   3 -12 145.027 50.3775   2
  -1  -3  12 35.3541 47.5728   4
   1   3 -12 103.677 38.1787   3
  -1  -3  11 106.309 56.2276   4
   1   3 -11-11.8222 41.5296   2
   1   3 -11 77.0677 36.7384   3
   1   3 -10 29.1612 37.3555   2
   1   3 -10-17.7680 36.8810   3
  -1  -3  10-2.21404 48.3707   4
   1   3  -9 117.831 38.8948   3
  -1  -3   9 76.7689 52.1064   4
   1   3  -9 58.0260 34.2050   2
   1   3  -8 1375.12 59.5916   3
   1   3  -8 1369.42 56.5577   2
  -1  -3   8 1252.46 68.6069   4
  -1  -3   7 4777.87 105.718   4
   1   3  -7 4915.81 86.2038   2
  -1  -3   6 30975.6 231.363   4
   1   3  -6 31127.7 186.687   2
  -1  -3   5 20.0816 35.6346   4
   1   3  -5 13.1138 20.5621   2
   1   3  -4 88.3335 15.8821   1
  -1  -3   4 94.7051 34.4401   4
   1   3  -4 114.167 16.4266   2
   1   3  -3 4519.44 46.4966   2
   1   3  -3 4439.51 47.1047   1
  -1  -3   3 4346.83 73.4176   4
  -1  -3   2 2671.61 39.5611   5
  -1  -3   2 2796.43 59.4286   3
  -1  -3   2 2670.95 56.1303   4
  -1  -3   1 1543.75 47.1763   3
   1   3  -1 1562.55 27.2882   2
  -1  -3   1 1571.42 34.1926   5
  -1  -3   0 3275.08 60.2281   3
   1   3   0 3338.29 50.6570   0
  -1  -3  -1 476.742 34.4837   3
   1   3   1 437.167 25.2308   0
  -1  -3  -2 237.659 20.9196   0
  -1  -3  -2 233.299 28.7431   3
  -1  -3  -3 378.842 22.9056   6
  -1  -3  -3 353.561 36.1416   3
  -1  -3  -3 414.306 24.8701   0
  -1  -3  -4 1090.15 47.1939   3
  -1  -3  -4 1032.34 27.5694   6
  -1  -3  -5 267.243 37.6033   3
  -1  -3  -6 346.999 43.0522   3
  -1  -3  -7 1288.66 59.4133   3
  -1  -3  -8 2098.29 77.2515   3
  -1  -3  -9 47.4002 42.7810   3
  -1  -3 -10 813.534 63.8782   3
  -1  -3 -11 313.027 67.7958   2
  -1  -3 -12-63.2071 68.5715   2
  -1  -4  13 172.773 60.5826   4
  -1  -4  12 233.873 57.3987   4
  -1  -4  11 209.697 59.0201   4
   1   4 -11 352.629 47.2125   3
   1   4 -10 394.713 47.7301   3
   1   4 -10 370.009 45.6417   2
  -1  -4  10 518.392 65.4164   4
   1   4  -9 1792.09 65.1391   2
   1   4  -9 1854.57 71.0415   3
  -1  -4   9 1787.17 85.0053   4
   1   4  -8 176.996 33.1798   2
  -1  -4   8 75.4836 50.1749   4
  -1  -4   7 5639.30 116.413   4
   1   4  -7 5463.95 87.9100   2
   1   4  -6 7.34468 21.0219   2
  -1  -4   6 1.96264 41.8601   4
  -1  -4   5 1753.23 64.1598   4
   1   4  -5 1558.68 40.6561   2
   1   4  -4 6684.13 59.1357   1
   1   4  -4 6680.65 69.7020   2
  -1  -4   4 6609.92 102.630   4
   1   4  -3 27550.1 113.863   1
   1   4  -3 27716.2 126.605   2
  -1  -4   3 27758.6 191.519   4
  -1  -4   2 51348.1 247.276   4
  -1  -4   2 51128.9 251.970   3
  -1  -4   2 50825.1 175.222   5
   1   4  -2 51990.5 161.934   2
  -1  -4   1 12759.1 127.725   3
   1   4  -1 12653.3 85.7253   2
  -1  -4   1 12485.6 94.2112   5
  -1  -4   0 250.410 38.4463   3
   1   4   0 297.751 25.5421   0
   1   4   0 310.287 24.2599   2
   1   4   1 387.146 25.2778   0
  -1  -4  -1 427.034 37.5425   3
  -1  -4  -2 5022.45 85.6170   3
  -1  -4  -3 3761.43 55.3731   0
  -1  -4  -3 3914.81 81.0578   3
  -1  -4  -4 385.610 24.7948   0
  -1  -4  -4 332.855 42.1748   3
  -1  -4  -5 1443.15 62.6018   3
  -1  -4  -6 3575.41 91.5250   3
  -1  -4  -7 84.4214 48.3131   3
  -1  -4  -8 53.2477 49.6523   3
  -1  -4  -9 25.2754 46.5547   3
  -1  -4 -10 292.683 58.4104   3
  -1  -4 -11 103.522 52.3489   3
  -1  -4 -12-50.0746 71.0736   2
  -1  -5  13 566.459 69.8215   4
  -1  -5  12 7.96851 55.9511   4
   1   5 -11 499.125 51.2866   3
  -1  -5  11 583.280 64.0179   4
   1   5 -10 664.716 54.8751   3
  -1  -5  10 573.966 67.2970   4
  -1  -5   9 157.903 51.6491   4
  -1  -5   8 863.594 69.5184   4
  -1  -5   7 141.224 48.2547   4
   1   5  -6 6859.59 90.2383   2
  -1  -5   6 6766.03 123.910   4
   1   5  -5 2373.36 50.6938   2
  -1  -5   5 2469.10 78.0181   4
   1   5  -4 2947.14 51.7335   2
  -1  -5   4 3047.41 79.7954   4
  -1  -5   3 1044.84 57.6269   3
  -1  -5   3 949.696 27.2748   5
   1   5  -3 999.852 26.1973   1
  -1  -5   3 1092.83 52.5627   4
   1   5  -3 1045.89 31.1670   2
  -1  -5   2 93.0824 18.3850   5
  -1  -5   2 91.5289 33.9468   4
   1   5  -2 80.8111 19.5874   2
  -1  -5   2 79.1189 40.1387   3
  -1  -5   1 5531.10 69.2562   5
   1   5  -1 5786.03 68.1568   2
  -1  -5   1 5765.72 99.5568   3
   1   5   0 1057.23 38.9014   0
  -1  -5   0 1025.69 55.3385   3
   1   5   0 1107.04 38.0160   2
  -1  -5  -1 518.875 47.7475   3
   1   5   1 367.906 27.5481   0
  -1  -5  -2 4102.98 88.1679   3
  -1  -5  -3 3447.05 85.6096   3
  -1  -5  -4 369.053 47.2642   3
  -1  -5  -5 1972.61 75.4889   3
  -1  -5  -6 41.4019 45.9782   3
  -1  -5  -7 2660.41 93.6142   3
  -1  -5  -8 1253.36 77.4986   3
  -1  -5  -9 68.6697 53.1714   3
  -1  -5 -10-176.993 56.9194   3
  -1  -6  13 1027.72 88.3226   4
  -1  -6  12 1487.84 101.151   4
  -1  -6  11 337.535 57.7097   4
  -1  -6  10 892.190 78.4109   4
  -1  -6   9 2903.90 106.735   4
  -1  -6   8 1806.08 86.8742   4
  -1  -6   7 6009.38 130.652   4
  -1  -6   6 342.052 54.0945   4
  -1  -6   5-18.7693 41.7897   4
  -1  -6   4 73.1553 41.7698   4
  -1  -6   3 150.175 42.9003   4
   1   6  -3 102.052 21.7111   2
  -1  -6   3 120.691 47.4719   3
  -1  -6   2 1127.94 58.2086   4
   1   6  -2 1114.80 36.4931   2
  -1  -6   2 1231.67 65.2264   3
  -1  -6   1 1786.04 45.3426   5
   1   6  -1 1928.63 48.1736   2
  -1  -6   1 1825.15 72.2694   3
   1   6   0 1520.72 46.6548   2
  -1  -6   0 1473.21 45.3130   5
  -1  -6   0 1483.59 68.5255   3
   1   6   0 1485.47 46.6083   0
  -1  -6  -1 6805.03 121.496   3
  -1  -6  -2 246.372 48.8228   3
  -1  -6  -3 1964.26 76.1459   3
  -1  -6  -4 147.671 46.0900   3
  -1  -6  -5 199.056 53.3291   3
  -1  -6  -6 901.782 70.1659   3
  -1  -6  -7 821.597 69.6665   3
  -1  -6  -8-102.492 59.0811   3
  -1  -6  -9 10.8522 57.1063   3
  -1  -7  12 972.978 81.9327   4
  -1  -7  11 221.604 64.2790   4
  -1  -7  10 148.470 46.1262   4
  -1  -7   9-3.27788 44.4788   4
  -1  -7   8 212.348 54.2624   4
  -1  -7   7 3385.96 108.043   4
  -1  -7   6 547.598 63.3153   4
  -1  -7   5 574.085 57.5017   4
  -1  -7   4 198.974 46.4259   4
  -1  -7   3 251.070 53.8787   3
  -1  -7   3 245.277 48.9800   4
  -1  -7   2 36.8587 50.8309   3
  -1  -7   2 49.3509 44.6914   4
  -1  -7   1 100.455 49.2741   3
   1   7   0 1293.44 48.6467   2
  -1  -7   0 1275.38 74.3535   3
  -1  -7  -1 8344.12 144.728   3
  -1  -7  -2 4840.49 116.461   3
  -1  -7  -3 101.987 50.2625   3
  -1  -7  -4 430.090 59.7964   3
  -1  -7  -5 62.6736 57.2180   3
  -1  -7  -6 1410.99 87.3248   3
  -1  -7  -7 903.467 72.5080   3
  -1  -7  -8 647.254 72.1876   3
  -1  -7  -9 114.030 62.4580   3
  -1  -7 -10 120.550 60.5192   3
  -1  -8  11 65.0268 54.5798   4
  -1  -8  10 49.4547 53.0624   4
  -1  -8   9-74.6469 45.8600   4
  -1  -8   8 279.397 54.0985   4
  -1  -8   7 392.394 61.6751   4
  -1  -8   6 2172.40 92.9453   4
  -1  -8   5 1279.28 75.6173   4
  -1  -8   4 342.668 52.9210   4
  -1  -8   3 339.172 62.7550   3
  -1  -8   3 347.511 55.4624   4
  -1  -8   2 580.037 57.7095   4
  -1  -8   2 703.920 71.7846   3
  -1  -8   1 4106.02 116.355   3
  -1  -8   0 1226.55 81.3139   3
  -1  -8  -1 243.291 65.1001   3
  -1  -8  -2 304.195 71.4989   3
  -1  -8  -3 574.373 69.3294   3
  -1  -8  -4 957.833 80.9732   3
  -1  -8  -5 847.942 74.5396   3
  -1  -8  -6 245.356 66.3567   3
  -1  -8  -7 259.368 74.2946   3
  -1  -8  -8 858.228 88.6338   3
  -1  -8  -9 314.808 64.1683   3
  -1  -9  11 54.8939 67.4817   4
  -1  -9  10 140.520 52.2075   4
  -1  -9   9 916.065 75.2982   4
  -1  -9   8 1003.53 72.5921   4
  -1  -9   7 89.5893 48.3355   4
  -1  -9   6-20.2983 53.0915   4
  -1  -9   5 300.523 57.8422   4
  -1  -9   4 387.247 59.9651   4
  -1  -9   3 65.1501 51.6024   4
  -1  -9   3 78.7622 64.6307   3
  -1  -9   2 85.4148 61.9907   3
  -1  -9   2 16.6849 46.9740   4
  -1  -9   1 1980.72 100.236   3
  -1  -9   0 3781.37 123.103   3
  -1  -9  -1 5906.11 147.101   3
  -1  -9  -2 8509.96 174.341   3
  -1  -9  -3 2517.56 112.434   3
  -1  -9  -4 1466.94 94.7836   3
  -1  -9  -5 63.8950 73.5518   3
  -1  -9  -6 372.188 75.4502   3
  -1  -9  -7 434.964 79.4313   3
  -1  -9  -8 679.815 82.0978   3
  -1 -10  10-184.091 54.9087   4
  -1 -10   9 221.699 62.1980   4
  -1 -10   8 13.9408 54.0430   4
  -1 -10   7 555.581 68.2451   4
  -1 -10   6-168.709 51.4094   4
  -1 -10   5 190.236 57.6897   4
  -1 -10   4 97.0597 54.8573   4
  -1 -10   3 1228.91 90.5221   3
  -1 -10   3 1252.45 79.8251   4
  -1 -10   2 503.666 82.2626   3
  -1 -10   2 424.607 58.3410   4
  -1 -10   1 34.0802 67.8408   3
  -1 -10   0-17.9042 68.1132   3
  -1 -10  -1 232.332 85.8663   3
  -1 -10  -2 1148.18 91.2473   3
  -1 -10  -3-17.1754 74.0324   3
  -1 -10  -4 308.757 82.2938   3
  -1 -10  -5 843.446 98.9996   3
  -1 -10  -6 688.962 82.7494   3
  -1 -11   7 199.756 50.4488   4
  -1 -11   6-216.837 53.1602   4
  -1 -11   5 107.262 54.9760   4
  -1 -11   4 298.660 66.5648   4
  -1 -11   3 214.583 78.7531   3
  -1 -11   3 305.537 61.6568   4
  -1 -11   2 79.4835 78.9533   3
  -1 -11   2-96.7148 53.0499   4
  -1 -11   1 153.462 83.2230   3
  -1 -11   1 179.674 58.8790   4
  -1 -11   0-65.3761 70.4700   3
  -1 -11  -1 234.989 90.2018   3
  -1 -11  -2 197.876 90.3079   3
  -1 -11  -3 35.4301 67.7313   3
  -1 -11  -4-116.839 86.2838   3
  -1 -12   6 347.841 65.0555   4
  -1 -12   5 621.162 77.8943   4
  -1 -12   4-217.679 58.6108   4
  -1 -12   3 63.9654 47.8070   4
  -1 -12   3 218.366 85.0043   3
  -1 -12   2 84.1476 80.1105   3
  -1 -12   2-52.1352 52.6459   4
  -1 -12   1 677.017 104.924   3
  -1 -12   1 520.299 67.0842   4
  -1 -12   0 832.803 96.3284   3
  -1 -12  -1 95.3628 73.0140   3
   2 -13  -2-171.166 83.3790   3
   2 -13  -1 273.341 78.8188   3
   2 -13   0-116.613 73.7843   3
   2 -13   0 266.788 60.3145   4
   2 -13   1-18.9660 52.9725   4
   2 -13   2 342.190 65.9145   4
   2 -13   3 90.7558 53.7693   4
   2 -13   4 206.939 67.9533   4
   2 -13   5 103.304 70.0302   4
   2 -12  -5 147.828 69.4214   3
   2 -12  -4 495.508 80.6800   3
  -2  12   3 113.169 58.7790   2
   2 -12  -3 174.662 73.0965   3
   2 -12  -2-16.6972 80.5935   3
   2 -12  -1 165.326 68.5001   3
   2 -12   0 769.053 66.7203   4
   2 -12   0 474.813 80.3191   3
   2 -12   1 55.7988 57.2576   3
   2 -12   1-203.825 52.1522   4
   2 -12   2 418.105 51.4521   4
   2 -12   3 34.5089 52.7111   4
   2 -12   4 862.776 70.4901   4
   2 -12   5-48.8798 58.8326   4
   2 -12   6 333.638 64.5693   4
   2 -12   7 96.7955 65.4154   4
   2 -11  -7 371.563 82.9051   3
   2 -11  -6 749.206 84.8015   3
   2 -11  -5 414.523 76.4794   3
  -2  11   4 838.970 77.5733   2
   2 -11  -4 732.175 78.8915   3
  -2  11   3 1262.67 81.2152   2
   2 -11  -3 1675.77 94.6804   3
  -2  11   2 822.562 70.9886   2
   2 -11  -2 809.385 78.0271   3
   2 -11  -1-25.6210 61.1779   3
  -2  11   1 138.747 58.1550   2
  -2  11   0 98.0814 54.7982   2
   2 -11   0 171.430 65.2483   3
   2 -11   1-35.4355 57.0014   3
   2 -11   1 14.6450 47.2487   4
  -2  11  -1 28.2238 45.2847   2
   2 -11   2 442.603 63.1945   4
   2 -11   3-32.5418 44.0131   4
   2 -11   4 480.282 62.4033   4
   2 -11   5 342.819 46.4132   4
   2 -11   6 168.838 47.2504   4
   2 -11   7 301.696 56.8425   4
   2 -11   8 18.5371 61.0818   4
   2 -11   9 71.5577 59.8820   4
   2 -10  -8-54.2741 72.3894   3
   2 -10  -7-35.8955 67.0117   3
   2 -10  -6 78.9483 60.2962   3
   2 -10  -5 447.844 67.6383   3
  -2  10   4 456.117 67.2508   2
   2 -10  -4 448.770 69.5184   3
  -2  10   3 211.890 59.5226   2
   2 -10  -3 206.948 59.8870   3
  -2  10   2 1219.34 73.0563   2
   2 -10  -2 1273.16 78.1749   3
   2 -10  -1 93.7166 54.8666   3
  -2  10   1 99.1516 52.7509   2
   2 -10   0 124.789 53.5950   3
  -2  10   0 10.8921 48.7749   2
   2 -10   1 224.991 57.2730   3
   2 -10   1 216.448 50.2938   4
  -2  10  -1 324.145 51.8035   2
   2 -10   2 1750.21 85.0750   4
   2 -10   2 1873.06 86.7703   3
  -2  10  -2 1791.08 79.7128   2
   2 -10   3 2076.73 87.7857   4
  -2  10  -3 2380.16 88.8858   2
  -2  10  -4 1369.51 75.4078   2
   2 -10   4 1427.33 81.0126   4
   2 -10   5 10.3246 44.8773   4
   2 -10   6 59.6470 48.3149   4
   2 -10   7 183.361 44.0579   4
   2 -10   8-37.3788 47.1516   4
   2 -10   9 667.489 54.4730   4
   2 -10  10 241.329 72.0634   4
   2  -9  -9-21.8727 66.9206   3
   2  -9  -6-113.725 59.6415   3
   2  -9  -5-31.0077 50.8707   3
  -2   9   4 36.7981 48.5940   2
   2  -9  -4 11.6962 56.9064   3
   2  -9  -3 80.6703 51.0928   3
  -2   9   3 48.6108 51.2895   2
   2  -9  -2 632.877 60.0582   3
  -2   9   2 814.646 66.4004   2
  -2   9   1 6302.73 124.399   2
   2  -9  -1 6110.28 124.652   3
  -2   9   0 7144.99 129.986   2
   2  -9   0 7231.10 132.882   3
  -2   9  -1 4134.34 106.665   2
   2  -9   1 3771.93 104.563   4
   2  -9   1 4098.60 102.829   3
  -2   9  -2 904.106 61.3198   2
   2  -9   2 1043.32 66.9634   4
   2  -9   2 855.809 60.0596   3
   2  -9   3 1333.09 74.1790   4
  -2   9  -3 1239.63 66.2791   2
  -2   9  -4 4013.56 101.730   2
   2  -9   4 3980.63 111.376   4
  -2   9  -5 2384.15 87.5297   2
   2  -9   5 2571.48 96.6173   4
   2  -9   6 792.180 67.9414   4
  -2   9  -6 696.620 61.2577   2
  -2   9  -7 70.5115 48.5038   2
   2  -9   7 31.2427 39.2945   4
   2  -9   8-62.6508 46.0844   4
   2  -9   9 409.115 55.2882   4
   2  -9  10-95.6543 57.9786   4
   2  -8 -10 96.9730 63.6647   3
   2  -8  -9 110.992 67.0205   3
   2  -8  -8 132.372 62.5837   3
   2  -8  -7 1120.08 81.3563   3
   2  -8  -6-21.4695 51.6708   3
  -2   8   5 1744.82 79.4145   2
   2  -8  -5 1589.65 80.9279   3
  -2   8   4 738.644 63.5253   2
   2  -8  -4 605.796 59.4556   3
   2  -8  -3-22.7194 47.7847   3
  -2   8   3 10.7469 49.5526   2
  -2   8   2 858.095 60.8061   2
   2  -8  -2 957.232 59.5001   3
  -2   8   1 5039.48 105.188   2
   2  -8  -1 5224.56 107.356   3
  -2   8   0 12.9064 39.0609   2
   2  -8   0 52.3356 42.0992   3
   2  -8   1 722.732 53.9965   3
   2  -8   1 821.107 57.1331   4
  -2   8  -1 790.046 54.8787   2
  -2   8  -2 1634.48 66.7934   2
   2  -8   2 1862.67 72.8114   4
   2  -8   2 1782.99 67.1441   3
  -2   8  -3 365.211 47.5867   2
   2  -8   3 363.508 48.9986   4
   2  -8   3 292.289 44.7124   3
   2  -8   4 2083.64 77.8660   4
  -2   8  -4 2256.08 79.2253   2
   2  -8   5 690.635 60.0553   4
  -2   8  -5 653.376 57.5217   2
   2  -8   6 519.226 55.8686   4
  -2   8  -6 504.211 55.9778   2
  -2   8  -7-11.0641 44.8915   2
   2  -8   7-4.02547 43.9118   4
  -2   8  -8 233.792 44.8725   2
   2  -8   8 234.333 55.6363   4
   2  -8   9 252.186 57.1549   4
  -2   8  -9-23.6025 48.6846   2
  -2   8 -10-59.4489 51.4099   2
   2  -8  11 440.711 65.2006   4
   2  -7 -11-8.46517 60.5046   3
   2  -7 -10 46.8746 56.8828   3
   2  -7  -9 193.195 58.0000   3
   2  -7  -8 491.725 62.9871   3
   2  -7  -7 5048.54 125.223   3
   2  -7  -6 5930.96 128.027   3
  -2   7   5 276.816 55.1592   2
   2  -7  -5 308.597 52.6586   3
  -2   7   4-2.66243 46.8071   2
   2  -7  -4-209.046 47.6215   3
   2  -7  -3 3993.93 96.8724   3
  -2   7   3 4385.72 100.176   2
   2  -7  -2 1540.67 63.5319   3
  -2   7   2 1643.88 69.6070   2
  -2   7   1 1244.95 59.4761   2
   2  -7  -1 1264.36 56.7938   3
  -2   7   0 3047.00 79.7870   2
   2  -7   0 2972.28 74.7776   3
   2  -7   1 801.537 49.4886   4
   2  -7   1 757.756 45.8039   3
  -2   7  -1 702.615 47.5004   2
   2  -7   2 2266.01 71.7220   4
  -2   7  -2 2255.33 69.5595   2
   2  -7   2 2178.39 64.1839   3
   2  -7   3 1353.25 62.0155   4
  -2   7  -3 1244.91 58.3175   2
   2  -7   3 1278.46 54.6877   3
   2  -7   4 1190.62 61.2547   4
  -2   7  -4 1247.77 61.4238   2
  -2   7  -5 1192.72 63.7105   2
   2  -7   5 1157.94 64.0038   4
  -2   7  -6 16.8050 42.8072   2
   2  -7   6-13.1965 42.0639   4
  -2   7  -7 2324.88 89.5717   2
   2  -7   7 2481.22 93.4117   4
   2  -7   8 974.987 73.0809   4
  -2   7  -8 1157.01 76.3157   2
   2  -7   9 258.825 56.0918   4
  -2   7  -9 643.109 65.9851   2
   2  -7  10 464.427 58.0221   4
  -2   7 -10 505.039 61.8411   2
  -2   7 -11 19.5035 56.1834   2
   2  -7  11-82.0911 54.0739   4
  -2   7 -12 177.647 56.8521   2
   2  -7  12 278.983 63.6440   4
   2  -6 -12 117.812 63.4616   3
   2  -6 -11 63.6071 54.1634   3
   2  -6 -10 55.1649 57.5065   3
   2  -6  -9 384.531 60.5296   3
   2  -6  -8 29.3841 48.9916   3
   2  -6  -7-18.5096 56.6600   3
   2  -6  -6 1153.96 65.8358   3
  -2   6   5 7.07458 45.6514   2
   2  -6  -5 15.5526 41.1923   3
   2  -6  -4 334.438 45.2973   3
  -2   6   4 252.868 48.6705   2
   2  -6  -3 9500.79 127.581   3
  -2   6   3 9536.69 130.985   2
   2  -6  -2 10349.7 125.670   3
  -2   6   2 10156.9 130.309   2
   2  -6  -1 5267.43 87.0810   3
  -2   6   1 5640.80 99.2062   2
  -2   6   0 3152.10 75.1242   2
   2  -6   0 3217.59 67.7513   3
   2  -6   1 312.765 32.4165   3
   2  -6   1 328.810 34.9249   4
  -2   6  -1 371.109 38.0297   2
   2  -6   2 109.983 29.9178   3
  -2   6  -2 152.006 35.3679   2
   2  -6   2 70.8248 31.5713   4
  -2   6  -3 602.878 44.7780   2
   2  -6   3 574.206 42.4388   4
   2  -6   4 9.77049 33.7227   4
  -2   6  -4-5.13982 37.5680   2
   2  -6   5 1007.84 56.9659   4
  -2   6  -5 936.736 56.9213   2
  -2   6  -6 1989.61 76.0656   2
   2  -6   6 1951.04 76.3357   4
   2  -6   7 3327.72 99.4798   4
  -2   6  -7 3078.77 97.1365   2
   2  -6   8 5734.41 134.162   4
  -2   6  -8 5934.17 132.817   2
  -2   6  -9 257.418 56.7318   2
   2  -6   9 376.607 63.6477   4
  -2   6 -10 75.4902 48.0813   2
   2  -6  10-6.74828 41.1529   4
   2  -6  11 145.596 48.3770   4
  -2   6 -11-6.82433 56.3147   2
  -2   6 -12 35.1873 47.8678   2
   2  -6  12 268.554 55.0412   4
   2  -5 -13 222.416 62.4139   3
   2  -5 -12-13.8166 56.3608   3
   2  -5 -11 40.5183 55.5111   3
   2  -5 -10-6.13480 51.1224   3
   2  -5  -9 350.867 53.5457   3
   2  -5  -8 2263.97 88.1560   3
   2  -5  -7 118.550 48.0068   3
   2  -5  -6 146.611 44.6706   3
  -2   5   5 64.2917 43.5323   2
   2  -5  -5 28.4085 38.8597   3
   2  -5  -4 880.926 49.2028   3
  -2   5   4 842.946 54.7108   2
   2  -5  -3 9.49985 34.3940   3
  -2   5   3-9.64045 38.6082   2
  -2   5   2 3660.21 76.1601   2
   2  -5  -2 3890.10 73.2032   3
   2  -5  -1 16665.1 132.784   3
  -2   5   1 17506.5 153.884   2
  -2   5   0 6190.17 92.1959   2
   2  -5   0 6113.42 77.6943   3
  -2   5  -1 1797.57 55.3192   2
   2  -5   1 1856.13 52.0245   4
   2  -5   1 1766.82 28.6367   1
   2  -5   1 1805.40 44.8351   3
  -2   5  -2 996.312 48.6009   2
   2  -5   2 980.528 35.8117   3
   2  -5   2 953.146 22.1611   1
   2  -5   2 943.694 43.2961   4
   2  -5   3 927.432 45.1047   4
  -2   5  -3 931.586 48.8559   2
   2  -5   4 2794.97 71.3714   4
  -2   5  -4 2611.50 72.3027   2
   2  -5   5 2013.36 67.9011   4
  -2   5  -5 2154.13 71.3521   2
   2  -5   6 939.536 57.7026   4
  -2   5  -6 948.065 58.7564   2
  -2   5  -7 1535.38 74.8907   2
   2  -5   7 1389.62 70.1230   4
   2  -5   8 275.374 55.5429   4
  -2   5  -8 380.763 56.4255   2
  -2   5  -9 1663.86 86.6787   2
   2  -5   9 1397.53 82.7010   4
  -2   5 -10 421.581 63.0634   2
   2  -5  10 545.091 65.5331   4
   2  -5  11 90.6752 51.4619   4
  -2   5 -11 121.989 56.8021   2
  -2   5 -12 288.688 59.1295   2
   2  -5  12-148.413 53.6227   4
  -2   5 -13 171.111 68.7562   2
   2  -5  13 492.126 73.7522   4
   2  -4 -13 141.586 53.6799   3
   2  -4 -12 97.7174 59.6960   3
   2  -4 -11 201.405 57.3839   3
   2  -4 -10 152.010 51.8142   3
   2  -4  -9 68.6042 51.1750   3
   2  -4  -8 26892.3 235.275   3
   2  -4  -7 140.896 42.6727   3
   2  -4  -6 245.837 41.9707   3
   2  -4  -5 861.457 46.8580   3
   2  -4  -4 3623.26 74.1582   3
  -2   4   4 3384.87 76.9937   2
   2  -4  -3 86958.4 305.447   3
  -2   4   3 86535.6 324.371   2
   2  -4  -2 150.646 27.8278   3
  -2   4   2 169.653 30.0146   2
   2  -4  -1 3522.59 56.8285   3
   2  -4  -1 3376.58 48.1844   1
  -2   4   1 3509.54 66.0582   2
   2  -4   0 57.4519 15.6879   1
   2  -4   0 66.5962 19.9383   3
  -2   4   0 63.0969 29.3516   2
  -2   4  -1 831.608 41.8306   2
   2  -4   1 846.282 24.0444   1
   2  -4   1 801.677 27.7597   3
   2  -4   1 870.794 34.2996   4
  -2   4  -2 5685.53 51.8491   5
   2  -4   2 5873.45 79.1130   4
   2  -4   2 5654.32 60.5551   3
  -2   4  -2 5977.06 89.1063   2
  -2   4  -3 1288.44 29.5691   5
  -2   4  -3 1342.99 50.5283   2
   2  -4   3 1387.84 46.7485   4
  -2   4  -4 1278.82 32.3599   5
  -2   4  -4 1382.01 55.0873   2
   2  -4   4 1375.09 50.8841   4
  -2   4  -5 581.470 27.1682   3
  -2   4  -5 558.987 26.1109   5
   2  -4   5 628.898 46.0495   4
  -2   4  -5 658.557 46.9017   2
   2  -4   6 2843.83 83.8948   4
  -2   4  -6 3061.36 84.8237   2
   2  -4   7 5814.74 121.247   4
  -2   4  -7 5614.05 119.190   2
   2  -4   8-18.2026 44.4550   4
  -2   4  -8-23.5315 44.8860   2
  -2   4  -9 7.82563 45.3758   2
   2  -4   9 50.3234 55.6106   4
   2  -4  10-173.280 45.3912   4
  -2   4 -10-36.1053 52.0023   2
   2  -4  11 204.165 54.0680   4
  -2   4 -11 119.190 56.6667   2
  -2   4 -12-182.412 60.9520   2
   2  -4  12 307.837 59.9498   4
  -2   4 -13 14.1111 65.3842   2
   2  -3 -14 185.017 54.2282   3
   2  -3 -13 51.8981 54.5590   3
   2  -3 -12-10.8309 48.7817   3
   2  -3 -11-2.76597 40.9052   3
   2  -3 -10 650.739 60.3575   3
   2  -3  -9 1780.16 78.5308   3
   2  -3  -8 1588.41 70.3914   3
   2  -3  -7 6080.96 106.045   3
   2  -3  -6 25552.1 193.154   3
   2  -3  -5 23648.4 171.336   3
   2  -3  -5 23191.6 102.725   0
   2  -3  -4 82990.9 294.335   3
  -2   3   4 83448.0 309.378   2
   2  -3  -4 82018.1 173.365   0
   2  -3  -3 17125.2 123.628   3
  -2   3   3 17625.0 136.369   2
  -2   3   2 210.707 29.1184   2
   2  -3  -2 235.308 24.3274   3
  -2   3   2 197.053 16.4973   0
   2  -3  -2 211.493 23.5570   1
   2  -3  -1 1543.37 33.8388   3
   2  -3  -1 1472.58 34.3668   1
  -2   3   1 1459.54 44.3473   2
   2  -3   0 157.895 19.5873   1
  -2   3   0 155.140 30.1112   2
   2  -3   0 127.008 16.4913   3
  -2   3  -1 5045.84 53.2646   5
   2  -3   1 5191.47 60.1541   4
  -2   3  -1 5398.43 75.0502   2
   2  -3   2 8013.32 82.3229   4
  -2   3  -2 7933.23 69.2228   5
  -2   3  -2 8261.63 97.4848   2
  -2   3  -3 3007.43 47.5020   5
   2  -3   3 3027.93 58.7712   4
  -2   3  -3 3127.12 68.0503   2
  -2   3  -4 3246.99 42.1985   3
  -2   3  -4 3387.54 75.4509   2
   2  -3   4 3228.25 68.1152   4
  -2   3  -4 3191.03 54.4334   5
  -2   3  -5 3717.37 51.3928   3
   2  -3   5 3935.03 81.9908   4
  -2   3  -5 3808.31 88.8456   2
   2  -3   6 13167.4 157.157   4
  -2   3  -6 13165.1 163.657   2
   2  -3   7 8499.69 139.125   4
  -2   3  -7 8303.22 141.584   2
   2  -3   8-49.0191 39.0606   4
  -2   3  -8 5.07508 46.8742   2
   2  -3   9-156.349 45.5950   4
  -2   3  -9 30.8763 51.2059   2
  -2   3 -10 96.9606 56.5219   2
   2  -3  10 103.080 58.6045   4
  -2   3 -11 244.760 61.9257   2
  -2   3 -12 543.944 80.6743   2
  -2   3 -13 99.8323 64.2926   2
   2  -2 -14 314.027 57.0699   3
   2  -2 -13-64.5092 39.7587   3
   2  -2 -12 111.999 40.2012   3
   2  -2 -11 29.8161 42.6395   3
   2  -2 -10 44.6922 43.9780   3
   2  -2  -9 20200.7 207.066   3
   2  -2  -8 10423.7 141.374   3
   2  -2  -7 39194.1 250.010   3
   2  -2  -6 47464.6 256.450   3
   2  -2  -5 11400.4 118.441   3
   2  -2  -4 23509.8 152.428   3
  -2   2   4 22771.0 151.455   2
   2  -2  -3 3886.17 45.8495   0
  -2   2   3 4069.73 63.8260   2
   2  -2  -3 3993.24 59.6718   3
   2  -2  -3 4054.63 61.6355   1
  -2   2   2 4023.94 47.3952   0
   2  -2  -2 4160.29 52.6380   3
   2  -2  -2 4048.94 56.8920   1
  -2   2   2 4271.96 59.2004   2
   2  -2  -1 156.795 16.5258   3
   2  -2  -1 50.6832 23.3966   1
  -2   2   1 148.497 25.5117   2
  -2   2   0 2166.05 40.0814   5
  -2   2   0 2211.20 46.9963   2
   2  -2   1 729.056 23.2257   4
  -2   2  -1 724.670 27.9823   5
  -2   2  -1 716.241 36.6583   2
  -2   2  -2 5431.34 62.6540   5
  -2   2  -2 5474.99 77.7745   2
   2  -2   2 5400.04 61.9150   4
  -2   2  -3 20327.4 127.235   5
   2  -2   3 20473.6 137.529   4
  -2   2  -3 20095.5 155.386   2
  -2   2  -4 7839.43 62.3672   3
   2  -2   4 8150.75 101.926   4
  -2   2  -4 8330.53 112.921   2
  -2   2  -5 3079.12 47.4839   3
   2  -2   5 3243.98 74.9484   4
  -2   2  -5 3274.16 82.3905   2
   2  -2   6 731.041 52.0400   4
  -2   2  -6 679.601 56.1386   2
  -2   2  -6 697.630 32.7804   3
   2  -2   7 603.565 55.7664   4
  -2   2  -7 669.915 59.8045   2
   2  -2   8 500.089 53.9756   4
  -2   2  -8 343.468 56.8319   2
  -2   2  -9 146.510 53.9821   2
  -2   2 -10-191.915 50.8715   2
  -2   2 -11-109.550 59.6433   2
  -2   2 -12-70.1999 67.9249   2
  -2   2 -13-83.2809 68.9507   2
   2  -1 -15 832.649 64.7019   3
   2  -1 -14 418.479 57.9859   3
   2  -1 -14 6.00900 64.2175   2
   2  -1 -13 137.270 43.8930   3
   2  -1 -12 50.8479 43.6259   3
   2  -1 -11 60.8433 43.9403   3
   2  -1 -10 1317.34 69.4564   3
   2  -1  -9 779.161 60.1150   3
   2  -1  -8 8546.69 127.477   3
   2  -1  -7 18487.7 170.827   3
   2  -1  -6 1084.12 48.4650   3
  -2   1   6 1017.16 29.1167   6
  -2   1   5 3094.40 45.2337   6
   2  -1  -5 3015.39 64.3010   3
   2  -1  -4 6793.14 82.8003   1
  -2   1   4 6430.65 62.5818   6
   2  -1  -4 6626.07 81.2713   3
   2  -1  -3 8857.92 74.3998   0
   2  -1  -3 8905.98 82.8244   3
   2  -1  -3 8867.99 86.4356   1
  -2   1   3 9088.79 79.0088   2
  -2   1   2 75.4436 20.5932   0
  -2   1   2 106.706 20.5609   2
   2  -1  -2 92.2016 23.5372   1
   2  -1  -2 70.6199 21.3273   3
  -2   1   1 506.217 28.5248   0
  -2   1   1 643.433 26.5650   2
  -2   1   1 458.212 29.9256   5
   2  -1  -1 511.808 20.0063   3
  -2   1   0 93321.1 247.063   5
  -2   1   0 93826.6 232.931   2
  -2   1  -1 52398.0 195.620   2
  -2   1  -1 52382.2 190.876   5
  -2   1  -2 14386.8 107.464   5
   2  -1   2 14508.0 96.0552   4
  -2   1  -2 14083.7 116.162   2
  -2   1  -3 7603.25 96.7833   2
   2  -1   3 7442.84 83.6950   4
  -2   1  -3 7531.74 54.7554   3
  -2   1  -4 151.707 16.8201   3
  -2   1  -4 111.880 32.6754   2
   2  -1   4 135.840 28.2063   4
  -2   1  -5 2931.32 78.1077   2
  -2   1  -5 2857.48 47.7589   3
  -2   1  -6 12367.6 106.953   3
  -2   1  -6 13032.6 162.552   2
  -2   1  -7 334.915 56.4164   2
  -2   1  -8 643.604 63.6985   2
  -2   1  -9 193.809 55.9517   2
  -2   1 -10 68.8260 59.6143   2
  -2   1 -11-10.2469 61.3893   2
  -2   1 -12-69.6880 58.4575   2
   2   0 -15 561.098 68.5017   3
   2   0 -15 165.843 77.8676   2
   2   0 -14 271.470 62.3226   2
   2   0 -14 279.279 56.5828   3
   2   0 -13 22.9827 53.1338   2
   2   0 -13 112.704 44.1776   3
   2   0 -12-8.87219 40.4685   3
   2   0 -11 258.085 48.0156   3
   2   0 -10 584.116 57.4077   3
   2   0  -9 779.874 54.0657   3
  -2   0   9 935.034 67.6536   4
   2   0  -8 980.220 53.1395   3
  -2   0   8 837.315 58.0127   4
  -2   0   7 16.7890 38.5145   4
   2   0  -7 44.3235 33.1299   3
   2   0  -6 740.372 41.9562   3
  -2   0   6 705.101 47.1234   4
   2   0  -5 22688.7 159.217   3
  -2   0   5 22892.5 165.467   4
   2   0  -5 23477.5 154.354   1
  -2   0   4 1756.78 46.3655   4
   2   0  -4 1845.69 48.9643   3
   2   0  -4 1782.88 43.8282   1
  -2   0   4 1851.88 40.5730   6
  -2   0   3 8155.82 76.6142   6
   2   0  -3 8681.44 83.2094   1
  -2   0   3 8212.74 74.9870   4
  -2   0   3 8389.34 63.5195   2
  -2   0   2 9128.42 62.0664   4
   2   0  -2 9417.23 84.3318   1
   2   0  -2 8847.65 80.8228   0
  -2   0   2 9237.12 81.2988   6
  -2   0   1 69901.2 220.212   5
  -2   0   1 69678.7 213.074   6
   2   0  -1 67812.8 219.552   0
  -2   0   1 69747.7 216.065   0
  -2   0   0 291881. 1819.76   5
  -2   0   0 294599. 1506.39   2
  -2   0   0 291169. 1829.12   0
  -2   0  -1 12304.4 69.8491   3
  -2   0  -1 12292.2 102.672   5
  -2   0  -1 12326.2 94.1499   2
  -2   0  -2 5159.52 72.2630   2
  -2   0  -2 5019.30 49.0597   3
  -2   0  -3-12.3834 27.5736   2
  -2   0  -3 4.73584 14.7267   3
  -2   0  -4 1651.72 56.4226   2
  -2   0  -4 1643.16 38.5779   3
  -2   0  -5 10521.0 135.378   2
  -2   0  -5 10470.2 98.1296   3
  -2   0  -6 375.593 52.3140   2
  -2   0  -6 340.778 31.3344   3
  -2   0  -7 183.278 51.2112   2
  -2   0  -7 139.916 28.1017   3
  -2   0  -8 50.7000 53.6919   2
  -2   0  -9 146.733 56.8579   2
  -2   0 -10 564.296 71.1488   2
  -2   0 -11 100.343 61.9303   2
  -2   0 -12 177.956 74.0550   2
   2   1 -15 242.796 50.5637   3
   2   1 -14 466.070 65.9922   2
   2   1 -14 117.129 43.1424   3
   2   1 -13 246.868 50.3858   3
   2   1 -13 341.316 57.0832   2
   2   1 -12 305.852 53.5745   2
   2   1 -12 321.358 52.5296   3
   2   1 -11 469.813 55.7944   2
  -2  -1  11 446.491 61.9490   4
   2   1 -11 334.824 48.6943   3
   2   1 -10 1288.46 66.9139   3
  -2  -1  10 1041.51 73.3305   4
   2   1 -10 1224.19 63.5420   2
  -2  -1   9-3.89957 45.2368   4
   2   1  -9-35.0204 37.1958   3
   2   1  -8 86.8317 36.1731   3
  -2  -1   8 120.614 47.0410   4
   2   1  -7 862.937 49.5824   3
  -2  -1   7 793.810 52.1908   4
  -2  -1   6 2358.39 68.2616   4
   2   1  -6 2255.57 64.0257   3
  -2  -1   5 7806.55 101.471   4
   2   1  -5 8181.15 91.1020   1
  -2  -1   4 2235.31 52.6871   4
   2   1  -4 2255.66 48.4913   1
   2   1  -3 168.497 22.7887   1
  -2  -1   3 139.717 22.7252   4
   2   1  -2 887.129 38.4464   0
  -2  -1   2 871.383 28.0081   4
  -2  -1   2 895.832 34.0578   5
  -2  -1   1 2807.09 52.5643   0
  -2  -1   1 2765.18 38.7185   4
  -2  -1   1 2840.40 53.5358   5
   2   1  -1 2870.12 51.8960   0
  -2  -1   1 2774.22 54.2830   6
  -2  -1   0 8562.11 85.3089   0
  -2  -1   0 8906.13 64.7767   2
  -2  -1   0 8941.12 88.6106   5
  -2  -1   0 8561.35 84.8075   6
   2   1   0 8896.73 87.5472   0
  -2  -1   0 9006.46 78.1146   3
  -2  -1  -1 16.8645 20.3267   2
  -2  -1  -1 11.6195 23.1048   6
  -2  -1  -1-7.38492 20.4559   3
  -2  -1  -1-2.71116 25.3676   5
  -2  -1  -1 9.33411 20.8565   0
  -2  -1  -2 24.4097 19.4500   3
  -2  -1  -2 21.3156 25.3147   2
  -2  -1  -3 8.84294 27.0749   2
  -2  -1  -3-14.9382 20.8226   3
  -2  -1  -4 672.466 33.3572   3
  -2  -1  -4 533.603 42.1946   2
  -2  -1  -5 268.642 43.7895   2
  -2  -1  -5 222.702 29.1103   3
  -2  -1  -6 1622.80 51.9514   3
  -2  -1  -6 1513.33 68.0750   2
  -2  -1  -7 627.865 41.2171   3
  -2  -1  -7 623.166 59.2295   2
  -2  -1  -8 374.228 62.1098   2
  -2  -1  -9 269.293 62.1668   2
  -2  -1 -10 404.801 70.4927   2
  -2  -1 -11 54.0994 53.1022   2
  -2  -1 -12 9.20954 69.7984   2
   2   2 -14 85.2443 50.0978   3
   2   2 -13-10.4791 46.0289   3
  -2  -2  13 106.705 60.4099   4
   2   2 -12 127.704 46.5311   2
   2   2 -12 10.5734 38.2553   3
  -2  -2  12-21.8712 52.3970   4
   2   2 -11 221.935 44.3061   2
   2   2 -11 108.255 41.8073   3
  -2  -2  11 70.4885 51.5148   4
  -2  -2  10 674.474 64.9007   4
   2   2 -10 675.068 53.8652   3
   2   2 -10 726.780 52.7328   2
   2   2  -9 368.824 48.2178   3
  -2  -2   9 281.611 51.8603   4
   2   2  -9 361.484 41.6170   2
   2   2  -8 279.743 34.3064   2
  -2  -2   8 339.078 49.5281   4
   2   2  -8 312.801 40.6027   3
   2   2  -7 138.153 28.5764   2
  -2  -2   7 194.426 41.6190   4
  -2  -2   6 7005.20 110.008   4
   2   2  -6 6961.19 81.7151   2
  -2  -2   5 3279.13 71.4388   4
   2   2  -5 3141.67 48.1566   2
   2   2  -5 3386.01 59.1780   1
  -2  -2   4 6027.95 84.4450   4
   2   2  -4 5985.62 50.2273   2
   2   2  -4 6035.73 73.5605   1
  -2  -2   3 11121.1 102.153   4
   2   2  -3 11169.1 95.7140   1
  -2  -2   2 9490.84 90.5360   5
  -2  -2   2 9335.58 86.9458   4
   2   2  -1 74097.3 254.313   0
  -2  -2   1 72587.5 250.409   5
  -2  -2   1 73261.9 258.919   3
  -2  -2   0 21505.4 136.795   0
   2   2   0 21212.2 140.194   0
  -2  -2   0 21398.7 141.512   5
  -2  -2   0 21668.9 136.701   6
  -2  -2   0 21138.8 138.389   3
  -2  -2  -1 3122.94 57.1614   0
  -2  -2  -1 3186.60 55.7368   6
  -2  -2  -1 3330.03 62.9663   5
  -2  -2  -1 3224.08 58.7028   3
  -2  -2  -2 257.181 25.2627   6
  -2  -2  -2 270.995 30.0698   0
  -2  -2  -2 359.744 30.5449   3
  -2  -2  -3 1020.32 40.5521   3
  -2  -2  -4 1973.22 54.9956   3
  -2  -2  -5 3911.51 77.3275   3
  -2  -2  -6 2096.62 64.0965   3
  -2  -2  -7 532.135 44.8829   3
  -2  -2  -7 466.122 56.7488   2
  -2  -2  -8 1582.79 66.0888   3
  -2  -2  -8 1438.61 82.8574   2
  -2  -2  -9 815.368 75.6592   2
  -2  -2 -10 752.278 83.0577   2
  -2  -2 -11 120.674 69.9308   2
  -2  -2 -12 113.612 69.9210   2
   2   3 -14-132.909 51.5883   3
  -2  -3  14 200.086 59.0560   4
   2   3 -13 597.331 55.2337   3
  -2  -3  13 544.123 73.0353   4
   2   3 -12 347.283 52.2643   3
  -2  -3  12 364.424 67.6749   4
  -2  -3  11 160.639 54.0975   4
   2   3 -11 114.803 44.1376   3
   2   3 -10 124.145 41.0768   3
  -2  -3  10 4.55659 48.9142   4
   2   3  -9 98.9546 31.2304   2
  -2  -3   9 43.2082 51.0878   4
   2   3  -9 34.0715 38.6293   3
   2   3  -8 101.577 29.6271   2
  -2  -3   8 35.4805 45.2547   4
   2   3  -7 10752.1 109.383   2
  -2  -3   7 11207.4 152.015   4
   2   3  -6 9561.08 91.0280   2
  -2  -3   6 9210.72 129.159   4
   2   3  -6 9959.70 101.737   1
  -2  -3   5 330.571 39.1454   4
   2   3  -5 273.280 26.4749   1
   2   3  -5 286.060 18.3310   2
   2   3  -4 2085.80 46.3786   1
  -2  -3   4 2094.17 59.8802   4
  -2  -3   3-2.24969 21.3096   5
   2   3  -3 1.09256 21.3320   1
  -2  -3   3 22.1616 27.6007   4
  -2  -3   2 3994.82 64.5791   5
  -2  -3   2 3955.03 68.0145   4
  -2  -3   2 3940.69 77.5575   3
  -2  -3   1 4058.96 65.9828   5
   2   3  -1 4124.37 70.0028   0
  -2  -3   1 4028.23 76.1882   3
  -2  -3   0 7287.87 95.9362   3
  -2  -3   0 7293.96 89.7292   5
   2   3   0 7242.43 88.2795   0
  -2  -3  -1 1.24584 30.8062   3
  -2  -3  -1 2.53399 24.2224   6
  -2  -3  -1 4.53058 26.4445   5
  -2  -3  -1 6.22251 23.7792   0
  -2  -3  -2 8199.87 94.4143   0
  -2  -3  -2 8223.15 91.1012   6
  -2  -3  -2 8368.39 104.490   3
  -2  -3  -3 4808.85 75.4619   0
  -2  -3  -3 5167.24 72.4777   6
  -2  -3  -3 5086.18 86.0854   3
  -2  -3  -4 5662.41 86.7895   0
  -2  -3  -4 5731.07 95.4087   3
  -2  -3  -5 2518.65 71.4809   3
  -2  -3  -6 343.347 42.4571   3
  -2  -3  -7 568.836 50.3211   3
  -2  -3  -8 370.524 50.4225   3
  -2  -3  -9 307.214 63.9475   2
  -2  -3 -10 306.770 66.3053   2
  -2  -3 -11-23.2025 57.6097   2
  -2  -4  14 47.9816 54.0619   4
   2   4 -13 103.633 45.2369   3
  -2  -4  13 321.643 70.4400   4
   2   4 -12 93.1974 43.5520   3
  -2  -4  12 31.8014 46.3135   4
   2   4 -11 114.040 47.5316   3
  -2  -4  11 98.9346 50.0861   4
  -2  -4  10-19.3084 49.0659   4
   2   4 -10-10.1379 45.1005   3
  -2  -4   9 463.119 57.8800   4
  -2  -4   8 7239.00 138.102   4
  -2  -4   7 3602.32 96.3948   4
  -2  -4   6 16628.0 179.657   4
   2   4  -6 16921.4 127.028   1
  -2  -4   5 59.3725 35.5695   4
   2   4  -5 75.2934 22.1616   1
   2   4  -4 1431.79 40.6421   1
  -2  -4   4 1484.35 57.9674   4
  -2  -4   3 11092.4 102.699   5
  -2  -4   3 11114.3 126.102   4
  -2  -4   2 275.688 46.7549   3
  -2  -4   2 274.946 28.5759   5
  -2  -4   2 328.193 36.6708   4
  -2  -4   1 24255.4 161.130   5
  -2  -4   1 24282.9 188.743   3
   2   4  -1 24747.9 169.056   0
   2   4   0 675.118 37.2754   0
  -2  -4   0 741.970 39.3457   5
  -2  -4   0 851.334 50.3956   3
  -2  -4  -1 5189.47 85.8047   5
   2   4   1 5101.92 79.5499   0
  -2  -4  -1 5081.84 92.6036   3
  -2  -4  -2 1972.37 52.2911   6
  -2  -4  -2 2089.80 51.6707   0
  -2  -4  -2 1952.40 62.9430   3
  -2  -4  -3 2635.73 59.0388   6
  -2  -4  -3 2472.55 57.3498   0
  -2  -4  -3 2687.14 73.4142   3
  -2  -4  -4 151.313 40.6140   3
  -2  -4  -5 175.869 41.7110   3
  -2  -4  -6 253.802 46.4403   3
  -2  -4  -7 937.362 63.4216   3
  -2  -4  -8 532.135 59.0893   3
  -2  -4 -10 3.78438 57.0228   2
  -2  -4 -11 119.637 66.7930   2
  -2  -5  14 835.663 76.8858   4
   2   5 -13 545.962 52.9876   3
  -2  -5  13 358.455 67.8475   4
   2   5 -12 553.940 62.5515   3
  -2  -5  12 482.444 70.9009   4
   2   5 -11-19.4067 44.9737   3
  -2  -5  11 24.7970 52.8453   4
  -2  -5  10-11.3013 46.6994   4
  -2  -5   9 102.159 49.1679   4
  -2  -5   8 1332.91 75.2109   4
  -2  -5   7 4810.63 114.626   4
  -2  -5   6 2064.45 79.2521   4
  -2  -5   5 529.586 52.7449   4
  -2  -5   4 1034.95 57.2746   4
  -2  -5   3 118.237 23.1118   5
  -2  -5   3 209.837 38.7247   4
  -2  -5   2 3841.15 68.8376   5
  -2  -5   2 3899.76 92.0396   3
  -2  -5   2 3847.03 84.8690   4
  -2  -5   1 344.997 31.7578   5
   2   5  -1 340.342 37.2709   0
  -2  -5   1 325.688 48.1678   3
  -2  -5   0 30.5760 24.9562   5
  -2  -5   0 39.0844 44.6647   3
   2   5   0-9.09231 26.7777   0
  -2  -5  -1 669.799 41.8546   5
   2   5   1 626.179 38.4954   0
  -2  -5  -1 734.084 55.8229   3
  -2  -5  -2 1894.10 70.9540   3
  -2  -5  -3 25.1916 40.4529   3
  -2  -5  -4 792.106 57.9199   3
  -2  -5  -5 1628.20 73.2584   3
  -2  -5  -6 226.076 49.9968   3
  -2  -5  -7 643.815 65.5206   3
  -2  -5  -8 53.4081 59.8796   3
  -2  -5  -9-39.9961 59.7970   3
  -2  -5 -10 3.48174 73.1651   2
  -2  -6  13 127.405 52.3216   4
  -2  -6  12 768.871 73.7605   4
   2   6 -12 519.681 60.6484   3
  -2  -6  11 174.981 53.7114   4
  -2  -6  10 975.699 75.3437   4
  -2  -6   9 770.414 70.4763   4
  -2  -6   8-15.2453 48.7945   4
  -2  -6   7 2912.85 98.1646   4
  -2  -6   6 322.383 53.9103   4
  -2  -6   5-6.28583 41.4360   4
  -2  -6   4 14.9073 36.7632   4
  -2  -6   3 165.441 53.9801   3
  -2  -6   3 120.606 42.1043   4
  -2  -6   2 2531.20 87.2566   3
  -2  -6   2 2593.02 77.9644   4
  -2  -6   2 2541.46 60.6585   5
   2   6  -1 1822.88 56.9681   0
  -2  -6   1 1797.04 54.7299   5
  -2  -6   1 1932.82 78.7060   3
   2   6   0 700.627 44.5073   0
  -2  -6   0 764.750 42.1508   5
  -2  -6   0 782.556 63.5308   3
  -2  -6  -1 72.3625 46.7254   3
  -2  -6  -1 31.7895 29.2957   5
  -2  -6  -2 294.709 56.4832   3
  -2  -6  -3 250.206 52.6703   3
  -2  -6  -4 127.788 53.9566   3
  -2  -6  -5 145.637 54.7946   3
  -2  -6  -6 1183.68 78.1217   3
  -2  -6  -7 1272.75 83.1158   3
  -2  -6  -8 376.060 63.8367   3
  -2  -6  -9-38.9125 58.8009   3
  -2  -7  12-213.332 53.8136   4
  -2  -7  11 629.597 80.8540   4
  -2  -7  10 221.471 58.2725   4
  -2  -7   9-239.647 51.4290   4
  -2  -7   8 471.604 65.6829   4
  -2  -7   7 320.759 56.7657   4
  -2  -7   6 834.495 68.1104   4
  -2  -7   5 943.685 67.0481   4
  -2  -7   4 1005.53 66.1956   4
  -2  -7   3 379.968 66.1933   3
  -2  -7   3 278.400 49.6983   4
  -2  -7   2 625.033 68.1299   3
  -2  -7   2 707.340 56.9329   4
  -2  -7   1 1410.62 81.0670   3
  -2  -7   0 465.895 40.0882   5
  -2  -7   0 582.740 68.6822   3
  -2  -7  -1 1159.36 56.4728   5
  -2  -7  -1 1100.67 74.2309   3
  -2  -7  -2 95.5965 57.4759   3
  -2  -7  -2 128.297 36.7777   5
  -2  -7  -3 963.674 77.6993   3
  -2  -7  -4 839.041 74.0039   3
  -2  -7  -5 2814.59 104.410   3
  -2  -7  -6 967.398 79.5113   3
  -2  -7  -7 568.093 75.8148   3
  -2  -7  -8 1360.55 88.9358   3
  -2  -7  -9 784.778 79.5215   3
  -2  -8  12-61.4520 60.9222   4
  -2  -8  11 158.514 54.7550   4
  -2  -8  10 380.711 64.6339   4
  -2  -8   9 291.217 59.8259   4
  -2  -8   8 154.649 61.2639   4
  -2  -8   7 782.697 68.0718   4
  -2  -8   6 7.11592 50.9301   4
  -2  -8   5 147.645 56.2447   4
  -2  -8   4 316.412 56.0699   4
  -2  -8   3 1017.15 72.2107   4
  -2  -8   3 1174.25 86.8800   3
  -2  -8   2 3980.74 110.819   4
  -2  -8   2 3503.61 117.894   3
  -2  -8   1 5037.70 135.499   3
  -2  -8   0 9342.27 175.594   3
  -2  -8  -1 3060.80 111.816   3
  -2  -8  -2 155.834 64.2626   3
  -2  -8  -2 19.6088 36.7265   5
  -2  -8  -3 2218.86 100.304   3
  -2  -8  -4 1789.26 101.188   3
  -2  -8  -5 224.557 65.8257   3
  -2  -8  -6 191.960 72.6702   3
  -2  -8  -7-10.6780 63.1672   3
  -2  -8  -8 430.543 71.1561   3
  -2  -9  11 156.991 67.3037   4
  -2  -9  10-122.396 49.9908   4
  -2  -9   9 139.423 54.5192   4
  -2  -9   8-23.4413 60.0064   4
  -2  -9   7 872.782 78.6225   4
  -2  -9   6 661.739 68.8893   4
  -2  -9   5 476.618 61.3853   4
  -2  -9   4 738.386 73.2627   4
  -2  -9   3 1606.29 86.2049   4
  -2  -9   3 1670.23 101.456   3
  -2  -9   2 2885.96 106.918   4
  -2  -9   2 3008.94 120.180   3
  -2  -9   1 1279.85 98.1522   3
  -2  -9   0 39.9264 74.3264   3
  -2  -9  -1 1116.92 92.1833   3
  -2  -9  -2 388.716 79.4747   3
  -2  -9  -3 103.147 73.5360   3
  -2  -9  -4 106.059 72.4164   3
  -2  -9  -5 277.337 77.2836   3
  -2  -9  -6 369.278 92.1623   3
  -2  -9  -7 240.555 77.3346   3
  -2 -10   9 869.510 78.3777   4
  -2 -10   8-152.295 56.1831   4
  -2 -10   7 299.428 68.9552   4
  -2 -10   6 349.327 61.9066   4
  -2 -10   5 446.054 66.5159   4
  -2 -10   4 112.801 53.1199   4
  -2 -10   3 108.944 72.0458   3
  -2 -10   3 110.577 53.8639   4
  -2 -10   2-36.4995 78.9772   3
  -2 -10   2 73.0367 48.5138   4
  -2 -10   1 1223.80 74.3691   4
  -2 -10   1 748.538 95.9816   3
  -2 -10   0 413.900 80.2575   3
  -2 -10  -1 723.729 93.9753   3
  -2 -10  -2 319.407 84.8233   3
  -2 -10  -3 54.1309 78.2398   3
  -2 -10  -4-21.0593 75.2343   3
  -2 -10  -5 79.2144 75.7889   3
  -2 -11   8-165.963 66.3675   4
  -2 -11   7 219.967 52.4510   4
  -2 -11   5 315.741 52.9705   4
  -2 -11   4 38.3234 52.5907   4
  -2 -11   3 202.694 52.1288   4
  -2 -11   3 196.994 90.8416   3
  -2 -11   2 334.691 91.3730   3
  -2 -11   2 259.053 65.3229   4
  -2 -11   1 708.458 94.0200   3
  -2 -11   1 893.351 77.1346   4
  -2 -11   0 511.097 94.2175   3
  -2 -11  -1-123.914 79.3312   3
  -2 -11  -2-16.4868 78.0012   3
  -2 -12   4 731.411 74.7397   4
  -2 -12   3 359.652 52.5212   4
  -2 -12   3 488.049 105.517   3
  -2 -12   2 19.8993 89.4119   3
  -2 -12   2-2.48719 52.2181   4
  -2 -12   1-42.2396 55.6501   4
   3 -13  -4 305.201 81.7253   3
  -3  13   4 106.486 63.3688   2
  -3  13   3-6.87717 64.5631   2
   3 -13  -3 156.935 82.5140   3
   3 -13  -2 314.434 73.7658   3
  -3  13   2 447.767 80.9155   2
   3 -13  -1 584.183 61.3000   4
   3 -13   1 532.893 57.6588   4
   3 -13   2-188.136 52.9302   4
   3 -13   3 464.277 62.4213   4
   3 -13   5 650.217 72.8916   4
   3 -12  -6 1635.91 99.4394   3
  -3  12   5 199.676 62.5816   2
   3 -12  -5 450.417 78.5931   3
   3 -12  -4-20.1363 56.2894   3
  -3  12   4 4.13697 65.3977   2
   3 -12  -3 205.437 68.1236   3
  -3  12   3 19.8470 57.8675   2
  -3  12   2 229.354 69.2291   2
   3 -12  -2 157.954 73.6841   3
  -3  12   1-46.9701 53.8545   2
   3 -12  -1-18.9883 61.4977   3
  -3  12   0-142.992 54.7792   2
   3 -12   0-8.31795 43.7881   4
   3 -12   1 201.206 43.4867   4
  -3  12  -1 226.290 61.7667   2
  -3  12  -2 103.837 48.5740   2
   3 -12   3 397.695 54.6250   4
   3 -12   4 15.8613 58.0922   4
   3 -12   5 1094.03 68.8585   4
   3 -12   6-174.868 60.0680   4
   3 -12   7 1029.18 64.1236   4
   3 -11  -7-44.1284 71.7850   3
   3 -11  -6 390.163 75.1317   3
  -3  11   5 521.825 70.6882   2
   3 -11  -5 785.074 84.6646   3
  -3  11   4 714.325 79.3130   2
   3 -11  -4 797.877 74.0852   3
  -3  11   3 576.343 91.1580   2
   3 -11  -3 491.580 69.1377   3
  -3  11   2 573.348 72.5923   2
   3 -11  -2 766.252 70.6129   3
  -3  11   1 399.655 68.4355   2
   3 -11  -1 364.661 67.8431   3
   3 -11   0 250.626 47.9526   4
  -3  11   0 5.82374 56.1789   2
   3 -11   1-85.9382 38.4135   4
  -3  11  -1 32.7139 55.2242   2
  -3  11  -2 44.5891 54.1603   2
   3 -11   2 85.2024 42.8097   4
  -3  11  -3 339.754 55.8056   2
   3 -11   3 519.073 54.1507   4
  -3  11  -4-60.6267 53.2999   2
   3 -11   4-170.372 40.5285   4
   3 -11   5 2029.92 90.2599   4
  -3  11  -5 1902.55 90.3150   2
   3 -11   6 1200.53 72.6475   4
   3 -11   7 615.296 57.6580   4
   3 -11   8-76.8057 62.3234   4
   3 -10  -9-12.5491 59.3779   3
   3 -10  -6-28.1373 58.1539   3
  -3  10   5 129.858 63.5029   2
   3 -10  -5 107.760 52.1940   3
  -3  10   4 339.833 63.5483   2
   3 -10  -4 399.072 59.0895   3
  -3  10   3 943.760 72.9396   2
   3 -10  -3 1039.15 72.6273   3
  -3  10   2 1460.89 82.7934   2
   3 -10  -2 1191.94 75.7425   3
  -3  10   1 4811.86 121.649   2
   3 -10  -1 4970.02 119.082   3
  -3  10   0 1316.55 78.8735   2
   3 -10   0 1202.51 70.2315   4
   3 -10   0 1067.12 69.9959   3
   3 -10   1 2912.93 98.0383   4
  -3  10  -1 2884.37 99.1610   2
   3 -10   2 1050.59 68.6740   4
  -3  10  -2 1073.30 68.3570   2
   3 -10   3 248.029 50.6168   4
  -3  10  -3 93.8338 47.0191   2
   3 -10   4 1123.39 66.7966   4
  -3  10  -4 1485.86 78.6526   2
  -3  10  -5 14.0352 46.0305   2
   3 -10   5 30.2563 39.3821   4
  -3  10  -6 166.575 56.6258   2
   3 -10   6 199.133 44.5245   4
  -3  10  -7-158.246 48.5742   2
   3 -10   8 156.233 56.8593   4
  -3  10  -8 2.59648 58.4814   2
   3 -10   9-157.887 62.7119   4
   3  -9 -10 1641.50 100.442   3
   3  -9  -9 146.727 69.2522   3
   3  -9  -8 343.514 64.0376   3
  -3   9   6 56.6255 55.5874   2
  -3   9   5 585.657 65.3567   2
   3  -9  -5 474.449 61.1320   3
  -3   9   4 922.967 75.8067   2
   3  -9  -4 889.382 65.7462   3
  -3   9   3 1239.93 73.9816   2
   3  -9  -3 1260.67 70.1376   3
  -3   9   2 83.1585 49.7386   2
   3  -9  -2 160.468 49.0780   3
  -3   9   1 5279.53 120.628   2
   3  -9  -1 5479.54 113.362   3
  -3   9   0 5699.41 128.594   2
   3  -9   0 5405.16 111.226   3
   3  -9   1 1006.44 61.6823   4
  -3   9  -1 1065.81 69.1318   2
   3  -9   2 1650.35 74.2579   4
  -3   9  -2 1570.88 75.8822   2
   3  -9   3 40.3331 43.3351   4
  -3   9  -3 142.218 51.3654   2
  -3   9  -4 34.9169 46.0845   2
   3  -9   4 95.3433 45.1071   4
  -3   9  -5-8.94836 56.0166   2
   3  -9   5-50.8868 43.8577   4
   3  -9   6 1163.24 68.0147   4
  -3   9  -6 935.040 75.4997   2
   3  -9   7 346.407 43.7317   4
  -3   9  -7 667.227 73.3679   2
  -3   9  -8-74.6299 58.2411   2
   3  -9   8 47.5312 44.4893   4
  -3   9  -9-47.3991 59.3499   2
   3  -9   9-28.3450 48.6494   4
  -3   9 -10 112.481 55.9960   2
   3  -8 -11-0.24323 65.7739   3
   3  -8 -10-37.3724 55.1584   3
   3  -8  -9 365.801 70.6412   3
   3  -8  -8 47.7029 54.5830   3
   3  -8  -7 34.8496 53.6037   3
  -3   8   6 189.271 55.9190   2
   3  -8  -6 293.061 55.9283   3
  -3   8   5 169.958 58.8255   2
   3  -8  -5 258.617 51.4500   3
   3  -8  -4 893.394 62.1025   3
  -3   8   4 1116.20 72.3939   2
  -3   8   3 1080.43 68.7683   2
   3  -8  -3 936.527 58.0157   3
   3  -8  -2 300.314 46.0564   3
  -3   8   2 320.535 53.7720   2
  -3   8   1 799.445 64.3964   2
   3  -8  -1 843.686 53.3503   3
   3  -8   0 44.7265 38.4368   3
  -3   8   0 12.2587 47.7552   2
   3  -8   1 3291.67 80.1663   3
   3  -8   1 3337.09 87.2977   4
  -3   8  -1 3094.77 91.3911   2
  -3   8  -2 655.480 57.3246   2
   3  -8   2 574.440 49.0844   4
   3  -8   3 662.674 51.6696   4
  -3   8  -3 723.933 61.5885   2
   3  -8   4 5836.37 120.780   4
  -3   8  -4 5508.84 123.386   2
   3  -8   5 3965.17 106.624   4
  -3   8  -5 4017.03 112.413   2
  -3   8  -6 877.124 71.3418   2
   3  -8   6 989.288 64.4071   4
   3  -8   7 656.962 55.7894   4
  -3   8  -7 497.829 63.4687   2
  -3   8  -8 33.9721 49.5335   2
   3  -8   8 151.185 45.4546   4
  -3   8  -9 22.5022 49.5627   2
   3  -8   9-27.7664 52.2003   4
   3  -8  10 249.149 50.3444   4
  -3   8 -10-140.408 52.9442   2
  -3   8 -11-41.1521 62.0712   2
   3  -7 -12 70.5628 56.2623   3
   3  -7 -11 27.5720 66.3077   3
   3  -7 -10 166.551 64.4628   3
   3  -7  -9 89.8175 57.3595   3
   3  -7  -8 177.462 54.1108   3
   3  -7  -7 14.8532 50.3367   3
   3  -7  -6 497.421 56.3781   3
  -3   7   6 643.518 67.9374   2
  -3   7   5 12.3610 52.7387   2
   3  -7  -5 39.5818 43.0927   3
   3  -7  -4 386.534 47.5390   3
  -3   7   4 389.898 54.4202   2
  -3   7   3 26.0550 46.8611   2
   3  -7  -3-9.81407 37.2848   3
   3  -7  -2-41.8223 35.5584   3
  -3   7   2 0.94986 41.1882   2
   3  -7  -1 490.765 41.7720   3
  -3   7   1 497.067 52.8567   2
  -3   7   0 1272.56 64.3128   2
   3  -7   0 1329.13 51.3289   3
   3  -7   1 382.144 39.2462   4
  -3   7  -1 423.463 46.7625   2
   3  -7   1 367.652 35.0202   3
   3  -7   2 1579.25 59.5875   4
  -3   7  -2 1566.55 69.5005   2
   3  -7   3 1999.32 66.2771   4
  -3   7  -3 1979.11 78.1921   2
   3  -7   4 2269.81 75.5190   4
  -3   7  -4 2398.38 86.0101   2
  -3   7  -5 91.8044 52.6116   2
   3  -7   5 174.751 41.1138   4
   3  -7   6 19.0341 46.3809   4
  -3   7  -6-5.91427 47.6173   2
  -3   7  -7 122.940 49.1901   2
   3  -7   7 283.841 49.4692   4
  -3   7  -8 186.756 57.7626   2
   3  -7   8 31.4913 42.0564   4
  -3   7  -9 123.023 53.7008   2
   3  -7   9 289.144 48.5429   4
  -3   7 -10 94.9916 60.9088   2
   3  -7  10-248.382 50.1496   4
  -3   7 -11 195.338 59.9720   2
   3  -6 -12 82.8741 62.4049   3
   3  -6 -11 100.894 61.2927   3
   3  -6 -10 110.203 50.0565   3
   3  -6  -9-26.6113 51.9407   3
   3  -6  -8-14.1527 50.0125   3
   3  -6  -7 8140.65 142.947   3
   3  -6  -6 922.919 59.0848   3
  -3   6   6 873.751 64.5010   2
   3  -6  -5 2637.63 78.1439   3
  -3   6   5 2540.89 85.0030   2
   3  -6  -4 1963.76 66.1905   3
  -3   6   4 1929.93 74.1797   2
   3  -6  -3 5756.40 97.1803   3
  -3   6   3 5778.40 108.785   2
   3  -6  -2 23017.5 176.158   3
  -3   6   2 23700.6 203.892   2
   3  -6  -1 1695.10 42.8067   1
  -3   6   1 1583.86 65.5992   2
   3  -6  -1 1579.73 50.5393   3
   3  -6   0 1729.64 39.3688   1
  -3   6   0 1678.34 64.6116   2
   3  -6   0 1710.32 48.2766   3
   3  -6   1 2422.01 53.4442   3
  -3   6  -1 2418.40 73.0182   2
   3  -6   1 2467.98 62.1739   4
  -3   6  -2 3626.06 89.2518   2
   3  -6   2 3638.68 76.7296   4
  -3   6  -3 293.535 47.8804   2
   3  -6   3 361.764 36.5513   4
  -3   6  -4-2.68533 38.6889   2
   3  -6   4 19.6963 32.3167   4
   3  -6   5 746.745 50.6379   4
  -3   6  -5 635.166 58.9720   2
   3  -6   6 1191.43 63.6917   4
  -3   6  -6 1310.60 73.1754   2
   3  -6   7 2404.05 88.5594   4
  -3   6  -7 2554.13 96.2574   2
  -3   6  -8 221.010 54.9769   2
   3  -6   8 351.127 51.8671   4
  -3   6  -9 20.4623 58.6563   2
   3  -6   9-156.529 39.3554   4
   3  -6  10 342.131 48.4676   4
  -3   6 -10-25.1457 60.9811   2
  -3   6 -11 30.0894 50.8555   2
   3  -6  11 19.5895 49.1745   4
  -3   6 -12-192.298 63.5711   2
   3  -5 -12 158.672 53.6710   3
   3  -5 -11 143.505 53.0511   3
   3  -5 -10 45.1919 49.5794   3
   3  -5  -9 693.958 65.2053   3
   3  -5  -8 668.894 65.1723   3
   3  -5  -7 940.352 59.8540   3
  -3   5   6 51.2417 43.6062   2
   3  -5  -6 32.6492 38.8684   3
   3  -5  -5 905.478 49.8162   3
  -3   5   5 817.038 53.8517   2
  -3   5   4 1.73040 37.8096   2
   3  -5  -4-34.1514 33.9563   3
   3  -5  -3 27196.4 183.329   3
  -3   5   3 26564.8 203.413   2
  -3   5   3 25961.2 125.192   0
  -3   5   2 12544.2 144.142   2
   3  -5  -2 11670.2 113.798   3
   3  -5  -2 11496.9 107.546   1
  -3   5   1 17.1237 34.8354   2
   3  -5  -1 41.5842 21.8921   3
   3  -5  -1 9.16845 21.2527   1
   3  -5   0 955.867 33.6565   1
   3  -5   0 949.906 33.3602   3
   3  -5   0 1272.54 38.5190   4
  -3   5   0 958.365 49.6120   2
   3  -5   1 823.596 31.7514   1
  -3   5  -1 814.910 48.9663   2
   3  -5   1 749.559 34.1949   4
   3  -5   1 746.466 29.2564   3
  -3   5  -2 1069.82 32.5400   5
   3  -5   2 1081.93 42.2208   4
  -3   5  -2 1033.97 54.9719   2
  -3   5  -3 115.568 37.9316   2
   3  -5   3 75.9674 25.3357   4
   3  -5   4 39.4116 27.7785   4
  -3   5  -4-2.39166 40.1203   2
   3  -5   5 65.0034 32.5435   4
  -3   5  -5 121.409 41.6325   2
   3  -5   6-55.1213 38.2309   4
  -3   5  -6-117.211 43.0431   2
  -3   5  -7 940.022 70.5412   2
   3  -5   7 1030.67 66.6217   4
  -3   5  -8 336.144 62.0582   2
   3  -5   8 355.445 52.7518   4
  -3   5  -9 696.662 71.2875   2
   3  -5   9 723.765 61.8817   4
   3  -5  10 354.858 49.6511   4
  -3   5 -10 637.312 74.6712   2
  -3   5 -11 378.874 73.0902   2
   3  -5  11 280.990 56.1267   4
  -3   5 -12 136.125 68.1644   2
   3  -4 -14 317.985 62.0313   3
   3  -4 -13 150.847 61.3441   3
   3  -4 -12 204.010 54.1982   3
   3  -4 -11 620.919 66.2416   3
   3  -4 -10 2594.52 94.4023   3
   3  -4  -9 6519.57 130.627   3
   3  -4  -8 474.542 61.1769   3
   3  -4  -7 9367.98 134.625   3
   3  -4  -6 91.2937 36.9270   3
  -3   4   6 102.125 40.7868   2
  -3   4   5-7.02987 37.9539   2
   3  -4  -5 3.85255 30.6689   3
   3  -4  -4 2948.14 64.4379   3
  -3   4   4 2680.13 70.5042   2
  -3   4   3 1700.64 58.1740   2
  -3   4   3 1736.80 37.8897   0
   3  -4  -3 1811.40 52.2414   1
   3  -4  -3 1745.18 48.5957   3
   3  -4  -2 4156.86 62.4603   3
   3  -4  -2 4117.39 66.9228   1
  -3   4   2 4149.12 79.6188   2
   3  -4  -1 1332.12 35.2356   3
   3  -4  -1 1300.15 39.7712   1
  -3   4   1 1323.53 50.8198   2
   3  -4   0 3120.22 44.1288   3
   3  -4   0 3134.15 50.5920   4
  -3   4   0 3045.70 68.4919   2
   3  -4   0 3169.16 56.0334   1
  -3   4  -1 6327.75 98.5679   2
  -3   4  -1 6223.76 73.7144   5
   3  -4   1 6171.64 72.6585   4
   3  -4   1 6075.02 52.7543   3
  -3   4  -2 9399.66 92.2942   5
   3  -4   2 9612.82 97.9528   4
  -3   4  -2 10065.3 124.858   2
   3  -4   3 3893.32 69.5816   4
  -3   4  -3 3913.71 86.1813   2
  -3   4  -3 3706.51 63.2020   5
  -3   4  -4 237.155 24.9825   5
  -3   4  -4 216.740 43.1065   2
   3  -4   4 221.858 32.0329   4
   3  -4   5 108.401 32.2636   4
  -3   4  -5 113.642 43.4964   2
  -3   4  -5 91.5164 23.9838   5
   3  -4   6 362.852 43.6922   4
  -3   4  -6 567.960 57.0554   2
   3  -4   7 3066.54 91.8689   4
  -3   4  -7 3109.11 100.749   2
   3  -4   8 562.866 58.6550   4
  -3   4  -8 635.733 66.6993   2
   3  -4   9 17.5785 39.0251   4
  -3   4  -9 41.8127 54.9718   2
   3  -4  10 238.572 48.3056   4
  -3   4 -10 21.4785 48.9302   2
  -3   4 -11-25.4699 48.1169   2
  -3   4 -12 180.170 61.2995   2
   3  -3 -14 499.238 68.6770   3
   3  -3 -13 363.891 62.4353   3
   3  -3 -12 1940.70 86.5692   3
   3  -3 -11 3849.07 111.343   3
   3  -3 -10 5998.14 128.567   3
   3  -3  -9 37880.0 288.959   3
   3  -3  -8 16017.9 180.939   3
   3  -3  -7 1197.79 60.6726   3
   3  -3  -6 2017.66 63.6222   3
   3  -3  -6 2006.83 44.4259   0
   3  -3  -5 470.317 38.5229   3
  -3   3   5 421.434 38.5381   2
   3  -3  -5 389.264 24.8100   0
  -3   3   4 4665.61 81.2688   2
   3  -3  -4 4577.22 75.5000   3
   3  -3  -4 4437.62 58.9417   0
   3  -3  -4 4427.43 77.0808   1
  -3   3   3 13172.2 122.548   2
   3  -3  -3 12991.3 109.528   3
  -3   3   3 12914.8 96.5223   0
   3  -3  -3 12977.5 120.139   1
   3  -3  -2 1762.43 38.7746   3
   3  -3  -2 1651.53 45.6772   1
  -3   3   2 1656.58 41.8549   0
  -3   3   2 1722.54 50.2841   2
   3  -3  -1 12649.8 81.7749   3
   3  -3  -1 13141.5 112.054   1
  -3   3   1 13015.6 117.910   2
   3  -3   0 14780.4 71.0489   3
  -3   3   0 14910.0 131.664   2
  -3   3   0 14288.1 113.984   5
   3  -3   0 14695.0 82.7329   4
  -3   3  -1 38484.0 187.659   5
   3  -3   1 39461.5 151.029   4
  -3   3  -1 38931.2 218.809   2
   3  -3   2 15493.7 110.254   4
  -3   3  -2 15381.3 124.624   5
  -3   3  -2 15592.4 148.048   2
  -3   3  -3 115.022 36.6256   2
   3  -3   3 141.045 24.2486   4
  -3   3  -3 170.783 24.4539   5
   3  -3   4 1214.86 46.9001   4
  -3   3  -4 1183.67 57.4103   2
  -3   3  -4 1115.65 43.2273   5
  -3   3  -5 1089.13 45.3836   5
   3  -3   5 1185.75 50.3252   4
  -3   3  -5 1088.70 60.8205   2
  -3   3  -6 178.749 50.4283   2
  -3   3  -6 249.444 33.8434   5
   3  -3   6 226.110 41.2386   4
   3  -3   7 834.472 57.6970   4
  -3   3  -7 1006.29 69.3842   2
   3  -3   8 475.515 55.2641   4
  -3   3  -8 530.723 64.9413   2
  -3   3  -9-14.7472 54.2391   2
  -3   3 -10-4.32475 57.7496   2
  -3   3 -11 26.4204 53.0504   2
  -3   3 -12-74.4472 65.9091   2
   3  -2 -14 316.656 64.8042   3
   3  -2 -13 657.733 65.2905   3
   3  -2 -12 1405.64 79.0417   3
   3  -2 -11 1502.35 77.8054   3
   3  -2 -10 3489.91 102.164   3
   3  -2  -9 3548.32 108.888   3
   3  -2  -8 1160.86 63.8419   3
   3  -2  -7 1728.46 66.9808   3
   3  -2  -6 1103.26 51.3472   3
   3  -2  -5 117.442 32.6179   1
  -3   2   5 124.542 31.6803   2
   3  -2  -5 106.139 23.8132   0
   3  -2  -5 78.1222 32.3912   3
  -3   2   4 5794.06 81.5941   2
   3  -2  -4 5997.99 81.9571   3
   3  -2  -4 5897.65 73.1885   0
   3  -2  -4 5975.55 87.6402   1
  -3   2   3 3522.60 60.7476   2
   3  -2  -3 3585.34 58.1399   3
   3  -2  -3 3220.20 56.3727   0
   3  -2  -3 3382.11 66.0630   1
  -3   2   3 3621.58 56.9923   0
   3  -2  -2 5665.97 62.6382   3
   3  -2  -2 5417.53 77.9964   1
  -3   2   2 5489.72 70.4861   0
  -3   2   2 5463.39 71.9462   2
  -3   2   1 4166.56 67.0960   5
   3  -2  -1 4121.47 45.2773   3
  -3   2   1 4068.25 63.9752   2
  -3   2   0 11284.5 106.256   2
  -3   2   0 11100.0 106.086   5
  -3   2  -1 66653.7 258.650   5
   3  -2   1 67021.3 169.796   4
  -3   2  -1 66679.9 268.030   2
  -3   2  -2 968.631 40.0273   5
  -3   2  -2 943.216 48.0905   2
   3  -2   2 992.499 31.5140   4
   3  -2   3 6415.90 80.3442   4
  -3   2  -3 6675.77 91.1230   5
  -3   2  -3 6501.91 101.933   2
  -3   2  -4 3746.07 87.8938   2
  -3   2  -4 3947.13 75.4595   5
   3  -2   4 3931.13 73.6668   4
  -3   2  -5 475.166 38.3169   5
   3  -2   5 477.692 40.5834   4
  -3   2  -5 411.910 53.7456   2
  -3   2  -6 14193.2 185.244   2
  -3   2  -7 97.0216 51.5396   2
  -3   2  -8 177.457 57.6607   2
  -3   2  -9 63.6950 58.3874   2
  -3   2 -10 274.379 68.0781   2
  -3   2 -11 640.441 80.4343   2
  -3   2 -12 373.307 73.4426   2
   3  -1 -15 305.462 73.2299   2
   3  -1 -15 638.280 74.5852   3
   3  -1 -14 690.057 69.0828   3
   3  -1 -13 6.19511 45.8250   3
   3  -1 -12 103.011 53.2291   3
   3  -1 -11-14.4471 46.3553   3
   3  -1 -10 51.3056 51.8939   3
   3  -1  -9 6933.00 132.068   3
   3  -1  -8 23.9938 38.1754   3
  -3   1   7 67.2906 24.3327   6
   3  -1  -7 100.157 37.1146   3
   3  -1  -6 2554.97 66.8182   3
  -3   1   6 2465.90 52.8975   6
   3  -1  -6 2575.50 67.5242   1
   3  -1  -5 13188.7 127.561   3
  -3   1   5 12772.7 111.033   6
  -3   1   5 12630.2 120.972   4
   3  -1  -5 12980.5 116.129   0
   3  -1  -5 13180.5 130.142   1
  -3   1   4 39.7262 23.1473   2
  -3   1   4 28.3940 19.5963   4
   3  -1  -4 5.51366 25.5605   0
   3  -1  -4 24.6154 26.0039   3
   3  -1  -4 8.56053 25.3768   1
  -3   1   3 119.380 24.2505   0
   3  -1  -3 110.905 27.5719   0
   3  -1  -3 103.472 28.2154   1
   3  -1  -3 90.8185 22.4935   3
  -3   1   3 109.559 21.4906   2
   3  -1  -2-1.02773 24.2935   1
   3  -1  -2-3.37474 18.6080   3
   3  -1  -2 14.6488 25.2778   0
  -3   1   2 8.70725 25.8483   0
  -3   1   2-9.06990 19.3314   2
  -3   1   1-16.1937 24.5379   5
  -3   1   1 7.90555 20.3098   2
  -3   1   1-3.49815 21.9524   0
  -3   1   0 23.2877 22.6966   2
  -3   1   0 19.6106 28.6313   5
  -3   1  -1 217.526 30.6965   5
  -3   1  -1 215.199 30.9959   2
  -3   1  -2 501.081 37.2457   5
  -3   1  -2 567.458 36.3860   2
  -3   1  -3 337.424 32.8085   5
  -3   1  -3 306.323 36.2895   2
  -3   1  -3 340.382 16.7421   3
  -3   1  -4 200.882 41.9000   2
  -3   1  -4 178.569 30.4226   5
  -3   1  -4 158.784 16.6265   3
  -3   1  -5 1342.78 65.8264   2
  -3   1  -6 1849.25 80.2338   2
  -3   1  -7-14.1648 47.9040   2
  -3   1  -8 63.7096 50.3303   2
  -3   1  -9 210.964 62.5703   2
  -3   1 -10 721.547 72.7088   2
  -3   1 -11 466.949 77.7864   2
  -3   1 -12 407.729 80.1583   2
   3   0 -15 405.522 62.9998   3
   3   0 -14 99.8623 45.8957   3
   3   0 -13-17.7947 45.2789   3
   3   0 -12 22.1534 43.6183   3
   3   0 -11-18.7180 45.4015   3
   3   0 -10 6231.27 126.167   3
  -3   0  10 5931.63 135.014   4
   3   0  -9 475.613 52.1273   3
  -3   0   9 449.323 54.4788   4
  -3   0   8-22.0346 37.4320   4
   3   0  -8-13.6700 35.6584   3
  -3   0   7 146.491 29.4033   6
  -3   0   7 126.531 38.8356   4
   3   0  -7 154.709 38.3735   3
   3   0  -6 1564.74 56.1615   3
  -3   0   6 1540.24 47.6140   6
  -3   0   6 1494.24 55.6189   4
   3   0  -6 1490.83 53.3043   1
   3   0  -5 1175.13 49.5107   3
  -3   0   5 1089.05 42.1178   4
   3   0  -5 1092.00 46.4500   1
  -3   0   5 1133.10 44.2040   6
  -3   0   4 573.686 26.4530   2
  -3   0   4 636.557 36.9301   6
   3   0  -4 598.745 35.8703   1
  -3   0   4 567.755 30.8002   4
   3   0  -4 572.427 36.7150   0
  -3   0   3 1.77236 15.3179   2
   3   0  -3 5.35355 27.0829   0
   3   0  -3-1.68465 23.4053   1
  -3   0   3 11.8774 25.8837   6
  -3   0   3 10.5539 15.4168   4
  -3   0   2 2863.41 35.8397   4
  -3   0   2 2947.48 61.6554   6
   3   0  -2 2751.61 57.2093   0
  -3   0   2 2928.91 40.2787   2
  -3   0   2 2992.36 63.3800   5
  -3   0   2 3013.39 62.0011   0
  -3   0   1 9304.67 102.518   0
   3   0  -1 8521.78 96.9129   0
  -3   0   1 8845.97 101.313   5
  -3   0   1 8684.20 73.4713   2
  -3   0   0 35684.2 200.619   5
  -3   0   0 35931.5 201.551   0
  -3   0   0 35748.6 163.417   2
  -3   0  -1 9175.03 107.118   5
  -3   0  -1 9428.35 96.5495   2
  -3   0  -1 9296.90 74.8878   3
  -3   0  -2 3626.20 73.6333   5
  -3   0  -2 3813.40 70.9198   2
  -3   0  -2 3670.53 50.0608   3
  -3   0  -3 2292.44 64.4972   5
  -3   0  -3 2298.27 64.3725   2
  -3   0  -3 2294.38 43.1826   3
  -3   0  -4 3914.47 86.3765   2
  -3   0  -4 3912.32 59.3416   3
  -3   0  -5 2850.80 83.4535   2
  -3   0  -6 421.463 55.8300   2
  -3   0  -7 6.74836 51.9287   2
  -3   0  -8 15.7719 50.5797   2
  -3   0  -9 149.397 65.1507   2
  -3   0 -10 222.047 71.0900   2
  -3   0 -11 524.026 85.8652   2
   3   1 -14 140.886 56.7537   3
   3   1 -13 83.3970 44.5704   3
   3   1 -12-6.50900 42.6844   3
  -3  -1  12 14.5195 51.9249   4
   3   1 -11 543.252 56.2120   3
  -3  -1  11 425.867 57.7751   4
   3   1 -10-17.6720 50.4196   3
  -3  -1  10-6.20560 52.3693   4
   3   1  -9 483.389 53.0649   3
  -3  -1   9 557.790 58.1202   4
   3   1  -8 1253.39 62.4742   3
  -3  -1   8 1111.25 60.0969   4
   3   1  -7 6346.95 109.055   3
  -3  -1   7 6235.51 110.412   4
   3   1  -7 6738.18 103.100   1
  -3  -1   6 650.141 43.3454   4
   3   1  -6 703.601 42.6706   1
   3   1  -5 1242.39 48.8559   1
  -3  -1   5 1224.60 46.9867   6
  -3  -1   5 1179.62 45.3347   4
  -3  -1   4 86.3349 28.1127   6
   3   1  -4 111.113 30.5405   1
  -3  -1   4 93.4550 23.8154   4
  -3  -1   3 4600.37 76.7740   5
   3   1  -3 4283.94 73.1805   1
  -3  -1   3 4667.71 78.0598   6
  -3  -1   3 4435.26 60.6531   4
   3   1  -3 4396.79 73.8454   0
   3   1  -2 473.128 36.6210   0
  -3  -1   2 457.822 39.6265   6
  -3  -1   2 401.354 36.2942   5
  -3  -1   2 486.677 23.7018   4
  -3  -1   1 19624.7 148.848   6
  -3  -1   1 20160.9 156.122   5
  -3  -1   1 19898.9 150.629   0
   3   1  -1 20343.2 155.920   0
  -3  -1   1 19486.2 99.1591   2
  -3  -1   0 6564.43 90.6825   0
  -3  -1   0 6619.83 89.3694   6
  -3  -1   0 6696.66 93.7133   5
  -3  -1   0 6595.34 69.6136   2
  -3  -1   0 6753.38 79.3687   3
  -3  -1  -1 18402.8 156.814   5
  -3  -1  -1 18003.0 151.549   0
  -3  -1  -1 17816.8 129.831   2
  -3  -1  -1 18267.7 125.321   3
  -3  -1  -2 8585.49 114.422   5
  -3  -1  -2 8368.57 102.008   2
  -3  -1  -2 8672.22 88.7933   3
  -3  -1  -3 2518.03 70.0222   5
  -3  -1  -3 2791.83 70.2639   2
  -3  -1  -3 2829.81 55.3988   3
  -3  -1  -4 353.270 41.1194   2
  -3  -1  -4 346.990 30.6804   3
  -3  -1  -5 204.185 42.5329   2
  -3  -1  -5 132.640 26.6838   3
  -3  -1  -6 840.798 61.3765   2
  -3  -1  -7 427.766 63.8992   2
  -3  -1  -8 95.6231 56.2795   2
  -3  -1  -9 206.557 63.2830   2
  -3  -1 -10 133.882 65.6065   2
  -3  -1 -11 643.091 79.3440   2
   3   2 -15-114.298 59.7328   3
   3   2 -14 35.6294 47.4430   3
  -3  -2  14 343.299 66.0244   4
   3   2 -13 55.9359 42.9814   3
  -3  -2  13-29.7392 59.1595   4
   3   2 -12 164.386 51.9510   3
  -3  -2  12 5.88744 56.2301   4
   3   2 -11 640.611 59.4574   3
  -3  -2  11 822.862 68.1891   4
   3   2 -10 4682.40 114.908   3
  -3  -2  10 4395.37 122.285   4
   3   2  -9 1395.94 68.3376   3
  -3  -2   9 1380.47 73.3912   4
   3   2  -8 1457.65 66.6648   3
  -3  -2   8 1468.98 68.5948   4
   3   2  -7 848.028 46.0881   1
  -3  -2   7 857.257 54.3127   4
  -3  -2   6 139.465 36.5405   4
   3   2  -6 62.5709 28.8505   1
  -3  -2   5 5540.51 89.6583   4
   3   2  -5 5548.66 85.9738   1
   3   2  -4 317.157 32.3966   1
  -3  -2   4 283.350 29.5572   4
   3   2  -3 361.715 33.5130   0
  -3  -2   3 383.717 29.6887   4
  -3  -2   3 342.207 35.0865   5
  -3  -2   2 4486.24 81.2599   6
  -3  -2   2 4573.91 80.0010   5
   3   2  -2 4617.78 82.2014   0
  -3  -2   2 4614.85 66.4984   4
  -3  -2   1 32823.7 203.064   5
  -3  -2   1 32015.1 192.630   3
  -3  -2   1 32015.1 117.641   2
   3   2  -1 30302.4 190.406   0
  -3  -2   1 32211.1 199.983   6
  -3  -2   1 32283.4 197.015   0
  -3  -2   0 359.367 38.6889   6
  -3  -2   0 347.343 24.0880   2
  -3  -2   0 351.151 39.2865   0
   3   2   0 291.565 36.2344   0
  -3  -2   0 379.249 37.1693   3
  -3  -2   0 489.087 38.6225   5
  -3  -2  -1 16496.9 147.467   0
  -3  -2  -1 16492.8 142.387   6
  -3  -2  -1 16679.9 157.069   5
  -3  -2  -1 16600.0 126.451   2
  -3  -2  -1 16734.1 137.912   3
  -3  -2  -2 2493.68 61.2345   2
  -3  -2  -2 2524.11 70.3260   5
  -3  -2  -2 2626.37 67.5061   0
  -3  -2  -2 2495.08 59.3267   3
  -3  -2  -3 292.766 34.7495   0
  -3  -2  -3 246.212 33.2323   3
  -3  -2  -3 324.514 40.9417   5
  -3  -2  -3 286.159 36.6670   2
  -3  -2  -4 1083.13 56.0231   2
  -3  -2  -4 1285.25 48.5936   3
  -3  -2  -5 163.825 45.7465   2
  -3  -2  -5 157.194 32.6142   3
  -3  -2  -6 950.035 65.7338   2
  -3  -2  -7 279.000 54.6532   2
  -3  -2  -8 56.1944 54.5334   2
  -3  -2  -9 1804.16 97.6390   2
  -3  -2 -10 582.750 76.3972   2
  -3  -2 -11 378.918 84.6057   2
   3   3 -14 359.742 54.4675   3
  -3  -3  14-208.740 56.5064   4
  -3  -3  13-41.5731 50.4706   4
   3   3 -13-33.7121 48.7372   3
   3   3 -12 220.690 53.4492   3
  -3  -3  12 352.654 67.5354   4
   3   3 -11 129.308 50.0299   3
  -3  -3  11-9.15052 45.6166   4
   3   3 -10 1098.59 67.8532   3
  -3  -3  10 1278.40 78.4207   4
  -3  -3   9 205.687 52.3924   4
  -3  -3   8 1518.61 73.6895   4
  -3  -3   7 6201.28 116.235   4
   3   3  -7 6467.56 97.1278   1
  -3  -3   6 11333.8 142.754   4
   3   3  -6 11293.9 122.048   1
  -3  -3   5 44.8705 29.5105   4
   3   3  -5 74.8074 27.6751   1
  -3  -3   4 1217.77 49.4494   4
   3   3  -4 1178.88 45.8140   1
   3   3  -3 5488.47 94.7007   0
  -3  -3   3 5176.65 84.7262   5
  -3  -3   3 4951.35 81.2784   4
  -3  -3   2 28263.8 178.929   4
  -3  -3   2 28806.7 196.322   5
   3   3  -2 28490.6 199.335   0
   3   3  -1 38275.1 228.792   0
  -3  -3   1 38781.3 229.535   5
  -3  -3   1 38056.5 229.754   6
  -3  -3   1 37710.1 132.918   2
  -3  -3   1 38120.9 232.298   3
  -3  -3   0 2359.11 65.2234   6
  -3  -3   0 2586.38 65.4123   0
   3   3   0 2378.37 66.5133   0
  -3  -3   0 2369.01 45.4475   2
  -3  -3   0 2522.46 67.4051   5
  -3  -3   0 2510.24 67.3847   3
  -3  -3  -1 164.424 34.7776   6
  -3  -3  -1 187.441 39.2898   3
  -3  -3  -1 170.736 26.9042   2
  -3  -3  -1 144.730 32.9399   0
  -3  -3  -1 166.473 34.1513   5
  -3  -3  -2 1173.96 49.7489   0
  -3  -3  -2 1270.78 56.0854   5
  -3  -3  -2 1123.36 47.5285   6
  -3  -3  -2 1195.67 47.3622   2
  -3  -3  -2 1194.80 52.9420   3
  -3  -3  -3 1072.06 57.5538   5
  -3  -3  -3 1022.97 50.6868   2
  -3  -3  -3 946.443 45.3958   0
  -3  -3  -3 1042.71 50.8182   3
  -3  -3  -4 102.805 33.7634   0
  -3  -3  -4 85.8974 37.2068   3
  -3  -3  -4 85.6721 39.3001   2
  -3  -3  -5 28.7605 42.9154   2
  -3  -3  -5 134.063 40.5608   3
  -3  -3  -6 78.8536 50.6336   2
  -3  -3  -6 131.105 37.1439   3
  -3  -3  -7 45.5091 48.0796   2
  -3  -3  -8 1218.27 87.8439   2
  -3  -3  -9 467.021 66.7744   2
  -3  -3 -10 230.415 73.5182   2
  -3  -3 -11 151.386 72.8915   2
   3   4 -15 112.990 65.1253   3
   3   4 -14-115.433 56.7078   3
  -3  -4  14-91.5058 59.3332   4
   3   4 -13-159.160 46.3216   3
  -3  -4  13 94.1641 61.8786   4
   3   4 -12 186.653 44.5105   3
   3   4 -11-81.7196 46.8223   3
  -3  -4  11 75.4826 49.2605   4
  -3  -4  10-56.0924 47.6778   4
  -3  -4   9 1089.66 72.1092   4
  -3  -4   8 555.698 59.0763   4
  -3  -4   7 160.777 43.0526   4
   3   4  -7 260.249 33.1098   1
  -3  -4   6 2246.05 75.8931   4
   3   4  -6 2251.22 59.5745   1
   3   4  -5 549.227 37.5111   1
  -3  -4   5 559.990 46.5839   4
  -3  -4   4 697.256 39.7901   5
  -3  -4   4 808.096 47.6105   4
   3   4  -4 677.169 39.0986   1
  -3  -4   3 85.3321 30.5155   5
   3   4  -3 156.920 34.8387   0
  -3  -4   3 143.846 33.7170   4
  -3  -4   2 3385.35 75.4675   5
   3   4  -2 3411.16 76.7051   0
  -3  -4   2 3358.41 74.0758   4
  -3  -4   2 3316.92 86.3291   3
  -3  -4   1 44.6195 42.6351   3
   3   4  -1 8.68279 31.9539   0
  -3  -4   1 67.4725 30.9801   5
  -3  -4   0 54.0388 33.4898   6
  -3  -4   0 52.1638 39.5239   3
   3   4   0 68.1655 32.6040   0
  -3  -4   0 83.0787 32.0186   5
  -3  -4  -1 3874.00 82.2381   6
  -3  -4  -1 3935.60 88.2874   5
  -3  -4  -1 3850.24 77.4558   0
  -3  -4  -1 3943.24 89.8090   3
  -3  -4  -2 1918.12 61.6947   6
  -3  -4  -2 1867.53 68.1679   5
  -3  -4  -2 1832.27 57.6241   0
  -3  -4  -2 1896.05 69.0839   3
  -3  -4  -3 403.997 48.3646   5
  -3  -4  -3 420.386 36.7199   0
  -3  -4  -3 324.317 37.1871   6
  -3  -4  -3 450.600 50.4999   3
  -3  -4  -4 6.44081 38.0439   3
  -3  -4  -5 43.8699 41.7775   3
  -3  -4  -6 133.662 46.2884   3
  -3  -4  -6 31.4324 45.6674   2
  -3  -4  -7 204.256 59.2714   2
  -3  -4  -8 528.029 71.3780   2
  -3  -4  -9 269.168 63.4201   2
  -3  -4 -10 239.210 76.0712   2
  -3  -5  14 602.197 71.8825   4
   3   5 -14 161.510 60.6481   3
   3   5 -13 810.346 67.1946   3
  -3  -5  13 242.749 57.4993   4
  -3  -5  12 623.283 69.9387   4
   3   5 -12 385.155 53.9698   3
  -3  -5  11 45.7290 53.6752   4
  -3  -5  10 111.189 47.4399   4
  -3  -5   9 964.756 70.3387   4
  -3  -5   8 1085.85 68.6598   4
  -3  -5   7 4019.73 106.360   4
  -3  -5   6 5091.31 112.627   4
  -3  -5   5 696.437 51.2918   4
  -3  -5   4 1331.07 49.3575   5
  -3  -5   4 1421.66 61.8336   4
   3   5  -4 1362.78 50.2802   1
  -3  -5   3 169.657 31.6079   5
  -3  -5   3 180.031 37.2346   4
  -3  -5   2 0.88040 48.1030   3
  -3  -5   2 17.2937 31.8159   5
  -3  -5   2 18.3825 33.9199   4
  -3  -5   1 1334.73 54.1582   5
  -3  -5   1 1343.39 69.6953   3
   3   5   0 198.001 35.9481   0
  -3  -5   0 135.443 48.7849   3
  -3  -5   0 166.722 36.9102   5
  -3  -5  -1 28.3228 47.7912   3
  -3  -5  -1-16.7659 34.5719   6
  -3  -5  -1 27.1329 33.1248   5
  -3  -5  -2 774.998 49.8870   6
  -3  -5  -2 830.755 55.4800   5
  -3  -5  -2 801.660 60.7087   3
  -3  -5  -3 301.392 47.8541   5
  -3  -5  -3 444.304 56.7820   3
  -3  -5  -4 50.2376 47.9766   3
  -3  -5  -5-10.7041 45.9343   3
  -3  -5  -6 108.835 54.4277   3
  -3  -5  -7 280.762 65.0344   2
  -3  -5  -7 450.585 63.8683   3
  -3  -5  -8 289.015 69.5975   2
  -3  -5  -9 45.2536 69.1117   2
  -3  -5 -10 129.369 75.0131   2
   3   6 -14 442.907 62.3726   3
   3   6 -13-92.8040 52.0265   3
  -3  -6  13 401.929 70.9032   4
   3   6 -12 496.257 61.7596   3
  -3  -6  12 71.4066 56.8288   4
  -3  -6  11 333.749 55.6339   4
  -3  -6  10 226.122 56.4197   4
  -3  -6   9 91.6416 58.5511   4
  -3  -6   8 180.014 56.6443   4
  -3  -6   7 109.748 52.1323   4
  -3  -6   6 1806.71 80.3095   4
  -3  -6   5 419.826 52.2008   4
  -3  -6   4 5182.30 114.163   4
  -3  -6   3 8343.19 139.512   4
  -3  -6   2 9655.06 146.144   4
  -3  -6   2 9948.65 160.768   3
  -3  -6   2 9914.99 132.113   5
  -3  -6   1 224.279 38.0094   5
  -3  -6   1 193.369 57.4251   3
  -3  -6   0 157.446 55.5760   3
  -3  -6   0 202.749 40.1038   5
  -3  -6  -1 5487.47 108.435   6
  -3  -6  -1 5776.59 128.092   3
  -3  -6  -1 5744.38 114.754   5
  -3  -6  -2 4089.36 103.870   5
  -3  -6  -2 4309.28 115.669   3
  -3  -6  -3 2817.89 93.3198   5
  -3  -6  -3 2646.62 97.7563   3
  -3  -6  -4 707.879 61.5922   5
  -3  -6  -4 773.766 72.3586   3
  -3  -6  -5 1223.65 81.8680   3
  -3  -6  -6 3496.42 115.794   3
  -3  -6  -7 1316.37 84.5511   3
  -3  -6  -8 1120.83 86.8635   2
  -3  -6  -9 78.8682 60.8148   2
   3   7 -13-82.7535 60.7007   3
  -3  -7  12-103.065 59.8937   4
  -3  -7  11-96.1816 46.4829   4
  -3  -7  10 189.016 61.6576   4
  -3  -7   9-2.55468 52.5847   4
  -3  -7   8 132.340 58.0359   4
  -3  -7   7 4597.58 127.213   4
  -3  -7   6 1829.00 84.9110   4
  -3  -7   5 4121.18 114.112   4
  -3  -7   4 4380.28 114.617   4
  -3  -7   3 1467.63 77.3664   4
  -3  -7   2 485.773 66.9757   3
  -3  -7   2 657.963 62.9365   4
  -3  -7   1 2358.00 99.6401   3
  -3  -7   0 3709.94 95.1224   5
  -3  -7   0 4147.46 121.320   3
  -3  -7  -1 821.945 54.6781   5
  -3  -7  -1 1134.05 82.2836   3
  -3  -7  -2 530.328 52.0716   5
  -3  -7  -2 666.423 69.9355   3
  -3  -7  -3 1172.06 68.2667   5
  -3  -7  -3 1327.72 83.6996   3
  -3  -7  -4 1596.71 78.4943   5
  -3  -7  -4 1622.84 92.2785   3
  -3  -7  -5 1235.91 82.8033   5
  -3  -7  -5 1306.81 87.9994   3
  -3  -7  -6 212.702 64.3571   3
  -3  -7  -7 264.959 69.5024   3
  -3  -8  12 289.194 64.3575   4
  -3  -8  11 219.126 64.0906   4
  -3  -8  10-133.389 49.6000   4
  -3  -8   9-14.2162 51.3507   4
  -3  -8   8 463.966 60.3809   4
  -3  -8   7 321.623 59.2595   4
  -3  -8   6 2032.40 94.0024   4
  -3  -8   5 1561.92 82.9657   4
  -3  -8   4 205.651 55.4933   4
  -3  -8   3 450.074 83.4716   3
  -3  -8   3 317.201 54.6311   4
  -3  -8   2 1700.80 82.4090   4
  -3  -8   2 1594.82 95.3831   3
  -3  -8   1 298.372 76.3790   3
  -3  -8   0 13.3566 67.9138   3
  -3  -8  -1-32.0738 65.0334   3
  -3  -8  -2 203.338 68.7858   3
  -3  -8  -2 138.896 39.2808   5
  -3  -8  -3 104.713 64.9188   3
  -3  -8  -3 87.2028 35.1234   5
  -3  -8  -4-83.9938 69.7919   3
  -3  -8  -4-184.200 39.0047   5
  -3  -8  -5 62.6807 77.7235   3
  -3  -8  -5-207.506 45.7453   5
  -3  -8  -6 320.315 75.9878   3
  -3  -8  -6-100.256 47.5773   5
  -3  -8  -7 450.603 91.8553   3
  -3  -8  -7-204.781 62.3491   5
  -3  -9  10-188.339 50.8570   4
  -3  -9   9 199.963 56.6167   4
  -3  -9   8-121.626 50.7199   4
  -3  -9   7 252.720 57.7394   4
  -3  -9   6-176.227 51.6334   4
  -3  -9   5 71.6723 52.9391   4
  -3  -9   4 8.93244 50.8065   4
  -3  -9   3 20.2701 50.3160   4
  -3  -9   3 99.4297 83.7727   3
  -3  -9   2-115.898 75.8619   3
  -3  -9   2-71.6151 48.2478   4
  -3  -9   1 79.9818 79.8035   3
  -3  -9   0 285.699 72.3810   3
  -3  -9  -1-41.4712 75.4833   3
  -3  -9  -2 30.8630 77.0532   3
  -3  -9  -3 196.725 78.8440   3
  -3  -9  -4 54.2974 76.4013   3
  -3  -9  -5-7.87654 72.3238   3
  -3  -9  -5-108.524 56.7091   5
  -3 -10   9 211.756 59.5247   4
  -3 -10   8 93.5670 59.9420   4
  -3 -10   7 86.4989 51.6402   4
  -3 -10   6 3.90905 57.3522   4
  -3 -10   5 149.871 65.3877   4
  -3 -10   4 21.1503 50.0563   4
  -3 -10   3 217.013 55.3404   4
  -3 -10   2 84.3293 74.7818   3
  -3 -10   2-162.011 49.1937   4
  -3 -10   1-232.194 86.5298   3
  -3 -10   1 306.217 56.1825   4
  -3 -10   0 393.350 89.9577   3
  -3 -10  -3 8.58647 91.8949   3
  -3 -11   7 737.154 73.9911   4
  -3 -11   6 243.615 63.0458   4
  -3 -11   5 289.712 57.4162   4
  -3 -11   4-226.898 60.5759   4
  -3 -11   3 165.193 58.5715   4
  -3 -11   2 70.7082 97.6403   3
  -3 -11   2-164.802 53.7774   4
  -3 -11   1-16.4151 79.2079   3
  -3 -11   1 218.786 57.5633   4
  -3 -11   0 298.290 83.4735   3
  -4  13   4 112.110 66.6891   2
  -4  13   3 301.256 78.0810   2
  -4  13   2-78.5174 71.8608   2
  -4  13   1 261.484 69.0778   2
   4 -13  -1 279.267 57.7499   4
  -4  13  -1 25.2816 55.2636   2
  -4  13  -2 84.9676 53.6271   2
  -4  12   6 398.353 88.9896   2
   4 -12  -6 684.672 80.9465   3
  -4  12   5 776.232 78.7870   2
   4 -12  -5 1499.99 96.4798   3
  -4  12   4 584.662 88.2220   2
   4 -12  -4 742.114 75.0406   3
  -4  12   3 1288.12 90.5830   2
  -4  12   2 409.088 76.8567   2
  -4  12   1 22.4172 53.2732   2
   4 -12  -1 309.172 43.8218   4
   4 -12   0-155.514 42.0106   4
  -4  12   0 105.985 63.1045   2
  -4  12  -1 151.683 58.4997   2
  -4  12  -2 518.787 67.6436   2
  -4  12  -3 524.552 68.0759   2
  -4  12  -4 92.3888 55.6062   2
  -4  12  -5 838.022 81.2915   2
  -4  12  -6 607.786 81.0043   2
   4 -11  -7-186.254 57.5114   3
   4 -11  -6 251.794 64.5812   3
  -4  11   6 248.772 82.5495   2
  -4  11   5 1231.95 86.6515   2
   4 -11  -5 1333.91 83.4384   3
  -4  11   4 1140.22 87.7296   2
   4 -11  -4 1560.56 84.2428   3
  -4  11   3 243.784 70.5810   2
   4 -11  -3 402.317 59.5841   3
  -4  11   2 495.091 72.8894   2
  -4  11   1 1236.29 84.6988   2
   4 -11  -1 1588.69 73.0801   4
   4 -11   0-166.391 36.6730   4
  -4  11   0 104.309 60.2017   2
   4 -11   1 101.833 38.4152   4
  -4  11  -1-20.5105 50.0110   2
  -4  11  -2 399.203 67.4105   2
  -4  11  -3-16.1916 56.6504   2
  -4  11  -4 198.302 62.0495   2
  -4  11  -5 174.963 61.3995   2
  -4  11  -6-63.3600 62.5277   2
  -4  11  -7 357.612 70.3457   2
  -4  11  -8-45.3153 65.3824   2
   4 -10  -9 14.3765 66.2372   3
   4 -10  -8 215.489 67.6576   3
  -4  10   7 430.280 79.9607   2
   4 -10  -7 173.122 58.7389   3
  -4  10   6 232.962 65.4587   2
   4 -10  -6 26.5411 52.8779   3
  -4  10   5 179.591 58.6686   2
   4 -10  -5 75.2461 55.4796   3
  -4  10   4 587.557 71.2192   2
   4 -10  -4 479.492 60.5305   3
  -4  10   3 1637.84 87.8329   2
   4 -10  -3 1584.66 77.5485   3
  -4  10   2 1041.77 82.5406   2
  -4  10   1 3197.86 110.846   2
   4 -10   0 2817.45 91.3604   4
  -4  10   0 2912.12 108.761   2
  -4  10  -1 249.313 61.6926   2
   4 -10   1 283.005 51.0612   4
   4 -10   2 637.313 57.3748   4
  -4  10  -2 609.987 64.6389   2
  -4  10  -3 1267.58 81.1590   2
  -4  10  -4 219.823 61.8031   2
  -4  10  -5 681.515 76.1977   2
  -4  10  -6-109.108 60.5254   2
  -4  10  -7-4.80046 66.7512   2
  -4  10  -8 79.2099 67.2720   2
  -4  10  -9 209.946 72.0076   2
   4  -9 -10 220.867 78.9941   3
   4  -9  -9 617.355 70.3950   3
   4  -9  -8 473.770 65.4496   3
   4  -9  -7 486.531 63.8673   3
  -4   9   7 384.077 73.8799   2
   4  -9  -6 430.330 59.4051   3
  -4   9   6 257.059 71.0923   2
  -4   9   5 354.115 67.7840   2
   4  -9  -5 185.871 49.3272   3
   4  -9  -4 758.009 62.9398   3
  -4   9   4 917.124 71.7265   2
  -4   9   3 1820.81 87.0225   2
   4  -9  -3 1781.61 76.0462   3
  -4   9   2 194.604 63.7638   2
   4  -9  -2 286.327 47.2511   3
  -4   9   1 345.040 71.0549   2
   4  -9   0 2248.85 79.5095   4
  -4   9   0 2241.14 93.0076   2
   4  -9   1 4813.27 109.167   4
  -4   9  -1 4965.90 125.975   2
   4  -9   2 2149.17 82.7709   4
  -4   9  -2 2128.51 90.6415   2
  -4   9  -3 1994.24 90.7087   2
  -4   9  -4 2201.56 98.3643   2
  -4   9  -5 421.740 68.7952   2
  -4   9  -6 513.549 72.6494   2
  -4   9  -7 13.5453 62.8213   2
  -4   9  -9 42.5127 67.0654   2
   4  -8 -11 813.676 92.3362   3
   4  -8 -10-86.3687 62.9439   3
   4  -8  -9-15.9964 51.5667   3
   4  -8  -8 7.91703 54.3392   3
  -4   8   7 52.8635 56.5496   2
   4  -8  -7-60.4916 52.4477   3
   4  -8  -6 968.522 66.5442   3
  -4   8   6 867.115 76.3060   2
  -4   8   5 37.5329 52.6209   2
   4  -8  -5 26.1313 46.3034   3
  -4   8   4 65.1148 51.1296   2
   4  -8  -4 39.2816 41.5229   3
   4  -8  -2 32.9175 36.7033   3
  -4   8   2 35.2019 60.6686   2
  -4   8   1 14591.8 188.115   2
   4  -8   0 2140.59 70.3637   4
  -4   8   0 2143.99 86.9287   2
   4  -8   1 1252.08 57.6592   4
  -4   8  -1 1208.69 72.7635   2
  -4   8  -2 279.631 55.7949   2
   4  -8   2 205.661 43.1947   4
  -4   8  -3 1126.35 74.0312   2
  -4   8  -4 6.05737 52.8667   2
  -4   8  -5 711.925 75.3723   2
  -4   8  -6-10.4990 54.4858   2
  -4   8  -7 25.3399 58.8887   2
  -4   8  -8 192.608 65.1155   2
  -4   8  -9-29.7418 53.4254   2
   4  -7 -12 283.783 75.5676   3
   4  -7 -11 192.873 64.3770   3
   4  -7 -10-15.0761 56.6706   3
   4  -7  -9 333.413 64.6609   3
   4  -7  -8 731.418 63.7092   3
   4  -7  -7 342.085 55.5008   3
  -4   7   7 293.689 61.5067   2
  -4   7   6-42.0776 51.0087   2
   4  -7  -6 20.5403 42.5506   3
  -4   7   5 331.355 56.4534   2
   4  -7  -5 296.598 44.8334   3
  -4   7   4 233.011 52.8651   2
   4  -7  -4 220.865 42.0128   3
   4  -7  -3 1624.52 61.1552   3
  -4   7   3 1432.71 73.1478   2
   4  -7  -2 1964.02 62.1002   3
  -4   7   2 2109.88 85.8384   2
   4  -7  -2 2107.46 57.2365   1
  -4   7   1 1142.34 69.2316   2
   4  -7  -1 1006.37 45.9878   3
   4  -7   0 327.075 32.5132   4
  -4   7   0 265.500 48.9956   2
  -4   7  -1 82.6459 49.6880   2
   4  -7   1 66.0829 26.7341   4
   4  -7   2 1025.31 48.9835   4
  -4   7  -2 1103.58 68.4062   2
   4  -7   3 4415.88 93.8770   4
  -4   7  -3 4689.39 117.088   2
  -4   7  -4 2064.99 88.6727   2
  -4   7  -5 12.1091 51.1877   2
  -4   7  -6 299.926 55.3023   2
  -4   7  -7 136.725 58.9986   2
  -4   7  -8 838.778 77.2911   2
  -4   7  -9 365.242 68.0697   2
  -4   7 -10 235.476 67.6037   2
   4  -6 -12-20.6059 59.9200   3
   4  -6 -11 164.638 63.2154   3
   4  -6 -10 41.4589 48.9584   3
   4  -6  -9 25.0153 49.9986   3
   4  -6  -8 50.0296 45.5579   3
  -4   6   7 109.236 57.1709   2
   4  -6  -7 6.34146 44.4366   3
   4  -6  -6 1303.18 63.6150   3
  -4   6   6 1254.55 70.9388   2
  -4   6   5 69.5442 47.3239   2
   4  -6  -5 21.9422 37.4573   3
  -4   6   4 18.9861 44.3222   2
   4  -6  -4 30.6642 34.9177   3
  -4   6   3 2908.91 87.8859   2
   4  -6  -3 3021.22 71.1656   3
   4  -6  -3 2948.23 70.1237   1
   4  -6  -2 1582.26 51.5267   3
   4  -6  -2 1511.89 50.7617   1
  -4   6   2 1538.25 71.1154   2
   4  -6  -1 5371.55 79.4426   3
   4  -6  -1 5483.67 82.6325   1
  -4   6   1 5309.48 107.375   2
   4  -6   0 44.5394 24.6012   1
  -4   6   0 71.5468 44.2800   2
   4  -6   0 5.97991 22.2003   4
  -4   6  -1 49.8252 44.9570   2
   4  -6   1 37.3054 23.4775   4
  -4   6  -2 27.8471 45.4121   2
   4  -6   2 4.52472 23.7672   4
  -4   6  -3 13.7913 45.2621   2
   4  -6   3 43.2247 27.7473   4
  -4   6  -4 643.061 61.0272   2
  -4   6  -5 1148.82 72.2588   2
  -4   6  -6 967.256 74.2052   2
  -4   6  -7 195.937 61.1950   2
  -4   6  -8 191.853 63.6404   2
  -4   6  -9 54.5773 55.8498   2
  -4   6 -10 62.1156 63.0214   2
  -4   6 -11-189.060 58.8892   2
   4  -5 -13 1253.67 89.5859   3
   4  -5 -12 1851.89 92.5546   3
   4  -5 -11 1685.83 86.1182   3
   4  -5 -10 642.245 61.6598   3
   4  -5  -9 473.662 58.9325   3
   4  -5  -8 4786.46 111.940   3
   4  -5  -7 1143.34 61.1360   3
  -4   5   7 1173.00 67.5397   2
  -4   5   6 54.9981 44.6062   2
   4  -5  -6 80.6839 33.9820   3
  -4   5   5 64.8559 41.5004   2
   4  -5  -5 41.8470 32.0973   3
  -4   5   4 156.176 42.6604   2
   4  -5  -4 100.334 34.9771   1
   4  -5  -4 169.327 33.9584   3
  -4   5   3 16318.4 173.184   2
   4  -5  -3 16594.3 140.444   3
  -4   5   3 16410.5 130.732   0
   4  -5  -3 16230.1 149.022   1
   4  -5  -2 25145.9 158.406   3
   4  -5  -2 24746.9 178.173   1
  -4   5   2 24820.2 203.731   2
   4  -5  -1 3005.04 53.6532   3
   4  -5  -1 3008.94 65.0598   1
  -4   5   1 2903.70 77.9286   2
   4  -5   0 1626.44 50.7255   1
   4  -5   0 1755.63 43.2046   4
  -4   5   0 1653.25 64.0685   2
   4  -5   1 472.580 28.5103   4
  -4   5  -1 439.303 48.5368   2
  -4   5  -2 23.2700 24.1885   5
  -4   5  -2 19.5823 40.4171   2
   4  -5   2 49.3768 21.6398   4
  -4   5  -3 103.081 43.8704   2
   4  -5   3 127.790 26.9402   4
  -4   5  -4 109.579 44.4274   2
  -4   5  -5 265.068 53.9856   2
  -4   5  -6 170.658 56.4360   2
  -4   5  -7 147.298 54.6696   2
  -4   5  -8 3.05851 50.7922   2
  -4   5  -9 216.971 63.8926   2
  -4   5 -10 5.39720 46.3012   2
  -4   5 -11 62.7339 62.7405   2
   4  -4 -13 3705.34 123.208   3
   4  -4 -12 2213.97 96.3571   3
   4  -4 -11 769.073 64.6876   3
   4  -4 -10 452.306 57.7992   3
   4  -4  -9 450.002 54.1167   3
   4  -4  -8 10522.1 153.158   3
   4  -4  -7 274.333 45.1293   3
  -4   4   7 159.202 44.3166   2
  -4   4   6-4.31375 35.8269   2
   4  -4  -6 39.0116 35.0702   3
  -4   4   5 415.916 44.3644   2
   4  -4  -5 347.652 35.4991   3
   4  -4  -5 410.924 44.0849   1
  -4   4   4 6510.45 105.695   2
   4  -4  -4 6392.36 90.8005   3
   4  -4  -4 6429.52 100.202   1
  -4   4   4 6189.63 78.5998   0
  -4   4   3 9456.73 129.984   2
   4  -4  -3 8615.47 94.7025   3
   4  -4  -3 8728.90 112.535   1
  -4   4   3 8728.29 98.0627   0
   4  -4  -2 9531.57 89.5964   3
  -4   4   2 9152.67 103.469   0
   4  -4  -2 9767.35 113.759   1
  -4   4   2 9427.31 119.956   2
   4  -4  -1 412.673 22.9681   3
   4  -4  -1 427.786 36.8508   1
  -4   4   1 500.416 43.8743   2
   4  -4   0 212.868 15.2271   3
   4  -4   0 215.481 17.4972   4
  -4   4   0 213.247 40.2357   2
  -4   4  -1 1936.55 54.1569   5
   4  -4   1 1866.90 39.6225   4
  -4   4  -1 1929.89 67.0031   2
   4  -4   2 356.002 25.9167   4
  -4   4  -2 377.461 33.2763   5
  -4   4  -2 434.372 45.2019   2
  -4   4  -3 728.113 42.1053   5
   4  -4   3 696.482 35.3980   4
  -4   4  -3 802.180 57.7995   2
  -4   4  -4 310.718 33.0479   5
  -4   4  -4 265.623 48.9523   2
  -4   4  -5-11.0740 44.5659   2
  -4   4  -5 58.3625 30.3120   5
  -4   4  -6 67.0384 49.7989   2
  -4   4  -7 4012.83 119.653   2
  -4   4  -8 68.8346 55.0459   2
  -4   4  -9 86.5818 62.5646   2
  -4   4 -10 64.3417 52.3589   2
  -4   4 -11 124.531 55.2041   2
   4  -3 -14 1366.56 89.4646   3
   4  -3 -13 1002.40 75.4472   3
   4  -3 -12 210.879 58.0876   3
   4  -3 -11 43.2249 49.1512   3
   4  -3 -10 8.21187 45.9385   3
   4  -3  -9 61.1294 50.7289   3
   4  -3  -8 2508.33 83.5653   3
   4  -3  -7-39.4732 36.4904   3
   4  -3  -6 30.9397 24.3873   0
  -4   3   6 15.1295 33.4034   2
   4  -3  -6 10.4541 36.6607   1
   4  -3  -6-13.5693 33.4857   3
  -4   3   5 506.919 40.8421   2
   4  -3  -5 487.710 38.6679   3
   4  -3  -5 459.994 40.5300   1
   4  -3  -5 428.585 31.8088   0
  -4   3   4 12862.5 132.887   2
   4  -3  -4 13383.2 127.033   3
  -4   3   4 12754.1 116.803   0
   4  -3  -4 13119.5 140.613   1
   4  -3  -3 13.7406 22.7345   3
  -4   3   3 11.3907 27.2270   0
  -4   3   3 2.89866 31.7847   2
   4  -3  -3 48.6277 30.6358   1
   4  -3  -2 201.196 33.5889   1
   4  -3  -2 192.697 20.9101   3
  -4   3   2 169.210 31.8633   2
  -4   3   2 180.899 29.0243   0
   4  -3  -1 2922.82 41.8127   3
  -4   3   1 3070.96 68.4040   2
  -4   3   0 5823.65 90.1347   5
  -4   3   0 5701.18 92.4931   2
   4  -3   1 6040.31 57.2474   4
  -4   3  -1 6196.23 94.2199   5
  -4   3  -1 6216.93 101.122   2
   4  -3   2 3566.60 54.9014   4
  -4   3  -2 3594.92 76.9436   5
  -4   3  -2 3595.81 84.8997   2
  -4   3  -3 15.0870 37.3827   2
  -4   3  -3 59.7665 29.7362   5
   4  -3   3 47.5421 21.5070   4
  -4   3  -4 51.0702 39.5525   2
  -4   3  -4 1.80732 29.1757   5
  -4   3  -5 99.0744 44.6766   2
  -4   3  -5 63.9039 33.7775   5
  -4   3  -6 2361.05 75.3007   5
  -4   3  -6 2379.76 91.3269   2
  -4   3  -7 3678.98 96.7831   5
  -4   3  -7 3912.58 117.544   2
  -4   3  -8 862.087 76.6462   2
  -4   3  -9 616.761 72.3104   2
  -4   3 -10 571.424 69.8389   2
  -4   3 -11 234.610 73.3145   2
   4  -2 -14 385.794 71.3934   3
   4  -2 -13 38.7995 49.0327   3
   4  -2 -12-21.1951 47.9035   3
   4  -2 -10-91.5369 51.4304   3
   4  -2  -9 10873.9 164.881   3
   4  -2  -8 799.665 57.5173   3
   4  -2  -7 5.48563 41.6781   1
   4  -2  -7-4.24459 34.4663   3
   4  -2  -7-16.9806 30.8597   0
   4  -2  -6-1.50942 34.0277   1
  -4   2   6 20.1936 31.1751   2
   4  -2  -6 11.4689 30.8313   3
   4  -2  -6 13.1315 27.9398   0
  -4   2   5 99.7132 30.9264   2
   4  -2  -5 82.9378 27.0532   0
   4  -2  -5 120.587 28.9309   3
   4  -2  -5 65.6535 37.3857   1
  -4   2   4 8042.81 98.2594   2
   4  -2  -4 8484.84 98.6763   3
   4  -2  -4 8059.11 112.042   1
   4  -2  -4 8399.71 104.085   0
  -4   2   3 112.474 27.4847   0
   4  -2  -3 118.636 31.0673   1
   4  -2  -3 108.804 20.7480   3
  -4   2   3 98.9749 26.5381   2
   4  -2  -2 150.723 31.2468   1
   4  -2  -2 180.391 20.1687   3
  -4   2   2 179.850 31.0524   0
  -4   2   2 227.495 28.6998   2
  -4   2   1 1.90342 28.9312   5
   4  -2  -1-0.24190 12.5699   3
  -4   2   1 3.14022 26.8430   2
  -4   2   1 2.82100 29.9678   0
   4  -2   0 1760.72 27.0316   3
  -4   2   0 1844.82 59.9907   5
  -4   2   0 1853.24 55.6246   2
  -4   2  -1 2050.54 63.1246   5
  -4   2  -1 2033.09 59.4550   2
  -4   2  -2 149.260 34.1763   2
  -4   2  -2 194.860 33.0613   5
  -4   2  -3 317.654 36.1175   5
  -4   2  -3 314.429 42.0918   2
  -4   2  -4 7.71891 40.2402   2
  -4   2  -4 18.5875 30.7124   5
  -4   2  -5 1158.26 57.9291   5
  -4   2  -5 995.112 63.6917   2
  -4   2  -6 2121.84 74.3372   5
  -4   2  -6 2206.29 88.7248   2
  -4   2  -7 1632.98 72.4245   5
  -4   2  -7 1793.53 86.0189   2
  -4   2  -8 1188.63 67.8721   5
  -4   2  -8 1310.00 88.1171   2
  -4   2  -9 849.227 62.6381   5
  -4   2  -9 1026.73 86.4690   2
  -4   2 -10 621.261 77.4581   2
  -4   2 -11 174.495 63.8679   2
   4  -1 -14-196.401 53.9948   3
   4  -1 -12 89.2962 54.6053   3
   4  -1 -11 53.9244 49.7540   3
   4  -1 -10 2467.66 90.2958   3
   4  -1  -9 120.121 45.7112   3
   4  -1  -8 74.0474 42.7530   3
   4  -1  -7 212.884 39.5250   0
   4  -1  -7 145.063 41.7037   1
   4  -1  -7 115.786 37.3304   3
   4  -1  -6 1257.24 52.7809   3
  -4   1   6 1214.17 49.3086   4
   4  -1  -6 1352.21 58.8773   1
   4  -1  -6 1166.79 51.2813   0
  -4   1   5 123.623 27.3778   2
  -4   1   5 112.898 24.4730   4
   4  -1  -5 132.173 31.2604   3
   4  -1  -5 143.659 38.5559   1
   4  -1  -5 143.904 34.6238   0
   4  -1  -4 383.795 38.2614   0
  -4   1   4 467.090 30.7678   2
   4  -1  -4 395.946 31.9897   3
  -4   1   4 462.686 24.8165   4
   4  -1  -4 463.651 42.6294   1
   4  -1  -3 246.191 27.0179   3
   4  -1  -3 270.698 34.9276   1
   4  -1  -3 137.858 34.8102   0
  -4   1   3 211.518 30.9679   0
  -4   1   3 207.152 25.4367   2
  -4   1   2 2630.06 67.9194   5
  -4   1   2 2676.51 66.4379   0
  -4   1   2 2650.53 52.1644   2
  -4   1   1 1868.41 59.4777   5
  -4   1   1 2010.60 59.9628   0
  -4   1   1 1917.44 48.4646   2
  -4   1   0 30305.0 212.868   5
  -4   1   0 30675.7 210.380   0
  -4   1   0 30658.8 183.651   2
  -4   1  -1 25480.7 182.329   2
  -4   1  -1 24919.5 197.152   5
  -4   1  -2 47.1216 34.1501   2
  -4   1  -2 51.3787 35.2637   5
  -4   1  -3 78.1923 32.4211   5
  -4   1  -3 54.3114 34.0610   2
  -4   1  -4-10.2489 32.8425   2
  -4   1  -4-4.31982 32.5501   5
  -4   1  -5 792.704 53.2046   5
  -4   1  -5 690.644 57.5383   2
  -4   1  -6 1946.67 75.9443   5
  -4   1  -6 1807.68 84.5053   2
  -4   1  -7 780.096 57.2711   5
  -4   1  -7 874.170 72.0268   2
  -4   1  -8 528.708 54.7500   5
  -4   1  -8 526.541 73.7967   2
  -4   1  -9 644.651 62.9983   5
  -4   1  -9 777.785 79.6432   2
  -4   1 -10 309.429 51.0126   5
  -4   1 -10 400.470 68.8017   2
  -4   1 -11-104.886 55.7584   5
  -4   1 -11 77.5609 67.4949   2
   4   0 -15-23.7425 54.8068   3
   4   0 -14 41.8755 50.9353   3
   4   0 -13 240.530 51.8602   3
   4   0 -12 589.843 59.1629   3
   4   0 -11 28.6577 47.5456   3
   4   0 -10 263.584 54.9968   3
  -4   0  10 320.923 56.9199   4
   4   0  -9 2395.23 85.1173   3
  -4   0   9 2395.29 83.1327   4
   4   0  -8 8.33279 37.1810   1
   4   0  -8 19.0669 39.5307   3
  -4   0   8 8.39641 34.3928   4
  -4   0   8 84.6224 33.0642   6
  -4   0   7 461.248 43.1384   6
   4   0  -7 365.646 43.0017   3
  -4   0   7 385.512 39.0331   4
   4   0  -7 380.213 43.4731   1
  -4   0   6 228.852 38.0959   6
   4   0  -6 277.151 41.1071   0
   4   0  -6 179.134 34.8810   3
  -4   0   6 171.673 31.1362   4
   4   0  -6 222.390 41.2854   1
  -4   0   5 577.486 29.4609   2
  -4   0   5 617.815 45.1459   6
  -4   0   5 563.410 34.0277   4
   4   0  -5 600.473 42.2670   1
   4   0  -5 511.466 36.3081   0
   4   0  -4 41.8904 33.9169   0
  -4   0   4 19.2005 19.1867   2
   4   0  -4 14.4669 33.5517   1
  -4   0   4 31.5930 33.0184   6
  -4   0   4 37.4865 18.2809   4
  -4   0   3 5956.15 96.1554   6
   4   0  -3 5870.21 97.0840   1
  -4   0   3 5927.11 98.3857   5
  -4   0   3 5910.91 92.8146   0
  -4   0   3 5741.69 60.4939   4
   4   0  -3 5438.88 89.4744   0
  -4   0   3 5711.16 63.6146   2
  -4   0   2 9638.52 122.868   5
   4   0  -2 9331.97 118.017   0
  -4   0   2 9319.54 63.5923   4
  -4   0   2 9675.27 119.226   0
  -4   0   2 9367.92 83.0129   2
  -4   0   1 24357.7 189.076   0
  -4   0   1 23615.3 190.225   5
  -4   0   1 23673.7 141.432   2
  -4   0   0 2129.36 67.4136   5
  -4   0   0 2196.10 65.4149   0
  -4   0   0 2144.68 52.3116   2
  -4   0  -1 8222.87 118.460   5
  -4   0  -1 7835.54 113.804   0
  -4   0  -1 7966.27 101.351   2
  -4   0  -1 7942.11 81.3326   3
  -4   0  -2 293.718 39.5305   5
  -4   0  -2 280.716 35.0805   2
  -4   0  -2 280.843 24.9455   3
  -4   0  -3 1560.81 63.2309   5
  -4   0  -3 1612.55 61.9552   2
  -4   0  -4 2270.94 77.8460   5
  -4   0  -4 2178.20 75.9662   2
  -4   0  -5 645.606 54.5745   5
  -4   0  -5 620.390 55.3702   2
  -4   0  -6-98.8157 50.4130   2
  -4   0  -6-40.1798 43.2834   5
  -4   0  -7 907.237 68.3371   5
  -4   0  -7 879.912 69.7880   2
  -4   0  -8 1008.96 70.7928   5
  -4   0  -8 1016.91 76.5374   2
  -4   0  -9 863.397 71.1360   5
  -4   0  -9 642.059 78.1945   2
  -4   0 -10 34.3662 53.3804   2
  -4   0 -10-36.9501 50.0620   5
  -4   0 -11-83.7654 56.7756   5
  -4   0 -11-9.10174 56.8027   2
   4   1 -15 981.973 83.2229   3
   4   1 -13 513.255 64.7253   3
   4   1 -12 846.083 67.5579   3
  -4  -1  12 896.175 75.7711   4
   4   1 -11 799.616 65.3451   3
  -4  -1  11 728.875 69.7266   4
   4   1 -10 4617.61 116.139   3
  -4  -1  10 4775.65 123.328   4
  -4  -1   9 263.769 41.4603   6
   4   1  -9 278.912 52.1796   3
  -4  -1   9 274.788 49.6012   4
   4   1  -8-11.5739 37.2779   1
   4   1  -8-9.47172 41.8409   3
  -4  -1   8-13.5464 34.9959   6
  -4  -1   8-15.1413 38.9207   4
  -4  -1   7 446.137 43.4704   6
  -4  -1   7 466.576 44.5282   4
   4   1  -7 527.637 44.4197   1
  -4  -1   6 1291.12 58.1008   6
  -4  -1   6 1181.69 49.6982   4
   4   1  -6 1205.97 54.4618   1
   4   1  -5 429.765 38.1471   0
  -4  -1   5 490.170 46.8329   6
   4   1  -5 509.374 41.9217   1
  -4  -1   5 412.805 32.0415   4
  -4  -1   4 9282.77 67.1078   2
  -4  -1   4 10271.9 129.482   6
   4   1  -4 9776.00 125.739   1
   4   1  -4 9763.99 124.625   0
  -4  -1   4 9719.68 98.2713   4
   4   1  -3 13717.2 146.913   0
  -4  -1   3 13835.2 147.611   6
  -4  -1   3 14006.6 148.009   5
  -4  -1   3 13468.8 105.820   4
  -4  -1   3 14226.7 82.3103   2
  -4  -1   2 5374.52 92.7578   0
  -4  -1   2 5414.03 96.3686   5
  -4  -1   2 5438.32 62.6617   4
   4   1  -2 5647.32 99.6009   0
  -4  -1   2 5541.77 96.9228   6
  -4  -1   2 5040.43 56.3802   2
  -4  -1   1 598.786 48.0673   6
  -4  -1   1 563.076 44.2811   0
  -4  -1   1 587.772 46.3243   5
  -4  -1   1 560.911 26.4419   2
  -4  -1   0 3632.43 79.9020   0
  -4  -1   0 3857.22 88.3556   5
  -4  -1   0 3857.65 63.3265   2
  -4  -1  -1 334.691 43.7154   5
  -4  -1  -1 323.500 30.9309   2
  -4  -1  -1 310.699 34.2421   0
  -4  -1  -1 319.346 30.3582   3
  -4  -1  -2 899.251 54.6568   5
  -4  -1  -2 836.841 44.7970   2
  -4  -1  -2 887.617 39.1750   3
  -4  -1  -3 1352.12 64.9590   5
  -4  -1  -3 1477.80 59.9028   2
  -4  -1  -3 1481.45 47.6449   3
  -4  -1  -4 42.8219 40.6037   2
  -4  -1  -4 40.5222 39.6022   5
  -4  -1  -5 359.226 53.6164   2
  -4  -1  -5 370.000 52.6329   5
  -4  -1  -6 1636.59 79.9992   5
  -4  -1  -6 1675.24 84.3006   2
  -4  -1  -7 1863.35 86.5331   5
  -4  -1  -7 2055.01 96.0753   2
  -4  -1  -8 600.367 61.0773   5
  -4  -1  -8 657.501 71.0206   2
  -4  -1  -9 39.7753 62.8710   2
  -4  -1 -10-4.32420 65.6578   2
  -4  -1 -11-43.4436 59.9055   5
   4   2 -15 930.936 80.4137   3
   4   2 -14 191.827 51.1120   3
  -4  -2  14 198.651 62.6693   4
   4   2 -13 338.543 55.8444   3
  -4  -2  13 124.410 56.7595   4
   4   2 -12 179.414 48.8387   3
  -4  -2  12 324.218 51.5434   4
   4   2 -11 92.2157 46.5294   3
  -4  -2  11 99.0680 51.1429   4
   4   2 -10 1967.22 84.7459   3
  -4  -2  10 1859.35 84.5746   4
   4   2  -9 229.704 49.4890   3
  -4  -2   9 299.559 50.2365   4
  -4  -2   9 298.606 45.9825   6
   4   2  -8-14.6381 35.4496   1
  -4  -2   8 3.22865 40.7810   6
  -4  -2   8-26.3753 37.2525   4
  -4  -2   7 1096.80 58.4110   6
  -4  -2   7 997.336 53.4100   4
   4   2  -7 1016.44 54.7931   1
  -4  -2   6 6344.41 111.001   6
  -4  -2   6 6126.25 101.678   4
   4   2  -6 6202.63 103.990   1
  -4  -2   5 3436.68 84.2717   6
  -4  -2   5 3449.21 72.9198   4
   4   2  -5 3435.69 79.0859   1
  -4  -2   4 3295.81 83.2528   6
   4   2  -4 3126.06 75.5476   1
  -4  -2   4 3177.69 65.6986   4
  -4  -2   4 3167.81 76.9861   5
  -4  -2   3 27.7498 38.1261   6
  -4  -2   3 6.78340 31.7408   5
   4   2  -3 26.6691 34.1724   0
  -4  -2   3 2.20503 20.8363   4
  -4  -2   2 575.530 50.0262   6
  -4  -2   2 601.210 45.6386   5
  -4  -2   2 620.054 30.8951   4
   4   2  -2 579.996 39.7115   0
  -4  -2   1 2796.61 70.1134   0
  -4  -2   1 2887.93 77.5816   6
  -4  -2   1 2965.47 79.3643   5
   4   2  -1 2782.20 76.0488   0
  -4  -2   1 2691.86 45.2703   2
  -4  -2   0 193.234 37.5903   0
  -4  -2   0 170.697 35.2113   3
  -4  -2   0 180.392 40.3937   6
  -4  -2   0 168.406 41.7198   5
  -4  -2   0 192.625 23.6812   2
  -4  -2  -1 396.158 47.9494   5
  -4  -2  -1 358.000 30.3212   2
  -4  -2  -1 390.106 38.5244   3
  -4  -2  -2 172.387 39.4878   5
  -4  -2  -2 232.405 34.6437   3
  -4  -2  -2 174.042 33.8867   2
  -4  -2  -3 247.814 44.6556   5
  -4  -2  -3 233.302 34.7660   3
  -4  -2  -3 285.521 39.9824   2
  -4  -2  -4 34.6463 39.8231   2
  -4  -2  -4 20.6249 42.6541   5
  -4  -2  -5 321.562 50.0298   2
  -4  -2  -5 258.912 50.0520   5
  -4  -2  -6 551.402 63.3894   5
  -4  -2  -6 670.879 62.4541   2
  -4  -2  -7 4.65437 56.8898   2
  -4  -2  -7 43.4937 53.9675   5
  -4  -2  -8 42.5222 53.1887   2
  -4  -2  -9 163.841 57.3154   2
  -4  -2 -10 235.302 65.2275   2
   4   3 -14 108.452 45.0597   3
   4   3 -13 30.3631 43.2746   3
  -4  -3  13 260.819 63.0421   4
   4   3 -12 205.506 59.2248   3
  -4  -3  12 67.4713 49.4106   4
   4   3 -11 17.9254 48.1812   3
  -4  -3  11-58.6197 52.8767   4
   4   3 -10-7.66446 46.2686   3
  -4  -3  10 56.6519 54.5474   4
   4   3  -9 47.4058 38.0521   1
  -4  -3   9-0.31910 39.6041   4
  -4  -3   8 1162.48 64.1676   4
   4   3  -8 1377.99 62.3992   1
   4   3  -7 226.800 39.4473   1
  -4  -3   7 202.387 44.6184   4
   4   3  -6 607.788 45.6734   1
  -4  -3   6 578.035 43.2015   4
   4   3  -5 680.018 45.7827   1
  -4  -3   5 739.207 44.1663   4
   4   3  -4 119.319 33.5017   1
  -4  -3   4 162.994 46.2963   6
  -4  -3   4 102.267 35.3270   5
  -4  -3   4 138.070 28.1850   4
  -4  -3   3-7.40588 39.9138   6
  -4  -3   3-15.1644 33.8251   5
  -4  -3   3-10.3374 26.6661   4
  -4  -3   2 2786.83 81.9106   6
  -4  -3   2 2859.00 78.3231   5
  -4  -3   2 2730.63 63.0543   4
  -4  -3   1 3130.58 83.1781   6
  -4  -3   1 2992.29 82.3896   5
  -4  -3   1 2923.27 79.1667   3
  -4  -3   0 137.745 39.0114   3
  -4  -3   0 210.608 41.6497   5
  -4  -3   0 233.311 43.3500   6
  -4  -3  -1 10.2938 35.8282   3
  -4  -3  -1 7.59529 25.8834   2
  -4  -3  -1 21.8940 39.1769   5
  -4  -3  -1 9.20873 37.1023   6
  -4  -3  -2 19.1617 39.0353   5
  -4  -3  -2 51.1592 28.0763   2
  -4  -3  -2 39.3349 35.7121   3
  -4  -3  -3 86.1468 35.4066   2
  -4  -3  -3 25.9793 34.6314   3
  -4  -3  -3 59.8687 43.0799   5
  -4  -3  -4 72.3566 41.6279   2
  -4  -3  -4 88.8417 38.7294   3
  -4  -3  -4 9.11229 39.2303   5
  -4  -3  -5 21.9572 48.0891   2
  -4  -3  -5-144.999 42.4190   5
  -4  -3  -6 87.8688 53.7903   2
  -4  -3  -6 12.3752 47.0817   5
  -4  -3  -7 301.042 63.7739   2
  -4  -3  -7 186.188 54.4908   5
  -4  -3  -8 1943.22 96.9033   5
  -4  -3  -8 2013.92 102.504   2
  -4  -3  -9 1501.53 86.6936   5
  -4  -3  -9 1444.53 94.9129   2
  -4  -3 -10 322.071 69.9223   2
  -4  -4  14 233.218 64.5840   4
   4   4 -13 97.7410 48.3827   3
  -4  -4  13-29.5039 57.8995   4
   4   4 -12 2.45155 39.6674   3
  -4  -4  12 29.2904 50.1041   4
   4   4 -11 25.9238 47.8589   3
  -4  -4  11 89.9300 50.2549   4
  -4  -4  10 323.919 54.8469   4
  -4  -4   9 468.902 57.5208   4
  -4  -4   8 3600.57 104.436   4
  -4  -4   7 1762.55 72.9662   4
   4   4  -7 1779.79 63.4131   1
   4   4  -6 747.756 46.7638   1
  -4  -4   6 729.699 52.9914   4
   4   4  -5 1334.30 56.7620   1
  -4  -4   5 1473.35 61.4111   4
  -4  -4   4 8.11518 34.4447   5
  -4  -4   4 2.92588 32.9880   4
  -4  -4   3 5032.03 100.392   5
  -4  -4   3 4835.32 92.4004   4
  -4  -4   2 4631.23 103.952   6
  -4  -4   2 4760.43 101.557   5
  -4  -4   2 4410.05 88.2874   4
  -4  -4   1 8778.81 136.674   5
  -4  -4   1 8423.51 133.503   6
  -4  -4   1 8700.63 138.698   3
  -4  -4   0 147.428 47.2197   3
  -4  -4   0 78.6452 41.0163   5
  -4  -4   0 72.7348 43.6775   6
  -4  -4  -1 217.019 45.2728   6
  -4  -4  -1 179.542 46.3812   3
  -4  -4  -1 199.178 41.3764   5
  -4  -4  -2 81.6855 45.7898   3
  -4  -4  -2 36.7422 38.8701   5
  -4  -4  -2-5.13528 37.2619   6
  -4  -4  -3 31.6042 43.3068   3
  -4  -4  -3 77.2522 47.9332   5
  -4  -4  -4 245.168 45.0274   2
  -4  -4  -4 212.914 49.9654   3
  -4  -4  -4 180.350 45.1541   5
  -4  -4  -5 78.8896 48.6316   2
  -4  -4  -5-11.8289 48.9426   5
  -4  -4  -6 160.137 55.5865   2
  -4  -4  -6-5.84926 42.0757   5
  -4  -4  -7 1064.19 78.7625   5
  -4  -4  -7 1403.96 82.2725   2
  -4  -4  -8 325.095 57.4736   5
  -4  -4  -8 519.531 72.2641   2
  -4  -4  -9 473.883 64.1107   2
  -4  -4  -9 245.023 57.7426   5
   4   5 -14 355.452 61.1532   3
   4   5 -13 8.68563 53.4908   3
  -4  -5  13-98.9212 62.2939   4
   4   5 -12 183.413 48.1986   3
  -4  -5  12 297.915 59.8610   4
  -4  -5  11-199.261 51.2941   4
  -4  -5  10 573.873 64.1765   4
  -4  -5   9 62.0943 53.3403   4
  -4  -5   8 1240.77 77.5939   4
  -4  -5   7 4991.42 119.043   4
  -4  -5   6 649.193 55.4978   4
  -4  -5   5 1517.81 68.3675   4
  -4  -5   4 43.0520 35.1362   5
  -4  -5   4 47.7456 40.0294   4
  -4  -5   3 55.4406 35.8809   5
  -4  -5   3 12.3887 33.9076   4
  -4  -5   2 170.234 41.8414   5
  -4  -5   2 241.960 39.4887   4
  -4  -5   2 205.645 56.1502   3
  -4  -5   1 5041.35 110.273   5
  -4  -5   1 4887.06 110.400   6
  -4  -5   1 5000.25 118.646   3
  -4  -5   0 1241.92 66.9666   6
  -4  -5   0 1441.80 68.4417   5
  -4  -5   0 1371.31 76.2784   3
  -4  -5  -1 1678.66 73.0265   6
  -4  -5  -1 1543.92 72.4453   5
  -4  -5  -1 1603.46 76.2882   3
  -4  -5  -2 3094.49 91.0254   6
  -4  -5  -2 3131.06 98.0010   5
  -4  -5  -2 3199.49 100.029   3
  -4  -5  -3 2806.90 97.6810   5
  -4  -5  -3 2846.83 96.3395   3
  -4  -5  -4 1552.69 80.4326   5
  -4  -5  -4 1396.51 80.4047   3
  -4  -5  -5 359.511 58.2691   3
  -4  -5  -5 222.041 51.3110   5
  -4  -5  -6 53.7156 41.7037   5
  -4  -5  -7 307.424 49.8484   5
  -4  -5  -8 357.104 60.5190   2
  -4  -5  -9 90.9633 62.0727   2
   4   6 -13-127.276 62.0145   3
  -4  -6  13 284.244 68.3881   4
  -4  -6  12-77.6740 56.1826   4
  -4  -6  11 205.571 54.4208   4
  -4  -6  10 1462.11 88.4931   4
  -4  -6   9 4002.69 124.089   4
  -4  -6   8 5701.69 139.034   4
  -4  -6   7 10324.3 175.844   4
  -4  -6   6 1751.74 82.2234   4
  -4  -6   5 24.2941 41.1367   4
  -4  -6   4 1301.80 66.5037   4
  -4  -6   3 3028.72 86.5802   5
  -4  -6   3 3083.24 91.3011   4
  -4  -6   2 959.911 59.3171   5
  -4  -6   2 914.355 60.8425   4
  -4  -6   2 1073.57 80.0310   3
  -4  -6   1 672.312 62.2885   6
  -4  -6   1 718.343 56.3583   5
  -4  -6   1 589.415 68.5807   3
  -4  -6   0 2622.24 89.5459   6
  -4  -6   0 2969.01 91.7772   5
  -4  -6   0 2937.47 106.368   3
  -4  -6  -1 2691.99 90.4315   6
  -4  -6  -1 2517.74 90.1825   5
  -4  -6  -1 2529.52 100.872   3
  -4  -6  -2 1783.12 80.8863   5
  -4  -6  -2 1837.87 90.4497   3
  -4  -6  -3 2019.90 87.3159   5
  -4  -6  -3 2156.39 95.4655   3
  -4  -6  -4 1159.87 75.3030   5
  -4  -6  -4 1106.25 79.0228   3
  -4  -6  -5 741.423 68.1700   5
  -4  -6  -5 675.820 73.6240   3
  -4  -6  -6-92.2645 42.5915   5
  -4  -6  -7-203.446 53.4734   5
  -4  -7  12 165.005 65.3239   4
  -4  -7  11 322.593 58.6642   4
  -4  -7  10 138.524 57.4715   4
  -4  -7   9-92.3987 45.8395   4
  -4  -7   8 33.1177 47.9216   4
  -4  -7   7-113.999 58.7298   4
  -4  -7   6-0.36132 50.9161   4
  -4  -7   5 1298.41 74.8048   4
  -4  -7   4 1702.32 79.1937   4
  -4  -7   3 1186.87 70.5184   4
  -4  -7   2 402.986 71.3780   3
  -4  -7   2 455.479 53.9964   4
  -4  -7   1-10.4841 62.5563   3
  -4  -7   0 230.856 65.7073   3
  -4  -7   0 46.0529 57.0381   6
  -4  -7  -1 51.1007 68.8350   3
  -4  -7  -1 164.623 45.8044   5
  -4  -7  -2-17.2025 62.2767   3
  -4  -7  -2-166.168 36.5300   5
  -4  -7  -3-178.838 44.3604   5
  -4  -7  -3 153.759 72.3320   3
  -4  -7  -4 34.6664 59.3410   3
  -4  -7  -4 134.039 49.7021   5
  -4  -7  -5 277.757 51.6931   5
  -4  -7  -5 264.678 69.2936   3
  -4  -7  -6 206.300 58.3686   5
  -4  -8  11 137.224 62.6650   4
  -4  -8   9 266.988 53.8161   4
  -4  -8   8-149.845 48.4414   4
  -4  -8   7 643.423 70.6238   4
  -4  -8   6 6.51483 47.9186   4
  -4  -8   5 76.6776 46.6337   4
  -4  -8   4 66.5302 41.5901   4
  -4  -8   3 551.096 59.0557   4
  -4  -8   2 509.751 77.1465   3
  -4  -8   2 363.838 54.8638   4
  -4  -8   1 600.371 79.7240   3
  -4  -8   0 29.8357 73.2932   3
  -4  -8   0-61.9931 60.1733   6
  -4  -8  -1 240.343 80.4360   3
  -4  -8  -2-63.2249 71.4465   3
  -4  -8  -2 5.64964 45.3188   5
  -4  -8  -3 56.4642 70.0347   3
  -4  -8  -3-117.325 42.0378   5
  -4  -8  -4 233.337 75.0909   3
  -4  -8  -4 44.0933 47.7124   5
  -4  -8  -5 161.408 80.3599   3
  -4  -8  -5 250.570 57.6512   5
  -4  -9  10-84.9543 68.1440   4
  -4  -9   9 925.816 73.2263   4
  -4  -9   8 928.961 78.0043   4
  -4  -9   7 225.296 60.2254   4
  -4  -9   6-171.863 43.3530   4
  -4  -9   5 95.0902 47.5084   4
  -4  -9   4-172.450 45.8320   4
  -4  -9   3 202.455 51.5035   4
  -4  -9   2 159.216 85.5037   3
  -4  -9   2-153.629 47.0790   4
  -4  -9   1 76.4486 70.4081   3
  -4  -9   1 281.754 55.5470   4
  -4  -9   0-12.4049 76.6480   3
  -4  -9  -1 164.425 80.5520   3
  -4  -9  -2-30.2036 79.5969   3
  -4  -9  -4-61.3924 78.3202   3
  -4 -10   7 446.340 58.3369   4
  -4 -10   5 166.779 52.6472   4
  -4 -10   3 135.917 53.2271   4
  -4 -10   2 241.666 47.5214   4
  -4 -10   2 525.846 98.0360   3
  -4 -10   1 1527.13 82.3824   4
  -4 -10   1 1300.47 106.059   3
  -4 -10   0 1209.14 106.054   3
  -4 -10  -1 1043.42 113.624   3
  -4 -11   5 428.770 69.7849   4
  -4 -11   3 430.189 72.1578   4
  -4 -11   2-16.3109 71.4519   4
  -5  13   3-42.4562 78.1706   2
  -5  13   2 102.563 84.1279   2
  -5  13   1-78.3714 75.1490   2
  -5  13   0 265.669 72.4983   2
  -5  13  -1 225.271 82.3147   2
  -5  13  -2-131.485 63.5890   2
  -5  13  -3 192.407 70.8016   2
   5 -12  -7 295.187 67.5898   3
   5 -12  -6 313.814 71.8741   3
  -5  12   5 907.802 96.9263   2
  -5  12   4 1320.30 104.168   2
  -5  12   3 378.518 75.9072   2
  -5  12   2-96.7679 72.2504   2
  -5  12   1-27.3851 55.0279   2
  -5  12   0 260.345 72.2729   2
  -5  12  -1 27.5539 67.2459   2
  -5  12  -2 61.4441 66.1765   2
  -5  12  -3 50.0239 59.8743   2
  -5  12  -4 81.8448 68.7142   2
  -5  12  -5-4.20271 69.4580   2
  -5  11   7 635.511 95.2456   2
   5 -11  -7 132.096 65.7890   3
  -5  11   6 128.434 69.2027   2
   5 -11  -6 48.0751 62.8666   3
  -5  11   5 553.485 87.4982   2
  -5  11   4 31.4662 62.7372   2
  -5  11   3 4.04080 59.1653   2
  -5  11   2 216.371 69.0674   2
  -5  11   1 401.703 73.0341   2
  -5  11   0 20.6345 60.9955   2
  -5  11  -1 62.2693 62.1176   2
  -5  11  -2-31.8615 64.7250   2
  -5  11  -3 41.5960 63.0557   2
  -5  11  -4 98.5855 64.4149   2
  -5  11  -5 292.999 63.4532   2
  -5  11  -6 311.935 69.5976   2
   5 -10  -9 427.683 70.1162   3
  -5  10   8 247.522 69.3871   2
   5 -10  -8 512.197 64.1555   3
  -5  10   7 744.501 90.0020   2
   5 -10  -7 577.180 71.6965   3
  -5  10   6 567.500 84.2343   2
   5 -10  -6 304.101 61.0553   3
  -5  10   5 46.5866 68.6637   2
  -5  10   4-0.59579 65.3157   2
  -5  10   3 768.829 79.7772   2
  -5  10   2 2400.87 106.195   2
  -5  10   1 2974.00 116.933   2
  -5  10   0-13.4656 64.4674   2
  -5  10  -1 358.052 67.3830   2
  -5  10  -2-36.7188 65.2647   2
  -5  10  -3 287.684 65.9300   2
  -5  10  -4 881.173 81.0462   2
  -5  10  -5 138.411 69.0222   2
  -5  10  -6-49.0909 68.3504   2
  -5  10  -7-38.0134 63.2172   2
   5  -9 -10 12.9239 67.6790   3
   5  -9  -9-129.041 58.0937   3
  -5   9   8-10.0000 59.0893   2
   5  -9  -8-16.3261 47.8203   3
  -5   9   7-57.0961 57.1171   2
   5  -9  -7 13.7329 49.2169   3
  -5   9   6 86.2314 59.1329   2
   5  -9  -6 135.141 48.9631   3
   5  -9  -5 517.334 56.2112   3
  -5   9   5 405.702 69.5768   2
   5  -9  -4 1040.52 64.1977   3
  -5   9   4 1367.25 86.4543   2
  -5   9   3 1672.52 86.6307   2
  -5   9   2 604.469 76.9258   2
  -5   9   1 2127.81 97.4358   2
  -5   9   0 468.152 68.1114   2
  -5   9  -1 758.894 74.5932   2
  -5   9  -2 407.972 62.3083   2
  -5   9  -3 70.2868 51.3080   2
  -5   9  -4 901.346 77.4372   2
  -5   9  -5 804.523 79.0234   2
  -5   9  -6 59.3723 58.3941   2
  -5   9  -7 34.1974 68.3811   2
  -5   9  -8-81.9343 75.3283   2
   5  -8 -11 288.657 73.1071   3
   5  -8 -10 871.054 78.5047   3
   5  -8  -9 209.384 56.4523   3
  -5   8   8 185.591 65.5463   2
   5  -8  -8 182.627 55.2563   3
   5  -8  -7 463.449 58.6693   3
  -5   8   7 386.595 63.5742   2
  -5   8   6 292.323 64.1219   2
   5  -8  -6 224.292 48.5533   3
  -5   8   5 272.595 56.2629   2
   5  -8  -5 149.957 42.5336   3
   5  -8  -4 877.134 55.7214   3
  -5   8   4 870.719 69.2430   2
  -5   8   3 89.6737 56.2571   2
  -5   8   2 1986.94 93.5315   2
  -5   8   1 4495.67 120.656   2
  -5   8   0 4890.59 124.559   2
  -5   8  -1 326.010 61.4275   2
  -5   8  -2 85.3613 56.0940   2
  -5   8  -3 68.0709 59.5977   2
  -5   8  -4 16.2735 57.3946   2
  -5   8  -5 44.3132 57.2847   2
  -5   8  -6-49.3746 59.8177   2
  -5   8  -7-29.5047 52.2229   2
  -5   8  -8 286.873 59.6109   2
  -5   8  -9 103.224 66.6880   2
   5  -7 -12 303.204 63.9479   3
   5  -7 -11 116.074 64.7105   3
   5  -7 -10-17.8965 49.8940   3
   5  -7  -9-123.509 47.2299   3
  -5   7   8 73.5359 54.4898   2
   5  -7  -8-77.9502 44.5229   3
  -5   7   7 225.335 59.1145   2
   5  -7  -7 233.009 50.2717   3
  -5   7   6 218.694 57.5210   2
   5  -7  -6 121.744 40.3977   3
   5  -7  -5 889.224 55.3786   3
  -5   7   5 845.661 70.8043   2
   5  -7  -4 357.091 41.0467   3
   5  -7  -4 404.051 43.8682   1
  -5   7   4 341.020 57.6321   2
   5  -7  -3 285.771 37.4768   3
   5  -7  -3 244.607 39.1462   1
  -5   7   3 327.116 57.7412   2
   5  -7  -2 1537.08 57.7368   1
  -5   7   2 1632.02 80.4108   2
  -5   7   1 1468.71 77.3507   2
  -5   7   0 732.227 61.7765   2
  -5   7  -1 678.651 63.0436   2
  -5   7  -2 1679.27 86.8588   2
  -5   7  -3 1439.79 82.4413   2
  -5   7  -4 109.996 55.8881   2
  -5   7  -5 698.127 74.8520   2
  -5   7  -6 161.935 58.4187   2
  -5   7  -7 38.2781 58.8628   2
  -5   7  -8-28.8617 55.5709   2
  -5   7  -9-10.6681 61.4254   2
   5  -6 -12 261.485 65.5641   3
   5  -6 -11 128.388 56.6727   3
   5  -6 -10 128.352 58.4815   3
   5  -6  -9 36.0684 44.6848   3
  -5   6   8-8.08120 53.9481   2
   5  -6  -8 42.3082 45.4848   3
   5  -6  -7 6962.38 126.715   3
  -5   6   7 6691.86 138.512   2
   5  -6  -6 1927.66 70.1784   3
  -5   6   6 1831.65 81.2938   2
   5  -6  -5 2079.00 68.4526   3
  -5   6   5 2181.82 84.6870   2
   5  -6  -5 2150.31 72.7886   1
  -5   6   4 2017.07 81.3181   2
   5  -6  -4 2035.22 63.7115   3
   5  -6  -4 2149.77 70.7917   1
  -5   6   3 690.870 66.0210   2
   5  -6  -3 716.255 42.4016   3
   5  -6  -3 587.500 48.2759   1
   5  -6  -2 20168.7 178.883   1
  -5   6   2 20041.6 207.114   2
   5  -6  -1 177.409 36.8362   1
  -5   6   1 86.5250 51.9075   2
   5  -6   0 66.9384 30.8090   1
  -5   6   0 65.4018 43.2224   2
  -5   6  -1 186.702 49.7135   2
  -5   6  -2 65.3612 51.9028   2
  -5   6  -3 628.698 61.2459   2
  -5   6  -4 159.131 52.0306   2
  -5   6  -5 132.872 58.9598   2
  -5   6  -6 131.407 57.6160   2
  -5   6  -7 101.320 54.1166   2
  -5   6  -8 374.536 72.6554   2
  -5   6  -9 100.855 66.2942   2
   5  -5 -13 121.329 45.6374   3
   5  -5 -12 101.893 46.9208   3
   5  -5 -11-65.9507 41.1779   3
   5  -5 -10 96.6980 46.2504   3
   5  -5  -9 290.246 48.7007   3
   5  -5  -8 465.691 56.2523   3
  -5   5   8 472.822 57.6737   2
   5  -5  -7 1297.09 64.0029   3
  -5   5   7 1159.93 68.9774   2
   5  -5  -6 1937.48 66.0265   3
  -5   5   6 1927.90 75.9784   2
   5  -5  -6 1897.46 72.8023   1
  -5   5   5 1482.54 68.1124   2
   5  -5  -5 1393.68 54.9407   3
   5  -5  -5 1407.28 62.4443   1
   5  -5  -4 254.559 31.4748   3
   5  -5  -4 184.360 37.6511   1
  -5   5   4 245.921 46.5918   2
   5  -5  -3 5807.96 84.2132   3
   5  -5  -3 5959.90 105.210   1
  -5   5   3 6327.38 99.0743   0
  -5   5   3 5744.92 111.927   2
   5  -5  -2 3357.81 79.5582   1
  -5   5   2 3316.55 78.6362   0
  -5   5   2 3293.50 89.2265   2
   5  -5  -1 2086.93 65.9017   1
  -5   5   1 2199.37 74.4130   2
   5  -5   0 700.193 46.5417   1
  -5   5   0 762.352 59.2888   2
  -5   5  -1 180.370 33.1725   5
  -5   5  -1 152.947 44.1517   2
  -5   5  -2 118.246 31.9241   5
  -5   5  -2 82.4368 48.5090   2
  -5   5  -3 10.1984 43.5082   2
  -5   5  -4 85.7683 48.3651   2
  -5   5  -5 42.4862 52.4630   2
  -5   5  -6 170.788 64.7474   2
  -5   5  -7 200.223 67.6184   2
  -5   5  -8 46.2206 50.8643   2
  -5   5  -9-93.1019 58.2315   2
  -5   5 -10-191.481 63.9392   2
   5  -4 -13 200.197 48.4049   3
   5  -4 -12 270.796 56.8270   3
   5  -4 -11 120.543 49.4585   3
   5  -4 -10 81.9504 48.0369   3
   5  -4  -9 22.7663 45.7263   3
   5  -4  -8 3517.84 98.3659   3
   5  -4  -7 767.748 53.5237   3
  -5   4   7 687.837 54.2478   2
   5  -4  -7 796.679 59.3698   1
   5  -4  -6 4.31910 37.9908   1
  -5   4   6 13.3417 40.4400   2
   5  -4  -6-5.50576 34.1016   3
  -5   4   5 127.078 40.6638   2
   5  -4  -5 113.868 33.0839   3
   5  -4  -5 71.5181 38.9290   1
  -5   4   4 1566.89 63.3419   2
   5  -4  -4 1469.78 50.6726   3
  -5   4   4 1395.70 51.3059   0
   5  -4  -4 1349.45 60.4172   1
   5  -4  -3 17580.3 136.691   3
   5  -4  -3 17823.8 173.906   1
  -5   4   3 17617.4 161.102   0
  -5   4   3 17423.2 172.622   2
   5  -4  -2 2116.71 45.1074   3
   5  -4  -2 2110.33 68.7997   1
  -5   4   2 1974.78 65.1900   0
  -5   4   2 2097.78 69.9431   2
   5  -4  -1 443.609 44.0428   1
  -5   4   1 530.642 45.9976   2
  -5   4   0-23.4550 32.7131   5
  -5   4   0 2.01536 36.3456   2
  -5   4  -1 264.079 37.2246   5
  -5   4  -1 218.776 43.6666   2
  -5   4  -2 20.1713 34.7634   5
  -5   4  -2 8.21881 41.8826   2
  -5   4  -3 663.771 50.0262   5
  -5   4  -3 615.729 54.9485   2
  -5   4  -4 1094.94 57.7821   5
  -5   4  -4 1150.66 70.6424   2
  -5   4  -5 1773.81 86.7624   2
  -5   4  -6 1421.02 84.3556   2
  -5   4  -7 1215.27 87.0434   2
  -5   4  -8 355.081 62.0311   2
  -5   4  -9 140.428 62.2380   2
  -5   4 -10 39.2659 54.1080   2
   5  -3 -14 215.290 52.3059   3
   5  -3 -13 92.4615 45.8614   3
   5  -3 -12-31.6573 43.8603   3
   5  -3 -11 18.2382 42.7363   3
   5  -3 -10 153.586 48.4139   3
   5  -3  -9 4203.22 111.111   3
   5  -3  -8 1541.58 72.4102   3
   5  -3  -8 1669.12 74.4388   1
   5  -3  -7 16.7791 41.6091   1
  -5   3   7 6.10063 39.3148   2
   5  -3  -7 7.17805 39.1942   3
  -5   3   6 379.043 44.2902   2
   5  -3  -6 357.154 39.3220   3
   5  -3  -6 334.395 45.6672   1
   5  -3  -6 294.284 35.9940   0
  -5   3   5 13.1852 34.8121   2
   5  -3  -5 8.28932 29.8160   3
   5  -3  -5 51.4373 41.0080   1
  -5   3   4 1783.89 61.0277   2
   5  -3  -4 1727.48 51.9004   3
   5  -3  -4 1734.99 66.3582   1
  -5   3   4 1671.26 55.9404   0
   5  -3  -3 4930.61 74.8557   3
  -5   3   3 4562.85 88.6871   0
   5  -3  -3 4686.34 97.6889   1
  -5   3   3 4960.93 90.0931   2
   5  -3  -2 538.259 27.6515   3
   5  -3  -2 468.698 46.6814   1
  -5   3   2 520.423 47.6228   0
  -5   3   2 507.214 40.2239   2
  -5   3   1 920.359 51.1772   5
  -5   3   1 806.955 50.3584   0
  -5   3   1 992.051 51.2555   2
  -5   3   0 521.061 45.6018   5
  -5   3   0 581.844 44.4140   2
  -5   3  -1 4432.83 94.8794   5
  -5   3  -1 4325.59 93.7496   2
  -5   3  -2 5844.59 109.551   5
  -5   3  -2 5933.80 112.458   2
  -5   3  -3 1265.02 62.9103   5
  -5   3  -3 1324.42 67.1099   2
  -5   3  -4 1898.26 71.9002   5
  -5   3  -4 2093.68 82.4807   2
  -5   3  -5 2253.49 81.8311   5
  -5   3  -5 2367.63 94.2077   2
  -5   3  -6 4623.36 113.275   5
  -5   3  -6 4802.69 131.401   2
  -5   3  -7 4510.41 117.256   5
  -5   3  -7 4523.93 130.887   2
  -5   3  -8 128.051 56.3861   2
  -5   3  -9 85.9548 60.6301   2
  -5   3 -10 125.244 69.4875   2
   5  -2 -14-23.8207 52.1261   3
   5  -2 -13-151.766 46.8448   3
   5  -2 -11 65.7228 47.6033   3
   5  -2 -10 300.279 54.9242   3
   5  -2  -9 771.862 63.3843   3
   5  -2  -8 1647.58 71.3520   3
   5  -2  -8 1700.17 75.2379   1
  -5   2   7 107.328 36.6463   2
   5  -2  -7 105.547 37.4145   0
   5  -2  -7 170.671 38.1706   3
   5  -2  -7 177.962 47.6928   1
   5  -2  -6 27.0916 34.5749   0
  -5   2   6 55.1883 31.0914   2
   5  -2  -6 58.6352 32.5664   3
   5  -2  -6 58.3433 41.8182   1
  -5   2   5 1567.11 52.3585   2
   5  -2  -5 1622.81 54.7295   3
   5  -2  -5 1492.95 64.9285   1
   5  -2  -5 1454.40 55.3012   0
   5  -2  -4 150.710 40.2009   1
  -5   2   4 142.716 37.0154   0
   5  -2  -4 165.668 26.9135   3
  -5   2   4 188.645 32.4810   2
   5  -2  -3 7232.42 88.6896   3
  -5   2   3 7224.31 109.704   0
   5  -2  -3 6793.27 114.690   1
  -5   2   3 7194.82 98.2817   2
   5  -2  -2 582.581 28.3009   3
  -5   2   2 503.065 48.1910   5
  -5   2   2 442.249 36.5725   2
  -5   2   2 526.053 38.8799   0
   5  -2  -1 334.731 20.8193   3
  -5   2   1 325.309 44.1384   5
  -5   2   1 310.729 35.7606   2
  -5   2   0 386.304 48.4527   5
  -5   2   0 330.962 37.9304   2
  -5   2  -1 5065.23 103.253   5
  -5   2  -1 4874.58 95.0313   2
  -5   2  -2 263.064 44.2352   5
  -5   2  -2 325.341 44.2851   2
  -5   2  -3 101.471 42.7040   2
  -5   2  -3 162.187 39.8274   5
  -5   2  -4 732.920 55.8211   5
  -5   2  -4 715.822 59.0207   2
  -5   2  -5 1502.42 71.3434   5
  -5   2  -5 1405.40 75.4656   2
  -5   2  -6 330.110 53.1253   5
  -5   2  -6 411.042 65.7247   2
  -5   2  -7 219.935 58.9579   2
  -5   2  -7 229.049 47.5451   5
  -5   2  -8-199.819 61.3706   2
  -5   2  -8-169.338 41.6491   5
  -5   2  -9-226.054 64.8132   2
   5  -1 -13 171.537 53.4360   3
   5  -1 -12-73.0881 49.9979   3
   5  -1 -11 119.501 46.9855   3
   5  -1 -10 1229.73 75.1008   3
   5  -1  -9 7886.51 141.210   3
   5  -1  -9 7822.49 140.114   1
   5  -1  -8 188.893 43.6386   1
   5  -1  -8 168.304 43.5257   3
   5  -1  -7 232.400 40.5009   3
   5  -1  -7 257.026 46.5477   1
  -5   1   6 2977.47 65.1074   2
   5  -1  -6 3206.32 80.0752   3
   5  -1  -6 3253.75 87.4047   1
  -5   1   5 7114.56 90.9666   2
   5  -1  -5 7474.45 122.297   1
   5  -1  -5 7414.95 108.470   3
  -5   1   5 7220.55 85.6201   4
  -5   1   4 1121.00 41.8998   2
   5  -1  -4 1097.81 46.7636   3
   5  -1  -4 1031.48 60.1267   1
  -5   1   4 1108.99 50.8469   0
  -5   1   3 1907.60 68.8057   5
   5  -1  -3 1801.18 68.6247   1
  -5   1   3 1854.77 60.6399   0
  -5   1   3 1968.32 51.1645   2
  -5   1   2 719.724 51.3385   5
  -5   1   2 731.619 38.0847   2
  -5   1   1 2477.11 78.3799   5
  -5   1   1 2618.85 62.0386   2
  -5   1   0 7883.26 129.259   5
  -5   1   0 7945.64 107.514   2
  -5   1  -1 6693.19 122.803   5
  -5   1  -1 6509.18 107.126   2
  -5   1  -2 673.166 52.3247   5
  -5   1  -2 628.736 46.7200   2
  -5   1  -3 109.340 41.4082   2
  -5   1  -3 138.444 44.6486   5
  -5   1  -4 1332.98 69.8578   5
  -5   1  -4 1230.46 66.9725   2
  -5   1  -5 1320.59 75.3212   5
  -5   1  -5 1354.82 77.6490   2
  -5   1  -6 1178.90 73.5253   5
  -5   1  -6 1175.82 80.6817   2
  -5   1  -7 247.352 63.6020   2
  -5   1  -7 247.730 52.0926   5
  -5   1  -8 20.0100 58.5134   2
  -5   1  -8 3.64329 46.6261   5
  -5   1  -9 31.4617 62.8469   2
  -5   1  -9 173.429 50.6033   5
  -5   1 -10-184.153 72.3643   2
  -5   1 -10 99.0898 51.2126   5
   5   0 -14-29.8096 51.1614   3
   5   0 -13 16.1276 43.7960   3
   5   0 -12 1.75038 38.6661   3
   5   0 -11 78.8161 43.3301   3
   5   0 -10 3221.98 100.721   3
  -5   0  10 3121.75 99.1885   4
   5   0  -9 173.105 52.6396   1
   5   0  -9 157.010 53.6953   3
  -5   0   9 189.409 45.8692   4
   5   0  -8 1555.04 69.9499   3
  -5   0   8 1510.13 65.9179   6
  -5   0   8 1273.02 59.2506   4
   5   0  -8 1542.92 70.5360   1
   5   0  -7 4898.91 103.885   3
  -5   0   7 4635.87 99.0971   6
  -5   0   7 4578.64 90.3855   4
   5   0  -7 4908.47 107.593   1
   5   0  -6 4411.11 94.8298   3
  -5   0   6 3842.24 92.1782   6
  -5   0   6 3915.23 75.9886   4
   5   0  -6 3945.61 95.1445   1
  -5   0   5 3709.85 90.0724   6
   5   0  -5 3694.76 92.2573   1
  -5   0   5 3673.74 66.0887   4
  -5   0   4 656.477 30.3320   2
  -5   0   4 559.380 51.7446   6
   5   0  -4 593.521 55.5326   1
  -5   0   3 298.921 43.8174   5
  -5   0   3 251.137 23.8006   2
  -5   0   2 2011.11 73.4298   5
  -5   0   2 1897.36 47.3142   2
  -5   0   1 11.2751 41.1201   5
  -5   0   1 17.5375 22.5727   2
  -5   0   0 2032.47 76.0815   5
  -5   0   0 2038.68 56.5116   2
  -5   0  -1 111.321 30.2466   2
  -5   0  -1 103.460 44.3549   5
  -5   0  -2 466.290 51.9678   5
  -5   0  -2 524.489 46.2009   2
  -5   0  -3 2996.28 92.8489   5
  -5   0  -3 2913.87 83.4240   2
  -5   0  -4 6097.24 132.061   5
  -5   0  -4 6223.44 125.043   2
  -5   0  -5 5406.65 130.947   5
  -5   0  -5 5478.81 127.777   2
  -5   0  -6 542.484 63.8605   5
  -5   0  -6 707.846 71.3825   2
  -5   0  -7 40.7678 56.6557   2
  -5   0  -7 148.440 50.0172   5
  -5   0  -8 146.561 62.9096   5
  -5   0  -8 39.6725 58.4370   2
  -5   0  -9 55.9590 62.8346   2
  -5   0  -9 90.3865 43.4382   5
  -5   0 -10 116.597 53.6485   5
  -5   0 -10-26.8423 61.3075   2
   5   1 -14 22.6430 55.1731   3
   5   1 -13 322.761 57.9852   3
  -5  -1  13 155.285 59.5340   4
   5   1 -12 23.3341 41.3590   3
  -5  -1  12 55.0642 48.1682   4
   5   1 -11-4.29450 49.4713   3
  -5  -1  11-15.9223 44.3941   4
   5   1 -10 2260.57 88.9372   3
  -5  -1  10 2127.23 86.4967   4
   5   1  -9 1772.71 80.8321   3
  -5  -1   9 1752.80 76.1553   6
  -5  -1   9 1642.75 73.2724   4
   5   1  -9 1838.66 75.4170   1
   5   1  -8 1423.48 71.2632   3
  -5  -1   8 1555.23 71.8792   6
  -5  -1   8 1297.06 61.7776   4
   5   1  -8 1421.02 68.0658   1
  -5  -1   7 89.6408 47.4145   6
   5   1  -7 48.7967 41.5721   1
  -5  -1   7 66.7100 33.4729   4
  -5  -1   6 187.503 49.8452   6
   5   1  -6 201.405 42.2626   1
  -5  -1   6 116.567 27.8515   4
   5   1  -5 185.840 42.1963   1
  -5  -1   5 227.487 49.7360   6
  -5  -1   5 210.900 28.7874   4
  -5  -1   4 1666.16 70.8486   6
   5   1  -4 1557.58 66.4524   1
  -5  -1   4 1654.72 68.3828   5
  -5  -1   3 552.042 53.8925   6
  -5  -1   3 630.069 54.5686   5
  -5  -1   2 1199.21 65.3446   6
  -5  -1   2 1147.23 61.7692   5
  -5  -1   1 1339.41 41.2265   2
  -5  -1   1 1344.88 67.3929   5
  -5  -1   0 1176.41 66.9610   5
  -5  -1   0 1029.69 42.4841   2
  -5  -1  -1 2097.78 80.2661   5
  -5  -1  -1 2088.83 61.8743   2
  -5  -1  -2 1485.08 73.2555   5
  -5  -1  -2 1459.07 58.4984   2
  -5  -1  -3 1495.39 76.9029   5
  -5  -1  -3 1409.79 64.5589   2
  -5  -1  -4 71.7590 44.3364   2
  -5  -1  -4-36.1676 49.9487   5
  -5  -1  -5 2222.17 96.4176   5
  -5  -1  -5 2136.06 87.7229   2
  -5  -1  -6 1331.48 84.6425   5
  -5  -1  -6 1309.64 83.6516   2
  -5  -1  -7 1535.83 90.6105   5
  -5  -1  -7 1419.63 88.5693   2
  -5  -1  -8 525.322 75.1830   2
  -5  -1  -8 576.885 64.1208   5
  -5  -1  -9 0.00000 59.8643   2
  -5  -1  -9 52.0570 52.9987   5
   5   2 -14 389.256 59.7973   3
  -5  -2  14 232.722 65.1872   4
   5   2 -13-116.391 39.3677   3
   5   2 -12 94.5183 49.3636   3
  -5  -2  12 61.2838 46.0293   4
   5   2 -11 339.741 56.3298   3
  -5  -2  11 223.256 54.8039   4
   5   2 -10 734.487 62.5053   3
  -5  -2  10 749.522 66.0314   6
  -5  -2  10 654.746 63.0905   4
   5   2 -10 769.683 61.0860   1
   5   2  -9 201.978 48.9636   1
  -5  -2   9 160.205 51.4495   6
  -5  -2   9 216.439 47.6375   4
  -5  -2   8 39.4504 47.5770   6
  -5  -2   8-6.50836 33.9937   4
   5   2  -8-100.855 41.5266   1
  -5  -2   7 364.151 52.2812   6
   5   2  -7 293.076 47.4581   1
  -5  -2   7 408.384 42.3947   4
   5   2  -6 212.235 46.1639   1
  -5  -2   6 148.107 33.3938   4
  -5  -2   6 178.806 47.9837   6
  -5  -2   5 1040.43 66.7326   6
   5   2  -5 954.374 58.6520   1
  -5  -2   5 1005.88 44.4655   4
  -5  -2   4 2107.20 75.1295   5
  -5  -2   4 2237.62 81.9086   6
  -5  -2   4 2150.42 56.3584   4
  -5  -2   3 199.642 52.0861   6
  -5  -2   3 180.820 44.5742   5
  -5  -2   2 4273.16 103.470   6
  -5  -2   2 4499.79 105.877   5
  -5  -2   1 1490.07 70.9659   6
  -5  -2   1 1451.54 73.0540   5
  -5  -2   0 4061.70 105.654   5
  -5  -2  -1 153.983 48.7080   5
  -5  -2  -1 58.6229 35.9403   3
  -5  -2  -2 99.1587 31.8983   2
  -5  -2  -2 131.815 47.5151   5
  -5  -2  -3 922.464 67.7243   5
  -5  -2  -3 951.275 56.6548   2
  -5  -2  -4 1743.74 84.2371   5
  -5  -2  -4 1664.42 73.5848   2
  -5  -2  -5 3917.35 121.660   5
  -5  -2  -5 3788.56 109.965   2
  -5  -2  -6 1707.19 88.8865   5
  -5  -2  -6 1617.28 87.3541   2
  -5  -2  -7 538.467 61.2635   5
  -5  -2  -7 314.497 61.2226   2
  -5  -2  -8-45.9509 54.2993   2
  -5  -2  -8 40.9935 59.0350   5
  -5  -2  -9 89.9866 50.9978   5
   5   3 -13 316.285 48.9401   3
  -5  -3  13 199.563 55.4116   4
   5   3 -12 227.041 48.5988   3
  -5  -3  12 2.03414 58.2940   4
   5   3 -11 2.16645 45.5876   3
  -5  -3  11-43.8904 50.1262   4
   5   3 -10 334.369 52.5201   1
  -5  -3  10 201.479 58.4878   6
  -5  -3  10 426.947 56.5185   4
  -5  -3   9 685.377 63.5300   6
  -5  -3   9 607.505 59.6134   4
   5   3  -9 773.269 55.9094   1
  -5  -3   8 271.528 56.2610   6
   5   3  -8 309.479 45.8428   1
  -5  -3   8 379.862 50.8990   4
  -5  -3   7 369.706 55.5652   6
   5   3  -7 415.749 48.7286   1
  -5  -3   7 363.005 45.4610   4
  -5  -3   6 1502.49 74.6588   6
   5   3  -6 1458.62 67.8305   1
  -5  -3   6 1524.02 61.3756   4
  -5  -3   5 290.794 54.9656   6
   5   3  -5 366.148 48.4429   1
  -5  -3   5 250.935 34.6367   4
  -5  -3   4 294.477 57.6486   6
  -5  -3   4 251.296 42.9805   5
  -5  -3   4 234.193 29.9760   4
  -5  -3   3 252.589 53.9524   6
  -5  -3   3 208.630 45.0431   5
  -5  -3   3 231.833 33.2215   4
  -5  -3   2 2943.58 93.5332   6
  -5  -3   2 3010.66 92.0512   5
  -5  -3   1 4176.50 106.681   6
  -5  -3   1 4372.84 111.706   5
  -5  -3   0 27.7234 49.4204   6
  -5  -3   0 78.5838 44.1046   3
  -5  -3   0 45.8748 49.6288   5
  -5  -3  -1 289.791 46.0325   3
  -5  -3  -1 421.049 55.1166   5
  -5  -3  -2 25.1882 43.4948   5
  -5  -3  -3 34.8680 45.6005   5
  -5  -3  -4 92.5494 48.3847   5
  -5  -3  -5 89.9398 50.9121   5
  -5  -3  -6-66.6255 42.6565   2
  -5  -3  -6 45.8782 45.4090   5
  -5  -3  -7-38.3895 54.2317   2
  -5  -3  -7 42.5129 47.0616   5
  -5  -3  -8 21.6687 49.0784   2
  -5  -3  -8 173.259 58.3757   5
  -5  -3  -9-121.488 58.6466   2
  -5  -4  14 344.034 68.8182   4
   5   4 -13 217.214 48.1195   3
  -5  -4  13-2.09115 60.6588   4
   5   4 -12-63.4189 49.8214   3
  -5  -4  12 33.3874 49.3272   4
  -5  -4  11 1595.84 89.0202   6
  -5  -4  11 1732.98 90.7047   4
  -5  -4  10 1473.73 84.8004   6
  -5  -4  10 1298.33 76.2947   4
  -5  -4   9 549.214 60.5817   4
  -5  -4   8 37.7915 54.8254   6
  -5  -4   8 76.6937 40.9312   4
  -5  -4   7 188.466 56.6180   6
   5   4  -7 125.444 41.0934   1
  -5  -4   7 192.768 44.1808   4
  -5  -4   6 3861.87 110.917   6
   5   4  -6 3743.67 94.1693   1
  -5  -4   6 3650.99 94.4399   4
  -5  -4   5 3051.85 101.122   6
  -5  -4   5 3000.38 88.0622   5
   5   4  -5 3042.10 87.9690   1
  -5  -4   5 3035.11 83.4310   4
  -5  -4   4 4315.39 113.264   6
  -5  -4   4 4366.61 104.533   5
  -5  -4   4 4250.90 91.4261   4
  -5  -4   3 3348.31 104.452   6
  -5  -4   3 3161.56 93.2699   5
  -5  -4   3 3158.35 79.4179   4
  -5  -4   2 1412.81 78.8966   6
  -5  -4   2 1530.85 74.8845   5
  -5  -4   1 4823.49 117.388   6
  -5  -4   1 5158.93 122.527   5
  -5  -4   0 4671.23 114.093   6
  -5  -4   0 4827.87 120.643   5
  -5  -4   0 4966.82 114.829   3
  -5  -4  -1 1415.89 75.5004   6
  -5  -4  -1 1617.12 79.9694   5
  -5  -4  -1 1464.18 71.9954   3
  -5  -4  -2 818.994 67.8751   5
  -5  -4  -2 708.859 61.2137   3
  -5  -4  -3 136.297 46.6781   5
  -5  -4  -5 1.98277 47.8200   5
  -5  -4  -6 162.104 59.2758   5
  -5  -4  -7 369.541 64.8241   5
   5   5 -13 364.633 54.1176   3
  -5  -5  13 471.652 61.7359   4
  -5  -5  12 1093.30 83.7061   4
  -5  -5  11 1269.44 78.7001   4
  -5  -5  10 1081.61 78.1761   4
  -5  -5   9 1009.69 68.1570   4
  -5  -5   8 140.094 41.3469   4
  -5  -5   7 125.001 48.1380   4
  -5  -5   6 1674.40 73.5730   4
  -5  -5   5 3038.49 105.436   6
  -5  -5   5 3139.98 91.7735   5
   5   5  -5 3031.38 90.7135   1
  -5  -5   5 3042.06 87.9971   4
  -5  -5   4 473.329 65.8762   6
  -5  -5   4 546.899 52.8150   5
  -5  -5   4 533.654 49.5647   4
  -5  -5   3 73.5548 56.6180   6
  -5  -5   3 142.134 43.7594   5
  -5  -5   3 117.069 39.1089   4
  -5  -5   2 238.755 52.6550   5
  -5  -5   2 189.195 38.6401   4
  -5  -5   2 241.302 58.5772   6
  -5  -5   1 618.151 66.4341   6
  -5  -5   1 743.481 63.1225   5
  -5  -5   1 693.086 71.2533   3
  -5  -5   0 2352.82 91.1335   6
  -5  -5   0 2169.61 89.0201   5
  -5  -5   0 2104.42 93.5324   3
  -5  -5  -1 1715.66 82.0039   6
  -5  -5  -1 1924.60 87.3852   5
  -5  -5  -1 1994.00 88.8263   3
  -5  -5  -2 439.195 62.0784   3
  -5  -5  -2 501.804 61.6827   5
  -5  -5  -3-28.1719 44.7166   5
  -5  -5  -4-43.2934 41.5545   5
  -5  -5  -5-167.562 48.2863   5
  -5  -5  -6 129.539 46.1178   5
  -5  -6  13 448.630 69.6378   4
  -5  -6  12-11.0820 58.8663   4
  -5  -6  11 326.004 63.5907   4
  -5  -6  10 174.839 60.3605   4
  -5  -6   9 294.748 53.6277   4
  -5  -6   8 1318.53 77.6144   4
  -5  -6   7 461.664 55.9234   4
  -5  -6   6 217.989 47.7532   4
  -5  -6   5-132.146 39.4247   4
  -5  -6   4 15.9496 55.4787   6
  -5  -6   4 40.0930 39.9827   4
  -5  -6   3 286.681 61.1857   6
  -5  -6   3 425.513 56.4737   5
  -5  -6   3 432.920 50.7835   4
  -5  -6   2 841.358 70.8253   6
  -5  -6   2 696.684 63.8970   5
  -5  -6   2 847.841 59.3428   4
  -5  -6   1 288.477 66.7720   3
  -5  -6   1 298.393 52.5854   5
  -5  -6   1 202.289 57.5153   6
  -5  -6   0 383.436 71.6799   3
  -5  -6   0 253.526 53.0035   5
  -5  -6  -1 166.894 62.1520   3
  -5  -6  -1 347.411 58.3646   5
  -5  -6  -1 158.086 56.1457   6
  -5  -6  -2 414.048 74.7020   3
  -5  -6  -2 446.486 63.6078   5
  -5  -6  -3 121.179 60.8081   3
  -5  -6  -3 169.621 50.9926   5
  -5  -7  12-128.094 61.0109   4
  -5  -7  11-99.2500 55.6613   4
  -5  -7  10 147.817 59.7502   4
  -5  -7   9 124.701 47.3827   4
  -5  -7   8 355.547 50.0626   4
  -5  -7   7 442.366 55.3126   4
  -5  -7   6 369.285 46.6912   4
  -5  -7   5 275.538 52.1259   4
  -5  -7   4 51.0958 43.3003   4
  -5  -7   3-36.6377 58.5261   6
  -5  -7   3 54.5828 41.5230   4
  -5  -7   2 171.079 64.2701   6
  -5  -7   2 197.288 41.3669   4
  -5  -7   1 65.8154 66.8525   3
  -5  -7   1 31.4048 65.5149   6
  -5  -7   1 200.555 56.1601   5
  -5  -7   0 145.988 74.5027   3
  -5  -7   0 328.119 65.5733   6
  -5  -7   0 231.680 53.4675   5
  -5  -7  -1 6.16187 67.1861   3
  -5  -7  -1 451.122 49.4515   5
  -5  -7  -2 138.041 72.9067   3
  -5  -7  -2 226.947 50.0662   5
  -5  -7  -3-44.4066 62.4358   3
  -5  -7  -3 187.483 46.8507   5
  -5  -7  -4-143.002 51.7151   5
  -5  -8  11 480.514 74.2197   4
  -5  -8  10 46.7020 64.6923   4
  -5  -8   9 243.229 53.6540   4
  -5  -8   8 345.897 53.9180   4
  -5  -8   7 138.635 52.7507   4
  -5  -8   6-101.066 51.0647   4
  -5  -8   5 49.3233 47.5145   4
  -5  -8   4-46.1631 46.3526   4
  -5  -8   3 325.700 71.5174   6
  -5  -8   3 589.922 58.3972   4
  -5  -8   2 297.661 67.9704   6
  -5  -8   2 364.824 54.8128   4
  -5  -8   1 33.0426 72.5587   3
  -5  -8   1 19.6527 68.3441   6
  -5  -8   0 113.152 72.1114   3
  -5  -8  -1 325.318 82.7113   3
  -5  -8  -2 728.292 66.7380   5
  -5  -8  -2 652.628 94.2598   3
  -5  -8  -3 329.893 94.2337   3
  -5  -8  -3 196.894 59.2498   5
  -5  -8  -4 231.562 63.9953   5
  -5  -9   9 381.268 70.6711   4
  -5  -9   8-211.090 56.4585   4
  -5  -9   7 250.704 64.8877   4
  -5  -9   6-141.329 52.7300   4
  -5  -9   5 321.935 56.1288   4
  -5  -9   4 247.267 56.0400   4
  -5  -9   3 159.085 72.4445   6
  -5  -9   3 421.975 47.1152   4
  -5  -9   2-146.886 54.1308   4
  -5  -9   1-28.9255 81.0762   6
  -5  -9   1 104.814 92.4217   3
  -5  -9   0-112.050 86.5134   3
  -5  -9  -1-169.311 82.0876   3
  -5  -9  -2 67.1223 79.5117   3
  -5 -10   7 375.753 61.1405   4
  -5 -10   6 133.255 71.4473   4
  -5 -10   5 421.522 69.3534   4
  -5 -10   4 72.3695 59.3988   4
  -5 -10   3-36.9083 81.9916   6
  -5 -10   3 105.802 56.3030   4
  -6  12   4-52.7526 77.9233   2
  -6  12   3 468.453 91.3917   2
  -6  12   2 296.538 74.1902   2
  -6  12   1 93.6030 61.1082   2
  -6  12   0-49.5152 63.2423   2
  -6  12  -1 148.518 67.0198   2
  -6  12  -2 183.944 77.0425   2
  -6  12  -3-77.8946 71.7824   2
  -6  11   7 15.5189 69.4064   2
  -6  11   6 519.978 95.5290   2
  -6  11   5 2433.13 115.445   2
  -6  11   4 2083.18 112.989   2
  -6  11   3 218.361 68.0747   2
  -6  11   2 80.1953 64.4948   2
  -6  11   1-60.4586 68.3881   2
  -6  11   0-40.4569 68.0229   2
  -6  11  -1 64.1617 69.6793   2
  -6  11  -2-6.05754 63.0824   2
  -6  11  -3 134.854 68.3981   2
  -6  11  -4 126.897 61.9077   2
  -6  11  -5 771.631 84.5700   2
   6 -10  -9 194.721 53.5059   3
   6 -10  -8 519.562 61.8267   3
  -6  10   8 334.343 78.7351   2
   6 -10  -7 814.422 72.1795   3
  -6  10   7 437.322 81.5687   2
  -6  10   6 234.287 76.2400   2
  -6  10   5 89.7087 62.4106   2
  -6  10   4 111.542 62.4222   2
  -6  10   3 393.812 66.9159   2
  -6  10   2 417.128 73.5631   2
  -6  10   1 17.8496 69.9719   2
  -6  10   0 621.451 73.3130   2
  -6  10  -1 577.235 76.6098   2
  -6  10  -2 12.3964 58.1315   2
  -6  10  -3 96.2743 64.9992   2
  -6  10  -4-8.69613 58.0484   2
  -6  10  -5 208.480 64.4516   2
  -6  10  -6 78.7680 78.5045   2
   6  -9 -10-181.083 58.2533   3
   6  -9  -9 108.051 50.9101   3
  -6   9   8 330.728 74.5702   2
   6  -9  -8 154.257 54.1811   3
  -6   9   7 284.542 70.9080   2
   6  -9  -7 440.573 53.5377   3
  -6   9   6 51.9115 61.7799   2
  -6   9   5 446.009 64.1861   2
  -6   9   4 649.357 72.4248   2
  -6   9   3 538.489 74.2360   2
  -6   9   2 97.7983 66.9647   2
  -6   9   1 505.149 73.0394   2
  -6   9   0 816.208 80.5686   2
  -6   9  -1 117.564 55.9639   2
  -6   9  -2 236.413 63.5781   2
  -6   9  -3 39.9710 55.3853   2
  -6   9  -4 91.3347 64.0597   2
  -6   9  -5-2.87378 65.1907   2
  -6   9  -6 32.4893 67.7001   2
  -6   9  -7 139.710 67.6700   2
   6  -8 -11 990.652 74.6324   3
   6  -8 -10 123.293 49.9212   3
  -6   8   9 255.690 69.2542   2
   6  -8  -9 291.851 57.4108   3
  -6   8   8 259.913 67.0919   2
   6  -8  -8 242.224 50.6121   3
   6  -8  -7 433.741 53.3407   3
  -6   8   7 219.641 64.6355   2
  -6   8   6 74.4895 52.2799   2
   6  -8  -6 74.5928 43.4731   3
  -6   8   5 74.1033 62.0726   2
  -6   8   4-78.6275 56.0050   2
  -6   8   3 108.136 56.1655   2
  -6   8   2 477.426 69.3331   2
  -6   8   1 1521.40 84.7390   2
  -6   8   0 462.988 62.5324   2
  -6   8  -1 695.071 68.6043   2
  -6   8  -2 230.789 66.1796   2
  -6   8  -3 345.690 62.7956   2
  -6   8  -4 188.515 70.1534   2
  -6   8  -5 234.724 74.3782   2
  -6   8  -6 23.5655 60.1337   2
  -6   8  -7-64.0586 59.4290   2
   6  -7 -12-19.3400 65.5048   3
   6  -7 -11 275.285 66.5141   3
   6  -7 -10 340.072 68.1542   3
   6  -7  -9 569.913 64.7304   3
  -6   7   9 431.594 70.8054   2
   6  -7  -8 612.120 59.8532   3
  -6   7   8 472.000 65.9653   2
  -6   7   7 292.245 64.0217   2
   6  -7  -7 139.986 44.6597   3
   6  -7  -6 685.091 52.1694   3
  -6   7   6 757.416 68.1621   2
  -6   7   5-0.16319 53.4107   2
   6  -7  -5 18.0611 41.1530   1
  -6   7   4 22.5849 52.8360   2
   6  -7  -4 45.3067 40.7632   1
   6  -7  -3-8.69890 35.2145   1
  -6   7   3-41.4974 59.4354   2
  -6   7   2 2820.36 100.992   2
  -6   7   1 2035.27 88.2394   2
  -6   7   0 355.089 59.1405   2
  -6   7  -1 56.4455 52.3257   2
  -6   7  -2 64.4228 55.9988   2
  -6   7  -3 1232.51 84.7071   2
  -6   7  -4 884.966 80.1977   2
  -6   7  -5 134.550 63.2229   2
  -6   7  -6 87.0956 50.6283   2
  -6   7  -7 49.1326 52.0629   2
  -6   7  -8-15.2426 65.1726   2
   6  -6 -12 372.341 60.0168   3
   6  -6 -11 232.834 57.0233   3
   6  -6 -10 529.730 59.6142   3
   6  -6  -9 481.464 55.0223   3
   6  -6  -8 929.834 62.1265   3
  -6   6   8 939.540 70.7819   2
   6  -6  -7 439.876 50.4193   3
  -6   6   7 551.887 65.0626   2
   6  -6  -6 663.096 48.3122   3
  -6   6   6 526.901 60.4548   2
   6  -6  -6 592.820 56.9699   1
  -6   6   5 642.777 64.1477   2
   6  -6  -5 710.673 48.1079   3
   6  -6  -5 668.640 55.5433   1
  -6   6   4 892.960 64.1203   2
   6  -6  -4 794.629 55.4546   1
   6  -6  -3 268.763 44.6575   1
  -6   6   3 251.867 52.5066   2
   6  -6  -2 967.739 56.4372   1
  -6   6   2 930.829 68.0584   2
   6  -6  -1 97.6840 40.4406   1
  -6   6   1 182.398 52.8175   2
   6  -6   0 23.3730 36.6728   1
  -6   6   0-36.5529 49.8792   2
  -6   6  -1 96.6292 50.6323   2
  -6   6  -2 248.894 60.0980   2
  -6   6  -3 86.2417 57.8592   2
  -6   6  -4 255.815 62.9367   2
  -6   6  -5 262.787 61.1977   2
  -6   6  -6-7.53597 59.0529   2
  -6   6  -7-34.5429 48.6557   2
  -6   6  -8 55.0571 69.1922   2
   6  -5 -13 69.2355 51.4832   3
   6  -5 -12 85.9081 44.5199   3
   6  -5 -11 205.813 52.2932   3
   6  -5 -10 178.767 53.4150   3
   6  -5  -9 248.732 46.3826   3
   6  -5  -8 3114.58 94.0555   3
  -6   5   8 2789.04 94.5976   2
   6  -5  -7 3211.29 89.6725   3
  -6   5   7 3513.12 104.711   2
   6  -5  -7 3200.94 97.0028   1
  -6   5   6 755.237 61.9266   2
   6  -5  -6 930.197 50.2856   3
   6  -5  -6 821.571 60.0117   1
  -6   5   5 235.493 51.2562   2
   6  -5  -5 320.298 36.2842   3
   6  -5  -5 209.997 45.2799   1
   6  -5  -4 12.7579 40.8433   1
  -6   5   4-3.48376 46.2194   2
   6  -5  -3 3278.63 90.8703   1
  -6   5   3 3295.26 94.1316   2
   6  -5  -2 4924.06 106.884   1
  -6   5   2 4770.58 107.546   2
   6  -5  -1 127.426 42.4159   1
  -6   5   1 136.902 46.1537   2
  -6   5   0 1104.78 67.6670   2
  -6   5  -1 1549.55 66.7112   5
  -6   5  -1 1523.23 76.9949   2
  -6   5  -2 1392.85 66.8371   5
  -6   5  -2 1273.91 75.3067   2
  -6   5  -3 2733.41 100.742   2
  -6   5  -4 1288.01 82.6078   2
  -6   5  -5 494.862 63.0752   2
  -6   5  -6 59.8041 55.0393   2
  -6   5  -7 395.568 64.6577   2
  -6   5  -8 548.931 79.1751   2
   6  -4 -13 289.185 56.8526   3
   6  -4 -12 120.635 53.7587   3
   6  -4 -11-17.6767 36.3468   3
   6  -4 -10-40.2467 43.8709   3
   6  -4  -9 530.391 58.7459   3
   6  -4  -8 654.877 60.6328   3
  -6   4   8 904.178 62.9949   2
   6  -4  -8 822.474 65.3151   1
   6  -4  -7 252.067 53.7319   1
  -6   4   7 223.408 46.5011   2
   6  -4  -7 134.117 38.7567   3
  -6   4   6 170.503 43.4518   2
   6  -4  -6 118.940 34.2509   3
   6  -4  -6 152.236 43.4839   1
  -6   4   5 511.947 49.2452   2
   6  -4  -5 437.125 38.2709   3
   6  -4  -5 444.934 51.2109   1
   6  -4  -4 70.6178 40.5837   1
   6  -4  -4 76.1954 26.2547   3
  -6   4   4 83.2337 44.2920   2
   6  -4  -3 4245.07 102.470   1
  -6   4   3 4359.26 97.4607   2
   6  -4  -2 1127.47 64.3053   1
  -6   4   2 1158.01 59.1078   2
  -6   4   1 574.921 52.4796   2
  -6   4   0 1798.53 70.7073   5
  -6   4   0 1767.09 74.3704   2
  -6   4  -1 2250.26 79.2278   5
  -6   4  -1 2055.27 81.2571   2
  -6   4  -2 4412.63 105.842   5
  -6   4  -2 4344.03 111.571   2
  -6   4  -3 2051.23 80.9035   5
  -6   4  -3 1995.72 84.9383   2
  -6   4  -4 551.556 56.7554   5
  -6   4  -4 537.935 65.8151   2
  -6   4  -5 115.278 51.5889   2
  -6   4  -6 17.4495 51.8620   2
  -6   4  -7 811.967 82.2989   2
  -6   4  -8-27.8430 61.8400   2
  -6   4  -9-195.291 61.1670   2
   6  -3 -13 4.68415 48.2141   3
   6  -3 -12-162.333 48.6453   3
   6  -3 -10 74.2991 48.0352   3
   6  -3  -9 1734.51 78.2013   3
   6  -3  -9 1508.23 83.0493   1
   6  -3  -8 5796.31 120.841   3
  -6   3   8 5439.15 111.412   2
   6  -3  -8 5668.03 126.955   1
  -6   3   7 631.872 50.1677   2
   6  -3  -7 573.740 48.3579   3
   6  -3  -7 694.375 61.1612   1
  -6   3   6 1159.40 57.9751   2
   6  -3  -6 1082.53 53.0017   3
   6  -3  -6 1073.37 66.1649   1
  -6   3   5 526.188 45.6629   2
   6  -3  -5 498.037 38.5106   3
   6  -3  -5 505.156 54.3323   1
   6  -3  -4 63.1059 24.8340   3
   6  -3  -4 67.7939 41.3466   1
  -6   3   4 62.8522 36.8673   2
   6  -3  -3 1901.39 76.8294   1
  -6   3   3 2002.31 67.6375   2
  -6   3   2 40.0642 36.0054   2
   6  -3  -2-52.0757 43.9160   1
  -6   3   1-26.8543 41.2542   5
  -6   3   1 3.22100 37.1212   2
  -6   3   0 579.540 53.0803   5
  -6   3   0 630.154 52.2693   2
  -6   3  -1 2031.05 79.3807   5
  -6   3  -1 2147.88 77.4173   2
  -6   3  -2 1586.19 75.5656   5
  -6   3  -2 1508.26 73.5560   2
  -6   3  -3 1234.72 71.8973   5
  -6   3  -3 1247.61 71.7214   2
  -6   3  -4 434.757 54.8522   5
  -6   3  -4 490.455 60.9646   2
  -6   3  -5 152.782 52.7792   2
  -6   3  -5 117.795 48.5319   5
  -6   3  -6 39.8838 51.7033   2
  -6   3  -6 77.6450 46.8962   5
  -6   3  -7-104.868 53.4849   2
  -6   3  -8 119.870 59.7867   2
  -6   3  -9 0.81277 66.3856   2
   6  -2 -12 101.297 46.4590   3
   6  -2 -11 129.016 48.4285   3
   6  -2 -10 138.405 52.4685   3
   6  -2  -9 1122.28 65.3203   3
   6  -2  -9 1080.75 74.5988   1
   6  -2  -8 2869.52 87.1455   3
   6  -2  -8 2794.51 93.6688   1
  -6   2   7 1067.55 52.6788   2
   6  -2  -7 1258.57 59.0017   3
   6  -2  -7 1086.57 67.8754   1
  -6   2   6 810.435 47.9503   2
   6  -2  -6 857.032 50.1605   3
   6  -2  -6 723.073 58.5190   1
  -6   2   5 495.386 40.4404   2
   6  -2  -5 458.095 37.4241   3
   6  -2  -5 547.705 57.2291   1
   6  -2  -4 107.085 47.6029   1
   6  -2  -4 110.351 25.0526   3
  -6   2   4 90.6615 33.3701   2
   6  -2  -3 1632.71 48.6777   3
   6  -2  -3 1505.08 70.9565   1
  -6   2   3 1517.75 55.3136   2
  -6   2   2 1198.87 66.1650   5
  -6   2   2 1191.01 53.6247   2
  -6   2   1 33.7791 46.6984   5
  -6   2   1 15.0119 32.7419   2
  -6   2   0 18.5561 44.9125   5
  -6   2   0 11.8419 37.8823   2
  -6   2  -1 34.0911 45.5336   5
  -6   2  -1-23.7079 38.0248   2
  -6   2  -2 2242.23 88.3853   5
  -6   2  -2 2240.61 79.8483   2
  -6   2  -3 2288.58 91.1119   5
  -6   2  -3 2169.56 86.2082   2
  -6   2  -4 727.601 63.6141   5
  -6   2  -4 685.307 63.5945   2
  -6   2  -5 29.6977 47.8459   2
  -6   2  -5 142.066 54.9517   5
  -6   2  -6 462.337 68.0458   2
  -6   2  -6 616.449 63.4276   5
  -6   2  -7 95.3192 61.7314   2
  -6   2  -7 117.838 52.7237   5
  -6   2  -8 181.824 67.4339   2
  -6   2  -8 194.031 52.9698   5
  -6   2  -9 49.6172 67.9819   2
   6  -1 -14 123.779 47.7319   3
   6  -1 -13-116.798 50.3458   3
   6  -1 -12 38.5080 43.8389   3
   6  -1 -11 191.536 48.9719   3
   6  -1 -10 2258.66 91.5137   3
   6  -1 -10 2021.99 88.4647   1
   6  -1  -9 410.869 53.7464   3
   6  -1  -9 449.281 60.1831   1
   6  -1  -8 155.675 40.6808   3
   6  -1  -8 200.479 50.4118   1
   6  -1  -7 164.150 39.5766   3
   6  -1  -7 91.9411 49.2886   1
   6  -1  -6 575.401 46.5378   3
   6  -1  -6 599.319 60.2188   1
   6  -1  -5 648.917 42.9497   3
   6  -1  -5 651.028 59.4286   1
   6  -1  -4 1398.65 51.4716   3
   6  -1  -4 1351.34 68.5739   1
  -6   1   3 508.437 56.8310   5
  -6   1   3 578.270 36.0395   2
  -6   1   2 8.75592 45.2330   5
  -6   1   2 1.33746 29.2870   2
  -6   1   1 521.793 57.6435   5
  -6   1   1 621.951 43.4618   2
  -6   1   0 11116.1 169.620   5
  -6   1   0 10473.4 135.010   2
  -6   1  -1 11639.5 177.473   5
  -6   1  -1 10963.3 147.540   2
  -6   1  -2 1210.49 75.5879   5
  -6   1  -2 1150.21 61.5236   2
  -6   1  -3 52.2333 42.3617   2
  -6   1  -3-19.9345 54.4368   5
  -6   1  -4 434.022 63.6536   5
  -6   1  -4 428.672 56.9980   2
  -6   1  -5 39.1973 49.7755   2
  -6   1  -5 105.953 51.5778   5
  -6   1  -6 506.266 64.4640   5
  -6   1  -6 476.238 61.2702   2
  -6   1  -7 31.5053 57.2316   2
  -6   1  -7 84.4366 54.7877   5
  -6   1  -8-41.1993 55.5357   2
  -6   1  -8-55.0065 51.5322   5
  -6   1  -9-7.56820 68.0725   2
  -6   1  -9-49.3579 54.7597   5
   6   0 -14-41.2293 56.5742   3
   6   0 -13 69.4341 48.6957   3
   6   0 -12 317.788 51.7625   3
   6   0 -11 1457.82 80.5668   3
   6   0 -10 1274.55 72.9999   3
   6   0 -10 1350.29 75.5376   1
   6   0  -9 1974.44 85.8886   3
  -6   0   9 1904.25 82.0907   6
   6   0  -9 1831.46 84.0837   1
   6   0  -8 516.067 54.8083   3
  -6   0   8 598.673 57.9553   6
   6   0  -8 565.950 59.7151   1
   6   0  -7 432.423 48.2249   3
  -6   0   7 505.065 59.8077   6
   6   0  -7 377.347 52.0006   1
   6   0  -6 502.918 56.9242   1
   6   0  -5-25.9652 47.0785   1
   6   0  -4 511.376 57.4348   1
  -6   0   3-26.8722 44.1142   5
  -6   0   2 857.568 64.8466   5
  -6   0   1 7332.49 141.858   5
  -6   0   0 1513.78 81.9515   5
  -6   0   0 1313.37 54.4207   2
  -6   0  -1 593.223 65.0438   5
  -6   0  -1 601.052 47.6945   2
  -6   0  -2 2342.57 95.9538   5
  -6   0  -2 2355.51 77.5733   2
  -6   0  -3 3577.35 114.078   5
  -6   0  -3 3332.02 95.4898   2
  -6   0  -4 1336.68 83.1623   5
  -6   0  -4 1206.82 70.8570   2
  -6   0  -5 848.764 75.6311   5
  -6   0  -5 658.687 64.1339   2
  -6   0  -6-31.3510 51.2150   2
  -6   0  -6 65.2693 56.8138   5
  -6   0  -7-91.4791 59.8647   2
  -6   0  -7 8.86358 51.8129   5
  -6   0  -8-221.276 60.3159   2
  -6   0  -8-132.823 59.0557   5
   6   1 -14 250.825 57.4544   3
   6   1 -13 37.8886 50.0913   3
   6   1 -12-131.957 40.1186   3
   6   1 -11 83.7952 55.2623   1
   6   1 -11 101.468 46.3064   3
   6   1 -10 1657.90 83.7221   3
  -6  -1  10 1287.18 75.9125   6
   6   1 -10 1469.79 77.6828   1
  -6  -1   9 2.93379 49.5677   6
   6   1  -9-33.8407 45.0935   3
   6   1  -9 28.6477 48.4191   1
   6   1  -8 1843.81 80.0901   3
  -6  -1   8 1655.67 80.1413   6
   6   1  -8 1756.14 78.4290   1
  -6  -1   7 539.793 60.8963   6
   6   1  -7 439.480 57.4052   1
   6   1  -6 32.8314 46.8857   1
  -6  -1   6 13.9850 49.3594   6
   6   1  -5 113.326 48.0720   1
  -6  -1   5 154.189 54.1271   6
  -6  -1   4 217.111 56.5199   6
  -6  -1   4 162.233 47.5916   5
  -6  -1   3 21.2048 49.4171   5
  -6  -1   2 50.1543 48.8355   5
  -6  -1   1 3713.86 109.094   5
  -6  -1   0 7634.02 152.928   5
  -6  -1  -1 3676.36 116.276   5
  -6  -1  -2 4212.16 121.504   5
  -6  -1  -3 2333.60 98.6282   5
  -6  -1  -3 2156.60 79.8268   2
  -6  -1  -4 1158.31 81.6536   5
  -6  -1  -4 1049.75 68.4063   2
  -6  -1  -5 85.9601 45.8563   2
  -6  -1  -5 161.017 60.1021   5
  -6  -1  -6 25.0407 49.7370   2
  -6  -1  -6-10.8167 51.9534   5
  -6  -1  -7-46.5845 53.4366   2
  -6  -1  -7-54.6243 57.6293   5
  -6  -1  -8-45.4471 57.7037   2
  -6  -1  -8-182.483 56.6881   5
   6   2 -13-158.373 43.0577   3
   6   2 -12 240.979 49.3750   3
   6   2 -11 130.317 56.7787   1
   6   2 -11 50.4108 42.1401   3
   6   2 -10 1322.46 81.8795   3
  -6  -2  10 1450.21 87.2504   6
   6   2 -10 1494.52 81.6563   1
  -6  -2   9 385.803 64.4168   6
   6   2  -9 229.348 55.6689   1
   6   2  -8 88.5139 48.4302   1
  -6  -2   8 190.843 62.7541   6
  -6  -2   7 194.368 60.4308   6
   6   2  -7 100.487 49.8451   1
   6   2  -6 200.489 50.4594   1
  -6  -2   6 207.643 62.1116   6
   6   2  -5 69.8278 47.5695   1
  -6  -2   5 46.9696 53.5400   6
  -6  -2   4 81.1965 54.3501   6
  -6  -2   4 90.4626 47.7985   5
  -6  -2   3-11.1388 56.0823   6
  -6  -2   3 6.18729 48.4896   5
  -6  -2   2 104.371 57.5478   6
  -6  -2   2 130.415 54.3289   5
  -6  -2   1 563.793 63.3133   5
  -6  -2   0 301.209 62.5648   5
  -6  -2  -1 781.475 71.6879   5
  -6  -2  -2 219.832 55.3844   5
  -6  -2  -3 71.6027 54.9495   5
  -6  -2  -4 303.383 64.1779   5
  -6  -2  -5 91.9963 57.1965   5
  -6  -2  -6-30.7721 47.7019   5
  -6  -2  -7-73.5694 48.7316   5
  -6  -2  -8 193.058 62.4396   2
   6   3 -13 876.326 71.8629   3
   6   3 -12 653.352 69.3212   3
   6   3 -11 563.822 59.1775   3
  -6  -3  11 659.356 75.5573   6
  -6  -3  10 25.6920 65.3342   6
   6   3 -10 79.3255 51.0502   1
  -6  -3   9 969.185 81.4866   6
   6   3  -9 824.955 66.2068   1
  -6  -3   8 3560.47 117.491   6
   6   3  -8 3249.89 100.123   1
  -6  -3   7 3843.55 120.158   6
   6   3  -7 3626.59 103.503   1
  -6  -3   6 3639.68 115.757   6
   6   3  -6 3133.90 98.0767   1
  -6  -3   5 2746.64 104.143   6
  -6  -3   5 2568.18 92.1068   5
   6   3  -5 2464.79 88.6741   1
  -6  -3   4 2199.71 95.8792   6
  -6  -3   4 2148.54 89.7407   5
  -6  -3   3 6292.74 139.647   6
  -6  -3   3 6157.75 137.061   5
  -6  -3   2 5552.74 132.173   6
  -6  -3   2 5359.77 130.662   5
  -6  -3   1 2925.12 102.225   6
  -6  -3   1 2922.91 106.611   5
  -6  -3   0 1286.34 80.7243   5
  -6  -3  -1-55.0575 54.8418   5
  -6  -3  -2 39.8892 48.7872   5
  -6  -3  -3 142.879 54.2178   5
  -6  -3  -4 58.9234 46.8230   5
  -6  -3  -5 15.0034 54.4714   5
  -6  -3  -6-82.1359 47.6763   5
   6   4 -13 62.8161 54.2374   3
   6   4 -12-21.1091 46.0091   3
  -6  -4  11 262.529 75.7848   6
  -6  -4  10 570.266 81.0501   6
  -6  -4   9 2162.95 106.633   6
  -6  -4   8 504.148 76.1655   6
  -6  -4   7 222.820 73.7024   6
   6   4  -7 269.116 48.9888   1
  -6  -4   6 721.680 79.8282   6
   6   4  -6 741.857 61.7795   1
  -6  -4   5 3368.21 115.958   6
   6   4  -5 2912.38 97.1219   1
  -6  -4   5 3473.81 104.892   5
  -6  -4   4 2619.59 107.503   6
  -6  -4   4 2831.04 96.4254   5
  -6  -4   3 623.915 74.9439   6
  -6  -4   3 418.102 55.5256   5
  -6  -4   2-6.24990 58.6289   6
  -6  -4   2 60.1601 54.1327   5
  -6  -4   1 220.146 63.4541   6
  -6  -4   1 157.131 57.5640   5
  -6  -4   0 35.7029 57.9129   6
  -6  -4   0 93.1189 58.4729   5
  -6  -4  -1 243.145 56.5987   5
  -6  -4  -2 128.716 55.3161   5
  -6  -4  -3 206.259 51.8005   5
  -6  -4  -4 79.2725 48.2657   5
  -6  -4  -5 108.813 55.2247   5
  -6  -4  -6-50.8993 50.0914   5
  -6  -5  12-68.6820 65.5798   6
  -6  -5  11 189.516 80.7284   6
  -6  -5  10-86.4431 64.7638   6
  -6  -5   9-40.5105 63.4540   6
  -6  -5   8-61.6987 72.4989   6
  -6  -5   7-19.1526 65.3112   6
  -6  -5   6 205.536 70.8641   6
   6   5  -5 130.208 49.1651   1
  -6  -5   5 241.674 64.0340   6
  -6  -5   5 117.068 51.5059   5
  -6  -5   4 29.6101 60.9467   6
  -6  -5   4 113.253 48.9730   5
  -6  -5   3 85.2415 61.9449   6
  -6  -5   3-41.3701 53.5359   5
  -6  -5   2 83.2291 63.3466   6
  -6  -5   2 14.8029 49.1088   5
  -6  -5   1 778.418 74.1917   6
  -6  -5   1 720.734 74.5837   5
  -6  -5   0 81.2431 65.7700   6
  -6  -5   0 90.2699 62.3846   5
  -6  -5  -1-30.4215 52.5832   5
  -6  -5  -2 82.4209 54.8910   5
  -6  -5  -3 302.879 59.2789   5
  -6  -5  -4 138.150 56.3285   5
  -6  -5  -5 134.377 54.8803   5
  -6  -6   8-45.6158 67.2157   6
  -6  -6   7 281.596 72.0873   6
  -6  -6   6-32.8658 65.6013   6
  -6  -6   5-50.2509 67.4463   6
  -6  -6   4 57.0131 60.7106   6
  -6  -6   3-18.1062 67.5202   6
  -6  -6   3-31.7078 47.5826   5
  -6  -6   2 318.832 70.0250   6
  -6  -6   2 322.511 53.4226   5
  -6  -6   1 245.999 66.2023   6
  -6  -6   1 91.9021 59.6761   5
  -6  -6   0-19.7665 65.8019   6
  -6  -6   0 97.5547 63.4446   5
  -6  -6   0 61.8107 69.0114   3
  -6  -6  -1-153.843 59.2486   5
  -6  -6  -2 276.184 52.2245   5
  -6  -6  -3 414.592 51.9143   5
  -6  -6  -4 173.776 54.7931   5
  -6  -7   9-67.5995 82.6385   6
  -6  -7   8-32.7357 74.0133   6
  -6  -7   6-57.7889 77.2843   6
  -6  -7   5 245.897 70.9370   6
  -6  -7   4 150.784 66.9824   6
  -6  -7   3 59.7529 61.7670   6
  -6  -7   2 80.3758 75.7633   6
  -6  -7   1 184.154 82.6188   6
  -6  -7   1-116.777 47.7015   5
  -6  -7   0 346.382 66.4464   5
  -6  -7   0 322.186 82.6487   3
  -6  -7  -1 298.249 90.3323   3
  -6  -7  -1 199.593 52.9544   5
  -6  -7  -2 128.540 58.3194   5
  -6  -7  -3 387.055 54.1786   5
  -6  -8   8 870.044 99.5889   6
  -6  -8   7 1004.33 94.9575   6
  -6  -8   6 67.5342 71.2804   6
  -6  -8   4-48.7709 74.8155   6
  -6  -8   3-21.4392 79.1092   6
  -6  -8   2-100.571 76.0719   6
  -6  -8   1 324.337 95.2620   6
  -6  -8   0 300.393 106.261   3
  -6  -8  -1 158.644 80.3354   3
  -6  -8  -2-224.922 70.2937   5
  -6  -9   4-36.2509 75.1003   6
  -6  -9   3 139.562 77.2882   6
  -6  -9   2-68.8221 90.3577   6
  -7  11   6 478.831 87.8091   2
  -7  11   5 1.25460 69.3690   2
  -7  11   4-37.4669 76.8430   2
  -7  11   3-35.7907 66.9352   2
  -7  11   2 87.9003 66.5022   2
  -7  11   1-24.4688 71.2972   2
  -7  11   0 49.3961 66.5750   2
  -7  11  -1 56.4961 58.3078   2
  -7  11  -2-32.6821 74.6492   2
  -7  10   8 0.50710 65.2955   2
  -7  10   7 149.481 74.1928   2
  -7  10   6 168.999 64.6234   2
  -7  10   5 317.427 66.4321   2
  -7  10   4 113.767 70.5882   2
  -7  10   3 514.552 79.9075   2
  -7  10   2 246.742 69.2879   2
  -7  10   1 197.505 71.1516   2
  -7  10   0 977.205 88.2741   2
  -7  10  -1-147.973 63.4725   2
  -7  10  -2 17.9699 55.6403   2
  -7  10  -3 91.9706 68.8154   2
  -7  10  -4-77.8693 69.7580   2
   7  -9 -10 403.957 69.3280   3
  -7   9   9 6.87708 59.4386   2
   7  -9  -9 110.977 47.3287   3
  -7   9   8-118.469 61.5365   2
  -7   9   7 45.5380 66.3157   2
  -7   9   6 463.021 70.9934   2
  -7   9   5 369.186 68.9103   2
  -7   9   4 613.822 73.3277   2
  -7   9   3 471.938 73.3906   2
  -7   9   2 300.214 69.8462   2
  -7   9   1 150.679 67.1255   2
  -7   9   0 41.7564 61.2563   2
  -7   9  -1 245.814 63.7035   2
  -7   9  -2 287.505 74.2364   2
  -7   9  -3 133.501 61.6204   2
  -7   9  -4 410.483 71.7415   2
  -7   9  -5 634.986 92.6361   2
   7  -8 -11 1299.57 85.7329   3
   7  -8 -10-83.8020 47.5250   3
  -7   8   9 50.8405 71.0053   2
  -7   8   8-41.7544 66.6681   2
   7  -8  -8-32.1847 44.1112   3
  -7   8   7 127.442 59.2339   2
  -7   8   6-27.6749 54.1154   2
  -7   8   5 90.1907 62.3285   2
  -7   8   4 78.0525 53.4654   2
  -7   8   3 22.3343 63.9542   2
  -7   8   2 202.223 65.2408   2
  -7   8   1 55.8087 62.9391   2
  -7   8   0 504.954 62.6125   2
  -7   8  -1 130.511 61.2527   2
  -7   8  -2 137.027 65.1709   2
  -7   8  -3 45.0470 62.4177   2
  -7   8  -4 31.7180 62.8773   2
  -7   8  -5 214.090 79.0069   2
  -7   8  -6-39.4427 75.3593   2
   7  -7 -11 418.240 67.3821   3
   7  -7 -10 301.504 60.0617   3
  -7   7   9 148.814 63.5051   2
   7  -7  -9 292.176 55.6032   3
   7  -7  -8 466.392 52.4404   3
  -7   7   8 210.345 55.6889   2
  -7   7   7 53.2747 58.6628   2
   7  -7  -7 49.1167 53.8633   1
  -7   7   6 73.8445 55.9770   2
   7  -7  -6-8.26931 44.5726   1
   7  -7  -5 97.2631 48.2572   1
  -7   7   5 27.2393 53.4031   2
   7  -7  -4-12.9817 44.8271   1
  -7   7   4 20.4656 52.9470   2
   7  -7  -3 76.3503 44.3755   1
  -7   7   3-9.30860 58.4797   2
  -7   7   2 1355.78 80.8679   2
  -7   7   1 1278.98 83.6971   2
  -7   7   0 455.727 69.6245   2
  -7   7  -1 265.630 61.8938   2
  -7   7  -2 224.163 62.0007   2
  -7   7  -3 57.9465 65.8109   2
  -7   7  -4 624.838 81.3883   2
  -7   7  -5-103.392 66.9546   2
  -7   7  -6-63.4243 75.0450   2
   7  -6 -12-76.6046 47.1433   3
   7  -6 -11 4.91279 43.7835   3
   7  -6 -10 53.2871 44.1403   3
  -7   6   9 97.3956 61.0472   2
   7  -6  -9-11.6229 36.4725   3
  -7   6   8-12.1443 50.1069   2
   7  -6  -8-2.88077 52.3868   1
   7  -6  -8-30.4186 37.4705   3
   7  -6  -7 731.294 52.9627   3
  -7   6   7 856.589 69.4182   2
   7  -6  -7 769.041 68.5945   1
  -7   6   6 29.0134 50.8402   2
   7  -6  -6 85.6455 43.9840   1
   7  -6  -5 20.8191 42.7177   1
  -7   6   5-8.92343 55.9532   2
   7  -6  -4 334.659 53.9961   1
  -7   6   4 265.595 67.5182   2
   7  -6  -3 801.030 69.6543   1
  -7   6   3 836.350 69.8085   2
   7  -6  -2 10249.5 161.541   1
  -7   6   2 10230.3 169.609   2
   7  -6  -1 2412.35 90.4201   1
  -7   6   1 2603.33 97.1243   2
   7  -6   0 2262.80 84.2666   1
  -7   6   0 2365.91 94.7907   2
  -7   6  -1 1212.01 82.1522   2
  -7   6  -2 319.810 66.9041   2
  -7   6  -3 397.519 63.0752   2
  -7   6  -4 13.3663 62.2645   2
  -7   6  -5 105.135 55.0541   2
  -7   6  -6 136.310 54.9385   2
  -7   6  -7 67.1184 60.3075   2
   7  -5 -12 597.787 62.5803   3
   7  -5 -11 274.207 52.1004   3
   7  -5 -10 144.597 45.6323   3
  -7   5   9 17.9307 55.7706   2
   7  -5  -9 16.0727 51.4950   1
   7  -5  -9 18.5129 39.0975   3
   7  -5  -8 190.401 56.7702   1
  -7   5   8 173.110 56.1851   2
   7  -5  -8 197.304 45.5296   3
  -7   5   7 84.6538 47.3983   2
   7  -5  -7 151.446 40.3077   3
   7  -5  -7 204.249 57.6130   1
  -7   5   6 27.0860 49.6728   2
   7  -5  -6-43.0095 50.0235   1
   7  -5  -5 217.332 50.1852   1
  -7   5   5 178.348 52.8149   2
  -7   5   4 992.209 69.0763   2
   7  -5  -4 1020.95 70.7779   1
   7  -5  -3 1645.88 77.6368   1
  -7   5   3 1745.36 78.5689   2
   7  -5  -2 4507.67 116.471   1
  -7   5   2 4524.75 113.522   2
   7  -5  -1 2008.96 85.0272   1
  -7   5   1 2145.17 86.0001   2
  -7   5   0 1662.62 74.5769   5
  -7   5   0 1748.17 81.7684   2
  -7   5  -1 337.749 49.8955   5
  -7   5  -1 321.460 57.0425   2
  -7   5  -2 69.8498 47.0439   5
  -7   5  -2 43.6827 53.2034   2
  -7   5  -3 21.7033 53.2163   2
  -7   5  -4 58.7689 51.7100   2
  -7   5  -5-154.892 57.5147   2
  -7   5  -6-15.4519 65.3462   2
  -7   5  -7-66.0768 56.1576   2
   7  -4 -13 139.555 46.3424   3
   7  -4 -12 199.041 55.7390   3
   7  -4 -11 161.949 46.2243   3
   7  -4 -10 76.0009 48.1959   3
   7  -4  -9 882.823 63.1180   3
   7  -4  -9 919.057 78.3701   1
   7  -4  -8 3817.90 102.406   3
  -7   4   8 3821.08 106.773   2
   7  -4  -8 3865.99 116.651   1
  -7   4   7 136.647 49.6476   2
   7  -4  -7 35.8405 36.5004   3
   7  -4  -7 59.6175 55.7660   1
  -7   4   6 88.2766 45.9098   2
   7  -4  -6 0.11823 31.3464   3
   7  -4  -6 77.4045 51.3746   1
   7  -4  -5-30.4966 51.2591   1
  -7   4   5 17.1488 39.2907   2
   7  -4  -4 88.6123 47.2293   1
  -7   4   4 20.6126 45.0015   2
   7  -4  -3 2246.44 87.7637   1
  -7   4   3 2031.91 76.3047   2
   7  -4  -2 204.892 55.0304   1
  -7   4   2 291.829 48.6612   2
  -7   4   1 1091.41 71.1498   5
  -7   4   1 1167.01 67.9596   2
  -7   4   0 793.967 63.8174   5
  -7   4   0 925.520 66.9761   2
  -7   4  -1 811.817 61.4278   5
  -7   4  -1 893.483 68.4521   2
  -7   4  -2 108.566 50.4917   5
  -7   4  -2 165.425 52.2573   2
  -7   4  -3 69.7638 50.3022   5
  -7   4  -3 23.7349 52.3194   2
  -7   4  -4-2.82661 53.9632   5
  -7   4  -4-12.8983 56.1710   2
  -7   4  -5 1.95190 49.8024   2
  -7   4  -6 200.519 59.8736   2
  -7   4  -7 273.965 75.5305   2
   7  -3 -12 169.965 48.1483   3
   7  -3 -11 590.805 61.9769   3
   7  -3 -10 1515.18 78.8288   3
   7  -3 -10 1128.59 81.4217   1
   7  -3  -9-19.1390 56.5292   1
   7  -3  -9 19.5377 41.3533   3
   7  -3  -8 103.676 46.1161   3
   7  -3  -8 246.725 59.2539   1
   7  -3  -7 1133.66 58.0133   3
   7  -3  -7 1161.51 74.8201   1
   7  -3  -6 988.075 50.2893   3
   7  -3  -6 889.814 70.9665   1
  -7   3   5 491.667 47.8776   2
   7  -3  -5 434.202 63.6925   1
   7  -3  -4 460.187 60.5205   1
  -7   3   4 438.672 47.9839   2
   7  -3  -3 2760.77 95.5090   1
  -7   3   3 2842.60 81.9366   2
  -7   3   2 2250.17 89.2967   5
  -7   3   2 2315.81 77.7917   2
  -7   3   1 3697.57 108.486   5
  -7   3   1 4151.24 101.460   2
  -7   3   0 2474.99 92.6540   5
  -7   3   0 2699.05 89.3680   2
  -7   3  -1-12.3124 52.1356   5
  -7   3  -1 35.4661 46.8326   2
  -7   3  -2 25.7277 52.7957   5
  -7   3  -2 44.3672 46.4457   2
  -7   3  -3 38.2462 53.8925   5
  -7   3  -3 82.7658 48.8939   2
  -7   3  -4 87.6938 56.5376   5
  -7   3  -4 251.295 54.3627   2
  -7   3  -5 181.820 62.4469   2
  -7   3  -5 165.356 55.9855   5
  -7   3  -6 293.974 65.5946   2
  -7   3  -6 238.989 60.5891   5
  -7   3  -7 708.658 86.4920   2
   7  -2 -13 375.558 58.0882   3
   7  -2 -12 332.334 51.3690   3
   7  -2 -11 139.035 45.3079   3
   7  -2 -10 174.351 63.9529   1
   7  -2 -10 108.402 46.1397   3
   7  -2  -9 63.3608 46.0519   3
   7  -2  -9 157.655 61.8503   1
   7  -2  -8 437.119 49.6735   3
   7  -2  -8 267.701 55.3167   1
   7  -2  -7 801.260 52.1122   3
   7  -2  -7 631.676 69.5601   1
   7  -2  -6 170.595 50.5423   1
   7  -2  -6 190.800 33.4955   3
   7  -2  -5 365.061 36.8881   3
   7  -2  -5 303.191 55.2196   1
   7  -2  -4 2187.51 90.2151   1
   7  -2  -3 9811.23 168.312   1
  -7   2   2 3784.89 112.304   5
  -7   2   2 3613.90 87.8217   2
  -7   2   1 1061.14 73.4598   5
  -7   2   1 975.654 57.7777   2
  -7   2   0 560.101 62.5251   5
  -7   2   0 494.888 50.2755   2
  -7   2  -1 524.607 65.1723   5
  -7   2  -1 545.600 52.7766   2
  -7   2  -2 477.709 60.9642   5
  -7   2  -2 441.163 53.4151   2
  -7   2  -3-58.8969 43.8242   2
  -7   2  -3 1.97902 55.9241   5
  -7   2  -4 96.3354 53.0529   2
  -7   2  -4 70.8208 55.0469   5
  -7   2  -5 15.5980 51.5991   2
  -7   2  -5 79.8370 55.2064   5
  -7   2  -6-40.5474 53.9361   2
  -7   2  -6-96.0694 56.1045   5
  -7   2  -7 128.616 69.3281   2
  -7   2  -7 216.594 48.1743   5
   7  -1 -12-112.404 42.1439   3
   7  -1 -11 13.5662 57.5575   1
   7  -1 -11 148.330 52.2554   3
   7  -1 -10 172.167 54.6555   1
   7  -1 -10 180.517 49.3502   3
   7  -1  -9 1117.57 68.7382   3
   7  -1  -9 1228.50 74.9282   1
   7  -1  -8 128.496 41.8973   3
   7  -1  -8 125.115 60.1265   1
   7  -1  -7 119.631 56.2668   1
   7  -1  -7 148.832 39.3952   3
   7  -1  -6 92.4888 52.6606   1
   7  -1  -6 19.3150 33.4631   3
   7  -1  -5 532.162 39.8412   3
   7  -1  -5 547.185 63.1740   1
   7  -1  -4 55.2045 52.2916   1
  -7   1   3 323.548 61.5167   5
  -7   1   2 1015.22 78.0586   5
  -7   1   1 2545.40 102.037   5
  -7   1   0 1285.17 81.4560   5
  -7   1  -1 621.231 70.6010   5
  -7   1  -2 230.124 57.2342   5
  -7   1  -2 268.381 50.0685   2
  -7   1  -3 19.2035 42.0069   2
  -7   1  -3 46.9142 53.5282   5
  -7   1  -4 126.505 48.8838   2
  -7   1  -4 141.418 60.2093   5
  -7   1  -5 275.838 58.9574   2
  -7   1  -5 215.722 58.7495   5
  -7   1  -6 47.5940 44.6054   2
  -7   1  -6 408.401 60.3950   5
  -7   1  -7-118.491 46.0083   2
  -7   1  -7 436.330 61.7519   5
   7   0 -13 275.780 47.5474   3
   7   0 -12 187.447 47.8328   3
   7   0 -11 104.545 65.2961   1
   7   0 -11-105.006 43.5086   3
   7   0 -10 666.404 63.9233   3
   7   0 -10 665.793 67.4512   1
   7   0  -9 870.123 64.1526   3
   7   0  -9 559.535 68.1847   1
   7   0  -8-9.79656 42.3174   3
   7   0  -8 68.6780 49.4814   1
   7   0  -7 22.1521 48.8093   1
   7   0  -7-154.227 38.1695   3
   7   0  -6 50.4802 50.7517   1
   7   0  -5 29.6793 52.0994   1
   7   0  -4 691.643 69.3570   1
  -7   0   4 767.187 73.2112   5
  -7   0   3 2108.33 94.0790   5
  -7   0   2 2547.77 102.692   5
  -7   0   1 4725.20 131.709   5
  -7   0   0 4477.70 129.897   5
  -7   0  -1 133.136 62.4739   5
  -7   0  -2 256.166 61.5658   5
  -7   0  -3 420.099 64.3698   5
  -7   0  -4 17.6724 63.2138   5
  -7   0  -5 792.242 74.5666   5
  -7   0  -5 558.936 65.0760   2
  -7   0  -6 419.016 61.2841   2
  -7   0  -6 340.572 60.8514   5
  -7   0  -7 97.6251 59.7083   2
  -7   0  -7 477.829 60.0742   5
   7   1 -13 28.6120 50.7379   3
   7   1 -12 117.204 46.9463   3
   7   1 -11 1191.95 74.2806   3
   7   1 -11 696.501 70.4952   1
   7   1 -10 2210.71 94.9223   3
  -7  -1  10 2106.52 100.191   6
   7   1 -10 2065.72 98.0600   1
   7   1  -9 495.640 61.4726   3
  -7  -1   9 495.837 73.5162   6
   7   1  -9 414.831 63.5565   1
  -7  -1   8 146.199 59.4934   6
   7   1  -8 33.9453 49.7966   1
  -7  -1   7-17.9136 61.3880   6
   7   1  -7 69.9833 47.8740   1
   7   1  -6 18.8941 46.8363   1
   7   1  -5 203.864 53.2554   1
  -7  -1   4 13.4098 52.0870   5
  -7  -1   3 129.966 56.6363   5
  -7  -1   2 1429.02 82.8363   5
  -7  -1   1 741.580 77.7437   5
  -7  -1   0 18.2293 57.2007   5
  -7  -1  -1-35.7274 58.7225   5
  -7  -1  -2 85.6439 65.6279   5
  -7  -1  -3 6.86564 66.6720   5
  -7  -1  -4 251.088 61.4316   5
  -7  -1  -5 304.890 62.8128   5
  -7  -1  -6 268.258 52.7659   5
   7   2 -13 50.8248 49.3988   3
   7   2 -12 223.656 56.6129   1
   7   2 -12 460.106 54.8316   3
   7   2 -11 210.234 63.8452   1
   7   2 -11 149.310 49.1020   3
   7   2 -10 489.345 56.9811   3
  -7  -2  10 296.994 72.0386   6
   7   2 -10 429.321 61.5513   1
  -7  -2   9 1560.89 96.0586   6
   7   2  -9 1868.94 92.0106   1
  -7  -2   8 787.680 78.2340   6
   7   2  -8 908.136 76.5556   1
  -7  -2   7 3041.47 115.229   6
   7   2  -7 2986.59 106.467   1
  -7  -2   6 3228.36 116.528   6
   7   2  -6 3295.96 111.578   1
  -7  -2   5 1793.76 98.0011   6
   7   2  -5 1615.49 87.6449   1
  -7  -2   4 417.311 73.6926   6
  -7  -2   4 289.647 59.2756   5
  -7  -2   3 52.2012 55.3632   5
  -7  -2   2 606.915 68.3874   5
  -7  -2   1 537.765 71.5499   5
  -7  -2   0 211.254 59.0498   5
  -7  -2  -1 145.080 65.7314   5
  -7  -2  -2 53.8431 63.9696   5
  -7  -2  -3 2.66170 60.9761   5
  -7  -2  -4 181.698 61.0727   5
  -7  -2  -5 484.641 66.3537   5
   7   3 -12 325.816 51.8306   3
  -7  -3  11 538.262 77.6692   6
   7   3 -11 426.229 56.3423   3
  -7  -3  10 128.281 74.1370   6
   7   3 -10 10.7371 47.6548   1
  -7  -3   9 1754.10 101.063   6
   7   3  -9 1629.15 86.7697   1
  -7  -3   8 2464.07 113.979   6
   7   3  -8 2057.07 91.6870   1
  -7  -3   7 1948.25 104.234   6
   7   3  -7 1600.94 84.9453   1
  -7  -3   6 1171.64 92.2838   6
   7   3  -6 1149.93 76.5713   1
  -7  -3   5 421.862 70.8944   6
   7   3  -5 504.231 64.3582   1
  -7  -3   5 583.682 67.5668   5
  -7  -3   4 32.8431 59.6109   6
  -7  -3   4 36.0904 46.9773   5
  -7  -3   3 110.917 67.8504   6
  -7  -3   3-8.99813 56.7881   5
  -7  -3   2 491.554 66.0058   5
  -7  -3   1 498.007 72.6540   5
  -7  -3   0-1.78228 60.0446   5
  -7  -3  -1 80.9352 65.9115   5
  -7  -3  -2 23.2498 70.4755   5
  -7  -3  -3-9.86852 54.2133   5
  -7  -3  -4 164.442 54.6737   5
  -7  -4  11 327.853 79.2699   6
  -7  -4  10 60.5737 72.4615   6
  -7  -4   9 83.8875 74.5314   6
  -7  -4   8 121.675 77.9523   6
   7   4  -7-36.2934 54.8024   1
  -7  -4   7 150.786 76.5538   6
   7   4  -6 216.953 60.0863   1
  -7  -4   6 267.064 74.0448   6
  -7  -4   5 120.211 72.3096   6
   7   4  -5-25.7518 57.1603   1
  -7  -4   5 48.9826 50.3762   5
  -7  -4   4 335.771 72.9987   6
  -7  -4   4 250.856 58.8842   5
  -7  -4   3 568.076 77.3302   6
  -7  -4   3 401.691 64.6580   5
  -7  -4   2 175.715 73.0054   6
  -7  -4   2 140.739 57.8239   5
  -7  -4   1 81.7255 51.5457   5
  -7  -4   0-21.2939 66.9877   5
  -7  -4  -1 109.044 59.5129   5
  -7  -4  -2 56.7668 71.5589   5
  -7  -4  -3-100.937 48.1728   5
  -7  -5  12-48.1879 86.6780   6
  -7  -5  11-38.3182 80.4632   6
  -7  -5  10-23.9214 80.4475   6
  -7  -5   9-52.5422 67.5205   6
  -7  -5   8 37.2281 79.2902   6
  -7  -5   7 75.7171 77.1835   6
  -7  -5   6 97.0550 79.0415   6
   7   5  -5-58.9883 51.6785   1
  -7  -5   5-79.2286 54.3953   5
  -7  -5   4 247.427 73.2976   6
  -7  -5   4 303.885 62.2555   5
  -7  -5   3 761.323 89.4176   6
  -7  -5   3 557.781 70.3293   5
  -7  -5   2 657.737 79.7642   6
  -7  -5   2 737.008 80.5999   5
  -7  -5   1 179.817 70.2929   6
  -7  -5   1 180.366 63.9723   5
  -7  -5   0-231.039 57.7144   5
  -7  -5  -1 261.407 66.1380   5
  -7  -5  -2 257.552 82.2714   5
  -7  -6  10 36.8755 83.8552   6
  -7  -6   9 41.5050 90.8755   6
  -7  -6   8 38.5457 72.9028   6
  -7  -6   7 24.9360 72.5823   6
  -7  -6   6 184.180 75.9587   6
  -7  -6   5 210.077 85.2045   6
  -7  -6   4 293.606 85.8889   6
  -7  -6   3 41.4957 74.5599   6
  -7  -6   3-16.3239 47.6792   5
  -7  -6   2 35.9570 74.5409   6
  -7  -6   2 268.174 62.4042   5
  -7  -6   1 98.4245 79.2104   6
  -7  -6   1 37.3928 53.4508   5
  -7  -6   0-237.033 63.4475   5
  -7  -6  -1 259.810 82.3644   5
  -7  -7   7 152.804 90.3556   6
  -7  -7   6-18.1801 72.9150   6
  -7  -7   5 12.6452 88.5063   6
  -7  -7   4 184.909 90.5819   6
  -7  -7   3 392.822 94.1544   6
  -7  -7   2 127.994 75.4936   6
  -7  -7   1 28.1237 70.8956   6
  -7  -7   1 34.4712 67.2720   5
  -8  10   7 360.556 74.4146   2
  -8  10   6 510.452 86.7992   2
  -8  10   5 134.167 58.3559   2
  -8  10   4 186.741 71.2677   2
  -8  10   3 254.686 66.2698   2
  -8  10   2 179.103 74.1888   2
  -8  10   1 138.891 73.0237   2
  -8  10   0-3.74437 65.3260   2
  -8  10  -1-53.6802 66.7474   2
  -8   9   9-15.7893 75.1919   2
  -8   9   8-68.5078 68.4190   2
  -8   9   7 62.4703 60.0723   2
  -8   9   6 317.931 63.4759   2
  -8   9   5 310.298 65.4322   2
  -8   9   4 241.265 73.7182   2
  -8   9   3 32.2213 76.0267   2
  -8   9   2 69.5505 56.2376   2
  -8   9   1 194.473 69.6649   2
  -8   9   0 119.319 70.1715   2
  -8   9  -1 79.2489 56.4876   2
  -8   9  -2-95.3642 72.1438   2
  -8   9  -3 65.6625 78.9447   2
  -8   8  10 124.946 69.1017   2
  -8   8   9 53.1818 57.4789   2
  -8   8   8 27.7429 52.6414   2
  -8   8   7 16.0514 56.0166   2
   8  -8  -7 92.6413 48.1811   1
  -8   8   6 25.2937 65.4006   2
   8  -8  -6-22.8652 45.0638   1
  -8   8   5-148.443 59.8594   2
  -8   8   4 149.218 69.6120   2
  -8   8   3 161.307 65.0390   2
  -8   8   2 138.439 68.5519   2
  -8   8   1 582.621 69.4186   2
  -8   8   0 154.993 66.6208   2
  -8   8  -1 61.0019 63.1495   2
  -8   8  -2 227.105 71.0327   2
  -8   8  -3 258.778 64.2092   2
  -8   8  -4 769.439 93.2448   2
   8  -7 -11 778.737 68.2843   3
  -8   7  10 26.6075 58.5388   2
  -8   7   9 43.0151 59.8083   2
  -8   7   8 4.76507 61.4939   2
   8  -7  -8-9.09891 56.0456   1
  -8   7   7-26.3556 53.2537   2
   8  -7  -7-9.76538 55.6860   1
  -8   7   6 1108.60 83.0430   2
   8  -7  -6 994.410 70.1519   1
  -8   7   5 1063.29 76.5893   2
   8  -7  -5 1047.99 74.6513   1
  -8   7   4 1769.21 103.126   2
   8  -7  -4 1598.20 80.8711   1
   8  -7  -3 1065.87 72.3932   1
  -8   7   3 1201.54 83.2270   2
  -8   7   2 803.842 73.6690   2
  -8   7   1 136.799 59.8536   2
  -8   7   0 67.9531 57.5718   2
  -8   7  -1 104.573 66.1741   2
  -8   7  -2 88.4096 54.9937   2
  -8   7  -3 28.8773 65.8550   2
  -8   7  -4 7.84429 56.8692   2
  -8   7  -5 99.4862 73.2514   2
   8  -6 -12 507.095 60.8375   3
   8  -6 -11 20.0666 53.7953   3
  -8   6  10-76.2930 61.6452   2
   8  -6 -10 100.768 41.1199   3
  -8   6   9-19.8177 51.6924   2
   8  -6  -9 12.6272 51.2174   1
  -8   6   8 611.944 72.2599   2
   8  -6  -8 496.584 69.4058   1
  -8   6   7 1379.60 85.3989   2
   8  -6  -7 1527.91 88.3176   1
  -8   6   6 1038.82 76.4285   2
   8  -6  -6 915.937 72.6182   1
  -8   6   5 1408.24 82.6253   2
   8  -6  -5 1223.53 74.8177   1
  -8   6   4 1234.51 81.5456   2
   8  -6  -4 1151.94 73.5406   1
   8  -6  -3 1811.27 88.0562   1
  -8   6   3 1866.57 89.4323   2
   8  -6  -2 3616.76 114.849   1
  -8   6   2 3740.48 119.255   2
   8  -6  -1 91.9396 55.9162   1
  -8   6   1 310.066 61.0190   2
   8  -6   0-14.0530 50.0564   1
  -8   6   0 33.9325 55.8889   2
  -8   6  -1 8.27323 56.7323   2
  -8   6  -2-14.6814 58.4830   2
  -8   6  -3 103.624 65.0932   2
  -8   6  -4-76.6118 63.2260   2
  -8   6  -5 95.2169 75.2482   2
   8  -5 -12 970.746 68.4690   3
   8  -5 -11 393.467 44.2793   3
   8  -5 -10 28.0876 59.4305   1
   8  -5 -10 93.9663 42.3104   3
   8  -5  -9 13.4896 60.5848   1
   8  -5  -9 42.0347 40.7379   3
   8  -5  -8 337.727 57.5202   1
  -8   5   7 122.413 53.1453   2
   8  -5  -7 85.8967 58.4341   1
  -8   5   6 265.057 54.4010   2
   8  -5  -6 306.341 65.4370   1
  -8   5   5 829.838 67.9406   2
   8  -5  -5 807.048 74.0955   1
   8  -5  -4 1336.71 81.0103   1
  -8   5   4 1168.76 74.7263   2
   8  -5  -3 14.2733 54.5006   1
  -8   5   3 42.6117 51.8001   2
   8  -5  -2 308.017 60.0939   1
  -8   5   2 310.558 54.8604   2
   8  -5  -1 54.7063 54.4680   1
  -8   5   1 176.083 55.6159   2
  -8   5   0 41.3833 54.6492   5
  -8   5   0 36.9144 52.1673   2
  -8   5  -1-19.3615 50.4192   5
  -8   5  -1 71.7740 56.0870   2
  -8   5  -2 96.5711 61.5107   2
  -8   5  -3-202.691 58.5902   2
  -8   5  -4-70.5122 67.0660   2
  -8   5  -5 91.0019 68.9250   2
  -8   5  -6-120.885 73.1550   2
   8  -4 -12 24.2341 50.3200   3
   8  -4 -11-171.658 52.4158   3
   8  -4 -10 222.871 64.8766   1
   8  -4 -10-130.319 44.4777   3
   8  -4  -9 1083.35 63.8743   3
   8  -4  -9 1312.06 87.9988   1
   8  -4  -8 98.6572 64.1488   1
   8  -4  -7 34.7442 60.4581   1
   8  -4  -6 1269.20 83.0332   1
   8  -4  -5 2616.17 103.519   1
   8  -4  -4 1482.21 87.7306   1
  -8   4   4 1310.41 70.0480   2
   8  -4  -3 1539.94 87.5764   1
  -8   4   3 1547.86 77.9077   2
   8  -4  -2-30.0271 56.0436   1
  -8   4   2 25.6359 39.5776   2
  -8   4   1 143.942 56.7513   5
  -8   4   1 67.6980 44.3733   2
  -8   4   0 108.046 51.7715   5
  -8   4   0 104.316 47.4547   2
  -8   4  -1 401.826 63.6548   5
  -8   4  -1 323.169 58.8255   2
  -8   4  -2 80.5137 52.1222   5
  -8   4  -2 59.7573 56.2038   2
  -8   4  -3-111.578 55.3573   5
  -8   4  -3 14.8322 53.7198   2
  -8   4  -4 263.420 63.5853   2
  -8   4  -5 118.169 64.7529   2
  -8   4  -6-57.4966 62.3101   2
   8  -3 -12-101.026 50.1991   3
   8  -3 -11 250.704 74.5919   1
   8  -3 -11 151.447 45.3056   3
   8  -3 -10 32.4696 57.3791   1
   8  -3 -10 135.508 45.9397   3
   8  -3  -9 537.316 50.2825   3
   8  -3  -9 466.274 73.0959   1
   8  -3  -8 2520.00 86.3643   3
   8  -3  -8 2504.36 108.510   1
   8  -3  -7 1294.69 89.3732   1
   8  -3  -6 2799.97 111.074   1
   8  -3  -5 2050.28 96.2287   1
   8  -3  -4 1108.66 78.6112   1
   8  -3  -3 419.572 63.6457   1
  -8   3   2 528.550 68.8740   5
  -8   3   1 60.9900 57.2444   5
  -8   3   0 114.386 56.3665   5
  -8   3   0 49.0207 42.5935   2
  -8   3  -1-30.5141 55.4774   5
  -8   3  -1 3.09176 49.4647   2
  -8   3  -2-20.2620 48.8010   5
  -8   3  -2-25.8286 50.3036   2
  -8   3  -3 153.718 59.6940   5
  -8   3  -3 193.956 53.2591   2
  -8   3  -4 154.658 67.8779   5
  -8   3  -4 154.863 61.2540   2
  -8   3  -5 156.132 71.0422   5
  -8   3  -5 235.697 59.2207   2
  -8   3  -6 234.164 66.4478   2
   8  -2 -11-36.3287 62.9011   1
   8  -2 -10 62.9243 67.2129   1
   8  -2 -10-104.277 46.3668   3
   8  -2  -9 343.530 49.6077   3
   8  -2  -9 118.511 66.3928   1
   8  -2  -8 1115.73 61.2413   3
   8  -2  -8 1054.62 85.7674   1
   8  -2  -7 221.125 70.4602   1
   8  -2  -6-1.72212 58.5988   1
   8  -2  -5 1229.00 82.5846   1
   8  -2  -4 6155.71 148.184   1
   8  -2  -3 3268.47 115.338   1
  -8   2   2 1502.58 87.5938   5
  -8   2   1 312.443 58.7669   5
  -8   2   0 114.378 55.7072   5
  -8   2  -1 306.226 70.7033   5
  -8   2  -2 78.9557 57.6780   5
  -8   2  -3 20.5678 62.8667   5
  -8   2  -3 89.9276 46.4717   2
  -8   2  -4 66.6745 61.0067   5
  -8   2  -4 74.5662 51.5392   2
  -8   2  -5 118.318 54.0341   2
  -8   2  -5 65.6318 70.7349   5
  -8   2  -6 470.069 65.6037   2
  -8   2  -6 483.096 80.7502   5
   8  -1 -12 95.1340 54.3646   1
   8  -1 -12-35.2208 47.8678   3
   8  -1 -11 73.7526 58.4064   1
   8  -1 -11 371.386 49.9246   3
   8  -1 -10 118.431 44.5411   3
   8  -1 -10 236.856 67.4523   1
   8  -1  -9 433.275 46.1613   3
   8  -1  -9 584.884 73.7272   1
   8  -1  -8 466.993 48.0853   3
   8  -1  -8 351.106 64.6174   1
   8  -1  -7 546.950 47.5714   3
   8  -1  -7 396.938 63.8282   1
   8  -1  -6 1321.09 87.4714   1
   8  -1  -5 3073.46 117.173   1
   8  -1  -4 3187.82 116.968   1
  -8   1   3 1293.11 85.7042   5
  -8   1   2 4.05465 60.9166   5
  -8   1   1 1018.44 81.5381   5
  -8   1   0 340.507 69.7446   5
  -8   1  -1 155.199 62.7083   5
  -8   1  -2-12.7138 65.5572   5
  -8   1  -3 27.2808 50.4212   5
  -8   1  -4 106.778 70.0210   5
  -8   1  -5 186.421 67.3214   5
   8   0 -12-24.7378 70.5583   1
   8   0 -12 162.913 56.0727   3
   8   0 -11 303.903 45.5344   3
   8   0 -11 532.433 79.3847   1
   8   0 -10 997.618 66.7207   3
   8   0 -10 928.843 80.8819   1
   8   0  -9 1107.67 70.5320   3
   8   0  -9 836.037 82.6188   1
   8   0  -8-48.9394 52.1085   1
   8   0  -8-101.477 38.1848   3
   8   0  -7 106.385 59.2776   1
   8   0  -6 100.510 64.5127   1
   8   0  -5 74.9685 55.9795   1
   8   0  -4 11.5173 53.2364   1
  -8   0   4 115.948 57.4515   5
  -8   0   3 24.9405 62.4870   5
  -8   0   2 221.914 56.6958   5
  -8   0   1 303.482 65.9141   5
  -8   0   0 705.062 75.8928   5
  -8   0  -1 552.746 78.4768   5
  -8   0  -2 4.21216 63.9078   5
  -8   0  -3-95.7290 64.3750   5
  -8   0  -4 240.539 72.1064   5
  -8   0  -5 313.087 77.3516   5
   8   1 -12 499.482 66.9513   1
   8   1 -12 528.369 58.5876   3
   8   1 -11 1271.46 77.3042   3
   8   1 -11 702.451 71.1554   1
   8   1 -10 1152.87 76.3522   3
   8   1 -10 888.815 75.3850   1
   8   1  -9 3288.63 108.117   3
   8   1  -9 3279.67 120.629   1
   8   1  -8 592.726 55.7161   3
   8   1  -8 318.129 66.9301   1
   8   1  -7 121.189 56.8938   1
   8   1  -6-27.6913 60.7069   1
   8   1  -5 139.025 64.4275   1
  -8  -1   4 14.7080 55.2914   5
  -8  -1   3 215.294 65.7298   5
  -8  -1   2 117.157 55.9639   5
  -8  -1   1-26.1396 59.6265   5
  -8  -1   0 129.551 70.1157   5
  -8  -1  -1-69.9237 65.9034   5
  -8  -1  -2-181.283 61.8117   5
  -8  -1  -3 85.5243 66.3337   5
  -8  -1  -4 114.103 69.2338   5
   8   2 -12 233.637 59.2366   1
   8   2 -12 790.781 61.7253   3
  -8  -2  11 525.216 84.3291   6
   8   2 -11 301.042 57.0293   3
   8   2 -11 344.869 61.9140   1
  -8  -2  10 130.400 73.9197   6
   8   2 -10-33.1830 60.1780   1
  -8  -2   9 489.116 85.4784   6
   8   2  -9 286.029 67.9484   1
  -8  -2   8 324.048 79.4929   6
   8   2  -8 300.083 57.4047   1
  -8  -2   7 210.016 82.2094   6
   8   2  -7-3.11289 63.6561   1
   8   2  -6 45.0630 58.5887   1
   8   2  -5 70.6824 52.6918   1
  -8  -2   4 23.0735 57.4084   5
  -8  -2   3 75.8712 62.4622   5
  -8  -2   2 361.391 72.1342   5
  -8  -2   1 221.374 71.2115   5
  -8  -2   0 349.222 72.0647   5
  -8  -2  -1-117.345 55.8316   5
  -8  -2  -2-213.853 71.7452   5
  -8  -2  -3 240.083 75.3271   5
  -8  -3  11 219.662 75.8274   6
   8   3 -11 279.848 58.7543   3
  -8  -3  10-64.7323 74.4145   6
   8   3 -10 133.678 58.9478   1
  -8  -3   9-39.9195 73.1771   6
   8   3  -9-77.8419 60.3343   1
  -8  -3   8 85.1413 73.9243   6
   8   3  -8 168.391 57.4479   1
   8   3  -7 228.604 61.4883   1
  -8  -3   7 367.075 90.3683   6
   8   3  -6 135.127 63.3459   1
  -8  -3   6 156.178 68.1409   6
   8   3  -5-3.04876 57.2332   1
  -8  -3   5 245.672 82.5231   6
  -8  -3   5 125.570 64.7467   5
  -8  -3   4 13.8371 52.7395   5
  -8  -3   3 123.295 68.6420   5
  -8  -3   2 139.864 66.4905   5
  -8  -3   1 574.240 84.6251   5
  -8  -3   0 436.156 83.1388   5
  -8  -3  -1 109.332 75.4187   5
  -8  -3  -2 348.758 81.5722   5
  -8  -4  11-27.0189 86.9742   6
  -8  -4  10-17.5705 90.9031   6
  -8  -4   9 164.512 90.2281   6
  -8  -4   8-197.725 79.3042   6
   8   4  -7-54.2002 50.9679   1
  -8  -4   7-49.8379 77.8439   6
   8   4  -6 120.628 65.2926   1
  -8  -4   6 14.8769 82.4457   6
  -8  -4   5 101.332 70.7904   6
  -8  -4   5-26.0537 54.4398   5
   8   4  -5-81.1531 64.7401   1
  -8  -4   4 70.9443 72.6978   6
  -8  -4   4-133.294 54.3144   5
  -8  -4   3 109.632 62.0308   5
  -8  -4   2-194.320 61.3893   5
  -8  -4   1 379.553 74.2279   5
  -8  -4   0 411.196 72.4366   5
  -8  -4  -1-216.908 59.1381   5
  -8  -5   9 493.940 107.249   6
  -8  -5   8 626.574 100.489   6
  -8  -5   7 433.866 92.4282   6
  -8  -5   6 13.3679 87.0415   6
  -8  -5   5 1.80210 68.3291   6
  -8  -5   5 2.64094 52.0527   5
  -8  -5   4 37.0382 71.1927   6
  -8  -5   4-54.9479 56.5202   5
  -8  -5   3 191.181 82.6186   6
  -8  -5   3 102.322 71.0464   5
  -8  -5   1 348.957 65.0247   5
  -8  -5   0-133.359 60.0382   5
  -8  -6   4-4.62801 83.6883   6
  -8  -6   3 216.837 95.8538   6
  -8  -6   3 153.207 74.8678   5
  -9   9   7 58.1840 67.5004   2
  -9   9   6 573.209 85.6055   2
  -9   9   5 60.2092 60.4642   2
  -9   9   4 89.2574 71.2571   2
  -9   9   3-81.2835 64.4726   2
  -9   9   2 131.110 76.3179   2
  -9   9   1 127.064 79.0218   2
  -9   9   0 172.551 67.0326   2
  -9   8   9 328.626 71.3331   2
  -9   8   8 567.902 81.5480   2
   9  -8  -8 608.560 70.5904   1
  -9   8   7 361.815 70.5114   2
   9  -8  -7 382.882 62.0890   1
  -9   8   6 995.636 86.2991   2
   9  -8  -6 1049.29 80.3090   1
  -9   8   5 402.048 72.6668   2
  -9   8   4 48.0524 70.3941   2
  -9   8   3 40.0268 66.1621   2
  -9   8   2 383.667 75.6157   2
  -9   8   1 555.625 74.4762   2
  -9   8   0 197.610 60.0856   2
  -9   8  -1 237.271 74.1449   2
  -9   8  -2 129.012 71.9023   2
   9  -7  -9 370.361 67.8090   1
  -9   7   8 440.496 74.9351   2
   9  -7  -8 311.410 63.6585   1
  -9   7   7 514.783 77.5757   2
   9  -7  -7 745.305 71.9269   1
  -9   7   6 547.465 72.9992   2
   9  -7  -6 553.681 72.2102   1
   9  -7  -5 147.855 63.8754   1
  -9   7   5 125.602 57.8178   2
   9  -7  -4 3.65913 56.8495   1
  -9   7   4-10.3141 64.4165   2
   9  -7  -3 42.0455 49.1490   1
  -9   7   3 126.821 62.9488   2
  -9   7   2 285.150 58.8678   2
  -9   7   1 451.949 75.3844   2
  -9   7   0 111.631 63.6046   2
  -9   7  -1 39.6507 62.0571   2
  -9   7  -2 208.894 75.4522   2
  -9   7  -3-229.072 71.3854   2
   9  -6 -10 155.490 70.2930   1
   9  -6  -9 273.728 69.3731   1
   9  -6  -8 1185.99 84.4819   1
   9  -6  -7 545.331 66.2626   1
   9  -6  -6 259.034 69.3104   1
   9  -6  -5 38.4458 55.2981   1
  -9   6   5 143.097 57.5887   2
   9  -6  -4 34.8415 53.9364   1
  -9   6   4-4.33565 53.2549   2
   9  -6  -3 276.597 63.6426   1
  -9   6   3 200.419 54.4449   2
   9  -6  -2 31.6123 57.0517   1
  -9   6   2-121.185 53.5838   2
   9  -6  -1 294.901 67.1541   1
  -9   6   1 273.194 60.1427   2
  -9   6   0-4.02545 53.6031   2
  -9   6  -1 81.5701 53.1186   2
  -9   6  -2 31.4815 67.0047   2
  -9   6  -3 182.258 77.0823   2
   9  -5 -10 335.929 69.4357   1
   9  -5  -9 718.408 72.1930   1
   9  -5  -8 287.707 68.9350   1
   9  -5  -7 388.723 70.4724   1
   9  -5  -6 345.307 63.2322   1
   9  -5  -5 101.448 65.8352   1
   9  -5  -4 14.7745 46.8535   1
   9  -5  -3 105.026 64.8838   1
   9  -5  -2 157.013 61.6708   1
  -9   5   2 112.445 51.8224   2
   9  -5  -1-38.3769 64.0270   1
  -9   5   1 69.3612 52.6678   2
  -9   5   0 207.008 61.1661   5
  -9   5   0 121.365 57.9585   2
  -9   5  -1 122.898 54.8600   5
  -9   5  -1 119.353 60.7611   2
  -9   5  -2 304.397 64.1384   2
  -9   5  -3 403.525 71.5524   2
   9  -4 -12 40.5729 58.3994   3
   9  -4 -11-175.896 49.2816   3
   9  -4 -10 321.163 76.8591   1
   9  -4  -9 1055.80 80.9131   1
   9  -4  -8 1453.23 98.1659   1
   9  -4  -7 6.62175 53.3698   1
   9  -4  -6 196.352 66.8489   1
   9  -4  -5 443.574 62.6198   1
   9  -4  -4-49.6580 59.7670   1
   9  -4  -3 974.639 78.0250   1
   9  -4  -2-0.66178 58.7878   1
  -9   4   1 142.042 60.9845   5
  -9   4   0 95.7872 61.1452   5
  -9   4  -1 428.050 64.1575   5
  -9   4  -2 199.065 63.8794   5
  -9   4  -2 297.971 68.9901   2
  -9   4  -3-25.1455 65.9641   5
  -9   4  -4-21.4816 61.7389   2
   9  -3 -11 8.66346 66.9577   1
   9  -3 -11 238.423 59.0550   3
   9  -3 -10 298.572 78.0744   1
   9  -3  -9 9.70982 63.3989   1
   9  -3  -8 378.544 79.0748   1
   9  -3  -7 1163.74 86.6749   1
   9  -3  -6 1866.36 102.524   1
   9  -3  -5 350.944 67.0091   1
   9  -3  -4 19.7755 62.1362   1
   9  -3  -3 66.1156 55.5646   1
  -9   3   2 354.233 67.9765   5
  -9   3   1 12.0720 63.3811   5
  -9   3   0 235.533 59.8342   5
  -9   3  -1 72.8285 55.1991   5
  -9   3  -2-145.017 56.8100   5
  -9   3  -3-24.9820 70.0045   5
  -9   3  -4 51.6284 63.6495   5
   9  -2 -11 77.1190 57.2635   1
   9  -2 -10 1003.66 63.5793   3
   9  -2 -10 1037.90 94.7256   1
   9  -2  -9 2506.95 114.714   1
   9  -2  -8 2729.78 121.630   1
   9  -2  -7 998.155 93.5624   1
   9  -2  -6 205.708 66.9950   1
   9  -2  -5-36.3441 56.1634   1
   9  -2  -4 58.0831 67.6608   1
   9  -2  -3 35.2433 65.9367   1
  -9   2   2-12.0550 63.2521   5
  -9   2   1 91.6196 70.9962   5
  -9   2   0 122.281 63.9636   5
  -9   2  -1-1.00502 53.7825   5
  -9   2  -2-48.4937 70.1633   5
  -9   2  -3 136.775 63.9783   5
  -9   2  -4 82.6556 76.7757   5
   9  -1 -12 324.828 61.1471   3
   9  -1 -11 512.430 59.0369   3
   9  -1 -11 29.8532 61.2645   1
   9  -1 -10 13.5618 52.6964   3
   9  -1 -10-16.0018 69.8782   1
   9  -1  -9 82.1452 63.0444   1
   9  -1  -8 375.932 66.4193   1
   9  -1  -7 110.342 69.7747   1
   9  -1  -6-9.38627 65.0455   1
   9  -1  -5 89.7221 61.8680   1
   9  -1  -4-11.8105 73.4124   1
  -9   1   3 248.745 66.6830   5
  -9   1   2-72.9971 60.1665   5
  -9   1   1 184.505 66.2695   5
  -9   1   0 85.6916 63.8846   5
  -9   1  -1-181.812 59.9176   5
  -9   1  -2 111.635 70.2443   5
  -9   1  -3 123.266 66.7642   5
   9   0 -11 283.970 50.2047   3
   9   0 -11 659.714 92.2374   1
   9   0 -10 248.834 56.9216   3
   9   0 -10 126.863 63.0432   1
   9   0  -9 550.489 54.4231   3
   9   0  -9 339.071 65.2623   1
   9   0  -8 9.76162 59.5252   1
   9   0  -7 211.058 73.1040   1
   9   0  -6 50.0874 69.2446   1
   9   0  -5 117.756 57.4033   1
   9   0  -4-35.4315 68.7616   1
  -9   0   4 148.146 72.5631   5
  -9   0   3-129.377 62.1371   5
  -9   0   2 17.6495 71.7083   5
  -9   0   1 77.5892 66.3978   5
  -9   0  -1 66.2596 57.8823   5
  -9   0  -2 207.998 83.7639   5
   9   1 -11 375.161 60.4324   3
   9   1 -11 52.3050 67.9859   1
   9   1 -10 571.690 50.9045   3
   9   1 -10 548.183 88.1628   1
   9   1  -9 66.6131 69.0559   1
   9   1  -9-117.004 54.7882   3
   9   1  -8 170.299 69.5997   1
   9   1  -7-27.2433 55.9018   1
   9   1  -6-22.0818 57.6411   1
   9   1  -5 17.2561 66.9121   1
   9   1  -4-4.87746 58.1536   1
  -9  -1   4 41.2254 63.0755   5
  -9  -1   3-19.6573 58.0155   5
  -9  -1   2 190.062 65.2568   5
  -9  -1   1 26.8529 65.5418   5
  -9  -1   0-94.8034 73.9810   5
  -9  -1  -1 157.268 73.5620   5
   9   2 -11-50.8585 67.5962   1
   9   2 -10 198.051 78.0261   1
   9   2  -9 308.645 59.5959   3
   9   2  -8 202.823 71.6264   1
   9   2  -7 37.6933 66.4666   1
   9   2  -6 25.2067 59.5916   1
   9   2  -5-35.1321 70.2511   1
  -9  -2   4-26.2125 66.2176   5
  -9  -2   3-18.8985 71.7547   5
  -9  -2   2 648.943 82.0400   5
  -9  -2   1 593.124 90.0477   5
  -9  -2   0 339.472 92.4286   5
   9   3 -10 530.537 79.8818   1
  -9  -3   9 261.999 88.7109   6
   9   3  -9 48.9975 62.9731   1
   9   3  -8 130.749 62.9523   1
   9   3  -7 3.21190 53.6213   1
   9   3  -6 265.533 73.6381   1
   9   3  -5 58.4364 69.4950   1
  -9  -3   5 462.527 82.9534   5
  -9  -3   4 62.1720 72.4709   5
  -9  -3   3 563.137 90.3693   5
  -9  -3   2 419.084 76.4990   5
  -9  -3   1-30.4937 75.5771   5
   9   4  -7-89.9576 74.2967   1
   9   4  -6 88.5492 65.3078   1
   9   4  -5-126.782 72.9774   1
  -9  -4   5 175.467 67.8511   5
  -9  -4   3 214.641 61.3781   5
  -9  -5   5 317.365 78.3770   5
  10  -8  -7 88.2822 55.6503   1
 -10   8   6 83.7082 72.8038   2
 -10   8   5 59.2110 69.1596   2
 -10   8   4 25.3934 63.3256   2
 -10   8   3-99.4668 61.7892   2
 -10   8   2 294.593 80.2321   2
 -10   8   1-31.1476 69.9157   2
  10  -7  -7 105.532 66.9165   1
  10  -7  -6 24.3024 63.3196   1
  10  -7  -5 35.2205 65.6296   1
  10  -7  -4-38.3567 68.9124   1
 -10   7   3 12.8723 55.0742   2
 -10   7   2 40.5405 68.9401   2
 -10   7   1-93.3997 71.3395   2
 -10   7   0 85.8619 61.9370   2
  10  -6  -8 96.2837 73.0486   1
  10  -6  -7 34.0277 71.1945   1
  10  -6  -6 53.3860 67.3207   1
  10  -6  -5 4.07379 72.3763   1
  10  -6  -4-44.0425 64.4514   1
  10  -6  -3 193.357 65.1956   1
  10  -6  -2 1299.23 94.3233   1
  10  -6  -1 597.388 89.5079   1
 -10   6  -1-3.49104 49.9066   2
  10  -5  -8 56.8867 69.9633   1
  10  -5  -7 1.25219 69.7864   1
  10  -5  -5 130.083 62.0796   1
  10  -5  -4 165.814 61.3993   1
  10  -5  -3 69.4809 66.6934   1
  10  -5  -2 263.964 77.2768   1
  10  -5  -1 241.271 67.2907   1
  10  -4  -8 170.928 78.0928   1
  10  -4  -7-110.467 70.0488   1
  10  -4  -6 119.362 64.2001   1
  10  -4  -5 15.4537 56.6806   1
  10  -4  -4-17.3749 56.7600   1
  10  -4  -3 60.9156 64.6892   1
  10  -4  -2 11.1107 71.1809   1
 -10   4   0 41.2017 55.5749   5
 -10   4  -2 75.3936 74.7523   5
  10  -3  -8 33.8029 54.6194   1
  10  -3  -7 31.4884 72.1717   1
  10  -3  -6 158.259 71.8850   1
  10  -3  -5-106.852 67.8405   1
  10  -3  -4 401.710 81.0563   1
  10  -3  -3 332.162 80.6700   1
  10  -3  -2-63.0623 66.9969   1
 -10   3   1-23.7911 55.5198   5
 -10   3   0-141.991 53.5637   5
 -10   3  -1 124.549 78.7394   5
  10  -2  -8-39.1774 75.0619   1
  10  -2  -7 112.407 76.5387   1
  10  -2  -6 72.3330 69.9981   1
  10  -2  -5 28.6215 58.3586   1
  10  -2  -4 128.361 65.4352   1
  10  -2  -3-6.96040 67.5194   1
 -10   2   2 57.0043 69.7052   5
 -10   2   0 216.918 75.8282   5
  10  -1  -8 43.3281 67.9667   1
  10  -1  -7 212.101 83.1198   1
  10  -1  -6-25.9201 72.2963   1
  10  -1  -5 60.5758 67.0929   1
  10  -1  -4 127.894 70.5158   1
  10  -1  -3 11.4994 76.3471   1
 -10   1   3 245.356 70.7981   5
 -10   1   2-92.8015 71.5295   5
 -10   1   1 152.690 80.9015   5
  10   0  -8 132.189 66.0180   1
  10   0  -7 59.7644 64.3874   1
  10   0  -6-82.7564 78.9488   1
  10   0  -5 176.872 85.9822   1
  10   0  -4 22.6483 77.0791   1
 -10   0   3 98.7495 70.4000   5
  10   1  -6 87.9921 75.9721   1
  10   1  -5 448.830 85.7126   1
;
_shelx_hkl_checksum              23748
loop_
_space_group_symop_operation_xyz
'x, y, z'
'-x, -y, -z'
loop_
_atom_site_label
_atom_site_type_symbol
_atom_site_fract_x
_atom_site_fract_y
_atom_site_fract_z
_atom_site_U_iso_or_equiv
_atom_site_adp_type
_atom_site_occupancy
_atom_site_site_symmetry_order
_atom_site_calc_flag
_atom_site_refinement_flags_posn
_atom_site_refinement_flags_adp
C1 C 0.5827(3) 0.12456(17) 0.48610(17) 0.0374(5) Uani 1 1 d . .
C2 C 0.4038(3) 0.08445(18) 0.44457(17) 0.0399(5) Uani 1 1 d . .
H2 H 0.3395 0.1386 0.4086 0.048 Uiso 1 1 calc R U
C3 C 0.3213(2) -0.04121(18) 0.45837(16) 0.0367(5) Uani 1 1 d . .
C4 C 0.1365(2) -0.11072(18) 0.42331(17) 0.0398(5) Uani 1 1 d . .
C5 C -0.0097(3) -0.0722(2) 0.36634(19) 0.0502(6) Uani 1 1 d . .
H5 H 0.0003 0.0087 0.3423 0.060 Uiso 1 1 calc R U
C6 C -0.1716(3) -0.1579(2) 0.3462(2) 0.0624(7) Uani 1 1 d . .
H6 H -0.2711 -0.1336 0.3087 0.075 Uiso 1 1 calc R U
C7 C -0.1867(3) -0.2796(3) 0.3813(3) 0.0711(8) Uani 1 1 d . .
H7 H -0.2963 -0.3353 0.3669 0.085 Uiso 1 1 calc R U
C8 C -0.0417(3) -0.3189(2) 0.4373(2) 0.0621(7) Uani 1 1 d . .
H8 H -0.0529 -0.4003 0.4603 0.074 Uiso 1 1 calc R U
C9 C 0.1207(3) -0.23457(19) 0.45843(19) 0.0452(5) Uani 1 1 d . .
C10 C 0.7023(3) 0.25489(18) 0.47976(18) 0.0420(5) Uani 1 1 d . .
C11 C 0.6785(3) 0.2782(2) 0.3494(2) 0.0524(6) Uani 1 1 d . .
H11A H 0.5595 0.2791 0.3109 0.063 Uiso 1 1 calc R U
H11B H 0.7524 0.3625 0.3500 0.063 Uiso 1 1 calc R U
C12 C 0.7192(4) 0.1799(2) 0.2747(2) 0.0655(7) Uani 1 1 d . .
H12A H 0.8368 0.1767 0.3144 0.079 Uiso 1 1 calc R U
H12B H 0.6422 0.0960 0.2713 0.079 Uiso 1 1 calc R U
C13 C 0.7010(4) 0.2076(3) 0.1489(2) 0.0759(8) Uani 1 1 d . .
H13A H 0.7709 0.2942 0.1522 0.091 Uiso 1 1 calc R U
H13B H 0.5811 0.2039 0.1072 0.091 Uiso 1 1 calc R U
C14 C 0.7554(4) 0.1154(3) 0.0779(2) 0.0842(9) Uani 1 1 d . .
H14A H 0.8762 0.1211 0.1186 0.101 Uiso 1 1 calc R U
H14B H 0.6881 0.0286 0.0770 0.101 Uiso 1 1 calc R U
C15 C 0.7331(5) 0.1392(4) -0.0485(3) 0.1056(11) Uani 1 1 d . .
H15A H 0.7989 0.2264 -0.0478 0.127 Uiso 1 1 calc R U
H15B H 0.6119 0.1320 -0.0897 0.127 Uiso 1 1 calc R U
C16 C 0.7900(6) 0.0489(4) -0.1177(3) 0.1351(16) Uani 1 1 d . .
H16A H 0.7630 0.0652 -0.1990 0.203 Uiso 1 1 calc R U
H16B H 0.7305 -0.0381 -0.1153 0.203 Uiso 1 1 calc R U
H16C H 0.9127 0.0620 -0.0828 0.203 Uiso 1 1 calc R U
C17 C 0.6736(3) 0.37092(19) 0.5458(2) 0.0498(6) Uani 1 1 d . .
H17A H 0.7501 0.4491 0.5354 0.060 Uiso 1 1 calc R U
H17B H 0.5556 0.3739 0.5071 0.060 Uiso 1 1 calc R U
C18 C 0.7034(3) 0.3706(2) 0.6776(2) 0.0590(6) Uani 1 1 d . .
H18A H 0.8144 0.3546 0.7156 0.071 Uiso 1 1 calc R U
H18B H 0.6142 0.3013 0.6886 0.071 Uiso 1 1 calc R U
C19 C 0.7012(4) 0.4981(3) 0.7385(2) 0.0727(8) Uani 1 1 d . .
H19A H 0.7892 0.5669 0.7255 0.087 Uiso 1 1 calc R U
H19B H 0.5898 0.5131 0.7000 0.087 Uiso 1 1 calc R U
C20 C 0.7320(4) 0.5047(3) 0.8697(3) 0.0944(10) Uani 1 1 d . .
H20A H 0.8427 0.4886 0.9081 0.113 Uiso 1 1 calc R U
H20B H 0.6431 0.4367 0.8826 0.113 Uiso 1 1 calc R U
C21 C 0.7321(6) 0.6312(4) 0.9294(3) 0.1291(15) Uani 1 1 d . .
H21A H 0.8201 0.6995 0.9161 0.155 Uiso 1 1 calc R U
H21B H 0.6208 0.6470 0.8921 0.155 Uiso 1 1 calc R U
C22 C 0.7652(6) 0.6361(5) 1.0607(4) 0.167(2) Uani 1 1 d . .
H22A H 0.7715 0.7204 1.0935 0.250 Uiso 1 1 calc R U
H22B H 0.8728 0.6169 1.0982 0.250 Uiso 1 1 calc R U
H22C H 0.6726 0.5742 1.0747 0.250 Uiso 1 1 calc R U
loop_
_atom_site_aniso_label
_atom_site_aniso_U_11
_atom_site_aniso_U_22
_atom_site_aniso_U_33
_atom_site_aniso_U_23
_atom_site_aniso_U_13
_atom_site_aniso_U_12
C1 0.0436(12) 0.0322(10) 0.0384(11) 0.0036(8) 0.0175(9) 0.0094(9)
C2 0.0454(12) 0.0361(11) 0.0423(11) 0.0077(9) 0.0168(9) 0.0154(9)
C3 0.0412(11) 0.0363(11) 0.0347(10) 0.0018(8) 0.0163(8) 0.0105(9)
C4 0.0414(11) 0.0390(11) 0.0394(11) -0.0010(9) 0.0170(9) 0.0089(9)
C5 0.0467(13) 0.0505(13) 0.0536(14) 0.0039(10) 0.0159(10) 0.0154(11)
C6 0.0420(14) 0.0698(17) 0.0722(17) -0.0010(13) 0.0149(12) 0.0171(12)
C7 0.0433(14) 0.0659(17) 0.097(2) 0.0001(15) 0.0258(14) 0.0016(12)
C8 0.0532(15) 0.0477(14) 0.0860(18) 0.0112(12) 0.0310(13) 0.0051(11)
C9 0.0460(12) 0.0404(12) 0.0508(13) 0.0019(9) 0.0229(10) 0.0070(10)
C10 0.0458(12) 0.0336(11) 0.0494(12) 0.0081(9) 0.0208(10) 0.0092(9)
C11 0.0617(14) 0.0433(12) 0.0588(14) 0.0153(11) 0.0286(11) 0.0139(11)
C12 0.0910(19) 0.0644(16) 0.0573(15) 0.0174(12) 0.0369(14) 0.0332(14)
C13 0.103(2) 0.0813(19) 0.0634(17) 0.0238(14) 0.0432(16) 0.0384(17)
C14 0.112(2) 0.098(2) 0.0639(18) 0.0195(16) 0.0457(17) 0.0441(19)
C15 0.137(3) 0.131(3) 0.069(2) 0.026(2) 0.053(2) 0.049(2)
C16 0.176(4) 0.172(4) 0.077(2) 0.002(2) 0.066(3) 0.058(3)
C17 0.0536(13) 0.0351(11) 0.0626(15) 0.0049(10) 0.0244(11) 0.0097(10)
C18 0.0622(15) 0.0564(14) 0.0597(15) 0.0000(11) 0.0197(12) 0.0211(12)
C19 0.0769(18) 0.0649(17) 0.0734(18) -0.0106(14) 0.0212(14) 0.0236(14)
C20 0.104(2) 0.106(3) 0.074(2) -0.0128(18) 0.0208(17) 0.048(2)
C21 0.165(4) 0.126(3) 0.095(3) -0.032(2) 0.032(3) 0.061(3)
C22 0.198(5) 0.199(5) 0.096(3) -0.042(3) 0.045(3) 0.057(4)
loop_
_atom_type_symbol
_atom_type_description
_atom_type_scat_dispersion_real
_atom_type_scat_dispersion_imag
_atom_type_scat_source
C C 0.0033 0.0016 'International Tables Vol C Tables 4.2.6.8 and 6.1.1.4'
H H 0.0000 0.0000 'International Tables Vol C Tables 4.2.6.8 and 6.1.1.4'
loop_
_geom_angle_atom_site_label_1
_geom_angle_atom_site_label_2
_geom_angle_atom_site_label_3
_geom_angle
_geom_angle_site_symmetry_1
_geom_angle_site_symmetry_3
C2 C1 C3 120.24(17) . 2_656
C2 C1 C10 128.04(17) . .
C3 C1 C10 111.71(17) 2_656 .
C1 C2 C3 118.06(17) . .
C1 C2 H2 121.0 . .
C3 C2 H2 121.0 . .
C2 C3 C1 121.71(17) . 2_656
C2 C3 C4 130.76(18) . .
C1 C3 C4 107.54(17) 2_656 .
C5 C4 C9 120.70(19) . .
C5 C4 C3 130.39(19) . .
C9 C4 C3 108.91(17) . .
C4 C5 C6 118.3(2) . .
C4 C5 H5 120.9 . .
C6 C5 H5 120.9 . .
C5 C6 C7 120.9(2) . .
C5 C6 H6 119.6 . .
C7 C6 H6 119.6 . .
C8 C7 C6 121.1(2) . .
C8 C7 H7 119.4 . .
C6 C7 H7 119.4 . .
C7 C8 C9 118.7(2) . .
C7 C8 H8 120.6 . .
C9 C8 H8 120.6 . .
C8 C9 C4 120.3(2) . .
C8 C9 C10 128.27(19) . 2_656
C4 C9 C10 111.45(17) . 2_656
C9 C10 C1 100.37(15) 2_656 .
C9 C10 C11 111.55(16) 2_656 .
C1 C10 C11 111.49(17) . .
C9 C10 C17 112.04(17) 2_656 .
C1 C10 C17 113.15(16) . .
C11 C10 C17 108.17(16) . .
C12 C11 C10 115.18(17) . .
C12 C11 H11A 108.5 . .
C10 C11 H11A 108.5 . .
C12 C11 H11B 108.5 . .
C10 C11 H11B 108.5 . .
H11A C11 H11B 107.5 . .
C13 C12 C11 114.1(2) . .
C13 C12 H12A 108.7 . .
C11 C12 H12A 108.7 . .
C13 C12 H12B 108.7 . .
C11 C12 H12B 108.7 . .
H12A C12 H12B 107.6 . .
C12 C13 C14 113.9(2) . .
C12 C13 H13A 108.8 . .
C14 C13 H13A 108.8 . .
C12 C13 H13B 108.8 . .
C14 C13 H13B 108.8 . .
H13A C13 H13B 107.7 . .
C15 C14 C13 114.6(2) . .
C15 C14 H14A 108.6 . .
C13 C14 H14A 108.6 . .
C15 C14 H14B 108.6 . .
C13 C14 H14B 108.6 . .
H14A C14 H14B 107.6 . .
C14 C15 C16 114.3(3) . .
C14 C15 H15A 108.7 . .
C16 C15 H15A 108.7 . .
C14 C15 H15B 108.7 . .
C16 C15 H15B 108.7 . .
H15A C15 H15B 107.6 . .
C15 C16 H16A 109.5 . .
C15 C16 H16B 109.5 . .
H16A C16 H16B 109.5 . .
C15 C16 H16C 109.5 . .
H16A C16 H16C 109.5 . .
H16B C16 H16C 109.5 . .
C18 C17 C10 116.34(17) . .
C18 C17 H17A 108.2 . .
C10 C17 H17A 108.2 . .
C18 C17 H17B 108.2 . .
C10 C17 H17B 108.2 . .
H17A C17 H17B 107.4 . .
C17 C18 C19 112.4(2) . .
C17 C18 H18A 109.1 . .
C19 C18 H18A 109.1 . .
C17 C18 H18B 109.1 . .
C19 C18 H18B 109.1 . .
H18A C18 H18B 107.9 . .
C20 C19 C18 115.2(2) . .
C20 C19 H19A 108.5 . .
C18 C19 H19A 108.5 . .
C20 C19 H19B 108.5 . .
C18 C19 H19B 108.5 . .
H19A C19 H19B 107.5 . .
C19 C20 C21 114.9(3) . .
C19 C20 H20A 108.5 . .
C21 C20 H20A 108.5 . .
C19 C20 H20B 108.5 . .
C21 C20 H20B 108.5 . .
H20A C20 H20B 107.5 . .
C22 C21 C20 113.9(4) . .
C22 C21 H21A 108.8 . .
C20 C21 H21A 108.8 . .
C22 C21 H21B 108.8 . .
C20 C21 H21B 108.8 . .
H21A C21 H21B 107.7 . .
C21 C22 H22A 109.5 . .
C21 C22 H22B 109.5 . .
H22A C22 H22B 109.5 . .
C21 C22 H22C 109.5 . .
H22A C22 H22C 109.5 . .
H22B C22 H22C 109.5 . .
loop_
_geom_bond_atom_site_label_1
_geom_bond_atom_site_label_2
_geom_bond_distance
_geom_bond_site_symmetry_2
C1 C2 1.381(3) .
C1 C3 1.417(3) 2_656
C1 C10 1.542(3) .
C2 C3 1.413(3) .
C2 H2 0.9300 .
C3 C1 1.418(3) 2_656
C3 C4 1.470(3) .
C4 C5 1.389(3) .
C4 C9 1.416(3) .
C5 C6 1.391(3) .
C5 H5 0.9300 .
C6 C7 1.395(4) .
C6 H6 0.9300 .
C7 C8 1.382(3) .
C7 H7 0.9300 .
C8 C9 1.387(3) .
C8 H8 0.9300 .
C9 C10 1.525(3) 2_656
C10 C9 1.525(3) 2_656
C10 C11 1.544(3) .
C10 C17 1.562(3) .
C11 C12 1.526(3) .
C11 H11A 0.9700 .
C11 H11B 0.9700 .
C12 C13 1.511(3) .
C12 H12A 0.9700 .
C12 H12B 0.9700 .
C13 C14 1.522(4) .
C13 H13A 0.9700 .
C13 H13B 0.9700 .
C14 C15 1.501(4) .
C14 H14A 0.9700 .
C14 H14B 0.9700 .
C15 C16 1.507(4) .
C15 H15A 0.9700 .
C15 H15B 0.9700 .
C16 H16A 0.9600 .
C16 H16B 0.9600 .
C16 H16C 0.9600 .
C17 C18 1.511(3) .
C17 H17A 0.9700 .
C17 H17B 0.9700 .
C18 C19 1.538(3) .
C18 H18A 0.9700 .
C18 H18B 0.9700 .
C19 C20 1.496(4) .
C19 H19A 0.9700 .
C19 H19B 0.9700 .
C20 C21 1.515(4) .
C20 H20A 0.9700 .
C20 H20B 0.9700 .
C21 C22 1.495(5) .
C21 H21A 0.9700 .
C21 H21B 0.9700 .
C22 H22A 0.9600 .
C22 H22B 0.9600 .
C22 H22C 0.9600 .
loop_
_geom_torsion_atom_site_label_1
_geom_torsion_atom_site_label_2
_geom_torsion_atom_site_label_3
_geom_torsion_atom_site_label_4
_geom_torsion
_geom_torsion_site_symmetry_1
_geom_torsion_site_symmetry_4
C3 C1 C2 C3 -0.5(3) 2_656 .
C10 C1 C2 C3 178.80(18) . .
C1 C2 C3 C1 0.5(3) . 2_656
C1 C2 C3 C4 -179.55(18) . .
C2 C3 C4 C5 0.1(3) . .
C1 C3 C4 C5 -180.0(2) 2_656 .
C2 C3 C4 C9 -179.32(19) . .
C1 C3 C4 C9 0.6(2) 2_656 .
C9 C4 C5 C6 0.8(3) . .
C3 C4 C5 C6 -178.5(2) . .
C4 C5 C6 C7 -0.5(3) . .
C5 C6 C7 C8 0.1(4) . .
C6 C7 C8 C9 0.1(4) . .
C7 C8 C9 C4 0.1(3) . .
C7 C8 C9 C10 178.7(2) . 2_656
C5 C4 C9 C8 -0.6(3) . .
C3 C4 C9 C8 178.84(19) . .
C5 C4 C9 C10 -179.40(18) . 2_656
C3 C4 C9 C10 0.1(2) . 2_656
C2 C1 C10 C9 179.61(19) . 2_656
C3 C1 C10 C9 -1.0(2) 2_656 2_656
C2 C1 C10 C11 -62.1(3) . .
C3 C1 C10 C11 117.22(18) 2_656 .
C2 C1 C10 C17 60.1(3) . .
C3 C1 C10 C17 -120.58(19) 2_656 .
C9 C10 C11 C12 50.7(3) 2_656 .
C1 C10 C11 C12 -60.6(2) . .
C17 C10 C11 C12 174.35(19) . .
C10 C11 C12 C13 -177.9(2) . .
C11 C12 C13 C14 175.4(2) . .
C12 C13 C14 C15 178.3(3) . .
C13 C14 C15 C16 179.0(3) . .
C9 C10 C17 C18 -52.6(2) 2_656 .
C1 C10 C17 C18 60.0(2) . .
C11 C10 C17 C18 -175.96(18) . .
C10 C17 C18 C19 170.67(19) . .
C17 C18 C19 C20 -179.3(2) . .
C18 C19 C20 C21 179.2(3) . .
C19 C20 C21 C22 -179.3(3) . .
