#------------------------------------------------------------------------------
#$Date: 2017-10-07 08:35:01 +0300 (Sat, 07 Oct 2017) $
#$Revision: 201850 $
#$URL: file:///home/coder/svn-repositories/cod/cif/7/22/92/7229295.cif $
#------------------------------------------------------------------------------
#
# This file is available in the Crystallography Open Database (COD),
# http://www.crystallography.net/
#
# All data on this site have been placed in the public domain by the
# contributors.
#
data_7229295
loop_
_publ_author_name
'Hempe, M.'
'Reggelin, M.'
_publ_section_title
;
 Molecular packing and morphological stability of
 dihydro-indeno[1,2-b]fluorenes in the context of their substitution
 pattern
;
_journal_issue                   75
_journal_name_full               'RSC Adv.'
_journal_page_first              47183
_journal_paper_doi               10.1039/C7RA09401A
_journal_volume                  7
_journal_year                    2017
_chemical_formula_moiety         'C36 H46'
_chemical_formula_sum            'C36 H46'
_chemical_formula_weight         478.73
_space_group_crystal_system      triclinic
_space_group_IT_number           2
_space_group_name_Hall           '-P 1'
_space_group_name_H-M_alt        'P -1'
_symmetry_space_group_name_Hall  '-P 1'
_symmetry_space_group_name_H-M   'P -1'
_atom_sites_solution_hydrogens   geom
_audit_creation_method           SHELXL-2014/6
_audit_update_record
;
2017-08-14 deposited with the CCDC.
2017-10-06 downloaded from the CCDC.
;
_cell_angle_alpha                109.98(3)
_cell_angle_beta                 91.28(2)
_cell_angle_gamma                98.95(2)
_cell_formula_units_Z            3
_cell_length_a                   9.350(3)
_cell_length_b                   13.930(4)
_cell_length_c                   19.084(4)
_cell_measurement_reflns_used    2435
_cell_measurement_temperature    293(2)
_cell_measurement_theta_max      27.83
_cell_measurement_theta_min      2.57
_cell_volume                     2299.9(12)
_computing_cell_refinement
;
CrysAlis RED (Oxford Diffraction Ltd., 2009)
;
_computing_data_collection
;
CrysAlis CCD (Oxford Diffraction Ltd., 2009)
;
_computing_data_reduction
;
CrysAlis RED (Oxford Diffraction Ltd., 2009)
;
_computing_molecular_graphics    'PLATON (Spek, 2003)'
_computing_publication_material  'SHELXL-2014/6 (Sheldrick, 2014)'
_computing_structure_refinement  'SHELXL-2014/6 (Sheldrick, 2014)'
_computing_structure_solution    'SHELXL-2014 (Sheldrick, 2014)'
_diffrn_ambient_temperature      293(2)
_diffrn_measured_fraction_theta_full 0.958
_diffrn_measured_fraction_theta_max 0.964
_diffrn_measurement_device_type
;  
Oxford Diffraction Xcalibur (TM) Single Crystal X-ray Diffractometer 
with Sapphire CCD Detector.
;
_diffrn_measurement_method
;
Rotation method data acquisition using omega scans.
;
_diffrn_radiation_type           MoK\a
_diffrn_radiation_wavelength     0.71073
_diffrn_reflns_av_R_equivalents  0.0328
_diffrn_reflns_av_unetI/netI     0.0563
_diffrn_reflns_Laue_measured_fraction_full 0.958
_diffrn_reflns_Laue_measured_fraction_max 0.964
_diffrn_reflns_limit_h_max       7
_diffrn_reflns_limit_h_min       -11
_diffrn_reflns_limit_k_max       16
_diffrn_reflns_limit_k_min       -14
_diffrn_reflns_limit_l_max       22
_diffrn_reflns_limit_l_min       -22
_diffrn_reflns_number            14076
_diffrn_reflns_point_group_measured_fraction_full 0.958
_diffrn_reflns_point_group_measured_fraction_max 0.964
_diffrn_reflns_theta_full        25.242
_diffrn_reflns_theta_max         25.183
_diffrn_reflns_theta_min         2.570
_diffrn_source                   'Enhance (Mo) X-ray Source'
_exptl_absorpt_coefficient_mu    0.058
_exptl_absorpt_correction_T_max  0.993
_exptl_absorpt_correction_T_min  0.980
_exptl_absorpt_correction_type   multi-scan
_exptl_absorpt_process_details
;
CrysAlis RED, Oxford Diffraction Ltd., 2009
Empirical absorption correction using spherical harmonics,
implemented in SCALE3 ABSPACK scaling algorithm.
;
_exptl_crystal_colour            colourless
_exptl_crystal_density_diffrn    1.037
_exptl_crystal_description       rod
_exptl_crystal_F_000             786
_exptl_crystal_size_max          0.360
_exptl_crystal_size_mid          0.320
_exptl_crystal_size_min          0.120
_refine_diff_density_max         0.253
_refine_diff_density_min         -0.204
_refine_diff_density_rms         0.034
_refine_ls_extinction_method     none
_refine_ls_goodness_of_fit_ref   0.859
_refine_ls_hydrogen_treatment    constr
_refine_ls_matrix_type           full
_refine_ls_number_parameters     493
_refine_ls_number_reflns         7983
_refine_ls_number_restraints     13
_refine_ls_restrained_S_all      0.870
_refine_ls_R_factor_all          0.1536
_refine_ls_R_factor_gt           0.0769
_refine_ls_shift/su_max          0.000
_refine_ls_shift/su_mean         0.000
_refine_ls_structure_factor_coef Fsqd
_refine_ls_weighting_details
'w=1/[\s^2^(Fo^2^)+5.2253P] where P=(Fo^2^+2Fc^2^)/3'
_refine_ls_weighting_scheme      calc
_refine_ls_wR_factor_gt          0.1227
_refine_ls_wR_factor_ref         0.1582
_reflns_Friedel_coverage         0.000
_reflns_number_gt                4287
_reflns_number_total             7983
_reflns_threshold_expression     'I > 2\s(I)'
_cod_data_source_file            c7ra09401a2.cif
_cod_data_source_block           1327m
_cod_database_code               7229295
_shelx_space_group_comment
;
The symmetry employed for this shelxl refinement is uniquely defined
by the following loop, which should always be used as a source of
symmetry information in preference to the above space-group names.
They are only intended as comments.
;
_shelx_estimated_absorpt_t_min   0.980
_shelx_estimated_absorpt_t_max   0.993
_shelxl_version_number           2014/6
_shelx_res_file
;
TITL 1327 (MAH-371) P-1
CELL  0.71073  9.35000 13.93000 19.08400 109.98000 91.28000 98.95000
ZERR 3  0.00300  0.00400  0.00400  0.03000  0.02000  0.02000
LATT 1
SFAC C H
UNIT 108 138
FMAP 2
SHEL 20 0.835
SIZE 0.36 0.32 0.12
PLAN 30
L.S. 14
ISOR 0.008 C49 C50
DELU 0.001 0.001 C48 C49
BOND $H
CONF
ACTA
WGHT    0.000000    5.225300
FVAR       2.07864
C1    1    0.632499    0.148233    0.511183    11.00000    0.03583    0.04621 =
         0.04577    0.01878   -0.00154   -0.00153
C2    1    0.664434    0.066337    0.531673    11.00000    0.04916    0.05402 =
         0.05992    0.02626   -0.00118    0.00120
AFIX  43
H2    2    0.693172    0.009297    0.496449    11.00000   -1.20000
AFIX   0
C3    1    0.653052    0.070718    0.604284    11.00000    0.06583    0.06568 =
         0.07017    0.03909   -0.00627   -0.00308
AFIX  43
H3    2    0.675310    0.016846    0.618481    11.00000   -1.20000
AFIX   0
C4    1    0.608847    0.154521    0.656031    11.00000    0.08915    0.07577 =
         0.05076    0.03269   -0.00628   -0.01083
AFIX  43
H4    2    0.599776    0.156281    0.704866    11.00000   -1.20000
AFIX   0
C5    1    0.577549    0.236641    0.636257    11.00000    0.07885    0.05749 =
         0.04609    0.01401    0.00536   -0.00109
AFIX  43
H5    2    0.548470    0.293308    0.671715    11.00000   -1.20000
AFIX   0
C6    1    0.589859    0.233509    0.564059    11.00000    0.04716    0.04863 =
         0.04333    0.01484   -0.00023   -0.00371
C7    1    0.560559    0.313327    0.529680    11.00000    0.05406    0.04049 =
         0.04100    0.01142    0.00626    0.00703
C8    1    0.594431    0.261508    0.449575    11.00000    0.03512    0.03860 =
         0.04096    0.01128    0.00237   -0.00037
C9    1    0.589745    0.296906    0.390651    11.00000    0.04080    0.03401 =
         0.04916    0.01365    0.00275    0.00653
AFIX  43
H9    2    0.565028    0.361433    0.397386    11.00000   -1.20000
AFIX   0
C10   1    0.622349    0.235021    0.321382    11.00000    0.02985    0.04064 =
         0.04295    0.01375    0.00041    0.00425
C11   1    0.628025    0.251853    0.250278    11.00000    0.03822    0.04516 =
         0.04640    0.01786   -0.00064    0.00392
C12   1    0.600265    0.335159    0.230438    11.00000    0.06384    0.05554 =
         0.05505    0.02279    0.00579    0.01497
AFIX  43
H12   2    0.573626    0.392950    0.265847    11.00000   -1.20000
AFIX   0
C13   1    0.612914    0.330525    0.157561    11.00000    0.08883    0.07139 =
         0.06689    0.03847    0.00830    0.01928
AFIX  43
H13   2    0.594488    0.385579    0.143730    11.00000   -1.20000
AFIX   0
C14   1    0.652328    0.245670    0.105412    11.00000    0.09329    0.08259 =
         0.04616    0.03111    0.00746    0.01426
AFIX  43
H14   2    0.660580    0.243575    0.056457    11.00000   -1.20000
AFIX   0
C15   1    0.680154    0.162536    0.124975    11.00000    0.07801    0.06301 =
         0.04517    0.01703    0.00974    0.01561
AFIX  43
H15   2    0.706717    0.104960    0.089296    11.00000   -1.20000
AFIX   0
C16   1    0.668166    0.166046    0.197161    11.00000    0.04169    0.04814 =
         0.04528    0.01318    0.00140    0.00642
C17   1    0.692199    0.084675    0.231246    11.00000    0.04797    0.04701 =
         0.04512    0.01366    0.00679    0.01444
C18   1    0.658566    0.136911    0.311361    11.00000    0.03220    0.04446 =
         0.04343    0.01364    0.00254    0.00807
C19   1    0.664128    0.100847    0.370122    11.00000    0.03818    0.04093 =
         0.05060    0.01493    0.00369    0.01033
AFIX  43
H19   2    0.688181    0.036110    0.363293    11.00000   -1.20000
AFIX   0
C20   1    0.632817    0.163960    0.439545    11.00000    0.02941    0.03741 =
         0.04425    0.01302    0.00262    0.00304
C21   1    0.399286    0.327274    0.532941    11.00000    0.06359    0.05575 =
         0.06207    0.01970    0.02224    0.02191
AFIX  23
H21A  2    0.381697    0.362232    0.584623    11.00000   -1.20000
H21B  2    0.382396    0.371881    0.505272    11.00000   -1.20000
AFIX   0
C22   1    0.290853    0.226847    0.501704    11.00000    0.04779    0.07494 =
         0.09443    0.03254    0.01331    0.01533
AFIX  23
H22A  2    0.310860    0.190936    0.450578    11.00000   -1.20000
H22B  2    0.306228    0.183220    0.530397    11.00000   -1.20000
AFIX   0
C23   1    0.134061    0.238829    0.502201    11.00000    0.06570    0.13066 =
         0.11383    0.06536    0.03299    0.03739
AFIX  23
H23A  2    0.114000    0.276907    0.552896    11.00000   -1.20000
H23B  2    0.116605    0.279353    0.471436    11.00000   -1.20000
AFIX   0
C24   1    0.030890    0.136269    0.473638    11.00000    0.05027    0.17678 =
         0.19321    0.10164    0.00547   -0.00492
AFIX 137
H24A  2   -0.067077    0.148535    0.471531    11.00000   -1.50000
H24B  2    0.040688    0.098618    0.506750    11.00000   -1.50000
H24C  2    0.053527    0.096508    0.424491    11.00000   -1.50000
AFIX   0
C25   1    0.659697    0.419523    0.567602    11.00000    0.07999    0.03917 =
         0.04786    0.01132    0.00310    0.00303
AFIX  23
H25A  2    0.641095    0.465110    0.541040    11.00000   -1.20000
H25B  2    0.632667    0.449436    0.618272    11.00000   -1.20000
AFIX   0
C26   1    0.821441    0.417503    0.570902    11.00000    0.07611    0.04797 =
         0.05485    0.01563   -0.00536   -0.01004
AFIX  23
H26A  2    0.849760    0.388503    0.520396    11.00000   -1.20000
H26B  2    0.841207    0.372390    0.597654    11.00000   -1.20000
AFIX   0
C27   1    0.913107    0.524556    0.609177    11.00000    0.11154    0.05358 =
         0.06476    0.02008   -0.01388   -0.02507
AFIX  23
H27A  2    0.896385    0.568574    0.581003    11.00000   -1.20000
H27B  2    0.881128    0.554815    0.658733    11.00000   -1.20000
AFIX   0
C28   1    1.074497    0.523736    0.616353    11.00000    0.10208    0.10427 =
         0.09590    0.03451   -0.02183   -0.04956
AFIX 137
H28A  2    1.125721    0.593519    0.639475    11.00000   -1.50000
H28B  2    1.107236    0.493657    0.567584    11.00000   -1.50000
H28C  2    1.092847    0.483511    0.646547    11.00000   -1.50000
AFIX   0
C29   1    0.851343    0.066521    0.228206    11.00000    0.06012    0.07040 =
         0.05607    0.02231    0.01842    0.03069
AFIX  23
H29A  2    0.862220    0.017454    0.252963    11.00000   -1.20000
H29B  2    0.869451    0.034524    0.176204    11.00000   -1.20000
AFIX   0
C30   1    0.966650    0.162016    0.263298    11.00000    0.04592    0.08397 =
         0.06677    0.02654    0.01151    0.02043
AFIX  23
H30A  2    0.949239    0.195579    0.315209    11.00000   -1.20000
H30B  2    0.960267    0.210565    0.237543    11.00000   -1.20000
AFIX   0
C31   1    1.118384    0.134549    0.259245    11.00000    0.05055    0.12903 =
         0.10532    0.04929    0.01912    0.03697
AFIX  23
H31A  2    1.125238    0.088166    0.286773    11.00000   -1.20000
H31B  2    1.133183    0.097759    0.207448    11.00000   -1.20000
AFIX   0
C32   1    1.236011    0.226999    0.290104    11.00000    0.04921    0.16321 =
         0.12639    0.04737    0.00740    0.01760
AFIX 137
H32A  2    1.328518    0.204769    0.287755    11.00000   -1.50000
H32B  2    1.221458    0.264396    0.341201    11.00000   -1.50000
H32C  2    1.233726    0.271304    0.261209    11.00000   -1.50000
AFIX   0
C33   1    0.591769   -0.020316    0.191599    11.00000    0.07399    0.04754 =
         0.05058    0.00952    0.00497    0.01008
AFIX  23
H33A  2    0.623263   -0.050319    0.141897    11.00000   -1.20000
H33B  2    0.606082   -0.066189    0.218620    11.00000   -1.20000
AFIX   0
C34   1    0.431000   -0.019590    0.183725    11.00000    0.06978    0.05497 =
         0.07988    0.01779   -0.00630   -0.00134
AFIX  23
H34A  2    0.415205    0.032577    0.162699    11.00000   -1.20000
H34B  2    0.393864   -0.001190    0.232780    11.00000   -1.20000
AFIX   0
C35   1    0.348113   -0.125198    0.133520    11.00000    0.10520    0.07675 =
         0.11414    0.01715   -0.02803   -0.01915
AFIX  23
H35A  2    0.397463   -0.147757    0.088063    11.00000   -1.20000
H35B  2    0.354238   -0.174357    0.158770    11.00000   -1.20000
AFIX   0
C36   1    0.196680   -0.130835    0.112571    11.00000    0.13666    0.10751 =
         0.15570    0.01760   -0.05555   -0.02366
AFIX 137
H36A  2    0.155773   -0.200714    0.081860    11.00000   -1.50000
H36B  2    0.188437   -0.085346    0.085140    11.00000   -1.50000
H36C  2    0.145258   -0.110189    0.156801    11.00000   -1.50000
AFIX   0
C37   1    0.288270    0.563119    0.068070    11.00000    0.08177    0.04790 =
         0.04608    0.00490    0.00233    0.01540
C38   1    0.420832    0.606530    0.051937    11.00000    0.08253    0.06665 =
         0.06898    0.01303    0.00416    0.00939
AFIX  43
H38   2    0.428975    0.622720    0.008620    11.00000   -1.20000
AFIX   0
C39   1    0.541737    0.625609    0.101426    11.00000    0.07945    0.08322 =
         0.09212    0.00743    0.00089    0.01659
AFIX  43
H39   2    0.631517    0.655624    0.091687    11.00000   -1.20000
AFIX   0
C40   1    0.528809    0.600150    0.164832    11.00000    0.09280    0.08273 =
         0.08677    0.00282   -0.01848    0.02504
AFIX  43
H40   2    0.610470    0.613574    0.197675    11.00000   -1.20000
AFIX   0
C41   1    0.397320    0.555111    0.180820    11.00000    0.10584    0.07360 =
         0.05660    0.00926   -0.01129    0.02871
AFIX  43
H41   2    0.390854    0.536958    0.223374    11.00000   -1.20000
AFIX   0
C42   1    0.274598    0.537207    0.132506    11.00000    0.08628    0.05239 =
         0.04697    0.00649   -0.00330    0.02074
C43   1    0.120575    0.487902    0.136867    11.00000    0.09578    0.05491 =
         0.04096    0.01628   -0.00046    0.01461
C44   1    0.045388    0.490124    0.066024    11.00000    0.08792    0.04901 =
         0.03783    0.01456    0.00101    0.00941
C45   1   -0.099145    0.456151    0.039989    11.00000    0.08812    0.05652 =
         0.04237    0.02061    0.00741    0.00419
AFIX  43
H45   2   -0.164578    0.427656    0.066563    11.00000   -1.20000
AFIX   0
C46   1    0.144352    0.534490    0.026623    11.00000    0.07845    0.04619 =
         0.04112    0.01194    0.00231    0.00628
C47   1    0.111866    0.375372    0.135641    11.00000    0.12559    0.06024 =
         0.05368    0.02256   -0.00311    0.02009
AFIX  23
H47A  2    0.163764    0.377658    0.180923    11.00000   -1.20000
H47B  2    0.010863    0.346741    0.136760    11.00000   -1.20000
AFIX   0
C48   1    0.172735    0.302078    0.068835    11.00000    0.13164    0.06805 =
         0.06231    0.01256    0.00674    0.02529
AFIX  23
H48A  2    0.122566    0.300203    0.023220    11.00000   -1.20000
H48B  2    0.274709    0.328857    0.068269    11.00000   -1.20000
AFIX   0
C49   1    0.157635    0.193019    0.069840    11.00000    0.20170    0.08061 =
         0.11504    0.03625    0.03531    0.04772
AFIX  23
H49A  2    0.211076    0.194573    0.114479    11.00000   -1.20000
H49B  2    0.056088    0.167293    0.072460    11.00000   -1.20000
AFIX   0
C50   1    0.211126    0.121115    0.003824    11.00000    0.25185    0.10639 =
         0.14593    0.00674    0.05056    0.07155
AFIX 137
H50A  2    0.196531    0.052903    0.006800    11.00000   -1.50000
H50B  2    0.312832    0.144198    0.002208    11.00000   -1.50000
H50C  2    0.158936    0.119302   -0.040633    11.00000   -1.50000
AFIX   0
C51   1    0.052785    0.551293    0.207156    11.00000    0.10844    0.07200 =
         0.04052    0.02160    0.00329    0.02426
AFIX  23
H51A  2   -0.042942    0.513602    0.208437    11.00000   -1.20000
H51B  2    0.111468    0.555122    0.250903    11.00000   -1.20000
AFIX   0
C52   1    0.037787    0.660814    0.213479    11.00000    0.10920    0.06471 =
         0.05709    0.01720    0.00597    0.02675
AFIX  23
H52A  2    0.133278    0.699885    0.213643    11.00000   -1.20000
H52B  2   -0.020472    0.658015    0.169900    11.00000   -1.20000
AFIX   0
C53   1   -0.031315    0.716790    0.282966    11.00000    0.12955    0.08690 =
         0.07344    0.02034    0.01405    0.04638
AFIX  23
H53A  2    0.032745    0.726154    0.326347    11.00000   -1.20000
H53B  2   -0.121373    0.673436    0.285619    11.00000   -1.20000
AFIX   0
C54   1   -0.063371    0.821121    0.286885    11.00000    0.18812    0.10807 =
         0.12823    0.03001    0.02598    0.07843
AFIX 137
H54A  2   -0.110392    0.850527    0.331542    11.00000   -1.50000
H54B  2   -0.125963    0.812999    0.243939    11.00000   -1.50000
H54C  2    0.025817    0.866314    0.287670    11.00000   -1.50000
AFIX   0
HKLF 4

REM  1327 (MAH-371) P-1
REM R1 =  0.0769 for    4287 Fo > 4sig(Fo)  and  0.1536 for all    7983 data
REM    493 parameters refined using     13 restraints

END

WGHT      0.0386      1.6177

REM Highest difference peak  0.253,  deepest hole -0.204,  1-sigma level  0.034
Q1    1   0.3179 -0.0999  0.0810  11.00000  0.05    0.25
Q2    1   0.6185  0.1346  0.4691  11.00000  0.05    0.16
Q3    1   0.2463  0.2039  0.0738  11.00000  0.05    0.15
Q4    1   0.6080  0.1993  0.2121  11.00000  0.05    0.15
Q5    1   0.2806 -0.0817  0.1818  11.00000  0.05    0.15
Q6    1   0.6332  0.2582  0.2911  11.00000  0.05    0.15
Q7    1  -0.1470  0.7162  0.2687  11.00000  0.05    0.14
Q8    1   0.5613  0.1934  0.4426  11.00000  0.05    0.14
Q9    1   0.0743  0.1055  0.0321  11.00000  0.05    0.14
Q10   1   0.5872  0.1714  0.3129  11.00000  0.05    0.14
Q11   1   1.2207  0.1398  0.3153  11.00000  0.05    0.14
Q12   1   0.6145  0.2516  0.6030  11.00000  0.05    0.14
Q13   1   1.1235  0.1022  0.3199  11.00000  0.05    0.13
Q14   1   0.6000  0.3098  0.4887  11.00000  0.05    0.13
Q15   1   0.6865  0.2124  0.3224  11.00000  0.05    0.13
Q16   1   0.3439  0.3926  0.5623  11.00000  0.05    0.13
Q17   1   0.5813  0.1739  0.5331  11.00000  0.05    0.13
Q18   1   0.6541  0.2754  0.4334  11.00000  0.05    0.13
Q19   1   0.4243 -0.0384  0.1036  11.00000  0.05    0.12
Q20   1   0.6087  0.1017  0.3205  11.00000  0.05    0.12
Q21   1   0.1421  0.2196  0.5612  11.00000  0.05    0.12
Q22   1   0.6473  0.2879  0.3553  11.00000  0.05    0.12
Q23   1   0.6501  0.1224  0.2181  11.00000  0.05    0.12
Q24   1   0.6473  0.2027  0.5413  11.00000  0.05    0.12
Q25   1   0.5427  0.3901  0.3916  11.00000  0.05    0.12
Q26   1   0.6003  0.2769  0.5488  11.00000  0.05    0.12
Q27   1   0.6075  0.1245  0.4059  11.00000  0.05    0.12
Q28   1   0.2657  0.2249  0.4235  11.00000  0.05    0.12
Q29   1   0.5955  0.0906  0.5207  11.00000  0.05    0.12
Q30   1   0.4903  0.2961  0.6599  11.00000  0.05    0.11
;
_shelx_res_checksum              66360
_shelx_hkl_file
;
   0   0  -3 35606.5 239.768   1
   0   0   3 35325.8 238.623   4
   0   0  -4 884.234 17.5461   1
   0   0   4 843.089 20.7649   4
   0   0   5 468.254 21.3479   4
   0   0  -5 417.040 17.0103   1
   0   0   6 722.062 23.8632   4
   0   0  -6 739.220 19.9682   1
   0   0  -7 1365.47 25.4908   1
   0   0   7 1327.32 28.3905   4
   0   0   8 15.2306 24.1613   4
   0   0  -8 19.0690 18.2293   1
   0   0  -9 176.720 20.4881   1
   0   0   9 173.516 26.7271   4
   0   0  10 290.951 29.5854   4
   0   0 -10 275.891 24.1230   1
   0   0 -11 322.554 25.3543   1
   0   0  11 343.153 32.1220   4
   0   0 -12 1194.35 32.8575   1
   0   0  12 1226.22 41.2491   4
   0   0 -13 63.5127 26.9531   1
   0   0  13 72.2820 35.0177   4
   0   0  14 76.8213 36.6840   4
   0   0 -14 85.5574 27.5270   1
   0   0  15 43.2824 40.2366   4
   0   0 -15 60.9434 29.4805   1
   0   0 -16 807.111 38.0359   1
   0   0  16 806.489 47.6303   4
   0   0 -17 14.8549 27.1737   1
   0   0  17-10.5532 42.1664   4
   0   0 -18 13.4843 31.0634   1
   0   0 -19 19.4718 30.6835   1
   0   0  19 136.807 44.1315   4
   0   0 -20 49.9637 32.4269   1
   0   0  21 2.12627 44.4904   4
   0  -1  22 39.4756 46.4486   4
   0   1 -21-26.1963 31.9614   1
   0   1 -20 27.0556 31.6817   1
   0  -1  20 41.4905 42.9371   4
   0   1 -19 144.177 35.2627   1
   0   1 -18 24.6418 29.1023   1
   0  -1  18-8.34425 38.9474   4
   0  -1  17 206.187 41.7854   4
   0   1 -17 169.537 31.7870   1
   0   1 -16 614.629 36.8096   1
   0  -1  16 655.179 45.0706   4
   0   1 -15 2114.88 45.2650   1
   0  -1  15 2173.13 53.1347   4
   0  -1  14 48.5988 37.0066   4
   0   1 -14 58.1590 26.1152   1
   0  -1  13-12.0049 32.8235   4
   0   1 -13 0.90076 25.6000   1
   0  -1  12-5.66447 31.8080   4
   0   1 -12 28.3690 24.9129   1
   0   1 -11 102.699 23.7767   1
   0  -1  11 116.982 30.1501   4
   0   1 -10 4366.28 45.0617   1
   0  -1  10 4245.28 47.1469   4
   0   1  -9 1311.60 13.4877   3
   0   1  -9 1501.02 29.4511   1
   0  -1   9 1580.16 33.3430   4
   0   1  -8 4407.42 40.8179   1
   0  -1   8 4601.52 41.2108   4
   0   1  -7 8209.01 47.6837   1
   0  -1   7 8335.01 48.5757   4
   0   1  -6 3623.71 33.2709   1
   0   1  -5 633.878 20.4800   1
   0   1  -4 29591.8 65.9428   1
   0  -1   3 3089.18 19.4841   2
   0   1  -3 2978.55 21.1206   1
   0   1   2 23599.6 49.4265   4
   0   1   3 2852.76 25.3090   4
   0  -1  -3 2762.83 21.7783   1
   0  -1  -4 1278.34 19.9483   1
   0   1   4 1329.76 24.7679   4
   0  -1  -5 5209.86 34.4950   1
   0   1   5 5238.52 37.9440   4
   0  -1  -6 705.439 19.2944   1
   0   1   6 685.533 24.8593   4
   0   1   7 1484.95 30.8044   4
   0  -1  -7 1465.56 26.2249   1
   0   1   8 441.116 28.2160   4
   0  -1  -8 453.695 22.5235   1
   0  -1  -9 905.838 26.7288   1
   0   1   9 1045.04 33.1840   4
   0  -1 -10 56.3823 21.5769   1
   0   1  10 52.0096 28.3601   4
   0  -1 -11 2401.66 38.6665   1
   0   1  11 2569.72 46.2765   4
   0  -1 -12 1073.69 34.7714   1
   0   1  12 1107.05 41.9487   4
   0   1  13 56.9897 36.9110   4
   0  -1 -13 126.062 28.7569   1
   0   1  14 1023.17 46.4502   4
   0  -1 -14 1018.89 37.3949   1
   0   1  15 483.419 44.0313   4
   0  -1 -15 510.267 34.9351   1
   0  -1 -16 206.973 32.1025   1
   0   1  16 66.3777 40.5287   4
   0  -1 -17 52.7819 29.2359   1
   0   1  17 26.5710 40.9490   4
   0   1  18-30.8981 41.7917   4
   0  -1 -19 70.4930 29.1600   1
   0   1  20-19.9653 43.8180   4
   0   2 -22-12.1820 31.3713   1
   0   2 -21 36.8336 28.6342   1
   0  -2  21-16.2515 41.6750   4
   0   2 -20-0.16014 30.6488   1
   0  -2  20-30.6057 41.8156   4
   0  -2  19 22.6682 40.9957   4
   0   2 -19 75.6856 32.9103   1
   0   2 -18 564.541 38.6448   1
   0  -2  18 607.648 44.5145   4
   0  -2  17 325.378 41.9235   4
   0   2 -17 337.324 35.7569   1
   0  -2  16-27.7067 39.5942   4
   0   2 -16 12.5658 31.3583   1
   0  -2  15 40.5346 38.2888   4
   0   2 -15 11.9465 30.8723   1
   0   2 -14 60.3725 27.9867   1
   0  -2  14 27.9972 35.2659   4
   0  -2  13 115.806 32.9830   4
   0   2 -13 101.053 26.8381   1
   0   2 -12 57.8373 24.6222   1
   0  -2  12 69.8816 30.3826   4
   0   2 -11 702.635 29.3434   1
   0  -2  11 745.498 33.3487   4
   0  -2  10 186.067 28.9814   4
   0   2 -10 165.521 24.5090   1
   0   2  -9 5220.66 45.8750   1
   0   2  -8 3595.34 37.0998   1
   0   2  -7 460.485 20.4610   1
   0   2  -6 44.8409 17.1035   1
   0   2  -5 138447. 640.413   1
   0  -2   5 138297. 563.118   2
   0   2  -4 23256.9 61.5778   1
   0  -2   4 23158.6 53.0745   2
   0  -2   3 5561.05 24.6019   2
   0   2  -3 5485.28 29.6122   1
   0   2  -2 63.0205 11.4193   1
   0   2  -1 86352.9 369.431   4
   0   2   0 4114.65 24.3454   4
   0   2   1 1312.64 20.1696   4
   0   2   2 19.9586 18.0331   4
   0  -2  -3 62.7904 14.2943   1
   0   2   3 55.3300 19.9175   4
   0   2   4 1649.59 27.9930   4
   0  -2  -4 1646.50 22.7777   1
   0  -2  -5 2825.72 29.5268   1
   0   2   5 2715.58 33.7933   4
   0  -2  -6 14.4569 15.3771   1
   0   2   6 15.7465 23.2625   4
   0  -2  -7 2290.87 31.5996   1
   0   2   7 2212.13 36.5783   4
   0  -2  -8 594.213 23.7987   1
   0   2   8 554.529 29.9011   4
   0   2   9-16.2482 29.0603   4
   0  -2  -9 8.25288 18.8101   1
   0   2  10 37.9992 33.1603   4
   0  -2 -10 66.6731 22.7052   1
   0  -2 -11 359.082 26.1913   1
   0   2  11 346.099 37.1848   4
   0   2  12 1156.68 43.6647   4
   0  -2 -12 1163.46 33.2937   1
   0   2  13 12.6972 38.1757   4
   0  -2 -13 99.2695 28.1328   1
   0  -2 -14 92.8335 27.9647   1
   0   2  14 44.4272 42.1059   4
   0   2  15 307.818 43.4493   4
   0  -2 -15 277.600 33.1427   1
   0   2  16-0.79476 42.0597   4
   0  -2 -16-10.0147 30.5743   1
   0  -2 -17 48.8647 30.6025   1
   0  -2 -18 23.2550 29.8320   1
   0   2  19 200.325 46.5290   4
   0   2  20 580.431 50.9288   4
   0   2  21 336.801 48.9911   4
   0  -3  23 70.4155 40.9426   4
   0   3 -23 124.699 34.8794   1
   0   3 -21 74.4424 33.8827   1
   0  -3  21 73.8357 43.2154   4
   0  -3  20-33.7967 40.8464   4
   0   3 -20 30.2338 32.9397   1
   0  -3  19 22.4043 39.3526   4
   0   3 -19-21.7267 32.1942   1
   0  -3  18 0.34141 39.2375   4
   0   3 -18 14.5061 32.3531   1
   0   3 -17 418.421 35.3561   1
   0  -3  17 429.791 43.2151   4
   0   3 -16 2209.78 48.6732   1
   0  -3  16 2504.01 55.6687   4
   0  -3  15 78.3265 38.1476   4
   0   3 -15 75.9145 31.4378   1
   0   3 -14-2.13595 27.2560   1
   0  -3  14 21.9771 33.3964   4
   0  -3  13 208.438 35.0035   4
   0   3 -13 193.152 29.8342   1
   0   3 -12 25.1362 26.5071   1
   0   3 -11 603.392 28.7536   1
   0   3 -10 40.0747 23.0270   1
   0   3  -9 3436.04 41.2907   1
   0   3  -8 458.819 23.3120   1
   0   3  -7 4557.88 40.2885   1
   0  -3   7 4552.45 34.7261   2
   0   3  -6 992.163 25.0569   1
   0  -3   6 1023.84 20.6809   2
   0  -3   5 2594.60 24.4075   2
   0   3  -5 2464.76 30.0681   1
   0   3  -4 2019.14 26.7182   1
   0  -3   4 2038.54 21.5679   2
   0  -3   3 49537.8 287.212   2
   0   3  -3 49570.9 92.2149   1
   0  -3   2 24407.7 51.9775   2
   0   3  -2 24579.9 64.3819   1
   0   3  -2 24692.9 64.3589   4
   0  -3   1 7220.55 31.8793   2
   0   3  -1 7413.18 38.8014   4
   0  -3   0 30182.0 64.2752   2
   0   3   0 30688.9 69.7482   4
   0   3   1 4410.06 17.7853   0
   0   3   1 4969.63 34.6619   4
   0   3   2 3118.51 32.6372   4
   0   3   2 3005.58 19.5430   5
   0   3   3 100.956 21.7093   4
   0   3   3 120.079 9.90846   5
   0   3   4 14.5131 21.5443   4
   0   3   5 7734.79 51.2818   4
   0  -3  -5 7609.37 46.5908   1
   0  -3  -6 542.476 20.6971   1
   0   3   6 558.333 28.1792   4
   0   3   7 17.9157 26.6910   4
   0  -3  -7 30.4799 19.1022   1
   0   3   8 282.013 30.6831   4
   0  -3  -8 217.303 21.4277   1
   0   3   9 1653.40 41.1138   4
   0  -3  -9 1655.07 33.6413   1
   0   3  10 14.6605 34.9400   4
   0  -3 -10 21.9616 23.5159   1
   0   3  11 31.6192 36.5995   4
   0  -3 -11 45.4235 23.7500   1
   0  -3 -12 210.761 26.4053   1
   0   3  12 207.001 40.1142   4
   0  -3 -13 1628.08 40.4757   1
   0   3  13 1774.67 52.4769   4
   0   3  14 846.622 48.7448   4
   0  -3 -14 895.315 37.8794   1
   0   3  15 332.213 45.8793   4
   0  -3 -15 181.994 32.2587   1
   0   3  16 344.893 43.9498   4
   0  -3 -16 185.988 31.5247   1
   0   3  17 380.780 47.3427   4
   0   3  18 76.5394 44.0466   4
   0   3  19 118.668 46.7178   4
   0   3  20 363.553 49.1956   4
   0   3  21 624.406 50.8967   4
   0   4 -24-46.9841 32.4180   1
   0  -4  23-4.41582 42.9614   4
   0   4 -23-19.4046 32.0803   1
   0   4 -22 107.471 33.2301   1
   0  -4  22 97.8118 42.2630   4
   0  -4  20 20.9161 40.0994   4
   0   4 -20-19.8481 32.9677   1
   0   4 -19 47.8468 33.8709   1
   0  -4  19 32.2482 39.2048   4
   0  -4  18-32.5562 39.0703   4
   0   4 -18 5.65510 31.8632   1
   0  -4  17-25.4877 40.4831   4
   0   4 -17 33.2105 34.5110   1
   0  -4  16 63.6336 39.4761   4
   0   4 -16 6.73596 34.2596   1
   0  -4  15 394.996 40.8047   4
   0   4 -15 348.079 35.8417   1
   0   4 -14 492.719 31.7770   1
   0   4 -13 562.383 31.0662   1
   0   4 -12 50.7747 25.1710   1
   0   4 -11 2112.59 40.2460   1
   0   4 -10 1733.91 35.8432   1
   0  -4   9 1131.75 26.0747   2
   0   4  -9 1129.47 31.4608   1
   0   4  -8 248.742 22.4282   1
   0  -4   8 367.729 19.5548   2
   0  -4   7 3486.44 31.4290   2
   0   4  -7 3451.56 38.4562   1
   0  -4   6 3839.18 30.5899   2
   0   4  -6 3813.15 37.9522   1
   0   4  -5 30.9655 18.6191   1
   0  -4   5 21.1515 14.8980   2
   0   4  -4 271.062 19.5552   1
   0  -4   4 300.417 15.3900   2
   0   4  -3 1129.37 28.1783   4
   0   4  -3 1061.13 23.1871   1
   0  -4   3 1117.05 18.8449   2
   0   4  -2 2158.77 31.8071   4
   0  -4   2 2093.89 23.1522   2
   0   4  -1 132.485 23.2177   4
   0  -4   1 116.410 17.4926   2
   0   4   0 607.816 24.4832   4
   0  -4   0 612.495 20.2335   2
   0   4   1 5276.89 40.0295   4
   0  -4  -1 5227.79 36.5110   2
   0   4   2 539.458 11.2344   0
   0   4   2 588.558 24.9997   4
   0   4   2 553.698 14.1148   5
   0   4   3 1005.41 28.3753   4
   0   4   3 943.486 14.6187   5
   0   4   4 82.0821 24.8835   4
   0   4   4 81.7058 10.2784   5
   0   4   5 396.314 29.6516   4
   0   4   6 2780.17 41.8018   4
   0   4   7-9.96309 29.3429   4
   0  -4  -8 520.307 24.7182   1
   0   4   8 576.079 35.2035   4
   0  -4  -9 506.227 27.2990   1
   0   4   9 488.524 35.9561   4
   0   4  10 292.671 38.8073   4
   0  -4 -10 315.626 26.8663   1
   0   4  11 1838.71 49.0801   4
   0  -4 -11 1765.70 39.1675   1
   0  -4 -12 3.18317 27.8799   1
   0   4  12-22.2707 42.2324   4
   0   4  13 47.8027 44.0939   4
   0  -4 -13-22.0293 28.9260   1
   0   4  14 902.083 48.8092   4
   0  -4 -14 679.561 35.8084   1
   0   4  15 120.235 43.0951   4
   0  -4 -15 5.19395 29.1403   1
   0   4  16 343.615 45.5312   4
   0   4  17 145.480 44.0044   4
   0   4  18 156.199 45.8223   4
   0   4  19 764.022 51.9297   4
   0   4  20 402.020 48.5873   4
   0   5 -25 87.7831 33.6055   1
   0   5 -24 141.569 35.6037   1
   0  -5  24 111.214 43.6002   4
   0   5 -22 56.9218 33.2862   1
   0  -5  22 60.0129 40.3011   4
   0   5 -21 101.594 36.4259   1
   0  -5  21 44.7425 40.8278   4
   0  -5  20 40.9135 41.4321   4
   0   5 -20-27.5644 34.2761   1
   0  -5  19-31.4530 39.7709   4
   0   5 -19 18.5998 33.1777   1
   0   5 -18-22.6664 34.3865   1
   0  -5  18 36.2251 39.0148   4
   0   5 -17 1567.50 47.5369   1
   0  -5  17 1678.93 52.4181   4
   0   5 -16 110.058 33.4508   1
   0   5 -15 462.279 36.9224   1
   0   5 -14 523.923 36.4692   1
   0   5 -13 1696.80 42.7764   1
   0   5 -12 102.281 26.6705   1
   0   5 -11 913.946 34.5284   1
   0  -5  10 148.138 21.8829   2
   0   5 -10 109.710 26.3999   1
   0   5  -9 592.882 27.7204   1
   0  -5   9 575.180 22.9456   2
   0  -5   8 15421.8 63.0560   2
   0   5  -8 15323.1 76.7455   1
   0  -5   7 76.1242 17.4994   2
   0   5  -7 55.2126 21.7957   1
   0  -5   6 213.736 16.9841   2
   0   5  -6 188.856 20.8798   1
   0   5  -5 373.345 22.7208   1
   0  -5   5 398.338 17.1432   2
   0  -5   4 9134.47 42.2712   2
   0   5  -4 8932.96 54.9778   4
   0   5  -4 8857.30 52.9807   1
   0  -5   3 2046.62 24.2928   2
   0   5  -3 2032.73 29.6144   1
   0   5  -3 2039.36 33.9994   4
   0  -5   2 1785.04 24.6777   2
   0   5  -2 1788.12 32.3742   4
   0   5  -1 683.917 27.4301   4
   0  -5   1 647.939 21.1550   2
   0  -5   0 1262.76 24.9510   2
   0   5   0 1304.50 30.2806   4
   0  -5  -1 1929.75 29.3746   2
   0   5   1 1953.43 33.2121   4
   0   5   2 71.7995 13.3591   5
   0   5   2 50.1053 8.37521   0
   0   5   2 73.7327 24.3101   4
   0   5   3 670.936 13.7847   0
   0   5   3 687.239 15.3660   5
   0   5   3 691.727 29.9612   4
   0   5   4 4244.33 47.1881   4
   0   5   4 4004.54 26.6579   5
   0   5   5 209.010 31.3814   4
   0   5   6 264.757 32.3543   4
   0   5   7 1215.82 41.2766   4
   0   5   8 465.209 38.3862   4
   0   5   9 223.597 39.4015   4
   0   5  10-42.7102 40.1952   4
   0   5  11 21.0824 41.1492   4
   0   5  12 1437.24 52.8692   4
   0   5  13 2998.60 62.8525   4
   0   5  14 16.1626 42.4420   4
   0   5  15 214.113 46.2568   4
   0   5  16 374.242 48.0641   4
   0   5  17 383.635 49.4660   4
   0   5  18 166.845 48.8909   4
   0   5  19 178.288 50.3466   4
   0  -6  24 161.706 43.9173   4
   0   6 -24 111.728 34.6195   1
   0  -6  23-30.7383 43.5586   4
   0   6 -23-42.1259 33.9280   1
   0  -6  22-12.0189 41.8220   4
   0   6 -22-34.4372 35.7069   1
   0   6 -21 13.7204 37.6737   1
   0  -6  21 78.9076 41.8363   4
   0   6 -20-9.33113 35.1466   1
   0  -6  20 101.539 42.1131   4
   0  -6  19 51.3589 40.5549   4
   0   6 -19 28.1828 37.4456   1
   0   6 -18 2.97134 32.6202   1
   0   6 -17-5.75376 38.8674   1
   0   6 -16 41.3747 36.5262   1
   0   6 -15 5349.26 67.7254   1
   0   6 -14 164.200 35.8660   1
   0   6 -13 20.1010 30.4443   1
   0   6 -12 347.277 34.7901   1
   0   6 -11 23.5574 27.6436   1
   0  -6  11 14.6128 21.1595   2
   0   6 -10 2113.21 41.7226   1
   0  -6  10 2067.86 32.0249   2
   0  -6   9 71.5907 19.3973   2
   0   6  -9 49.8716 27.6924   1
   0   6  -8 245.853 27.1122   1
   0  -6   8 325.407 19.5926   2
   0  -6   7 59.1990 18.0388   2
   0   6  -7 69.8682 25.1824   1
   0   6  -6 83.4692 22.1916   1
   0  -6   6 83.3211 17.3374   2
   0   6  -5 1520.66 31.4893   1
   0  -6   5 1512.73 24.2779   2
   0   6  -4 29.3376 28.1948   4
   0  -6   4 29.2308 16.6999   2
   0   6  -4 32.7541 20.8289   1
   0   6  -3 9031.19 60.1341   4
   0  -6   3 8986.72 47.5674   2
   0   6  -2 1019.23 32.7172   4
   0  -6   2 980.475 24.0193   2
   0   6  -1 2286.23 39.2020   4
   0  -6   1 2276.56 30.3394   2
   0   6   0 386.954 29.2794   4
   0  -6   0 406.113 23.8902   2
   0   6   1 2017.73 37.1656   4
   0  -6  -1 2032.72 33.1758   2
   0  -6  -2 5085.71 46.1621   2
   0   6   2 4694.32 33.5637   5
   0   6   2 5305.91 52.2113   4
   0   6   3 10.4242 13.6721   5
   0   6   3 18.0197 9.60676   0
   0   6   3 10.1640 29.1658   4
   0   6   4 52.1029 12.8910   5
   0   6   4 47.2320 32.6791   4
   0   6   4 44.7008 11.5371   0
   0   6   5 1.40148 34.3314   4
   0   6   6 3394.20 52.8442   4
   0   6   7 142.397 37.4804   4
   0   6   8 162.605 39.3611   4
   0   6   9 450.349 44.3403   4
   0   6  10 38.4772 43.8443   4
   0   6  11-4.93199 43.2986   4
   0   6  12 68.9452 45.4847   4
   0   6  13 19.2766 44.8004   4
   0   6  14 85.3528 47.4469   4
   0   6  15 138.118 48.1802   4
   0   6  16 120.168 49.1616   4
   0   6  17 66.3325 49.5537   4
   0   6  18 113.558 50.9181   4
   0  -7  24 36.1142 42.1788   4
   0   7 -24 0.84831 34.9048   1
   0  -7  23 206.626 44.2980   4
   0   7 -23 11.4547 39.8117   1
   0  -7  22 405.619 46.8914   4
   0   7 -22 456.093 42.8629   1
   0  -7  21 15.6122 42.7524   4
   0   7 -21 37.2517 39.2707   1
   0   7 -20-32.5594 35.7573   1
   0   7 -19 184.031 39.6172   1
   0   7 -18 259.885 36.6550   1
   0   7 -17 103.344 34.9325   1
   0   7 -16 139.612 37.9415   1
   0   7 -15 71.1543 37.0780   1
   0   7 -14 9.18853 33.1459   1
   0   7 -13 4344.95 61.6455   1
   0  -7  13 4082.00 46.5480   2
   0   7 -12 24.5812 31.8898   1
   0  -7  12 20.0989 23.8280   2
   0   7 -11 44.9533 33.0541   1
   0  -7  11 28.4980 21.7684   2
   0   7 -10-7.08394 31.1277   1
   0  -7  10 19.2377 20.4772   2
   0   7  -9 481.184 30.8864   1
   0  -7   9 523.996 22.9802   2
   0  -7   8 3.40078 18.5823   2
   0   7  -8-1.44030 28.2513   1
   0  -7   7 20.7391 18.4729   2
   0   7  -7 10.0588 25.5599   1
   0  -7   6 2107.13 28.5862   2
   0   7  -6 1930.01 37.3378   1
   0   7  -5 60.2286 32.8984   4
   0   7  -5 79.0366 25.1699   1
   0  -7   5 73.5093 18.9118   2
   0  -7   4 436.916 21.8472   2
   0   7  -4 464.352 26.5202   1
   0   7  -4 482.324 34.0293   4
   0  -7   3 4994.23 41.3546   2
   0   7  -3 5196.59 54.0991   4
   0   7  -2 192.717 9.73184   6
   0   7  -2 267.984 33.4040   4
   0  -7   2 239.747 22.8781   2
   0  -7   1 499.561 23.5176   2
   0  -7   1 335.005 7.53905   0
   0   7  -1 484.039 33.8288   4
   0   7   0 911.176 36.9444   4
   0  -7   0 922.216 29.0929   2
   0   7   1 121.959 31.1351   4
   0  -7  -1 108.460 24.7074   2
   0  -7  -2 44.2601 26.1332   2
   0   7   2 37.3690 16.2507   5
   0   7   2 28.9760 31.8028   4
   0  -7  -3 2138.33 40.4767   2
   0   7   3 2055.90 25.7047   5
   0   7   3 2102.13 44.0309   4
   0   7   4-49.3995 34.8498   4
   0   7   5 9.04165 36.3434   4
   0   7   6 72.3908 38.9732   4
   0   7   7 1367.19 49.2742   4
   0   7   8 2643.06 58.7595   4
   0   7   9-3.66401 43.5766   4
   0   7  10-24.2482 43.1136   4
   0   7  11 1118.09 52.7035   4
   0   7  12 43.7335 45.6682   4
   0   7  13-14.4775 44.9188   4
   0   7  14-34.7552 46.5050   4
   0   7  15 10.5978 47.9069   4
   0   7  16 199.814 51.6271   4
   0   7  17-50.3914 49.3272   4
   0   8 -24 10.7220 41.6508   1
   0   8 -23 97.1454 40.4777   1
   0  -8  23 214.435 45.4561   4
   0   8 -22 127.336 41.7672   1
   0  -8  22 142.334 43.6604   4
   0   8 -21 59.3715 37.1062   1
   0   8 -20 648.057 46.2920   1
   0   8 -19 35.6571 35.7399   1
   0   8 -18 54.7239 36.5120   1
   0   8 -17 81.8408 38.3846   1
   0   8 -16 3656.83 63.9844   1
   0   8 -15 394.752 44.3668   1
   0  -8  14 42.2522 26.3056   2
   0   8 -14 16.6967 37.3739   1
   0  -8  13 661.182 29.9901   2
   0   8 -13 730.136 42.0947   1
   0   8 -12 1011.08 43.8596   1
   0  -8  12 938.328 30.2485   2
   0  -8  11 332.107 24.7898   2
   0   8 -11 281.942 37.1778   1
   0   8 -10 67.6389 32.7204   1
   0  -8  10 124.067 21.7413   2
   0   8  -9 189.260 33.4636   1
   0  -8   9 210.599 21.5828   2
   0  -8   8 730.889 24.4778   2
   0   8  -8 722.940 36.2385   1
   0   8  -7 318.271 29.1320   1
   0  -8   7 366.446 21.4892   2
   0   8  -6 39.9141 28.2297   1
   0  -8   6 39.0310 19.1779   2
   0  -8   5 556.956 23.0577   2
   0   8  -5 552.564 38.8069   4
   0   8  -5 484.833 30.4495   1
   0   8  -4 2844.12 43.2083   1
   0   8  -4 3000.92 50.7322   4
   0  -8   4 2876.65 36.3148   2
   0   8  -3 316.613 39.0679   4
   0  -8   3 265.403 24.1139   2
   0   8  -2-3.37354 35.0423   4
   0  -8   2 9.82923 22.5824   2
   0  -8   1 183.982 24.3495   2
   0   8  -1 164.496 35.9653   4
   0   8   0 71.3754 34.3929   4
   0  -8   0 91.8501 25.9881   2
   0  -8  -1 927.895 32.9812   2
   0   8   1 851.703 23.5313   5
   0   8   1 909.867 40.2268   4
   0  -8  -2 74.6081 28.7657   2
   0   8   2 50.5036 36.1505   4
   0   8   2 48.0955 18.3744   5
   0  -8  -3 34.1306 30.3982   2
   0   8   3 20.4515 36.5592   4
   0  -8  -4 58.0437 33.2353   2
   0   8   4 54.7761 37.9823   4
   0  -8  -5 1154.23 42.9098   2
   0   8   5 1108.27 48.1049   4
   0   8   6 978.928 48.9501   4
   0   8   7 245.072 46.0672   4
   0   8   8 642.393 47.8184   4
   0   8   9-27.5775 45.4569   4
   0   8  10 16.1966 44.6299   4
   0   8  11 175.904 46.0944   4
   0   8  12 46.4479 46.2704   4
   0   8  13 28.0399 46.8453   4
   0   9 -23 73.5676 41.1809   1
   0  -9  23 328.506 45.6075   4
   0   9 -22 151.449 42.2549   1
   0   9 -21 53.4087 37.6630   1
   0   9 -20-47.2721 39.1179   1
   0   9 -19 53.6758 40.4246   1
   0   9 -18 234.532 39.4392   1
   0   9 -17 170.940 37.1334   1
   0   9 -16 30.4209 38.5198   1
   0   9 -15 2342.54 55.9064   1
   0   9 -14 3.41677 36.9860   1
   0   9 -13 174.247 41.1207   1
   0   9 -12 43.9136 38.0153   1
   0  -9  11 107.974 22.9556   2
   0   9 -11 42.1789 37.8471   1
   0   9 -10 45.6836 33.3789   1
   0  -9  10 55.4587 21.0448   2
   0  -9   9 110.875 22.0785   2
   0   9  -9 50.5176 32.7290   1
   0   9  -8 154.190 33.1671   1
   0  -9   8 193.998 21.1275   2
   0  -9   7 389.622 23.3640   2
   0   9  -7 366.565 32.5467   1
   0  -9   6 594.112 25.0912   2
   0   9  -6 544.671 33.3208   1
   0   9  -5 1706.91 42.3455   1
   0   9  -5 1848.62 51.8067   4
   0  -9   5 1858.35 32.5609   2
   0   9  -4 155.103 31.5388   1
   0  -9   4 177.024 24.1651   2
   0   9  -4 208.939 41.2399   4
   0   9  -3 66.3095 40.4355   4
   0  -9   3 107.162 24.3287   2
   0  -9   2 1230.41 32.0495   2
   0   9  -2 1241.14 46.1351   4
   0   9  -1 118.833 40.1645   4
   0  -9   1 92.7699 26.3037   2
   0  -9   0 34.4842 28.0251   2
   0   9   0 63.3745 39.6816   4
   0   9   1 2.00439 39.5507   4
   0  -9  -1 14.7360 30.3662   2
   0   9   2 600.333 44.1748   4
   0  -9  -2 634.164 35.6579   2
   0   9   3 28.2232 39.1050   4
   0  -9  -3 74.1817 34.5886   2
   0  -9  -4 127.874 36.7458   2
   0   9   4 95.5389 43.0705   4
   0   9   5 83.9005 44.1591   4
   0  -9  -5 68.4579 38.3718   2
   0   9   6 1818.68 55.7436   4
   0  -9  -6 1930.53 51.6979   2
   0  -9  -7 486.729 43.9140   2
   0   9   7 375.142 46.1287   4
   0   9   8 39.5598 45.0038   4
   0  -9  -8 95.6587 41.7996   2
   0   9   9 53.5051 45.0567   4
   0   9  10-39.6232 45.2380   4
   0   9  11-19.0315 45.6554   4
   0   9  12 118.514 49.7275   4
   0   9  13 78.7186 48.0762   4
   0   9  14 32.3502 49.1016   4
   0   9  15-10.5603 52.3145   4
   0  10 -23 202.600 41.6340   1
   0  10 -22 85.8854 43.5608   1
   0  10 -21 14.4648 38.7564   1
   0  10 -20-30.3364 41.1148   1
   0  10 -19 77.2421 40.3504   1
   0  10 -18 72.0148 39.0836   1
   0  10 -17 112.830 40.8497   1
   0  10 -16 16.3547 39.8234   1
   0  10 -15 442.690 43.8079   1
   0  10 -14 440.353 42.8856   1
   0  10 -13 2914.59 58.6529   1
   0  10 -12 150.499 40.9233   1
   0  10 -11 344.197 40.9325   1
   0  10 -10 5.58236 36.2161   1
   0  10  -9 826.683 41.8572   1
   0  10  -8 17.0772 35.8970   1
   0  10  -7 1.24443 33.4356   1
   0 -10   7 0.77997 21.6238   2
   0  10  -6 481.680 46.7484   4
   0  10  -6 378.365 33.5360   1
   0 -10   6 447.638 26.2733   2
   0  10  -5 33.9499 45.2202   4
   0  10  -5 54.0881 31.4089   1
   0 -10   5 39.0288 23.0253   2
   0  10  -4 1082.00 51.3111   4
   0  10  -4 888.609 39.7390   1
   0 -10   4 937.909 31.4096   2
   0  10  -3 277.788 47.1529   4
   0 -10   3 208.605 27.9639   2
   0  10  -2 20.7372 44.5146   4
   0 -10   2 40.3761 26.7872   2
   0 -10   1 220.581 29.6285   2
   0  10  -1 117.694 43.8116   4
   0 -10   0 993.583 37.8715   2
   0  10   0 1071.13 53.1741   4
   0  10   1 773.494 49.9747   4
   0 -10  -1 818.800 39.5882   2
   0  10   2 236.092 48.6125   4
   0 -10  -2 192.125 36.8235   2
   0  10   3 1151.81 54.7441   4
   0 -10  -3 1142.43 44.7049   2
   0 -10  -4 2904.55 56.1789   2
   0  10   4 3014.16 62.9337   4
   0 -10  -5 308.398 40.9543   2
   0  10   5 337.428 47.1165   4
   0 -10  -6 30.7481 40.2753   2
   0  10   6-52.7361 44.4579   4
   0 -10  -7-18.8300 39.3340   2
   0  10   7 10.6813 45.3781   4
   0 -10  -8 84.6635 41.2377   2
   0  10   8 22.7854 44.8187   4
   0  10   9 525.697 49.4141   4
   0 -10  -9 417.605 45.0268   2
   0 -10 -10 71.9315 42.5210   2
   0  10  10 8.27719 45.9871   4
   0 -10 -11 66.1880 46.2243   2
   0 -10 -12 71.1007 46.8898   2
   0  10  12 114.215 46.5921   4
   0  10  13 109.412 52.0824   4
   0 -10 -13 76.8875 46.6697   2
   0  11 -20 38.4830 40.3337   1
   0  11 -19 175.809 42.6605   1
   0  11 -18 37.1765 41.8610   1
   0  11 -17-41.2997 41.1585   1
   0  11 -16 38.9037 39.5192   1
   0  11 -15 202.120 38.8997   1
   0  11 -14 220.906 38.2995   1
   0  11 -13 208.029 39.2170   1
   0  11 -12 2187.87 56.3350   1
   0  11 -11 229.370 41.6031   1
   0  11 -10 504.023 41.6618   1
   0  11  -9-0.75743 37.1478   1
   0  11  -8 52.3590 37.6713   1
   0  11  -7 121.459 33.9011   1
   0  11  -6-23.0223 48.7055   4
   0  11  -6 18.1006 35.3195   1
   0  11  -5 293.227 34.5655   1
   0  11  -5 277.969 49.8747   4
   0  11  -4 51.4874 49.2111   4
   0  11  -4 51.6232 35.1748   1
   0 -11   3 1875.73 41.3161   2
   0  11  -3 2008.50 60.4012   4
   0  11  -2 2559.40 65.0019   4
   0 -11   2 2317.91 44.8266   2
   0  11  -1 255.619 50.0049   4
   0 -11   1 273.123 32.6160   2
   0 -11   0 178.713 33.4388   2
   0  11   0 225.343 49.2821   4
   0  11   1 992.062 56.9994   4
   0 -11  -1 897.805 41.8978   2
   0 -11  -2 129.705 36.9897   2
   0  11   2 101.029 49.7974   4
   0 -11  -3 520.846 40.7195   2
   0  11   3 633.096 51.3481   4
   0 -11  -4 77.8210 37.5332   2
   0  11   4-9.10635 46.9736   4
   0 -11  -5 254.696 40.3630   2
   0  11   5 377.314 46.6227   4
   0 -11  -6 301.836 41.6297   2
   0  11   6 204.539 46.6267   4
   0 -11  -7-23.8002 39.8918   2
   0  11   7 92.7460 46.1886   4
   0 -11  -8-18.5109 40.5690   2
   0  11   9 100.498 46.0955   4
   0 -11  -9 282.892 45.0890   2
   0 -11 -10 110.074 44.9725   2
   0  11  10 212.210 49.6307   4
   0 -11 -11-21.8941 47.2287   2
   0 -11 -12-29.8814 45.5079   2
   0  11  12 80.5094 50.1658   4
   0  12 -21 82.3127 42.1280   1
   0  12 -20 107.547 42.6988   1
   0  12 -18-14.6854 41.7634   1
   0  12 -17-28.0233 41.5658   1
   0  12 -16-38.5180 39.8277   1
   0  12 -15-34.9824 37.9710   1
   0  12 -14 155.858 38.1854   1
   0  12 -13 94.5436 38.3597   1
   0  12 -12 321.733 40.6916   1
   0  12 -11 113.465 37.3096   1
   0  12 -10 421.931 41.8458   1
   0  12  -9 3048.41 59.6010   1
   0  12  -8 494.562 42.2194   1
   0  12  -7 55.0852 38.4834   1
   0  12  -6 583.648 41.8891   1
   0  12  -6 690.953 54.5534   4
   0  12  -5 283.260 38.9069   1
   0  12  -5 364.430 51.6045   4
   0  12  -4-4.35377 47.6763   4
   0  12  -4 0.64450 35.5585   1
   0  12  -3 27.5208 34.5660   1
   0  12  -3 34.8525 49.9357   4
   0  12  -2 531.792 51.9944   4
   0  12  -1 1643.49 59.3315   4
   0  12   0 315.864 50.2370   4
   0 -12  -1 95.5002 34.2024   2
   0  12   1 30.4704 47.9692   4
   0  12   2 78.4064 48.6889   4
   0 -12  -2-21.8055 35.9029   2
   0 -12  -3 715.855 43.8718   2
   0  12   3 800.350 53.5294   4
   0 -12  -4 265.981 39.9054   2
   0  12   4 233.789 51.5212   4
   0 -12  -5-29.6831 37.9098   2
   0  12   5 48.9171 48.5812   4
   0  12   6 26.3517 46.0533   4
   0 -12  -6 54.0082 39.8146   2
   0  12   7 70.4739 48.0439   4
   0 -12  -8-57.8108 42.5687   2
   0  12   8-20.7415 48.0730   4
   0 -12  -9 157.749 44.0654   2
   0  12   9 189.174 48.7108   4
   0  12  10 189.488 48.6385   4
   0 -12 -10 90.8009 47.6932   2
   0  13 -19-18.7728 40.8955   1
   0  13 -18-42.1078 44.4602   1
   0  13 -17 107.892 42.5814   1
   0  13 -16 16.8925 40.0129   1
   0  13 -15 29.3178 43.4580   1
   0  13 -14 101.670 41.1390   1
   0  13 -13 60.2405 38.6982   1
   0  13 -12 66.9858 38.3153   1
   0  13 -11 382.370 42.3592   1
   0  13 -10 57.0202 39.5807   1
   0  13  -9 42.0517 39.3760   1
   0  13  -8 106.218 40.6236   1
   0  13  -7 681.776 45.2903   1
   0  13  -6 93.1725 38.4951   1
   0  13  -6 161.244 49.9330   4
   0  13  -5-23.7783 49.5646   4
   0  13  -5-40.5238 35.3503   1
   0  13  -4-50.0909 48.9980   4
   0  13  -4 1.65990 34.6120   1
   0  13  -3 43.1101 37.5493   1
   0  13  -3 6.07493 49.3632   4
   0  13  -2 53.8814 48.6723   4
   0  13  -1 89.3501 49.4250   4
   0  13   0 756.741 55.1609   4
   0  13   1 224.607 49.4946   4
   0  13   3 46.4402 48.6897   4
   0  13   5 26.2952 50.7001   4
   0  13   6 245.282 51.4397   4
   0 -13  -6 121.074 42.0246   2
   0  13   7 53.3268 51.1958   4
   0 -13  -8 121.146 44.0641   2
   0  13   8 149.428 51.3726   4
   0 -13  -9 72.9501 45.3626   2
   0  14 -19 55.5719 45.2306   1
   0  14 -18 32.4160 43.4457   1
   0  14 -17-15.9208 44.8461   1
   0  14 -16-25.9058 39.7557   1
   0  14 -15 85.4657 41.8551   1
   0  14 -14 134.082 43.0406   1
   0  14 -13-8.61813 37.8375   1
   0  14 -12 118.294 41.0514   1
   0  14 -11 26.3871 42.2711   1
   0  14 -10 553.626 45.5571   1
   0  14  -9 46.8386 37.7017   1
   0  14  -8 33.5755 40.1929   1
   0  14  -7 79.9698 36.7349   1
   0  14  -6 34.4226 37.5551   1
   0  14  -6 119.320 51.8197   4
   0  14  -5 30.3591 38.4897   1
   0  14  -5-12.1908 49.1196   4
   0  14  -4-33.7757 48.8128   4
   0  14  -4 75.8809 35.0664   1
   0  14  -3 24.0014 37.2175   1
   0  14  -3 34.6545 50.3363   4
   0  14  -2 68.2850 49.6487   4
   0  14  -2-20.1646 35.4422   1
   0  14  -1-49.9272 50.6432   4
   0  14   0-5.27647 49.8273   4
   0  14   1 0.94196 48.5395   4
   0  14   2-37.4704 49.8789   4
   0  14   4 80.8877 51.2881   4
   0  15 -17 125.344 45.8294   1
   0  15 -16 96.7248 42.2187   1
   0  15 -15-57.2488 44.6246   1
   0  15 -14 129.446 42.5516   1
   0  15 -13 133.947 44.1127   1
   0  15 -12 317.496 43.5776   1
   0  15 -11 22.5292 41.0359   1
   0  15 -10 23.3477 40.9083   1
   0  15  -9 59.0769 39.0654   1
   0  15  -8 70.6811 39.3327   1
   0  15  -7-20.1740 37.3665   1
   0  15  -6-18.3620 35.7870   1
   0  15  -5 73.5179 38.7424   1
   0  15  -5-21.5808 48.8668   4
   0  15  -4 319.731 50.7660   4
   0  15  -4 131.974 38.1337   1
   0  15  -3 102.426 49.3725   4
   0  15  -3-29.5419 35.5944   1
   0  15  -2-38.6674 48.5009   4
   0  15  -2 57.3091 37.5110   1
   0  15   0-9.07438 49.8209   4
   0  15   1 10.6157 49.8757   4
   0  16 -15 177.124 46.5705   1
   0  16 -14-3.62399 42.9047   1
   0  16 -13 250.863 42.8207   1
   0  16 -12 30.1855 44.4788   1
   0  16 -11 158.330 43.9751   1
   0  16 -10 47.9081 41.4070   1
   0  16  -9 99.3923 42.0589   1
   0  16  -8-8.20915 38.0044   1
   0  16  -6 156.078 53.1303   4
   0  16  -6 130.147 41.2070   1
   0  16  -5 322.587 54.6333   4
   0  16  -5 0.18545 39.7614   1
   0  16  -4 57.4912 49.9987   4
   0  16  -3 104.359 40.4192   1
   0  16  -2-54.4424 39.3869   1
   0  16  -2 97.4174 51.2027   4
   0  16  -1 142.698 41.0390   1
   0  16  -1 31.2162 50.1222   4
   0  17 -12 32.5620 44.2335   1
   0  17 -11 10.9945 45.1049   1
   0  17 -10 121.183 42.0383   1
   0  17  -9-2.38772 41.3755   1
   0  17  -7 22.1207 41.6015   1
   0  17  -6 22.8982 40.3239   1
   0  17  -6 143.565 54.8644   4
   0  17  -4 132.109 41.1320   1
   0  17  -2 179.996 41.0745   1
  -1  18  -7 48.9331 39.8153   1
  -1  18  -8-9.04380 38.8771   1
  -1  17  -5 57.6455 54.2574   4
  -1  17  -6 2.74329 37.2589   1
  -1  17  -6-3.36282 56.1826   4
  -1  17  -7-36.2985 38.6319   1
  -1  17  -9 49.3861 41.6360   1
  -1  17 -10 226.522 44.7989   1
  -1  17 -11 79.3545 41.5208   1
  -1  17 -12 7.06866 41.1066   1
  -1  17 -13 147.152 43.8875   1
  -1  16  -1-29.4686 50.6193   4
  -1  16  -2-41.9805 49.2944   4
  -1  16  -3 164.852 52.8617   4
  -1  16  -3 83.6775 34.6648   1
  -1  16  -4 16.7531 50.8215   4
  -1  16  -4 7.80568 33.3365   1
  -1  16  -6 70.9112 37.4357   1
  -1  16  -6 6.26560 50.9115   4
  -1  16  -7-19.9892 37.8816   1
  -1  16  -8-48.7949 36.9986   1
  -1  16  -9 86.3522 39.1396   1
  -1  16 -10 94.9578 44.2174   1
  -1  16 -11 139.142 39.4750   1
  -1  16 -12-40.8258 39.6782   1
  -1  16 -13 100.983 44.5360   1
  -1  16 -14 24.9585 40.6620   1
  -1  16 -16 75.5667 46.2398   1
  -1  15   3 21.9897 52.3567   4
  -1  15   1 7.39651 51.5841   4
  -1  15   0-10.8387 48.7317   4
  -1  15  -2 59.4367 35.8852   1
  -1  15  -2 108.322 50.6527   4
  -1  15  -3-4.14933 50.1678   4
  -1  15  -3-2.16130 34.0434   1
  -1  15  -4-0.79016 31.9585   1
  -1  15  -4-36.4519 50.9480   4
  -1  15  -5 131.234 50.3906   4
  -1  15  -5 85.6722 36.6594   1
  -1  15  -6 13.5676 36.2534   1
  -1  15  -6 99.8325 50.4412   4
  -1  15  -7-54.2306 37.8756   1
  -1  15  -7 84.9919 51.2185   4
  -1  15  -8-52.2050 38.4084   1
  -1  15  -9 82.7843 36.6728   1
  -1  15 -10 38.8921 40.4996   1
  -1  15 -11 123.044 38.0638   1
  -1  15 -12-31.1029 40.4236   1
  -1  15 -13 70.4777 39.9107   1
  -1  15 -14 97.5159 44.3573   1
  -1  15 -15-61.8637 38.9364   1
  -1  15 -17 139.432 43.8699   1
  -1  15 -18-16.9130 44.1434   1
  -1  14   6-20.1025 53.2494   4
  -1  14   5 7.14867 51.0033   4
  -1  14   3 49.0295 52.2127   4
  -1  14   2-56.0731 50.5890   4
  -1  14   1-55.1457 51.0800   4
  -1  14   0 32.4973 49.6046   4
  -1  14  -1 73.6160 32.0573   1
  -1  14  -2-4.47432 32.5696   1
  -1  14  -3 786.243 56.7167   4
  -1  14  -3 437.887 39.1905   1
  -1  14  -4 59.5326 49.7327   4
  -1  14  -4 49.5262 33.5248   1
  -1  14  -5 89.7677 35.8892   1
  -1  14  -5 82.6069 49.9167   4
  -1  14  -6-12.2219 35.0704   1
  -1  14  -6 31.9931 49.9709   4
  -1  14  -7 324.707 51.7332   4
  -1  14  -7 146.296 34.9666   1
  -1  14  -8-28.4360 37.3768   1
  -1  14  -9 39.7834 40.1606   1
  -1  14 -10 81.7116 35.9505   1
  -1  14 -11 79.5006 39.5670   1
  -1  14 -12 65.5643 39.3080   1
  -1  14 -13-30.7772 36.9131   1
  -1  14 -14 146.021 42.9737   1
  -1  14 -15 59.9023 40.9973   1
  -1  14 -16 110.902 43.2983   1
  -1  14 -17-39.3445 41.8299   1
  -1  14 -19-24.2302 42.1929   1
  -1  13   8 120.828 51.1896   4
  -1  13   7 178.383 50.8739   4
  -1  13   6-14.0315 51.4505   4
  -1  13   5 195.596 50.5437   4
  -1  13   4-14.1499 48.9895   4
  -1  13   2 82.6893 49.3091   4
  -1  13   1-57.0468 49.7496   4
  -1  13   0 357.693 52.3127   4
  -1  13  -1 203.146 49.2216   4
  -1  13  -1 65.5331 33.8805   1
  -1  13  -2-15.7712 47.9527   4
  -1  13  -2-1.54807 30.4165   1
  -1  13  -3 37.1139 32.3312   1
  -1  13  -3 41.5242 46.7572   4
  -1  13  -4 36.2335 46.7315   4
  -1  13  -4 53.8336 33.2362   1
  -1  13  -5 19.3538 46.6227   4
  -1  13  -5 30.5535 32.4818   1
  -1  13  -6 93.5948 49.2562   4
  -1  13  -6 52.8194 33.6887   1
  -1  13  -7-40.7900 32.1072   1
  -1  13  -7 26.2023 43.6094   4
  -1  13  -8 15.4666 34.5834   1
  -1  13  -9 988.930 45.9357   1
  -1  13 -10 33.2707 37.3342   1
  -1  13 -11 56.0616 38.6165   1
  -1  13 -12 81.8506 39.9006   1
  -1  13 -13 5.35071 37.1630   1
  -1  13 -14 98.6972 39.9952   1
  -1  13 -15-14.0725 40.8746   1
  -1  13 -16-6.00800 38.6784   1
  -1  13 -17 27.4988 43.1829   1
  -1  13 -18 141.164 42.5927   1
  -1  13 -19 83.9013 41.9732   1
  -1  12  10 167.776 50.9946   4
   1 -12 -10-34.7069 42.0015   2
   1 -12  -9 98.2408 40.9264   2
  -1  12   9-37.6074 50.0338   4
   1 -12  -8 58.8828 38.5627   2
  -1  12   8 118.597 48.1573   4
  -1  12   7 6.84992 47.0631   4
   1 -12  -7-53.0239 38.1385   2
  -1  12   6 48.1117 46.8751   4
  -1  12   5 29.2348 47.5173   4
  -1  12   4 79.6803 49.2916   4
  -1  12   3 505.874 52.5348   4
  -1  12   2 947.183 56.3605   4
  -1  12   1 91.1242 50.1500   4
  -1  12   0 172.217 49.7699   4
  -1  12  -1 49.9957 48.6773   4
  -1  12  -2 1013.12 38.1352   5
  -1  12  -2 839.951 37.8423   1
  -1  12  -2 1109.14 54.5755   4
  -1  12  -3 140.696 32.5892   1
  -1  12  -3 79.0623 48.5563   4
  -1  12  -4 26.7515 30.3927   1
  -1  12  -4 1.08772 48.6262   4
  -1  12  -5 414.129 35.5411   1
  -1  12  -5 516.390 50.7890   4
  -1  12  -6 26.6748 33.3955   1
  -1  12  -6 29.1861 50.0155   4
  -1  12  -7-0.94907 34.7220   1
  -1  12  -7 22.8998 48.0892   4
  -1  12  -8-33.0614 35.9694   1
  -1  12  -9 25.1754 36.9052   1
  -1  12 -10 1337.56 47.6458   1
  -1  12 -11 130.053 37.5134   1
  -1  12 -12 170.419 39.9122   1
  -1  12 -13 148.833 40.1642   1
  -1  12 -14 43.4991 40.3558   1
  -1  12 -15 59.7222 38.4196   1
  -1  12 -16-35.4169 38.2156   1
  -1  12 -17 151.698 44.1043   1
  -1  12 -18-14.6762 39.2279   1
  -1  12 -19-40.2594 43.0078   1
  -1  12 -20 95.8951 42.6397   1
  -1  12 -21 110.362 44.0671   1
   1 -11 -13 156.198 48.4447   2
  -1  11  12 76.7768 52.5606   4
   1 -11 -12 72.7888 45.1247   2
  -1  11  11 168.781 51.2306   4
   1 -11 -11 95.3405 42.5851   2
  -1  11  10 75.8012 48.6366   4
   1 -11 -10 115.105 43.9929   2
   1 -11  -9 140.714 41.3384   2
  -1  11   9-40.3919 44.0833   4
   1 -11  -8 93.3285 38.8169   2
  -1  11   8 72.1957 47.2719   4
  -1  11   7-23.7688 46.2237   4
   1 -11  -7-37.9323 36.5084   2
   1 -11  -6 29.2690 37.0988   2
  -1  11   6-4.75644 46.3044   4
   1 -11  -5 315.486 38.9858   2
  -1  11   5 272.234 47.7696   4
   1 -11  -4 775.044 41.1756   2
  -1  11   4 867.785 53.4295   4
   1 -11  -3 243.780 35.4377   2
  -1  11   3 271.377 49.8138   4
  -1  11   2 253.263 51.2490   4
   1 -11  -2 153.324 35.0359   2
  -1  11   1 873.676 55.9573   4
  -1  11   0 4219.99 74.6932   4
  -1  11  -1 338.120 32.2891   5
  -1  11  -1 306.021 51.0584   4
  -1  11  -2 333.406 33.1799   1
  -1  11  -2 474.380 49.5721   4
  -1  11  -3-29.9259 45.4034   4
  -1  11  -3-6.56968 31.2927   1
  -1  11  -4 94.6093 46.2137   4
  -1  11  -4 103.834 29.1536   1
  -1  11  -5 160.844 33.1954   1
  -1  11  -5 191.622 45.6349   4
  -1  11  -6 25.8740 45.2334   4
  -1  11  -6 18.9766 31.1100   1
  -1  11  -7 9.03849 33.9834   1
  -1  11  -8 659.786 39.3412   1
  -1  11  -9 120.440 34.4252   1
  -1  11 -10 6.83821 37.0577   1
  -1  11 -11 617.651 43.5458   1
  -1  11 -12 90.7281 39.6018   1
  -1  11 -13 470.361 43.2082   1
  -1  11 -14 3.64207 38.5772   1
  -1  11 -15 31.1399 39.1983   1
  -1  11 -16 52.1387 38.4005   1
  -1  11 -17 11.2778 40.3112   1
  -1  11 -18-47.4640 41.3979   1
  -1  11 -19 94.5443 40.3657   1
  -1  11 -20 114.232 42.8036   1
  -1  11 -21-44.7224 40.5422   1
  -1  11 -22-6.87572 38.2167   1
  -1  10  12 149.518 52.1404   4
  -1  10  11 119.820 48.8465   4
  -1  10  10 167.264 47.2663   4
  -1  10   9-21.6551 46.3734   4
  -1  10   8 20.7028 45.1957   4
   1 -10  -7 117.118 39.4538   2
  -1  10   7 46.0766 47.2497   4
   1 -10  -6 6.42798 37.2518   2
  -1  10   6-14.8772 45.1161   4
  -1  10   5 21.4511 46.0099   4
   1 -10  -5 85.1305 36.2766   2
   1 -10  -4 1450.27 44.7958   2
  -1  10   4 1501.93 55.9625   4
   1 -10  -3-13.5051 33.4766   2
  -1  10   3 12.2459 48.5424   4
  -1  10   2 862.059 52.9919   4
   1 -10  -2 753.960 37.0769   2
   1 -10  -1-23.0007 30.6969   2
  -1  10   1-10.9996 26.1368   5
  -1  10   0 259.433 47.8619   4
   1 -10   0 218.432 29.7416   2
  -1  10   0 211.988 27.9486   5
  -1  10  -1 270.837 44.6796   4
  -1  10  -1 272.001 29.9369   5
   1 -10   1 235.664 26.4796   2
  -1  10  -2 110.568 29.3119   1
  -1  10  -2 147.293 44.8182   4
   1 -10   2 143.953 23.4759   2
  -1  10  -3 159.055 30.0090   1
  -1  10  -3 173.460 43.9311   4
  -1  10  -4 90.8292 27.6241   1
  -1  10  -4 66.3533 42.4927   4
  -1  10  -5 199.162 41.6018   4
  -1  10  -5 148.418 28.8298   1
  -1  10  -6 25.9106 28.8110   1
  -1  10  -6 18.4045 42.6193   4
  -1  10  -7 121.647 32.8253   1
  -1  10  -8 33.1090 31.9071   1
  -1  10  -9 532.565 37.1076   1
  -1  10 -10 965.219 42.3260   1
  -1  10 -11 569.606 41.8300   1
  -1  10 -12 1376.70 47.4534   1
  -1  10 -13-32.2014 35.7486   1
  -1  10 -14-18.4667 36.9555   1
  -1  10 -15 159.511 39.4249   1
  -1  10 -16-49.7674 39.3997   1
  -1  10 -17 448.680 44.8432   1
  -1  10 -18 100.677 39.8431   1
  -1  10 -19 417.389 46.2653   1
  -1  10 -22 65.6236 41.5865   1
  -1  10 -23 65.1197 41.3203   1
  -1   9  15-32.9512 50.8788   4
  -1   9  14 27.4485 51.0555   4
  -1   9  11 54.6253 48.6970   4
  -1   9  10 341.321 48.3316   4
  -1   9   9-28.1115 45.9833   4
  -1   9   8 39.8580 46.3420   4
  -1   9   7 20.0935 44.2050   4
  -1   9   6 596.564 49.7134   4
  -1   9   5 3415.71 64.7524   4
  -1   9   4 33.3207 43.9237   4
   1  -9  -4 33.2210 32.5843   2
   1  -9  -3 204.462 32.3464   2
  -1   9   3 179.879 43.0045   4
  -1   9   2 740.253 27.5264   5
   1  -9  -2 751.728 33.2523   2
  -1   9   2 817.389 46.6505   4
  -1   9   1 235.940 41.6518   4
  -1   9   1 261.987 24.9389   5
   1  -9  -1 192.595 28.2462   2
   1  -9   0 537.858 29.2278   2
  -1   9   0 537.381 44.1573   4
  -1   9   0 530.587 27.6714   5
   1  -9   1 261.413 25.8482   2
  -1   9  -1 279.434 41.4893   4
  -1   9  -2 28.6486 25.5510   1
   1  -9   2 65.2092 21.1373   2
  -1   9  -2 21.9414 38.2882   4
   1  -9   3 11.2485 18.4743   2
  -1   9  -3-15.7881 37.7281   4
  -1   9  -3 4.64207 25.4949   1
   1  -9   4 305.879 20.5370   2
  -1   9  -4 324.899 38.2368   4
  -1   9  -4 290.116 26.6029   1
  -1   9  -5 155.294 27.6301   1
   1  -9   5 166.120 18.2905   2
  -1   9  -5 183.680 37.3200   4
  -1   9  -6 41.3976 37.6866   4
  -1   9  -6 41.2757 29.0891   1
  -1   9  -7 533.008 34.4197   1
  -1   9  -8 228.820 34.2396   1
  -1   9  -9 849.465 38.5163   1
  -1   9 -10 79.6871 31.8994   1
  -1   9 -11 24.8260 35.0270   1
  -1   9 -12 472.993 41.0473   1
  -1   9 -13-15.7547 36.7677   1
  -1   9 -14-5.10435 37.6488   1
  -1   9 -15-32.7468 38.1836   1
  -1   9 -16 290.784 42.1918   1
  -1   9 -17 68.8833 39.5216   1
  -1   9 -18 101.061 38.2464   1
  -1   9 -19 49.4002 40.0160   1
  -1   9 -20-17.8678 35.9824   1
  -1   9 -21 11.8379 39.8428   1
  -1   9 -22 76.4126 43.5178   1
  -1   9 -23 183.882 43.5969   1
   1  -9  23 558.949 46.3410   4
  -1   8  16 220.298 52.1850   4
  -1   8  15 89.2696 50.9856   4
  -1   8  14 35.8820 49.9286   4
  -1   8  13 29.2639 47.8840   4
  -1   8  12-38.3190 47.9959   4
  -1   8  11 14.9173 47.0505   4
  -1   8  10 30.4516 46.4680   4
  -1   8   9 71.2303 46.3371   4
  -1   8   8 1259.93 54.0355   4
  -1   8   7 572.499 49.4703   4
  -1   8   6 104.613 43.2871   4
  -1   8   5 71.8125 41.3203   4
  -1   8   4 322.147 41.6364   4
  -1   8   3 64.3266 38.3795   4
  -1   8   3 17.0511 20.1911   5
   1  -8  -2 377.341 27.4241   2
  -1   8   2 339.984 22.7692   5
  -1   8   2 360.108 37.2934   4
  -1   8   1-1.19335 21.2585   5
   1  -8  -1 11.7070 23.7073   2
  -1   8   1 7.50139 35.2103   4
  -1   8   0 511.348 25.5131   5
  -1   8   0 522.019 37.2818   4
   1  -8   0 574.213 25.8421   2
  -1   8   0 533.159 19.4594   6
   1  -8   1 1008.44 26.9235   2
  -1   8  -1 854.308 19.5467   6
  -1   8  -1 1019.19 40.9818   4
  -1   8  -2 242.513 24.7702   1
  -1   8  -2 236.733 35.2059   4
  -1   8  -2 255.380 14.7362   6
   1  -8   2 279.927 20.1726   2
   1  -8   3 732.194 21.9222   2
  -1   8  -3 765.683 37.7592   4
  -1   8  -3 751.455 29.5450   1
  -1   8  -4 48.3248 34.3369   4
  -1   8  -4 8.56704 24.6311   1
   1  -8   4 24.1588 17.0724   2
   1  -8   5 2125.66 27.5296   2
  -1   8  -5 2271.55 46.0260   4
  -1   8  -5 2218.57 37.8141   1
   1  -8   6 1501.31 24.1717   2
  -1   8  -6 1495.53 36.6310   1
   1  -8   7 1041.87 21.8733   2
  -1   8  -7 1198.77 34.7789   1
  -1   8  -8 14.2941 28.2763   1
   1  -8   8 5.74815 16.2878   2
  -1   8  -9 1962.38 44.1704   1
   1  -8   9 1908.99 27.5062   2
  -1   8 -10 1313.08 39.7386   1
  -1   8 -11 699.409 39.6695   1
  -1   8 -12 1.20513 33.2906   1
  -1   8 -13 6275.53 72.6573   1
  -1   8 -14 543.884 43.2082   1
  -1   8 -15 464.558 42.0325   1
  -1   8 -16 612.669 41.5135   1
  -1   8 -17 253.182 40.0535   1
  -1   8 -18 243.406 39.0932   1
  -1   8 -19 19.2930 38.5462   1
  -1   8 -20-61.7909 37.8883   1
  -1   8 -21 74.3775 42.0057   1
  -1   8 -22 131.586 40.5932   1
  -1   8 -23-33.8996 38.5092   1
   1  -8  23 188.480 41.2000   4
   1  -8  24 211.992 44.3643   4
  -1   7  17 141.702 52.2698   4
  -1   7  16 267.397 53.3441   4
  -1   7  15 114.683 49.8036   4
  -1   7  14 120.489 48.9749   4
  -1   7  13 49.9069 47.5099   4
  -1   7  12 95.4025 45.8830   4
  -1   7  11-22.4240 45.3771   4
  -1   7  10 164.233 45.0826   4
  -1   7   9 25.1384 44.5939   4
  -1   7   8-23.2743 44.8748   4
  -1   7   7 162.429 42.2166   4
  -1   7   6 534.580 42.6075   4
  -1   7   5 458.472 41.6035   4
  -1   7   4 72.2874 35.3450   4
  -1   7   4 43.8595 17.0329   5
  -1   7   3 898.523 23.5215   5
  -1   7   3 960.611 39.4293   4
  -1   7   2 792.115 24.2746   5
  -1   7   2 789.588 36.6418   4
  -1   7   1 348.403 32.2402   4
   1  -7  -1 380.619 24.0687   2
  -1   7   1 372.619 22.5084   5
  -1   7   0 908.166 25.7756   5
   1  -7   0 1014.27 24.9174   2
  -1   7   0 910.091 36.0794   4
   1  -7   1 1311.02 26.1237   2
  -1   7  -1 1187.44 20.2934   6
  -1   7  -1 1359.56 37.7305   4
  -1   7  -2 1677.49 39.7370   4
  -1   7  -2 1541.11 20.5405   6
  -1   7  -2 1642.72 32.1449   1
   1  -7   2 1559.12 24.9649   2
  -1   7  -3 8725.04 63.5310   4
  -1   7  -3 8564.58 56.5082   1
   1  -7   3 8140.86 44.0046   2
   1  -7   4 654.844 18.9080   2
  -1   7  -4 627.584 34.7284   4
  -1   7  -4 626.837 27.0748   1
  -1   7  -5 1717.03 41.6265   4
   1  -7   5 1654.60 23.5100   2
  -1   7  -5 1771.66 33.1154   1
   1  -7   6 11436.4 47.5143   2
  -1   7  -6 11321.4 68.5775   1
   1  -7   7 464.808 17.4738   2
  -1   7  -7 487.526 27.4513   1
   1  -7   8 63.6867 15.6860   2
  -1   7  -8 76.3307 25.4651   1
  -1   7  -9 779.558 33.6875   1
   1  -7   9 796.226 20.9902   2
   1  -7  10 3891.54 35.9392   2
  -1   7 -10 4100.68 52.2262   1
  -1   7 -11 4185.82 56.4286   1
  -1   7 -12 9.79763 32.8668   1
  -1   7 -13 948.026 42.6814   1
  -1   7 -14 1114.87 44.2095   1
  -1   7 -15 2530.39 53.4007   1
  -1   7 -16 206.446 39.0566   1
  -1   7 -17-9.01954 36.0129   1
  -1   7 -18 144.071 36.4372   1
  -1   7 -19 155.209 39.2337   1
   1  -7  20 163.940 38.2720   4
   1  -7  21 56.1829 40.4476   4
  -1   7 -21-4.56753 36.0049   1
  -1   7 -22-8.38515 37.0847   1
   1  -7  22-18.9834 38.0612   4
   1  -7  23 140.526 43.3242   4
  -1   7 -23 162.307 37.2969   1
   1  -7  24 98.0362 40.4439   4
  -1   7 -24-32.7272 37.6151   1
  -1   6  18 15.3921 51.5404   4
  -1   6  17 117.826 52.7887   4
  -1   6  16 106.249 50.2118   4
  -1   6  15-42.3426 46.8837   4
  -1   6  14-24.9203 46.2331   4
  -1   6  13 195.760 47.1435   4
  -1   6  12 1177.06 53.2265   4
  -1   6  11 134.294 45.9578   4
  -1   6  10 188.712 46.5113   4
  -1   6   9 207.598 44.6451   4
  -1   6   8 144.661 40.5061   4
  -1   6   7 66.5662 39.1021   4
  -1   6   6 181.108 37.0486   4
  -1   6   5 636.671 37.0695   4
  -1   6   5 571.661 19.5805   5
  -1   6   4 144.298 16.5083   5
  -1   6   4 174.150 32.7257   4
  -1   6   3 162.836 31.8219   4
  -1   6   3 165.505 17.4131   5
  -1   6   2 70.8360 17.7624   5
  -1   6   2 82.1848 29.0272   4
  -1   6   1 16.8480 18.5578   5
  -1   6   1 6.77208 27.9739   4
   1  -6   0 14040.7 56.9700   2
  -1   6   0 14429.1 71.9580   4
  -1   6   0 13902.6 59.4417   5
  -1   6  -1 5380.49 48.8857   4
  -1   6  -1 5157.96 30.9043   6
   1  -6   1 5312.98 35.9053   2
  -1   6  -2 224.974 27.9708   4
   1  -6   2 257.441 15.8780   2
  -1   6  -2 223.253 13.8008   6
  -1   6  -2 251.245 19.3208   1
  -1   6  -3 1282.37 33.7370   4
   1  -6   3 1196.24 19.9586   2
  -1   6  -3 1174.03 17.2527   6
  -1   6  -3 1274.14 26.6156   1
  -1   6  -4 15620.6 69.8609   1
  -1   6  -4 15568.0 74.5026   4
   1  -6   4 15023.7 49.7869   2
  -1   6  -5 1248.95 27.8737   1
   1  -6   5 1142.15 18.7988   2
  -1   6  -6 1499.94 31.8747   1
   1  -6   6 1460.61 20.4594   2
   1  -6   7 1221.92 20.3420   2
  -1   6  -7 1220.28 31.7009   1
  -1   6  -8 2814.49 40.5692   1
   1  -6   8 2737.33 27.6657   2
  -1   6  -9 8868.51 65.5611   1
   1  -6   9 8423.11 46.5789   2
  -1   6 -10-2.54387 26.5696   1
  -1   6 -11-14.1150 31.5246   1
  -1   6 -12 206.464 32.2193   1
  -1   6 -13 1198.62 40.5636   1
  -1   6 -14 189.227 35.9327   1
  -1   6 -15 42.8648 37.1586   1
  -1   6 -16 726.531 40.6693   1
  -1   6 -17 94.1124 38.2136   1
  -1   6 -18 63.4671 35.3985   1
   1  -6  19-18.1129 37.8531   4
  -1   6 -19 54.7404 35.5458   1
  -1   6 -20-28.4941 39.1868   1
   1  -6  20 172.948 39.3583   4
   1  -6  21 143.612 39.4378   4
   1  -6  22 120.555 39.2927   4
  -1   6 -23 135.777 36.8154   1
   1  -6  23-37.7870 41.3160   4
  -1   6 -24 1.38864 36.9444   1
  -1   5  19-39.0494 50.0963   4
  -1   5  18-34.1379 48.5480   4
  -1   5  17-43.8869 47.1111   4
  -1   5  16 187.123 47.6768   4
  -1   5  15 148.538 45.5588   4
  -1   5  14 86.6077 44.1907   4
  -1   5  13 276.646 46.2843   4
  -1   5  12-6.76551 44.7536   4
  -1   5  11 566.395 46.4477   4
  -1   5  10 340.656 42.8407   4
  -1   5   9 254.716 41.3625   4
  -1   5   8 243.339 37.6985   4
  -1   5   7 193.193 36.0396   4
  -1   5   6 78.7111 34.2114   4
  -1   5   5 29.2748 30.3079   4
  -1   5   4 1098.26 21.3912   5
  -1   5   4 1130.59 34.2407   4
  -1   5   3 1063.75 32.1040   4
  -1   5   3 1091.76 21.2496   5
  -1   5   2 4190.44 43.2432   4
  -1   5   2 4003.70 32.8283   5
  -1   5   1 10336.5 48.2946   5
  -1   5   1 10329.8 58.0863   4
  -1   5   0 16418.3 59.0619   5
  -1   5   0 16370.0 67.3560   4
   1  -5   0 16219.2 54.5601   2
   1  -5   1 5133.81 30.9064   2
  -1   5  -1 5150.02 28.6658   6
  -1   5  -1 5355.99 44.2295   4
  -1   5  -2 631.853 14.8864   6
  -1   5  -2 665.608 26.4388   4
   1  -5   2 691.123 15.0204   2
  -1   5  -2 645.978 20.4457   1
  -1   5  -3 335.797 18.7625   1
  -1   5  -3 332.859 25.0049   4
   1  -5   3 285.722 12.7345   2
  -1   5  -3 317.997 12.8207   6
   1  -5   4 1827.29 17.8648   2
  -1   5  -4 1894.39 28.8306   1
  -1   5  -4 1931.29 32.9287   4
   1  -5   5 16295.4 45.5493   2
  -1   5  -5 16309.1 68.6904   1
   1  -5   6 11866.8 42.6138   2
  -1   5  -6 12118.0 63.5128   1
  -1   5  -7 410.471 25.8157   1
   1  -5   7 423.873 16.0367   2
  -1   5  -8 7649.53 56.7921   1
  -1   5  -9 1134.79 31.4531   1
  -1   5 -10 1360.89 35.3544   1
  -1   5 -11 8.26304 26.3556   1
  -1   5 -12 106.658 29.2192   1
  -1   5 -13 21.7712 29.8650   1
  -1   5 -14 45.2361 32.8389   1
  -1   5 -15 29.5827 34.4796   1
  -1   5 -16-0.21360 36.9904   1
  -1   5 -17 33.1241 34.2435   1
  -1   5 -18 46.3845 34.8893   1
   1  -5  18 37.4681 38.3823   4
   1  -5  19 60.7752 39.1257   4
  -1   5 -19-53.5918 35.6326   1
   1  -5  20 26.9424 39.2356   4
  -1   5 -20-19.5834 36.9385   1
   1  -5  21 23.8987 39.2600   4
  -1   5 -21 53.1250 36.0549   1
  -1   5 -22-32.7654 35.9474   1
   1  -5  22-6.38352 39.0948   4
   1  -5  23 86.0889 42.2764   4
  -1   5 -23-24.1798 35.5331   1
  -1   5 -24 114.836 37.5681   1
  -1   4  20 195.515 50.2415   4
  -1   4  19 12.2365 47.8263   4
  -1   4  18 119.166 45.8720   4
  -1   4  17 173.255 45.9603   4
  -1   4  16 181.889 43.4769   4
  -1   4  15 144.443 43.5272   4
  -1   4  14 1190.58 52.8272   4
  -1   4  13 1559.26 54.6952   4
   1  -4 -12 167.999 24.7701   1
  -1   4  12 288.881 46.5667   4
  -1   4  11 1078.50 47.1077   4
   1  -4 -11 1037.85 31.3399   1
   1  -4 -10 159.419 21.2057   1
  -1   4  10 173.717 38.9562   4
   1  -4  -9 45.6460 19.4041   1
  -1   4   9 42.5718 35.5143   4
   1  -4  -8 29.1972 17.7540   1
  -1   4   8 22.1353 32.2202   4
  -1   4   7 278.084 32.4981   4
  -1   4   6 3495.17 45.7049   4
  -1   4   5 3668.47 43.8932   4
  -1   4   4 476.083 16.8618   5
  -1   4   4 452.517 28.0033   4
  -1   4   3 762.154 18.2048   5
  -1   4   3 754.015 27.8053   4
  -1   4   2 7601.49 38.6258   5
  -1   4   2 7780.42 48.6905   4
  -1   4   1 24562.3 76.3823   4
  -1   4   1 24540.4 65.4168   5
  -1   4   0 6353.97 36.5933   5
  -1   4   0 6512.50 32.0313   6
  -1   4   0 6458.28 41.4701   4
   1  -4   1 1469.67 17.2436   2
  -1   4  -1 1418.88 21.4680   1
  -1   4  -1 1433.93 17.7191   6
  -1   4  -1 1459.16 27.8936   4
  -1   4  -2 12722.7 39.8821   6
  -1   4  -2 13073.8 50.0541   1
  -1   4  -2 13244.1 54.9299   4
  -1   4  -3 1346.22 23.5373   1
  -1   4  -3 1326.71 27.5314   4
  -1   4  -4 7848.13 43.8823   1
   1  -4   5 295.725 12.1097   2
  -1   4  -5 314.152 19.8820   1
  -1   4  -6 3780.29 37.0032   1
  -1   4  -7 1334.38 28.0781   1
  -1   4  -8 13951.3 71.4861   1
  -1   4  -9 700.571 28.5934   1
  -1   4 -10 159.779 25.8689   1
  -1   4 -11 8.11657 25.7475   1
  -1   4 -12 50.1112 26.5993   1
  -1   4 -13-12.5812 31.0850   1
  -1   4 -14-22.9886 29.7196   1
  -1   4 -15-26.5339 34.8049   1
   1  -4  15-41.7038 35.7958   4
  -1   4 -16 345.965 38.4712   1
   1  -4  16 430.579 39.6704   4
   1  -4  17 39.6654 39.5121   4
  -1   4 -18-40.1665 36.1158   1
   1  -4  18 18.0698 38.1156   4
  -1   4 -19 204.758 36.2005   1
   1  -4  19 155.363 40.2901   4
   1  -4  20-44.4262 40.7621   4
  -1   4 -20-24.4962 34.8414   1
  -1   4 -21 3.59928 34.3424   1
   1  -4  21 99.2237 39.6456   4
  -1   4 -22 101.660 37.1328   1
   1  -4  23 59.2021 43.0151   4
  -1   4 -24 134.414 38.0503   1
  -1   3  20 648.950 54.0225   4
  -1   3  19 269.666 48.8458   4
  -1   3  18 217.429 45.8351   4
  -1   3  17 50.9559 44.1083   4
  -1   3  16 11.9527 44.2279   4
  -1   3  15 12.3422 43.2507   4
   1  -3 -14 114.510 26.9032   1
  -1   3  14 115.434 45.8048   4
  -1   3  13 1034.95 49.1979   4
   1  -3 -13 959.355 32.7702   1
  -1   3  12 545.507 43.8368   4
   1  -3 -12 483.483 27.4705   1
   1  -3 -11 298.945 23.0973   1
  -1   3  11 295.359 39.3823   4
   1  -3 -10 355.082 22.9010   1
  -1   3  10 296.651 38.2515   4
   1  -3  -9 1423.56 28.6613   1
  -1   3   9 1414.66 41.2626   4
   1  -3  -8 868.446 23.4716   1
  -1   3   8 827.835 36.5761   4
  -1   3   7 3215.83 45.5115   4
   1  -3  -7 3173.32 33.6109   1
  -1   3   6 5472.30 49.4651   4
   1  -3  -6 5351.80 38.5609   1
  -1   3   5 61.1833 24.4738   4
   1  -3  -5 62.1206 13.5569   1
  -1   3   4 958.429 26.2863   4
  -1   3   3 15.5321 22.2264   4
  -1   3   3 19.9684 14.0361   5
  -1   3   2 23335.1 69.5684   4
  -1   3   2 23229.0 58.3537   5
  -1   3   1 22422.7 57.7324   5
  -1   3   1 22459.1 63.8852   4
  -1   3   0 116007. 497.626   5
  -1   3   0 116889. 522.600   4
  -1   3   0 114623. 454.938   6
  -1   3  -1 35375.5 59.8761   6
  -1   3  -1 35884.9 73.5625   4
   1  -3   1 33636.1 174.639   0
  -1   3  -1 35612.2 65.7791   1
  -1   3  -2 182.266 13.6659   6
  -1   3  -2 227.774 19.5632   4
  -1   3  -2 222.876 15.8186   1
  -1   3  -3 12487.2 47.1675   1
  -1   3  -4 6775.44 39.0534   1
  -1   3  -5 12.6141 17.6226   1
  -1   3  -6 374.916 14.5239   3
  -1   3  -6 392.022 19.9884   1
  -1   3  -7 2034.04 30.1369   1
  -1   3  -7 1867.22 21.0279   3
  -1   3  -8 802.347 26.7709   1
  -1   3  -8 725.006 16.1283   3
  -1   3  -9 18653.9 85.0047   1
  -1   3  -9 17758.0 56.2910   3
  -1   3 -10 443.353 28.7438   1
  -1   3 -10 407.273 14.9028   3
  -1   3 -11 65.8818 12.2644   3
  -1   3 -11 89.1657 25.1104   1
  -1   3 -12 89.2703 28.7881   1
   1  -3  13 21.2986 30.5701   4
  -1   3 -13-21.1629 30.2008   1
  -1   3 -14-29.5971 29.5845   1
   1  -3  14-19.1547 31.8077   4
  -1   3 -15 66.6886 30.4527   1
   1  -3  15 53.9678 35.9560   4
  -1   3 -16 197.828 34.8393   1
   1  -3  16 185.568 38.2941   4
   1  -3  17 653.295 44.3213   4
  -1   3 -17 564.382 40.8678   1
   1  -3  18 258.161 40.6088   4
  -1   3 -18 344.873 39.7512   1
  -1   3 -19-6.08658 35.0683   1
   1  -3  19 72.8903 39.2879   4
   1  -3  20 6.28408 38.5872   4
  -1   3 -20 41.5936 34.4814   1
   1  -3  21-34.0000 38.9464   4
   1  -3  22 106.254 39.8291   4
  -1   3 -22 87.0159 35.2538   1
  -1   3 -23-61.3803 37.0579   1
  -1   3 -24 13.9519 36.2738   1
   1  -3  24 80.4617 45.7541   4
  -1   2  21 150.304 48.4094   4
  -1   2  20-32.1107 45.0584   4
  -1   2  18 13.2785 43.8987   4
  -1   2  17 8.45078 45.2349   4
  -1   2  16-20.5071 44.3923   4
   1  -2 -15 913.273 34.4046   1
  -1   2  15 810.844 49.6058   4
   1  -2 -14-18.2544 25.9512   1
  -1   2  13 55.8420 41.8339   4
   1  -2 -13 63.6946 25.0055   1
   1  -2 -12 7.19545 21.2002   1
  -1   2  12-12.8861 37.8042   4
   1  -2 -11 4.32984 21.1879   1
  -1   2  11 0.47162 35.4305   4
   1  -2 -10 404.715 23.1763   1
  -1   2  10 394.312 35.9143   4
  -1   2   9 61.7469 30.9867   4
   1  -2  -9 78.7592 18.6015   1
  -1   2   8 331.262 30.8033   4
   1  -2  -8 350.385 19.2820   1
  -1   2   7 2523.03 39.4749   4
   1  -2  -7 2455.33 29.3582   1
  -1   2   6 13684.4 66.0011   4
   1  -2  -6 13489.2 53.8373   1
   1  -2  -5 1906.30 22.0173   1
  -1   2   5 1884.01 30.8358   4
  -1   2   4 284.939 22.7098   4
   1  -2  -4 285.657 12.7496   1
  -1   2   3 62777.4 414.564   4
   1  -2  -3 65194.1 324.897   1
  -1   2   2 39323.5 76.0592   4
  -1   2   2 38977.2 68.1454   5
  -1   2   1 522.608 17.0435   4
  -1   2   1 491.550 15.0142   5
  -1   2   0 3545.04 15.8480   0
  -1   2   0 3613.33 22.3863   4
  -1   2   0 3622.01 23.0741   5
  -1   2   0 3597.73 22.1416   6
  -1   2  -1 4235.75 23.1607   4
   1  -2   1 4140.44 19.0683   0
  -1   2  -2 4158.48 24.7814   3
  -1   2  -2 4323.04 23.8923   1
  -1   2  -2 4344.36 24.4202   4
  -1   2  -3 6287.09 32.3577   1
  -1   2  -3 6067.41 29.2055   3
  -1   2  -4 2402.18 26.4099   1
  -1   2  -4 2145.30 21.4178   3
  -1   2  -5 15483.7 46.9321   3
  -1   2  -5 15760.1 59.5642   1
  -1   2  -6 1055.63 16.7982   3
  -1   2  -6 1178.26 24.2913   1
  -1   2  -7 188.540 19.3136   1
  -1   2  -7 155.223 11.5295   3
  -1   2  -8 1572.97 30.5079   1
  -1   2  -8 1509.51 18.7570   3
  -1   2  -9 351.437 13.5692   3
  -1   2  -9 371.873 24.5333   1
  -1   2 -10 4600.20 48.2230   1
  -1   2 -10 4195.50 29.4307   3
   1  -2  10 4571.80 46.1572   4
   1  -2  11 803.821 30.6142   4
  -1   2 -11 724.437 16.2363   3
  -1   2 -11 774.229 30.5974   1
  -1   2 -12-5.59993 25.5006   1
   1  -2  12-16.7218 29.5761   4
   1  -2  13 72.8120 30.6544   4
  -1   2 -13 75.0183 26.3454   1
  -1   2 -14-12.4249 29.5538   1
   1  -2  14 17.1725 31.8157   4
   1  -2  15 878.892 39.8107   4
  -1   2 -15 953.482 41.3889   1
  -1   2 -16 40.7660 33.3394   1
   1  -2  16 138.868 38.6299   4
   1  -2  17 903.894 46.6299   4
  -1   2 -17 953.286 42.5933   1
  -1   2 -18-49.5962 34.4542   1
   1  -2  18 18.6063 40.5698   4
   1  -2  19 34.8465 39.1201   4
  -1   2 -19 88.5050 34.2439   1
   1  -2  20 15.3343 38.5551   4
  -1   2 -20-45.1398 33.2733   1
  -1   2 -21 104.233 35.4211   1
   1  -2  22 167.230 42.9927   4
  -1   2 -22 37.2366 33.7775   1
  -1   2 -23 143.098 37.0805   1
  -1   1  21 8.12368 48.2196   4
  -1   1  19-22.6284 44.2698   4
  -1   1  18-29.3920 43.2746   4
  -1   1  17 126.007 44.5122   4
  -1   1  16 171.907 44.5833   4
   1  -1 -16 229.598 30.3366   1
  -1   1  15-12.6739 43.8880   4
   1  -1 -15 51.8762 27.4347   1
   1  -1 -14 354.359 27.9391   1
  -1   1  14 277.062 45.0339   4
  -1   1  13 1019.24 45.7430   4
   1  -1 -13 982.711 31.5081   1
   1  -1 -12 1882.09 36.1683   1
  -1   1  12 1965.59 47.2204   4
   1  -1 -11 3380.55 41.9220   1
  -1   1  11 3429.02 51.3571   4
   1  -1 -10 19.4388 19.5086   1
  -1   1  10 6.76414 31.5279   4
  -1   1   9 7086.49 58.2300   4
   1  -1  -9 7031.00 49.2667   1
  -1   1   8 1006.93 33.2964   4
   1  -1  -8 1030.77 22.7357   1
  -1   1   7-11.9584 23.8551   4
   1  -1  -7 5.18127 13.5822   1
   1  -1  -6 205.314 14.1566   1
  -1   1   6 171.125 22.7553   4
  -1   1   5 23460.9 71.9109   4
   1  -1  -5 23562.3 59.1816   1
  -1   1   4 32434.5 76.9179   4
   1  -1  -4 32471.1 59.8858   1
  -1   1   3 11117.5 42.7977   4
  -1   1   2 145.837 14.4751   4
  -1   1   1 1146.77 14.4521   5
  -1   1   1 1212.58 15.2439   6
   1  -1   1 10820.6 29.7113   0
  -1   1  -1 10863.7 29.4083   0
  -1   1  -2 15297.6 39.6360   1
  -1   1  -2 15073.8 38.0203   3
  -1   1  -3 20155.5 52.8270   1
  -1   1  -3 19767.7 45.6299   3
  -1   1  -4 22351.5 62.5490   1
  -1   1  -4 22132.2 51.6250   3
  -1   1  -5 10636.1 49.9709   1
  -1   1  -5 10413.3 38.2148   3
   1  -1   6 794.842 21.0201   4
  -1   1  -6 761.207 22.4379   1
  -1   1  -7 4850.46 40.5348   1
   1  -1   7 4887.34 37.0726   4
  -1   1  -8 76.6683 20.7588   1
   1  -1   8 56.8250 21.4971   4
   1  -1   9 825.944 28.8727   4
  -1   1  -9 840.107 27.0508   1
  -1   1 -10 27.0910 23.5325   1
   1  -1  10 8.99977 25.5776   4
  -1   1 -11 33.7540 24.3434   1
   1  -1  11-2.54968 27.3431   4
  -1   1 -11 12.8913 11.9975   3
   1  -1  12 1972.45 41.2854   4
  -1   1 -12 1924.86 39.7925   1
  -1   1 -13 264.090 31.2220   1
   1  -1  13 239.353 32.7946   4
   1  -1  14 236.699 36.4340   4
  -1   1 -14 169.288 29.6307   1
   1  -1  15 12.6521 35.4622   4
  -1   1 -15 10.1260 32.4269   1
   1  -1  16 594.906 42.7173   4
  -1   1 -16 524.227 38.0213   1
   1  -1  17 2649.75 56.7568   4
  -1   1 -17 2527.18 53.7279   1
   1  -1  18 93.4274 41.9791   4
  -1   1 -18 248.879 35.9408   1
   1  -1  19 63.6905 40.7271   4
  -1   1 -19-0.93034 31.3240   1
  -1   1 -20 74.6208 36.9459   1
   1  -1  21 111.741 40.8253   4
  -1   1 -21 95.9436 33.6110   1
  -1   1 -22 59.6790 36.7010   1
  -1   1 -23-19.5836 30.1912   1
   1  -1  23 7.83179 43.8140   4
  -1   0  22 12.8531 46.6447   4
  -1   0  20 68.3069 44.1140   4
  -1   0  18-15.8905 43.4133   4
   1   0 -17 4.96254 27.5502   1
  -1   0  17 16.2930 42.7342   4
   1   0 -16 16.3959 24.8008   1
   1   0 -15 1978.28 42.5445   1
  -1   0  15 1940.40 53.7262   4
   1   0 -14 49.4647 25.4753   1
  -1   0  14-30.5221 41.7164   4
   1   0 -13 625.281 27.7512   1
  -1   0  13 549.131 43.3321   4
   1   0 -12 359.971 24.8501   1
  -1   0  12 413.331 38.3510   4
  -1   0  11 2630.37 46.5432   4
   1   0 -11 2598.81 37.2062   1
  -1   0  10 4.94914 31.1151   4
   1   0 -10 51.8253 19.3035   1
   1   0  -9 1706.03 28.2477   1
  -1   0   9 1602.64 37.6412   4
   1   0  -8 5166.00 38.6408   1
  -1   0   8 5342.81 46.5774   4
   1   0  -7 1013.08 20.8876   1
  -1   0   7 1103.98 27.9466   4
   1   0  -6 8343.53 40.9166   1
  -1   0   6 8401.94 48.1632   4
   1   0  -5 54.3651 12.5813   1
  -1   0   5 63.4452 20.2167   4
   1   0  -4 18201.0 45.5678   1
  -1   0   4 18467.2 55.2955   4
  -1   0   3 86491.9 407.651   2
  -1   0   3 83539.9 385.147   4
  -1   0   2 164.018 11.9360   2
   1   0   1 7251.58 27.2958   0
  -1   0  -1 7387.50 27.0477   0
  -1   0  -2 9284.14 34.2357   1
  -1   0  -3 2544.15 23.5952   1
   1   0   3 2584.24 19.7628   4
   1   0   4 5380.27 30.4916   4
  -1   0  -4 5660.33 35.5111   1
  -1   0  -5 2166.72 28.2459   1
   1   0   5 2120.30 25.6521   4
   1   0   6 1446.18 24.8844   4
  -1   0  -6 1532.99 26.4384   1
  -1   0  -7 202.486 20.5165   1
   1   0   7 204.977 21.3209   4
   1   0   8 10.5049 22.4771   4
  -1   0  -8 17.4361 18.7650   1
   1   0   9 1827.44 34.7337   4
  -1   0  -9 1831.70 34.9036   1
  -1   0 -10 1204.00 32.3218   1
   1   0  10 1169.90 33.5218   4
   1   0  11 326.320 30.6838   4
  -1   0 -11 336.874 26.7484   1
  -1   0 -12 127.884 25.5213   1
   1   0  12 169.977 31.4264   4
  -1   0 -13 77.6815 27.0988   1
   1   0  13 59.6772 33.1265   4
   1   0  14 3631.42 55.4574   4
  -1   0 -14 3644.28 55.5394   1
  -1   0 -15 24.2688 32.5551   1
   1   0  15 35.4412 37.3378   4
   1   0  16 518.992 43.9069   4
  -1   0 -16 624.642 41.3576   1
  -1   0 -17 942.257 43.9900   1
   1   0  17 896.173 48.5063   4
  -1   0 -18 86.4849 34.3957   1
   1   0  18 86.1239 41.0473   4
  -1   0 -19 124.726 32.7358   1
  -1   0 -20-45.1032 32.7663   1
   1   0  20 20.4308 40.4549   4
  -1   0 -21-6.65396 33.1035   1
  -1   0 -22 154.426 34.2888   1
   1   0  22-42.7243 42.8432   4
  -1  -1  21-37.5340 43.8556   4
  -1  -1  20-47.9468 42.6467   4
   1   1 -19 48.1119 27.5940   1
   1   1 -18 53.9402 29.6796   1
  -1  -1  18 95.8298 42.3503   4
  -1  -1  17 2.84752 40.2077   4
   1   1 -17 24.4086 28.6609   1
   1   1 -16 119.278 29.2769   1
  -1  -1  16 132.750 43.0806   4
   1   1 -15 170.278 28.7108   1
  -1  -1  15 106.191 42.6175   4
   1   1 -14 2984.45 46.4320   1
  -1  -1  14 2971.57 57.5811   4
   1   1 -13 2545.63 40.0485   1
  -1  -1  13 2475.23 50.8507   4
   1   1 -12 325.715 25.6901   1
  -1  -1  12 319.580 35.6632   4
   1   1 -11 50.2447 19.9856   1
  -1  -1  11 65.3170 31.9225   4
   1   1 -10 16661.5 76.7075   1
  -1  -1  10 16446.2 82.0365   4
  -1  -1   9 15346.9 74.7215   4
   1   1  -9 15079.6 68.2870   1
   1   1  -8 298.946 18.5390   1
  -1  -1   8 324.543 24.9034   4
   1   1  -7 3858.28 33.5940   1
  -1  -1   7 3900.91 37.6912   4
  -1  -1   6 7730.43 44.9659   2
   1   1  -6 7592.36 40.8571   1
  -1  -1   5 232.826 20.1808   2
   1   1  -5 212.991 14.7188   1
   1   1  -4 13.0919 12.3359   1
  -1  -1   4 32.9194 17.8183   2
   1   1  -3 2453.24 19.3178   1
  -1  -1   3 2496.16 22.7360   2
  -1  -1   2 6550.71 28.9186   2
  -1  -1   1 22368.6 47.0885   2
  -1  -1   0 3249.66 21.2525   2
  -1  -1  -1 8320.15 32.4392   2
   1   1   1 8241.31 30.6914   0
  -1  -1  -1 8581.85 30.7051   0
   1   1   2 895.347 17.5429   0
   1   1   2 911.172 15.4245   4
  -1  -1  -2 916.738 17.9282   1
   1   1   3 21885.7 53.9500   4
  -1  -1  -3 21806.0 63.8921   1
   1   1   4 2570.64 26.5970   4
  -1  -1  -4 2624.70 28.3602   1
  -1  -1  -5 23.7587 16.7824   1
   1   1   5 8.50936 18.1395   4
  -1  -1  -6 446.307 21.6403   1
   1   1   6 429.217 21.6994   4
  -1  -1  -7 102.162 20.9645   1
   1   1   7 112.810 21.2743   4
   1   1   8 246.052 25.1482   4
  -1  -1  -8 232.918 22.2064   1
  -1  -1  -9 21.6363 21.5590   1
   1   1   9 14.9654 26.8370   4
   1   1  10 1075.65 34.4346   4
  -1  -1 -10 1075.74 31.6837   1
   1   1  11 120.330 31.5818   4
  -1  -1 -11 110.380 28.0120   1
   1   1  12 214.407 34.2035   4
  -1  -1 -12 192.377 28.2890   1
   1   1  13 789.221 41.8163   4
  -1  -1 -13 842.492 37.5121   1
  -1  -1 -14 41.9127 30.5771   1
   1   1  14-8.21608 36.6305   4
  -1  -1 -15 1053.40 40.2251   1
   1   1  15 1022.80 45.6571   4
  -1  -1 -16 165.437 33.0723   1
   1   1  16 179.993 39.9071   4
   1   1  17 226.962 43.2616   4
  -1  -1 -17 346.205 35.5361   1
   1   1  18 52.7011 42.1584   4
  -1  -1 -18 108.054 33.1270   1
   1   1  19 233.495 43.2285   4
  -1  -1 -19 139.000 33.2860   1
  -1  -1 -20-18.0778 31.0028   1
  -1  -1 -21 109.425 32.8451   1
   1   1  22 79.2118 44.0011   4
  -1  -2  21 39.3867 43.0640   4
   1   2 -20 66.8497 29.5360   1
   1   2 -19 0.28423 29.6138   1
  -1  -2  19-7.86508 44.0302   4
  -1  -2  18-11.4015 42.0558   4
   1   2 -18 1.32104 29.6663   1
  -1  -2  17 178.210 41.5748   4
   1   2 -17 181.935 31.0813   1
   1   2 -16 923.092 35.7384   1
  -1  -2  16 888.842 48.5044   4
   1   2 -15 20.5978 28.5211   1
  -1  -2  15 9.95004 41.5397   4
   1   2 -14 898.173 33.4630   1
  -1  -2  14 889.352 45.7151   4
  -1  -2  13 1828.23 47.8834   4
   1   2 -13 1975.85 39.9238   1
   1   2 -12 1821.22 36.9196   1
  -1  -2  12 1852.63 43.7306   4
   1   2 -11 403.197 24.2704   1
  -1  -2  11 394.928 33.6233   4
   1   2 -10-18.3952 22.7183   1
  -1  -2  10-12.3839 30.2419   4
   1   2  -9 9095.15 57.3072   1
   1   2  -8 3985.50 37.6448   1
  -1  -2   8 4168.42 39.1600   2
   1   2  -7 5220.85 38.4105   1
  -1  -2   7 5311.33 40.1130   2
  -1  -2   6 1176.43 24.7041   2
   1   2  -6 1129.46 22.1970   1
   1   2  -5 77.6020 16.4540   1
  -1  -2   5 87.2001 18.6747   2
   1   2  -4 68109.1 414.133   1
  -1  -2   4 68116.6 417.940   2
   1   2  -3 3408.30 27.0867   1
  -1  -2   3 3383.76 27.1497   2
  -1  -2   2 246.146 17.1200   2
   1   2  -1 4.92528 15.1896   4
  -1  -2   1 8.85891 15.7754   2
   1   2   0 30837.3 59.9378   4
  -1  -2   0 31551.4 66.6906   2
   1   2   1 32033.6 62.6885   4
  -1  -2  -1 32391.1 59.6743   0
  -1  -2  -1 32402.3 71.7616   2
   1   2   1 32103.8 61.8007   0
   1   2   2 3205.60 27.7024   4
   1   2   2 3201.82 25.3481   0
  -1  -2  -2 3297.02 30.9688   2
   1   2   3 881.619 21.1481   4
  -1  -2  -3 856.533 21.6583   1
  -1  -2  -4 804.658 22.2793   1
   1   2   4 762.354 21.2779   4
   1   2   5 2848.18 32.1292   4
  -1  -2  -5 2963.96 33.8533   1
   1   2   6 89.6678 22.2591   4
  -1  -2  -6 68.0245 18.6404   1
  -1  -2  -7 6.32369 20.8776   1
   1   2   7-4.18563 24.5453   4
  -1  -2  -8 1465.46 32.9947   1
   1   2   8 1433.07 34.2530   4
  -1  -2  -9 1215.03 33.9218   1
   1   2   9 1221.84 35.5943   4
   1   2  10 1337.27 39.6705   4
  -1  -2 -10 1287.93 36.1058   1
  -1  -2 -11 716.288 33.7938   1
   1   2  11 719.870 37.5896   4
   1   2  12 402.917 38.7170   4
  -1  -2 -12 383.950 32.5152   1
  -1  -2 -13-0.45604 29.8983   1
   1   2  13-32.6844 36.7927   4
  -1  -2 -14 21.7574 29.0910   1
  -1  -2 -15 9.60264 33.1080   1
  -1  -2 -16 235.269 35.7180   1
   1   2  16 149.073 41.2659   4
   1   2  17 73.9109 40.8649   4
  -1  -2 -17 8.89080 29.6651   1
  -1  -2 -18-43.5073 31.1180   1
   1   2  18 66.4588 43.4611   4
  -1  -2 -19 57.1967 32.0467   1
   1   2  19 157.639 44.0182   4
   1   2  20 431.728 45.9767   4
  -1  -2 -20 89.6527 32.9257   1
   1   2  21 332.621 47.0005   4
  -1  -3  23 0.18584 44.0928   4
  -1  -3  22 19.1232 45.0988   4
   1   3 -21 113.474 31.5942   1
   1   3 -20 205.410 34.4936   1
  -1  -3  20 315.388 46.6809   4
   1   3 -19 117.024 31.0151   1
  -1  -3  19 48.4080 42.3674   4
  -1  -3  18 28.4815 41.4668   4
   1   3 -18 41.2111 27.2635   1
  -1  -3  17 44.7191 41.3695   4
   1   3 -17 7.71810 30.4650   1
   1   3 -16 221.068 31.2990   1
  -1  -3  16 201.800 43.5901   4
   1   3 -15 4352.92 57.3439   1
  -1  -3  15 4491.09 64.0452   4
   1   3 -14 1941.14 42.5404   1
  -1  -3  14 1847.19 50.6348   4
   1   3 -13 41.7812 25.5710   1
  -1  -3  13 20.3723 38.0041   4
   1   3 -12 51.3230 24.1791   1
   1   3 -11 761.529 27.9624   1
   1   3 -10 14.4339 21.3164   1
   1   3  -9 66.2242 21.5736   1
  -1  -3   9 106.069 24.2002   2
  -1  -3   8 17.0058 20.4825   2
   1   3  -8 5.46420 18.1719   1
  -1  -3   7 23.3979 19.6504   2
   1   3  -7 4.71392 18.2850   1
   1   3  -6 3.34337 17.7766   1
  -1  -3   6 25.5994 18.7599   2
   1   3  -5 281.573 19.8848   1
  -1  -3   5 292.943 20.0012   2
   1   3  -4 95.7836 17.7163   1
  -1  -3   4 109.482 18.0090   2
  -1  -3   3 10.9950 17.2555   2
   1   3  -2 174.673 21.1547   4
  -1  -3   2 157.694 19.0551   2
   1   3  -1 464.838 22.5896   4
  -1  -3   1 503.166 20.3537   2
   1   3   0 59.9657 18.9764   4
  -1  -3   0 46.2425 20.6101   2
   1   3   1 8670.50 42.7594   4
  -1  -3  -1 8979.13 46.0201   2
  -1  -3  -1 8642.25 34.6224   0
   1   3   2 269.193 14.6493   0
   1   3   2 280.346 20.3199   4
  -1  -3  -2 298.823 22.1807   2
   1   3   3 755.107 23.8628   4
   1   3   3 808.044 17.5742   0
   1   3   4-5.75797 20.0104   4
   1   3   5 2287.37 33.2067   4
  -1  -3  -5 2332.74 33.0622   1
  -1  -3  -6 435.533 23.4294   1
   1   3   6 382.346 25.4987   4
   1   3   7 1450.20 34.0633   4
  -1  -3  -7 1462.38 32.4163   1
   1   3   8 1063.15 33.8717   4
  -1  -3  -8 1052.98 32.1474   1
   1   3   9 1357.98 37.9789   4
  -1  -3  -9 1287.39 36.1999   1
   1   3  10 134.489 32.7154   4
  -1  -3 -10 80.8208 27.1855   1
   1   3  11 898.009 41.8610   4
  -1  -3 -11 782.529 34.5515   1
   1   3  12 181.600 38.2493   4
  -1  -3 -12-22.2516 30.0842   1
   1   3  13 501.355 43.1941   4
  -1  -3 -13 407.358 35.7741   1
  -1  -3 -14 1628.02 46.9243   1
   1   3  14 1988.50 54.7684   4
   1   3  15 90.7355 42.5152   4
  -1  -3 -15 70.0693 31.9889   1
  -1  -3 -16 33.0640 32.6974   1
   1   3  16 125.216 42.1714   4
  -1  -3 -17 146.881 33.3534   1
   1   3  17 223.722 43.9537   4
  -1  -3 -18 109.330 31.5478   1
   1   3  18 223.208 42.7853   4
   1   3  19 235.393 43.7222   4
   1   3  20 138.315 44.6812   4
   1   3  21 200.943 45.8587   4
  -1  -4  22 133.537 45.4750   4
   1   4 -22-18.8933 34.5084   1
  -1  -4  21-4.52980 44.9560   4
   1   4 -21-8.51757 31.1846   1
  -1  -4  20 35.0535 44.7362   4
   1   4 -20 51.5406 32.3197   1
  -1  -4  19 170.667 43.3264   4
   1   4 -19 77.4935 32.6682   1
   1   4 -18 673.100 39.6009   1
  -1  -4  18 713.217 46.9036   4
  -1  -4  17 996.261 48.0139   4
   1   4 -17 1002.01 40.0245   1
  -1  -4  16 590.182 48.4119   4
   1   4 -16 553.375 37.3212   1
   1   4 -15 8.11645 30.0452   1
  -1  -4  15 58.2921 40.8981   4
   1   4 -14 66.1904 27.1230   1
   1   4 -13 1665.80 40.1163   1
   1   4 -12 20.6222 24.1043   1
  -1  -4  11-3.23474 25.7754   2
   1   4 -11 9.26524 23.6368   1
   1   4 -10 1154.25 32.1221   1
  -1  -4  10 1239.18 30.3359   2
   1   4  -9 7675.22 57.4664   1
  -1  -4   9 7534.35 52.9992   2
  -1  -4   8 1794.32 30.4391   2
   1   4  -8 1658.45 30.7879   1
  -1  -4   7 123.096 19.9146   2
   1   4  -7 131.864 19.8081   1
   1   4  -6 598.196 22.8026   1
  -1  -4   6 646.278 22.8803   2
  -1  -4   5 34.1322 18.0953   2
   1   4  -5 44.0695 19.4533   1
   1   4  -4 1150.34 26.6446   1
  -1  -4   4 1146.71 23.4949   2
  -1  -4   3 171.610 18.7874   2
   1   4  -2 10.4403 22.3111   4
  -1  -4   2 14.5337 19.3655   2
   1   4  -1 2493.88 31.9417   4
  -1  -4   1 2550.74 29.6512   2
  -1  -4   0 133.349 12.7424   0
   1   4   0 122.262 20.7985   4
  -1  -4   0 124.627 20.5962   2
   1   4   1 305.466 21.9848   4
  -1  -4  -1 340.362 23.0695   2
  -1  -4  -1 328.731 12.9902   0
   1   4   2 11.6199 21.3007   4
  -1  -4  -2 8.83145 21.8342   2
   1   4   2-11.3045 13.0103   0
  -1  -4  -3 2130.71 34.1864   2
   1   4   3 2092.76 23.3318   0
   1   4   3 2110.99 33.0843   4
   1   4   4 184.564 15.3958   0
   1   4   4 169.446 25.6675   4
   1   4   5 65.7291 25.9438   4
   1   4   6 183.638 29.9280   4
   1   4   7 3443.08 48.0788   4
  -1  -4  -8 4072.28 50.5605   1
   1   4   8 4045.52 53.7203   4
  -1  -4  -9 552.652 31.9407   1
   1   4   9 511.100 36.9234   4
   1   4  10 2.18745 34.8833   4
  -1  -4 -10 14.4141 27.7087   1
   1   4  11 2123.43 49.6630   4
  -1  -4 -11 1850.99 43.3714   1
   1   4  12 47.3910 36.9501   4
  -1  -4 -12 34.3418 30.4273   1
  -1  -4 -13 1755.97 46.1587   1
   1   4  13 1910.53 52.5478   4
  -1  -4 -14 103.464 31.8616   1
   1   4  14 164.294 42.6952   4
  -1  -4 -15 105.930 33.1115   1
   1   4  15 190.962 43.0821   4
   1   4  16 794.405 47.1081   4
  -1  -4 -16 665.874 39.0933   1
   1   4  17 117.574 43.0586   4
  -1  -4 -17 72.4348 31.2630   1
   1   4  18 77.0525 44.2913   4
  -1  -4 -18 5.76813 32.5981   1
   1   4  20-18.1408 49.0675   4
   1   5 -23 35.9623 35.4753   1
   1   5 -22 31.3976 30.4479   1
   1   5 -21-38.5234 34.3181   1
  -1  -5  21 17.8092 44.4064   4
  -1  -5  20 297.947 44.7387   4
   1   5 -20 320.270 36.0886   1
  -1  -5  19 458.077 44.2386   4
   1   5 -19 403.129 38.2724   1
  -1  -5  18 148.922 43.8097   4
   1   5 -18 124.105 33.8054   1
  -1  -5  17 107.624 42.1043   4
   1   5 -17-10.4334 29.8519   1
   1   5 -16 2208.18 48.3104   1
   1   5 -15 15.9930 31.5383   1
   1   5 -14 100.466 31.8865   1
   1   5 -13-18.5799 27.4897   1
  -1  -5  12 279.250 28.6534   2
   1   5 -12 262.446 28.1274   1
   1   5 -11 114.860 26.8522   1
  -1  -5  11 138.378 25.0999   2
   1   5 -10 1005.60 32.8293   1
  -1  -5  10 1074.62 29.9134   2
   1   5  -9 374.369 27.6366   1
  -1  -5   9 409.820 25.3033   2
   1   5  -8 3748.72 43.1375   1
  -1  -5   8 3861.07 39.5046   2
   1   5  -7 38.4512 21.5554   1
  -1  -5   7 52.0028 20.7727   2
   1   5  -6 1056.54 27.4889   1
  -1  -5   6 1201.99 25.6990   2
  -1  -5   5 71.2794 18.7287   2
   1   5  -5 56.0539 20.7125   1
  -1  -5   4 2151.69 29.3845   2
   1   5  -4 2047.06 32.6452   1
  -1  -5   3 2482.38 31.0170   2
   1   5  -3 2394.11 35.2368   4
  -1  -5   2 522.828 23.1936   2
   1   5  -2 486.868 26.2737   4
   1   5  -1 52.8751 23.5357   4
  -1  -5   1 75.9608 20.8511   2
  -1  -5   0 166.291 22.9883   2
   1   5   0 211.940 24.9149   4
  -1  -5   0 184.501 12.3060   0
  -1  -5  -1 4852.29 43.9716   2
   1   5   1 4724.30 42.5538   4
  -1  -5  -2 5712.10 49.0871   2
   1   5   2 5638.68 47.3152   4
  -1  -5  -3 149.474 27.7958   2
   1   5   3 138.589 14.1251   0
   1   5   3 150.084 25.5663   4
   1   5   3 133.432 10.0261   5
   1   5   4 4423.12 48.1300   4
  -1  -5  -4 4263.50 48.6138   2
   1   5   4 4088.63 32.8228   0
   1   5   5 72.7898 30.2885   4
   1   5   5 68.7780 16.2517   0
   1   5   6 8822.30 68.0720   4
   1   5   6 8098.48 49.0336   0
   1   5   7 78.7674 33.6476   4
   1   5   8 12.3303 34.6151   4
   1   5   9 1573.52 46.7783   4
   1   5  10 429.128 42.5700   4
   1   5  11 230.992 42.4781   4
   1   5  12 49.9021 40.7531   4
   1   5  13 1557.24 53.9502   4
   1   5  14 1069.76 52.6456   4
   1   5  15 11.9390 45.0328   4
   1   5  16 6.46051 46.2670   4
   1   5  19 63.8660 51.3439   4
   1   6 -24 75.9579 34.2244   1
   1   6 -23-29.4652 36.0528   1
  -1  -6  23 100.453 44.4406   4
  -1  -6  22 45.9439 44.9027   4
   1   6 -22 39.1560 33.2832   1
  -1  -6  21-39.1765 43.3366   4
   1   6 -21-13.1230 35.8370   1
   1   6 -20-2.14630 34.2512   1
  -1  -6  20 33.9118 41.9493   4
   1   6 -19 204.501 33.7286   1
  -1  -6  19 200.147 43.6771   4
   1   6 -18 268.194 35.3509   1
   1   6 -17 50.7364 33.9993   1
   1   6 -16 57.3477 34.7725   1
   1   6 -15 142.760 32.1778   1
   1   6 -14 118.465 34.4586   1
  -1  -6  13 572.712 31.4858   2
   1   6 -13 489.137 34.7855   1
  -1  -6  12 124.104 26.3599   2
   1   6 -12 123.506 28.3810   1
   1   6 -11 955.036 36.1082   1
  -1  -6  11 1065.53 31.8179   2
   1   6 -10 253.476 29.6875   1
  -1  -6  10 288.559 25.0564   2
   1   6  -9-3.93957 27.2857   1
  -1  -6   9 5.35308 21.7936   2
   1   6  -8 742.280 32.1104   1
  -1  -6   8 762.424 26.4024   2
   1   6  -7 556.499 27.5754   1
  -1  -6   7 539.798 24.2920   2
   1   6  -6 1944.03 36.5921   1
  -1  -6   6 2134.79 31.7393   2
  -1  -6   5 23.6198 20.3745   2
   1   6  -5 20.3723 24.9864   1
   1   6  -4 1254.67 35.3536   4
  -1  -6   4 1284.50 27.4365   2
   1   6  -3 1616.92 36.1051   4
  -1  -6   3 1726.07 31.6534   2
   1   6  -2 1406.56 34.9726   4
  -1  -6   2 1405.03 30.0845   2
   1   6  -1 344.227 29.0569   4
  -1  -6   1 346.181 24.5431   2
  -1  -6   0 417.540 14.2402   0
   1   6   0 398.676 30.4890   4
  -1  -6   0 385.768 27.6714   2
  -1  -6  -1 505.033 30.3952   2
   1   6   1 483.526 30.1526   4
   1   6   2 1717.98 36.6506   4
  -1  -6  -2 1709.50 37.0679   2
  -1  -6  -3 7022.17 59.8401   2
   1   6   3 6976.76 58.2169   4
   1   6   3 6382.62 31.6420   5
  -1  -6  -4 623.168 34.7311   2
   1   6   4 562.457 17.9810   0
   1   6   4 499.133 33.7860   4
   1   6   5 1039.57 22.5441   0
  -1  -6  -5 1091.78 40.2321   2
   1   6   5 994.258 39.4344   4
   1   6   6 3321.70 51.4499   4
   1   6   7 303.295 37.3179   4
   1   6   8 14.6998 36.4553   4
   1   6   9 211.285 41.3607   4
   1   6  10 465.481 43.9633   4
   1   6  11-8.60135 41.6838   4
   1   6  12 143.937 43.3835   4
   1   6  13 156.544 45.0823   4
   1   6  14 143.024 44.6281   4
   1   6  15 93.5797 47.3172   4
   1   6  16 83.0526 46.7977   4
   1   6  17 178.098 49.8715   4
   1   6  18 195.850 51.6209   4
  -1  -7  23 61.2622 44.5445   4
   1   7 -23 142.556 41.7178   1
   1   7 -22 240.092 38.4565   1
  -1  -7  22 248.502 45.4339   4
   1   7 -21-17.6993 37.2989   1
  -1  -7  21 38.8951 42.7961   4
   1   7 -19 129.843 35.1877   1
   1   7 -18-3.63992 33.1018   1
   1   7 -17 51.5486 33.9583   1
   1   7 -16 1579.62 46.2633   1
   1   7 -15 142.390 38.6230   1
  -1  -7  15 122.378 31.3766   2
  -1  -7  14 125.450 29.6787   2
   1   7 -14 83.5461 34.1825   1
   1   7 -13 272.369 36.5926   1
  -1  -7  13 242.280 28.8679   2
   1   7 -12 98.6491 33.9159   1
  -1  -7  12 152.471 27.0005   2
   1   7 -11 665.831 37.3435   1
  -1  -7  11 603.667 29.3028   2
   1   7 -10 212.228 31.8518   1
  -1  -7  10 209.093 25.3500   2
   1   7  -9 64.4218 29.4876   1
  -1  -7   9 101.626 23.9942   2
   1   7  -8 206.925 28.5106   1
  -1  -7   8 233.294 23.3915   2
   1   7  -7 263.286 27.4410   1
  -1  -7   7 299.493 23.5695   2
  -1  -7   6 725.699 26.6813   2
   1   7  -6 716.724 30.4827   1
  -1  -7   5 1244.67 29.8890   2
   1   7  -5 1068.48 34.2787   1
  -1  -7   4 4320.90 42.8923   2
   1   7  -4 4255.54 51.4700   4
   1   7  -3 67.8449 32.9152   4
  -1  -7   3 146.293 25.6457   2
  -1  -7   2 68.0494 24.3878   2
   1   7  -2 62.4230 32.4726   4
  -1  -7   1 711.051 15.8466   0
  -1  -7   1 780.116 29.6788   2
   1   7  -1 767.452 35.3738   4
   1   7   0 408.138 33.4003   4
  -1  -7   0 371.302 13.6697   0
  -1  -7   0 415.380 29.6691   2
   1   7   1 77.8334 31.2561   4
  -1  -7  -1 68.4516 30.3246   2
   1   7   2 58.6408 31.0985   4
  -1  -7  -2 33.0079 30.7076   2
   1   7   3-7.55249 31.4869   4
  -1  -7  -3 21.8486 31.6030   2
  -1  -7  -4 577.126 38.1693   2
   1   7   4 538.412 37.6683   4
   1   7   5 284.419 37.2092   4
  -1  -7  -5 304.792 38.5186   2
   1   7   6 49.3559 37.0905   4
  -1  -7  -6 108.879 38.7235   2
   1   7   7 25.2887 38.9918   4
  -1  -7  -7 128.436 41.8350   2
   1   7   8 1479.98 50.6596   4
   1   7   9 0.11566 39.9408   4
   1   7  10 306.277 43.9921   4
   1   7  11 65.5831 44.1525   4
   1   7  12-40.5849 43.6535   4
   1   7  13 448.160 48.7351   4
   1   7  14 58.4386 46.0437   4
   1   7  15 112.308 46.0168   4
   1   7  16 234.169 49.3375   4
   1   7  17 180.173 51.9756   4
   1   8 -24-1.21954 39.0098   1
   1   8 -23 286.692 42.1263   1
  -1  -8  23 322.645 47.3547   4
  -1  -8  22 323.962 47.0111   4
   1   8 -22 258.521 40.7049   1
   1   8 -21 60.4538 35.1397   1
   1   8 -20-16.9048 36.7984   1
   1   8 -19 56.6554 38.1090   1
   1   8 -18 4.08959 37.7211   1
   1   8 -17 6.57859 37.8151   1
  -1  -8  16 24.3567 30.6168   2
   1   8 -16 44.5777 38.2400   1
   1   8 -15 2976.97 57.9616   1
  -1  -8  15 2943.72 49.2866   2
   1   8 -14-33.2146 37.3055   1
  -1  -8  14-32.4231 28.8702   2
  -1  -8  13 43.8887 27.6002   2
   1   8 -13-2.73301 33.1499   1
   1   8 -12 31.1600 34.1825   1
  -1  -8  12 53.4605 26.8979   2
  -1  -8  11 82.4612 25.3420   2
   1   8 -11 107.304 35.3183   1
   1   8 -10 939.155 39.5106   1
  -1  -8  10 838.745 30.3737   2
  -1  -8   9 65.0396 24.5127   2
   1   8  -9 42.7375 31.4595   1
   1   8  -8 12.3613 32.3671   1
  -1  -8   8-22.5299 23.5839   2
   1   8  -7 677.457 33.9801   1
  -1  -8   7 666.312 27.9830   2
  -1  -8   6 1644.28 33.7929   2
   1   8  -6 1463.61 41.3927   1
  -1  -8   5 2729.90 38.9632   2
   1   8  -5 2512.91 45.4211   1
   1   8  -5 2666.35 52.5780   4
  -1  -8   4 550.366 30.7217   2
   1   8  -4 614.767 42.9935   4
   1   8  -3 11923.0 81.9127   4
  -1  -8   3 11659.1 70.5892   2
  -1  -8   2 10501.6 69.0965   2
   1   8  -2 11064.2 79.8450   4
  -1  -8   1 1775.21 39.9976   2
   1   8  -1 2047.44 47.9313   4
   1   8   0-4.41628 35.9644   4
  -1  -8   0 1.85842 29.6456   2
   1   8   1 2675.08 49.7489   4
  -1  -8  -1 2713.64 47.2800   2
   1   8   2 11.2522 37.4198   4
  -1  -8  -2 10.5290 32.9830   2
   1   8   3 179.312 35.3783   4
  -1  -8  -3 199.227 35.9974   2
   1   8   4-2.87555 35.6436   4
  -1  -8  -4 20.6994 36.4940   2
   1   8   5 143.373 39.2728   4
  -1  -8  -5 92.4070 39.0252   2
   1   8   6 222.591 40.2218   4
  -1  -8  -6 236.182 41.2320   2
   1   8   7 51.7055 39.4573   4
  -1  -8  -7 183.920 42.7683   2
   1   8   8 16.5091 42.0248   4
  -1  -8  -8 47.9548 42.3985   2
  -1  -8  -9 640.158 48.2583   2
   1   8   9 462.339 45.1169   4
   1   8  10 6.14373 43.5559   4
  -1  -8 -10 98.0919 45.4370   2
   1   8  11 32.1255 43.3440   4
   1   8  12-29.1933 44.1352   4
   1   8  14-10.7055 46.7141   4
   1   8  15-37.2604 48.0893   4
   1   8  16 12.1826 52.6573   4
   1   9 -24 66.0060 41.9974   1
   1   9 -23 189.849 40.9945   1
   1   9 -22 290.918 44.4355   1
   1   9 -21-1.94922 38.9399   1
   1   9 -19-8.29580 37.0408   1
   1   9 -18 18.4852 38.4861   1
   1   9 -17-55.9159 39.0884   1
  -1  -9  16 1.57333 29.7072   2
  -1  -9  15 22.3738 29.0082   2
   1   9 -15-17.3872 37.8076   1
  -1  -9  14 500.278 33.4552   2
   1   9 -14 472.965 44.5608   1
   1   9 -13 2771.14 56.8461   1
  -1  -9  13 2676.16 45.4317   2
  -1  -9  12 271.083 30.3029   2
   1   9 -12 252.870 41.0948   1
   1   9 -11-50.3514 38.9370   1
  -1  -9  11 12.2945 25.7924   2
  -1  -9  10 5.45066 25.3260   2
   1   9 -10 13.4988 36.3884   1
   1   9  -9 22.0135 35.2017   1
  -1  -9   9 53.0389 25.2675   2
  -1  -9   8 90.9709 25.9325   2
   1   9  -8 56.1654 34.4925   1
  -1  -9   7 1187.59 32.6861   2
   1   9  -7 1050.03 42.4597   1
  -1  -9   6 783.521 30.9055   2
   1   9  -6 745.349 41.1046   1
   1   9  -5 1042.92 42.7697   1
  -1  -9   5 1134.22 32.7661   2
   1   9  -5 1157.31 47.6371   4
  -1  -9   4 383.332 29.8481   2
   1   9  -4 388.187 43.4445   4
  -1  -9   3 304.800 31.3225   2
   1   9  -3 261.786 41.7654   4
  -1  -9   2 609.839 33.5610   2
   1   9  -2 624.280 45.0155   4
   1   9  -1 2292.70 53.2399   4
  -1  -9   1 2275.23 43.3276   2
   1   9   0-21.3145 39.1307   4
  -1  -9   0-18.7434 31.6023   2
   1   9   1-37.7310 37.9402   4
  -1  -9  -1-51.9309 34.5161   2
  -1  -9  -2-32.6056 35.9840   2
   1   9   2 16.5577 39.9558   4
   1   9   3-30.8203 40.5633   4
  -1  -9  -3-38.6491 38.5888   2
   1   9   4 423.188 41.8134   4
  -1  -9  -4 447.941 41.3470   2
  -1  -9  -5 18.3664 39.8164   2
   1   9   5 43.3841 41.0696   4
  -1  -9  -6-19.5997 40.5589   2
   1   9   6 10.4672 42.1843   4
   1   9   7 154.222 43.2059   4
  -1  -9  -7 199.897 42.8203   2
   1   9   8 194.069 43.7329   4
  -1  -9  -8 195.900 45.4138   2
   1   9   9 213.137 44.8909   4
  -1  -9  -9 173.278 44.7721   2
   1   9  10-36.4272 43.8982   4
  -1  -9 -10 96.4794 45.4217   2
  -1  -9 -11 107.071 44.5204   2
   1   9  11 133.718 45.3045   4
   1   9  12 303.974 48.0585   4
  -1  -9 -12 284.079 50.5766   2
   1   9  13-35.7383 48.3306   4
  -1  -9 -13 111.972 46.5823   2
  -1  -9 -14 81.3019 51.0170   2
   1  10 -23 200.865 42.1634   1
   1  10 -22-22.6553 42.9684   1
   1  10 -21-14.8600 37.1836   1
   1  10 -20-28.6225 37.1620   1
   1  10 -19-18.3426 40.5633   1
   1  10 -18 41.1474 41.6572   1
   1  10 -17 201.043 43.7600   1
   1  10 -16 181.012 42.3683   1
   1  10 -15 440.536 42.1186   1
   1  10 -14 469.500 41.7891   1
  -1 -10  13-0.76163 29.1023   2
   1  10 -13-4.97244 41.8340   1
  -1 -10  12 2888.54 47.1112   2
   1  10 -12 3008.85 59.5412   1
   1  10 -11 102.388 41.3079   1
  -1 -10  11 77.0827 28.2815   2
  -1 -10  10 130.784 27.1583   2
   1  10 -10 125.658 37.5609   1
   1  10  -9-0.39440 38.5009   1
  -1 -10   9-25.2889 27.4675   2
   1  10  -8 920.118 45.1247   1
  -1 -10   8 874.483 33.7175   2
  -1 -10   7 2227.86 40.6614   2
   1  10  -7 2077.97 50.2915   1
  -1 -10   6 1412.74 37.9769   2
   1  10  -6 1258.77 45.8773   1
  -1 -10   5 52.5225 28.4990   2
   1  10  -5 80.0006 37.8353   1
   1  10  -5 132.524 45.2934   4
   1  10  -4 2844.36 59.5637   4
  -1 -10   4 2822.71 46.9503   2
   1  10  -3 81.5098 44.1776   4
  -1 -10   3 80.0543 32.2165   2
  -1 -10   2 2.01051 30.5550   2
  -1 -10   1 12.5522 32.5020   2
   1  10  -1-13.5907 43.3964   4
   1  10   0 158.220 42.0817   4
  -1 -10   0 196.174 33.4767   2
  -1 -10  -1 14.0720 34.9174   2
   1  10   1 47.0239 42.7559   4
   1  10   2-23.4044 41.7411   4
  -1 -10  -2-6.93877 38.2702   2
  -1 -10  -3-45.3808 40.3150   2
   1  10   3 29.2753 43.1917   4
  -1 -10  -4 52.5181 41.1619   2
   1  10   4 68.1379 43.7280   4
  -1 -10  -5 2053.53 54.5436   2
   1  10   5 2156.26 58.0575   4
   1  10   6 93.0853 43.2757   4
  -1 -10  -6 36.8874 42.4485   2
   1  10   7 11.4141 41.9530   4
  -1 -10  -7 110.830 43.3596   2
  -1 -10  -8 132.256 44.4307   2
   1  10   8 166.419 45.4294   4
   1  10   9 156.432 44.2931   4
  -1 -10  -9 92.3245 44.6475   2
  -1 -10 -10 87.9045 44.6671   2
   1  10  10-39.6270 44.3070   4
   1  10  11 129.689 47.4686   4
  -1 -10 -11 86.5822 47.5916   2
   1  10  12 202.738 49.5912   4
  -1 -10 -12 38.0557 47.5487   2
   1  10  13 138.986 50.6968   4
  -1 -10 -13 9.96767 47.1142   2
   1  11 -22-36.1648 40.1903   1
   1  11 -21-46.4825 41.4805   1
   1  11 -20 98.1631 41.4317   1
   1  11 -19 116.195 40.9714   1
   1  11 -18 3.60575 39.4138   1
   1  11 -17 86.6310 38.8875   1
   1  11 -16 124.802 38.7900   1
   1  11 -15 587.243 43.7814   1
   1  11 -14 90.5889 38.9957   1
   1  11 -13 2.74169 40.3366   1
   1  11 -12 964.249 50.5233   1
   1  11 -11 27.9677 38.9333   1
   1  11 -10 198.654 40.9750   1
   1  11  -9 971.733 48.0060   1
  -1 -11   9 1038.18 36.0555   2
  -1 -11   8 80.1173 29.5668   2
   1  11  -8 95.1644 38.2708   1
   1  11  -7 349.413 42.3888   1
  -1 -11   7 291.883 31.1959   2
   1  11  -6 1022.65 45.7430   1
  -1 -11   6 980.335 36.4075   2
  -1 -11   5 456.062 32.9884   2
   1  11  -5 530.101 51.9074   4
   1  11  -5 444.885 40.2475   1
   1  11  -4 24.8568 46.8185   4
  -1 -11   4-16.8726 31.9867   2
   1  11  -3 113.345 47.3866   4
  -1 -11   3 53.7660 32.4307   2
  -1 -11   2 1275.25 41.3028   2
   1  11  -2 1326.94 54.3624   4
  -1 -11   1 90.6466 34.0169   2
   1  11  -1 95.6253 47.1777   4
   1  11   0 540.986 50.0858   4
  -1 -11   0 587.105 37.9225   2
   1  11   1 606.502 47.3721   4
  -1 -11  -1 377.621 37.7390   2
  -1 -11  -2 500.936 42.5634   2
   1  11   2 574.321 50.3785   4
  -1 -11  -3 549.318 43.4562   2
   1  11   3 520.177 50.0216   4
  -1 -11  -4-40.3434 40.3983   2
   1  11   4 75.1311 46.5917   4
   1  11   5 41.4510 46.3392   4
  -1 -11  -5 10.3840 42.1621   2
   1  11   6 353.402 47.7356   4
  -1 -11  -6 268.791 45.0879   2
   1  11   7 25.1273 42.9471   4
  -1 -11  -7 56.1994 43.5128   2
   1  11   8 170.058 45.7326   4
   1  11   9 90.5138 47.2096   4
  -1 -11  -9-33.5322 43.0607   2
  -1 -11 -10 80.0870 45.6856   2
   1  11  11 194.340 48.9415   4
  -1 -11 -11 71.9736 47.3703   2
   1  11  12 227.071 49.1639   4
   1  12 -21 196.725 45.0940   1
   1  12 -20 26.5327 44.9798   1
   1  12 -19-9.70272 42.2598   1
   1  12 -18 82.8935 41.3213   1
   1  12 -16-36.1318 40.3183   1
   1  12 -15-46.5497 40.8813   1
   1  12 -14 220.101 44.0632   1
   1  12 -13 262.381 43.3714   1
   1  12 -12 362.364 42.4233   1
   1  12 -11 27.2197 37.9975   1
   1  12 -10 265.213 41.1868   1
   1  12  -9 3062.18 62.3280   1
   1  12  -8 460.968 45.0496   1
   1  12  -7 1.33871 41.6417   1
   1  12  -6 8.64649 47.5266   4
   1  12  -6-10.8407 41.0858   1
  -1 -12   5 269.283 32.1395   2
   1  12  -5 258.327 42.0530   1
   1  12  -5 316.443 49.6421   4
  -1 -12   4-6.31836 31.2952   2
   1  12  -4 7.25702 45.4146   4
   1  12  -3 81.7192 45.8704   4
  -1 -12   3-22.2828 31.9482   2
   1  12  -2 163.570 47.0824   4
  -1 -12   2 126.616 34.3300   2
   1  12  -1 247.016 47.3720   4
  -1 -12   1 213.373 35.4574   2
  -1 -12   0 762.523 40.8683   2
   1  12   0 765.666 51.4843   4
  -1 -12  -1 975.274 43.0244   2
   1  12   1 1083.10 55.4936   4
   1  12   2-54.3782 45.9731   4
  -1 -12  -2 9.46025 36.8008   2
   1  12   3 63.1330 46.5952   4
  -1 -12  -3 4.99508 37.7761   2
  -1 -12  -4 211.832 43.1694   2
   1  12   4 192.565 45.5825   4
   1  12   5 38.8437 46.7696   4
  -1 -12  -5 27.3437 41.8611   2
   1  12   6 275.643 49.5014   4
  -1 -12  -6 108.194 42.7645   2
  -1 -12  -7 50.4161 43.4104   2
   1  12   7 20.4431 47.0112   4
   1  12   8 187.191 48.5975   4
  -1 -12  -8-53.6221 42.5163   2
   1  12   9 206.420 49.0905   4
  -1 -12  -9 101.861 45.4801   2
  -1 -12 -10 25.9023 46.2699   2
   1  12  10-41.0281 48.7385   4
   1  13 -20-50.5568 43.1346   1
   1  13 -18 28.0262 41.3389   1
   1  13 -17 120.536 45.6294   1
   1  13 -16 213.694 43.6806   1
   1  13 -15 220.956 42.2977   1
   1  13 -14-16.0282 39.4892   1
   1  13 -13-4.06966 40.2560   1
   1  13 -12-32.5418 41.8867   1
   1  13 -11 488.145 48.3671   1
   1  13 -10 1349.02 54.2138   1
   1  13  -9 138.648 44.2464   1
   1  13  -8 171.732 41.7313   1
   1  13  -7 145.098 40.4365   1
   1  13  -6 25.6434 49.4857   4
   1  13  -6-20.9911 36.6781   1
   1  13  -5-34.9190 38.3605   1
   1  13  -5 15.7981 49.0172   4
   1  13  -4 6.85576 40.9030   1
   1  13  -4 83.2475 48.0016   4
   1  13  -3 75.8884 47.0074   4
   1  13  -2 256.916 48.5657   4
   1  13   0 87.4486 47.9174   4
  -1 -13   0 79.1413 35.8462   2
   1  13   1 181.228 49.5642   4
  -1 -13  -1 119.956 36.7865   2
  -1 -13  -2 60.1606 37.0712   2
   1  13   2-7.56201 46.9430   4
  -1 -13  -3-43.0246 37.8938   2
   1  13   4 122.839 49.5775   4
  -1 -13  -4 97.0205 40.7712   2
   1  13   5-7.16404 50.1265   4
  -1 -13  -5 127.124 44.8343   2
   1  13   6 57.8638 49.3666   4
  -1 -13  -6 148.781 43.8579   2
   1  13   7-4.46718 50.0589   4
  -1 -13  -7-56.3166 44.7613   2
   1  13   8 295.994 53.7538   4
  -1 -13  -8-0.19667 47.9060   2
   1  14 -19 185.378 48.3155   1
   1  14 -18 17.5437 41.4609   1
   1  14 -16 34.3015 45.4208   1
   1  14 -15 161.545 42.4224   1
   1  14 -14 112.440 43.5421   1
   1  14 -13 26.8311 43.6210   1
   1  14 -12 4.04953 42.0566   1
   1  14 -11-8.75787 40.0514   1
   1  14 -10 360.953 45.6300   1
   1  14  -9 100.564 43.5360   1
   1  14  -8 99.9229 39.6685   1
   1  14  -7-13.2789 39.9598   1
   1  14  -6 26.4263 39.1404   1
   1  14  -6 170.619 51.2729   4
   1  14  -5 62.7100 39.4789   1
   1  14  -5 146.666 50.1448   4
   1  14  -4 176.741 40.9348   1
   1  14  -4 181.917 49.6353   4
   1  14  -2 2.55593 49.4020   4
   1  14  -1 206.851 51.6269   4
   1  14   0 103.616 49.2990   4
   1  14   1-35.5684 46.9022   4
   1  14   2 31.3154 48.7457   4
   1  14   5-5.00639 50.6592   4
  -1 -14  -5 41.6716 42.6976   2
  -1 -14  -6 21.9225 44.9450   2
   1  14   6 102.637 52.4289   4
   1  15 -17 36.5814 47.5574   1
   1  15 -16 144.450 44.3988   1
   1  15 -15 190.915 44.2832   1
   1  15 -14 125.797 45.4923   1
   1  15 -13 17.4330 41.2307   1
   1  15 -12 91.5294 44.1037   1
   1  15 -11 64.2498 42.0590   1
   1  15 -10-23.1776 43.1715   1
   1  15  -9 71.7323 41.7085   1
   1  15  -8 47.4039 41.2753   1
   1  15  -7-32.9452 38.3890   1
   1  15  -6-17.0600 40.0938   1
   1  15  -5 48.0455 33.9523   1
   1  15  -5 38.9890 50.7379   4
   1  15  -4-13.4719 49.1530   4
   1  15  -4 7.43133 38.9787   1
   1  15  -3 35.3311 39.8182   1
   1  15  -3 103.768 50.0809   4
   1  15  -2 125.136 48.8187   4
   1  15  -1-46.3516 48.9909   4
   1  15   1 176.196 50.6299   4
   1  15   2 22.2445 47.9655   4
   1  15   3 180.088 51.4281   4
   1  16 -14 105.716 45.8339   1
   1  16 -13 131.745 45.6130   1
   1  16 -12 37.9150 46.4656   1
   1  16 -11-58.5079 42.0529   1
   1  16 -10 85.3016 44.5771   1
   1  16  -9 126.132 44.8909   1
   1  16  -7-49.8536 39.3029   1
   1  16  -6 159.241 43.5411   1
   1  16  -5-51.5403 42.3558   1
   1  16  -4 0.60928 50.7530   4
   1  16  -4 33.7216 41.2606   1
   1  16  -3 78.3040 49.6286   4
   1  16  -3 55.2734 42.5987   1
   1  16  -2-51.8363 41.2897   1
   1  16  -1 252.058 52.0780   4
   1  16   0 60.2911 50.9477   4
   1  17  -9-1.61641 43.5547   1
   1  17  -7 46.7298 41.2749   1
   1  17  -5 2.88538 40.3909   1
   1  17  -4 77.9275 40.6112   1
  -2  18  -9 129.687 43.6045   5
  -2  18 -11 87.9067 42.4542   1
  -2  17  -4 133.935 54.2382   4
  -2  17  -6 23.6422 51.9035   4
  -2  17  -7 118.673 52.5496   4
  -2  17  -8 159.215 40.8383   1
  -2  17  -8 131.015 41.8498   5
  -2  17  -9-10.7306 39.5270   1
  -2  17 -10 21.2900 39.3038   1
  -2  17 -11 70.7594 40.0177   1
  -2  17 -12-56.8635 36.4044   1
  -2  17 -13 93.0366 42.3882   1
  -2  17 -14 38.8441 41.7344   1
  -2  16   1 64.9713 53.7816   4
  -2  16   0 152.356 54.2964   4
  -2  16  -2 81.6820 52.1993   4
  -2  16  -3 41.9840 52.9961   4
  -2  16  -5 48.5944 50.6578   4
  -2  16  -6-22.9033 35.3057   1
  -2  16  -6 58.1395 38.1313   5
  -2  16  -7 80.3031 34.7719   1
  -2  16  -7 61.4628 38.3826   5
  -2  16  -7 84.6649 54.0367   4
  -2  16  -8 122.552 37.4943   1
  -2  16  -9 7.38743 37.8114   1
  -2  16 -10 28.6042 37.6316   1
  -2  16 -11 104.989 36.0029   1
  -2  16 -12 24.8562 38.1504   1
  -2  16 -13-45.0167 41.7265   1
  -2  16 -14 121.546 40.2316   1
  -2  16 -15-45.9507 38.7852   1
  -2  16 -16-47.0183 43.2268   1
  -2  15   4 28.4839 55.7298   4
  -2  15   3-52.6741 54.4573   4
  -2  15   2 9.90789 51.3885   4
  -2  15   0 86.3590 50.2848   4
  -2  15  -1 19.7312 48.9055   4
  -2  15  -3 118.302 50.4641   4
  -2  15  -4 87.3066 49.9467   4
  -2  15  -5 56.4302 50.2917   4
  -2  15  -5-14.1166 30.1755   1
  -2  15  -5-11.8134 35.1240   5
  -2  15  -6 49.6765 51.2966   4
  -2  15  -6-10.4254 34.9066   1
  -2  15  -6 80.2248 38.0760   5
  -2  15  -7 170.837 35.4935   1
  -2  15  -7 305.429 53.2391   4
  -2  15  -8 94.4943 36.1069   1
  -2  15  -9 33.2338 35.9799   1
  -2  15 -10-56.4246 34.8795   1
  -2  15 -11 69.9872 39.2826   1
  -2  15 -12 102.825 36.7575   1
  -2  15 -13-50.1179 39.5934   1
  -2  15 -14 28.2399 40.1916   1
  -2  15 -15 164.371 41.0721   1
  -2  15 -16 26.4837 41.7254   1
  -2  15 -18-43.0136 42.9638   1
  -2  14   6 168.887 52.9672   4
  -2  14   5-41.4434 51.4068   4
  -2  14   4 119.310 50.9143   4
  -2  14   3 23.7682 50.5808   4
  -2  14   1-15.7702 49.8467   4
  -2  14  -1 15.0201 46.7467   4
  -2  14  -2-31.2120 48.8344   4
  -2  14  -3 25.4741 48.6088   4
  -2  14  -3 45.5016 31.3724   1
  -2  14  -4 236.436 48.8815   4
  -2  14  -4 216.354 36.8911   5
  -2  14  -4 129.526 32.5851   1
  -2  14  -5-2.61073 47.9783   4
  -2  14  -5 2.31475 31.8026   1
  -2  14  -6 30.1774 48.4662   4
  -2  14  -6-0.89447 34.2169   1
  -2  14  -7 1.21797 48.8263   4
  -2  14  -7 44.4095 32.1430   1
  -2  14  -8 43.6156 35.9171   1
  -2  14  -9 186.859 35.8214   1
  -2  14 -10-38.4722 34.5421   1
  -2  14 -11 5.30990 38.2354   1
  -2  14 -12 58.0088 36.1807   1
  -2  14 -13 20.4612 39.1387   1
  -2  14 -14 4.13472 37.4221   1
  -2  14 -15-10.2683 40.5316   1
  -2  14 -16 187.237 43.0312   1
  -2  14 -17 88.3127 41.1042   1
  -2  14 -18 20.8875 42.7057   1
  -2  13   8 4.16163 49.4860   4
  -2  13   7 59.1799 49.7861   4
  -2  13   6 105.570 48.9469   4
  -2  13   5 19.3332 50.0283   4
  -2  13   4 101.206 50.6501   4
  -2  13   3 22.9604 48.2976   4
  -2  13   1-46.1289 49.3496   4
  -2  13   0 160.412 50.0167   4
  -2  13  -1-10.9913 47.1880   4
  -2  13  -2 44.3408 46.5671   4
  -2  13  -2 69.3350 34.5829   5
  -2  13  -2 52.7702 29.1349   1
  -2  13  -3 29.2067 28.2238   1
  -2  13  -3 39.0497 33.3817   5
  -2  13  -3-26.8429 45.6618   4
  -2  13  -4 16.9795 46.0632   4
  -2  13  -4 20.8365 33.9502   5
  -2  13  -4-10.0770 28.4730   1
  -2  13  -5 534.192 50.5068   4
  -2  13  -5 341.520 34.5221   1
  -2  13  -6 159.603 50.2184   4
  -2  13  -6 124.644 33.9363   1
  -2  13  -7-35.1551 47.3048   4
  -2  13  -7 24.1690 32.8794   1
  -2  13  -8 46.4244 33.1367   1
  -2  13  -9 277.662 34.9481   1
  -2  13 -10 391.773 37.9336   1
  -2  13 -11-25.5410 36.0123   1
  -2  13 -12-34.9182 34.9144   1
  -2  13 -13 104.860 36.7525   1
  -2  13 -14 75.5204 38.5852   1
  -2  13 -15 82.2985 37.8521   1
  -2  13 -16 7.81964 40.7873   1
  -2  13 -17 86.7701 40.6699   1
  -2  13 -18 19.9641 39.5834   1
  -2  13 -19 200.154 45.0736   1
  -2  13 -20-33.9450 41.7153   1
  -2  12  10 131.733 51.4126   4
  -2  12   9 165.315 50.1075   4
  -2  12   8-33.4073 48.9203   4
  -2  12   7 45.8710 48.1592   4
  -2  12   6 6.77242 46.6162   4
  -2  12   5 69.8487 47.5325   4
  -2  12   4 88.5432 47.5596   4
  -2  12   3 124.167 47.8124   4
  -2  12   2 51.2211 48.7252   4
  -2  12   1 720.312 52.4546   4
  -2  12   0 167.885 49.9967   4
  -2  12  -1 42.6060 28.0533   1
  -2  12  -1 87.5496 32.8188   5
  -2  12  -2 274.095 30.7986   1
  -2  12  -2 449.853 49.9668   4
  -2  12  -2 357.550 35.8514   5
  -2  12  -3 206.395 35.8921   5
  -2  12  -3 142.852 47.4240   4
  -2  12  -3 168.045 29.6011   1
  -2  12  -4 655.536 51.3932   4
  -2  12  -4 473.060 32.4422   1
  -2  12  -5-21.5028 28.3958   1
  -2  12  -5-40.9091 45.4356   4
  -2  12  -6-50.4892 31.4833   1
  -2  12  -7 14.5006 31.8106   1
  -2  12  -7-7.51151 45.6142   4
  -2  12  -8 38.4415 34.2375   1
  -2  12  -9-24.7685 34.0513   1
  -2  12 -10 256.038 36.0849   1
  -2  12 -11 229.532 35.6566   1
  -2  12 -12 19.0622 34.6298   1
  -2  12 -13 114.699 39.0149   1
  -2  12 -14 16.5757 37.3045   1
  -2  12 -15-20.4643 38.5381   1
  -2  12 -16-19.9632 39.4777   1
  -2  12 -17 128.148 39.7655   1
  -2  12 -18 94.9533 39.4964   1
  -2  12 -19-38.7215 43.0680   1
  -2  12 -20 24.9677 39.4010   1
  -2  12 -21 175.731 41.3585   1
  -2  11  11-13.4118 50.9772   4
  -2  11  10 58.4384 51.3446   4
  -2  11   9 75.4362 47.9475   4
  -2  11   7 101.179 47.2735   4
  -2  11   6 16.5617 46.0120   4
  -2  11   5 196.281 46.5933   4
  -2  11   4 158.749 46.2050   4
  -2  11   3 706.801 51.1802   4
  -2  11   2 92.1149 47.4233   4
  -2  11   1 25.0590 30.1433   5
  -2  11   1 26.7575 45.5757   4
  -2  11   0 286.477 29.3360   1
  -2  11   0 338.626 48.8886   4
  -2  11   0 312.772 32.1702   5
  -2  11  -1 192.992 33.2884   5
  -2  11  -1 212.610 47.3809   4
  -2  11  -1 144.555 28.7547   1
  -2  11  -2 9.19647 31.8753   5
  -2  11  -2 0.00000 46.9423   4
  -2  11  -2 10.1270 27.6835   1
  -2  11  -3 11.3661 34.0239   5
  -2  11  -3-15.2313 43.1461   4
  -2  11  -3 9.68794 25.1715   1
  -2  11  -4 65.6944 44.0951   4
  -2  11  -4 43.8723 29.3662   1
  -2  11  -5 471.485 31.7275   1
  -2  11  -5 618.855 47.3149   4
  -2  11  -6 60.4535 30.2743   1
  -2  11  -6 30.5977 42.8699   4
  -2  11  -7 28.9304 32.0358   1
  -2  11  -7 28.0109 43.2925   4
  -2  11  -8 231.618 33.2594   1
  -2  11  -9 449.292 34.6621   1
  -2  11 -10 977.885 40.9040   1
  -2  11 -11 13.7728 32.7616   1
  -2  11 -12 868.709 41.4921   1
  -2  11 -13 15.5808 36.3519   1
  -2  11 -14 145.406 40.7687   1
  -2  11 -15-61.2294 36.5043   1
  -2  11 -16 21.5617 39.7072   1
  -2  11 -17 261.717 40.5280   1
  -2  11 -18-15.0793 40.2766   1
  -2  11 -19-34.2888 38.8016   1
  -2  11 -20 66.0574 40.2007   1
  -2  11 -21-50.3180 42.3622   1
  -2  11 -22-59.8868 44.0921   1
  -2  10  13 73.1731 52.2120   4
  -2  10  12 23.4725 51.2227   4
  -2  10  10 286.867 53.1134   4
  -2  10   9-19.7729 51.8050   4
  -2  10   8-8.18620 45.4302   4
  -2  10   7 63.1796 44.7094   4
  -2  10   6 742.841 50.2903   4
  -2  10   5 648.173 51.1330   4
  -2  10   4-11.2344 45.6011   4
   2 -10  -4 36.5855 32.5766   2
  -2  10   3 1242.83 52.4535   4
   2 -10  -3 1206.45 40.2921   2
  -2  10   2 57.1877 45.5722   4
  -2  10   2-36.7711 28.8920   5
  -2  10   1 249.914 46.6158   4
  -2  10   1 240.387 31.7218   5
  -2  10   0-15.6109 28.8046   5
  -2  10   0-48.1295 43.6056   4
  -2  10  -1 232.351 32.2748   5
  -2  10  -1 142.839 45.2888   4
  -2  10  -1 119.109 24.5212   1
  -2  10  -2 79.8039 25.2561   1
  -2  10  -2 91.9664 43.5201   4
  -2  10  -2 127.730 30.7651   5
  -2  10  -3 191.613 42.0730   4
  -2  10  -3 136.076 26.3377   1
  -2  10  -4 13.5302 40.5352   4
  -2  10  -4 15.5599 25.4540   1
  -2  10  -5 15.1829 26.0663   1
  -2  10  -5-2.19552 38.9338   4
  -2  10  -6 165.865 41.1830   4
  -2  10  -6 100.991 27.4818   1
  -2  10  -7 4.16571 29.8828   1
  -2  10  -8 93.5322 29.0731   1
  -2  10  -9 593.610 36.8391   1
  -2  10 -10 1518.47 45.2598   1
  -2  10 -11 390.251 39.4817   1
  -2  10 -12 1198.92 47.2595   1
  -2  10 -13 31.0543 37.3439   1
  -2  10 -14-50.5027 35.2127   1
  -2  10 -15 649.208 43.4696   1
  -2  10 -16 57.6185 39.0555   1
  -2  10 -17 17.6680 38.0089   1
  -2  10 -18-27.3069 37.5869   1
  -2  10 -19 90.3362 42.1350   1
  -2  10 -20 18.9996 39.8817   1
  -2  10 -22 113.814 42.7527   1
  -2   9  15 92.0665 55.0161   4
  -2   9  14 124.010 53.5335   4
  -2   9  13 159.194 51.5307   4
  -2   9  12 68.5760 50.4511   4
  -2   9  11-2.37848 48.0829   4
  -2   9  10-26.9682 46.3031   4
  -2   9   9 297.567 48.4989   4
  -2   9   8 37.5990 44.3898   4
  -2   9   7 28.5653 45.0639   4
  -2   9   6 800.258 50.2407   4
  -2   9   5 80.2424 45.7425   4
  -2   9   4 49.5350 45.1354   4
  -2   9   3 3565.99 45.0359   5
  -2   9   3 3794.88 62.5289   4
  -2   9   2 2776.71 41.5527   5
  -2   9   2 3020.01 56.2948   4
  -2   9   2 2836.40 38.4660   6
   2  -9  -2 2815.74 41.6404   2
  -2   9   1 710.659 30.8848   5
   2  -9  -1 705.877 28.9525   2
  -2   9   1 635.472 44.7042   4
  -2   9   1 685.020 25.5489   6
  -2   9   0 7.95753 27.0382   5
  -2   9   0 9.52829 38.7507   4
  -2   9   0 20.8725 18.6763   6
   2  -9   0 9.66658 22.1749   2
  -2   9  -1 665.773 26.9987   1
  -2   9  -1 894.010 34.5530   5
  -2   9  -1 876.215 43.5570   4
  -2   9  -2 41.2602 29.1989   5
  -2   9  -2-13.4750 38.0729   4
  -2   9  -2 13.3053 21.5536   1
  -2   9  -3-0.04990 21.9266   1
  -2   9  -3-5.81019 34.1826   4
  -2   9  -4 42.6568 34.8890   4
  -2   9  -4 4.79865 21.1235   1
  -2   9  -5 39.5424 24.0429   1
  -2   9  -5 36.8512 33.8533   4
  -2   9  -6 40.2402 35.5206   4
  -2   9  -6-0.84808 25.7680   1
  -2   9  -7-9.85576 25.0420   1
  -2   9  -8 589.220 34.6702   1
  -2   9  -9 5324.49 59.7905   1
  -2   9 -10 73.8240 33.5619   1
  -2   9 -11 446.542 37.9573   1
  -2   9 -12-39.5510 36.9592   1
  -2   9 -13 1022.37 46.4053   1
  -2   9 -14 105.359 37.8134   1
  -2   9 -15 256.843 39.5141   1
  -2   9 -16 522.875 43.0863   1
  -2   9 -17 123.464 38.3529   1
  -2   9 -18 17.7417 37.1849   1
  -2   9 -19 93.0527 40.9738   1
  -2   9 -20-35.7168 40.2638   1
  -2   9 -21 9.71037 39.6094   1
  -2   9 -22 109.638 41.2263   1
  -2   9 -23 5.86598 41.0630   1
   2  -9  23 61.3692 42.1908   4
   2  -9  24 96.3623 39.9387   4
  -2   8  16 38.4426 53.6383   4
  -2   8  15 69.5734 52.7264   4
  -2   8  14 83.1009 51.1751   4
  -2   8  13 30.9081 48.5784   4
  -2   8  12 195.325 52.2096   4
  -2   8  11 8.07740 47.2806   4
  -2   8  10 27.1975 47.3720   4
  -2   8   9-8.94247 45.0413   4
  -2   8   8 91.5834 45.7207   4
  -2   8   7 32.8710 44.6180   4
  -2   8   6 1803.63 55.5195   4
  -2   8   5 531.470 44.1367   4
  -2   8   4 560.501 26.8671   5
  -2   8   4 591.079 42.6865   4
  -2   8   3 15.3397 37.1970   4
  -2   8   3 0.28316 22.8159   5
  -2   8   2 4117.03 57.0853   4
  -2   8   2 3811.66 40.6952   6
  -2   8   2 3802.11 43.8480   5
  -2   8   1 2165.58 32.2860   6
   2  -8  -1 1956.19 32.6566   2
  -2   8   1 2089.41 45.4221   4
  -2   8   1 2155.60 37.0085   5
  -2   8   0 1211.87 32.6655   5
  -2   8   0 1237.47 25.8078   6
  -2   8   0 1316.22 41.9462   4
   2  -8   0 1134.77 25.9404   2
  -2   8  -1 1095.89 24.6695   6
  -2   8  -1 1191.21 32.5136   5
  -2   8  -1 1089.26 39.6558   4
   2  -8   1 1073.39 23.8162   2
  -2   8  -1 1067.84 27.2522   1
  -2   8  -2 593.762 19.8836   6
  -2   8  -2 627.721 35.6216   4
  -2   8  -2 519.039 23.7802   1
  -2   8  -2 622.057 30.2857   5
   2  -8   2 553.679 18.6493   2
  -2   8  -3 24.7844 16.2686   6
  -2   8  -3 35.3271 30.6999   4
   2  -8   3 17.7904 13.2372   2
  -2   8  -3 17.9619 19.8995   1
  -2   8  -4 185.991 16.4094   6
  -2   8  -4 175.270 23.3397   1
  -2   8  -4 154.318 33.1491   4
  -2   8  -5 125.429 22.1181   1
  -2   8  -5 138.606 33.2012   4
  -2   8  -6 202.930 25.4031   1
  -2   8  -7 746.781 31.6782   1
  -2   8  -8 3886.32 48.9601   1
  -2   8  -9 76.9441 28.7796   1
  -2   8 -10 184.624 31.1529   1
  -2   8 -11 75.4155 33.2004   1
  -2   8 -12 56.7110 33.3860   1
  -2   8 -13 1337.11 44.1309   1
  -2   8 -14 352.600 39.2842   1
  -2   8 -15 1453.07 50.3079   1
  -2   8 -16 16.1094 38.2068   1
  -2   8 -17-30.5947 35.7702   1
  -2   8 -18 206.012 42.3961   1
  -2   8 -19 46.1634 40.2507   1
  -2   8 -20 46.9569 37.8530   1
  -2   8 -21-28.6161 32.9148   1
   2  -8  21 115.571 37.7441   4
  -2   8 -22 51.7435 39.7997   1
   2  -8  22 179.003 40.2190   4
   2  -8  23 99.7314 39.5282   4
  -2   8 -23 80.6898 38.1260   1
   2  -8  24 29.7567 39.0690   4
  -2   7  13-23.0999 47.1600   4
  -2   7  12 323.076 51.4733   4
  -2   7  11 395.878 47.6949   4
  -2   7  10 237.194 45.3299   4
  -2   7   9 1910.19 57.2477   4
  -2   7   8 132.113 43.5183   4
  -2   7   7 102.808 43.0686   4
  -2   7   6 68.8147 40.6054   4
  -2   7   5 283.673 22.1443   5
  -2   7   5 283.559 38.8961   4
  -2   7   4 1589.38 30.8773   5
  -2   7   4 1620.06 45.3752   4
  -2   7   3 2815.06 37.0197   5
  -2   7   3 2843.95 48.0545   4
  -2   7   2 4403.18 43.2641   5
  -2   7   2 4662.35 53.4464   4
  -2   7   1 1754.63 40.4257   4
  -2   7   1 1767.36 33.0244   5
  -2   7   1 1764.46 29.1699   6
  -2   7   0 745.061 22.2112   6
   2  -7   0 688.512 20.9417   2
  -2   7   0 786.325 27.9092   5
  -2   7   0 728.499 33.6894   4
   2  -7   1 201.904 16.2438   2
  -2   7  -1 202.079 17.8610   6
  -2   7  -1 191.597 30.6769   4
  -2   7  -1 237.116 24.8142   5
  -2   7  -1 193.580 17.8891   1
  -2   7  -2 111.336 17.8618   1
  -2   7  -2 118.162 29.3927   4
  -2   7  -2 128.790 24.8367   5
   2  -7   2 74.6082 13.9025   2
  -2   7  -2 37.9386 16.8933   6
  -2   7  -3 586.130 33.2111   4
  -2   7  -3 618.409 20.3924   6
   2  -7   3 599.940 13.2077   0
   2  -7   3 602.971 14.7008   2
  -2   7  -3 611.927 23.1754   1
  -2   7  -4 4772.35 35.7561   6
  -2   7  -4 4885.37 43.4563   1
   2  -7   4 4636.84 24.7750   2
  -2   7  -4 5034.92 50.4335   4
  -2   7  -5 1818.93 31.5468   1
  -2   7  -5 1790.53 38.9787   4
   2  -7   5 1642.39 15.5741   2
  -2   7  -6 1020.55 29.8406   1
   2  -7   6 908.591 13.4213   2
  -2   7  -7 240.449 24.6280   1
  -2   7  -8 633.191 30.4789   1
  -2   7  -9-4.68355 26.5134   1
  -2   7 -10 382.594 33.7865   1
  -2   7 -11 197.922 32.5435   1
  -2   7 -12 77.3997 33.5633   1
  -2   7 -13 204.305 35.8055   1
  -2   7 -14-8.41743 35.5326   1
  -2   7 -15 631.149 41.6061   1
  -2   7 -16 1471.45 50.8593   1
  -2   7 -17 267.275 38.1198   1
  -2   7 -18 57.9653 36.5291   1
  -2   7 -19 79.3528 39.7914   1
   2  -7  20 66.8515 38.6607   4
  -2   7 -20 46.9120 40.1514   1
   2  -7  21 27.5650 37.6497   4
   2  -7  22 116.267 39.1661   4
   2  -7  23 227.116 41.2890   4
  -2   7 -23 351.185 44.7491   1
   2  -7  24-43.3714 38.1992   4
  -2   6  16-13.1463 49.3461   4
  -2   6  15 49.3982 48.6135   4
  -2   6  14-8.07852 46.6668   4
  -2   6  13 524.746 51.5860   4
  -2   6  12 0.57467 45.2821   4
  -2   6  11 74.6840 47.1830   4
  -2   6  10-26.3052 45.7678   4
  -2   6   9 30.2206 43.5056   4
  -2   6   8 79.2498 41.8862   4
  -2   6   7 101.197 38.2551   4
  -2   6   6-21.3607 34.9708   4
  -2   6   5 272.098 22.1737   5
  -2   6   5 303.086 36.0405   4
  -2   6   4 30.2487 31.9383   4
  -2   6   4 14.6454 20.0153   5
  -2   6   3 8788.08 65.8805   4
  -2   6   3 8746.99 53.9225   5
  -2   6   2 5481.98 44.3560   5
  -2   6   2 5378.52 52.0270   4
  -2   6   1 2417.77 33.9459   5
  -2   6   1 2560.58 39.3692   4
  -2   6   1 2430.61 30.8009   6
  -2   6   0 167.352 15.4653   1
  -2   6   0 164.961 22.9659   5
  -2   6   0 130.691 18.0867   6
  -2   6   0 146.917 25.2505   4
  -2   6  -1 920.892 27.5903   5
   2  -6   1 828.787 16.9458   2
  -2   6  -1 832.450 20.4016   1
  -2   6  -1 813.688 22.2777   6
  -2   6  -1 952.368 30.8317   4
  -2   6  -2 3508.75 41.1261   4
  -2   6  -2 3339.38 32.5071   1
   2  -6   2 3277.31 20.9000   0
   2  -6   2 3156.09 22.3081   2
  -2   6  -2 3321.35 37.8643   5
  -2   6  -2 3156.53 32.1803   6
  -2   6  -3 6159.73 39.7795   6
   2  -6   3 6141.55 31.2483   0
  -2   6  -3 6431.23 44.2527   1
  -2   6  -3 6389.48 50.9377   4
  -2   6  -4 8383.40 51.5307   1
  -2   6  -4 8397.17 56.2783   4
  -2   6  -4 7678.60 42.0304   6
  -2   6  -5 62.5353 20.1680   1
  -2   6  -6 3294.53 38.0845   1
  -2   6  -7 377.448 24.6863   1
  -2   6  -8 1188.43 30.9914   1
  -2   6  -9 27.9633 25.6422   1
  -2   6 -10 73.4961 28.2444   1
  -2   6 -11 153.320 31.4139   1
  -2   6 -12 63.6851 31.0325   1
  -2   6 -13 864.869 39.3629   1
  -2   6 -14 48.0463 34.8261   1
  -2   6 -15-25.7129 38.3869   1
  -2   6 -16 551.721 42.5600   1
  -2   6 -17 74.7849 36.2047   1
   2  -6  18 124.148 37.5530   4
  -2   6 -18 2.80703 35.5914   1
  -2   6 -19-47.1783 35.1901   1
   2  -6  19 15.7641 37.0993   4
   2  -6  20-17.8954 35.8092   4
  -2   6 -20-4.65347 35.3555   1
   2  -6  21-29.4151 38.9138   4
  -2   6 -21 99.6446 36.4987   1
  -2   6 -22-62.1970 36.0214   1
   2  -6  23 77.3539 40.1967   4
  -2   6 -23 141.855 39.5450   1
   2  -6  24-4.70101 39.8447   4
  -2   5  18 154.871 48.7522   4
  -2   5  17 220.338 46.6378   4
  -2   5  16 187.151 45.9079   4
  -2   5  15 137.840 44.7411   4
  -2   5  14 652.089 47.3906   4
  -2   5  13 455.563 47.8012   4
  -2   5  12 830.343 50.0254   4
  -2   5  11 968.016 48.9802   4
  -2   5  10-17.3793 41.4715   4
  -2   5   9-47.0208 38.8070   4
  -2   5   8 32.8796 38.0083   4
  -2   5   7-12.5133 33.7922   4
  -2   5   6 1259.22 39.6785   4
  -2   5   5 233.605 32.5972   4
  -2   5   4 3502.69 35.7200   5
  -2   5   4 3489.97 46.1774   4
  -2   5   3 3524.09 43.4800   4
  -2   5   3 3456.74 35.9693   5
  -2   5   2 68.7545 20.2523   5
  -2   5   2 78.5676 26.1091   4
  -2   5   1 872.771 27.6223   4
  -2   5   1 836.069 24.8360   5
  -2   5   1 933.664 23.9024   6
  -2   5   0 110.653 8.02793   0
  -2   5   0 98.1576 20.3214   5
  -2   5   0 107.299 21.5441   4
  -2   5   0 138.730 17.4272   6
  -2   5   0 112.696 12.7111   1
  -2   5  -1 727.550 20.3299   6
  -2   5  -1 762.307 17.4023   1
  -2   5  -1 776.036 26.0461   4
  -2   5  -1 806.890 24.7305   5
   2  -5   2 85.4919 11.3105   0
  -2   5  -2 80.7872 21.2117   4
  -2   5  -2 100.958 21.3645   5
  -2   5  -2 76.7094 16.6878   6
  -2   5  -2 76.3956 14.1981   1
  -2   5  -3 4847.17 33.9520   6
  -2   5  -3 5106.02 36.7946   1
  -2   5  -3 4956.28 41.1954   4
  -2   5  -4 418.721 24.2869   4
  -2   5  -4 398.270 19.3276   1
  -2   5  -5 1096.62 25.3088   1
  -2   5  -6 62.6686 19.3569   1
  -2   5  -7 160.948 21.8968   1
  -2   5  -8 707.957 27.9637   1
  -2   5  -9 736.382 30.7468   1
  -2   5 -10 16.3138 25.8294   1
  -2   5 -11 1033.42 34.1890   1
  -2   5 -12 129.864 32.9166   1
  -2   5 -13-33.0237 33.5329   1
  -2   5 -14 122.696 33.8974   1
  -2   5 -15 130.853 36.4785   1
  -2   5 -16 233.301 39.0535   1
   2  -5  16 258.617 37.2241   4
  -2   5 -17 90.0759 36.3468   1
   2  -5  17 131.221 36.4673   4
  -2   5 -18 24.0677 35.8203   1
   2  -5  18 88.4414 36.6370   4
   2  -5  19 117.992 36.2244   4
  -2   5 -19 163.411 37.1349   1
   2  -5  20 12.2838 36.5787   4
  -2   5 -20-38.5464 35.0825   1
  -2   5 -21 97.3147 36.3191   1
   2  -5  21 26.6141 37.3985   4
  -2   5 -22-21.3469 37.9279   1
   2  -5  22-26.8260 35.5312   4
  -2   5 -23 73.8387 40.2589   1
   2  -5  24 102.665 40.7085   4
  -2   4  19 269.205 48.9462   4
  -2   4  18 273.144 47.7070   4
  -2   4  17 170.612 47.3352   4
  -2   4  16 77.1426 45.4592   4
  -2   4  15 170.671 45.7538   4
  -2   4  14 611.102 50.4513   4
  -2   4  13 832.962 51.1388   4
  -2   4  12 562.451 48.5596   4
  -2   4  11-13.4373 42.8618   4
  -2   4  10-2.15782 38.1755   4
  -2   4   9-29.2824 36.4756   4
   2  -4  -9 3.57978 15.4968   1
  -2   4   8 8.03481 33.7497   4
  -2   4   7 40.3222 30.1992   4
  -2   4   6 64.7608 28.5262   4
  -2   4   5 15550.8 76.1425   4
  -2   4   4 2989.51 32.1449   5
  -2   4   4 3212.72 40.2166   4
  -2   4   3 8398.33 47.2391   5
  -2   4   3 8626.33 53.7377   4
  -2   4   2 1782.34 30.9837   4
  -2   4   2 1739.49 27.0053   5
  -2   4   1 510.560 22.5685   4
  -2   4   1 499.381 21.6052   5
  -2   4   1 542.182 20.5204   6
  -2   4   0 51.8432 18.9917   4
  -2   4   0 57.5187 17.4118   6
  -2   4   0 34.9443 10.0199   0
  -2   4   0 36.7218 9.51591   1
  -2   4   0 39.3735 19.7431   5
  -2   4  -1 156.871 20.6003   5
  -2   4  -1 150.200 19.1507   4
  -2   4  -1 142.785 11.9432   1
  -2   4  -1 125.700 17.2608   6
  -2   4  -2 411.320 20.2190   4
  -2   4  -2 383.555 19.1245   6
  -2   4  -2 419.219 21.2777   5
  -2   4  -2 422.669 15.0718   1
   2  -4   2 432.931 14.8397   0
  -2   4  -3 1498.28 25.1370   4
  -2   4  -3 1462.50 23.9551   6
  -2   4  -3 1483.97 21.9090   1
  -2   4  -4 9177.36 47.5743   1
  -2   4  -5 1035.43 23.6029   1
  -2   4  -5 927.037 22.7627   3
  -2   4  -6 1005.47 24.4323   1
  -2   4  -6 894.263 21.5906   3
  -2   4  -7 67.2974 21.0173   1
  -2   4  -7 71.3383 16.2065   3
  -2   4  -8 1093.31 30.1062   1
  -2   4  -8 1059.58 23.1838   3
  -2   4  -9 1986.90 35.8978   1
  -2   4  -9 1860.57 27.1323   3
  -2   4 -10-15.4195 25.7355   1
  -2   4 -10-7.91665 15.4201   3
  -2   4 -11 600.892 31.1575   1
  -2   4 -11 518.884 20.4079   3
  -2   4 -12 30.9633 29.4708   1
  -2   4 -12 1.18513 16.1982   3
  -2   4 -13 150.004 33.1823   1
  -2   4 -14-16.9873 33.4182   1
   2  -4  14-23.9258 31.0031   4
  -2   4 -15 27.5648 32.7386   1
   2  -4  15 38.3455 33.8698   4
  -2   4 -16 407.232 36.7222   1
   2  -4  16 429.526 36.9862   4
  -2   4 -17 37.2487 35.1013   1
   2  -4  18 31.8963 34.5261   4
  -2   4 -18 28.3913 37.8520   1
   2  -4  19 30.3745 34.5508   4
  -2   4 -19 17.9473 36.9164   1
   2  -4  20-0.99183 36.8899   4
  -2   4 -20-16.1745 34.8032   1
  -2   4 -21 65.6583 35.3813   1
  -2   4 -22 88.5182 38.0269   1
   2  -4  22 95.4049 37.4213   4
  -2   4 -23-57.0492 36.9335   1
  -2   3  20 468.011 51.2921   4
  -2   3  19 154.316 48.8914   4
  -2   3  18 135.207 48.3149   4
  -2   3  17 86.6683 44.2357   4
  -2   3  16 3.65455 44.8459   4
  -2   3  15 275.436 46.2019   4
  -2   3  14 64.4395 45.2626   4
  -2   3  13 388.222 46.7577   4
  -2   3  12 370.843 44.2480   4
  -2   3  11 42.8549 38.5665   4
  -2   3  10 61.1098 36.4060   4
   2  -3 -10 64.9838 16.9950   1
  -2   3   9 78.9126 34.5109   4
   2  -3  -9 108.553 16.2471   1
  -2   3   8 8.04433 29.9724   4
   2  -3  -8 29.0273 13.7725   1
   2  -3  -7 637.206 17.3825   1
  -2   3   7 619.244 31.9466   4
   2  -3  -6 13586.6 49.8562   1
  -2   3   6 13437.8 72.3491   4
  -2   3   5 1201.56 31.0828   4
  -2   3   4 9991.67 54.7449   4
  -2   3   3 17027.5 61.9725   5
  -2   3   3 17203.1 64.2451   4
  -2   3   2 771.145 21.9010   5
  -2   3   2 824.541 21.8055   6
  -2   3   2 754.061 22.8879   4
  -2   3   1 2670.65 29.4475   5
  -2   3   1 2631.56 28.3220   4
  -2   3   1 2720.84 30.0322   6
  -2   3   0 1654.87 25.4481   6
  -2   3   0 1558.55 26.1039   5
  -2   3   0 1576.90 22.8764   4
  -2   3   0 1571.17 18.5626   0
  -2   3  -1 1875.15 26.1228   6
  -2   3  -1 1757.04 20.1039   0
  -2   3  -1 1733.51 23.1072   4
  -2   3  -1 1794.38 17.5936   1
  -2   3  -1 1780.27 27.4640   5
   2  -3   2 1698.45 21.2493   0
  -2   3  -2 1713.92 19.5628   1
  -2   3  -2 1633.47 22.0317   4
  -2   3  -2 1707.41 25.1106   3
  -2   3  -2 1770.48 26.8216   5
  -2   3  -2 1695.33 25.5894   6
  -2   3  -3 51.3627 15.2125   1
  -2   3  -3 39.4608 17.2740   3
  -2   3  -4 137.028 16.9492   1
  -2   3  -4 130.227 17.1302   3
  -2   3  -5 4079.50 32.9322   3
  -2   3  -5 4145.08 34.7762   1
  -2   3  -6 53.2726 18.3325   1
  -2   3  -6 11.9776 15.3530   3
  -2   3  -7 684.286 23.7431   1
  -2   3  -7 621.424 19.3380   3
  -2   3  -8 2794.63 30.2851   3
  -2   3  -8 2832.31 39.3186   1
  -2   3  -9 380.851 27.5802   1
  -2   3  -9 363.780 18.1164   3
  -2   3 -10 710.790 20.5262   3
  -2   3 -10 757.146 31.8044   1
  -2   3 -11 36.1168 15.1276   3
  -2   3 -11 51.8925 28.1188   1
  -2   3 -12 104.388 29.0870   1
   2  -3  12 47.7883 27.8541   4
  -2   3 -12 54.7105 16.0894   3
  -2   3 -13 28.2577 29.1658   1
   2  -3  13 63.0975 27.9857   4
  -2   3 -14 84.6274 33.6395   1
   2  -3  14 44.9453 31.6023   4
  -2   3 -15 42.7908 34.2798   1
   2  -3  15 93.1796 36.3213   4
   2  -3  16 267.748 36.5300   4
  -2   3 -16 232.535 35.6417   1
  -2   3 -17 1286.05 49.0345   1
   2  -3  17 1178.21 46.7592   4
   2  -3  18 32.2286 35.8785   4
  -2   3 -18 76.5534 35.6231   1
   2  -3  19-13.9729 36.7520   4
  -2   3 -19-29.5503 35.9676   1
  -2   3 -20 81.6076 36.4866   1
   2  -3  20-21.8874 36.5149   4
  -2   3 -21-60.3769 34.9252   1
   2  -3  21 77.0630 36.4391   4
  -2   3 -22 175.849 39.0847   1
   2  -3  23 113.898 39.1888   4
  -2   2  21 33.9632 47.5625   4
  -2   2  19 10.3939 45.5710   4
  -2   2  18 12.0751 43.7411   4
  -2   2  17 158.274 45.7255   4
  -2   2  15 381.640 46.2256   4
  -2   2  14 6.98643 44.5451   4
  -2   2  13 2931.39 59.4840   4
  -2   2  12 165.656 40.2742   4
   2  -2 -12 113.572 21.5096   1
  -2   2  11 17.9411 36.1629   4
   2  -2 -11 29.1190 18.0467   1
   2  -2 -10 4874.28 42.4153   1
  -2   2  10 5199.88 58.4755   4
   2  -2  -9-11.9794 15.3383   1
  -2   2   9-13.6450 31.3149   4
  -2   2   8 277.767 30.3397   4
   2  -2  -8 298.470 15.9588   1
   2  -2  -7 5005.80 33.7871   1
  -2   2   7 4806.59 50.0629   4
  -2   2   6 2595.10 37.6657   4
   2  -2  -6 2688.62 22.8561   1
   2  -2  -5 6361.26 28.6787   1
  -2   2   5 6250.03 45.4534   4
  -2   2   4 1619.62 27.8500   4
  -2   2   3 727.660 21.5372   4
  -2   2   2 2414.29 27.5037   5
  -2   2   2 2332.13 25.7258   4
  -2   2   2 2495.92 28.7718   6
  -2   2   1 7914.72 31.3557   2
  -2   2   1 8171.08 39.0117   3
  -2   2   1 7911.75 35.5588   4
  -2   2   1 8368.55 40.8071   6
  -2   2   1 8174.07 41.4597   5
  -2   2   0 17744.1 55.0324   6
  -2   2   0 17315.2 56.4457   5
  -2   2   0 17147.1 43.1238   4
  -2   2   0 17591.0 56.3751   3
  -2   2  -1 2252.09 25.7836   5
  -2   2  -1 2222.69 17.4729   1
  -2   2  -1 2253.45 24.3147   0
  -2   2  -1 2262.37 25.2495   3
   2  -2   1 2293.31 24.3811   0
  -2   2  -1 2215.73 27.0747   6
  -2   2  -2 13987.3 43.8598   1
  -2   2  -2 14031.7 50.2957   5
  -2   2  -2 13487.3 51.9356   3
   2  -2   2 14350.5 49.9028   0
  -2   2  -2 14396.8 51.2551   6
  -2   2  -3 2018.22 25.0024   5
  -2   2  -3 2080.58 23.2331   1
  -2   2  -3 1940.74 25.3026   3
   2  -2   3 2184.56 26.7812   0
  -2   2  -4 334.806 17.7942   3
  -2   2  -4 350.678 17.3300   1
  -2   2  -5 1979.42 24.2583   3
  -2   2  -5 2094.57 28.1706   1
  -2   2  -6 780.717 22.3634   1
  -2   2  -6 792.091 18.9596   3
  -2   2  -7 1228.39 27.6870   1
  -2   2  -7 1201.48 21.2897   3
  -2   2  -8 4221.74 43.0539   1
  -2   2  -8 4135.71 34.1567   3
  -2   2  -9 138.180 24.6279   1
   2  -2   9 136.257 22.4769   4
  -2   2  -9 112.443 15.3812   3
   2  -2  10 252.911 24.4773   4
  -2   2 -10 218.605 16.4869   3
  -2   2 -10 282.421 27.4850   1
  -2   2 -11 63.7143 26.0331   1
  -2   2 -11 74.5471 15.0498   3
   2  -2  11 97.8941 24.7736   4
  -2   2 -12 464.145 34.0287   1
  -2   2 -12 334.753 17.6828   3
   2  -2  12 404.462 30.3800   4
   2  -2  13 155.525 29.9857   4
  -2   2 -13 147.606 31.1248   1
  -2   2 -14 80.7904 31.5522   1
   2  -2  14 63.8513 31.9666   4
   2  -2  15 717.529 43.7871   4
  -2   2 -15 704.599 40.9261   1
   2  -2  16 206.134 38.4773   4
  -2   2 -16 129.393 34.4062   1
   2  -2  17 1269.92 45.1143   4
  -2   2 -17 1294.86 49.0570   1
  -2   2 -18 26.9630 33.4051   1
   2  -2  18 65.5472 35.3179   4
  -2   2 -19 31.4756 35.1836   1
   2  -2  19-17.9632 37.3871   4
  -2   2 -20 218.950 39.0363   1
   2  -2  20 171.091 39.2641   4
  -2   2 -21 46.2125 35.2986   1
   2  -2  22 0.67661 40.0731   4
  -2   2 -22 154.981 37.3962   1
  -2   1  20-2.48823 45.7197   4
  -2   1  19 156.948 45.1600   4
  -2   1  18-44.0343 43.2886   4
  -2   1  16 102.924 45.2309   4
  -2   1  15 182.560 44.6682   4
  -2   1  14 53.3995 44.2921   4
   2  -1 -13 1281.18 32.4138   1
  -2   1  13 1380.79 48.4946   4
   2  -1 -12 2106.46 33.9644   1
  -2   1  12 2325.22 49.6673   4
   2  -1 -11 275.494 20.2324   1
  -2   1  11 267.145 36.9435   4
   2  -1 -10 3225.70 34.9963   1
  -2   1  10 3381.33 48.9210   4
  -2   1   9 2545.40 42.0504   4
   2  -1  -9 2299.93 28.5528   1
  -2   1   8 2116.05 37.9915   4
   2  -1  -8 2090.51 25.3489   1
  -2   1   7 8182.66 54.5545   4
   2  -1  -7 8152.86 40.2747   1
  -2   1   6 156.684 22.9476   4
   2  -1  -6 149.974 11.2629   1
  -2   1   5 3128.78 32.2175   4
   2  -1  -5 3121.93 20.0752   1
  -2   1   4 4467.68 33.3580   4
  -2   1   4 4497.16 34.3248   2
  -2   1   3 1315.64 21.1977   4
  -2   1   3 1433.97 17.7328   3
  -2   1   3 1316.62 22.4405   2
  -2   1   2 93.8838 14.7746   4
  -2   1   2 84.4147 19.4517   6
  -2   1   2 111.907 15.9910   2
  -2   1   2 69.4660 13.4997   3
  -2   1   1 961.328 21.8156   6
  -2   1   1 1022.25 18.1548   3
  -2   1   1 1021.63 21.7270   5
  -2   1   1 990.830 17.0575   2
  -2   1   0 69879.0 388.914   5
  -2   1   0 69114.6 407.003   6
  -2   1   0 70331.6 397.016   3
  -2   1   0 67079.6 310.240   2
  -2   1  -1 25839.3 65.5719   6
  -2   1  -1 25920.1 59.6356   5
  -2   1  -1 25935.1 52.2198   1
   2  -1   1 25744.6 65.6149   0
  -2   1  -1 25891.2 63.3610   0
  -2   1  -1 26156.3 63.2843   3
  -2   1  -2 50.2434 17.6946   0
   2  -1   2 35.7389 19.4881   0
  -2   1  -2 26.6696 12.8663   1
  -2   1  -2 38.2094 15.8623   3
  -2   1  -2 20.8764 13.2982   2
  -2   1  -2 21.2078 15.9465   5
   2  -1   3 2555.10 29.7642   0
  -2   1  -3 2483.16 25.4257   1
  -2   1  -3 2395.99 23.2918   5
  -2   1  -3 2415.06 25.7916   3
  -2   1  -3 2432.32 21.6134   2
  -2   1  -4 10619.7 46.7223   3
  -2   1  -4 10348.5 49.9406   1
   2  -1   5 6788.37 33.2914   4
  -2   1  -5 6820.30 43.7459   1
  -2   1  -6 972.940 24.9274   1
   2  -1   6 949.401 20.3515   4
   2  -1   7 14.7191 17.5488   4
  -2   1  -7-3.78754 19.7445   1
  -2   1  -8 22.1077 21.8496   1
   2  -1   8 19.9609 19.8386   4
   2  -1   9 3019.30 36.3936   4
  -2   1  -9 3052.62 41.4801   1
  -2   1 -10 675.975 29.5932   1
   2  -1  10 613.431 26.7317   4
   2  -1  11-8.56737 25.0990   4
  -2   1 -11-15.2811 27.0047   1
   2  -1  12 455.883 30.9832   4
  -2   1 -12 449.279 32.3792   1
  -2   1 -12 392.735 19.2098   3
  -2   1 -13 259.119 32.8391   1
   2  -1  13 240.397 31.4195   4
   2  -1  14-3.98839 32.3355   4
  -2   1 -14-7.41032 31.0581   1
   2  -1  15 488.350 38.3036   4
  -2   1 -15 385.279 36.2261   1
  -2   1 -16 2907.24 58.0373   1
   2  -1  16 2811.99 54.6446   4
   2  -1  17 203.026 40.5283   4
  -2   1 -17 129.806 38.4695   1
  -2   1 -18 84.2350 38.1852   1
  -2   1 -19 79.8483 35.6899   1
   2  -1  19 66.2296 39.0811   4
  -2   1 -20-50.8062 35.5624   1
   2  -1  20-34.2256 37.0812   4
  -2   1 -21 141.943 38.4337   1
  -2   1 -23 15.8482 33.9789   1
  -2   0  21-51.9004 45.6841   4
  -2   0  20 190.154 46.5638   4
  -2   0  18-29.4723 42.7978   4
  -2   0  17-32.1160 42.3472   4
  -2   0  16 94.7806 44.2106   4
  -2   0  15 33.0603 43.3384   4
   2   0 -14-9.99357 22.5027   1
  -2   0  13 16.0150 39.1017   4
   2   0 -13-1.35461 21.9071   1
  -2   0  12 694.359 41.6733   4
   2   0 -12 677.112 25.3591   1
   2   0 -11 1335.82 27.6128   1
  -2   0  11 1370.10 41.4973   4
   2   0 -10 850.018 22.7372   1
  -2   0  10 906.886 35.1359   4
   2   0  -9 1691.57 26.3104   1
  -2   0   9 1665.23 36.5039   4
  -2   0   8 2066.91 36.5554   4
   2   0  -8 1883.50 25.3811   1
  -2   0   7 2613.79 35.0041   4
   2   0  -7 2511.05 24.7620   1
   2   0  -6 165.194 12.4849   1
  -2   0   6 167.836 21.0987   4
  -2   0   6 197.888 21.3183   2
  -2   0   5 2711.23 31.3907   2
  -2   0   5 2632.83 17.5627   3
   2   0  -5 2644.92 20.7965   1
  -2   0   5 2648.19 29.7561   4
  -2   0   4 17.3705 9.55632   3
  -2   0   4 17.9687 17.5447   4
  -2   0   4 29.4550 18.0565   2
  -2   0   3 8.00824 18.5299   6
  -2   0   3 4.82733 10.4928   3
  -2   0   3 9.51438 18.1196   2
  -2   0   3 29.9615 15.0497   4
  -2   0   2 626.349 18.5662   6
  -2   0   2 662.597 14.5549   4
  -2   0   2 662.654 19.2117   2
  -2   0   2 698.435 15.4311   3
  -2   0   1 9413.36 39.5556   6
  -2   0   1 9469.19 37.3852   2
  -2   0   0 2398.06 22.9454   2
  -2   0   0 2338.30 25.7537   6
  -2   0  -1 38390.6 70.9201   2
  -2   0  -1 38537.8 254.314   5
  -2   0  -1 39172.1 79.0639   0
  -2   0  -1 39356.0 289.814   1
  -2   0  -2 32898.3 76.0808   0
   2   0   2 32228.3 78.1643   0
  -2   0  -2 32367.2 57.9320   5
  -2   0  -2 32422.4 74.6057   1
  -2   0  -2 32216.5 69.1055   2
  -2   0  -3 1434.01 24.1349   1
  -2   0  -3 1346.14 16.2765   5
  -2   0  -3 1359.00 23.3027   2
   2   0   3 1368.83 24.7451   0
  -2   0  -4 1551.04 16.3571   5
  -2   0  -4 1610.52 26.3810   1
   2   0   4 1646.08 18.9569   4
  -2   0  -5 2274.74 30.3428   1
   2   0   5 2124.89 22.8088   4
  -2   0  -6 1186.53 26.7056   1
   2   0   6 1151.25 21.7635   4
  -2   0  -7 595.554 26.2625   1
   2   0   7 584.611 21.3004   4
  -2   0  -8 129.015 24.5131   1
   2   0   8 110.045 20.7563   4
  -2   0  -9 221.401 27.1821   1
   2   0   9 218.218 23.7749   4
   2   0  10 2232.62 37.4361   4
  -2   0 -10 2285.54 40.7255   1
  -2   0 -11 409.931 32.4747   1
   2   0  11 322.230 28.8481   4
  -2   0 -12-14.6677 28.1144   1
   2   0  12-32.1487 28.6513   4
  -2   0 -13 34.8118 31.7193   1
   2   0  13-38.7220 31.1967   4
   2   0  14 870.338 42.4884   4
  -2   0 -14 984.621 43.6909   1
  -2   0 -15 348.341 40.6256   1
   2   0  15 515.925 38.7331   4
   2   0  16 1671.35 48.4627   4
  -2   0 -16 1794.94 52.2225   1
  -2   0 -17 256.231 38.2837   1
   2   0  17 73.6632 37.4052   4
  -2   0 -18 86.5582 35.9729   1
   2   0  18 152.485 38.0520   4
   2   0  19-48.4389 39.4555   4
  -2   0 -19 55.0406 35.4083   1
  -2   0 -20 113.546 36.4837   1
  -2   0 -21-1.01116 34.6888   1
   2   0  21 12.1506 39.1722   4
  -2   0 -22-38.3790 32.4271   1
  -2  -1  21 59.9812 42.5869   4
  -2  -1  20-53.3861 43.9359   4
  -2  -1  18 373.697 45.2842   4
  -2  -1  17 94.4956 41.5559   4
   2   1 -16 329.541 29.0550   1
  -2  -1  16 362.197 44.3852   4
  -2  -1  15 1057.61 49.4293   4
   2   1 -15 988.119 33.1810   1
   2   1 -14-6.13296 22.5453   1
  -2  -1  14 5.99705 39.3879   4
   2   1 -13 712.424 27.7239   1
  -2  -1  13 790.879 43.1339   4
  -2  -1  12 1207.93 41.9521   4
   2   1 -12 1241.84 29.7356   1
   2   1 -11 155.847 21.0140   1
  -2  -1  11 171.268 31.6976   4
   2   1 -10 53.6536 17.7153   1
  -2  -1  10 30.7813 28.8415   4
   2   1  -9 183.596 18.8510   1
  -2  -1   9 189.450 27.7543   4
  -2  -1   8 130.714 24.8216   2
  -2  -1   8 106.637 24.3529   4
   2   1  -8 97.7953 16.1227   1
  -2  -1   7 688.696 26.0518   4
  -2  -1   7 716.231 26.1653   2
   2   1  -7 647.320 17.8494   1
  -2  -1   6 529.120 23.2473   2
   2   1  -6 508.390 15.8096   1
  -2  -1   5 989.706 24.6276   2
   2   1  -5 925.243 17.1974   1
  -2  -1   4 1724.79 27.0770   2
   2   1  -4 1713.08 19.5790   1
  -2  -1   3 362.478 19.7580   2
  -2  -1   3 359.548 17.6274   6
  -2  -1   2 389.311 17.6345   6
  -2  -1   2 461.647 20.3500   2
  -2  -1   1 7936.66 39.0871   2
  -2  -1   1 7615.75 35.7414   6
  -2  -1   0 218031. 734.536   2
  -2  -1  -1 24918.6 66.9849   0
  -2  -1  -1 24275.6 66.7112   2
  -2  -1  -2 1337.64 23.6259   1
  -2  -1  -2 1387.58 24.2152   0
  -2  -1  -2 1357.31 25.3157   2
   2   1   2 1267.73 25.0228   0
  -2  -1  -3 157.293 20.1283   2
   2   1   3 150.825 13.8316   4
  -2  -1  -3 146.064 18.0741   1
   2   1   3 138.137 19.1371   0
  -2  -1  -4 641.002 21.7555   1
   2   1   4 631.640 20.2923   0
   2   1   4 644.564 17.7629   4
  -2  -1  -5 82.1479 19.3770   1
   2   1   5 97.8678 16.3729   4
   2   1   6 136.328 18.8549   4
  -2  -1  -6 131.654 20.8848   1
  -2  -1  -7 709.325 26.4013   1
   2   1   7 695.458 24.4561   4
  -2  -1  -8 672.407 29.3871   1
   2   1   8 658.564 26.1553   4
   2   1   9 8.70510 23.6712   4
  -2  -1  -9 3.17560 23.8191   1
  -2  -1 -10 73.3901 28.2847   1
   2   1  10 57.2021 27.2541   4
  -2  -1 -11 634.200 33.6563   1
   2   1  11 706.406 33.8359   4
   2   1  12-11.3141 30.0317   4
  -2  -1 -12-16.4890 28.0061   1
   2   1  13 526.974 37.9350   4
  -2  -1 -13 665.976 37.6076   1
   2   1  14-13.6646 34.8316   4
  -2  -1 -14 77.8848 30.2172   1
  -2  -1 -15 889.145 42.9555   1
   2   1  15 811.379 43.5367   4
   2   1  16 115.450 39.9291   4
  -2  -1 -16 134.872 37.3462   1
   2   1  17 12.3363 39.0604   4
  -2  -1 -17-62.4958 33.7186   1
  -2  -1 -18 1.94269 32.8156   1
  -2  -1 -19 123.071 33.8755   1
   2   1  20 62.1797 39.5814   4
  -2  -1 -20 26.4438 31.7991   1
  -2  -1 -22 179.027 36.5530   1
  -2  -2  21-30.5706 44.9194   4
  -2  -2  20 157.608 44.7733   4
  -2  -2  19 115.580 44.5028   4
  -2  -2  18 0.45856 42.8264   4
   2   2 -17 36.6246 26.6784   1
  -2  -2  17 13.0709 41.6353   4
   2   2 -16 33.9292 26.9468   1
  -2  -2  16 45.8549 41.7431   4
  -2  -2  15 1644.13 51.1192   4
   2   2 -15 1679.50 38.7124   1
   2   2 -14 383.017 27.2469   1
  -2  -2  14 395.891 42.2952   4
   2   2 -13 33.6882 23.5053   1
  -2  -2  13 3.56514 36.2495   4
  -2  -2  12 1533.33 41.8703   4
   2   2 -12 1578.61 32.5140   1
   2   2 -11 14.5328 18.9476   1
  -2  -2  11 3.24496 31.1341   4
   2   2 -10 292.753 22.3782   1
  -2  -2  10 349.494 30.0167   4
  -2  -2  10 398.825 30.2713   2
  -2  -2   9 908.502 31.2792   2
   2   2  -9 849.742 25.2384   1
  -2  -2   8 674.818 27.7594   2
   2   2  -8 613.387 21.4816   1
  -2  -2   7 79.9526 23.0186   2
   2   2  -7 48.8199 15.8879   1
   2   2  -6 1106.99 21.0468   1
  -2  -2   6 1116.23 26.3271   2
  -2  -2   5 15.7495 20.3081   2
   2   2  -5 11.9467 13.8489   1
  -2  -2   4 931.250 17.7700   6
  -2  -2   4 1014.98 24.0949   2
   2   2  -4 991.479 20.4703   1
  -2  -2   3 7342.32 42.5447   2
  -2  -2   3 7072.03 32.7968   6
  -2  -2   2 455.117 22.2960   2
  -2  -2   2 397.482 16.0024   6
  -2  -2   1 3618.27 34.1309   2
  -2  -2   0 16548.6 60.9082   2
   2   2   0 16174.8 46.6712   4
   2   2   1 39944.8 71.1557   4
  -2  -2  -1 39871.8 92.8028   2
  -2  -2  -1 40829.0 86.2471   0
   2   2   2 1805.76 25.6192   0
  -2  -2  -2 1896.55 25.2359   0
  -2  -2  -2 1878.98 29.6761   2
   2   2   2 1839.85 21.2647   4
  -2  -2  -3 68.2550 18.0144   1
   2   2   3 63.8202 15.7633   4
   2   2   3 65.0290 17.1326   0
  -2  -2  -3 65.4207 21.6453   2
  -2  -2  -4 548.983 22.6041   1
   2   2   4 532.044 19.7482   0
   2   2   4 513.169 19.8989   4
  -2  -2  -4 531.660 24.7449   2
  -2  -2  -5 2238.27 33.4787   1
   2   2   5 2150.93 28.3227   4
   2   2   5 2090.71 28.7651   0
   2   2   6 160.419 20.8507   4
  -2  -2  -6 146.772 22.2067   1
  -2  -2  -7 704.059 30.2674   1
   2   2   7 722.962 26.4222   4
  -2  -2  -8 426.988 29.2192   1
   2   2   8 401.751 26.4657   4
   2   2   9 3163.39 43.0157   4
  -2  -2  -9 3132.03 48.1902   1
  -2  -2 -10 625.954 33.5194   1
   2   2  10 648.245 34.0596   4
   2   2  11 371.736 32.3228   4
  -2  -2 -11 339.530 31.1560   1
   2   2  12-12.0283 33.7472   4
  -2  -2 -12-13.8891 28.5508   1
   2   2  13 34.9565 35.1274   4
  -2  -2 -13-8.85437 30.3860   1
  -2  -2 -14 68.0319 34.0663   1
   2   2  14 71.4641 36.4111   4
  -2  -2 -15 350.249 36.7053   1
   2   2  15 389.039 42.8930   4
   2   2  16 104.329 38.9157   4
  -2  -2 -16 34.1142 34.8709   1
  -2  -2 -17 104.006 34.0336   1
   2   2  17 233.565 40.2150   4
   2   2  18 355.539 42.5946   4
  -2  -2 -18 258.196 37.5771   1
   2   2  19 117.990 40.8327   4
  -2  -2 -19-44.2533 33.8305   1
   2   2  20 346.319 42.1391   4
  -2  -2 -20-61.7527 33.3086   1
  -2  -2 -21 128.664 35.3697   1
  -2  -3  22 107.015 43.9852   4
  -2  -3  20 134.432 44.4693   4
   2   3 -18-35.2246 26.8800   1
  -2  -3  18 27.3280 40.2440   4
   2   3 -17 155.867 30.7692   1
  -2  -3  17 195.064 42.6183   4
   2   3 -16 153.511 29.9992   1
  -2  -3  16 181.945 43.3513   4
  -2  -3  15 18.7878 41.3655   4
   2   3 -15 25.6258 26.7601   1
  -2  -3  14 415.224 42.0671   4
   2   3 -14 457.258 30.0136   1
   2   3 -13 351.207 27.2945   1
  -2  -3  13 372.734 37.3371   4
   2   3 -12 248.722 25.3705   1
   2   3 -11 130.779 22.9589   1
  -2  -3  11 156.134 30.3973   2
  -2  -3  10 81.5130 26.5076   2
   2   3 -10 72.2959 20.6245   1
  -2  -3   9 7704.43 57.5115   2
   2   3  -9 7568.56 53.6546   1
   2   3  -8 17.8251 18.3882   1
  -2  -3   8 6.20627 23.7810   2
   2   3  -7 12.2236 17.3954   1
  -2  -3   7 1.49300 22.3912   2
  -2  -3   6 1372.40 29.1771   2
   2   3  -6 1256.35 24.6579   1
   2   3  -5 98.1485 17.8568   1
  -2  -3   5 93.0699 20.3635   2
  -2  -3   5 98.2879 12.7892   6
  -2  -3   4 207.683 12.5096   6
  -2  -3   4 268.355 21.6926   2
  -2  -3   3 153.836 20.8009   2
  -2  -3   3 132.620 11.8767   6
  -2  -3   2 2271.55 31.6060   2
   2   3  -1 6935.63 39.8435   4
  -2  -3   1 7467.18 46.8810   2
   2   3   0 10091.0 44.9948   4
  -2  -3   0 10361.4 54.1585   2
   2   3   1 74.7893 18.0998   4
  -2  -3  -1 67.2706 22.8416   2
  -2  -3  -1 68.0589 16.0124   0
  -2  -3  -2 1133.46 21.8583   0
  -2  -3  -2 1089.02 28.5853   2
   2   3   2 1023.98 22.3054   0
   2   3   2 1073.68 22.5201   4
  -2  -3  -3 9974.17 58.6769   2
   2   3   3 10256.8 49.8099   4
   2   3   3 9949.30 50.1659   0
  -2  -3  -4-0.93095 25.8210   2
   2   3   4 10.9084 17.5864   0
   2   3   4 8.68876 20.5540   4
  -2  -3  -5 254.334 29.5980   2
   2   3   5 237.847 22.6710   4
   2   3   5 214.554 19.3226   0
  -2  -3  -6 902.076 29.0690   1
   2   3   6 865.184 25.3024   0
   2   3   6 924.387 28.9282   4
  -2  -3  -7 518.408 28.6587   1
   2   3   7 504.844 28.8337   4
   2   3   8 206.184 28.4112   4
  -2  -3  -8 175.334 26.4804   1
  -2  -3  -9 513.047 31.6244   1
   2   3   9 618.232 31.5918   4
  -2  -3 -10 571.047 34.3863   1
   2   3  10 635.963 33.6833   4
  -2  -3 -11 185.511 31.4153   1
   2   3  11 151.149 33.2142   4
  -2  -3 -12 11.9182 33.3428   1
   2   3  12 20.3880 38.2994   4
  -2  -3 -13 36.7402 33.1419   1
   2   3  14-43.1726 39.2407   4
  -2  -3 -14 19.8744 35.8712   1
  -2  -3 -15 661.834 40.8259   1
   2   3  15 579.112 43.5246   4
   2   3  16 3.51226 36.5862   4
  -2  -3 -16 46.9195 33.2390   1
  -2  -3 -17-0.40493 35.0111   1
   2   3  17 178.160 40.9740   4
   2   3  18 129.325 39.2723   4
   2   3  19 308.425 43.0242   4
  -2  -3 -20-42.2524 33.0593   1
  -2  -3 -21 138.868 35.2971   1
  -2  -4  22 46.9751 44.7533   4
  -2  -4  21 369.247 47.4269   4
  -2  -4  20 7.78672 43.0145   4
   2   4 -19 157.079 33.4954   1
  -2  -4  19 211.915 42.3334   4
   2   4 -18 80.1003 31.4034   1
  -2  -4  18 66.2130 40.9594   4
   2   4 -17 36.4627 30.2326   1
  -2  -4  17 12.5707 41.0224   4
  -2  -4  16 3082.00 60.4586   4
   2   4 -16 2960.62 51.4792   1
  -2  -4  15-13.7516 40.6794   4
   2   4 -15 52.3476 26.9661   1
   2   4 -14 49.3578 29.6534   1
   2   4 -13 10.2777 27.3214   1
  -2  -4  13 41.8536 31.0520   2
  -2  -4  12 68.5672 29.3552   2
   2   4 -12 27.9680 25.4993   1
   2   4 -11 599.953 28.9029   1
  -2  -4  11 646.824 31.9279   2
  -2  -4  10 79.5657 27.7124   2
   2   4 -10 62.1327 23.0533   1
  -2  -4   9 1026.91 31.4334   2
   2   4  -9 956.627 28.7619   1
   2   4  -8 3265.58 39.4755   1
  -2  -4   8 3437.19 41.2495   2
   2   4  -7 160.423 21.7895   1
  -2  -4   7 129.892 24.0645   2
  -2  -4   6 21.0372 11.0406   6
  -2  -4   6-3.65275 21.8185   2
   2   4  -6-3.42640 19.4550   1
   2   4  -5 69.4534 19.1783   1
  -2  -4   5 69.7386 21.0544   2
  -2  -4   5 58.2499 10.6282   6
  -2  -4   4 14.4296 19.9797   2
  -2  -4   4 17.3095 9.85908   6
  -2  -4   3 15.3995 21.1586   2
  -2  -4   2 411.902 24.9855   2
   2   4  -2 419.410 23.0060   4
  -2  -4   1 2652.37 35.0432   2
   2   4  -1 2441.27 31.8371   4
  -2  -4   0 1328.88 29.0744   2
   2   4   0 1326.78 26.4879   4
  -2  -4   0 1324.66 22.5020   0
   2   4   1 1907.08 30.0109   4
  -2  -4  -1 2041.50 26.0322   0
  -2  -4  -1 2044.44 35.3049   2
  -2  -4  -2 1264.97 33.2184   2
   2   4   2 1182.24 26.5672   4
  -2  -4  -2 1215.80 22.8056   0
   2   4   3 9.09553 16.5772   0
   2   4   3 22.3521 22.4167   4
  -2  -4  -3 6.94742 27.9268   2
   2   4   4 4399.95 37.3876   0
  -2  -4  -4 4745.29 50.3315   2
   2   4   4 4527.45 42.8547   4
  -2  -4  -5 1007.99 35.9954   2
   2   4   5 931.205 24.5040   0
   2   4   5 958.252 30.7599   4
   2   4   6 13.5731 18.2396   0
   2   4   6 15.4516 25.4981   4
  -2  -4  -6 25.7738 33.3835   2
   2   4   7 169.884 20.8581   0
   2   4   7 146.641 29.1514   4
   2   4   8 1690.31 32.7513   0
   2   4   8 1845.01 41.5056   4
  -2  -4  -9 816.519 36.6728   1
   2   4   9 789.944 36.3110   4
  -2  -4 -10 5.07816 28.2754   1
   2   4  10-9.24022 33.8422   4
   2   4  11 155.632 37.1926   4
  -2  -4 -11-9.80804 31.0262   1
   2   4  12 24.2663 35.7553   4
  -2  -4 -12-8.93567 30.4990   1
   2   4  13 672.417 42.6670   4
  -2  -4 -13 505.936 39.2164   1
  -2  -4 -14 611.476 41.1255   1
   2   4  14 713.617 45.9227   4
  -2  -4 -15 92.5997 33.7842   1
   2   4  15 108.753 42.6617   4
   2   4  16 241.232 45.1880   4
  -2  -4 -16 82.7666 32.1818   1
  -2  -4 -17-28.6773 34.3276   1
   2   4  17 119.244 42.9276   4
  -2  -4 -18 117.441 31.6114   1
   2   4  18 100.556 44.8076   4
  -2  -4 -19 74.9668 33.3327   1
  -2  -4 -20 101.827 30.8109   1
  -2  -5  21 58.5251 44.5430   4
  -2  -5  20 34.6657 42.3959   4
   2   5 -20 42.7680 33.6865   1
   2   5 -19 56.7403 32.4327   1
  -2  -5  19 74.8966 42.7367   4
   2   5 -18 4.34375 31.6614   1
  -2  -5  18 97.5277 41.5618   4
   2   5 -17-13.6340 30.2835   1
  -2  -5  17 7.72499 41.3220   4
   2   5 -16-7.75821 29.2742   1
   2   5 -15 235.197 34.1669   1
  -2  -5  14 144.287 32.9510   2
   2   5 -14 98.7149 30.1038   1
  -2  -5  13 94.9067 31.7341   2
   2   5 -13 86.7657 28.6922   1
  -2  -5  12 132.079 30.1969   2
   2   5 -12 93.7506 28.9730   1
  -2  -5  11 61.6038 27.9839   2
   2   5 -11 112.699 25.5774   1
   2   5 -10 18.5976 22.4068   1
  -2  -5  10 83.3032 26.5611   2
   2   5  -9 129.939 25.1074   1
  -2  -5   9 120.229 25.8239   2
  -2  -5   8-6.28771 24.3493   2
   2   5  -8 13.0632 21.8752   1
  -2  -5   7 678.933 14.2482   6
   2   5  -7 699.088 26.8706   1
  -2  -5   7 748.077 28.5526   2
  -2  -5   6 385.721 25.4525   2
   2   5  -6 343.381 25.7753   1
  -2  -5   6 316.704 10.9888   6
   2   5  -5 302.685 23.5147   1
  -2  -5   5 314.400 24.3919   2
  -2  -5   4 31.4872 23.1828   2
  -2  -5   3 3034.07 38.6423   2
   2   5  -3 3009.57 38.8757   4
   2   5  -2 2306.07 36.0037   4
  -2  -5   2 2535.56 38.0340   2
   2   5  -1 5470.63 46.4485   4
  -2  -5   1 5606.19 49.8223   2
   2   5   0 34.2416 24.8697   4
  -2  -5   0 3.95328 15.7571   0
  -2  -5  -1 15757.5 60.5456   0
   2   5   1 16519.8 73.1059   4
  -2  -5  -1 16979.3 81.1639   2
  -2  -5  -2 3797.09 48.1405   2
   2   5   2 3558.63 40.9307   4
  -2  -5  -3 1354.20 38.1323   2
   2   5   3 1281.83 32.4841   4
  -2  -5  -4 372.718 35.8525   2
   2   5   4 416.537 28.9465   4
   2   5   4 320.020 19.9238   0
   2   5   5 373.423 20.8311   0
  -2  -5  -5 464.596 37.4736   2
   2   5   5 406.241 30.4384   4
   2   5   6 4273.13 50.6245   4
  -2  -5  -6 4453.65 58.2880   2
   2   5   6 4074.82 41.6235   0
  -2  -5  -7 294.565 41.8608   2
   2   5   7 187.215 20.6616   0
   2   5   7 198.309 33.1457   4
   2   5   8 271.141 33.4139   4
   2   5   8 226.311 21.3810   0
   2   5   9 95.0755 35.3323   4
   2   5  10 205.613 37.4501   4
   2   5  11 903.171 41.9998   4
   2   5  12 13.2928 38.4868   4
   2   5  13 119.164 42.3927   4
   2   5  14 286.552 47.0181   4
   2   5  15 41.1566 43.9782   4
   2   5  16 46.1837 44.1022   4
   2   5  17-29.4908 46.0745   4
  -2  -6  23 88.0434 43.8794   4
  -2  -6  22 49.1511 43.9717   4
   2   6 -21-52.9662 33.0463   1
  -2  -6  21-49.6663 45.0767   4
   2   6 -20 60.8612 31.4094   1
  -2  -6  20 83.0819 42.8963   4
   2   6 -19 43.2330 31.6796   1
  -2  -6  19 40.0554 42.3070   4
   2   6 -18 214.470 34.2432   1
   2   6 -17 282.433 36.3638   1
   2   6 -16 200.411 34.4035   1
  -2  -6  15 416.676 37.5242   2
   2   6 -15 417.187 36.8366   1
  -2  -6  14 32.4191 32.2970   2
   2   6 -14 10.3669 29.7847   1
  -2  -6  13 45.5719 30.3103   2
   2   6 -13 22.6160 28.9940   1
  -2  -6  12 6.88957 29.2341   2
   2   6 -12 18.2857 29.9826   1
   2   6 -11 82.2504 28.0043   1
  -2  -6  11 109.213 28.2544   2
   2   6 -10 392.217 30.7588   1
  -2  -6  10 386.736 30.0377   2
  -2  -6   9 1015.44 32.4651   2
   2   6  -9 962.814 33.7745   1
  -2  -6   8 438.598 28.0186   2
  -2  -6   8 359.890 12.1240   6
   2   6  -8 409.979 28.4651   1
  -2  -6   7 28.5350 7.81853   6
  -2  -6   7 17.0260 23.7033   2
   2   6  -7 29.8498 24.8484   1
   2   6  -6 132.648 25.2326   1
  -2  -6   6 142.034 24.1539   2
  -2  -6   5 38.2549 24.5283   2
  -2  -6   4 578.652 27.4495   2
  -2  -6   3 563.598 29.7477   2
   2   6  -3 541.774 31.9548   4
   2   6  -2 379.460 30.4856   4
  -2  -6   2 394.038 29.1017   2
   2   6  -1 3248.56 42.9440   4
  -2  -6   1 3401.54 44.6123   2
  -2  -6   0 8291.64 45.2100   0
   2   6   0 9172.26 62.2388   4
  -2  -6   0 9234.12 64.3666   2
  -2  -6  -1 1252.59 38.7979   2
   2   6   1 1188.70 34.3941   4
  -2  -6  -1 1170.33 22.4184   0
   2   6   2 256.704 29.5124   4
  -2  -6  -2 239.169 34.1573   2
   2   6   3 675.471 32.3217   4
  -2  -6  -3 673.399 37.8818   2
  -2  -6  -4 1271.92 43.2442   2
   2   6   4 1241.35 36.6226   4
   2   6   5 294.175 31.9063   4
   2   6   5 248.386 21.3917   0
  -2  -6  -5 327.827 40.7634   2
  -2  -6  -6 542.734 43.2020   2
   2   6   6 483.614 35.8293   4
  -2  -6  -7 1246.84 48.7389   2
   2   6   7 1216.84 42.2115   4
   2   6   8 77.9736 36.9560   4
  -2  -6  -8 130.188 43.0590   2
  -2  -6  -9 58.6596 44.2486   2
   2   6   9 4.59854 35.6490   4
   2   6  10 28.4160 38.0772   4
   2   6  11-7.88592 38.8046   4
   2   6  12 181.034 41.2147   4
   2   6  13 819.556 48.8325   4
   2   6  14 75.2804 43.2393   4
   2   6  15-32.3286 44.6973   4
   2   6  16-6.07782 46.3409   4
   2   6  17-8.28372 47.7363   4
  -2  -7  23 190.602 46.1895   4
   2   7 -22 0.18344 37.4989   1
  -2  -7  22 164.892 44.6759   4
  -2  -7  21-8.33516 43.2822   4
   2   7 -20 34.6484 34.2575   1
   2   7 -19 32.6427 33.8161   1
   2   7 -18 87.5612 34.9749   1
   2   7 -17 196.571 36.9154   1
  -2  -7  16 59.0187 33.9045   2
   2   7 -16 31.9968 33.1931   1
   2   7 -15 1288.30 46.8089   1
  -2  -7  15 1342.61 42.4185   2
  -2  -7  14 36.8901 32.0046   2
   2   7 -14 29.3817 33.6804   1
  -2  -7  13 158.693 32.2757   2
   2   7 -13 166.816 33.2099   1
  -2  -7  12 203.664 31.3302   2
   2   7 -12 176.041 33.1814   1
   2   7 -11 202.970 33.8441   1
  -2  -7  11 238.192 29.9321   2
  -2  -7  10 154.152 28.3323   2
   2   7 -10 129.939 29.7622   1
  -2  -7   9-16.5037 27.4407   2
   2   7  -9-14.7453 29.4783   1
  -2  -7   8 2550.69 41.2708   2
   2   7  -8 2529.69 46.0757   1
   2   7  -7 1323.82 38.8510   1
  -2  -7   7 1342.55 35.0810   2
   2   7  -6 862.467 36.3152   1
  -2  -7   6 930.159 32.2876   2
  -2  -7   5 256.117 28.8496   2
  -2  -7   4 4680.12 50.1230   2
   2   7  -4 4834.16 55.8002   4
  -2  -7   3 1842.97 40.5747   2
   2   7  -3 1662.37 41.7952   4
  -2  -7   2 3254.86 46.2640   2
   2   7  -2 3207.34 48.8475   4
   2   7  -1 470.506 34.7764   4
  -2  -7   1 525.699 33.7685   2
  -2  -7   1 445.210 18.5827   0
  -2  -7   0 403.169 32.8236   2
   2   7   0 362.563 32.3494   4
  -2  -7   0 359.536 18.2553   0
  -2  -7  -1 397.184 18.0437   0
   2   7   1 439.711 34.4549   4
  -2  -7  -1 462.872 34.6827   2
   2   7   2 449.573 33.8330   4
  -2  -7  -2 464.697 38.2156   2
   2   7   3 35.0924 31.5904   4
  -2  -7  -3 13.1080 38.0795   2
   2   7   4 1324.47 40.4612   4
  -2  -7  -4 1305.91 45.1079   2
  -2  -7  -5 18.5649 39.6272   2
   2   7   5 23.2281 34.3769   4
   2   7   6 9.76191 33.9595   4
  -2  -7  -6-3.49962 40.3288   2
   2   7   7 272.746 38.1156   4
  -2  -7  -7 366.098 45.3939   2
   2   7   8-22.5592 35.9243   4
  -2  -7  -8 19.0104 43.5700   2
   2   7   9-24.6764 37.8557   4
  -2  -7  -9 11.8908 43.2925   2
   2   7  10 83.5262 38.3603   4
  -2  -7 -10 124.120 43.9789   2
   2   7  11-35.2648 40.2103   4
  -2  -7 -11 69.9452 44.8944   2
  -2  -7 -12 218.400 50.7006   2
   2   7  12 66.4678 41.9593   4
  -2  -7 -13 86.9241 46.4924   2
   2   7  13 100.621 44.4838   4
  -2  -7 -14 677.133 54.7999   2
   2   7  14 565.684 47.4838   4
  -2  -7 -15 4.38189 50.3354   2
   2   7  15 133.101 47.0077   4
  -2  -7 -16 133.475 51.3897   2
   2   7  16 99.1262 46.8707   4
   2   8 -23 138.613 38.1946   1
  -2  -8  23 162.093 47.5751   4
   2   8 -22 118.420 35.7509   1
  -2  -8  22 203.176 46.9196   4
   2   8 -20-34.8411 35.9880   1
   2   8 -19-24.0977 34.8596   1
   2   8 -18 3.86950 34.5396   1
   2   8 -17 16.2057 36.0164   1
  -2  -8  17-20.4760 35.0996   2
   2   8 -16 131.916 38.8078   1
  -2  -8  16 117.344 34.1706   2
  -2  -8  15 92.7126 33.2778   2
   2   8 -15 122.282 35.2884   1
   2   8 -14 311.972 40.2117   1
  -2  -8  14 355.936 35.7047   2
  -2  -8  13 1509.97 42.3109   2
   2   8 -13 1639.36 48.7801   1
   2   8 -12 242.598 37.2094   1
  -2  -8  12 222.408 32.2225   2
  -2  -8  11 37.3511 29.2705   2
   2   8 -11 58.2422 34.4824   1
  -2  -8  10 207.928 30.5344   2
   2   8 -10 147.335 35.6209   1
   2   8  -9 41.7905 31.8977   1
  -2  -8   9 36.8461 27.7324   2
  -2  -8   8 388.317 30.4832   2
   2   8  -8 421.800 36.7221   1
  -2  -8   7 344.148 30.8698   2
   2   8  -7 421.401 35.5245   1
   2   8  -6 3878.82 56.5824   1
  -2  -8   6 3790.05 48.7388   2
  -2  -8   5 2284.89 42.6418   2
   2   8  -4 1789.32 48.0153   4
  -2  -8   4 1758.81 40.0853   2
   2   8  -3 350.661 38.4844   4
  -2  -8   3 354.677 33.5684   2
  -2  -8   2 1243.48 39.6866   2
   2   8  -2 1176.09 42.1892   4
   2   8  -1 837.557 40.7022   4
  -2  -8   1 864.916 37.5858   2
   2   8   0 11.8140 32.8102   4
  -2  -8   0 8.98541 32.5814   2
   2   8   1-1.40911 33.9161   4
  -2  -8  -1 26.3502 34.6877   2
  -2  -8  -2-29.4330 38.2954   2
   2   8   2 4.64263 34.8902   4
  -2  -8  -3 16.1592 39.5935   2
   2   8   3 20.2100 36.0449   4
   2   8   4 677.777 40.4278   4
  -2  -8  -4 697.928 45.6658   2
   2   8   5 92.8303 34.7996   4
  -2  -8  -5 69.1342 42.8911   2
   2   8   6 38.5473 37.9698   4
  -2  -8  -6-11.3976 42.7502   2
  -2  -8  -7 13.8537 41.0916   2
   2   8   8 116.612 39.2662   4
  -2  -8  -8 51.5951 44.1419   2
  -2  -8  -9 83.8439 43.6011   2
   2   8  10 146.274 41.0394   4
  -2  -8 -10 191.790 48.1524   2
  -2  -8 -11-46.0502 46.4202   2
   2   8  11 44.8786 41.8727   4
   2   8  12-41.3574 44.3756   4
  -2  -8 -12 29.0952 45.9432   2
  -2  -8 -13 17.1045 48.6540   2
  -2  -8 -14 96.2711 50.9139   2
   2   8  14 3.79882 44.9560   4
   2   8  15 110.000 46.1358   4
   2   9 -24 222.661 34.6096   1
   2   9 -23 140.652 40.2570   1
   2   9 -22-6.66292 36.3345   1
   2   9 -20-27.9508 34.5237   1
   2   9 -19 4.44370 35.9720   1
   2   9 -18-19.7119 35.5224   1
  -2  -9  18-29.5647 33.0095   2
  -2  -9  17 95.5849 33.4951   2
   2   9 -17 79.4869 39.5953   1
  -2  -9  16 724.783 39.2652   2
   2   9 -16 676.379 46.2434   1
   2   9 -15 368.182 39.0962   1
  -2  -9  15 466.591 36.6188   2
   2   9 -14 76.1765 39.2834   1
  -2  -9  14 86.8313 33.2908   2
  -2  -9  13 740.869 38.8998   2
   2   9 -13 727.946 43.7455   1
  -2  -9  12 3423.75 52.5613   2
   2   9 -12 3440.90 61.0110   1
   2   9 -11 337.442 41.1431   1
  -2  -9  11 333.984 34.0528   2
   2   9 -10-29.9416 36.8295   1
  -2  -9  10-11.2934 29.5244   2
  -2  -9   9 908.876 36.6844   2
   2   9  -9 848.654 44.4299   1
   2   9  -8 1017.48 45.2385   1
  -2  -9   8 1066.86 37.0283   2
  -2  -9   7 408.121 33.2069   2
   2   9  -7 402.842 41.4283   1
   2   9  -6 113.930 39.6639   1
  -2  -9   6 56.5690 30.8081   2
  -2  -9   5 3762.82 51.3730   2
   2   9  -4 1109.15 48.2624   4
  -2  -9   4 1163.02 40.2205   2
   2   9  -3 976.941 44.9725   4
  -2  -9   3 886.360 39.1212   2
   2   9  -2 2.13719 37.1025   4
  -2  -9   2 12.8954 32.9841   2
  -2  -9   1 152.656 34.9964   2
   2   9  -1 71.1456 37.0234   4
   2   9   0 690.562 41.8222   4
  -2  -9   0 811.050 39.9292   2
   2   9   1-41.9481 39.0355   4
  -2  -9  -1 20.3480 35.0384   2
   2   9   2 94.0885 39.1119   4
  -2  -9  -2 89.0127 39.1793   2
   2   9   3 160.582 39.6010   4
  -2  -9  -3 157.249 41.9369   2
   2   9   4 90.7107 40.6057   4
  -2  -9  -4 114.281 42.5669   2
   2   9   5 737.434 42.4018   4
  -2  -9  -5 675.792 47.6275   2
   2   9   6 74.8470 37.6216   4
  -2  -9  -6 108.887 44.0057   2
  -2  -9  -7 65.3289 42.9404   2
   2   9   7 122.549 39.5829   4
  -2  -9  -8 17.2257 42.8203   2
   2   9   8 68.2605 39.3569   4
   2   9   9 130.924 41.0237   4
  -2  -9  -9 275.467 46.7020   2
   2   9  10 168.321 43.7968   4
  -2  -9 -10 105.110 46.5849   2
   2   9  11 82.8927 43.4760   4
  -2  -9 -11-39.2438 47.3199   2
   2   9  12 20.3454 45.1440   4
  -2  -9 -12 40.8384 48.3044   2
   2   9  13 19.3872 44.7741   4
  -2  -9 -13 143.152 51.0279   2
   2   9  14 35.2625 48.1328   4
   2  10 -23 27.5037 38.9274   1
   2  10 -20 20.7063 37.1644   1
   2  10 -19 80.5145 40.5463   1
   2  10 -18-37.0910 39.0597   1
  -2 -10  17 132.549 32.3481   2
   2  10 -17 136.396 38.5092   1
   2  10 -16 2.36220 37.0647   1
  -2 -10  16 83.3434 33.2728   2
   2  10 -15 2583.95 61.1295   1
  -2 -10  15 2624.82 51.7526   2
   2  10 -14 127.061 40.4468   1
  -2 -10  14 127.398 33.9091   2
   2  10 -13 87.1066 38.6926   1
  -2 -10  13 22.8551 33.0800   2
   2  10 -12 557.710 45.1740   1
  -2 -10  12 632.433 37.7209   2
   2  10 -11 75.5823 41.4408   1
  -2 -10  11 148.657 33.7014   2
  -2 -10  10-47.2845 30.7660   2
   2  10 -10 1.87962 37.4751   1
   2  10  -9 96.3557 40.8522   1
  -2 -10   9 104.859 30.6632   2
  -2 -10   8 21.2055 30.4791   2
   2  10  -8 47.4569 39.5935   1
  -2 -10   7 11.6941 30.4526   2
   2  10  -7 31.1700 37.1171   1
   2  10  -6 115.519 42.2633   1
  -2 -10   6 111.411 31.9790   2
   2  10  -5 271.559 43.4209   4
  -2 -10   5 223.105 32.2760   2
   2  10  -4 43.0335 40.2366   4
  -2 -10   4 5.39666 32.5507   2
  -2 -10   3 63.8407 33.2766   2
   2  10  -3 45.7406 39.7929   4
  -2 -10   2 332.149 36.5697   2
   2  10  -2 316.811 43.3590   4
   2  10  -1-21.9424 41.4898   4
  -2 -10   1 10.0345 34.5996   2
   2  10   0 53.5090 40.7893   4
  -2 -10   0 53.4430 37.0306   2
   2  10   1-12.9541 39.7325   4
  -2 -10  -1 60.9686 35.9888   2
   2  10   2 15.1959 41.4485   4
  -2 -10  -2 23.4415 37.8204   2
   2  10   3 803.356 48.0082   4
  -2 -10  -3 808.828 48.9516   2
  -2 -10  -4 219.812 43.1942   2
   2  10   4 205.440 42.1176   4
   2  10   5 3.83238 43.1938   4
  -2 -10  -5-24.2484 47.7794   2
   2  10   6 192.912 42.2019   4
  -2 -10  -6 119.765 44.3160   2
   2  10   7 158.073 40.8753   4
  -2 -10  -7 98.6244 44.4001   2
  -2 -10  -8 35.2779 46.2861   2
   2  10   8 61.1394 43.1104   4
   2  10   9 61.5368 43.0214   4
  -2 -10  -9-35.5275 46.0356   2
   2  10  10 79.6550 42.0902   4
  -2 -10 -10-49.3325 47.7279   2
   2  10  11 184.215 45.1168   4
  -2 -10 -11 42.2891 44.7079   2
   2  10  12-23.8363 43.5919   4
  -2 -10 -12 57.4533 51.3757   2
   2  11 -22 56.7256 46.0044   1
   2  11 -21 45.0847 41.5541   1
   2  11 -20 97.1151 40.7692   1
   2  11 -19-7.96402 37.6279   1
   2  11 -18 109.161 38.6120   1
   2  11 -17 87.1358 39.6493   1
   2  11 -16 94.9531 39.7980   1
   2  11 -15 208.702 43.7179   1
   2  11 -14 53.8455 42.6692   1
  -2 -11  14 1.51872 33.5734   2
  -2 -11  13 1406.37 43.9304   2
   2  11 -13 1506.21 52.7923   1
   2  11 -12 672.798 45.5285   1
  -2 -11  12 542.896 38.3646   2
   2  11 -11 327.815 45.1019   1
  -2 -11  11 267.849 34.3727   2
  -2 -11  10 466.631 35.1498   2
   2  11 -10 464.330 42.3526   1
  -2 -11   9 864.996 38.5933   2
   2  11  -9 923.944 47.8994   1
  -2 -11   8 605.360 36.2931   2
   2  11  -8 578.343 46.2317   1
   2  11  -7 34.5765 37.8910   1
  -2 -11   7-3.49673 32.2438   2
   2  11  -6 275.856 42.4455   1
  -2 -11   6 274.030 34.3831   2
  -2 -11   5 19.5282 33.1035   2
   2  11  -5 89.1149 44.7987   4
   2  11  -4 42.0695 44.0743   4
  -2 -11   4 16.3630 33.9850   2
   2  11  -3-38.3181 42.1166   4
  -2 -11   3 30.9233 34.1336   2
   2  11  -2 23.7242 42.0496   4
  -2 -11   2 74.8601 35.5611   2
   2  11  -1 151.340 43.6517   4
  -2 -11   1 180.981 37.7061   2
  -2 -11   0 314.628 39.1269   2
   2  11   0 364.957 45.0910   4
  -2 -11  -1 252.722 38.8503   2
   2  11   1 196.802 43.7379   4
   2  11   2 96.4114 42.5761   4
  -2 -11  -2 107.887 36.2116   2
  -2 -11  -3 146.122 40.7140   2
   2  11   3 189.164 44.8766   4
  -2 -11  -4 543.721 47.3536   2
   2  11   4 582.639 48.0302   4
   2  11   5-50.6610 43.5259   4
  -2 -11  -5 31.6391 44.3919   2
   2  11   6 174.199 45.6062   4
   2  11   7 136.968 49.5410   4
  -2 -11  -7 182.472 48.2991   2
   2  11   8 161.273 45.3324   4
  -2 -11  -8 4.85119 44.3090   2
   2  11   9-9.27288 42.5004   4
   2  11  10-30.9872 43.3794   4
  -2 -11 -10 47.0326 46.8716   2
   2  11  11 190.793 46.7278   4
   2  11  12 300.382 49.1988   4
   2  12 -21 84.3323 44.5282   1
   2  12 -20 13.5734 41.8394   1
   2  12 -19 50.9733 39.8837   1
   2  12 -18 5.37716 39.6428   1
   2  12 -17-29.5107 39.9898   1
   2  12 -16 11.8452 40.0621   1
   2  12 -15 53.2536 39.6258   1
   2  12 -14 99.6711 39.1727   1
   2  12 -13 114.545 40.7502   1
   2  12 -12 45.9335 39.9768   1
   2  12 -11 922.638 49.7099   1
   2  12 -10 198.155 44.6178   1
  -2 -12  10 144.207 33.5221   2
  -2 -12   9 8.12845 31.3042   2
   2  12  -9 34.1659 43.3063   1
  -2 -12   8 101.615 32.9536   2
   2  12  -8 189.002 41.8224   1
   2  12  -7 52.0217 42.0510   1
  -2 -12   7 85.9119 32.7893   2
  -2 -12   6 30.1782 32.6544   2
   2  12  -6-44.5917 42.4563   1
  -2 -12   5-50.9313 32.7442   2
   2  12  -5-15.4487 43.7703   4
   2  12  -4 37.6200 44.6816   4
  -2 -12   4-4.59713 34.7881   2
  -2 -12   3-6.49995 35.1688   2
   2  12  -3 5.98605 45.1442   4
   2  12  -2 364.345 47.4012   4
  -2 -12   2 297.283 38.6418   2
   2  12  -1 34.2797 44.1243   4
  -2 -12   1 34.1550 35.7248   2
   2  12   0 187.137 43.6192   4
  -2 -12   0 273.892 40.0335   2
   2  12   1 127.360 45.1869   4
  -2 -12  -1 97.7790 38.5861   2
  -2 -12  -2-13.2991 38.5148   2
   2  12   3-7.57563 43.5979   4
  -2 -12  -3 39.4886 39.9949   2
   2  12   4 48.0195 45.0455   4
  -2 -12  -4 17.6713 41.6311   2
  -2 -12  -5 461.340 48.2792   2
   2  12   5 231.185 47.7921   4
   2  12   6 281.811 47.6509   4
  -2 -12  -6 227.586 47.9358   2
   2  12   7 86.0755 47.8752   4
  -2 -12  -7 111.475 46.0087   2
   2  12   8 212.982 47.8123   4
  -2 -12  -8-50.2482 48.0635   2
  -2 -12  -9 36.8094 49.9222   2
   2  12   9-40.7315 47.9187   4
   2  12  10 84.3003 49.4315   4
   2  13 -19 111.204 44.5098   1
   2  13 -18 166.590 47.6718   1
   2  13 -17 177.028 44.3176   1
   2  13 -16 73.5013 42.2846   1
   2  13 -15-11.8673 40.3094   1
   2  13 -14-20.7788 40.0447   1
   2  13 -13-13.2689 40.9032   1
   2  13 -11-16.7012 42.3928   1
   2  13 -10 396.562 46.8808   1
   2  13  -9 721.913 49.6505   1
   2  13  -8 82.0140 42.9394   1
   2  13  -7-36.0573 40.4797   1
  -2 -13   6 31.9348 33.3444   2
   2  13  -6-46.3574 40.8175   1
   2  13  -5 70.0019 43.9855   1
   2  13  -5 1.08655 45.8871   4
  -2 -13   5-32.3403 33.7947   2
   2  13  -4 60.8700 45.5084   4
  -2 -13   4-55.3530 33.9400   2
   2  13  -3 23.8092 44.0112   4
  -2 -13   3-48.3224 35.8155   2
   2  13  -2 203.287 47.6201   4
  -2 -13   2 28.8905 37.6202   2
   2  13  -1 210.601 46.5176   4
  -2 -13   1 195.032 38.3593   2
  -2 -13   0 47.2420 39.0850   2
   2  13   0-47.4780 46.5450   4
  -2 -13  -1 92.4080 38.5016   2
   2  13   1 72.1715 46.0527   4
  -2 -13  -2 142.828 40.3299   2
   2  13   2 106.277 46.6167   4
  -2 -13  -3 66.2562 41.9276   2
   2  13   4 155.766 47.9066   4
  -2 -13  -4 226.703 44.5858   2
   2  13   6 90.7534 47.4685   4
  -2 -13  -6 124.039 46.0579   2
  -2 -13  -7-43.6294 49.0903   2
   2  13   8 32.8260 48.6630   4
   2  14 -18-47.4940 43.3737   1
   2  14 -17-23.2533 44.3778   1
   2  14 -16 109.285 43.6024   1
   2  14 -15 102.293 42.2500   1
   2  14 -14-12.7335 43.4122   1
   2  14 -13 6.97806 42.7924   1
   2  14 -12 4.04403 41.1813   1
   2  14 -10-5.57650 43.7221   1
   2  14  -9 157.740 43.7869   1
   2  14  -8 309.212 44.7847   1
   2  14  -7-38.3123 43.7796   1
   2  14  -6-16.5878 40.0133   1
   2  14  -5 143.164 45.7808   1
   2  14  -5 105.791 49.9703   4
   2  14  -4 444.551 51.9579   4
   2  14  -3 74.9199 46.6254   4
   2  14  -2-54.0927 47.2380   4
  -2 -14   1 34.6797 35.7182   2
   2  14   0 345.388 51.8056   4
  -2 -14   0 226.770 40.4854   2
  -2 -14  -1 578.487 47.3430   2
   2  14   1 335.824 50.4587   4
  -2 -14  -2 53.4252 43.2856   2
   2  14   2 111.575 46.3773   4
   2  14   3 218.562 48.9718   4
  -2 -14  -3 134.315 42.1387   2
  -2 -14  -4 57.3164 43.0981   2
  -2 -14  -5 118.283 45.7953   2
   2  14   5 16.3853 51.9257   4
   2  15 -16-13.2354 41.8189   1
   2  15 -15 158.813 46.1740   1
   2  15 -14 149.784 45.5175   1
   2  15 -13 37.5630 43.6215   1
   2  15 -11-33.1439 42.3890   1
   2  15 -10 73.5857 43.1744   1
   2  15  -9 107.266 41.5856   1
   2  15  -8-28.0393 41.8521   1
   2  15  -7-22.6812 44.0451   1
   2  15  -6 112.447 40.6951   1
   2  15  -5 52.6126 41.8994   1
   2  15  -5 214.637 50.4585   4
   2  15  -4 30.4597 48.7328   4
   2  15  -4 30.7071 43.2440   1
   2  15  -2 54.1068 48.3328   4
   2  15  -1 133.858 49.5801   4
   2  15   0-50.2795 50.5335   4
   2  15   1 168.585 46.4312   4
   2  15   3 96.2596 44.7865   4
   2  16 -11-29.9905 44.4539   1
   2  16 -10 103.909 42.9501   1
   2  16  -9 67.7338 42.3534   1
   2  16  -8-50.5445 43.8292   1
   2  16  -7 52.9172 44.2629   1
   2  16  -6-28.8778 43.8546   1
   2  16  -5 12.5313 42.8168   1
   2  16  -4 87.1999 43.9674   1
   2  16  -3-22.4798 44.2091   1
   2  16  -3 101.053 50.5786   4
   2  16  -2 138.779 48.7515   4
   2  16  -1 65.3278 48.0448   4
  -3  18  -8 100.409 45.5727   5
  -3  18  -9 79.7110 46.2181   5
  -3  17  -4-30.1577 53.9275   4
  -3  17  -6 82.6448 53.8971   4
  -3  17  -7 24.7908 53.9614   4
  -3  17  -7 136.295 43.4443   5
  -3  17  -8 129.703 43.2266   5
  -3  17 -10 149.403 45.7524   5
  -3  17 -11 42.2351 39.5153   1
  -3  17 -12 178.812 42.0928   1
  -3  17 -13-15.4607 42.1623   1
  -3  17 -14 143.556 42.5689   1
  -3  16   1 20.7871 53.2351   4
  -3  16   0 13.6475 51.7462   4
  -3  16  -2 96.8941 52.9628   4
  -3  16  -3-49.5764 50.0023   4
  -3  16  -4-35.4230 50.5287   4
  -3  16  -5 2.45148 38.7440   5
  -3  16  -5 100.429 49.9349   4
  -3  16  -6 79.0949 51.7767   4
  -3  16  -6 127.197 40.5311   5
  -3  16  -7 72.7349 40.8973   5
  -3  16  -7 52.2185 51.0894   4
  -3  16  -8-17.2690 41.2686   5
  -3  16  -9 146.311 42.8998   5
  -3  16  -9 86.1357 37.5812   1
  -3  16 -10-4.76216 35.9652   1
  -3  16 -12 139.128 37.9221   1
  -3  16 -13-8.85432 37.8585   1
  -3  16 -14-57.8370 39.6966   1
  -3  16 -15 48.1784 42.1575   1
  -3  16 -16 64.8444 43.6778   1
  -3  15   4-31.7601 54.4689   4
  -3  15   3 57.9488 52.6269   4
  -3  15   2-29.8971 55.0367   4
  -3  15   0 71.6587 52.3086   4
  -3  15  -1 76.5381 49.1391   4
  -3  15  -3 35.3050 50.1337   4
  -3  15  -4 110.026 37.4599   5
  -3  15  -4 129.679 48.3534   4
  -3  15  -5 50.7055 48.2236   4
  -3  15  -5 25.6150 39.0449   5
  -3  15  -6 69.7963 39.3444   5
  -3  15  -6 1.66183 48.7123   4
  -3  15  -7 73.4708 42.2327   5
  -3  15  -7 62.2900 49.8689   4
  -3  15  -8-25.6698 32.8526   1
  -3  15  -8 196.564 39.9205   5
  -3  15  -9 98.7920 32.1501   1
  -3  15 -10 71.0523 36.5715   1
  -3  15 -11 45.2011 37.0221   1
  -3  15 -12 43.3732 34.3104   1
  -3  15 -13 96.2684 37.1682   1
  -3  15 -14-49.2747 39.3726   1
  -3  15 -15 27.9779 41.9993   1
  -3  15 -16 126.907 40.9798   1
  -3  15 -17 157.122 40.5598   1
  -3  14   6 64.4564 53.1955   4
  -3  14   5 134.328 53.1674   4
  -3  14   4 64.4795 50.7110   4
  -3  14   2 93.0167 52.6272   4
  -3  14   0-20.1181 49.6304   4
  -3  14  -1 250.549 48.8633   4
  -3  14  -2 28.2329 35.5668   5
  -3  14  -2 11.8858 47.3176   4
  -3  14  -3-47.8532 35.2377   5
  -3  14  -3-10.9672 46.6550   4
  -3  14  -4 64.8040 38.6041   5
  -3  14  -4 40.4516 46.1800   4
  -3  14  -5-28.3595 47.1720   4
  -3  14  -5 48.6720 39.2901   5
  -3  14  -6 127.584 39.8751   5
  -3  14  -6 135.311 47.2945   4
  -3  14  -6 88.2371 31.7846   1
  -3  14  -7 130.322 41.0903   5
  -3  14  -7 80.6977 31.6028   1
  -3  14  -8 34.6587 32.6484   1
  -3  14  -9-37.3713 32.3537   1
  -3  14 -10 10.5129 33.8700   1
  -3  14 -11 41.2774 36.1872   1
  -3  14 -12 9.07851 33.1894   1
  -3  14 -13-18.5692 38.2159   1
  -3  14 -14 120.527 38.4356   1
  -3  14 -15 37.5270 38.7042   1
  -3  14 -16 24.4600 39.4711   1
  -3  14 -17-16.2195 41.2332   1
  -3  14 -18 57.9949 42.4726   1
  -3  13   8 169.292 51.0421   4
  -3  13   7-14.4907 49.8316   4
  -3  13   6 130.834 49.5318   4
  -3  13   5 31.6651 50.7400   4
  -3  13   4 57.9631 49.4762   4
  -3  13   3 66.6779 49.1205   4
  -3  13   2-16.5813 48.1952   4
  -3  13   1 501.632 54.3875   4
  -3  13   0 38.6604 47.8880   4
  -3  13  -1 28.9798 35.0051   5
  -3  13  -2 61.3169 35.1563   5
  -3  13  -2 110.641 47.4034   4
  -3  13  -3 15.6862 33.7752   5
  -3  13  -4 29.7471 36.7806   5
  -3  13  -4-19.0837 46.5486   4
  -3  13  -5 49.4143 28.2002   1
  -3  13  -5 74.1854 37.9018   5
  -3  13  -6 363.790 47.1080   4
  -3  13  -6 191.161 30.1403   1
  -3  13  -6 359.117 41.4487   5
  -3  13  -7 71.3587 46.2821   4
  -3  13  -7 102.980 32.4944   1
  -3  13  -8 89.4163 32.8206   1
  -3  13  -9 40.8913 30.7039   1
  -3  13 -10 257.003 36.4469   1
  -3  13 -11 100.027 33.7642   1
  -3  13 -12 41.9728 35.7541   1
  -3  13 -13 40.2563 35.2327   1
  -3  13 -14 109.409 40.0135   1
  -3  13 -15-6.65941 38.0229   1
  -3  13 -16 71.2786 37.8606   1
  -3  13 -17 56.1622 39.2443   1
  -3  13 -18-54.4478 42.3440   1
  -3  13 -19-28.4733 40.4340   1
  -3  13 -20 60.0353 43.2583   1
  -3  12  10-24.4966 49.0201   4
  -3  12   9 99.6983 50.1745   4
  -3  12   8 106.017 49.4343   4
  -3  12   7 84.4833 49.8100   4
  -3  12   6 106.943 47.3697   4
  -3  12   5 23.0927 47.1496   4
  -3  12   4 703.821 53.4869   4
  -3  12   3 174.001 50.2084   4
  -3  12   2 191.290 48.4174   4
  -3  12   0 1652.36 44.8222   5
  -3  12   0 1661.06 58.9338   4
  -3  12  -1 1.36320 45.1444   4
  -3  12  -1 20.5670 33.7886   5
  -3  12  -2-46.9424 34.5954   5
  -3  12  -2 28.1816 44.2997   4
  -3  12  -3-34.6992 43.3609   4
  -3  12  -3-8.04767 37.6690   5
  -3  12  -4 212.549 38.9543   5
  -3  12  -4 116.534 27.7333   1
  -3  12  -4 199.467 44.7630   4
  -3  12  -5 84.5100 27.5257   1
  -3  12  -5 49.1184 37.9446   5
  -3  12  -5 3.21562 44.3651   4
  -3  12  -6 339.001 46.9028   4
  -3  12  -6 385.622 30.9371   1
  -3  12  -7 161.296 28.8159   1
  -3  12  -7 238.170 44.1065   4
  -3  12  -8 80.5436 30.2973   1
  -3  12  -9 487.520 36.8082   1
  -3  12 -10 120.645 34.7917   1
  -3  12 -11 36.7424 31.4403   1
  -3  12 -12-14.6946 34.8105   1
  -3  12 -13-21.5280 34.0865   1
  -3  12 -14-36.4920 37.0476   1
  -3  12 -15 41.2091 35.5791   1
  -3  12 -16 55.9900 37.2196   1
  -3  12 -17-30.5594 39.6323   1
  -3  12 -18 44.1247 41.7559   1
  -3  12 -19 92.1397 41.3468   1
  -3  12 -21 86.0215 40.5046   1
  -3  11  12 96.8968 52.8212   4
  -3  11  11 18.3871 50.4207   4
  -3  11   9 44.4526 49.1910   4
  -3  11   8 111.299 47.2991   4
  -3  11   7-23.9810 46.9638   4
  -3  11   6 144.955 46.9588   4
  -3  11   5 45.4740 45.5828   4
  -3  11   4-0.35248 44.4612   4
  -3  11   3 1346.10 54.2991   4
  -3  11   2 94.3836 29.8685   5
  -3  11   2 89.4446 47.5239   4
  -3  11   1-35.8640 31.6653   5
  -3  11   1-14.7034 45.5385   4
  -3  11   0 634.113 49.9221   4
  -3  11   0 668.160 37.7833   5
  -3  11  -1 72.4518 48.3260   4
  -3  11  -1 168.193 36.2522   5
  -3  11  -2 2670.77 52.7659   5
  -3  11  -2 2094.29 39.7760   1
  -3  11  -2 2601.48 60.2857   4
  -3  11  -3 19.7102 43.6395   4
  -3  11  -3 13.3138 25.2511   1
  -3  11  -3 19.7409 38.4084   5
  -3  11  -4 11.9288 26.7326   1
  -3  11  -4 86.1458 44.5510   4
  -3  11  -4 84.4317 38.3512   5
  -3  11  -5 1247.31 46.0561   5
  -3  11  -5 1238.85 50.3836   4
  -3  11  -5 1035.79 35.5201   1
  -3  11  -6 4.26594 27.0263   1
  -3  11  -6-43.1284 42.4168   4
  -3  11  -7 168.794 41.6507   4
  -3  11  -7 170.164 28.7769   1
  -3  11  -8 59.1088 29.6707   1
  -3  11  -9 656.976 36.7984   1
  -3  11 -10 953.969 41.4137   1
  -3  11 -11 294.530 36.5507   1
  -3  11 -12 20.4446 32.6810   1
  -3  11 -13 46.2851 35.9598   1
  -3  11 -14 167.934 38.0601   1
  -3  11 -15 81.4940 38.2938   1
  -3  11 -16-16.8157 38.6066   1
  -3  11 -17 48.6254 37.9448   1
  -3  11 -18 64.3390 38.4216   1
  -3  11 -20-5.84067 39.8999   1
  -3  11 -21 103.095 39.5276   1
  -3  10  13 200.707 53.2152   4
  -3  10  12 90.0805 50.9364   4
  -3  10  11-20.7300 48.2652   4
  -3  10   9 48.3981 46.4040   4
  -3  10   8 69.5366 45.3372   4
  -3  10   7 20.3064 45.2318   4
  -3  10   6 127.087 44.5190   4
  -3  10   5 2151.02 58.8471   4
  -3  10   5 1945.05 42.7496   6
  -3  10   4 153.620 31.0495   6
  -3  10   4 167.094 44.4876   4
  -3  10   3 1062.11 35.6899   6
  -3  10   3 1074.26 36.2290   5
  -3  10   3 1229.77 52.5927   4
  -3  10   2 1312.53 51.6076   4
  -3  10   2 1287.92 40.5730   5
  -3  10   1 156.102 45.4757   4
  -3  10   1 124.600 33.3777   5
  -3  10   0 3493.57 52.7524   5
  -3  10   0 3446.65 62.1140   4
  -3  10  -1 91.1031 42.9748   4
  -3  10  -1 102.421 34.9417   5
  -3  10  -1 65.8261 21.8106   1
  -3  10  -2 84.6464 23.4984   1
  -3  10  -2 77.6503 40.6492   4
  -3  10  -2 128.478 34.3758   5
  -3  10  -3 355.155 39.3229   4
  -3  10  -3 267.762 25.6745   1
  -3  10  -3 379.654 37.7483   5
  -3  10  -4 12.9456 37.8912   4
  -3  10  -4 18.3867 34.5436   5
  -3  10  -4 31.0386 22.4606   1
  -3  10  -5 218.850 27.1156   1
  -3  10  -5 195.509 38.6784   4
  -3  10  -6 178.521 25.9019   1
  -3  10  -6 212.606 40.4338   4
  -3  10  -7 131.511 27.9570   1
  -3  10  -8 48.6711 29.0998   1
  -3  10  -9 285.910 33.7894   1
  -3  10 -10 339.641 35.2532   1
  -3  10 -11 1477.38 42.9422   1
  -3  10 -12 92.2578 36.1628   1
  -3  10 -13-18.8055 35.4668   1
  -3  10 -14 214.684 40.4674   1
  -3  10 -15-37.6761 35.9860   1
  -3  10 -16 21.3049 38.7362   1
  -3  10 -17 129.593 40.2248   1
  -3  10 -18-0.97596 39.8417   1
  -3  10 -19-8.88051 40.0194   1
  -3  10 -20 139.755 39.9442   1
  -3  10 -21-13.3851 37.8903   1
  -3  10 -22 42.8654 39.6520   1
  -3   9  14-16.9088 52.1250   4
  -3   9  13 0.84482 50.8521   4
  -3   9  12 204.001 52.0733   4
  -3   9  11 77.3900 48.0947   4
  -3   9  10-13.6963 45.2841   4
  -3   9   9 26.0211 44.9538   4
  -3   9   8 79.6894 45.3465   4
  -3   9   7 391.141 47.0048   4
  -3   9   6 44.6312 43.7118   4
  -3   9   5 178.322 31.6322   6
  -3   9   5 109.560 47.1025   4
  -3   9   4 5888.41 59.1407   6
  -3   9   4 5954.02 58.1786   5
  -3   9   4 6109.16 73.7054   4
  -3   9   3 1902.45 40.5206   6
  -3   9   3 2035.76 55.3039   4
  -3   9   3 1869.16 40.8600   5
  -3   9   2 877.249 45.7041   4
  -3   9   2 857.505 32.1976   6
  -3   9   2 881.224 35.0250   5
  -3   9   1 78.2133 29.8497   5
  -3   9   1 97.7214 38.5343   4
  -3   9   1 67.8468 24.2485   6
  -3   9   0 39.5102 23.2620   6
  -3   9   0 59.7792 37.2944   4
  -3   9   0 27.5467 18.2014   1
  -3   9   0 61.4001 30.2166   5
  -3   9  -1 560.431 25.3103   6
  -3   9  -1 552.476 34.4709   5
  -3   9  -1 422.785 22.7650   1
  -3   9  -1 597.342 40.5557   4
  -3   9  -2 126.597 21.0259   1
  -3   9  -2 146.689 32.3099   5
  -3   9  -2 185.331 22.1601   6
  -3   9  -2 148.886 34.4312   4
  -3   9  -3 18.7124 20.9599   6
  -3   9  -3 13.1820 21.2203   1
  -3   9  -3 31.4078 35.3224   4
  -3   9  -3 74.2484 32.8326   5
  -3   9  -4 197.651 22.7494   6
  -3   9  -4 294.875 35.0300   5
  -3   9  -4 192.210 23.1556   1
  -3   9  -4 218.800 36.9594   4
  -3   9  -5 272.632 36.2713   4
  -3   9  -5 305.811 22.8462   6
  -3   9  -5 256.389 25.6285   1
  -3   9  -6-0.59339 32.6014   4
  -3   9  -6 2.41825 23.0101   1
  -3   9  -7 9.62990 26.1676   1
  -3   9  -8 440.940 31.0677   1
  -3   9  -9 102.723 29.8820   1
  -3   9 -10 101.940 32.3807   1
  -3   9 -11 771.768 39.9831   1
  -3   9 -12 1081.10 41.7096   1
  -3   9 -13 1285.10 47.5241   1
  -3   9 -14 22.6263 35.2761   1
  -3   9 -15-23.9356 36.0296   1
  -3   9 -16-25.3209 38.0774   1
  -3   9 -17 66.5421 39.8569   1
  -3   9 -18 71.8766 40.3333   1
  -3   9 -19-31.2848 38.6140   1
  -3   9 -20 62.3871 41.3660   1
  -3   9 -22 9.13256 40.7814   1
  -3   8  14-12.8418 48.6937   4
  -3   8  13 42.5384 49.8901   4
  -3   8  12 94.5093 47.2619   4
  -3   8  11 244.684 48.0336   4
  -3   8  10-20.9573 44.0207   4
  -3   8   9 240.917 45.3283   4
  -3   8   8 23.1685 45.1212   4
  -3   8   7 591.656 47.9065   4
  -3   8   6 268.145 45.2477   4
  -3   8   5 42.9662 41.1790   4
  -3   8   5-23.3265 28.8398   5
  -3   8   4 2390.89 42.3891   5
  -3   8   4 2615.02 53.4764   4
  -3   8   4 2445.31 42.4213   6
  -3   8   3 1335.58 35.4704   5
  -3   8   3 1422.64 34.7097   6
  -3   8   3 1465.22 45.3689   4
  -3   8   2 791.458 31.6367   5
  -3   8   2 897.160 40.7290   4
  -3   8   2 814.867 29.4912   6
  -3   8   1 90.0167 28.9946   5
  -3   8   1 111.670 32.8695   4
  -3   8   1 120.541 22.9064   6
  -3   8   1 74.8326 17.0047   1
  -3   8   0 10.4063 23.3051   6
  -3   8   0-0.46528 15.4095   1
  -3   8   0 10.9771 28.4016   5
  -3   8   0 24.3475 32.2333   4
  -3   8  -1 191.766 31.4139   4
  -3   8  -1 179.535 29.6508   5
  -3   8  -1 216.336 21.5121   6
  -3   8  -1 167.064 17.7094   1
  -3   8  -2 127.757 21.5726   6
  -3   8  -2 112.297 18.4546   1
  -3   8  -2 138.166 30.5627   5
  -3   8  -2 141.572 31.4405   4
  -3   8  -3 67.5279 18.8279   1
  -3   8  -3 73.7682 19.9798   6
  -3   8  -3 115.409 29.8860   5
  -3   8  -3 81.6949 31.6782   4
  -3   8  -4 735.010 34.9138   5
  -3   8  -4 611.029 35.0038   4
  -3   8  -4 693.099 23.3177   6
  -3   8  -4 609.601 24.4141   1
  -3   8  -5 230.877 31.4258   4
   3  -8   5 260.441 16.3856   0
  -3   8  -5 261.141 23.0840   1
  -3   8  -6 306.815 24.2292   1
  -3   8  -7 71.4076 24.7983   1
  -3   8  -8 1599.07 38.0486   1
  -3   8  -9 601.384 32.7726   1
  -3   8 -10 377.714 32.9924   1
  -3   8 -11 209.962 31.2168   1
  -3   8 -12 692.297 38.9056   1
  -3   8 -13 211.380 36.6285   1
  -3   8 -14 90.6914 37.5230   1
  -3   8 -15 2050.62 54.0110   1
  -3   8 -16 155.180 35.3391   1
  -3   8 -17 72.7330 36.0091   1
  -3   8 -18-8.78724 36.8795   1
  -3   8 -19 9.87753 37.9955   1
  -3   8 -20-48.5164 38.7366   1
  -3   8 -21-45.9354 37.8855   1
   3  -8  21-46.2490 35.4262   4
  -3   7  17-4.12955 54.8196   4
  -3   7  16 47.3254 51.5187   4
  -3   7  15 56.1307 50.1483   4
  -3   7  14 109.023 50.0098   4
  -3   7  13 11.6957 48.1652   4
  -3   7  12 227.064 47.8473   4
  -3   7  11-33.7650 44.4037   4
  -3   7  10 47.8208 43.7263   4
  -3   7   9 6.74632 42.4566   4
  -3   7   8 922.344 49.9747   4
  -3   7   7 493.420 44.3015   4
  -3   7   6-23.4760 40.1594   4
  -3   7   5 1795.79 35.9547   5
  -3   7   5 2001.44 48.2181   4
  -3   7   4 55.6444 26.5771   6
  -3   7   4 13.8835 34.8878   4
  -3   7   4 8.69028 23.9658   5
  -3   7   3 29.1509 25.2517   6
  -3   7   3 36.9548 24.2707   5
  -3   7   3 27.0334 31.7185   4
  -3   7   2 72.7459 24.6548   6
  -3   7   2 40.4813 25.0530   5
  -3   7   2 75.4027 14.0079   1
  -3   7   2 85.0709 31.5023   4
  -3   7   1 240.392 23.6496   6
  -3   7   1 233.074 27.6020   5
  -3   7   1 202.574 15.2264   1
  -3   7   1 253.568 30.3810   4
  -3   7   0 454.003 29.1697   5
  -3   7   0 342.059 16.4144   1
  -3   7   0 449.435 24.9182   6
  -3   7   0 400.756 30.5591   4
  -3   7  -1 1167.20 22.7165   1
  -3   7  -1 1323.25 34.3876   4
  -3   7  -1 1267.94 27.8411   6
  -3   7  -1 1396.01 34.7614   5
  -3   7  -2-8.97541 21.7427   6
  -3   7  -2 51.1187 27.0694   4
  -3   7  -2 66.3397 27.9312   5
  -3   7  -2 29.4906 15.4839   1
  -3   7  -3 2244.31 31.9496   6
  -3   7  -3 2194.35 38.6813   5
  -3   7  -3 2089.57 29.7119   1
  -3   7  -3 2167.17 38.5622   4
   3  -7   3 2209.39 24.0185   0
  -3   7  -4 843.294 25.2738   6
  -3   7  -4 898.513 31.8532   4
  -3   7  -4 912.189 33.6114   5
   3  -7   4 856.441 19.6639   0
  -3   7  -4 903.913 24.6605   1
   3  -7   5 1461.01 23.6189   0
  -3   7  -5 1465.32 29.8285   1
  -3   7  -5 1515.07 35.9990   4
  -3   7  -6-6.20221 19.8184   1
  -3   7  -7 882.809 29.9814   1
  -3   7  -8 1911.65 38.1237   1
  -3   7  -9 123.791 27.9271   1
  -3   7 -10 80.0049 26.1486   1
  -3   7 -11 42.1644 31.0870   1
  -3   7 -12 68.2866 30.3557   1
  -3   7 -13 1704.85 46.8415   1
  -3   7 -14 334.491 40.1232   1
  -3   7 -15 55.7300 39.9885   1
  -3   7 -16 2630.03 59.6516   1
  -3   7 -17 21.0620 38.0956   1
  -3   7 -18 4.49835 39.3140   1
  -3   7 -19 9.26468 38.2799   1
   3  -7  19 98.1813 33.9864   4
  -3   7 -20-29.3948 38.3273   1
   3  -7  20 77.1057 34.4484   4
  -3   7 -21 179.390 38.7662   1
  -3   6  18 23.3313 53.6349   4
  -3   6  17 92.0596 51.0481   4
  -3   6  16 81.0828 48.3893   4
  -3   6  15 58.9656 49.3949   4
  -3   6  14 42.6191 46.7379   4
  -3   6  13 36.8626 45.3844   4
  -3   6  12 271.431 46.8588   4
  -3   6  11 15.6651 42.8832   4
  -3   6  10 355.537 46.9614   4
  -3   6   9 58.5457 44.2325   4
  -3   6   8 120.964 41.5117   4
  -3   6   7 5.08683 39.1413   4
  -3   6   6 766.384 39.5218   4
  -3   6   5 927.290 29.4585   5
  -3   6   5 981.628 39.6185   4
  -3   6   4 714.375 28.0033   5
  -3   6   4 789.563 36.3936   4
  -3   6   4 864.764 31.6913   6
  -3   6   3 762.479 28.5296   5
  -3   6   3 736.923 33.0005   4
  -3   6   3 789.034 29.2492   6
  -3   6   2 228.671 12.7674   1
  -3   6   2 278.802 27.7874   4
  -3   6   2 290.446 25.2132   6
  -3   6   2 280.391 24.9898   5
  -3   6   1-13.1845 21.5244   6
  -3   6   1-20.0708 25.5997   4
  -3   6   1 3.04458 10.9261   1
  -3   6   1-4.74532 10.3056   0
  -3   6   1-15.4241 24.1705   5
  -3   6   0 635.730 14.2405   0
  -3   6   0 692.743 26.0282   6
  -3   6   0 688.623 29.3668   5
  -3   6   0 692.857 27.7875   4
  -3   6   0 615.446 16.0234   1
  -3   6  -1 150.756 21.4562   6
  -3   6  -1 128.653 13.6894   1
  -3   6  -1 132.886 24.6745   4
  -3   6  -1 153.683 25.9602   5
  -3   6  -2 32.9356 22.8585   4
  -3   6  -2 46.9877 26.3982   5
  -3   6  -2 11.3656 21.9517   6
  -3   6  -2 43.6656 14.0952   1
  -3   6  -3 3154.88 38.4589   4
  -3   6  -3 3227.09 31.9856   1
  -3   6  -3 3292.92 42.4114   5
   3  -6   3 3152.41 28.4539   0
  -3   6  -3 3195.20 35.6718   6
  -3   6  -4-7.44120 20.7434   6
  -3   6  -4 41.6433 26.7620   5
   3  -6   4 7.24624 14.8297   0
  -3   6  -4-4.94615 23.5322   4
  -3   6  -4-4.26128 16.5249   1
  -3   6  -5 837.391 24.5868   1
   3  -6   5 886.487 21.7860   0
  -3   6  -6 3539.66 39.4141   1
  -3   6  -7 408.117 24.7026   1
  -3   6  -8 4.10874 21.5713   1
  -3   6  -9 239.122 26.6344   1
  -3   6 -10 158.213 26.6336   1
  -3   6 -11 301.352 32.3320   1
  -3   6 -12 84.7331 22.7799   3
  -3   6 -12 62.7110 33.0473   1
  -3   6 -13 818.944 40.4165   1
  -3   6 -13 707.507 27.6314   3
  -3   6 -14 58.4057 36.0212   1
  -3   6 -15 8.10214 37.5696   1
  -3   6 -16 161.034 40.1452   1
  -3   6 -17 100.551 37.7962   1
   3  -6  17 197.703 33.3792   4
  -3   6 -18-28.4404 37.0643   1
   3  -6  18 78.4118 32.9117   4
  -3   6 -19 52.9685 36.6137   1
   3  -6  19-17.4699 34.0430   4
  -3   6 -21 88.3952 39.5850   1
  -3   6 -23 220.589 42.5490   1
  -3   5  18 293.373 50.6571   4
  -3   5  17 134.124 47.0435   4
  -3   5  16 109.966 44.8450   4
  -3   5  15 66.7515 44.6450   4
  -3   5  14 241.282 46.1142   4
  -3   5  13 428.418 48.1722   4
  -3   5  12 48.7641 42.6196   4
  -3   5  11 90.3360 42.2013   4
  -3   5  10 6.95371 41.0939   4
  -3   5   9 3.45984 38.9888   4
  -3   5   8 63.0368 37.1862   4
  -3   5   7-11.1013 33.7608   4
  -3   5   6 112.378 31.4732   4
  -3   5   5 13.9609 30.0635   4
  -3   5   4 380.169 26.8345   6
  -3   5   4 319.622 24.4736   5
  -3   5   4 296.151 30.0362   4
  -3   5   3 866.263 28.6257   5
  -3   5   3 937.587 30.1660   6
  -3   5   3 935.742 30.6302   4
  -3   5   2 109.516 23.3784   5
  -3   5   2 155.880 24.6301   6
  -3   5   2 102.110 9.30029   1
  -3   5   2 141.461 24.7704   4
  -3   5   1 2539.56 34.4834   4
  -3   5   1 2601.24 35.6102   6
  -3   5   1 2641.90 36.2229   5
  -3   5   0 3796.59 39.1290   6
  -3   5   0 3502.45 26.6772   0
  -3   5   0 3425.35 24.3461   1
  -3   5   0 3561.72 35.8485   4
  -3   5   0 3626.85 40.4284   5
  -3   5  -1 16.2729 19.5251   4
  -3   5  -1-10.1666 23.4546   5
  -3   5  -1-38.9642 20.8157   6
  -3   5  -1-3.89190 12.5839   0
  -3   5  -1 2.31604 11.0819   1
  -3   5  -2 542.748 24.2798   6
  -3   5  -2 542.685 26.6473   5
  -3   5  -2 510.828 22.0935   4
  -3   5  -2 506.072 15.5099   1
  -3   5  -3 2149.69 25.7387   1
  -3   5  -3 2164.62 30.3400   6
   3  -5   3 2119.73 25.2877   0
  -3   5  -3 2349.34 36.2738   5
  -3   5  -3 2043.43 30.0360   4
  -3   5  -4 5459.04 46.8522   5
  -3   5  -4 5318.99 39.3158   1
  -3   5  -4 5210.09 40.4246   4
   3  -5   4 5182.51 37.7290   0
   3  -5   5 1.11946 15.9796   0
  -3   5  -5 18.4411 17.7883   1
  -3   5  -5 0.50399 20.9235   3
  -3   5  -6 126.540 19.9855   1
  -3   5  -6 128.408 21.4384   3
  -3   5  -7 166.064 20.2774   1
  -3   5  -7 143.789 21.6074   3
  -3   5  -8 9.81599 23.1312   1
  -3   5  -8 8.14708 19.8274   3
  -3   5  -9 315.838 26.5497   1
  -3   5  -9 312.949 21.9749   3
  -3   5 -10 44.9143 26.1174   1
  -3   5 -10 53.4573 21.0273   3
  -3   5 -11 1284.06 37.6055   1
  -3   5 -11 1245.55 30.0678   3
  -3   5 -12 599.642 36.5348   1
  -3   5 -12 527.252 24.9761   3
  -3   5 -13 218.103 23.6949   3
  -3   5 -13 191.170 36.3597   1
  -3   5 -14 522.028 40.8634   1
  -3   5 -15 925.877 40.5057   1
  -3   5 -16-3.37203 33.2440   1
   3  -5  16 38.2511 32.0024   4
  -3   5 -17 91.8872 38.3790   1
   3  -5  17 26.8239 32.7287   4
  -3   5 -18-45.3057 37.0782   1
   3  -5  19-23.5152 33.7934   4
  -3   5 -19 116.867 37.1051   1
  -3   5 -20-59.3124 38.5297   1
  -3   5 -21 58.1341 35.7938   1
  -3   4  19 262.842 50.6485   4
  -3   4  18 167.685 48.8191   4
  -3   4  17 95.5533 47.1723   4
  -3   4  16 92.1527 46.3636   4
  -3   4  15 49.3917 44.7686   4
  -3   4  14 54.6095 45.0016   4
  -3   4  13 315.778 46.4059   4
  -3   4  12 405.025 45.2870   4
  -3   4  11 623.003 44.4606   4
  -3   4  10 13.6939 39.0264   4
  -3   4   9 59.5873 35.1356   4
  -3   4   8 163.110 33.4681   4
  -3   4   7-3.82916 30.5042   4
  -3   4   6 34.9780 27.1655   4
  -3   4   5 16.1090 27.3294   4
  -3   4   4 113.585 26.3441   6
  -3   4   4 102.274 25.8751   4
  -3   4   3 2079.94 33.8955   6
  -3   4   3 1880.70 31.7205   5
  -3   4   3 1957.07 32.9311   4
  -3   4   2 16.7346 21.5071   6
  -3   4   2 8.65132 21.0505   4
  -3   4   2 2.99724 20.9993   5
  -3   4   1 969.023 27.3316   6
  -3   4   1 948.646 26.1908   5
  -3   4   1 936.277 23.4413   4
  -3   4   0 140.321 9.11082   1
  -3   4   0 138.722 22.3823   5
  -3   4   0 152.698 20.2335   6
  -3   4   0 165.670 18.2685   4
  -3   4   0 161.204 14.4411   0
  -3   4  -1 282.379 15.1803   0
  -3   4  -1 258.076 11.3524   1
  -3   4  -1 293.087 18.3127   4
  -3   4  -1 285.114 23.1182   6
  -3   4  -1 248.645 23.1246   5
  -3   4  -2 121.933 21.6600   6
  -3   4  -2 125.691 12.2003   1
  -3   4  -2 161.301 23.2873   5
   3  -4   2 138.998 15.6438   0
  -3   4  -2 151.013 20.0200   3
  -3   4  -2 124.940 17.1205   4
  -3   4  -3 27.7174 16.0591   4
  -3   4  -3 41.8518 13.0190   1
  -3   4  -3 70.0526 21.1013   6
   3  -4   3 40.9328 15.3508   0
  -3   4  -3 50.1065 23.0636   5
  -3   4  -3 58.8822 19.2979   3
  -3   4  -4 5471.40 43.8583   5
  -3   4  -4 5245.00 37.1407   1
   3  -4   4 5422.64 39.1637   0
  -3   4  -4 5109.15 44.0496   3
  -3   4  -5 617.735 25.1388   5
  -3   4  -5 595.129 23.3678   3
  -3   4  -5 628.647 21.1231   1
   3  -4   5 593.549 20.7862   0
  -3   4  -6 228.995 21.2357   3
  -3   4  -6 224.773 21.0597   1
  -3   4  -7 14.0825 21.1115   1
  -3   4  -7 1.67745 18.4991   3
  -3   4  -8 1211.98 31.3380   1
  -3   4  -8 1148.65 26.7716   3
  -3   4  -9 1307.17 32.6440   1
  -3   4  -9 1170.00 26.8104   3
  -3   4 -10-10.7671 19.2700   3
  -3   4 -10-24.1873 24.6903   1
  -3   4 -11 483.097 33.2457   1
  -3   4 -11 445.542 23.2098   3
  -3   4 -12 35.5950 29.7275   1
  -3   4 -12-17.2287 20.2739   3
   3  -4  13 1653.34 37.5380   4
  -3   4 -13 1650.98 44.1358   1
  -3   4 -13 1402.18 30.6602   3
   3  -4  14 817.827 35.3159   4
  -3   4 -14 881.539 41.8121   1
   3  -4  15 220.952 32.2176   4
  -3   4 -15 174.738 34.5648   1
   3  -4  16-10.3145 32.0513   4
  -3   4 -16 33.7376 36.5832   1
   3  -4  17-39.1146 33.1139   4
  -3   4 -17-47.6993 33.8009   1
   3  -4  18-39.7490 33.7455   4
  -3   4 -18 36.3466 38.2189   1
  -3   4 -19-12.4935 35.3577   1
  -3   4 -20 45.6064 37.9855   1
  -3   4 -21 45.3319 35.2960   1
  -3   3  20 190.224 49.6221   4
  -3   3  19 194.619 49.9461   4
  -3   3  18 74.2474 47.9247   4
  -3   3  17 56.1677 45.8308   4
  -3   3  16-2.84061 43.4698   4
  -3   3  15 107.000 45.5204   4
  -3   3  14 55.3588 42.7710   4
  -3   3  13 91.9417 43.7550   4
  -3   3  12-35.2009 43.2171   4
  -3   3  11-5.95097 39.8138   4
  -3   3  10-4.63742 35.3811   4
  -3   3   9 285.814 34.4873   4
  -3   3   8 256.322 31.7379   4
  -3   3   7 744.578 33.0201   4
  -3   3   6 3034.18 42.0773   4
  -3   3   5 353.977 27.7383   4
  -3   3   4 977.768 26.8192   4
  -3   3   4 1018.26 30.0154   6
  -3   3   3 47.1361 22.2127   6
  -3   3   3 46.2930 20.5064   5
  -3   3   3 50.8168 19.0984   4
  -3   3   2 39.9392 19.9965   6
  -3   3   2 35.2989 20.1949   5
  -3   3   2 25.3649 18.0643   4
  -3   3   1 1184.14 28.1621   6
  -3   3   1 1145.09 26.3542   5
  -3   3   1 1071.90 17.4238   2
  -3   3   1 1035.86 20.9478   4
  -3   3   1 1148.12 24.0730   3
  -3   3   0 19.3862 7.32657   1
  -3   3   0 3.69871 21.1471   6
  -3   3   0 21.9952 10.3923   2
  -3   3   0 22.2780 20.4098   5
  -3   3   0 9.80377 13.9909   4
  -3   3   0 16.9906 14.9281   0
  -3   3   0 32.5624 17.4546   3
  -3   3  -1 183.673 9.63992   2
  -3   3  -1 182.060 16.1195   0
  -3   3  -1 159.755 21.7907   5
  -3   3  -1 194.380 22.4562   6
  -3   3  -1 195.491 14.0789   4
  -3   3  -1 186.597 10.5498   1
  -3   3  -1 163.630 19.2524   3
  -3   3  -2 43.7394 20.4467   5
  -3   3  -2 43.5857 20.1458   6
  -3   3  -2 35.6607 11.5146   1
  -3   3  -2 34.6475 13.1508   4
   3  -3   2 54.0652 16.2431   0
  -3   3  -2 34.0219 17.8543   3
  -3   3  -2 62.3573 15.9435   0
   3  -3   3 894.060 21.9505   0
  -3   3  -3 919.710 24.5134   5
  -3   3  -3 821.979 18.0070   1
  -3   3  -3 875.370 23.1872   3
  -3   3  -4 1560.00 23.2257   1
   3  -3   4 1652.13 25.9003   0
  -3   3  -4 1545.34 15.4164   2
  -3   3  -4 1647.17 28.1737   5
  -3   3  -4 1592.17 28.3699   3
  -3   3  -5 539.062 21.9340   5
  -3   3  -5 515.173 13.7656   2
   3  -3   5 559.028 21.3796   0
  -3   3  -5 510.706 19.5420   1
  -3   3  -5 518.725 22.2731   3
  -3   3  -6 71.5359 17.9781   3
  -3   3  -6 57.1917 19.2474   1
  -3   3  -7 793.699 26.7453   1
  -3   3  -7 756.310 24.6212   3
  -3   3  -8 1327.94 31.6630   1
  -3   3  -8 1275.22 27.9459   3
  -3   3  -9 266.796 25.4667   1
  -3   3  -9 264.918 20.7043   3
  -3   3 -10 2275.80 41.8797   1
  -3   3 -10 2187.87 32.8001   3
  -3   3 -11 67.2064 19.1155   3
   3  -3  11 82.3527 23.6510   4
  -3   3 -11 66.3606 30.6113   1
   3  -3  12 118.843 25.7481   4
  -3   3 -12 140.664 20.2314   3
  -3   3 -12 136.625 31.7273   1
  -3   3 -13 595.673 36.6332   1
   3  -3  13 513.342 31.5652   4
  -3   3 -14 206.109 37.3024   1
   3  -3  14 191.816 31.8098   4
   3  -3  15 18.6193 30.2463   4
  -3   3 -15 71.3505 35.8295   1
   3  -3  16 283.428 33.0841   4
  -3   3 -16 274.037 36.0052   1
   3  -3  17-47.2683 32.9801   4
  -3   3 -17 35.5304 37.6018   1
   3  -3  18 72.4945 33.1295   4
  -3   3 -18 59.8127 35.9958   1
  -3   3 -19-24.8701 35.0933   1
  -3   3 -20 53.9854 37.9521   1
  -3   3 -22 81.0298 40.4550   1
  -3   2  19 82.1098 47.0263   4
  -3   2  18 68.0562 45.4985   4
  -3   2  17-33.7153 44.2438   4
  -3   2  16-49.4124 42.4171   4
  -3   2  15 159.751 44.5639   4
  -3   2  14 129.462 42.7740   4
  -3   2  13 2901.54 59.2695   4
  -3   2  12 1018.21 44.7815   4
  -3   2  11-6.40750 36.4122   4
  -3   2  10 346.820 36.3256   4
  -3   2   9 785.952 36.0260   4
   3  -2  -8 96.3342 11.8524   1
  -3   2   8 93.0402 29.2369   4
   3  -2  -7 5737.56 29.9528   1
  -3   2   7 5967.21 52.1044   4
   3  -2  -6 3774.80 20.9628   1
  -3   2   6 4102.48 42.3813   4
  -3   2   5 5295.10 43.1435   4
  -3   2   4 51.4221 22.9742   6
  -3   2   4 44.1967 18.5883   4
  -3   2   4 42.6050 18.0044   2
  -3   2   3 1147.79 21.9007   2
  -3   2   3 1167.28 22.3588   4
  -3   2   3 1233.31 21.5279   3
  -3   2   3 1201.63 27.7710   6
  -3   2   2 18.2917 14.8220   4
  -3   2   2 17.2661 20.0918   5
  -3   2   2 17.1033 21.1683   6
  -3   2   2 27.1387 14.5686   2
  -3   2   2 14.1740 15.8813   3
  -3   2   1 1966.22 28.9847   5
  -3   2   1 1835.60 21.0580   2
  -3   2   1 2063.33 30.9082   6
  -3   2   1 1940.68 20.0434   4
  -3   2   1 1993.16 26.5085   3
  -3   2   0 1403.18 13.9559   1
  -3   2   0 1538.23 27.0300   5
  -3   2   0 1626.54 30.0059   6
  -3   2   0 1461.52 16.2993   4
  -3   2   0 1526.08 25.8051   3
  -3   2   0 1479.83 18.0095   2
  -3   2  -1 389.119 21.1660   5
  -3   2  -1 390.760 22.5332   6
  -3   2  -1 408.153 18.8292   0
  -3   2  -1 387.739 11.5543   1
  -3   2  -1 389.018 12.6099   2
  -3   2  -1 406.350 19.7986   3
  -3   2  -2 372.930 14.1341   1
  -3   2  -2 327.939 20.4652   5
  -3   2  -2 400.407 24.0363   6
  -3   2  -2 356.034 13.1976   2
   3  -2   2 396.316 19.6885   0
  -3   2  -2 349.027 19.2996   0
  -3   2  -2 363.354 20.1185   3
   3  -2   3 1230.10 25.1971   0
  -3   2  -3 1112.24 19.5323   1
  -3   2  -3 1208.42 23.9884   5
  -3   2  -3 1150.00 16.5650   2
  -3   2  -3 1204.28 24.2033   3
  -3   2  -4 867.257 21.2368   1
  -3   2  -4 915.485 21.8071   5
   3  -2   4 915.142 22.7054   0
  -3   2  -4 899.002 17.5595   2
  -3   2  -4 904.690 22.6730   3
  -3   2  -5 1170.75 19.9543   2
   3  -2   5 1207.39 25.2068   0
  -3   2  -5 1241.70 23.2966   5
  -3   2  -5 1249.31 24.8039   1
  -3   2  -5 1173.33 24.1903   3
  -3   2  -6 83.5125 17.1491   3
  -3   2  -6 95.3144 19.7651   1
  -3   2  -6 87.8150 17.0385   5
   3  -2   7 4623.86 33.8111   4
  -3   2  -7 4562.93 40.7274   3
  -3   2  -7 4669.29 46.1963   1
   3  -2   8 3149.15 32.1622   4
  -3   2  -8 3280.46 42.8188   1
  -3   2  -8 3008.92 36.1008   3
  -3   2  -9 1938.72 37.0565   1
   3  -2   9 1936.40 29.5217   4
  -3   2  -9 1846.34 30.9197   3
  -3   2 -10 671.574 32.1145   1
   3  -2  10 658.182 25.1472   4
  -3   2 -10 572.501 23.5890   3
  -3   2 -11 29.4572 18.7918   3
   3  -2  11 29.3286 22.9139   4
  -3   2 -11 34.7068 30.1298   1
  -3   2 -12 46.6005 18.8091   3
   3  -2  12 40.5912 25.2847   4
  -3   2 -12 65.1941 33.3789   1
   3  -2  13 205.175 28.9303   4
  -3   2 -13 217.632 36.0419   1
   3  -2  14 41.9416 29.1400   4
  -3   2 -14 106.867 36.0378   1
  -3   2 -15-18.4388 36.0877   1
   3  -2  15 31.4093 31.5691   4
   3  -2  16 85.0097 32.8206   4
  -3   2 -16 124.022 36.3713   1
  -3   2 -17 1216.79 46.9014   1
   3  -2  17 1160.29 41.1762   4
  -3   2 -18-29.8675 36.1966   1
  -3   2 -19 90.0451 38.7418   1
  -3   2 -20 29.0380 37.8367   1
  -3   2 -21-4.85535 36.1821   1
  -3   2 -22 144.696 39.3559   1
  -3   1  20 191.966 47.0013   4
  -3   1  18 0.51177 45.1167   4
  -3   1  17 36.6865 44.6726   4
  -3   1  16-8.76132 44.9125   4
  -3   1  15 775.364 49.0760   4
  -3   1  14 138.880 44.3520   4
  -3   1  13 203.976 42.0901   4
  -3   1  12 1008.42 42.2429   4
  -3   1  11 296.118 35.8993   4
   3  -1 -10 119.860 15.0925   1
  -3   1  10 125.753 32.1171   4
  -3   1   9 45.7914 28.0734   4
   3  -1  -9 47.2134 13.0059   1
   3  -1  -8 1870.13 21.4699   1
  -3   1   8 2072.80 37.3946   4
  -3   1   7 511.655 27.9298   4
   3  -1  -7 420.307 12.3956   1
  -3   1   6 1053.53 28.4830   2
  -3   1   6 1112.96 27.2974   4
   3  -1  -6 946.611 13.3793   1
  -3   1   5 1930.88 21.5379   3
  -3   1   5 1978.00 30.1047   2
  -3   1   5 1911.89 28.1681   4
  -3   1   5 1795.14 31.8764   6
  -3   1   4 165.391 19.2008   2
  -3   1   4 178.043 17.7550   4
  -3   1   4 142.299 13.7408   3
  -3   1   4 153.431 20.7058   6
  -3   1   3 160.444 15.6690   4
  -3   1   3 159.763 17.9917   2
  -3   1   3 136.135 20.7361   6
  -3   1   3 160.626 14.8838   3
  -3   1   2 761.665 24.6002   6
  -3   1   2 806.867 19.8932   2
  -3   1   2 765.126 15.6387   4
  -3   1   2 820.868 19.0447   3
  -3   1   1 1263.93 20.4894   2
  -3   1   1 1274.62 15.0175   4
  -3   1   1 1209.29 26.6455   6
  -3   1   1 1317.23 22.4845   3
  -3   1   0 1747.16 17.1790   1
  -3   1   0 1824.98 26.7749   5
  -3   1   0 1697.29 29.3987   6
  -3   1   0 1599.26 21.5942   2
  -3   1   0 1660.58 24.5605   3
  -3   1  -1 2193.09 27.9970   0
  -3   1  -1 2188.21 31.4629   6
  -3   1  -1 2268.13 22.0177   1
  -3   1  -1 2304.40 27.8121   5
  -3   1  -1 2339.51 28.0196   3
  -3   1  -1 2191.14 23.2547   2
  -3   1  -2 3847.04 28.3496   2
  -3   1  -2 3981.95 30.2383   1
  -3   1  -2 3888.85 34.8270   0
   3  -1   2 4217.95 37.9929   0
  -3   1  -2 3941.87 35.0860   3
  -3   1  -2 3879.69 31.9813   5
  -3   1  -3 2727.35 28.5689   1
  -3   1  -3 2762.02 27.2608   5
   3  -1   3 2803.91 32.3235   0
  -3   1  -3 2712.90 25.9426   2
  -3   1  -3 2756.27 31.5231   3
  -3   1  -4 3155.99 32.6598   1
  -3   1  -4 3094.18 27.4793   5
  -3   1  -4 3062.24 28.9016   2
   3  -1   4 3254.90 36.3999   0
  -3   1  -4 3183.10 33.0615   3
   3  -1   5 2977.28 35.5061   0
  -3   1  -5 2934.13 27.4486   5
   3  -1   5 3144.45 20.3975   4
  -3   1  -5 3019.76 29.8434   2
  -3   1  -5 3087.71 33.3836   3
  -3   1  -5 3057.62 35.1624   1
  -3   1  -6 200.079 16.2762   5
  -3   1  -6 231.046 20.5567   1
   3  -1   6 221.862 14.6844   4
  -3   1  -7 1466.01 22.0365   5
   3  -1   7 1552.81 24.0927   4
  -3   1  -7 1571.75 33.1899   1
   3  -1   8 648.324 22.6452   4
  -3   1  -8 645.766 30.0160   1
  -3   1  -9 1112.82 33.9228   1
   3  -1   9 1102.25 27.0516   4
   3  -1  10 1818.97 32.4683   4
  -3   1 -10 1887.09 40.3092   1
  -3   1 -11 5.96644 19.0857   3
   3  -1  11-8.87250 23.6077   4
  -3   1 -11 25.8805 30.8998   1
  -3   1 -12 48.9062 20.6603   3
   3  -1  12 44.7462 25.4746   4
  -3   1 -12 68.4746 33.7155   1
   3  -1  13-34.9455 28.7323   4
  -3   1 -13-37.2303 31.7618   1
  -3   1 -14-25.5171 34.1657   1
   3  -1  14-35.8355 30.6489   4
  -3   1 -15 303.963 39.8829   1
   3  -1  15 236.291 34.0951   4
  -3   1 -16 17.5535 37.9336   1
  -3   1 -17 104.644 40.1521   1
  -3   1 -18 730.882 46.3362   1
  -3   1 -19 93.4801 37.6723   1
  -3   1 -21 115.510 35.1934   1
  -3   1 -22 221.113 38.0839   1
  -3   0  20-10.3862 47.2747   4
  -3   0  18 52.7488 43.9490   4
  -3   0  17 49.8248 42.3412   4
  -3   0  16 90.2761 42.6880   4
  -3   0  15 451.102 45.3477   4
  -3   0  14 399.611 42.4979   4
  -3   0  13 51.6057 37.6659   4
  -3   0  12 360.712 37.9879   4
   3   0 -11 8.09989 15.9369   1
  -3   0  11-6.66136 33.3123   4
   3   0 -10 102.072 16.1774   1
  -3   0  10 124.087 31.1487   4
   3   0  -9 680.183 18.4884   1
  -3   0   9 682.676 31.7001   4
  -3   0   8 652.681 28.5523   4
  -3   0   8 735.816 30.7447   2
   3   0  -8 631.893 17.3309   1
   3   0  -7 6.71804 11.5456   1
  -3   0   7-6.62205 21.8260   4
  -3   0   7-3.78505 23.1709   2
  -3   0   7 4.29800 9.78717   3
  -3   0   6 2277.17 33.7251   2
  -3   0   6 2176.70 29.8314   4
  -3   0   6 2198.01 20.6826   3
   3   0  -6 2065.37 20.3025   1
  -3   0   5 2525.36 33.1620   2
   3   0  -5 2344.23 19.4371   1
  -3   0   5 2334.73 27.8224   4
  -3   0   5 2455.98 22.4613   3
  -3   0   5 2362.38 32.0194   6
  -3   0   4 623.207 22.2855   2
  -3   0   4 558.087 18.6460   4
  -3   0   4 646.630 15.4821   3
   3   0  -4 619.517 12.1554   1
  -3   0   4 570.339 22.4539   6
  -3   0   3 596.195 23.0979   6
  -3   0   3 649.351 21.8644   2
  -3   0   3 621.060 16.0768   4
  -3   0   3 680.654 16.9560   3
  -3   0   2 554.017 23.8060   6
  -3   0   2 619.254 21.3116   2
  -3   0   2 640.495 14.1139   4
  -3   0   2 718.178 18.3406   3
  -3   0   1 24663.0 76.0743   6
  -3   0   1 24307.8 69.0420   2
  -3   0   0 30438.5 82.7156   6
  -3   0   0 30662.2 75.6036   2
  -3   0  -1 4391.70 31.7056   1
  -3   0  -1 4347.99 33.4987   2
  -3   0  -1 4400.50 36.4959   0
  -3   0  -2 3279.35 31.7208   1
  -3   0  -2 3115.59 27.0151   5
  -3   0  -2 3294.82 34.6201   0
  -3   0  -2 3092.41 30.3488   2
   3   0   2 3225.86 35.0500   0
   3   0   3 3555.60 35.1700   0
  -3   0  -3 3510.40 26.7684   5
  -3   0  -3 3664.21 35.2598   1
  -3   0  -3 3623.63 33.3315   2
  -3   0  -3 3647.60 36.6523   0
  -3   0  -4 1218.91 25.3453   2
   3   0   4 1303.54 28.5183   0
   3   0   4 1303.41 15.7205   4
  -3   0  -4 1257.44 18.4504   5
  -3   0  -4 1292.54 26.8752   1
  -3   0  -5 7.76998 12.0433   5
   3   0   5 15.7830 19.2757   0
  -3   0  -5 12.6041 19.7120   1
   3   0   5 15.9531 12.6125   4
  -3   0  -5 23.5363 20.4908   2
  -3   0  -6 1733.77 32.0666   1
  -3   0  -6 1660.58 30.7812   2
  -3   0  -6 1600.89 19.8069   5
   3   0   6 1680.82 29.9984   0
   3   0   6 1693.06 23.0601   4
  -3   0  -7 1721.77 34.7298   1
  -3   0  -7 1489.03 19.4268   5
   3   0   7 1627.06 26.0349   4
  -3   0  -8 412.182 29.1415   1
  -3   0  -8 365.709 14.4160   5
   3   0   8 366.926 20.9783   4
  -3   0  -9-13.4953 28.3318   1
   3   0   9-12.9806 20.6770   4
  -3   0 -10 123.671 30.6298   1
   3   0  10 101.474 23.5367   4
  -3   0 -11 0.21476 32.5598   1
   3   0  11-7.75922 25.4326   4
  -3   0 -12 277.821 33.6032   1
   3   0  12 203.647 28.4119   4
  -3   0 -13 188.506 36.6259   1
   3   0  13 124.166 29.9493   4
   3   0  14 328.004 34.0580   4
  -3   0 -14 402.312 36.7962   1
  -3   0 -15 21.9854 36.8089   1
   3   0  15 44.1260 32.6545   4
  -3   0 -16 405.550 41.1066   1
  -3   0 -17 247.370 37.5633   1
  -3   0 -18 64.1265 35.0839   1
  -3   0 -19-35.5868 32.9278   1
  -3   0 -20-18.5272 32.8235   1
  -3   0 -21 181.430 37.6314   1
  -3  -1  21 21.7085 45.4483   4
  -3  -1  19 48.9413 43.1272   4
  -3  -1  18 75.7939 44.1078   4
  -3  -1  17 311.419 44.8955   4
  -3  -1  16 75.9139 43.6105   4
  -3  -1  15 1550.62 51.9914   4
  -3  -1  14-22.5457 40.1940   4
   3   1 -13 634.245 26.2580   1
  -3  -1  13 627.838 40.6018   4
   3   1 -12-7.59389 19.0474   1
  -3  -1  12-15.5310 33.7747   4
  -3  -1  11 165.424 32.5955   4
   3   1 -11 179.577 18.7665   1
   3   1 -10 2.05850 15.4610   1
  -3  -1  10 20.2415 30.1578   2
  -3  -1  10 6.21820 27.3515   4
  -3  -1   9 1739.50 37.8745   2
   3   1  -9 1702.79 25.7638   1
  -3  -1   9 1655.39 34.9102   4
  -3  -1   8 1.57528 24.9323   2
   3   1  -8-13.7693 14.1265   1
  -3  -1   8-15.6083 23.6029   4
  -3  -1   8 1.22058 8.26304   3
  -3  -1   7 372.187 23.0872   4
  -3  -1   7 325.099 11.3839   3
   3   1  -7 351.276 15.9913   1
  -3  -1   7 362.952 26.2491   2
  -3  -1   6-5.05320 9.92705   3
   3   1  -6 11.4900 12.5146   1
  -3  -1   6 20.6187 20.0229   6
  -3  -1   6 6.35655 22.0893   2
  -3  -1   6 3.31294 19.6474   4
  -3  -1   5-5.42107 11.0979   3
  -3  -1   5 1.20753 21.1163   2
   3   1  -5 3.22937 11.8463   1
  -3  -1   5-2.13342 18.9489   6
  -3  -1   4 191.743 18.6412   6
  -3  -1   4 220.020 21.2624   2
  -3  -1   3 2960.70 29.8740   6
  -3  -1   3 3140.85 33.5023   2
  -3  -1   2 378.414 20.8429   6
  -3  -1   2 418.553 21.6308   2
  -3  -1   1 4500.89 36.8121   2
  -3  -1   1 4407.98 35.4872   6
  -3  -1   0 54675.2 112.086   2
  -3  -1  -1 30310.1 85.4418   2
  -3  -1  -1 30731.9 87.3938   0
  -3  -1  -2 2533.15 30.5709   1
  -3  -1  -2 2447.23 32.2190   2
  -3  -1  -2 2554.93 32.4395   0
   3   1   3-1.13004 18.6209   0
   3   1   3 6.47176 11.2581   4
  -3  -1  -3-18.7191 17.2527   1
  -3  -1  -3-4.03766 21.3123   2
  -3  -1  -3-6.00421 18.8057   0
  -3  -1  -4 10.8728 19.7391   1
   3   1   4 15.1995 13.3014   4
   3   1   4 16.6628 19.5898   0
  -3  -1  -4 8.80943 21.6931   2
  -3  -1  -5 1102.25 30.1814   1
  -3  -1  -5 1111.09 29.6526   2
   3   1   5 1046.97 20.1624   4
  -3  -1  -5 1042.02 14.2087   5
   3   1   5 1082.88 27.3638   0
  -3  -1  -6 3503.90 45.1314   1
  -3  -1  -6 3280.68 20.6824   5
  -3  -1  -6 3485.43 41.1657   2
   3   1   6 3499.60 32.1868   4
   3   1   6 3509.18 40.7125   0
   3   1   7 605.401 26.6199   0
   3   1   7 607.492 22.4083   4
  -3  -1  -7 606.449 29.1310   1
  -3  -1  -8 520.963 31.4214   1
   3   1   8 530.641 23.6403   4
   3   1   9 145.848 23.7632   4
  -3  -1  -9 159.717 29.6083   1
  -3  -1 -10 964.698 39.0117   1
   3   1  10 964.745 30.8364   4
  -3  -1 -11-4.90749 31.9627   1
   3   1  11-19.2519 26.3270   4
   3   1  12 245.849 30.6157   4
  -3  -1 -12 265.223 36.0903   1
  -3  -1 -13 264.544 37.0662   1
   3   1  13 231.374 32.9664   4
  -3  -1 -14 823.672 40.9164   1
   3   1  14 784.359 37.5655   4
  -3  -1 -15 66.3139 37.8171   1
   3   1  15 39.3624 34.6828   4
  -3  -1 -16 261.661 37.9678   1
  -3  -1 -17 114.546 38.4258   1
  -3  -1 -18-44.6960 35.3982   1
  -3  -1 -20 130.559 35.6499   1
  -3  -1 -21 64.6351 35.8892   1
  -3  -2  22-14.1118 45.1778   4
  -3  -2  21-11.8420 44.5005   4
  -3  -2  19-0.40395 42.7077   4
  -3  -2  18-43.4033 42.7035   4
  -3  -2  17 109.763 42.7449   4
  -3  -2  16 865.518 49.1751   4
  -3  -2  15 14.8068 43.1138   4
   3   2 -14 1335.28 33.2413   1
  -3  -2  14 1397.93 47.2815   4
   3   2 -13 1.92824 21.2672   1
  -3  -2  13-13.8330 35.9076   4
   3   2 -12 38.0846 20.5335   1
  -3  -2  12 76.2356 33.6786   4
  -3  -2  12 80.7788 34.9459   2
  -3  -2  11 583.549 34.4377   4
  -3  -2  11 641.305 37.2090   2
   3   2 -11 569.132 23.4038   1
   3   2 -10 58.6594 18.2443   1
  -3  -2  10 122.068 29.8538   2
  -3  -2  10 70.5207 29.0400   4
   3   2  -9 2249.20 31.1219   1
  -3  -2   9 2443.68 41.4353   2
  -3  -2   8 20.1449 8.73386   3
  -3  -2   8 36.1329 27.1107   2
   3   2  -8 47.9026 17.0835   1
  -3  -2   7 478.025 26.7713   2
   3   2  -7 448.207 18.7149   1
  -3  -2   6 120.917 18.5156   6
   3   2  -6 121.644 15.9838   1
  -3  -2   6 133.072 23.1690   2
   3   2  -5 78.4935 15.5671   1
  -3  -2   5 96.1007 22.9389   2
  -3  -2   5 63.8328 17.2208   6
  -3  -2   4 2835.17 28.9771   6
  -3  -2   4 2980.52 35.8264   2
  -3  -2   3 721.996 21.6815   6
  -3  -2   3 727.509 25.4674   2
  -3  -2   2 5900.30 43.7871   2
  -3  -2   2 5542.63 36.7086   6
  -3  -2   1 3714.45 32.1843   6
  -3  -2   1 3956.60 39.3237   2
   3   2   0 2619.69 23.8607   4
  -3  -2   0 2713.79 35.6511   2
  -3  -2  -1 19735.7 75.9583   2
   3   2   1 19412.8 51.3540   4
  -3  -2  -1 19517.2 72.3252   0
  -3  -2  -2 4472.07 41.4967   2
   3   2   2 4316.74 28.4864   4
  -3  -2  -2 4444.51 38.4634   0
  -3  -2  -3 1300.88 31.1585   2
   3   2   3 1224.17 19.5217   4
  -3  -2  -3 1224.72 27.2395   0
   3   2   3 1216.74 27.5037   0
  -3  -2  -4 2817.70 38.4451   1
   3   2   4 2867.89 36.4161   0
  -3  -2  -4 2956.99 39.3675   2
   3   2   4 2893.57 28.2785   4
  -3  -2  -5 2576.27 39.2757   1
  -3  -2  -5 2658.62 40.1276   2
   3   2   5 2463.59 29.5313   4
   3   2   5 2536.35 35.5924   0
  -3  -2  -6 83.6008 23.3308   1
   3   2   6 115.880 20.4320   4
   3   2   6 126.276 21.6241   0
  -3  -2  -6 144.421 28.6671   2
   3   2   7 98.5097 20.8375   4
   3   2   7 83.0359 22.1517   0
  -3  -2  -7 98.0248 27.7811   1
  -3  -2  -7 103.400 30.3210   2
  -3  -2  -8 18.7211 29.2960   1
   3   2   8 18.6944 21.8196   4
  -3  -2  -9 331.599 33.5501   1
   3   2   9 295.079 26.6190   4
   3   2  10 28.5325 26.4144   4
  -3  -2 -10 33.9250 30.6364   1
  -3  -2 -11 107.621 31.8129   1
   3   2  11 74.0737 28.2989   4
  -3  -2 -12 95.4934 34.8256   1
   3   2  12 97.3397 29.8837   4
  -3  -2 -13 401.637 38.9984   1
   3   2  13 483.639 35.7472   4
   3   2  14 258.595 34.3753   4
  -3  -2 -14 185.238 35.8829   1
  -3  -2 -15 1214.32 48.5486   1
  -3  -2 -16 24.1820 37.0575   1
  -3  -2 -17-50.4764 34.1178   1
  -3  -2 -18-7.99702 37.1259   1
  -3  -2 -19 154.623 38.6629   1
  -3  -2 -20 50.4093 35.4109   1
  -3  -3  22 39.6339 43.4398   4
  -3  -3  21-40.0682 45.3270   4
  -3  -3  20 45.1979 43.1174   4
  -3  -3  19-31.2453 41.9062   4
  -3  -3  18 29.2979 41.9765   4
  -3  -3  17 116.216 42.1300   4
  -3  -3  16 2292.84 57.1518   4
   3   3 -15 36.3575 26.7208   1
  -3  -3  15 46.9895 40.4127   4
  -3  -3  14 37.5622 37.7352   4
   3   3 -14 9.99903 25.8938   1
  -3  -3  13 577.423 39.1789   2
   3   3 -13 433.759 28.5069   1
  -3  -3  13 517.582 39.0605   4
  -3  -3  12 254.091 35.7302   2
   3   3 -12 271.784 24.7134   1
  -3  -3  11 15.1385 31.3573   2
   3   3 -11 31.0587 21.2246   1
  -3  -3  10 171.552 31.5378   2
   3   3 -10 124.717 21.4267   1
  -3  -3   9 2322.17 41.4381   2
   3   3  -9 2145.22 33.3589   1
  -3  -3   8 1952.23 37.9268   2
   3   3  -8 1793.50 30.7861   1
   3   3  -7 225.837 19.2804   1
  -3  -3   7 220.625 26.9778   2
  -3  -3   7 211.001 18.5645   6
  -3  -3   6 190.776 17.2619   6
  -3  -3   6 221.984 25.9737   2
   3   3  -6 201.677 18.8078   1
  -3  -3   5 4144.90 32.9734   6
  -3  -3   5 4532.33 45.0887   2
  -3  -3   4 8370.84 43.0045   6
  -3  -3   4 9000.10 56.4834   2
  -3  -3   3 921.569 29.0548   2
  -3  -3   3 671.260 19.9959   6
  -3  -3   2-9.13862 23.5115   2
  -3  -3   2-2.64069 15.6640   6
  -3  -3   1 51.5002 26.6037   2
   3   3   0 24290.9 68.6553   4
  -3  -3   0 24547.4 82.4115   0
  -3  -3   0 24546.6 89.5191   2
  -3  -3  -1 14563.2 70.7674   2
   3   3   1 14200.1 53.6866   4
  -3  -3  -1 14026.5 63.2569   0
  -3  -3  -2 206.533 28.4325   2
   3   3   2 188.889 19.0263   4
  -3  -3  -2 185.782 18.8812   0
  -3  -3  -3 2855.81 42.3357   2
   3   3   3 2797.22 29.4495   4
   3   3   3 2837.34 35.7732   0
   3   3   4 76.6263 20.2701   0
   3   3   4 61.7640 18.9092   4
  -3  -3  -4 57.0754 29.5853   2
   3   3   5 2600.64 35.8011   0
   3   3   5 2632.33 33.6428   4
  -3  -3  -5 2755.76 44.7019   2
  -3  -3  -6 275.176 33.5177   2
   3   3   6 294.481 23.4082   4
   3   3   6 278.689 23.1152   0
  -3  -3  -7 160.644 30.1452   1
   3   3   7 118.415 21.8309   0
   3   3   7 158.566 24.6946   4
  -3  -3  -7 177.405 34.8662   2
  -3  -3  -8 174.057 37.5992   2
  -3  -3  -8 186.914 30.6221   1
   3   3   8 124.980 26.7166   4
   3   3   9 53.0542 27.3011   4
  -3  -3  -9 134.670 30.9044   1
  -3  -3 -10-11.6188 31.4209   1
   3   3  10 20.4400 29.2565   4
  -3  -3 -11-61.5166 31.1086   1
   3   3  11 55.3942 31.3082   4
  -3  -3 -12 168.460 35.1153   1
   3   3  12 271.976 33.5569   4
  -3  -3 -13-55.9736 35.1859   1
   3   3  13 35.9315 34.8936   4
  -3  -3 -14 200.309 38.1962   1
  -3  -3 -16 10.9885 34.6019   1
  -3  -3 -18 64.0410 33.5328   1
  -3  -3 -19 193.400 37.8894   1
  -3  -4  22 79.6771 44.6150   4
  -3  -4  21-20.3665 44.1506   4
  -3  -4  20 7.96727 43.4600   4
  -3  -4  19 110.460 42.9450   4
  -3  -4  18 80.2795 43.2303   4
   3   4 -17 320.955 31.2762   1
  -3  -4  17 280.779 44.9414   4
   3   4 -16 275.945 30.0634   1
  -3  -4  16 344.208 44.6006   4
  -3  -4  15 1013.66 46.2464   4
   3   4 -15 1025.55 35.9863   1
  -3  -4  14 26.3538 35.5873   2
   3   4 -14 57.6597 26.7093   1
  -3  -4  13 310.634 36.3804   2
   3   4 -13 275.181 27.9111   1
   3   4 -12 475.528 27.5878   1
  -3  -4  12 488.151 36.2401   2
  -3  -4  11 913.956 38.2671   2
   3   4 -11 872.648 29.7995   1
   3   4 -10 82.9040 22.8660   1
  -3  -4  10 129.912 30.5252   2
   3   4  -9 124.650 22.1627   1
  -3  -4   9 101.577 29.6556   2
  -3  -4   8 228.249 17.6434   6
  -3  -4   8 257.661 29.4322   2
   3   4  -8 213.309 23.3087   1
  -3  -4   7-11.1228 26.0206   2
  -3  -4   7 11.3491 15.0997   6
   3   4  -7 11.1454 20.6615   1
  -3  -4   6 737.688 18.8164   6
  -3  -4   6 809.807 31.4841   2
   3   4  -6 747.679 26.5723   1
  -3  -4   5 1821.53 23.5421   6
  -3  -4   5 2015.20 36.7047   2
  -3  -4   4 2742.57 26.3596   6
  -3  -4   4 3152.82 41.5145   2
  -3  -4   3 209.217 27.0366   2
  -3  -4   2 8.57931 26.2789   2
   3   4  -1 16.4774 20.5624   4
  -3  -4   1 45.4481 27.1680   2
  -3  -4   0 1411.24 35.9491   2
   3   4   0 1272.30 27.3159   4
  -3  -4   0 1363.95 27.3309   0
  -3  -4  -1 4811.02 41.2129   0
  -3  -4  -1 4877.65 49.3358   2
   3   4   1 4603.19 39.4318   4
   3   4   2 546.411 23.8555   4
  -3  -4  -2 552.524 32.7466   2
  -3  -4  -2 488.318 21.6950   0
   3   4   3 493.769 23.0373   4
  -3  -4  -3 483.207 33.4320   2
  -3  -4  -4 689.026 35.7499   2
   3   4   4 631.367 25.3095   4
   3   4   4 671.645 25.8484   0
  -3  -4  -5 241.554 34.2196   2
   3   4   5 234.831 24.5105   4
   3   4   5 239.604 22.0256   0
   3   4   6 2404.00 36.6049   0
  -3  -4  -6 2515.01 49.2662   2
   3   4   6 2482.60 38.6523   4
   3   4   7 337.148 28.4383   4
   3   4   7 345.938 25.8608   0
  -3  -4  -7 374.314 40.1442   2
  -3  -4  -8 239.208 40.7914   2
   3   4   8 225.504 29.2998   4
   3   4   9-14.6733 29.4215   4
  -3  -4  -9 50.1760 41.2964   2
  -3  -4 -10 258.311 44.3385   2
   3   4  10 206.244 33.4616   4
  -3  -4 -11 143.997 33.5272   1
   3   4  11 157.131 34.2499   4
  -3  -4 -12 89.0371 34.5694   1
   3   4  12 57.6178 36.0587   4
  -3  -4 -13 400.511 38.9540   1
  -3  -4 -14 357.774 38.2922   1
  -3  -4 -15 76.3966 36.0084   1
  -3  -4 -16 314.720 36.8107   1
  -3  -4 -17 91.0387 33.5464   1
  -3  -5  22 6.08312 44.8312   4
  -3  -5  21 13.6336 42.9756   4
  -3  -5  20-8.10065 43.0383   4
  -3  -5  19-43.2805 41.9865   4
   3   5 -18 43.0934 31.3775   1
  -3  -5  18 154.626 42.0649   4
   3   5 -17 429.589 32.0004   1
  -3  -5  17 480.660 44.2704   4
   3   5 -16-16.8295 30.7855   1
  -3  -5  16-9.70408 36.4280   2
  -3  -5  15 13.6521 37.7850   2
   3   5 -15 26.9402 30.6457   1
   3   5 -14 113.642 29.9928   1
  -3  -5  14 151.161 35.9080   2
   3   5 -13 236.528 29.1842   1
  -3  -5  13 272.443 36.2583   2
  -3  -5  12 14.9416 33.5026   2
   3   5 -12 13.1934 27.3077   1
   3   5 -11 10.7930 25.8266   1
  -3  -5  11 53.0362 31.3158   2
   3   5 -10 37.6341 26.1681   1
  -3  -5  10 17.5893 30.3795   2
  -3  -5   9 2366.14 27.8211   6
   3   5  -9 2618.33 40.2411   1
  -3  -5   9 2710.82 44.6579   2
  -3  -5   8 125.936 28.8757   2
   3   5  -8 124.585 24.2655   1
  -3  -5   8 118.588 14.6617   6
   3   5  -7 45.9637 23.3969   1
  -3  -5   7 67.7575 13.9811   6
  -3  -5   7 77.8691 27.8306   2
  -3  -5   6 955.283 18.2814   6
   3   5  -6 1062.18 30.4167   1
  -3  -5   6 1027.17 33.1548   2
  -3  -5   5 376.861 29.3593   2
  -3  -5   5 296.622 14.3429   6
  -3  -5   4 2135.56 39.4440   2
  -3  -5   3 249.350 29.0911   2
   3   5  -2-13.9426 23.8773   4
  -3  -5   2-10.5259 28.8458   2
   3   5  -1 1084.07 29.5057   4
  -3  -5   1 1204.23 35.3168   2
  -3  -5   0 19.5951 18.1737   0
   3   5   0 23.2447 23.0173   4
  -3  -5   0 47.9031 29.0858   2
  -3  -5  -1 663.102 33.3024   2
   3   5   1 558.823 26.2319   4
  -3  -5  -1 567.720 22.1728   0
  -3  -5  -2 402.918 20.9865   0
   3   5   2 429.265 26.3166   4
  -3  -5  -2 410.374 34.5896   2
   3   5   3 32.2914 23.3533   4
  -3  -5  -3 3.30733 34.4595   2
   3   5   4 75.7465 25.3677   4
  -3  -5  -4 55.0065 37.2347   2
   3   5   5 44.5795 25.7584   4
   3   5   5 67.6910 21.9682   0
  -3  -5  -5 70.9295 37.6592   2
   3   5   6 338.909 29.6628   4
  -3  -5  -6 392.504 41.7258   2
   3   5   6 304.570 25.0360   0
  -3  -5  -7 293.952 42.9029   2
   3   5   7 293.789 31.0590   4
  -3  -5  -8 360.729 44.6239   2
   3   5   8 262.824 32.0302   4
   3   5   9 21.4023 31.5080   4
  -3  -5  -9-19.5243 43.3287   2
   3   5  10-38.3779 33.1069   4
  -3  -5 -10 28.5987 43.1503   2
   3   5  11 267.564 35.7646   4
  -3  -5 -11 351.768 48.3970   2
   3   5  12 121.365 37.4743   4
  -3  -5 -12 118.144 46.5053   2
  -3  -5 -13 424.451 49.1536   2
  -3  -5 -14 344.355 50.1763   2
  -3  -5 -15 89.6181 49.5088   2
  -3  -5 -16 141.866 50.0630   2
  -3  -5 -17 137.530 50.8896   2
  -3  -6  23 10.2980 43.8043   4
  -3  -6  22-37.7417 44.2453   4
  -3  -6  21 12.8332 43.1823   4
  -3  -6  20 93.0977 42.3031   4
  -3  -6  19-40.4317 42.7542   4
   3   6 -19 76.0075 30.1213   1
   3   6 -18 162.549 32.8217   1
  -3  -6  17 24.3410 36.0767   2
   3   6 -17 76.9761 31.0737   1
  -3  -6  16 381.588 39.1867   2
   3   6 -16 385.661 35.9892   1
  -3  -6  15-3.14817 34.8453   2
   3   6 -15-37.4793 29.9996   1
  -3  -6  14 15.9100 35.0914   2
   3   6 -14 11.8411 30.6184   1
  -3  -6  13 35.2393 35.8866   2
   3   6 -13 86.6873 30.5938   1
   3   6 -12 4.31349 28.3262   1
  -3  -6  12 46.3917 33.2151   2
  -3  -6  11 446.322 34.5528   2
   3   6 -11 422.064 32.7248   1
   3   6 -10 25.5001 29.3164   1
  -3  -6  10 43.2847 31.3542   2
  -3  -6   9 41.9827 30.3938   2
   3   6  -9 29.3424 27.6084   1
   3   6  -8 577.064 31.5595   1
  -3  -6   8 609.745 33.1838   2
   3   6  -7 121.186 26.3563   1
  -3  -6   7 127.390 29.5455   2
  -3  -6   6 184.265 28.9241   2
  -3  -6   5 1034.32 35.2971   2
  -3  -6   4 2161.46 40.5697   2
  -3  -6   3 437.331 33.4144   2
  -3  -6   2 394.650 32.6315   2
   3   6  -2 349.386 28.5795   4
   3   6  -1 1.70055 25.5664   4
  -3  -6   1-5.20632 17.5654   0
  -3  -6   1 16.1759 30.4365   2
   3   6   0 10.8947 25.5273   4
  -3  -6   0 11.9741 17.5532   0
  -3  -6   0 37.9600 32.4578   2
  -3  -6  -1 16.3556 18.1876   0
   3   6   1 20.9107 26.3378   4
  -3  -6  -1 27.8494 32.6986   2
  -3  -6  -2 1692.38 44.7166   2
   3   6   2 1645.26 36.6011   4
  -3  -6  -2 1602.83 28.2993   0
   3   6   3 94.3133 28.6295   4
  -3  -6  -3 44.0520 39.1971   2
   3   6   4 176.979 28.7146   4
  -3  -6  -4 192.501 42.1670   2
   3   6   5 11.0433 29.2365   4
  -3  -6  -5-17.9406 40.9976   2
   3   6   6 62.9156 30.0679   4
  -3  -6  -6 127.254 43.0306   2
   3   6   7-8.49011 31.2633   4
  -3  -6  -7-6.78878 42.9590   2
   3   6   8 61.4238 32.9271   4
  -3  -6  -8 69.9797 44.4652   2
   3   6   9-14.2214 34.1695   4
  -3  -6  -9 8.02178 42.5137   2
   3   6  10 39.1780 33.9554   4
  -3  -6 -10 53.3017 43.2140   2
  -3  -6 -11-22.5965 44.1720   2
  -3  -6 -12 107.374 45.1889   2
  -3  -6 -13 148.147 48.8705   2
  -3  -6 -14 732.383 52.8274   2
  -3  -6 -15 101.947 47.0685   2
  -3  -6 -16 67.9143 49.0061   2
  -3  -7  23 143.822 45.6983   4
  -3  -7  22-3.66148 45.2393   4
  -3  -7  21-2.30060 43.3615   4
   3   7 -20 56.4507 33.1907   1
  -3  -7  20 99.5316 43.8890   4
   3   7 -19 95.0180 32.2156   1
  -3  -7  18-3.69566 36.1598   2
   3   7 -18 33.7539 32.3859   1
  -3  -7  17 94.0330 36.6277   2
   3   7 -17 136.969 34.0538   1
  -3  -7  16 72.8692 35.2647   2
   3   7 -16 76.7584 35.2973   1
  -3  -7  15 10.1174 34.9106   2
   3   7 -15 25.5388 32.1401   1
  -3  -7  14-15.9109 35.1356   2
   3   7 -14 35.3163 31.3157   1
   3   7 -13 26.5718 31.8243   1
  -3  -7  13 6.08363 34.3454   2
   3   7 -12 127.936 33.3928   1
  -3  -7  12 164.951 34.6713   2
   3   7 -11 13.0967 30.5275   1
  -3  -7  11 40.3123 31.6154   2
  -3  -7  10 367.367 33.9082   2
   3   7 -10 326.184 34.2325   1
   3   7  -9 56.4796 28.6007   1
  -3  -7   9 6.27134 30.7818   2
   3   7  -8 70.9878 29.1676   1
  -3  -7   8 78.1854 30.8454   2
   3   7  -7 437.149 34.6663   1
  -3  -7   7 486.518 33.3921   2
  -3  -7   6 98.0039 30.9901   2
  -3  -7   5 104.058 31.3239   2
  -3  -7   4 43.3687 31.0127   2
  -3  -7   3 3681.00 52.1084   2
   3   7  -3 3472.66 49.8701   4
  -3  -7   2 389.541 36.2772   2
   3   7  -2 403.598 33.5440   4
   3   7  -1 1.28444 30.2835   4
  -3  -7   1 21.9424 33.2287   2
  -3  -7   1 5.88077 18.5511   0
   3   7   0 41.4770 31.2402   4
  -3  -7   0 41.9440 18.8150   0
  -3  -7   0 97.6824 35.2699   2
   3   7   1 795.237 35.9246   4
  -3  -7  -1 888.291 41.7535   2
  -3  -7  -1 696.213 24.1206   0
   3   7   2 377.939 33.0761   4
  -3  -7  -2 412.704 39.8881   2
   3   7   3 52.2815 31.6588   4
  -3  -7  -3 44.7187 41.4064   2
   3   7   4 208.291 34.0397   4
  -3  -7  -4 187.775 44.0694   2
   3   7   5 38.8017 32.2877   4
  -3  -7  -5 79.2530 44.5254   2
   3   7   6 262.983 34.6477   4
  -3  -7  -6 268.337 46.1674   2
   3   7   7 147.079 33.8440   4
  -3  -7  -7 176.607 44.5959   2
   3   7   8 22.1460 33.5684   4
  -3  -7  -8-12.6045 43.7228   2
   3   7   9-52.9149 35.4806   4
  -3  -7  -9 28.8779 42.6826   2
   3   7  10 1.75726 35.5464   4
  -3  -7 -10-6.40835 44.3955   2
  -3  -7 -11 59.0772 47.1655   2
  -3  -7 -12 112.118 49.0097   2
  -3  -7 -13 246.269 48.9295   2
  -3  -7 -14 112.515 50.6449   2
  -3  -7 -15 134.834 51.0836   2
  -3  -8  22 85.5148 43.9470   4
   3   8 -21-22.9171 34.9684   1
   3   8 -20 20.5515 36.7551   1
   3   8 -19 40.5792 37.0202   1
  -3  -8  18-30.3414 35.8778   2
   3   8 -18 35.1900 33.3909   1
  -3  -8  17 82.6077 36.5624   2
   3   8 -17 23.5118 35.3010   1
   3   8 -16 255.076 36.3823   1
  -3  -8  16 291.861 36.5932   2
  -3  -8  15 13.2041 35.9734   2
   3   8 -15 2.20622 35.1020   1
  -3  -8  14 380.288 38.2681   2
   3   8 -14 391.112 38.9430   1
  -3  -8  13 404.949 37.9525   2
   3   8 -13 372.796 37.5393   1
   3   8 -12 59.7919 34.3974   1
  -3  -8  12 14.8411 34.4096   2
   3   8 -11 44.8313 35.6505   1
  -3  -8  11 81.9624 34.6706   2
  -3  -8  10 46.4829 32.4182   2
   3   8 -10 66.8768 34.5531   1
  -3  -8   9 5.07740 31.8657   2
   3   8  -9 1.12996 32.0302   1
   3   8  -8 134.964 32.7053   1
  -3  -8   8 201.368 33.6966   2
  -3  -8   7 178.238 32.3653   2
   3   8  -7 165.224 36.3361   1
  -3  -8   6 263.753 33.8369   2
  -3  -8   5 690.491 37.4473   2
  -3  -8   4 396.746 36.1650   2
  -3  -8   3 1412.02 44.4703   2
   3   8  -3 1372.04 42.7826   4
  -3  -8   2 813.726 41.7052   2
   3   8  -2 789.659 40.3408   4
   3   8  -1 38.7120 32.9704   4
  -3  -8   1 30.4111 36.3348   2
   3   8   0 3.04459 34.6244   4
  -3  -8   0 8.22794 35.9390   2
  -3  -8  -1 308.187 39.1721   2
   3   8   1 273.383 36.1964   4
   3   8   2-38.7148 33.3159   4
  -3  -8  -2 30.3252 38.8825   2
   3   8   3-41.7900 33.3570   4
  -3  -8  -3 6.37527 42.1497   2
   3   8   4 134.543 34.7218   4
  -3  -8  -4 99.9795 43.0013   2
   3   8   5 338.816 37.0620   4
  -3  -8  -5 287.612 45.0204   2
   3   8   6-30.6117 32.9414   4
  -3  -8  -6 36.7134 44.2722   2
   3   8   7 65.5219 35.8815   4
  -3  -8  -7 3.80330 44.2951   2
   3   8   8 152.705 37.0694   4
  -3  -8  -8 121.944 46.4179   2
   3   8   9-28.8728 35.2639   4
  -3  -8 -10 46.0514 45.8338   2
  -3  -8 -11 3.60068 49.3741   2
  -3  -8 -12 95.6016 48.8008   2
  -3  -8 -13 365.165 55.2499   2
   3   9 -21-6.75163 38.3399   1
   3   9 -20 107.316 39.1455   1
   3   9 -19 92.0663 37.8136   1
  -3  -9  19-14.7133 35.1949   2
  -3  -9  17-13.3840 33.1097   2
   3   9 -17-42.8434 36.2337   1
  -3  -9  16 131.641 36.4763   2
   3   9 -16 22.5131 37.0723   1
   3   9 -15 1553.97 50.9117   1
  -3  -9  15 1702.24 49.7974   2
   3   9 -14 521.036 41.9352   1
  -3  -9  14 663.551 40.9953   2
  -3  -9  13 134.237 36.3769   2
   3   9 -13 152.697 39.9653   1
   3   9 -12 1028.33 47.1244   1
  -3  -9  12 1012.27 42.4284   2
  -3  -9  11 40.7016 35.1153   2
   3   9 -11 1.14824 36.1650   1
   3   9 -10 350.760 39.0522   1
  -3  -9  10 420.470 36.8444   2
  -3  -9   9 50.6877 33.6779   2
   3   9  -9-3.75250 34.3244   1
   3   9  -8 148.937 36.6810   1
  -3  -9   8 146.088 34.2615   2
   3   9  -7 284.208 38.7150   1
  -3  -9   7 236.955 34.5365   2
  -3  -9   6 21.2263 33.9413   2
  -3  -9   5 621.073 37.8226   2
  -3  -9   4 23.4088 34.3991   2
   3   9  -3 149.754 38.0916   4
  -3  -9   3 93.7756 36.7997   2
   3   9  -2 962.652 42.3427   4
  -3  -9   2 1095.50 42.9673   2
   3   9  -1 82.3573 35.4391   4
  -3  -9   1 98.4828 37.7132   2
   3   9   0 69.1365 37.6760   4
  -3  -9   0 155.175 39.1304   2
   3   9   1 83.2902 38.0789   4
  -3  -9  -1 87.5665 39.9134   2
   3   9   2 33.0931 37.3921   4
  -3  -9  -2 70.8226 40.2092   2
   3   9   3 37.3552 37.4156   4
  -3  -9  -3-46.5805 40.7549   2
   3   9   4 53.9051 36.3368   4
  -3  -9  -4 36.3606 43.2085   2
   3   9   5 164.228 37.1742   4
  -3  -9  -5 166.995 44.4590   2
   3   9   6 77.9493 38.8421   4
  -3  -9  -6 42.1420 45.1536   2
   3   9   7 61.9800 39.1167   4
  -3  -9  -7 53.3608 46.0840   2
   3   9   8 23.8914 36.2307   4
  -3  -9  -8-47.2322 46.5772   2
  -3  -9  -9 305.876 51.2099   2
  -3  -9 -10 143.649 50.6028   2
   3  10 -23 12.0375 40.0972   1
   3  10 -22 142.775 42.8877   1
   3  10 -21 147.077 40.5934   1
  -3 -10  20-10.2320 34.3927   2
   3  10 -20 109.607 40.4009   1
  -3 -10  19 98.6131 33.8147   2
   3  10 -19 37.1041 39.9152   1
  -3 -10  18-17.0849 33.2425   2
   3  10 -18 13.9326 38.3230   1
  -3 -10  17 40.1553 35.1044   2
   3  10 -17 29.3516 37.4218   1
  -3 -10  16 47.7087 35.8718   2
   3  10 -16 101.974 36.9333   1
  -3 -10  15 777.643 41.9959   2
   3  10 -15 754.281 47.8903   1
  -3 -10  14 388.975 39.0166   2
   3  10 -14 365.519 41.7714   1
   3  10 -13 177.595 41.2882   1
  -3 -10  13 158.158 37.9518   2
  -3 -10  12 790.253 43.4771   2
   3  10 -12 751.501 44.0877   1
  -3 -10  11 119.649 37.1434   2
   3  10 -11 125.298 40.8839   1
  -3 -10  10 79.8426 34.5355   2
   3  10 -10 40.3751 37.2430   1
  -3 -10   9 8.01698 33.3773   2
   3  10  -9 31.4151 39.4034   1
   3  10  -8 202.880 42.3272   1
  -3 -10   8 203.724 35.0314   2
   3  10  -7 86.4665 39.0709   1
  -3 -10   7 74.1773 34.8754   2
  -3 -10   6 193.262 36.8324   2
  -3 -10   5 272.236 37.5164   2
   3  10  -4 62.1133 41.3864   4
  -3 -10   4 23.3312 36.0545   2
   3  10  -3 76.4424 40.8765   4
  -3 -10   3 90.3618 36.7941   2
   3  10  -2 27.4502 37.7665   4
  -3 -10   2 14.9409 37.5044   2
   3  10  -1 64.8597 40.4798   4
  -3 -10   1 97.2226 39.1792   2
   3  10   0 98.2467 38.2129   4
  -3 -10   0 174.638 40.6240   2
   3  10   1-8.86992 35.6418   4
  -3 -10  -1-0.51491 38.7115   2
   3  10   2 27.1724 37.5342   4
  -3 -10  -2 91.3861 40.1359   2
   3  10   3 17.1223 39.7335   4
  -3 -10  -3 107.159 42.2169   2
   3  10   4 303.369 41.6586   4
  -3 -10  -4 396.966 45.7704   2
   3  10   5-54.6706 41.0019   4
   3  10   6 317.316 43.5901   4
  -3 -10  -6 207.904 47.9734   2
  -3 -10  -7 3.69021 48.3057   2
   3  10   7 2.89608 42.8081   4
  -3 -10  -8 147.132 46.3020   2
  -3 -10  -9 58.2609 47.9123   2
  -3 -10 -10-50.7799 46.4792   2
   3  11 -22 219.131 42.1177   1
   3  11 -21 126.916 43.3614   1
   3  11 -20 8.80074 41.1562   1
   3  11 -19 169.554 41.2170   1
  -3 -11  18 1.50682 32.8155   2
   3  11 -18 111.194 38.2774   1
  -3 -11  17 24.8899 34.8520   2
   3  11 -17 33.1541 38.6654   1
  -3 -11  16-20.5160 35.2307   2
   3  11 -16 38.2537 37.5779   1
  -3 -11  15 204.353 38.3521   2
   3  11 -15 201.251 39.6229   1
   3  11 -14 30.5360 41.5567   1
  -3 -11  14-45.6841 34.3307   2
   3  11 -13 315.219 42.6207   1
  -3 -11  13 175.268 38.0989   2
   3  11 -12 702.068 44.6412   1
  -3 -11  12 748.204 43.5215   2
   3  11 -11 659.734 47.4435   1
  -3 -11  11 544.010 41.6783   2
   3  11 -10 10.5078 39.0614   1
  -3 -11  10-13.6410 34.9218   2
   3  11  -9 355.952 41.4407   1
  -3 -11   9 370.703 37.1751   2
   3  11  -8-3.93353 42.8543   1
  -3 -11   8-4.07846 33.9029   2
   3  11  -7 9.63168 42.7179   1
  -3 -11   7-23.1429 34.1778   2
  -3 -11   6 68.9871 35.2585   2
  -3 -11   5 11.3664 33.9276   2
   3  11  -4-12.4513 39.4143   4
  -3 -11   4 14.7678 35.4230   2
   3  11  -3-31.8738 41.5361   4
  -3 -11   3 15.5986 37.2038   2
   3  11  -2-29.2204 40.9391   4
  -3 -11   2-4.25311 36.8816   2
   3  11  -1-9.01605 39.7580   4
  -3 -11   1 0.96042 37.3350   2
   3  11   0 200.858 41.1779   4
  -3 -11   0 228.451 42.0704   2
   3  11   1 102.533 40.1880   4
  -3 -11  -1 129.783 39.8674   2
  -3 -11  -2 187.077 42.2118   2
   3  11   2 116.130 40.4512   4
   3  11   3 47.3989 40.9286   4
  -3 -11  -3 74.7163 41.5221   2
  -3 -11  -4 22.7832 42.1127   2
   3  11   5 153.298 43.4454   4
  -3 -11  -5 233.370 46.3567   2
   3  11   6 142.224 42.6935   4
  -3 -11  -6 334.581 49.2820   2
  -3 -11  -7 30.1185 48.1503   2
  -3 -11  -8 78.5224 49.7609   2
  -3 -11  -9-59.1467 48.0518   2
   3  12 -21 14.4718 41.5327   1
   3  12 -20-30.4542 44.0334   1
   3  12 -18 22.6935 41.9671   1
   3  12 -17-27.4201 43.3222   1
   3  12 -16 63.7643 41.5753   1
   3  12 -15 178.452 43.8617   1
   3  12 -14 361.112 45.6407   1
  -3 -12  14 231.313 36.0818   2
   3  12 -13 26.1491 41.1105   1
  -3 -12  13 31.2173 34.6484   2
   3  12 -12 84.6329 39.8295   1
  -3 -12  12 32.3913 35.0523   2
   3  12 -11 292.557 41.5257   1
  -3 -12  11 181.065 36.5511   2
  -3 -12  10 207.876 36.1251   2
   3  12 -10 235.075 41.8571   1
  -3 -12   9 290.990 36.5653   2
   3  12  -9 353.498 42.4579   1
   3  12  -8 0.10802 40.1299   1
  -3 -12   8-37.5907 34.0171   2
   3  12  -7 7.71738 41.4554   1
  -3 -12   7 77.9439 35.4804   2
  -3 -12   6 37.1281 35.2432   2
  -3 -12   5-37.2243 34.4132   2
   3  12  -4-43.7514 40.9459   4
  -3 -12   4-3.38675 35.7309   2
   3  12  -3-25.8036 40.5584   4
  -3 -12   3 25.7874 38.1925   2
   3  12  -2 70.0892 40.6756   4
  -3 -12   2 86.9311 39.1751   2
   3  12  -1 125.284 41.6818   4
  -3 -12   1 108.194 39.3883   2
   3  12   0 134.497 43.7302   4
  -3 -12   0 142.585 40.7510   2
   3  12   1 27.9090 41.2579   4
  -3 -12  -1 237.613 43.3954   2
   3  12   2 31.5898 43.6382   4
  -3 -12  -2 6.02824 40.9440   2
  -3 -12  -3 153.793 42.0569   2
   3  12   3 108.786 44.1644   4
   3  12   4-23.1057 43.2418   4
  -3 -12  -4-15.6868 40.8758   2
   3  12   5 41.3323 46.2273   4
  -3 -12  -5 219.971 45.8390   2
  -3 -12  -6 159.582 46.4433   2
  -3 -12  -7 152.571 49.0763   2
  -3 -12  -8-54.0898 48.3529   2
   3  13 -19 197.752 44.4880   1
   3  13 -18 117.942 42.1340   1
   3  13 -17-53.0675 41.6841   1
   3  13 -15-27.7495 43.2915   1
   3  13 -14-10.3132 43.1120   1
   3  13 -13-11.3340 43.2769   1
   3  13 -12 94.0558 43.1035   1
  -3 -13  11 72.4149 35.0355   2
   3  13 -11 30.1057 42.1721   1
  -3 -13  10 195.868 36.4345   2
   3  13 -10 256.566 43.1192   1
  -3 -13   9 537.706 40.5518   2
   3  13  -9 686.771 44.0976   1
   3  13  -8 84.3490 44.6578   1
  -3 -13   8 117.662 37.1256   2
   3  13  -7 26.1360 43.6285   1
  -3 -13   7 41.4602 36.0877   2
   3  13  -6-4.59574 40.7986   1
  -3 -13   6-32.6273 36.6086   2
  -3 -13   5 3.15534 37.1514   2
   3  13  -4 180.429 46.0164   4
  -3 -13   4 165.416 38.0829   2
   3  13  -3 74.5916 45.0813   4
  -3 -13   3 13.9579 37.4238   2
   3  13  -2 105.072 44.3159   4
  -3 -13   2 17.7077 39.6875   2
   3  13  -1 3.04915 42.4789   4
  -3 -13   1-44.7809 40.4600   2
  -3 -13   0 35.2584 41.2919   2
   3  13   0-28.8936 52.9989   4
  -3 -13  -1 363.386 46.2439   2
   3  13   1 369.105 47.6775   4
   3  13   2-53.3582 43.9596   4
  -3 -13  -2 78.1217 44.2414   2
   3  13   3 122.758 45.8643   4
  -3 -13  -3-25.6214 43.7030   2
   3  13   4 180.070 47.1162   4
  -3 -13  -4 271.804 46.5492   2
  -3 -13  -5 176.993 48.9728   2
  -3 -13  -6 71.7508 43.5765   2
   3  14 -17 133.388 44.1039   1
   3  14 -16 63.0489 44.8860   1
   3  14 -14-42.9228 41.3677   1
   3  14 -12-12.8622 45.4711   1
   3  14 -11 118.031 43.5500   1
   3  14 -10 158.597 41.8879   1
   3  14  -9 0.31990 43.3468   1
   3  14  -8 67.2507 42.1273   1
   3  14  -7 41.2242 45.7363   1
   3  14  -6 84.6268 42.9528   1
  -3 -14   6-36.2381 37.0856   2
   3  14  -4 108.380 45.9096   4
  -3 -14   4-0.72152 36.5952   2
   3  14  -3 108.474 46.6725   4
   3  14  -2 95.8131 47.4969   4
  -3 -14   2 109.715 42.2606   2
  -3 -14   1 14.4505 40.2001   2
   3  14   0 308.478 49.1336   4
  -3 -14   0 257.829 44.3748   2
  -3 -14  -1 361.409 48.8718   2
   3  14   1 300.589 52.2777   4
   3  14   2-36.9740 45.7349   4
  -3 -14  -2 21.7640 46.0071   2
   3  14   3 3.99181 44.5825   4
  -3 -14  -3 144.853 43.5500   2
   3  15 -14-8.27478 43.9828   1
   3  15 -12-27.7908 44.3715   1
   3  15 -11 81.4414 44.3285   1
   3  15 -10 45.2507 42.2043   1
   3  15  -9 21.8211 42.4054   1
   3  15  -8 77.4370 42.6280   1
   3  15  -7 133.929 45.8207   1
   3  15  -6 66.9453 45.3110   1
   3  15  -5 105.681 43.1649   1
   3  15  -2-53.4118 47.3023   4
   3  15  -1 280.200 48.1203   4
  -3 -15   1-1.17507 43.1028   2
   3  15   0 23.3663 46.5672   4
  -3 -15   0 11.4579 43.7126   2
   3  15   1 70.7553 47.6741   4
  -3 -15  -1 113.294 41.4914   2
   3  15   2 84.2043 43.9577   4
  -3 -15  -2 27.1972 44.2413   2
   3  16  -3-58.0442 50.8402   4
  -4  17  -4-23.6212 53.5563   4
  -4  17  -5 10.6112 42.1127   5
  -4  17  -5 5.22052 52.2242   4
  -4  17  -6 186.310 55.6201   4
  -4  17  -7 177.695 54.2362   4
  -4  17  -7 125.621 44.8073   5
  -4  17  -8-26.6875 46.5354   5
  -4  17  -9 203.537 49.3782   5
  -4  17 -10 46.4387 45.0819   5
  -4  17 -11 59.1583 48.5100   5
  -4  17 -14 63.3330 40.9578   1
  -4  16   0 61.2848 53.4844   4
  -4  16  -2-27.0582 51.5054   4
  -4  16  -3 12.2354 51.4530   4
  -4  16  -4 30.9398 41.3213   5
  -4  16  -4-3.71978 49.7139   4
  -4  16  -5 24.7783 40.4502   5
  -4  16  -5 160.788 49.0942   4
  -4  16  -6-34.1212 40.2794   5
  -4  16  -6 144.142 49.3703   4
  -4  16  -7-20.3516 46.8320   5
  -4  16  -7 40.2816 49.2116   4
  -4  16  -8 166.926 45.6740   5
  -4  16  -9 32.5733 43.1641   5
  -4  16 -10 193.072 46.4936   5
  -4  16 -11 387.837 47.5907   5
  -4  16 -12 163.414 48.3238   5
  -4  16 -13-16.0293 37.8918   1
  -4  16 -14 142.722 39.9271   1
  -4  16 -15 25.3042 39.1625   1
  -4  16 -16 6.59680 40.7860   1
  -4  15   3 49.9051 55.1230   4
  -4  15   1-58.5438 52.0391   4
  -4  15   0-44.4642 51.7748   4
  -4  15  -1 17.2345 48.5935   4
  -4  15  -2 13.1172 37.2949   5
  -4  15  -3 104.964 39.3478   5
  -4  15  -3 21.6008 48.6644   4
  -4  15  -4 105.637 47.6451   4
  -4  15  -4 101.718 42.1589   5
  -4  15  -5 29.8774 47.0211   4
  -4  15  -6 74.2332 42.7276   5
  -4  15  -6 9.12506 46.0402   4
  -4  15  -7 105.404 40.9773   5
  -4  15  -8 37.0698 41.9137   5
  -4  15  -9 113.410 43.4537   5
  -4  15 -10 127.540 44.2688   5
  -4  15 -11-33.7179 34.9014   1
  -4  15 -11 206.676 46.1489   5
  -4  15 -12 50.5831 36.6558   1
  -4  15 -13 46.9296 38.6249   1
  -4  15 -15 101.783 41.1167   1
  -4  15 -16 85.8661 42.8125   1
  -4  15 -17 18.2286 40.3980   1
  -4  14   6-5.00548 54.3705   4
  -4  14   5 205.358 53.7139   4
  -4  14   4 111.297 53.0283   4
  -4  14   3 372.780 55.2004   4
  -4  14   2-11.6441 52.1861   4
  -4  14   0-57.0853 49.5926   4
  -4  14  -1-53.9003 35.1502   5
  -4  14  -1 47.7199 46.4365   4
  -4  14  -2 131.706 38.8434   5
  -4  14  -2 274.852 49.4847   4
  -4  14  -3 218.606 39.8676   5
  -4  14  -3 194.729 47.8003   4
  -4  14  -4-7.34280 46.0624   4
  -4  14  -4 53.8657 38.6565   5
  -4  14  -5 121.460 39.1704   5
  -4  14  -5 11.1779 46.2660   4
  -4  14  -6-33.5998 41.2964   5
  -4  14  -7-10.8208 44.6021   4
  -4  14  -7 26.7082 41.7908   5
  -4  14  -8 93.7080 42.4866   5
  -4  14  -9 37.8570 41.3813   5
  -4  14  -9 53.5597 30.1704   1
  -4  14 -10 92.2814 43.0662   5
  -4  14 -10 53.0876 33.1334   1
  -4  14 -11-32.1964 34.0651   1
  -4  14 -12-47.4173 34.3015   1
  -4  14 -13 12.7867 34.3102   1
  -4  14 -14 18.2027 34.9901   1
  -4  14 -15-7.45004 36.5437   1
  -4  14 -16 30.8969 37.0426   1
  -4  14 -17 11.9847 37.2156   1
  -4  14 -19 92.5050 41.1179   1
  -4  13   8 158.379 53.3381   4
  -4  13   7 4.25093 50.1997   4
  -4  13   6 164.251 50.8492   4
  -4  13   5 529.054 54.7684   4
  -4  13   4 43.3960 48.7544   4
  -4  13   3 35.1046 48.7030   4
  -4  13   1 12.7213 47.0134   4
  -4  13   0 20.3588 34.8304   5
  -4  13   0 17.4612 47.3199   4
  -4  13  -1 29.4984 36.1065   5
  -4  13  -1-32.2659 45.2886   4
  -4  13  -2-7.14004 42.8344   4
  -4  13  -2 66.9011 37.1482   5
  -4  13  -3 44.7775 38.8816   5
  -4  13  -3-59.1025 42.4637   4
  -4  13  -4 55.0345 40.1203   5
  -4  13  -4 55.4653 45.1798   4
  -4  13  -5 108.973 41.8803   5
  -4  13  -5 45.5463 44.0611   4
  -4  13  -6 141.774 42.4500   5
  -4  13  -6-19.8181 44.1454   4
  -4  13  -7 491.359 45.4810   5
  -4  13  -7 418.945 46.5531   4
  -4  13  -8 171.463 42.7477   5
  -4  13  -8 141.596 31.2287   1
  -4  13  -9 121.873 43.4826   5
  -4  13  -9 22.5088 30.9121   1
  -4  13 -10-28.3540 29.7827   1
  -4  13 -11-41.8557 33.8887   1
  -4  13 -12 7.54347 34.4550   1
  -4  13 -13-4.05840 35.4797   1
  -4  13 -14-56.6269 35.7178   1
  -4  13 -15 85.8901 36.8909   1
  -4  13 -16 8.33269 35.4594   1
  -4  13 -17 78.3248 36.9772   1
  -4  13 -18 39.6875 38.3029   1
  -4  12  10-51.9699 51.5547   4
  -4  12   9-7.34141 51.0357   4
  -4  12   8 103.988 50.0223   4
  -4  12   7 339.342 52.7834   4
  -4  12   6 123.927 48.2564   4
  -4  12   5 206.437 48.8187   4
  -4  12   4 115.971 46.3808   4
  -4  12   3 217.574 48.6227   4
  -4  12   2 251.538 48.5822   4
  -4  12   2 141.400 32.7841   5
  -4  12   1-28.5756 44.0733   4
  -4  12   1-4.07851 32.3125   5
  -4  12   0 625.737 39.4468   5
  -4  12   0 654.506 49.8967   4
  -4  12  -1 657.173 49.0474   4
  -4  12  -1 632.950 41.3925   5
  -4  12  -2 21.9157 41.9700   4
  -4  12  -2 7.06330 37.5575   5
  -4  12  -3 14.1703 38.2638   5
  -4  12  -3-19.7632 43.3011   4
  -4  12  -4 181.993 40.4763   5
  -4  12  -4 194.170 44.0338   4
  -4  12  -5 868.589 46.9663   5
  -4  12  -5 863.324 49.0170   4
  -4  12  -6 1.66404 40.6034   5
  -4  12  -6 14.5202 41.8939   4
  -4  12  -7 17.0345 39.2881   5
  -4  12  -7-3.55372 43.4637   4
  -4  12  -7 33.2843 27.8820   1
  -4  12  -8 68.7647 41.3531   5
  -4  12  -8 11.4216 28.1935   1
  -4  12  -9 391.068 34.3260   1
  -4  12 -10 478.081 34.0384   1
  -4  12 -11 31.8536 33.1982   1
  -4  12 -12 10.4387 34.3975   1
  -4  12 -13-34.6758 33.4311   1
  -4  12 -14 325.837 37.9637   1
  -4  12 -15 38.9249 36.1420   1
  -4  12 -16-51.4095 36.0890   1
  -4  12 -17 154.138 38.6675   1
  -4  12 -18 23.7522 37.7273   1
  -4  12 -19 64.6129 40.3833   1
  -4  12 -20 27.2176 40.4923   1
  -4  11  12 356.169 40.7611   6
  -4  11  11 136.998 34.0632   6
  -4  11  11 87.4282 52.8011   4
  -4  11   9 171.212 37.8036   6
  -4  11   9 41.9013 48.1633   4
  -4  11   8 110.984 48.3362   4
  -4  11   7-21.2885 46.4648   4
  -4  11   6 347.168 49.1829   4
  -4  11   5 584.559 51.5543   4
  -4  11   4 74.5231 45.0161   4
  -4  11   3 165.434 33.7445   5
  -4  11   3 215.417 45.1660   4
  -4  11   2 268.973 35.5458   5
  -4  11   2 202.213 45.5125   4
  -4  11   1 400.431 37.1023   5
  -4  11   1 360.203 44.6796   4
  -4  11   0 495.314 40.0290   5
  -4  11   0 536.964 45.1923   4
  -4  11  -1-20.8350 37.9628   5
  -4  11  -1-26.2691 43.4804   4
  -4  11  -2 169.868 40.0013   5
  -4  11  -2 200.248 42.9367   4
  -4  11  -3 1075.49 47.4671   5
  -4  11  -3 1160.32 49.4458   4
  -4  11  -4 8.51000 40.5837   5
  -4  11  -4 8.07717 41.1352   4
  -4  11  -5-27.2772 39.8271   4
  -4  11  -5 5.62029 24.8287   1
  -4  11  -5 20.4831 41.4939   5
  -4  11  -6 257.742 42.6570   5
  -4  11  -6 237.542 40.0018   4
  -4  11  -6 196.242 27.3987   1
  -4  11  -7 59.9403 41.7830   5
  -4  11  -7 75.3559 25.6734   1
  -4  11  -8 46.9068 41.4068   5
  -4  11  -8-16.3593 27.7653   1
  -4  11  -9-19.5477 29.0784   1
  -4  11 -10 372.352 35.1096   1
  -4  11 -11 770.955 37.6731   1
  -4  11 -12-24.5001 33.2862   1
  -4  11 -13 14.4497 36.0854   1
  -4  11 -14 133.571 38.6023   1
  -4  11 -15 153.891 38.8444   1
  -4  11 -16 82.4548 37.6747   1
  -4  11 -17 75.4347 39.8420   1
  -4  11 -18-12.1838 40.1893   1
  -4  11 -19 138.743 41.4702   1
  -4  11 -21 73.8566 41.9312   1
  -4  10  13 118.719 54.9975   4
  -4  10  12 170.307 52.5568   4
  -4  10  11 38.9293 49.7616   4
  -4  10  10 298.445 32.7443   6
  -4  10  10-41.4735 48.1641   4
  -4  10   9 75.9035 32.0197   6
  -4  10   9-5.27533 47.7385   4
  -4  10   8 273.623 36.1925   6
  -4  10   8 319.430 48.7498   4
  -4  10   7 55.0550 31.3164   6
  -4  10   7 23.5712 44.1537   4
  -4  10   6 200.090 32.3092   6
  -4  10   6 192.314 46.0529   4
  -4  10   5 219.793 32.3208   6
  -4  10   5 365.925 46.5781   4
  -4  10   4 1009.88 38.7236   6
  -4  10   4 1095.87 50.9925   4
  -4  10   4 1101.81 40.7428   5
  -4  10   3 989.366 37.4077   6
  -4  10   3 975.459 40.7445   5
  -4  10   3 1048.85 47.5137   4
  -4  10   2 57.3128 33.0152   5
  -4  10   2 33.5169 40.5155   4
  -4  10   2 22.5195 28.9166   6
  -4  10   1 518.200 33.2255   6
  -4  10   1 715.523 46.0906   4
  -4  10   1 794.186 38.7879   5
  -4  10   0 875.366 33.0135   6
  -4  10   0 811.071 42.3976   5
  -4  10   0 783.653 45.8950   4
  -4  10  -1 57.8778 36.8642   5
  -4  10  -1 16.9445 26.4066   6
  -4  10  -1 82.6726 40.7477   4
  -4  10  -2 23.9156 26.0351   6
  -4  10  -2-32.7710 37.6786   5
  -4  10  -2 1.35533 38.3857   4
  -4  10  -3 164.979 38.8852   5
  -4  10  -3 208.565 37.1190   4
  -4  10  -4 119.553 39.3884   5
  -4  10  -4 130.974 37.4538   4
  -4  10  -4 105.043 22.6468   1
  -4  10  -5 272.803 41.3549   5
  -4  10  -5 207.170 24.1381   1
  -4  10  -5 221.114 38.3259   4
  -4  10  -6 9.75750 34.6370   4
  -4  10  -6-14.1194 23.4315   1
  -4  10  -6 19.7567 39.4251   5
  -4  10  -7 63.4606 40.4716   5
  -4  10  -7-10.1920 24.3980   1
  -4  10  -8 181.588 29.6844   1
  -4  10  -9 455.682 32.7807   1
  -4  10 -10 82.5015 32.7934   1
  -4  10 -11 65.6120 30.5127   1
  -4  10 -12 263.854 35.9190   1
  -4  10 -13 1907.16 51.3267   1
  -4  10 -14 487.153 42.1932   1
  -4  10 -15 59.5825 37.5671   1
  -4  10 -16 35.2001 37.2241   1
  -4  10 -17 91.0403 38.3803   1
  -4  10 -18 43.1137 40.3936   1
  -4  10 -19-22.1012 39.5828   1
  -4  10 -20 28.5426 38.0057   1
  -4  10 -21-39.3860 39.5176   1
  -4   9  13 13.8378 49.3552   4
  -4   9  12 34.6362 48.0802   4
  -4   9  11 68.5550 46.9501   4
  -4   9  10 24.0050 46.7999   4
  -4   9   9-7.78155 44.9012   4
  -4   9   8 44.2834 32.4625   6
  -4   9   8-7.22932 42.9141   4
  -4   9   7 196.951 35.5321   6
  -4   9   7 101.993 43.7438   4
  -4   9   6 1083.74 48.6732   4
  -4   9   6 952.786 40.7996   6
  -4   9   5 287.445 33.2068   6
  -4   9   5 202.278 29.9619   5
  -4   9   5 251.749 42.9652   4
  -4   9   4 30.3387 32.5404   6
  -4   9   4 2.81613 30.9788   5
  -4   9   4-11.9845 42.2707   4
  -4   9   3 902.086 39.0977   5
  -4   9   3 891.831 36.5305   6
  -4   9   3 927.027 46.5852   4
  -4   9   2 997.024 37.5189   6
  -4   9   2 1048.91 39.2848   5
  -4   9   2 1025.60 45.2026   4
  -4   9   1 227.530 32.3830   6
  -4   9   1 342.756 35.1080   5
  -4   9   1 315.342 39.6430   4
  -4   9   0 42.0039 26.7767   6
  -4   9   0-11.2647 34.2391   5
  -4   9   0 52.3566 35.5028   4
  -4   9  -1 731.963 38.7325   5
  -4   9  -1 741.064 39.9748   4
  -4   9  -1 654.047 31.0404   6
  -4   9  -2 10.9180 25.6323   6
  -4   9  -2 60.8953 35.2586   5
  -4   9  -2 74.9967 32.6393   4
  -4   9  -3 189.603 25.3217   6
  -4   9  -3 174.017 20.5158   1
  -4   9  -3 139.262 36.0656   5
  -4   9  -3 173.775 33.6899   4
  -4   9  -4 49.2017 36.2219   5
  -4   9  -4 18.2821 31.2917   4
  -4   9  -4 72.7431 23.3824   6
  -4   9  -4 39.7737 19.8231   1
  -4   9  -5 35.1621 23.5673   6
  -4   9  -5 19.6983 31.3731   4
  -4   9  -5 20.4132 20.4115   1
  -4   9  -5 18.3002 37.6167   5
  -4   9  -6 159.845 39.0463   5
  -4   9  -6 90.9248 32.2262   4
  -4   9  -6 80.5910 22.0480   1
  -4   9  -7 33.9909 38.9429   5
  -4   9  -7 19.5009 24.5153   1
  -4   9  -8-14.1460 25.7917   1
  -4   9  -9 215.420 29.5374   1
  -4   9 -10 1830.47 42.9097   1
  -4   9 -11 31.2875 33.1259   1
  -4   9 -12-27.5255 35.1414   1
  -4   9 -13 369.991 38.7978   1
  -4   9 -14 1000.42 44.5832   1
  -4   9 -15 539.423 42.2785   1
  -4   9 -16 128.109 39.9224   1
  -4   9 -17-5.08832 38.9631   1
  -4   9 -18 105.656 39.2104   1
  -4   9 -19 8.30764 37.2271   1
  -4   9 -21 81.3394 37.5185   1
  -4   8  15-36.7802 52.4423   4
  -4   8  14-26.6426 48.5074   4
  -4   8  13 93.1758 48.4068   4
  -4   8  12-11.6501 46.6487   4
  -4   8  11 28.7829 44.8952   4
  -4   8  10 96.5884 44.4458   4
  -4   8   9 40.9162 42.7146   4
  -4   8   8 15.5529 41.6096   4
  -4   8   7-29.7370 33.8550   6
  -4   8   7-17.5412 42.0324   4
  -4   8   6 960.300 40.7944   6
  -4   8   6 981.425 48.3595   4
  -4   8   5 1695.87 42.8047   6
  -4   8   5 1530.21 40.8527   5
  -4   8   5 1700.70 50.8552   4
  -4   8   4 60.9496 31.0000   6
  -4   8   4 74.9064 31.4743   5
  -4   8   4 84.0056 36.8643   4
  -4   8   3 176.097 31.8049   5
  -4   8   3 182.194 30.0469   6
  -4   8   3 202.172 36.0524   4
  -4   8   2 226.345 35.3912   4
  -4   8   2 221.094 32.0202   5
  -4   8   2 278.371 28.1064   6
  -4   8   1 129.277 28.4988   6
  -4   8   1 108.238 30.3971   5
  -4   8   1 127.949 31.8517   4
  -4   8   0 5.93175 32.4777   5
  -4   8   0 26.5008 32.1217   4
  -4   8   0 29.4045 24.9176   6
  -4   8  -1 80.1173 26.2795   6
  -4   8  -1 41.5544 32.1602   5
  -4   8  -1 60.3197 30.4287   4
  -4   8  -2 21.7019 25.0464   6
  -4   8  -2 32.6533 32.8025   5
  -4   8  -2 48.1875 30.0995   4
  -4   8  -2 34.2051 15.3999   1
  -4   8  -3 24.1702 27.4516   4
  -4   8  -3-3.25449 33.0483   5
  -4   8  -3-4.04585 23.5677   6
  -4   8  -3 7.95978 16.8992   1
  -4   8  -4 18.7217 24.3009   6
  -4   8  -4 15.3592 35.1195   5
  -4   8  -4 22.4450 27.8198   4
  -4   8  -4 16.1653 18.6059   1
  -4   8  -5 37.9862 36.2705   5
   4  -8   5 24.5394 16.3958   0
  -4   8  -5 6.78398 28.0271   4
  -4   8  -5-2.12597 20.2842   1
   4  -8   6 131.208 18.7863   0
  -4   8  -6 187.371 37.4568   5
  -4   8  -6 133.808 23.3260   1
  -4   8  -7 751.761 41.2860   5
  -4   8  -7 648.428 28.4910   1
   4  -8   7 623.228 23.8893   0
  -4   8  -8 754.029 31.6420   1
   4  -8   8 746.816 25.6225   0
  -4   8  -9-4.07388 24.7280   1
  -4   8 -10 411.373 31.7310   1
  -4   8 -11 327.434 33.5794   1
  -4   8 -12 1329.10 43.9545   1
  -4   8 -13 355.920 39.8171   1
  -4   8 -14 186.676 38.0278   1
  -4   8 -15 15.8350 36.5628   1
  -4   8 -16 1437.81 49.3050   1
  -4   8 -17 83.3612 36.9196   1
  -4   8 -18-24.9714 38.7593   1
  -4   8 -19 26.7587 36.3584   1
  -4   8 -21 116.302 39.2231   1
  -4   8 -22-49.9954 40.6844   1
  -4   7  16 188.716 53.1625   4
  -4   7  15 62.0305 49.9320   4
  -4   7  14 15.2082 48.8589   4
  -4   7  13-23.1351 46.2307   4
  -4   7  12-49.5647 46.5643   4
  -4   7  11 59.1194 44.2629   4
  -4   7  10 123.925 42.4639   4
  -4   7   9 20.3242 39.8097   4
  -4   7   8 910.191 46.7482   4
  -4   7   7 72.8565 35.1918   6
  -4   7   7 15.2732 41.4395   4
  -4   7   6 689.118 36.6605   6
  -4   7   6 666.774 43.6936   4
  -4   7   5 7.14790 31.9238   6
  -4   7   5 5.34625 28.8810   5
  -4   7   5 23.0903 35.1326   4
  -4   7   4 472.985 31.4755   5
  -4   7   4 475.930 34.2095   6
  -4   7   4 513.361 37.4227   4
  -4   7   3 814.762 32.1335   6
  -4   7   3 862.403 34.5756   5
  -4   7   3 847.831 35.9777   4
  -4   7   2 336.360 31.6511   5
  -4   7   2 367.770 28.2608   6
  -4   7   2 309.499 32.2285   4
  -4   7   1 219.481 28.6365   6
  -4   7   1 254.721 29.8433   5
  -4   7   1 224.365 29.3896   4
  -4   7   0 110.841 25.8750   6
  -4   7   0 150.978 30.0513   5
  -4   7   0 160.744 28.0665   4
  -4   7  -1 1313.79 33.7448   4
  -4   7  -1 1214.75 20.8639   1
  -4   7  -1 1460.47 35.3098   6
  -4   7  -1 1357.68 38.6578   5
  -4   7  -2 232.018 32.0671   5
  -4   7  -2 254.546 26.8682   6
  -4   7  -2 212.903 16.1453   1
  -4   7  -2 243.301 27.0272   4
  -4   7  -3 46.7892 31.1938   5
  -4   7  -3 56.1738 25.0004   6
  -4   7  -3 60.6045 24.3784   4
  -4   7  -3 47.6936 15.8943   1
  -4   7  -4 112.468 25.6574   6
  -4   7  -4 98.2362 32.8785   5
  -4   7  -4 86.9169 17.7848   1
  -4   7  -4 91.4900 25.1130   4
   4  -7   4 65.8635 17.4424   0
  -4   7  -5 9.39359 33.3182   5
  -4   7  -5-3.35933 24.6621   4
  -4   7  -5-4.00064 19.3522   1
   4  -7   5-10.2980 16.8638   0
  -4   7  -6 474.519 35.5638   5
  -4   7  -6 426.788 23.5739   1
   4  -7   6 407.653 20.7831   0
  -4   7  -7 583.178 37.4767   5
  -4   7  -7 572.449 27.5999   1
   4  -7   7 560.728 23.9228   0
  -4   7  -8 341.399 27.6062   1
  -4   7  -9 26.6078 25.9624   1
  -4   7 -10 48.5611 27.5687   1
  -4   7 -11-0.35051 30.0326   1
  -4   7 -12 302.445 35.8921   1
  -4   7 -13 4734.51 66.5351   1
  -4   7 -14 733.420 41.3714   1
  -4   7 -15 296.455 38.0879   1
  -4   7 -16 447.724 41.7339   1
  -4   7 -17 284.427 39.0302   1
  -4   7 -18 76.1812 34.7117   1
  -4   7 -19 118.917 39.0071   1
  -4   7 -20-38.4667 38.7134   1
  -4   7 -21 71.0238 37.3861   1
  -4   7 -22-62.5715 39.7531   1
  -4   6  17 80.0955 51.1638   4
  -4   6  16 110.555 49.3325   4
  -4   6  15 38.3322 48.9900   4
  -4   6  14 331.427 48.1599   4
  -4   6  13 21.4860 45.1247   4
  -4   6  12 6.11255 43.7195   4
  -4   6  11 242.767 43.5251   4
  -4   6  10-22.5343 42.4629   4
  -4   6   9 291.219 44.3958   4
  -4   6   8 127.954 41.2267   4
  -4   6   7 270.985 33.7038   6
  -4   6   7 139.061 37.9474   4
  -4   6   6 82.4752 32.1300   6
  -4   6   6 74.0897 33.0602   4
  -4   6   5 47.9277 29.5526   6
  -4   6   5 47.7671 32.2111   4
  -4   6   4 12.9713 29.9145   6
  -4   6   4 24.9967 27.0832   5
  -4   6   4 19.5828 30.2315   4
  -4   6   3 487.796 30.5174   6
  -4   6   3 512.982 30.9285   5
  -4   6   3 497.104 30.7985   4
  -4   6   2 249.244 28.6365   6
  -4   6   2 213.172 28.2976   5
  -4   6   2 213.386 26.3329   4
  -4   6   1 296.602 28.9669   6
  -4   6   1 354.128 29.3738   5
  -4   6   1 332.916 25.2983   4
  -4   6   1 285.495 15.7506   0
  -4   6   0 71.4014 14.7513   0
  -4   6   0 56.9419 10.7801   1
  -4   6   0 87.8104 24.0915   6
  -4   6   0 83.3218 27.4663   5
  -4   6   0 93.0572 23.1177   4
  -4   6  -1 492.007 17.3828   0
  -4   6  -1 501.788 31.7140   5
  -4   6  -1 437.178 14.6537   1
  -4   6  -1 496.853 25.1501   4
  -4   6  -1 489.306 27.8549   6
  -4   6  -2 527.640 31.9876   5
  -4   6  -2 503.531 14.8074   1
  -4   6  -2 500.820 24.6331   4
  -4   6  -2 466.872 27.9495   6
  -4   6  -3 1130.99 31.0756   6
  -4   6  -3 1095.16 28.3466   4
  -4   6  -3 1118.43 22.0053   1
  -4   6  -3 1231.03 36.5337   5
  -4   6  -4 198.925 27.0076   6
  -4   6  -4 257.336 31.8680   5
  -4   6  -4 209.792 22.8445   4
  -4   6  -4 217.209 17.8249   1
   4  -6   4 228.917 18.3131   0
  -4   6  -5 213.469 31.8618   5
  -4   6  -5 184.065 18.9318   1
   4  -6   5 207.813 19.6521   0
  -4   6  -6 2545.80 35.3034   1
  -4   6  -6 2686.09 44.2904   5
   4  -6   6 2464.32 33.9360   0
  -4   6  -6 2347.04 41.7863   3
   4  -6   7 47.7506 19.6773   0
  -4   6  -7 40.7103 21.8319   1
  -4   6  -7 36.6363 30.6096   5
  -4   6  -7 57.6982 26.2685   3
  -4   6  -8 567.922 28.1502   1
  -4   6  -8 547.752 29.1563   3
  -4   6  -9 2.94641 23.6703   1
  -4   6  -9-3.76694 25.2310   3
  -4   6 -10 686.088 32.5219   1
  -4   6 -10 607.484 30.7314   3
  -4   6 -11-19.1316 30.1883   1
  -4   6 -11 13.7889 24.3068   3
  -4   6 -12-23.8089 31.8678   1
  -4   6 -12 12.5269 25.2845   3
  -4   6 -13 175.426 36.2220   1
  -4   6 -13 232.528 27.4715   3
  -4   6 -14 94.5785 35.7751   1
  -4   6 -15 550.260 37.4353   1
  -4   6 -16 2074.34 53.7209   1
  -4   6 -17 127.654 36.4262   1
  -4   6 -18-26.5765 37.4166   1
  -4   6 -19 70.0251 38.5262   1
  -4   6 -21 91.5019 40.1043   1
  -4   5  18 141.038 48.7584   4
  -4   5  17 163.127 47.9380   4
  -4   5  16 124.819 46.4059   4
  -4   5  15 54.9209 45.5737   4
  -4   5  14 91.3456 44.8427   4
  -4   5  13 285.712 45.6508   4
  -4   5  12 166.373 42.9270   4
  -4   5  11 55.2382 40.8183   4
  -4   5  10 6.69862 39.6429   4
  -4   5   9 327.301 40.2254   4
  -4   5   8-15.5811 35.8082   4
  -4   5   7 7.98246 32.9366   4
  -4   5   6 59.0660 31.7698   6
  -4   5   6 8.16139 30.5894   4
  -4   5   5 9.66850 30.1321   6
  -4   5   5-4.51861 29.1768   4
  -4   5   4 1315.35 35.8929   6
  -4   5   4 1265.49 35.2051   5
  -4   5   4 1279.87 34.6912   4
  -4   5   3 173.756 26.5019   6
  -4   5   3 162.087 26.4515   5
  -4   5   3 113.237 25.3520   4
  -4   5   2 57.0765 26.6547   5
  -4   5   2 32.3158 26.4674   6
  -4   5   2 62.3218 22.9960   4
  -4   5   1 888.971 32.1179   5
  -4   5   1 846.693 26.3729   4
  -4   5   1 805.632 20.3668   0
  -4   5   1 919.436 29.8601   6
  -4   5   0 933.934 20.9931   0
  -4   5   0 994.006 32.3390   5
  -4   5   0 914.934 13.8337   1
  -4   5   0 1063.99 30.6930   6
  -4   5   0 975.396 25.0518   4
  -4   5  -1 7.93120 24.9650   6
  -4   5  -1 37.3340 19.1400   4
  -4   5  -1 19.7034 10.1043   1
  -4   5  -1-19.3539 26.3587   5
  -4   5  -1 39.3736 15.2738   0
  -4   5  -2 188.526 13.1315   1
  -4   5  -2 159.497 27.9589   5
  -4   5  -2 205.971 17.3471   0
  -4   5  -2 196.867 19.4874   4
  -4   5  -2 174.758 25.9262   3
  -4   5  -2 233.340 26.2397   6
  -4   5  -3 14.8663 13.4623   1
  -4   5  -3 7.79811 27.5392   5
  -4   5  -3-2.19298 18.5834   4
   4  -5   3-5.28952 17.1136   0
  -4   5  -3 21.8881 25.9625   6
  -4   5  -3 8.47006 24.2558   3
  -4   5  -4 3422.68 33.3969   4
  -4   5  -4 3473.92 34.0457   1
  -4   5  -4 3640.15 44.9576   5
  -4   5  -4 3470.38 43.4979   3
   4  -5   4 3542.92 37.0612   0
   4  -5   5 475.651 21.7034   0
  -4   5  -5 484.371 21.0718   1
  -4   5  -5 535.311 31.4232   5
  -4   5  -5 443.215 28.1341   3
  -4   5  -6 551.205 23.9304   1
  -4   5  -6 544.482 30.9244   5
   4  -5   6 554.583 23.4373   0
  -4   5  -6 616.336 28.4644   3
  -4   5  -7 704.717 26.2668   1
  -4   5  -7 716.568 31.1390   5
   4  -5   7 700.075 27.0159   0
  -4   5  -7 668.724 30.0744   3
  -4   5  -8 2622.76 40.9774   5
  -4   5  -8 2623.75 40.2938   1
  -4   5  -8 2454.42 40.8739   3
  -4   5  -9 1755.63 37.3691   1
  -4   5  -9 1706.79 36.7155   3
  -4   5 -10-9.86593 25.9641   1
  -4   5 -10 18.9468 23.9945   3
  -4   5 -11 41.8016 29.6369   1
  -4   5 -11 34.4241 22.4652   3
  -4   5 -12 89.0628 29.5742   1
  -4   5 -12 28.3952 24.7261   3
  -4   5 -13 38.7215 34.3929   1
  -4   5 -13-6.49783 24.9868   3
  -4   5 -14 89.9168 34.0851   1
  -4   5 -15 209.227 36.9623   1
  -4   5 -16 164.557 37.5558   1
  -4   5 -17 54.2463 34.0910   1
  -4   5 -18 34.5932 38.1274   1
  -4   5 -19-3.56537 35.7158   1
  -4   5 -20-28.8351 40.1595   1
  -4   5 -21 144.307 39.6146   1
  -4   4  19 246.323 50.4025   4
  -4   4  18 212.854 49.1485   4
  -4   4  17 62.8990 46.7843   4
  -4   4  16 6.75604 45.8505   4
  -4   4  15 169.698 45.7983   4
  -4   4  14 303.341 44.5884   4
  -4   4  13 40.6686 42.0013   4
  -4   4  12 215.886 42.5718   4
  -4   4  11 373.701 41.7648   4
  -4   4  10 18.3554 37.5026   4
  -4   4   9 86.2894 35.5352   4
  -4   4   8 49.5270 32.3419   4
  -4   4   7-8.87969 29.9448   4
  -4   4   6 571.392 34.8092   6
  -4   4   6 558.783 31.2711   4
  -4   4   5 184.965 29.0966   6
  -4   4   5 154.747 26.3570   4
  -4   4   4 14.5069 28.1921   6
  -4   4   4-4.19575 23.2704   4
  -4   4   3 2506.61 40.1113   6
  -4   4   3 2404.57 38.7141   5
  -4   4   3 2500.64 33.9215   4
  -4   4   2 3136.20 43.3925   6
  -4   4   2 2976.19 40.5624   5
  -4   4   2 2888.29 33.7987   4
  -4   4   1 1167.61 31.0380   6
  -4   4   1 1130.22 32.2998   5
  -4   4   1 1071.73 24.1005   4
  -4   4   1 1175.01 28.5467   3
  -4   4   0-0.79041 7.54982   1
  -4   4   0-1.58624 25.5216   5
  -4   4   0 29.1763 16.8807   4
  -4   4   0 22.3704 16.0901   0
  -4   4   0 7.80771 11.7856   2
  -4   4   0 0.97621 21.8302   3
  -4   4   0 22.2454 27.1826   6
  -4   4  -1 143.216 10.9316   2
  -4   4  -1 145.172 24.7766   6
  -4   4  -1 95.1320 25.2833   5
  -4   4  -1 136.466 17.9149   0
  -4   4  -1 142.873 16.3497   4
  -4   4  -1 119.571 10.5568   1
  -4   4  -1 149.993 22.9389   3
  -4   4  -2 400.205 19.6863   0
  -4   4  -2 472.776 26.3260   6
  -4   4  -2 418.739 26.9325   5
  -4   4  -2 372.221 17.0198   4
  -4   4  -2 425.042 14.4511   1
  -4   4  -2 447.336 25.6424   3
  -4   4  -2 378.815 10.5501   2
  -4   4  -3 670.046 28.6164   5
  -4   4  -3 564.733 10.7932   2
  -4   4  -3 597.244 17.8783   4
  -4   4  -3 701.586 28.3083   6
  -4   4  -3 653.438 17.9027   1
   4  -4   3 720.953 22.6206   0
  -4   4  -3 651.102 27.3677   3
   4  -4   4 446.714 21.6734   0
  -4   4  -4 370.269 10.3265   2
  -4   4  -4 477.933 27.6152   5
  -4   4  -4 432.012 18.8000   1
  -4   4  -4 403.944 26.2879   3
  -4   4  -5 1024.90 14.8539   2
  -4   4  -5 1147.77 30.6286   5
   4  -4   5 1159.69 28.7204   0
  -4   4  -5 1076.96 24.6412   1
  -4   4  -5 1139.12 30.0496   3
  -4   4  -6 468.901 21.4411   1
  -4   4  -6 446.337 28.1092   5
  -4   4  -6 444.779 14.2962   2
   4  -4   6 447.605 24.0353   0
  -4   4  -6 395.862 26.9311   3
  -4   4  -7 431.367 23.5720   1
  -4   4  -7 383.043 26.6120   5
   4  -4   7 370.265 23.9402   0
  -4   4  -7 363.394 15.8819   2
  -4   4  -7 396.354 27.1229   3
  -4   4  -8-2.62298 24.5206   3
  -4   4  -8 9.87492 22.2315   1
  -4   4  -8 21.0460 23.6577   5
  -4   4  -8 26.4693 15.5016   2
  -4   4  -9 48.3188 22.8965   3
  -4   4  -9 102.088 25.3702   1
  -4   4  -9 97.6310 23.7635   5
  -4   4 -10-13.9066 24.1561   3
  -4   4 -10 4.59309 26.2614   1
  -4   4 -11 36.5863 24.4277   3
  -4   4 -11 57.4961 27.9038   1
  -4   4 -12 107.914 24.8421   3
  -4   4 -12 148.629 31.0783   1
  -4   4 -13-34.9215 24.5275   3
  -4   4 -13 21.9105 32.9704   1
  -4   4 -14 294.766 37.7255   1
  -4   4 -15 180.776 37.2539   1
  -4   4 -16 28.9808 31.9097   1
  -4   4 -17-41.0652 34.9485   1
  -4   4 -18 93.2127 38.9682   1
  -4   4 -19-1.78362 37.4936   1
  -4   4 -20 51.7632 37.4271   1
  -4   4 -21 15.7153 39.7590   1
  -4   3  20 249.435 51.2162   4
  -4   3  19 131.356 49.3423   4
  -4   3  18 84.7819 46.7118   4
  -4   3  17 4.22383 45.8511   4
  -4   3  16-38.2792 43.4384   4
  -4   3  13 1629.47 51.9743   4
  -4   3  12 237.380 41.8627   4
  -4   3  11-40.6571 37.0819   4
  -4   3  10 306.635 36.5118   4
  -4   3   9 36.5284 32.5310   4
  -4   3   8 130.212 30.2921   4
  -4   3   7 187.746 33.4737   6
  -4   3   7 157.342 28.5128   4
  -4   3   6 203.116 32.4425   6
  -4   3   6 208.807 27.1100   4
  -4   3   5 2541.74 40.6316   6
  -4   3   5 2482.16 35.8038   4
  -4   3   4 194.846 21.4713   4
  -4   3   4 171.936 28.2904   6
  -4   3   3 23.2630 25.8627   6
  -4   3   3 19.0772 17.9948   2
  -4   3   3 27.4414 19.1962   4
  -4   3   3 22.4084 19.1336   3
  -4   3   2 104.250 27.1129   6
  -4   3   2 103.982 24.4783   5
  -4   3   2 94.0719 16.3495   2
  -4   3   2 126.816 20.3995   3
  -4   3   2 119.486 18.3751   4
  -4   3   1 11458.6 64.0765   6
  -4   3   1 10572.6 46.3945   2
  -4   3   1 11271.9 63.8928   5
  -4   3   1 10723.1 45.9241   4
  -4   3   1 11366.2 62.5307   3
  -4   3   0 3058.60 20.7420   1
  -4   3   0 3144.78 25.6860   2
  -4   3   0 3364.38 40.0223   5
  -4   3   0 3176.20 25.0215   4
  -4   3   0 3522.74 43.4146   6
  -4   3   0 3149.38 33.5330   0
  -4   3   0 3312.40 37.3087   3
  -4   3  -1 549.464 29.2510   6
  -4   3  -1 480.671 12.7526   1
  -4   3  -1 472.907 14.5986   2
  -4   3  -1 501.979 25.9026   5
  -4   3  -1 458.833 14.2805   4
  -4   3  -1 481.932 20.9468   0
  -4   3  -1 548.020 24.1039   3
  -4   3  -2 47.9913 21.9906   3
  -4   3  -2 41.9807 22.7844   5
  -4   3  -2 51.7370 26.1019   6
  -4   3  -2 39.5691 11.5425   4
  -4   3  -2 50.1243 11.7498   2
  -4   3  -2 68.4268 18.9440   0
  -4   3  -2 67.6131 11.9110   1
  -4   3  -3 5357.91 29.4273   2
  -4   3  -3 5591.59 38.4886   1
  -4   3  -3 5587.82 46.3850   5
  -4   3  -3 5771.36 45.1066   0
   4  -3   3 5993.21 47.4757   0
  -4   3  -3 5746.65 49.0912   3
  -4   3  -4 83.7635 22.9449   5
  -4   3  -4 78.3585 23.2901   3
   4  -3   4 87.7070 20.0680   0
  -4   3  -4 85.4976 13.2931   2
  -4   3  -4 74.4657 16.2292   1
  -4   3  -5 204.932 14.8038   2
   4  -3   5 203.425 21.4457   0
  -4   3  -5 198.900 23.1658   3
  -4   3  -5 207.941 23.0896   5
  -4   3  -5 187.534 19.8303   1
  -4   3  -6 17.1449 21.8727   3
  -4   3  -6-12.5534 21.7582   5
  -4   3  -6-10.5959 15.5292   2
  -4   3  -6 0.00000 20.2692   1
   4  -3   6 16.0201 20.2999   0
  -4   3  -7 1614.50 31.4908   1
   4  -3   7 1577.93 33.4152   0
  -4   3  -7 1551.59 30.6674   5
  -4   3  -7 1507.99 24.0913   2
  -4   3  -7 1607.79 32.4869   3
  -4   3  -8 666.408 29.2956   1
  -4   3  -8 686.246 25.4025   5
  -4   3  -8 625.456 21.7758   2
  -4   3  -8 644.427 27.0479   3
  -4   3  -9-11.5751 21.7372   3
  -4   3  -9 37.2140 21.9788   5
   4  -3   9-13.5899 18.7408   4
  -4   3  -9 18.5463 24.2679   1
  -4   3 -10 314.367 31.6575   1
  -4   3 -10 275.657 23.9971   5
   4  -3  10 266.940 22.3481   4
  -4   3 -10 254.256 24.5370   3
  -4   3 -11 757.771 36.6613   1
  -4   3 -11 714.997 28.0110   3
  -4   3 -12 25.7564 22.7807   3
  -4   3 -12 22.6595 32.5537   1
  -4   3 -13 79.6611 23.4910   3
  -4   3 -13 76.6145 32.9493   1
  -4   3 -14 269.438 36.5320   1
  -4   3 -15 71.0271 34.5922   1
  -4   3 -16 11.8394 34.8742   1
  -4   3 -17 96.8616 37.8499   1
  -4   3 -18 12.9688 39.8303   1
  -4   3 -19-36.8230 38.1568   1
  -4   3 -20 101.014 38.7498   1
  -4   3 -21-40.0824 37.9453   1
  -4   2  20 101.991 50.0328   4
  -4   2  19-3.39956 46.5020   4
  -4   2  18 53.9806 45.3500   4
  -4   2  17 62.3624 44.6354   4
  -4   2  16-15.8073 43.7066   4
  -4   2  15 25.4269 41.2817   4
  -4   2  14 45.5337 41.9846   4
  -4   2  13 205.137 41.7838   4
  -4   2  12 1226.42 46.4870   4
  -4   2  11-26.8963 34.4102   4
  -4   2  10 353.749 34.2170   4
  -4   2   9 35.3622 28.8535   4
  -4   2   8 1525.90 37.5106   4
  -4   2   7 389.698 32.5053   6
  -4   2   7 377.450 26.9753   4
  -4   2   6 902.183 34.2791   6
  -4   2   6 999.174 29.7352   2
  -4   2   6 922.317 28.6263   4
  -4   2   5 35.7356 26.9287   6
  -4   2   5 48.9863 22.0563   2
  -4   2   5 31.6563 21.0885   4
  -4   2   5 57.5322 16.6502   3
  -4   2   4 151.320 26.5315   6
  -4   2   4 130.124 20.4689   2
  -4   2   4 131.552 19.4978   4
  -4   2   4 166.401 18.0488   3
  -4   2   3 635.097 28.2373   6
  -4   2   3 685.627 22.3351   2
  -4   2   3 637.273 20.2265   4
  -4   2   3 612.477 21.5305   3
  -4   2   2 186.086 17.9885   2
  -4   2   2 183.611 24.6781   6
  -4   2   2 209.740 15.1566   4
  -4   2   2 195.626 19.4710   3
  -4   2   1 158.760 27.0326   6
  -4   2   1 215.220 23.5853   5
  -4   2   1 188.256 13.3799   4
  -4   2   1 179.706 19.9312   3
  -4   2   1 159.767 16.8577   2
  -4   2   0 1682.93 17.8751   1
  -4   2   0 1729.17 30.8705   5
  -4   2   0 1611.19 22.7582   2
  -4   2   0 1634.40 16.1237   4
  -4   2   0 1672.29 34.3302   6
  -4   2   0 1737.66 28.9344   0
  -4   2   0 1737.42 29.6185   3
  -4   2  -1 660.343 22.9953   0
  -4   2  -1 696.255 27.5559   6
  -4   2  -1 705.972 25.4222   5
  -4   2  -1 677.004 15.4807   1
  -4   2  -1 602.767 17.5787   2
  -4   2  -1 673.414 24.3093   3
  -4   2  -2 3601.16 41.1779   6
  -4   2  -2 3497.43 28.3810   2
  -4   2  -2 3661.20 30.3803   1
  -4   2  -2 3681.10 37.7809   5
  -4   2  -2 3602.71 37.9142   0
  -4   2  -2 3683.09 39.7387   3
  -4   2  -3 1147.22 22.6745   1
  -4   2  -3 1095.91 26.8348   5
  -4   2  -3 1100.75 20.9458   2
  -4   2  -3 1081.87 25.6500   0
   4  -2   3 1238.36 29.1251   0
  -4   2  -3 1144.86 28.3662   3
   4  -2   4 1413.15 30.3664   0
  -4   2  -4 1341.39 22.5611   2
  -4   2  -4 1436.33 26.3578   1
  -4   2  -4 1392.79 29.6376   3
  -4   2  -4 1379.71 27.6440   5
  -4   2  -5 11504.2 57.2658   5
   4  -2   5 12152.5 70.0411   0
   4  -2   5 11357.0 34.9740   4
  -4   2  -5 11681.4 62.8438   1
  -4   2  -5 11149.6 51.6136   2
  -4   2  -5 11554.5 65.6286   3
  -4   2  -6 8.73417 20.1291   5
  -4   2  -6 18.4050 21.0060   3
   4  -2   6 5.75939 20.8816   0
   4  -2   6 22.7100 12.3831   4
  -4   2  -6 19.6506 21.0005   1
  -4   2  -6 8.51981 18.5418   2
   4  -2   7 713.810 28.0642   0
  -4   2  -7 731.174 26.4490   1
  -4   2  -7 711.253 23.7480   2
   4  -2   7 675.918 17.4581   4
  -4   2  -7 690.889 23.0321   5
  -4   2  -7 696.558 27.2610   3
  -4   2  -8-3.69950 21.2339   3
  -4   2  -8 26.6015 18.6934   5
   4  -2   8 0.94602 15.2937   4
  -4   2  -8-19.4854 21.9976   1
  -4   2  -8 18.3188 21.3649   2
  -4   2  -9 5132.80 55.0830   1
  -4   2  -9 4656.19 41.3189   5
   4  -2   9 4831.45 38.6905   4
  -4   2  -9 4839.49 49.0937   3
  -4   2 -10 64.6570 23.3003   3
  -4   2 -10 85.6263 20.7992   5
  -4   2 -10 73.5927 30.2914   1
  -4   2 -11 187.973 30.9824   1
  -4   2 -11 172.960 24.7504   3
  -4   2 -12 47.8399 22.6018   3
  -4   2 -12 52.9519 33.8126   1
  -4   2 -13 368.504 37.5792   1
  -4   2 -13 257.801 24.9094   3
  -4   2 -14 125.163 33.5988   1
  -4   2 -15-34.2580 34.8779   1
  -4   2 -16 47.6623 36.9513   1
  -4   2 -17 592.567 45.4107   1
  -4   2 -18 170.283 42.5474   1
  -4   2 -19 26.5024 38.2680   1
  -4   2 -20 62.0786 37.2379   1
  -4   2 -21-5.03415 37.7023   1
  -4   1  19 229.511 47.6555   4
  -4   1  18-50.4935 44.3203   4
  -4   1  17 79.0989 43.8859   4
  -4   1  16 73.1053 42.1523   4
  -4   1  15 904.241 47.6045   4
  -4   1  13 66.9039 40.2153   4
  -4   1  12 62.8279 37.0326   4
  -4   1  11-0.21026 32.8610   4
  -4   1  10 171.416 31.8773   4
  -4   1   9 195.210 29.1139   4
  -4   1   8 727.405 32.5703   2
  -4   1   8 659.210 30.1055   4
  -4   1   7 2295.57 35.4713   4
  -4   1   7 2329.80 38.7582   2
  -4   1   7 2230.16 40.1314   6
  -4   1   7 2227.45 26.0282   3
  -4   1   6 315.412 28.7518   6
  -4   1   6 307.817 25.5970   2
   4  -1  -6 199.581 8.33628   1
  -4   1   6 281.646 22.8129   4
  -4   1   6 341.390 17.6540   3
  -4   1   5 1302.05 33.6054   6
  -4   1   5 1409.37 30.4264   2
  -4   1   5 1341.43 26.0879   4
  -4   1   5 1333.20 23.2010   3
  -4   1   4 242.547 26.1574   6
  -4   1   4 226.846 22.1975   2
  -4   1   4 250.709 17.8689   4
  -4   1   4 268.682 18.1613   3
  -4   1   3 201.674 20.2008   2
  -4   1   3 194.637 25.8505   6
  -4   1   3 188.942 15.6797   4
  -4   1   3 194.830 17.4264   3
  -4   1   2 5076.14 45.7858   6
  -4   1   2 5339.50 29.1631   4
  -4   1   2 5527.70 41.2773   3
  -4   1   2 5619.39 40.3568   2
  -4   1   1 4955.51 23.7831   4
  -4   1   1 4966.73 45.9145   6
  -4   1   1 4793.06 37.6388   2
  -4   1   1 5068.34 40.8832   3
  -4   1   0 299.999 19.5010   2
  -4   1   0 323.656 22.4993   0
  -4   1   0 369.242 21.4111   3
  -4   1   0 270.485 27.8359   6
  -4   1  -1 2995.77 27.9111   1
  -4   1  -1 2983.52 30.1751   2
  -4   1  -1 3105.08 34.3445   5
  -4   1  -1 2837.73 37.7230   6
  -4   1  -1 3100.73 36.4853   3
  -4   1  -1 2947.55 35.7288   0
  -4   1  -2 7440.04 44.5368   1
  -4   1  -2 7414.26 44.1658   2
  -4   1  -2 7486.13 52.2075   0
  -4   1  -2 7731.73 53.0349   3
  -4   1  -2 7310.74 46.1096   5
  -4   1  -3 768.217 22.3161   1
  -4   1  -3 767.869 26.1808   0
  -4   1  -3 814.052 23.0399   5
  -4   1  -3 745.941 22.6284   2
   4  -1   3 828.646 27.7314   0
  -4   1  -3 831.824 26.2332   3
  -4   1  -4 407.427 21.6850   1
  -4   1  -4 421.886 21.6104   2
  -4   1  -4 397.747 20.3923   5
  -4   1  -4 453.089 24.5054   3
   4  -1   4 400.455 24.1918   0
  -4   1  -5-12.4883 21.5667   3
  -4   1  -5-4.00629 18.8907   1
   4  -1   5 0.69507 9.18901   4
  -4   1  -5-7.64494 16.9060   5
   4  -1   5-11.3104 20.7000   0
  -4   1  -5-22.3748 20.7085   2
   4  -1   6-0.92615 21.8879   0
  -4   1  -6-9.98979 16.7033   5
  -4   1  -6 4.85700 22.5861   1
   4  -1   6-5.32615 11.9155   4
  -4   1  -6-10.2982 22.0703   3
  -4   1  -6 12.7775 20.9425   2
  -4   1  -7 880.527 29.5267   1
  -4   1  -7 841.885 27.5475   2
   4  -1   7 788.583 18.3252   4
  -4   1  -7 845.044 28.4760   3
  -4   1  -7 797.341 21.2312   5
  -4   1  -8 36.8319 22.9322   3
  -4   1  -8 25.4639 16.1262   5
  -4   1  -8 4.95848 26.7799   1
   4  -1   8 29.7622 15.6970   4
  -4   1  -8 46.5928 23.8307   2
  -4   1  -9 434.821 32.1084   1
  -4   1  -9 459.522 28.6842   2
  -4   1  -9 368.809 26.9173   3
  -4   1 -10 1232.20 32.5655   3
  -4   1 -10 1370.94 41.1044   1
  -4   1 -11 12.2259 22.9119   3
  -4   1 -11-35.8359 34.0711   1
  -4   1 -12 12.0286 23.3766   3
  -4   1 -12-9.76130 34.3716   1
  -4   1 -13 277.541 35.0293   1
  -4   1 -13 233.594 25.7531   3
  -4   1 -14 274.532 39.0525   1
  -4   1 -15 38.0278 37.1085   1
  -4   1 -16 177.632 37.0396   1
  -4   1 -17-13.9005 36.4682   1
  -4   1 -18 74.9942 38.6996   1
  -4   1 -19 109.368 37.3437   1
  -4   1 -21-34.4208 41.8912   1
  -4   0  20 73.7243 45.5431   4
  -4   0  18 66.1635 43.9598   4
  -4   0  17-20.4272 41.9914   4
  -4   0  16-20.0111 40.8340   4
  -4   0  15 225.658 42.1989   4
  -4   0  14 220.161 41.7602   4
  -4   0  13 4.02102 38.2192   4
  -4   0  12 938.828 41.4744   4
  -4   0  11 302.083 34.6424   4
  -4   0  10 616.615 36.0096   2
  -4   0  10 586.906 33.6797   4
  -4   0   9 436.850 31.4005   4
  -4   0   9 531.730 33.4684   2
  -4   0   8 240.410 29.7458   2
  -4   0   8 243.516 28.7441   6
  -4   0   8 231.477 26.7904   4
   4   0  -8 246.129 13.9453   1
  -4   0   8 243.111 14.1524   3
  -4   0   7 61.7762 24.1197   6
  -4   0   7 66.8798 26.3025   2
   4   0  -7 30.0225 10.7610   1
  -4   0   7 35.1840 22.4282   4
  -4   0   7 33.2655 13.4840   3
  -4   0   6 48.2164 13.5471   3
   4   0  -6 48.4151 10.6000   1
  -4   0   6 46.6377 24.4313   2
  -4   0   6 33.3921 19.5731   4
  -4   0   6 53.8612 25.2240   6
  -4   0   5 799.745 28.1185   2
  -4   0   5 732.522 28.4473   6
   4   0  -5 758.343 14.5043   1
  -4   0   5 822.510 22.2692   4
  -4   0   5 796.972 19.5750   3
  -4   0   4 2536.26 36.6455   6
  -4   0   4 2632.01 35.5261   2
  -4   0   4 2485.93 26.7557   4
  -4   0   4 2619.16 29.0401   3
  -4   0   3 2132.90 31.5132   2
  -4   0   3 1878.79 32.7555   6
  -4   0   3 2022.64 21.8950   4
  -4   0   3 2164.64 28.0903   3
  -4   0   2-0.61644 17.3433   3
  -4   0   2-4.16555 19.9908   2
  -4   0   2-1.05132 11.0262   4
  -4   0   2-1.76484 22.2679   6
  -4   0   1 486.912 22.3569   2
  -4   0   1 505.662 22.5796   3
  -4   0   1 462.110 27.9633   6
  -4   0   0 55045.6 126.335   6
  -4   0   0 55629.7 116.937   2
  -4   0   0 55533.0 131.219   0
  -4   0  -1 10222.6 54.9223   2
  -4   0  -1 10031.7 57.9500   0
  -4   0  -2 1219.03 24.1669   1
  -4   0  -2 1193.49 27.6969   2
  -4   0  -2 1215.57 29.4896   0
  -4   0  -3 394.168 21.4431   1
  -4   0  -3 347.433 23.9523   0
  -4   0  -3 388.819 18.1463   5
  -4   0  -3 352.963 24.0773   2
   4   0   3 380.430 24.8105   0
  -4   0  -4 3287.60 39.5266   1
  -4   0  -4 3231.65 29.5907   5
  -4   0  -4 3240.25 37.6816   2
   4   0   4 3382.13 42.1197   0
   4   0   5 1709.38 33.3148   0
   4   0   5 1672.35 17.6551   4
  -4   0  -5 1686.72 23.5662   5
  -4   0  -5 1717.71 33.0886   2
  -4   0  -5 1770.53 32.4881   1
  -4   0  -6 6.74517 13.3529   5
   4   0   6 1.28947 20.9307   0
  -4   0  -6 5.48431 23.3282   1
   4   0   6 22.7844 13.0535   4
  -4   0  -6 5.56029 23.5122   2
  -4   0  -7 97.3166 14.0326   5
   4   0   7 123.044 16.0521   4
  -4   0  -7 136.374 26.1920   1
  -4   0  -7 102.079 25.6646   2
  -4   0  -8 3.42888 27.7131   1
  -4   0  -8 26.4207 26.6979   2
  -4   0  -9 226.515 30.7138   2
  -4   0  -9 181.884 28.8073   1
  -4   0 -10 543.247 35.4624   1
  -4   0 -10 541.612 34.3172   2
  -4   0 -11 278.458 34.9227   1
  -4   0 -12 1161.31 43.1241   1
  -4   0 -13-5.50096 32.7815   1
  -4   0 -14 278.124 39.6500   1
  -4   0 -16 1065.57 50.3988   1
  -4   0 -17 561.462 43.5300   1
  -4   0 -18 153.493 37.5062   1
  -4   0 -19 83.5476 37.7107   1
  -4  -1  21-12.6771 46.7704   4
  -4  -1  20 11.5512 45.0699   4
  -4  -1  19 21.4151 42.2322   4
  -4  -1  18 115.235 42.6726   4
  -4  -1  17 41.5709 41.9857   4
  -4  -1  16 308.913 43.8418   4
  -4  -1  15 299.592 44.5063   4
  -4  -1  14 800.962 44.6680   4
  -4  -1  13 148.656 36.8547   4
  -4  -1  12 54.8112 34.4019   4
  -4  -1  11 75.9245 35.2897   2
  -4  -1  11 77.3820 30.3791   4
  -4  -1  10 249.997 32.8212   2
  -4  -1  10 220.232 30.6860   4
   4   1  -9 727.292 20.0585   1
  -4  -1   9 813.399 31.3169   6
  -4  -1   9 803.670 35.7419   2
  -4  -1   9 749.766 31.2807   4
  -4  -1   8 445.995 31.0457   2
   4   1  -8 406.814 16.6199   1
  -4  -1   8 361.744 26.0808   4
  -4  -1   8 398.201 14.5678   3
  -4  -1   8 449.257 26.1369   6
  -4  -1   7 3069.12 38.7689   6
   4   1  -7 3106.07 29.1900   1
  -4  -1   7 3065.95 36.2981   4
  -4  -1   7 3315.09 43.6124   2
  -4  -1   7 3054.64 27.9380   3
  -4  -1   6 96.3922 22.1218   6
  -4  -1   6 72.0222 13.7290   3
  -4  -1   6 61.5628 25.2948   2
   4   1  -6 74.5788 13.8036   1
  -4  -1   6 88.0811 19.8287   4
  -4  -1   5 1095.14 29.1172   6
   4   1  -5 1167.48 20.5349   1
  -4  -1   5 1095.71 23.0530   4
  -4  -1   5 1131.87 21.7826   3
  -4  -1   5 1167.79 31.3251   2
  -4  -1   4 369.617 25.2462   2
  -4  -1   4 341.043 23.8549   6
  -4  -1   3 946.034 29.1514   6
  -4  -1   3 990.263 28.6105   2
  -4  -1   2 3756.78 39.6199   2
  -4  -1   2 3644.73 37.9859   6
  -4  -1   1 1848.08 31.9689   2
  -4  -1   1 1703.32 31.3342   6
  -4  -1   0 177.250 24.1925   0
  -4  -1   0 176.629 25.8620   2
  -4  -1  -1 28971.5 94.5515   2
  -4  -1  -1 29110.6 98.0243   0
  -4  -1  -2 3692.39 42.1443   2
  -4  -1  -2 3784.27 41.4634   0
  -4  -1  -3 41.1342 19.3985   1
   4   1   3 36.9684 9.72118   4
  -4  -1  -3 31.0140 21.7867   0
  -4  -1  -3 15.7541 25.5677   2
  -4  -1  -4 15.2565 19.8966   1
   4   1   4 37.8580 11.5327   4
  -4  -1  -4 5.93057 25.9026   2
   4   1   4 25.2618 23.4080   0
  -4  -1  -5 91.5113 24.1248   1
   4   1   5 89.2186 14.3117   4
  -4  -1  -5 80.8464 26.8545   2
   4   1   5 83.5519 23.0571   0
  -4  -1  -6 13.2490 24.9992   1
   4   1   6 4.57653 15.4075   4
  -4  -1  -6 28.5587 27.2923   2
  -4  -1  -7 439.955 31.4277   1
  -4  -1  -7 487.206 31.4093   2
   4   1   7 459.348 19.8166   4
  -4  -1  -8 109.737 29.1319   1
  -4  -1  -8 136.470 30.7610   2
  -4  -1  -9 317.286 34.3157   1
  -4  -1  -9 371.906 34.7678   2
  -4  -1 -10 464.635 35.3029   1
  -4  -1 -10 481.884 36.8414   2
  -4  -1 -11 347.070 35.7769   1
  -4  -1 -11 486.029 39.5561   2
  -4  -1 -12 123.933 35.7183   1
  -4  -1 -13 130.148 36.5241   1
  -4  -1 -14 11.3243 35.2077   1
  -4  -1 -15 219.958 42.2147   1
  -4  -1 -16 149.926 40.1839   1
  -4  -1 -17 47.4338 38.7946   1
  -4  -1 -18 83.0091 35.1460   1
  -4  -1 -19-26.2754 39.7145   1
  -4  -2  21 34.7106 41.2882   4
  -4  -2  19 80.1978 42.4259   4
  -4  -2  18 44.4749 43.7550   4
  -4  -2  17 40.2311 41.9296   4
  -4  -2  16 863.289 48.0873   4
  -4  -2  15 799.780 47.1481   4
  -4  -2  14 1203.72 47.0063   4
  -4  -2  13 48.8466 39.1029   2
  -4  -2  13 42.4065 34.9261   4
  -4  -2  12 117.409 37.8520   2
  -4  -2  12 67.6681 32.7325   4
  -4  -2  11-5.96329 35.2108   2
   4   2 -11-6.52990 18.6993   1
  -4  -2  11-10.6119 29.5960   4
   4   2 -10 1092.19 26.2745   1
  -4  -2  10 1334.09 41.0683   2
  -4  -2  10 1213.92 35.8370   4
  -4  -2   9 758.381 35.4149   2
   4   2  -9 655.464 22.3677   1
  -4  -2   9 659.556 29.3849   4
  -4  -2   9 727.698 28.5059   6
  -4  -2   8 6.86824 12.0235   3
   4   2  -8 37.5348 16.3511   1
  -4  -2   8 32.0535 22.9355   6
  -4  -2   8 25.2005 27.9412   2
  -4  -2   7 286.855 28.8389   2
  -4  -2   7 270.248 22.7703   6
   4   2  -7 274.850 17.8920   1
  -4  -2   6 1257.61 28.8772   6
  -4  -2   6 1396.56 35.5140   2
   4   2  -6 1330.76 24.3640   1
  -4  -2   5 1083.84 26.7195   6
  -4  -2   5 1164.07 32.7370   2
  -4  -2   4 189.721 26.3584   2
  -4  -2   4 176.578 22.4648   6
  -4  -2   3 931.612 25.9970   6
  -4  -2   3 921.785 30.1351   2
  -4  -2   2 3155.16 40.8279   2
  -4  -2   2 2996.50 34.7499   6
  -4  -2   1 809.192 29.4908   2
  -4  -2   0 3098.41 41.4534   2
  -4  -2   0 3061.23 39.7475   0
  -4  -2  -1 7763.08 53.7629   0
  -4  -2  -1 7865.93 57.2968   2
   4   2   1 7710.02 34.9171   4
  -4  -2  -2 1085.64 33.8744   2
   4   2   2 923.476 18.0470   4
  -4  -2  -2 1007.98 29.2270   0
  -4  -2  -3 788.422 28.0056   0
  -4  -2  -3 835.721 32.0424   2
   4   2   3 828.403 17.5571   4
   4   2   4 231.341 15.7004   4
   4   2   4 241.617 24.6592   0
  -4  -2  -4 233.225 29.7846   2
  -4  -2  -5 26.0740 25.0465   1
   4   2   5 6.49722 22.1744   0
   4   2   5 5.02853 15.9322   4
  -4  -2  -5 1.82422 29.5021   2
  -4  -2  -6 148.589 28.3645   1
   4   2   6 129.288 18.9971   4
  -4  -2  -6 158.419 31.6558   2
  -4  -2  -7 227.584 28.7122   1
  -4  -2  -7 190.169 33.8608   2
  -4  -2  -8 45.9993 31.0303   1
  -4  -2  -8 146.930 35.1048   2
  -4  -2  -9 18.4348 36.1705   2
  -4  -2 -10-5.71830 32.8173   1
  -4  -2 -10-16.3149 37.7556   2
  -4  -2 -11 87.0747 35.1549   1
  -4  -2 -11 111.187 39.9147   2
  -4  -2 -12 591.945 43.2770   1
  -4  -2 -12 565.364 44.9864   2
  -4  -2 -13 448.572 41.7966   1
  -4  -2 -13 495.602 44.6534   2
  -4  -2 -14 290.634 44.4409   2
  -4  -2 -14 253.790 41.7253   1
  -4  -2 -15 133.779 38.5845   1
  -4  -2 -16 159.144 38.2985   1
  -4  -2 -17-18.6772 37.9327   1
  -4  -3  22-18.3962 45.5896   4
  -4  -3  21-20.1734 42.7493   4
  -4  -3  20 2.94435 42.2482   4
  -4  -3  18 54.1531 40.8843   4
  -4  -3  17 522.619 45.6572   4
  -4  -3  16 370.300 44.1563   4
  -4  -3  15 926.681 47.3128   4
  -4  -3  14 104.276 40.6600   2
  -4  -3  14 84.7470 39.3119   4
  -4  -3  13 159.824 39.1474   2
  -4  -3  13 160.554 35.7940   4
  -4  -3  12 1.46674 36.9981   2
   4   3 -12-16.1421 21.2725   1
  -4  -3  12-33.0815 31.3444   4
   4   3 -11 495.009 25.6561   1
  -4  -3  11 640.191 40.4684   2
  -4  -3  10 413.037 25.9450   6
  -4  -3  10 427.150 36.4319   2
   4   3 -10 368.485 23.4018   1
  -4  -3   9 243.761 33.4209   2
   4   3  -9 214.433 21.3925   1
  -4  -3   9 224.600 24.1101   6
  -4  -3   8 14.3127 29.8021   2
   4   3  -8 7.30409 18.2994   1
  -4  -3   8 23.8673 20.4493   6
  -4  -3   7 79.7361 29.4778   2
  -4  -3   7 65.8115 19.8530   6
   4   3  -7 54.8938 18.8182   1
  -4  -3   6 302.370 21.2725   6
  -4  -3   6 334.387 29.4135   2
   4   3  -6 294.780 20.5626   1
  -4  -3   5 206.989 20.3512   6
  -4  -3   5 254.655 28.3138   2
  -4  -3   4 1330.72 27.4383   6
  -4  -3   4 1609.59 35.7420   2
  -4  -3   3 717.088 30.9317   2
  -4  -3   3 646.284 23.4566   6
  -4  -3   2 232.279 27.8519   2
  -4  -3   1-11.6304 28.2729   2
  -4  -3   0 6238.83 51.6373   0
  -4  -3   0 6537.65 57.1629   2
  -4  -3  -1 10398.6 68.5169   2
   4   3   1 10023.6 46.9534   4
  -4  -3  -1 9929.75 60.9430   0
  -4  -3  -2 1465.19 37.7500   2
   4   3   2 1445.97 23.6477   4
  -4  -3  -2 1340.79 31.4579   0
   4   3   3 96.1496 18.1470   4
  -4  -3  -3 76.4020 22.2079   0
  -4  -3  -3 58.5289 30.5721   2
   4   3   4 23.9815 17.2628   4
  -4  -3  -4-27.8170 32.3909   2
   4   3   5 8.19101 18.6165   4
  -4  -3  -5-13.7794 33.7421   2
  -4  -3  -6 443.929 37.9832   2
  -4  -3  -7-3.10519 36.4925   2
  -4  -3  -8 112.282 31.5859   1
  -4  -3  -8 140.645 38.3126   2
  -4  -3  -9 98.5634 33.5258   1
  -4  -3  -9 88.8939 39.7073   2
  -4  -3 -10 201.259 34.1275   1
  -4  -3 -10 253.290 42.4462   2
  -4  -3 -11 143.379 37.6957   1
  -4  -3 -11 121.464 43.1781   2
  -4  -3 -12 618.755 40.6659   1
  -4  -3 -12 559.677 46.2875   2
  -4  -3 -13 327.616 39.0085   1
  -4  -3 -13 377.653 46.6552   2
  -4  -3 -14 75.9731 35.7745   1
  -4  -3 -14 79.5485 44.8315   2
  -4  -3 -15 32.7295 36.0499   1
  -4  -3 -15 59.5142 45.5954   2
  -4  -3 -16 57.1036 47.3783   2
  -4  -3 -16 62.8049 37.8866   1
  -4  -3 -17 120.389 49.3143   2
  -4  -3 -17 85.4961 39.4477   1
  -4  -3 -18 82.3063 50.4997   2
  -4  -3 -18-10.8991 34.7631   1
  -4  -4  22 92.2441 46.2001   4
  -4  -4  20 7.89814 42.1052   4
  -4  -4  19 38.0438 43.4544   4
  -4  -4  18-0.09266 41.8617   4
  -4  -4  17 543.702 45.4054   4
  -4  -4  16 365.233 43.4431   2
  -4  -4  16 277.969 44.6403   4
  -4  -4  15 1007.25 47.5663   2
  -4  -4  15 934.844 47.3433   4
  -4  -4  14 46.4276 37.6563   2
   4   4 -14 22.8754 27.0479   1
  -4  -4  14-5.70939 37.5803   4
  -4  -4  13 77.1824 37.6588   2
   4   4 -13 44.6358 25.9069   1
  -4  -4  12 187.830 25.0555   6
  -4  -4  12 184.408 37.8055   2
   4   4 -12 116.644 25.7667   1
   4   4 -11 17.4232 23.7742   1
  -4  -4  11 39.9464 22.4795   6
  -4  -4  11 31.4326 35.9393   2
   4   4 -10-1.90246 22.8200   1
  -4  -4  10-4.65011 20.6540   6
  -4  -4  10 16.4518 34.2383   2
  -4  -4   9 919.674 25.7777   6
   4   4  -9 947.059 30.3818   1
  -4  -4   9 1083.10 39.5774   2
  -4  -4   8-2.72031 32.1404   2
  -4  -4   8-7.89988 18.9749   6
   4   4  -8 2.95709 21.3423   1
   4   4  -7 32.3080 21.9441   1
  -4  -4   7 2.97465 17.8973   6
  -4  -4   7 13.5549 30.3443   2
  -4  -4   6 11.8622 17.6016   6
  -4  -4   6-7.18658 29.2983   2
  -4  -4   5 298.855 19.5063   6
  -4  -4   5 325.143 30.0964   2
  -4  -4   4 237.948 18.0460   6
  -4  -4   4 239.617 29.7886   2
  -4  -4   3 1890.06 39.9110   2
  -4  -4   2 324.515 31.4723   2
  -4  -4   1 1504.13 39.6180   2
   4   4   0 226.992 20.7947   4
  -4  -4   0 282.809 32.4336   2
  -4  -4   0 234.686 23.3050   0
  -4  -4  -1 280.275 31.9200   2
   4   4   1 272.831 20.6001   4
  -4  -4  -1 210.118 22.6053   0
   4   4   2 89.0016 20.0279   4
  -4  -4  -2 103.098 20.4063   0
  -4  -4  -2 115.203 31.7908   2
  -4  -4  -3 117.946 21.2419   0
   4   4   3 82.6134 19.8397   4
  -4  -4  -3 83.3504 33.7340   2
   4   4   4 83.8980 21.0516   4
  -4  -4  -4 27.2055 35.9282   2
   4   4   5 145.184 23.1322   4
  -4  -4  -5 146.143 38.2608   2
  -4  -4  -6 181.043 39.8583   2
  -4  -4  -7 173.473 40.6960   2
  -4  -4  -8-1.78693 40.8633   2
  -4  -4  -9-9.46795 41.9918   2
  -4  -4 -10 28.9078 42.7665   2
  -4  -4 -11 184.395 43.6512   2
  -4  -4 -12 277.017 46.4564   2
  -4  -4 -13 113.232 46.7459   2
  -4  -4 -14 694.708 50.9380   2
  -4  -4 -15 108.223 46.5966   2
  -4  -4 -16 205.169 50.3635   2
  -4  -4 -17 77.8597 50.1309   2
  -4  -5  22 58.8450 44.3604   4
  -4  -5  21 13.3943 44.1624   4
  -4  -5  20 13.2770 42.2148   4
  -4  -5  19 74.9207 42.4511   4
  -4  -5  18 23.4830 42.2639   4
  -4  -5  17 296.241 40.4304   2
  -4  -5  17 225.288 41.9316   4
  -4  -5  16 1021.00 47.0340   2
  -4  -5  16 923.981 46.1641   4
  -4  -5  15 228.053 39.0194   2
   4   5 -15 173.998 29.5611   1
   4   5 -14 11.3049 26.8874   1
  -4  -5  14 74.3403 39.1633   2
  -4  -5  13 373.639 41.0190   2
   4   5 -13 298.122 30.5962   1
   4   5 -12 51.8160 27.1529   1
  -4  -5  12 72.0990 36.8576   2
  -4  -5  11 117.024 35.7788   2
   4   5 -11 59.1928 27.1854   1
   4   5 -10-15.4136 24.5292   1
  -4  -5  10 17.0698 18.2756   6
  -4  -5  10 11.0049 34.2969   2
  -4  -5   9 1523.74 27.9412   6
  -4  -5   9 1784.36 45.5772   2
   4   5  -9 1587.57 37.6565   1
  -4  -5   8 2082.12 28.3566   6
  -4  -5   8 2403.25 46.8998   2
   4   5  -8 2159.23 39.6071   1
   4   5  -7 68.9929 23.8974   1
  -4  -5   7 84.3515 17.2873   6
  -4  -5   7 70.3113 33.0505   2
  -4  -5   6 9.79290 16.0547   6
  -4  -5   6-6.03654 30.0058   2
  -4  -5   5 139.729 17.0620   6
  -4  -5   5 163.741 31.2654   2
  -4  -5   4 481.594 34.3706   2
  -4  -5   3 145.223 31.3948   2
  -4  -5   2 43.9636 31.4828   2
   4   5  -1-13.4901 22.0848   4
  -4  -5   1-17.5187 19.8271   0
  -4  -5   1 5.65366 32.0377   2
  -4  -5   0 48.5566 20.9541   0
   4   5   0 37.7624 22.3332   4
  -4  -5   0 51.6462 32.8631   2
  -4  -5  -1 156.389 22.6047   0
   4   5   1 154.513 23.8194   4
  -4  -5  -1 228.806 35.2675   2
  -4  -5  -2 7.89601 20.3970   0
   4   5   2 8.78829 22.7893   4
  -4  -5  -2 40.1088 34.6444   2
  -4  -5  -3 364.903 38.7331   2
   4   5   3 252.180 25.6793   4
   4   5   4 58.9000 24.8749   4
  -4  -5  -4-10.6172 39.1500   2
  -4  -5  -5 6.42847 40.8183   2
  -4  -5  -6 69.8698 42.5814   2
  -4  -5  -7 113.170 43.5698   2
  -4  -5  -8 676.778 46.8403   2
  -4  -5  -9-6.91074 43.7213   2
  -4  -5 -10 18.1673 42.9745   2
  -4  -5 -11 135.825 46.2503   2
  -4  -5 -12 270.540 48.8245   2
  -4  -5 -13 314.713 48.8552   2
  -4  -5 -14 643.945 52.3768   2
  -4  -5 -15 90.7883 48.2943   2
  -4  -5 -16 82.7402 51.5798   2
  -4  -6  22-9.05441 43.0901   4
  -4  -6  21 73.3182 43.2319   4
  -4  -6  20-7.38362 40.4354   4
  -4  -6  19-21.2312 41.5209   4
  -4  -6  18 39.8651 37.0072   2
  -4  -6  18 55.6892 41.7739   4
  -4  -6  17 23.6480 38.0502   2
   4   6 -16 242.470 33.4146   1
  -4  -6  16 337.249 40.2007   2
  -4  -6  15-17.9675 38.7637   2
   4   6 -15-26.8200 30.4259   1
  -4  -6  14 191.817 39.3944   2
   4   6 -14 160.623 31.6288   1
   4   6 -13 240.840 30.5107   1
  -4  -6  13 183.435 39.2424   2
   4   6 -12-9.18575 29.9712   1
  -4  -6  12 18.0080 36.8220   2
  -4  -6  11 104.116 35.9028   2
   4   6 -11 99.1350 30.4919   1
  -4  -6  10 8.19373 34.7843   2
   4   6 -10-10.1534 28.4333   1
  -4  -6   9 31.7745 34.9421   2
   4   6  -9 45.0452 29.1965   1
  -4  -6   8 581.247 36.7254   2
   4   6  -8 470.484 32.3111   1
   4   6  -7 555.766 33.3027   1
  -4  -6   7 603.172 36.8766   2
  -4  -6   6-8.97986 31.8676   2
  -4  -6   5 72.4563 32.3442   2
  -4  -6   4 138.418 33.5744   2
  -4  -6   3 185.634 34.1217   2
  -4  -6   2 221.857 36.0079   2
   4   6  -1 104.808 25.8340   4
  -4  -6   1 129.050 36.3624   2
  -4  -6   1 103.123 22.0317   0
  -4  -6   0 66.4446 21.2595   0
   4   6   0 60.4737 25.4878   4
  -4  -6   0 92.6832 36.7539   2
  -4  -6  -1 740.092 42.3265   2
  -4  -6  -1 558.061 25.8365   0
   4   6   1 570.750 29.3353   4
  -4  -6  -2 576.908 25.5258   0
  -4  -6  -2 675.782 41.9703   2
   4   6   2 521.948 29.7117   4
   4   6   3 34.9891 27.2001   4
  -4  -6  -3 76.2909 39.8313   2
   4   6   4 6.77507 27.1325   4
  -4  -6  -4 16.7818 41.7862   2
  -4  -6  -5 81.1437 44.2488   2
  -4  -6  -6 1426.54 54.2915   2
  -4  -6  -7 528.424 47.9747   2
  -4  -6  -8-23.0842 42.5884   2
  -4  -6  -9 112.547 46.3905   2
  -4  -6 -10-10.0245 44.8845   2
  -4  -6 -11 152.603 47.3290   2
  -4  -6 -12 94.2089 47.9404   2
  -4  -6 -13 162.522 49.1683   2
  -4  -6 -14 388.095 53.5068   2
  -4  -6 -15-54.2636 49.4709   2
  -4  -7  22 95.2338 43.2403   4
  -4  -7  21 54.6301 44.1653   4
  -4  -7  20 18.5846 41.8916   4
  -4  -7  19 43.5184 37.7541   2
  -4  -7  18 23.5169 37.7882   2
   4   7 -17-40.7325 32.6736   1
  -4  -7  17-11.2169 35.7436   2
  -4  -7  16 51.9363 37.1286   2
   4   7 -16-15.7411 31.2470   1
  -4  -7  15 123.726 39.2346   2
   4   7 -15 94.0688 32.4858   1
  -4  -7  14 208.587 41.9884   2
   4   7 -14 216.806 34.7558   1
  -4  -7  13 260.590 38.9087   2
   4   7 -13 239.827 34.9412   1
   4   7 -12 29.2457 31.5935   1
  -4  -7  12-11.6844 36.3337   2
   4   7 -11 74.7730 32.7285   1
  -4  -7  11 77.6248 36.6334   2
  -4  -7  10 591.356 40.6797   2
   4   7 -10 440.657 34.7532   1
  -4  -7   9 321.947 37.6121   2
   4   7  -9 221.811 33.4104   1
   4   7  -8 127.463 31.1959   1
  -4  -7   8 132.200 34.3724   2
   4   7  -7-20.2493 32.2378   1
  -4  -7   7 1.19960 33.7672   2
  -4  -7   6 40.0005 33.8143   2
  -4  -7   5-4.74769 34.5229   2
  -4  -7   4 22.3270 33.6395   2
  -4  -7   3 400.023 38.4859   2
   4   7  -2 67.3627 29.6723   4
  -4  -7   2 38.2218 37.5497   2
  -4  -7   1-11.8358 21.5975   0
   4   7  -1 13.5619 29.3746   4
  -4  -7   1-0.78929 37.3710   2
   4   7   0 5.53523 30.4563   4
  -4  -7   0 28.5519 38.8462   2
  -4  -7   0 22.2962 21.4266   0
   4   7   1 85.6100 29.1639   4
  -4  -7  -1 165.890 39.9500   2
  -4  -7  -2 416.107 42.3841   2
   4   7   2 322.495 32.3508   4
   4   7   3 54.2849 31.5554   4
  -4  -7  -3 116.996 41.5296   2
  -4  -7  -4 95.7823 44.5552   2
  -4  -7  -5-44.3688 43.6211   2
  -4  -7  -6 139.387 44.0020   2
  -4  -7  -7-12.7909 45.0289   2
  -4  -7  -8 15.1729 45.9816   2
  -4  -7  -9-36.2183 45.0501   2
  -4  -7 -10-14.0710 46.5123   2
  -4  -7 -11 20.3142 47.9257   2
  -4  -7 -12 159.114 50.9700   2
  -4  -7 -13-9.43795 49.2751   2
  -4  -7 -14-18.3485 49.8330   2
  -4  -8  22 45.1088 43.5958   4
  -4  -8  21 228.898 47.1205   4
  -4  -8  20 199.004 39.6120   2
   4   8 -17 6.50134 31.1189   1
  -4  -8  17 22.2684 37.7929   2
  -4  -8  16 98.7366 37.5457   2
   4   8 -16-19.7635 32.9780   1
  -4  -8  15 94.9111 39.7220   2
   4   8 -15 21.8227 35.0642   1
  -4  -8  14 197.814 38.8852   2
   4   8 -14 153.464 35.1225   1
  -4  -8  13-13.5836 37.7111   2
   4   8 -13 68.4114 33.9200   1
   4   8 -12 11.7802 34.0494   1
  -4  -8  12 16.0054 39.6124   2
  -4  -8  11 11.6596 37.7528   2
   4   8 -11 3.92052 35.1321   1
  -4  -8  10 118.278 37.3707   2
   4   8 -10 84.6984 35.6440   1
   4   8  -9 36.2252 32.9177   1
  -4  -8   9 6.37411 35.9386   2
  -4  -8   8 374.266 37.8879   2
   4   8  -8 324.723 36.0907   1
  -4  -8   7 12.3742 35.5428   2
  -4  -8   6 7.68333 35.0964   2
  -4  -8   5 43.9756 36.3557   2
  -4  -8   4 146.399 37.4947   2
  -4  -8   3 238.055 40.5445   2
  -4  -8   2 908.387 45.0287   2
   4   8  -2 948.808 39.6912   4
   4   8  -1 41.9636 31.4670   4
  -4  -8   1 27.4709 38.6035   2
   4   8   0 101.653 33.4341   4
  -4  -8   0 245.361 40.1823   2
   4   8   1-59.2504 31.7193   4
  -4  -8  -1 10.0383 41.0532   2
   4   8   2 16.3753 31.7265   4
  -4  -8  -2 51.3344 43.2469   2
  -4  -8  -3-53.1012 41.2937   2
  -4  -8  -4-21.1644 41.8743   2
  -4  -8  -5 217.819 46.6174   2
  -4  -8  -6-43.2990 46.4555   2
  -4  -8  -7 11.9132 46.4093   2
  -4  -8  -9 149.134 50.3158   2
  -4  -8 -10 41.9027 49.7716   2
  -4  -8 -11-14.0601 49.6750   2
  -4  -8 -12 54.1283 50.9438   2
   4   9 -19-32.4021 33.9748   1
   4   9 -18-1.06455 36.7308   1
  -4  -9  17 82.2216 37.8138   2
   4   9 -17 9.35663 34.6690   1
  -4  -9  16 43.1185 39.9834   2
   4   9 -16-11.8030 35.7960   1
  -4  -9  15 960.070 46.5245   2
   4   9 -15 853.913 42.9125   1
   4   9 -14 124.273 38.9282   1
  -4  -9  14 208.427 39.2850   2
   4   9 -13 143.484 37.1820   1
  -4  -9  13 264.310 39.3194   2
   4   9 -12 88.8665 35.3037   1
  -4  -9  12 47.9627 37.9981   2
  -4  -9  11 20.3634 37.1667   2
   4   9 -11 53.1769 34.0221   1
  -4  -9  10 136.123 38.0513   2
   4   9 -10 89.0096 35.2968   1
   4   9  -9-18.2675 37.7810   1
  -4  -9   9 34.9616 35.4094   2
   4   9  -8-42.9066 39.7069   1
  -4  -9   8 35.7039 36.3516   2
  -4  -9   7 260.224 37.9988   2
  -4  -9   6 329.351 39.4507   2
  -4  -9   5 152.986 38.6646   2
  -4  -9   4-3.43321 37.3405   2
  -4  -9   3 642.524 43.7655   2
  -4  -9   2 479.799 44.2884   2
   4   9  -2 535.561 39.8811   4
   4   9  -1 211.292 36.2854   4
  -4  -9   1 244.667 43.4817   2
   4   9   0-24.8068 32.9706   4
  -4  -9   0 13.8688 40.1959   2
  -4  -9  -1 17.7825 40.9312   2
   4   9   2 46.9991 34.7387   4
  -4  -9  -2 43.3408 42.0267   2
  -4  -9  -3 31.5418 41.5842   2
  -4  -9  -4 56.3087 41.1600   2
  -4  -9  -5-29.6414 42.7299   2
  -4  -9  -6 107.994 46.6463   2
  -4  -9  -8 87.5196 49.0576   2
  -4  -9  -9-54.8205 49.1298   2
  -4  -9 -10-7.90088 50.1946   2
  -4  -9 -11 155.277 52.8724   2
  -4 -10  20 4.27593 37.0142   2
   4  10 -20 37.5883 39.5222   1
   4  10 -19 114.020 38.6759   1
  -4 -10  18 10.1712 34.9357   2
   4  10 -18 98.6804 36.7531   1
  -4 -10  17-6.41879 38.7457   2
   4  10 -17 96.6469 36.3086   1
  -4 -10  16-14.4272 39.1096   2
   4  10 -16 71.4770 37.6078   1
   4  10 -15 401.644 39.7242   1
  -4 -10  15 248.817 41.5096   2
   4  10 -14 198.306 41.6595   1
  -4 -10  14-17.1157 39.6113   2
   4  10 -13 198.631 38.4148   1
  -4 -10  13 142.520 40.1752   2
   4  10 -12 821.546 46.9353   1
  -4 -10  12 963.861 46.8091   2
  -4 -10  11 23.0709 37.6795   2
   4  10 -11-34.6686 35.7064   1
  -4 -10  10-5.30085 35.6533   2
   4  10 -10-29.2747 38.6646   1
  -4 -10   9-9.91237 36.1332   2
   4  10  -8-46.1086 42.0912   1
  -4 -10   8 11.6453 35.5508   2
  -4 -10   7 55.7528 37.1405   2
  -4 -10   6 26.4993 37.4799   2
  -4 -10   5 428.786 40.3321   2
  -4 -10   4-29.4064 37.6504   2
  -4 -10   3 602.798 45.3065   2
   4  10  -3 636.385 41.3089   4
   4  10  -2 63.9132 35.8261   4
  -4 -10   2 2.43279 39.3040   2
   4  10  -1 54.8535 34.1806   4
  -4 -10   1-30.0779 44.0262   2
   4  10   0 167.507 37.0956   4
  -4 -10   0 86.3951 41.4870   2
   4  10   1 69.2463 38.0503   4
  -4 -10  -1-22.3033 39.9746   2
  -4 -10  -2 19.3024 43.1445   2
  -4 -10  -3 97.5061 43.4175   2
  -4 -10  -4 551.578 49.0046   2
  -4 -10  -5 141.616 44.8855   2
  -4 -10  -6 61.7121 45.0879   2
  -4 -10  -7 88.7631 49.2194   2
  -4 -10  -8 162.416 50.3799   2
  -4 -10  -9-32.7615 49.7991   2
  -4 -11  21 57.6168 36.6464   2
   4  11 -21 35.1527 40.2598   1
  -4 -11  20 26.0334 36.1180   2
   4  11 -20-54.8089 40.3103   1
  -4 -11  19 33.6751 35.7301   2
   4  11 -19-48.2878 39.2633   1
  -4 -11  18 237.254 37.0091   2
  -4 -11  17 91.7371 36.6914   2
  -4 -11  16 103.833 39.8343   2
  -4 -11  15 414.472 40.7159   2
   4  11 -15 419.713 45.0041   1
   4  11 -14 456.960 44.6571   1
  -4 -11  14 614.018 42.9520   2
  -4 -11  13-30.9675 37.9476   2
  -4 -11  12 527.542 43.6107   2
   4  11 -12 492.948 46.0756   1
  -4 -11  11 120.657 40.0501   2
   4  11 -11 110.499 40.4466   1
  -4 -11  10 60.3905 37.6724   2
   4  11 -10 6.83227 37.0493   1
  -4 -11   9-2.36136 35.4105   2
   4  11  -8 33.0119 42.6818   1
  -4 -11   8 121.931 37.4370   2
   4  11  -7 98.6293 43.5394   1
  -4 -11   7 131.451 37.5446   2
  -4 -11   6-28.1872 37.2916   2
  -4 -11   5-32.3726 37.5758   2
  -4 -11   4 21.2643 38.8461   2
   4  11  -3 29.9247 37.4210   4
   4  11  -2 64.4770 37.7632   4
  -4 -11   2-57.3515 40.7914   2
   4  11  -1 54.5176 37.1307   4
  -4 -11   1-22.2859 41.5784   2
   4  11   0 81.1049 39.2811   4
  -4 -11   0 10.1536 41.5970   2
  -4 -11  -1 108.285 42.6127   2
  -4 -11  -2 178.530 42.9191   2
  -4 -11  -3 12.5933 43.7021   2
  -4 -11  -4 80.5987 43.8999   2
  -4 -11  -5 250.267 48.2612   2
  -4 -11  -6 202.157 46.5745   2
  -4 -11  -7 43.9122 46.7851   2
  -4 -11  -8 26.2302 46.9184   2
   4  12 -20 16.6157 40.9967   1
   4  12 -19 100.882 43.1586   1
   4  12 -18 245.667 46.0607   1
   4  12 -17 135.516 43.2931   1
  -4 -12  17-37.2072 36.3860   2
   4  12 -16 75.4415 43.1780   1
  -4 -12  16-47.9472 36.8610   2
   4  12 -15 26.7538 41.6649   1
   4  12 -14 204.762 43.1852   1
  -4 -12  14 94.7940 39.6721   2
   4  12 -13 32.9194 40.9165   1
  -4 -12  13 23.9484 39.5402   2
  -4 -12  12 257.779 40.7696   2
   4  12 -12 266.939 42.7878   1
  -4 -12  11 77.6461 38.8667   2
   4  12 -11 44.3291 38.3498   1
  -4 -12  10 116.165 36.3855   2
   4  12 -10 52.3866 39.3724   1
  -4 -12   9 568.185 42.6782   2
   4  12  -9 361.756 44.1400   1
   4  12  -8 77.8931 42.1052   1
  -4 -12   8 86.4068 38.8292   2
   4  12  -7 53.9150 40.8192   1
  -4 -12   7-30.6726 38.2985   2
  -4 -12   6-43.6610 38.6821   2
  -4 -12   5-43.8331 38.9572   2
  -4 -12   4-27.9493 38.8850   2
   4  12  -3 116.252 40.7713   4
  -4 -12   3-43.0447 40.0448   2
   4  12  -2 179.709 41.9641   4
  -4 -12   2 56.8888 41.3738   2
   4  12  -1 152.469 41.0708   4
  -4 -12   1 68.2287 42.3556   2
  -4 -12   0 38.7009 42.8844   2
  -4 -12  -1 165.152 44.5111   2
  -4 -12  -2-17.7836 42.8128   2
  -4 -12  -3 300.321 47.2326   2
  -4 -12  -4 45.4687 47.2999   2
  -4 -12  -5 141.098 44.6381   2
  -4 -12  -6-35.1305 47.2010   2
   4  13 -17-62.5777 41.0834   1
   4  13 -16 122.041 43.4550   1
   4  13 -15 92.7063 44.5172   1
  -4 -13  15 44.3592 38.3754   2
   4  13 -14 51.3437 41.1487   1
  -4 -13  14 62.8876 36.6846   2
   4  13 -13 85.6784 42.5288   1
  -4 -13  13 121.258 36.5015   2
  -4 -13  12 118.079 36.6612   2
   4  13 -12 90.5559 42.8560   1
  -4 -13  11 240.596 40.2740   2
   4  13 -11 198.227 40.7079   1
  -4 -13  10 28.8212 37.6090   2
   4  13 -10-40.0814 40.2582   1
   4  13  -9-52.6548 41.6160   1
  -4 -13   9 45.8413 38.3345   2
   4  13  -8 500.177 50.0621   1
  -4 -13   8 338.316 42.9610   2
   4  13  -7 78.8946 43.9604   1
  -4 -13   5-26.9929 39.5792   2
   4  13  -3 187.659 43.9203   4
  -4 -13   3 136.352 41.8070   2
   4  13  -2 212.864 45.2907   4
  -4 -13   2 171.374 43.4201   2
  -4 -13   1 22.5248 43.6464   2
  -4 -13   0 76.0740 43.8169   2
  -4 -13  -1 196.566 46.3685   2
  -4 -13  -2 180.396 44.5576   2
  -4 -13  -3 12.9855 42.0856   2
  -4 -13  -4 184.866 50.9981   2
   4  14 -16-40.0743 43.7392   1
   4  14 -15 108.746 44.1186   1
   4  14 -14 85.8072 42.7641   1
   4  14 -13 75.1216 43.6093   1
   4  14 -12 87.2208 43.8539   1
  -4 -14  11 23.5410 38.5679   2
   4  14 -11-39.6251 41.9436   1
  -4 -14  10 209.239 41.5099   2
   4  14 -10 89.9928 45.4683   1
   4  14  -9 53.2528 43.7824   1
  -4 -14   9 63.4975 39.6221   2
   4  14  -8 156.692 44.8373   1
  -4 -14   8-44.5795 40.2478   2
   4  14  -7 46.3854 41.9236   1
  -4 -14   7-28.8982 39.7537   2
   4  14  -6-36.0484 44.5094   1
  -4 -14   5 74.1370 40.5254   2
  -4 -14   4-0.74922 39.9589   2
  -4 -14   3 75.7872 41.9207   2
  -4 -14   1 79.2118 45.7954   2
  -4 -14   0 113.967 45.1078   2
  -4 -14  -1 11.1847 45.7497   2
  -4 -14  -2 14.6826 47.7691   2
   4  15 -10-5.67220 41.1160   1
   4  15  -9 292.458 48.9028   1
   4  15  -8 28.9948 45.8544   1
   4  15  -7-27.0148 44.0914   1
   4  15  -6 121.964 44.8571   1
  -4 -15   6 54.6180 40.6522   2
  -4 -15   5 163.145 42.4461   2
  -4 -15   4 12.5505 41.3061   2
  -4 -15   1 110.452 43.4428   2
  -5  17  -4 33.9356 52.7958   4
  -5  17  -5 62.6558 46.3499   5
  -5  17  -5 2.79091 51.6955   4
  -5  17  -6 131.975 47.0228   5
  -5  17  -6-7.44351 52.9459   4
  -5  17  -7 134.972 47.5850   5
  -5  17  -8-40.6475 47.6761   5
  -5  16   0 45.7743 53.4022   4
  -5  16  -2 69.1320 51.2832   4
  -5  16  -3 12.0036 41.1743   5
  -5  16  -3 23.7962 49.0950   4
  -5  16  -4 42.6285 42.0510   5
  -5  16  -4-28.0889 51.8131   4
  -5  16  -5 106.349 50.9617   4
  -5  16  -5 228.043 45.1711   5
  -5  16  -6-3.00253 43.1043   5
  -5  16  -6 21.3007 46.8449   4
  -5  16  -7 78.8248 45.6763   5
  -5  16  -7 167.995 47.4756   4
  -5  16  -8 114.954 44.7556   5
  -5  16  -9 92.4281 47.6401   5
  -5  16 -10 29.0071 47.1185   5
  -5  16 -11 170.213 47.6064   5
  -5  16 -12 63.5962 43.1432   5
  -5  16 -16 66.1353 38.4881   1
  -5  15   3 475.663 58.5219   4
  -5  15   2-14.2089 52.8448   4
  -5  15   0 88.1726 50.0552   4
  -5  15  -1 12.7135 36.1339   5
  -5  15  -1 355.774 51.2387   4
  -5  15  -2-33.5538 38.7613   5
  -5  15  -3-17.8784 39.8411   5
  -5  15  -3-29.3640 46.5770   4
  -5  15  -4 25.6105 39.9567   5
  -5  15  -4 78.7240 46.7748   4
  -5  15  -5-8.13982 43.1867   5
  -5  15  -5 42.8768 46.0356   4
  -5  15  -6 112.972 42.8329   5
  -5  15  -6 65.9119 45.7808   4
  -5  15  -7-10.2293 45.5864   4
  -5  15  -8 83.4358 44.3485   5
  -5  15  -9-27.3701 43.5040   5
  -5  15 -10 199.821 48.7719   5
  -5  15 -11 5.62263 45.2550   5
  -5  15 -12 150.089 45.3808   5
  -5  15 -13-29.3369 44.7772   5
  -5  15 -14 217.905 47.7591   5
  -5  15 -14 242.723 37.8329   1
  -5  15 -15 185.986 46.3217   5
  -5  15 -15-4.86635 37.4986   1
  -5  15 -16 7.91943 38.4778   1
  -5  15 -17-3.35549 37.6590   1
  -5  14   6 16.5245 53.1813   4
  -5  14   5 185.898 52.8564   4
  -5  14   4 123.290 52.2545   4
  -5  14   2 91.8848 49.1532   4
  -5  14   0 161.318 36.6464   5
  -5  14   0-30.1910 47.9961   4
  -5  14  -1 45.9593 36.9886   5
  -5  14  -1 45.1537 45.4443   4
  -5  14  -2 169.443 40.6315   5
  -5  14  -2 197.610 47.1387   4
  -5  14  -3 240.723 42.8369   5
  -5  14  -3 325.341 48.3451   4
  -5  14  -4 154.970 41.5881   5
  -5  14  -4 77.9485 44.9594   4
  -5  14  -5 23.2051 42.1624   5
  -5  14  -5 4.50339 42.6388   4
  -5  14  -6-9.87003 42.8243   5
  -5  14  -6 62.1535 44.1491   4
  -5  14  -7 128.027 45.3030   5
  -5  14  -7 216.273 46.9402   4
  -5  14  -8 67.1746 45.2843   5
  -5  14  -9 98.3988 44.2561   5
  -5  14 -10-23.9511 44.1942   5
  -5  14 -11 146.947 44.6432   5
  -5  14 -12 88.9524 44.6804   5
  -5  14 -13 80.6439 45.5882   5
  -5  14 -13 132.848 34.6627   1
  -5  14 -14 233.027 44.6963   5
  -5  14 -14-26.9473 36.4446   1
  -5  14 -15 55.9611 39.3809   1
  -5  14 -16 49.5208 38.8660   1
  -5  14 -17-56.1206 35.6559   1
  -5  14 -18 101.487 38.5597   1
  -5  13   8 218.516 53.4393   4
  -5  13   7-28.7846 49.4400   4
  -5  13   6 67.4073 50.2398   4
  -5  13   5 76.4025 49.2026   4
  -5  13   4 489.010 52.5729   4
  -5  13   3 387.605 51.5358   4
  -5  13   2-54.9878 35.2704   5
  -5  13   1-15.1241 34.4105   5
  -5  13   1-32.8319 47.0106   4
  -5  13   0 4.50812 42.6615   4
  -5  13  -1 16.3577 37.8841   5
  -5  13  -1 35.9803 44.5435   4
  -5  13  -2-3.16237 43.1850   4
  -5  13  -3-34.3013 40.7376   5
  -5  13  -4 23.0163 40.9565   5
  -5  13  -4 17.8056 40.8515   4
  -5  13  -5 48.9968 43.5095   4
  -5  13  -5 83.7630 41.1724   5
  -5  13  -6-16.6935 42.4669   5
  -5  13  -6 42.6255 41.4675   4
  -5  13  -7 106.199 44.2639   5
  -5  13  -7 59.5618 39.8637   4
  -5  13  -8 4.56631 43.6810   5
  -5  13  -9 47.0553 42.0179   5
  -5  13 -10 135.502 44.4834   5
  -5  13 -11 75.0973 43.7188   5
  -5  13 -11-46.3623 29.9967   1
  -5  13 -12 34.6297 43.2145   5
  -5  13 -12 159.999 33.9223   1
  -5  13 -13 163.873 44.0183   5
  -5  13 -13 0.31234 33.5193   1
  -5  13 -14 37.7340 36.4928   1
  -5  13 -15 32.3626 37.2344   1
  -5  13 -16 69.8250 35.7834   1
  -5  13 -17 225.123 39.1886   1
  -5  13 -18-48.0911 37.0623   1
  -5  13 -19 124.230 42.5383   1
  -5  12   9-13.7210 50.1905   4
  -5  12   8 66.1121 50.4982   4
  -5  12   7 2.44424 48.4584   4
  -5  12   6 204.897 47.6423   4
  -5  12   5 30.5959 46.0136   4
  -5  12   4 92.8411 44.5532   4
  -5  12   3-3.95760 33.7510   5
  -5  12   3 20.1427 44.9348   4
  -5  12   2 114.429 34.9770   5
  -5  12   2 108.784 43.6679   4
  -5  12   1-32.4355 34.9872   5
  -5  12   0-27.5724 35.6153   5
  -5  12   0 11.8171 42.0167   4
  -5  12  -1 328.602 41.3814   5
  -5  12  -1 329.576 43.7252   4
  -5  12  -2 33.8144 39.4409   5
  -5  12  -2 67.8396 41.6464   4
  -5  12  -3 47.2827 40.1907   5
  -5  12  -3-48.0075 38.3336   4
  -5  12  -4-22.7028 40.9768   5
  -5  12  -4-1.16471 40.1145   4
  -5  12  -5 42.4018 40.1644   5
  -5  12  -5-9.94498 39.7623   4
  -5  12  -6 434.171 45.5884   5
  -5  12  -6 477.216 43.7724   4
  -5  12  -7 132.960 43.6962   5
  -5  12  -8 128.554 45.0381   5
  -5  12  -9 82.4898 43.1620   5
  -5  12 -10 633.309 46.3231   5
  -5  12 -10 314.298 35.4571   1
  -5  12 -11 5.46689 43.6548   5
  -5  12 -11 9.00114 31.3840   1
  -5  12 -12 110.537 44.0400   5
  -5  12 -12 66.9831 32.2240   1
  -5  12 -13 141.491 32.1194   1
  -5  12 -14 3.78877 33.0407   1
  -5  12 -15-48.7676 33.8103   1
  -5  12 -16 65.2095 38.5066   1
  -5  12 -17-58.9357 37.8996   1
  -5  12 -18 107.464 39.3383   1
  -5  11  11 192.370 36.3259   6
  -5  11  11 4.24534 52.4936   4
  -5  11  10 221.296 35.1701   6
  -5  11  10-25.0815 50.7757   4
  -5  11   9-48.3980 33.0647   6
  -5  11   9 70.0723 48.9691   4
  -5  11   8 143.121 33.4682   6
  -5  11   8 49.4988 47.5929   4
  -5  11   7-18.2464 31.6955   6
  -5  11   7-40.4455 44.8928   4
  -5  11   6 184.796 33.2812   6
  -5  11   6 137.071 45.5085   4
  -5  11   5-16.1548 41.6748   4
  -5  11   4 82.9073 32.9735   5
  -5  11   4 78.7001 33.0370   6
  -5  11   4 170.561 41.8456   4
  -5  11   3 46.6902 31.0094   6
  -5  11   3-13.3311 34.6664   5
  -5  11   3 58.0764 40.3335   4
  -5  11   2-17.7761 34.5427   5
  -5  11   2-18.6346 42.0851   4
  -5  11   1 68.0568 35.7732   5
  -5  11   1 27.5616 41.6462   4
  -5  11   0 1134.32 44.8184   5
  -5  11   0 1080.33 49.0211   4
  -5  11  -1 7.39467 38.3216   5
  -5  11  -1 3.82327 38.7527   4
  -5  11  -2 144.190 39.8343   5
  -5  11  -2 170.731 41.1561   4
  -5  11  -3 131.130 42.3764   5
  -5  11  -3 125.886 40.4746   4
  -5  11  -4 548.490 43.2902   4
  -5  11  -4 642.924 46.1723   5
  -5  11  -5-5.05949 40.9851   5
  -5  11  -5-20.3942 36.9028   4
  -5  11  -6-0.25124 40.8335   5
  -5  11  -6 15.0521 36.4237   4
  -5  11  -7-14.0949 43.4047   5
  -5  11  -8 41.0041 42.7232   5
  -5  11  -8-31.7510 25.6191   1
  -5  11  -9 657.501 45.6297   5
  -5  11  -9 512.813 32.3936   1
  -5  11 -10 118.371 42.6369   5
  -5  11 -10-11.2113 29.1507   1
  -5  11 -11 801.770 37.2559   1
  -5  11 -11 984.386 48.8144   5
  -5  11 -12-32.5483 31.4613   1
  -5  11 -12 40.5883 43.1847   5
  -5  11 -13 28.0247 33.4646   1
  -5  11 -14 31.7287 35.0390   1
  -5  11 -15 13.8066 36.2591   1
  -5  11 -16 4.12568 35.5810   1
  -5  11 -17 58.3165 37.3391   1
  -5  11 -18 59.7891 42.3441   1
  -5  11 -19-55.0257 39.3053   1
  -5  11 -20-6.88032 38.5117   1
  -5  10  13 307.653 40.5883   6
  -5  10  12 247.097 53.6951   4
  -5  10  12 383.353 42.8156   6
  -5  10  11 14.1172 37.2456   6
  -5  10  11 43.3870 51.7646   4
  -5  10  10 79.8793 37.9524   6
  -5  10  10 106.588 49.6166   4
  -5  10   9 143.733 36.3372   6
  -5  10   9 29.4034 47.8497   4
  -5  10   8 37.4797 44.9072   4
  -5  10   7 211.259 45.0544   4
  -5  10   7 352.146 38.5214   6
  -5  10   6 65.9929 41.7713   4
  -5  10   6-46.0317 32.5415   6
  -5  10   5 25.6593 31.8249   5
  -5  10   5-33.0684 32.0422   6
  -5  10   5-7.38060 41.2456   4
  -5  10   4 549.816 37.4746   6
  -5  10   4 451.367 36.9929   5
  -5  10   4 477.457 43.4431   4
  -5  10   3 569.244 35.5739   6
  -5  10   3 514.471 39.3155   5
  -5  10   3 568.750 43.8203   4
  -5  10   2 41.6788 32.1341   6
  -5  10   2 49.7692 34.7606   5
  -5  10   2 65.5938 38.5330   4
  -5  10   1 38.1947 36.0769   5
  -5  10   1 83.5066 39.7773   4
  -5  10   1-30.4593 30.7132   6
  -5  10   0 290.685 34.3647   6
  -5  10   0 391.868 40.3360   5
  -5  10   0 379.876 41.0881   4
  -5  10  -1 1341.79 48.2626   5
  -5  10  -1 1280.03 48.9097   4
  -5  10  -1 1320.86 41.0210   6
  -5  10  -2 1212.45 39.4301   6
  -5  10  -2 1262.96 48.3498   5
  -5  10  -2 1192.65 45.9952   4
  -5  10  -3-46.7494 29.5592   6
  -5  10  -3 46.7019 41.4984   5
  -5  10  -3 23.9627 33.6854   4
  -5  10  -4 87.8184 29.3101   6
  -5  10  -4 41.8572 40.9765   5
  -5  10  -4 28.8333 34.7303   4
  -5  10  -5 865.729 48.2182   5
  -5  10  -5 809.955 40.7065   4
  -5  10  -5 775.676 34.6659   6
  -5  10  -6 66.3098 42.6143   5
  -5  10  -6 3.11282 36.1162   4
  -5  10  -7-17.9723 43.3872   5
  -5  10  -7-18.5598 24.6688   1
  -5  10  -8 53.0622 41.2647   5
  -5  10  -8-1.56296 26.3320   1
  -5  10  -9 947.460 48.1012   5
  -5  10  -9 673.119 33.1129   1
  -5  10 -10 1023.45 38.9953   1
  -5  10 -10 1279.18 49.2983   5
  -5  10 -11 474.107 34.0905   1
  -5  10 -11 504.298 45.5495   5
  -5  10 -12 528.115 44.7707   5
  -5  10 -12 446.505 33.8001   1
  -5  10 -13 278.590 36.6176   1
  -5  10 -14 28.0618 35.2384   1
  -5  10 -15 178.360 37.6710   1
  -5  10 -16 120.389 36.7742   1
  -5  10 -17 133.792 40.3142   1
  -5  10 -18 0.06082 37.8320   1
  -5  10 -19-0.71288 36.6534   1
  -5  10 -20 81.2174 39.5921   1
  -5   9  14 369.068 39.2740   6
  -5   9  14 92.8217 54.7625   4
  -5   9  13-33.5611 39.7051   6
  -5   9  13-4.87195 52.3533   4
  -5   9  12 6.66575 34.6981   6
  -5   9  12 39.8856 49.5728   4
  -5   9  11 334.083 37.9167   6
  -5   9  11 103.561 48.3448   4
  -5   9  10 91.5806 35.5420   6
  -5   9  10-9.98273 45.5737   4
  -5   9   9-12.7518 36.7586   6
  -5   9   9-6.46258 44.0866   4
  -5   9   8 82.0346 35.0136   6
  -5   9   8 24.8767 43.1254   4
  -5   9   7-18.2126 41.1951   4
  -5   9   7-22.3162 35.0687   6
  -5   9   6 175.528 36.4278   6
  -5   9   6 269.457 42.5975   4
  -5   9   5 712.968 37.7307   6
  -5   9   5 622.657 38.2955   5
  -5   9   5 598.657 44.6056   4
  -5   9   4 21.6870 32.9224   5
  -5   9   4 19.6279 33.2336   6
  -5   9   4-43.8595 36.4717   4
  -5   9   3-1.42803 33.8720   6
  -5   9   3-7.67793 37.6763   4
  -5   9   3 0.32144 34.5375   5
  -5   9   2 30.7404 35.8860   5
  -5   9   2 9.68808 29.3790   6
  -5   9   2 41.8652 36.7397   4
  -5   9   1 1669.81 43.3994   6
  -5   9   1 1729.67 48.4865   5
  -5   9   1 1696.09 47.2336   4
  -5   9   0 202.312 37.7200   5
  -5   9   0 193.904 35.9490   4
  -5   9   0 179.151 33.0788   6
  -5   9  -1 130.202 31.0125   6
  -5   9  -1 42.0170 38.0177   5
  -5   9  -1 114.576 35.1504   4
  -5   9  -2-6.11335 29.7760   6
  -5   9  -2-28.6210 38.2512   5
  -5   9  -2-18.4922 31.0906   4
  -5   9  -3 373.258 41.3155   5
  -5   9  -3 360.207 33.6912   4
  -5   9  -3 388.069 31.9666   6
  -5   9  -4 33.0382 28.0917   6
  -5   9  -4 51.3773 39.8397   5
  -5   9  -4 63.3316 30.9691   4
  -5   9  -5 92.2259 40.7299   5
  -5   9  -5 182.835 28.3160   6
  -5   9  -5 93.9412 30.5444   4
  -5   9  -6 372.508 43.0410   5
  -5   9  -6 283.226 24.1474   1
  -5   9  -7 9.96313 41.9816   5
  -5   9  -7 21.8440 23.7616   1
  -5   9  -8 436.913 28.8572   1
  -5   9  -8 564.102 44.8950   5
  -5   9  -9 258.065 28.9389   1
  -5   9  -9 339.796 43.1452   5
  -5   9 -10 1195.94 37.5882   1
  -5   9 -10 1349.37 48.9404   5
  -5   9 -11 498.089 37.3061   1
  -5   9 -11 508.100 43.1475   5
  -5   9 -12 51.7859 33.8273   1
  -5   9 -13 109.477 33.1684   1
  -5   9 -14 34.4183 35.9206   1
  -5   9 -15 27.2172 35.1074   1
  -5   9 -16 43.2319 35.2903   1
  -5   9 -17 36.7733 37.9240   1
  -5   9 -18-16.4713 36.1807   1
  -5   9 -19-37.3317 37.2661   1
  -5   9 -20 121.515 39.9930   1
  -5   8  15-8.25386 52.5895   4
  -5   8  14-47.3484 51.5818   4
  -5   8  13 265.840 43.0441   6
  -5   8  13-13.5565 47.0406   4
  -5   8  12 85.5125 36.0342   6
  -5   8  12-23.9599 47.2905   4
  -5   8  11-42.5571 35.0808   6
  -5   8  11 15.2976 45.5387   4
  -5   8  10 149.622 36.0437   6
  -5   8  10 7.26242 43.5049   4
  -5   8   9-13.9899 37.8776   6
  -5   8   9-26.8701 42.4264   4
  -5   8   8 118.950 35.3973   6
  -5   8   8 80.9694 42.6280   4
  -5   8   7 52.1919 35.7810   6
  -5   8   7 119.305 39.6525   4
  -5   8   6 43.2684 32.4179   6
  -5   8   6 16.3547 37.6352   4
  -5   8   5 80.4215 34.9884   6
  -5   8   5 31.4280 37.2718   4
  -5   8   4 1527.62 44.3699   6
  -5   8   4 1500.54 44.7972   5
  -5   8   4 1575.85 46.9416   4
  -5   8   3 223.142 37.2635   5
  -5   8   3 195.986 35.8879   6
  -5   8   3 167.010 35.8800   4
  -5   8   2 5.55736 34.8651   5
  -5   8   2-2.56678 32.2905   4
  -5   8   1-38.1265 29.6025   6
  -5   8   1 13.0469 34.0881   5
  -5   8   1 17.3061 29.4978   4
  -5   8   0 305.447 37.0871   5
  -5   8   0 336.638 32.4534   4
  -5   8   0 258.646 32.1003   6
  -5   8  -1 398.077 33.5428   6
  -5   8  -1 356.139 37.4565   5
  -5   8  -1 321.149 32.1601   4
  -5   8  -2 62.2118 36.2550   5
  -5   8  -2 22.8212 29.8513   6
  -5   8  -2 45.3097 28.8382   4
  -5   8  -3 76.3904 37.3050   5
  -5   8  -3 44.0508 28.3971   4
  -5   8  -4 702.919 33.6816   6
  -5   8  -4 761.194 43.6277   5
  -5   8  -4 642.274 31.1751   4
  -5   8  -5 40.8197 19.8356   1
  -5   8  -5 18.0542 38.7314   5
  -5   8  -5 20.0206 27.5999   4
  -5   8  -6 38.5012 20.8296   1
  -5   8  -6 41.8043 38.7252   5
  -5   8  -7 78.7112 22.0249   1
  -5   8  -7 10.0969 39.4974   5
  -5   8  -8 1037.81 32.9074   1
  -5   8  -8 1274.45 48.0257   5
  -5   8  -9 2128.50 42.5450   1
  -5   8  -9 2208.01 50.9454   5
  -5   8 -10 46.2636 37.7381   5
  -5   8 -10 1.57838 29.3142   1
  -5   8 -11 4.50976 32.3447   1
  -5   8 -11 2.17525 36.3677   5
  -5   8 -12 51.3997 31.9735   1
  -5   8 -12 136.477 37.1070   5
  -5   8 -13 823.789 42.4806   1
  -5   8 -14 532.384 39.6720   1
  -5   8 -15-29.4570 34.8327   1
  -5   8 -16 306.683 39.2189   1
  -5   8 -17 24.2365 37.0618   1
  -5   8 -18 42.1367 38.6543   1
  -5   8 -20 77.9215 39.1616   1
  -5   7  16 3.28908 54.2872   4
  -5   7  15 192.425 53.8725   4
  -5   7  14-15.0390 48.2457   4
  -5   7  13-38.1196 47.5910   4
  -5   7  12 140.119 38.7438   6
  -5   7  12-12.4599 44.3764   4
  -5   7  11 387.914 39.2612   6
  -5   7  11 297.742 47.3664   4
  -5   7  10 28.9145 37.4744   6
  -5   7  10 48.4029 41.0981   4
  -5   7   9 278.837 39.5596   6
  -5   7   9 139.795 41.0072   4
  -5   7   8-34.5266 35.9767   6
  -5   7   8 53.7586 39.9827   4
  -5   7   7 1119.78 46.5100   6
  -5   7   7 1122.24 44.8061   4
  -5   7   6 30.0204 36.6632   6
  -5   7   6 11.7031 36.4092   4
  -5   7   5 20.0658 34.1229   6
  -5   7   5-37.8033 35.1564   4
  -5   7   4-6.46641 31.8828   5
  -5   7   4-30.2428 32.0244   6
  -5   7   4 1.99356 31.7879   4
  -5   7   3-14.2219 32.6980   5
  -5   7   3 7.02861 32.7188   6
  -5   7   3 12.5114 30.4902   4
  -5   7   2 740.215 36.3268   6
  -5   7   2 760.643 38.0798   5
  -5   7   2 714.541 33.1565   4
  -5   7   1 763.193 36.1517   6
  -5   7   1 784.541 39.1894   5
  -5   7   1 718.080 31.1952   4
  -5   7   0 28.6612 33.1813   5
  -5   7   0-10.0438 26.1362   4
  -5   7   0-3.35102 28.6977   6
  -5   7  -1 54.1686 31.3603   6
  -5   7  -1 117.772 34.5703   5
  -5   7  -1 67.9443 26.2882   4
  -5   7  -1 100.201 17.1612   0
  -5   7  -2 501.966 32.9885   6
  -5   7  -2 481.771 38.3172   5
  -5   7  -2 453.813 26.7179   4
  -5   7  -3 552.039 39.3616   5
  -5   7  -3 431.577 27.7494   4
  -5   7  -3 527.395 32.0718   6
  -5   7  -4 1158.07 37.9478   6
  -5   7  -4 939.201 23.8044   1
  -5   7  -4 1156.60 44.0246   5
  -5   7  -4 1000.70 30.2100   4
  -5   7  -5 978.359 26.0555   1
  -5   7  -5 1076.40 43.5661   5
   5  -7   5 1007.48 28.5950   0
  -5   7  -6 810.951 27.0332   1
  -5   7  -6 840.530 41.3582   5
   5  -7   6 741.729 26.9909   0
  -5   7  -7 1645.80 46.0641   5
  -5   7  -7 1533.68 34.0473   1
  -5   7  -7 1543.32 42.8099   3
  -5   7  -8 304.377 38.7773   5
  -5   7  -8 285.048 27.4435   1
  -5   7  -8 295.386 33.8104   3
  -5   7  -9 24.2929 24.4413   1
  -5   7  -9 43.8381 35.1483   5
  -5   7  -9 67.5677 32.5630   3
  -5   7 -10 252.282 36.5980   5
  -5   7 -10 176.593 31.3943   1
  -5   7 -10 210.548 31.6751   3
  -5   7 -11 867.697 39.7423   5
  -5   7 -11 784.580 36.5429   1
  -5   7 -11 822.463 37.3883   3
  -5   7 -12 19.8197 32.0545   1
  -5   7 -12 54.7050 29.4170   3
  -5   7 -13 1132.23 43.6279   1
  -5   7 -13 1080.25 37.9723   3
  -5   7 -14 377.128 35.5138   1
  -5   7 -14 333.905 31.6456   3
  -5   7 -15 278.591 38.7767   1
  -5   7 -16 260.431 38.0336   1
  -5   7 -17-15.6926 35.8243   1
  -5   7 -18 61.5058 39.6969   1
  -5   7 -19-45.9343 36.1417   1
  -5   7 -20 76.7020 40.2706   1
  -5   7 -21 27.6518 35.8435   1
  -5   6  17 103.827 52.5232   4
  -5   6  16 53.1023 50.5273   4
  -5   6  15 51.2375 47.4703   4
  -5   6  14 68.8903 47.1859   4
  -5   6  13 86.0841 44.1205   4
  -5   6  12 12.6183 44.0866   4
  -5   6  11 161.230 40.2063   6
  -5   6  11 14.1369 41.2477   4
  -5   6  10-35.3663 39.1804   6
  -5   6  10-14.8951 38.9406   4
  -5   6   9 410.260 40.8705   6
  -5   6   9 354.772 40.5022   4
  -5   6   8 17.6497 36.4068   6
  -5   6   8 38.6122 38.1405   4
  -5   6   7 117.381 36.5653   6
  -5   6   7 98.2003 36.4959   4
  -5   6   6 112.113 36.1443   6
  -5   6   6 56.6684 34.1603   4
  -5   6   5 9.96905 31.1547   4
  -5   6   5 18.0274 33.2596   6
  -5   6   4 834.502 37.3524   5
  -5   6   4 812.758 38.2912   6
  -5   6   4 795.473 34.4485   4
  -5   6   3 27.0247 30.0142   6
  -5   6   3-3.88831 31.2363   5
  -5   6   3-5.37378 26.5466   4
  -5   6   2-37.5468 29.0837   6
  -5   6   2 1.75649 31.7381   5
  -5   6   2-19.5135 16.8935   0
  -5   6   2-4.48200 24.0439   4
  -5   6   1 382.738 33.3726   6
  -5   6   1 364.578 34.6022   5
  -5   6   1 342.527 25.2002   4
  -5   6   1 263.099 18.5843   0
  -5   6   0 239.509 32.3112   6
  -5   6   0 254.642 33.5988   5
  -5   6   0 276.503 23.5623   4
  -5   6   0 229.391 19.0385   0
  -5   6  -1 176.574 31.3229   6
  -5   6  -1 184.377 32.8343   5
  -5   6  -1 161.028 22.8980   4
  -5   6  -1 174.576 18.7156   0
  -5   6  -2 341.036 33.6855   6
  -5   6  -2 381.064 36.5984   5
  -5   6  -2 290.109 23.4892   4
  -5   6  -3 6948.99 44.8891   1
  -5   6  -3 7864.35 62.6588   6
  -5   6  -3 7986.08 67.9634   5
  -5   6  -3 7556.67 50.7777   4
  -5   6  -3 7579.87 67.2586   3
  -5   6  -4 6158.53 59.3790   6
  -5   6  -4 5982.52 61.7373   5
  -5   6  -4 5628.91 44.9425   4
  -5   6  -4 5806.79 60.0575   3
  -5   6  -4 5422.23 43.2563   1
  -5   6  -5 45.4614 34.5298   5
  -5   6  -5 71.3044 18.7969   1
  -5   6  -5 63.4537 31.7066   3
   5  -6   5-0.02531 21.0946   0
  -5   6  -6 30.3261 20.6397   1
  -5   6  -6 35.5011 33.7356   5
  -5   6  -6 43.5715 31.3281   3
  -5   6  -7 3437.09 51.6632   5
  -5   6  -7 3140.32 41.4244   1
  -5   6  -7 3409.66 50.6401   3
  -5   6  -8 32.7031 22.9543   1
  -5   6  -8 59.1883 30.1630   3
  -5   6  -8 69.0517 33.6419   5
  -5   6  -9 491.245 28.6128   1
  -5   6  -9 530.857 35.3117   5
  -5   6  -9 421.163 33.0023   3
  -5   6 -10 25.6604 26.8642   1
  -5   6 -10 35.6113 31.5057   5
  -5   6 -10 0.16540 30.1445   3
  -5   6 -11 49.7674 30.4683   1
  -5   6 -11 99.8404 31.8051   5
  -5   6 -11 42.2786 30.1118   3
  -5   6 -12 222.714 33.9019   1
  -5   6 -12 220.189 32.6890   5
  -5   6 -12 182.681 30.3467   3
  -5   6 -13 1453.30 43.8064   1
  -5   6 -13 1402.63 39.7645   5
  -5   6 -13 1262.93 39.4256   3
  -5   6 -14 73.4333 29.8996   5
  -5   6 -14-14.8970 28.0389   3
  -5   6 -14 47.0616 32.6979   1
  -5   6 -15 101.241 35.7170   1
  -5   6 -16 1437.60 50.8898   1
  -5   6 -17 29.8094 35.7081   1
  -5   6 -18 30.5246 35.2501   1
  -5   6 -20 16.8843 38.4147   1
  -5   6 -21 2.24660 36.8899   1
  -5   5  18 252.319 49.5841   4
  -5   5  17 181.318 48.1603   4
  -5   5  16 271.098 47.5331   4
  -5   5  15 211.436 43.5869   4
  -5   5  14 73.7302 43.0147   4
  -5   5  13 65.5324 41.2300   4
  -5   5  12 461.193 44.1882   4
  -5   5  11 30.3911 40.0072   4
  -5   5  10 76.9117 40.1605   6
  -5   5  10 94.2070 39.0568   4
  -5   5   9 37.1711 36.3668   6
  -5   5   9-53.0229 36.8329   4
  -5   5   8 570.310 40.1465   6
  -5   5   8 626.723 39.6211   4
  -5   5   7-1.84871 35.4689   6
  -5   5   7-32.3770 31.3101   4
  -5   5   6 65.4380 34.2323   6
  -5   5   6 27.4892 29.2731   4
  -5   5   5 276.743 34.2545   6
  -5   5   5 228.871 30.6262   4
  -5   5   4 87.9429 32.9615   6
  -5   5   4 31.1782 26.0091   4
  -5   5   3 628.788 33.7456   6
  -5   5   3 582.780 27.6206   4
  -5   5   3 601.537 34.7486   5
  -5   5   2 882.454 36.9147   6
  -5   5   2 840.868 35.6289   5
  -5   5   2 833.671 27.6535   4
  -5   5   1-14.0291 30.2510   5
  -5   5   1-1.97891 20.1321   4
  -5   5   1 8.63570 17.0705   0
  -5   5   0 39.5468 29.3286   6
  -5   5   0 51.9867 30.3553   5
  -5   5   0 65.5151 17.7412   0
  -5   5   0 61.0850 18.8231   4
  -5   5   0 52.4540 26.9121   3
  -5   5  -1 377.636 32.5642   6
  -5   5  -1 219.356 35.6768   5
  -5   5  -1 338.125 20.3097   4
  -5   5  -1 348.538 20.8746   0
  -5   5  -1 353.728 29.7318   3
  -5   5  -2 1920.39 31.3116   0
  -5   5  -2 1866.64 23.7127   1
  -5   5  -2 2127.52 42.5584   5
  -5   5  -2 1836.83 28.0294   4
  -5   5  -2 2011.84 41.4658   3
  -5   5  -2 2246.74 42.4888   6
  -5   5  -3 3292.89 49.7579   6
  -5   5  -3 2950.84 30.4319   1
  -5   5  -3 3176.88 47.4721   5
  -5   5  -3 2886.68 31.1643   4
  -5   5  -3 3183.29 48.5642   3
  -5   5  -4 1952.27 28.5055   1
  -5   5  -4 2011.81 41.2414   5
   5  -5   4 1974.27 34.6725   0
  -5   5  -4 1937.21 41.6641   3
  -5   5  -5 1333.34 38.3612   5
  -5   5  -5 1318.13 38.7425   3
   5  -5   5 1228.28 30.6205   0
  -5   5  -5 1310.34 27.2988   1
  -5   5  -6 6480.76 60.2529   5
  -5   5  -6 6423.17 61.1933   3
  -5   5  -6 6254.83 51.5565   1
  -5   5  -7 86.5952 21.6107   1
  -5   5  -7 49.8615 30.6127   5
  -5   5  -7 45.6982 29.0420   3
  -5   5  -8 1053.17 31.2384   1
  -5   5  -8 1042.11 35.0938   5
  -5   5  -8 997.541 36.0890   3
  -5   5  -9 335.340 28.8402   1
  -5   5  -9 326.828 30.7492   5
  -5   5  -9 291.275 31.4360   3
  -5   5 -10 248.586 30.1221   1
  -5   5 -10 311.151 31.3295   5
  -5   5 -10 245.013 29.8659   3
  -5   5 -11 41.0035 29.5921   5
  -5   5 -11 32.9706 28.9993   1
  -5   5 -11 5.38967 27.4451   3
  -5   5 -12 118.380 29.0197   5
  -5   5 -12 97.6488 32.2300   1
  -5   5 -12 43.7880 27.5165   3
  -5   5 -13-32.2196 31.2660   1
  -5   5 -13-3.24405 28.4305   3
  -5   5 -14 726.709 39.8475   1
  -5   5 -14 606.152 32.8018   3
  -5   5 -15-2.70090 35.0073   1
  -5   5 -16-23.7652 37.8453   1
  -5   5 -17 116.056 38.8409   1
  -5   5 -18 9.10496 37.1058   1
  -5   5 -20 107.290 37.2412   1
  -5   5 -21 42.2754 40.4086   1
  -5   4  18 170.886 48.4436   4
  -5   4  17 134.391 47.0652   4
  -5   4  16 113.911 44.8810   4
  -5   4  15 121.350 45.0142   4
  -5   4  14 63.6371 43.9896   4
  -5   4  13 453.038 46.1047   4
  -5   4  12 24.3530 41.6432   4
  -5   4  11-23.1606 38.5535   4
  -5   4  10 580.694 43.5242   6
  -5   4  10 639.263 41.4097   4
  -5   4   9 72.5671 37.1897   6
  -5   4   9 31.8367 33.7645   4
  -5   4   8 93.9565 37.7200   6
  -5   4   8 64.8519 31.7814   4
  -5   4   7 289.316 38.4360   6
  -5   4   7 317.512 31.4580   4
  -5   4   6 3663.86 55.7732   6
  -5   4   6 3466.21 45.7407   4
  -5   4   5 913.189 38.9337   6
  -5   4   5 897.076 30.2477   4
  -5   4   4-29.4680 33.2471   6
  -5   4   4 19.3598 23.4041   4
  -5   4   3 5.03016 21.2793   4
  -5   4   3-7.56904 32.0574   6
  -5   4   3-6.01979 22.9240   3
  -5   4   2 2536.92 44.5496   6
  -5   4   2 2443.95 29.8321   2
  -5   4   2 2648.98 43.9190   5
  -5   4   2 2495.96 32.0395   4
  -5   4   2 2576.28 40.2071   3
  -5   4   1 865.527 35.8930   6
  -5   4   1 758.477 19.9533   2
  -5   4   1 832.343 34.6841   5
  -5   4   1 742.868 21.7828   4
  -5   4   1 730.911 24.7676   0
  -5   4   1 857.904 30.7636   3
  -5   4   0-10.1587 32.6748   6
  -5   4   0-10.2450 19.2233   0
  -5   4   0-6.82648 28.9926   5
  -5   4   0-2.91932 14.8096   2
  -5   4   0 8.66508 15.5973   4
  -5   4   0 2.81236 8.15427   1
  -5   4   0-4.65398 25.7478   3
  -5   4  -1 119.986 30.3030   6
  -5   4  -1 86.3721 11.3279   1
  -5   4  -1 82.5267 14.3403   2
  -5   4  -1 73.8259 15.7056   4
  -5   4  -1 73.4348 30.3535   5
  -5   4  -1 82.6231 20.5950   0
  -5   4  -1 83.3350 26.2332   3
  -5   4  -2 10465.0 70.6409   6
  -5   4  -2 9311.07 40.8154   2
  -5   4  -2 10142.1 67.7598   5
  -5   4  -2 9458.19 41.7654   4
  -5   4  -2 9374.04 46.6638   1
  -5   4  -2 9454.62 59.6765   0
  -5   4  -2 10213.9 68.4856   3
  -5   4  -3 1445.80 39.4472   6
  -5   4  -3 1265.67 18.5788   2
  -5   4  -3 1376.44 35.8171   5
  -5   4  -3 1333.06 29.2410   0
  -5   4  -3 1341.71 22.9860   1
  -5   4  -3 1456.48 36.7929   3
  -5   4  -4 786.840 21.8334   1
  -5   4  -4 758.425 31.9032   5
   5  -4   4 745.039 27.0836   0
  -5   4  -4 751.415 33.1212   3
  -5   4  -5 20.2397 27.3742   3
   5  -4   5 26.5286 23.0432   0
  -5   4  -5 20.9025 26.5668   5
  -5   4  -5 37.6202 18.8397   1
  -5   4  -6 69.4704 28.0003   3
  -5   4  -6 66.7349 26.6973   5
  -5   4  -6 81.7645 21.1399   1
  -5   4  -7 360.563 25.0168   1
  -5   4  -7 326.934 29.0569   5
  -5   4  -7 374.184 29.0886   3
  -5   4  -8 382.477 27.8395   1
  -5   4  -8 394.788 29.1239   5
  -5   4  -8 404.795 30.1922   3
  -5   4  -9 10.0557 27.2156   3
  -5   4  -9 25.0713 26.6968   5
  -5   4  -9 38.5579 24.5974   1
  -5   4 -10 24.6760 27.8255   3
  -5   4 -10-2.61590 26.3583   5
  -5   4 -10 13.4933 29.0298   1
  -5   4 -11 1157.17 38.9120   1
  -5   4 -11 1151.31 34.2624   5
  -5   4 -11 1026.86 36.0675   3
  -5   4 -12 129.619 27.7204   3
  -5   4 -12 58.5199 30.0680   1
  -5   4 -13 51.5991 25.8493   3
  -5   4 -13 19.8923 33.3944   1
  -5   4 -14 39.7338 25.8943   3
  -5   4 -14 12.6102 34.9993   1
  -5   4 -15-32.1931 36.8500   1
  -5   4 -16 66.4542 36.8688   1
  -5   4 -17 71.2540 37.0885   1
  -5   4 -18-4.51252 38.7624   1
  -5   4 -20 47.5014 39.4754   1
  -5   3  19 149.324 49.5441   4
  -5   3  18 35.3256 46.0207   4
  -5   3  17 44.8635 44.5990   4
  -5   3  16-5.30377 43.6362   4
  -5   3  15 37.2370 42.3798   4
  -5   3  13 1052.30 49.1828   4
  -5   3  12 378.663 42.6935   4
  -5   3  11-12.3501 37.8203   4
  -5   3  10-2.31263 39.5913   6
  -5   3  10-39.0117 34.2484   4
  -5   3   9 462.963 41.7178   6
  -5   3   9 410.895 36.0118   4
  -5   3   8 174.192 36.7734   6
  -5   3   8 144.426 31.5948   4
  -5   3   7 239.417 38.1348   6
  -5   3   7 280.669 30.7873   4
  -5   3   6 227.064 28.7395   4
  -5   3   6 258.003 36.8484   6
  -5   3   5 2839.34 47.5512   6
  -5   3   5 2838.99 39.1363   2
  -5   3   5 2703.79 38.8987   4
  -5   3   5 2896.93 37.7061   3
  -5   3   4 154.731 22.5073   2
  -5   3   4 162.520 32.7796   6
  -5   3   4 149.201 22.2648   4
  -5   3   4 151.062 22.9198   3
  -5   3   3 5972.25 45.0553   2
  -5   3   3 6236.65 61.1646   6
  -5   3   3 5985.92 42.8451   4
  -5   3   3 6277.81 52.5143   3
  -5   3   2 1245.36 39.9348   6
  -5   3   2 1202.47 25.8126   2
  -5   3   2 1198.53 23.7603   4
  -5   3   2 1179.04 30.7171   3
  -5   3   1 148.282 28.7332   5
  -5   3   1 71.7063 18.4425   2
  -5   3   1 77.0327 33.2953   6
  -5   3   1 91.0558 15.7946   4
  -5   3   1 113.924 23.3373   3
  -5   3   0 11626.6 43.7392   1
  -5   3   0 12469.2 72.9680   5
  -5   3   0 11767.0 53.2858   2
  -5   3   0 11491.6 42.2829   4
  -5   3   0 11811.7 66.8798   0
  -5   3   0 12345.3 73.2212   3
  -5   3  -1 5932.88 35.7544   1
  -5   3  -1 5951.64 50.0076   0
  -5   3  -1 6375.93 54.9507   5
  -5   3  -1 5594.51 28.9176   4
  -5   3  -1 6500.27 57.3893   6
  -5   3  -1 6538.18 55.9614   3
  -5   3  -1 5857.75 37.9342   2
  -5   3  -2 1254.14 22.0037   1
  -5   3  -2 1348.75 39.5886   6
  -5   3  -2 1348.95 33.6320   5
  -5   3  -2 1197.00 21.2997   2
  -5   3  -2 1254.07 28.8394   0
  -5   3  -2 1468.48 33.9025   3
  -5   3  -3 7.92985 24.2951   3
  -5   3  -3-2.87993 24.8260   5
  -5   3  -3 1.03252 20.6403   0
  -5   3  -3-17.3271 15.1604   2
  -5   3  -3 5.71879 15.1770   1
  -5   3  -4 25.6189 25.4510   3
  -5   3  -4 5.17530 24.0068   5
  -5   3  -4 22.1482 14.9833   2
   5  -3   4-5.36887 22.4780   0
  -5   3  -4 5.15741 16.8055   1
  -5   3  -5 765.777 24.2035   1
  -5   3  -5 750.441 29.6145   5
  -5   3  -5 734.272 20.6512   2
  -5   3  -5 790.591 32.1390   3
  -5   3  -6 285.870 25.3822   5
  -5   3  -6 291.249 18.9601   2
  -5   3  -6 270.939 22.1683   1
  -5   3  -6 294.354 27.6414   3
  -5   3  -7 104.634 26.2927   3
  -5   3  -7 80.1856 24.6411   5
  -5   3  -7 92.0863 23.4953   1
  -5   3  -7 67.0983 19.0470   2
  -5   3  -8 26.5091 26.5747   3
  -5   3  -8 14.5762 22.7570   5
  -5   3  -8 0.47414 25.7238   1
  -5   3  -8-0.44301 20.8721   2
  -5   3  -9 1988.61 42.3975   1
  -5   3  -9 1987.35 35.1374   5
  -5   3  -9 1890.51 32.6386   2
  -5   3  -9 2073.28 40.7134   3
  -5   3 -10 28.3659 25.5649   3
  -5   3 -10 36.2258 24.0407   5
  -5   3 -10 51.2650 29.9403   1
  -5   3 -11 138.502 27.5058   3
  -5   3 -11 140.317 29.9866   1
  -5   3 -12 117.324 27.3162   3
  -5   3 -12 160.509 34.1681   1
  -5   3 -13 11.0036 24.5625   3
  -5   3 -13-20.8609 33.1711   1
  -5   3 -14 0.64321 25.2810   3
  -5   3 -14-46.9305 33.2225   1
  -5   3 -15-53.7006 36.5248   1
  -5   3 -16 8.62954 37.8831   1
  -5   3 -17 102.578 38.9633   1
  -5   3 -18-48.2964 37.6587   1
  -5   3 -19 3.64478 37.7403   1
  -5   3 -20 92.1803 40.6194   1
  -5   2  19 17.8831 47.8783   4
  -5   2  18 43.2330 45.6384   4
  -5   2  17 43.3704 43.0112   4
  -5   2  16-36.5450 44.1312   4
  -5   2  15 24.3425 42.3393   4
  -5   2  14 29.7747 40.9479   4
  -5   2  13 386.122 42.5170   4
  -5   2  12 750.168 43.1584   4
  -5   2  11 885.022 44.6525   6
  -5   2  11 793.994 40.6481   4
  -5   2  10 972.005 43.5950   6
  -5   2  10 950.064 39.2615   4
  -5   2   9 120.014 37.5608   6
  -5   2   9 107.015 31.1512   4
  -5   2   8 108.206 34.5629   6
  -5   2   8 66.7489 28.4123   4
  -5   2   7 5272.87 53.0831   2
  -5   2   7 4967.43 50.2200   4
  -5   2   7 5079.88 58.5702   6
  -5   2   6 6413.82 55.4413   2
  -5   2   6 6535.71 52.1553   4
  -5   2   6 6426.50 48.9429   3
  -5   2   6 6518.42 61.8993   6
  -5   2   5 318.398 26.8101   2
  -5   2   5 310.702 24.1444   4
  -5   2   5 274.489 32.4849   6
  -5   2   5 303.581 22.9489   3
  -5   2   4 1200.92 39.3371   6
  -5   2   4 1266.99 30.5541   2
  -5   2   4 1162.15 25.4706   4
  -5   2   4 1178.93 28.4618   3
  -5   2   3 6018.03 46.8790   2
  -5   2   3 6020.05 57.0422   6
  -5   2   3 6106.18 38.7229   4
  -5   2   3 6289.44 50.5942   3
  -5   2   2 2495.43 24.7904   4
  -5   2   2 2823.56 46.5501   6
  -5   2   2 2727.34 37.7675   3
  -5   2   2 2537.50 33.3062   2
  -5   2   1 677.931 23.0467   2
  -5   2   1 616.717 15.3595   4
  -5   2   1 663.131 32.6393   6
  -5   2   1 705.670 26.7527   3
  -5   2   0 59.7569 24.2575   3
  -5   2   0 20.5854 31.4340   6
  -5   2   0 59.4043 26.7613   5
  -5   2   0 36.9217 18.2848   2
  -5   2   0 41.0077 9.04705   4
  -5   2   0 61.8549 22.2803   0
  -5   2  -1 702.291 17.6931   1
  -5   2  -1 669.558 35.1711   6
  -5   2  -1 700.236 25.0260   0
  -5   2  -1 712.172 28.9471   5
  -5   2  -1 621.727 21.4020   2
  -5   2  -1 692.420 29.4890   3
  -5   2  -2 2121.65 27.5389   1
  -5   2  -2 2146.27 29.3541   2
  -5   2  -2 2217.55 35.7382   5
  -5   2  -2 2143.42 42.2650   6
  -5   2  -2 2179.12 35.6530   0
  -5   2  -2 2239.21 38.2152   3
  -5   2  -3 189.866 21.4299   0
  -5   2  -3 203.843 25.1426   3
  -5   2  -3 196.164 17.0860   1
  -5   2  -3 165.457 18.9871   2
  -5   2  -3 191.642 24.2396   5
  -5   2  -4-12.5435 24.0129   3
  -5   2  -4 4.18524 21.8380   5
   5  -2   4-27.1670 22.2375   0
  -5   2  -4-0.52742 17.3960   1
  -5   2  -4 8.56936 17.6494   2
  -5   2  -5 171.418 25.2509   3
  -5   2  -5 180.986 20.9974   1
  -5   2  -5 165.202 22.2630   5
  -5   2  -5 189.457 19.3945   2
  -5   2  -6 81.4697 20.4998   5
  -5   2  -6 102.028 25.3448   3
  -5   2  -6 92.7219 23.2272   1
  -5   2  -6 114.974 20.3336   2
  -5   2  -7 11.0745 25.1760   3
  -5   2  -7-11.8448 20.8048   5
  -5   2  -7 20.8566 24.4986   1
  -5   2  -7-0.86931 22.3419   2
  -5   2  -8-9.67359 21.4006   5
  -5   2  -8 10.6868 26.5201   1
  -5   2  -8 4.26003 24.5289   2
  -5   2  -8 25.5231 26.8603   3
  -5   2  -9 51.5564 27.9043   3
  -5   2  -9 56.0645 26.9525   1
  -5   2  -9 52.7733 25.4056   2
  -5   2 -10 2670.97 48.4723   1
  -5   2 -10 2382.73 40.4667   2
  -5   2 -10 2332.90 44.2939   3
  -5   2 -11-10.6445 30.1691   1
  -5   2 -11 29.6913 29.7590   2
  -5   2 -11 17.8507 25.7357   3
  -5   2 -12-0.74008 26.6002   3
  -5   2 -12-22.5946 35.2024   1
  -5   2 -12-39.5812 30.5144   2
  -5   2 -13-8.03868 25.1288   3
  -5   2 -13-33.5520 34.5855   1
  -5   2 -13 34.0022 30.1483   2
  -5   2 -14 20.1933 23.8315   3
  -5   2 -14-15.3107 35.7476   1
  -5   2 -15 6.06921 34.6858   1
  -5   2 -16 85.0375 38.2636   1
  -5   2 -17 73.3991 39.5665   1
  -5   2 -18 199.274 39.3976   1
  -5   2 -19 153.455 40.1282   1
  -5   2 -20 184.621 38.2091   1
  -5   1  19 46.8058 45.7527   4
  -5   1  18-43.7653 43.7880   4
  -5   1  16 65.9736 42.7179   4
  -5   1  15-10.8903 39.8435   4
  -5   1  14-47.6764 39.0735   4
  -5   1  13 455.597 43.3940   4
  -5   1  12 514.582 39.1547   4
  -5   1  11 33.4560 36.6609   6
  -5   1  11 49.4637 34.9675   4
  -5   1  10 1334.23 38.4071   4
  -5   1  10 1347.62 43.9092   6
  -5   1   9 263.405 34.4444   2
  -5   1   9 255.036 37.1553   6
  -5   1   9 313.073 30.2100   4
  -5   1   8 77.6925 35.3446   6
  -5   1   8 102.370 31.8904   2
  -5   1   8 87.2634 27.1353   4
  -5   1   7 1744.38 38.6912   2
  -5   1   7 1643.21 42.2851   6
  -5   1   7 1572.60 33.9457   4
  -5   1   7 1641.51 28.6269   3
  -5   1   6 600.502 35.5080   6
  -5   1   6 754.130 31.6491   2
  -5   1   6 586.927 26.6260   4
  -5   1   6 591.356 23.4743   3
  -5   1   5 1653.92 40.8755   6
  -5   1   5 1709.33 34.9703   2
  -5   1   5 1543.55 28.0602   4
  -5   1   5 1672.86 29.5302   3
  -5   1   4 3471.05 46.8312   6
  -5   1   4 3427.72 40.5313   2
  -5   1   4 3304.35 31.8592   4
  -5   1   4 3520.17 38.3289   3
  -5   1   3 195.533 15.3084   4
  -5   1   3 223.182 21.0362   3
  -5   1   3 190.677 30.9946   6
  -5   1   3 228.803 24.2465   2
  -5   1   2 81.2218 20.8385   3
  -5   1   2 60.1776 27.9164   6
  -5   1   2 73.8971 22.1035   2
  -5   1   2 81.6010 12.5550   4
  -5   1   1 1565.00 36.7406   6
  -5   1   1 1476.66 29.6429   2
  -5   1   1 1449.18 14.1028   4
  -5   1   1 1559.73 31.1686   3
  -5   1   0 4184.06 48.2133   6
  -5   1   0 4215.50 39.2141   2
  -5   1   0 4093.01 45.1058   0
  -5   1   0 4314.91 44.9964   3
  -5   1  -1 17.8548 23.6041   3
  -5   1  -1-9.93325 28.5427   6
  -5   1  -1 9.31322 21.4109   0
  -5   1  -1 37.3950 20.1693   2
  -5   1  -2 5.66487 24.1357   3
  -5   1  -2 28.5541 21.8248   5
  -5   1  -2 13.1529 21.6151   0
  -5   1  -2 3.92427 15.5367   1
  -5   1  -2 3.95336 19.8396   2
  -5   1  -3 184.709 18.8732   1
  -5   1  -3 172.488 26.1280   3
  -5   1  -3 175.225 21.6945   5
  -5   1  -3 188.397 21.4235   2
  -5   1  -3 184.357 22.2610   0
  -5   1  -4 426.523 23.2395   1
  -5   1  -4 409.869 21.8293   5
  -5   1  -4 439.536 23.2164   2
  -5   1  -4 444.307 28.9630   3
  -5   1  -5-5.37206 25.2634   3
  -5   1  -5 0.16024 17.9476   5
  -5   1  -5-0.85850 20.8664   1
  -5   1  -5 13.9361 21.3376   2
  -5   1  -6 117.438 27.0072   3
  -5   1  -6 91.4491 19.7974   5
  -5   1  -6 112.765 23.7378   1
  -5   1  -6 95.2277 23.4929   2
  -5   1  -7 335.208 28.6749   1
  -5   1  -7 300.097 20.6759   5
  -5   1  -7 320.587 27.7605   2
  -5   1  -7 351.396 28.6639   3
  -5   1  -8-0.90723 25.9989   3
  -5   1  -8 18.9149 26.0200   1
  -5   1  -8-10.0239 26.2450   2
  -5   1  -9 34.3243 27.6844   3
  -5   1  -9 53.9937 30.1758   1
  -5   1  -9 31.9362 28.3730   2
  -5   1 -10 69.4679 28.5797   3
  -5   1 -10 101.469 29.7460   1
  -5   1 -10 108.411 31.7788   2
  -5   1 -11 264.859 33.5975   1
  -5   1 -11 234.351 29.5159   3
  -5   1 -11 220.598 33.4412   2
  -5   1 -12 876.768 39.8998   2
  -5   1 -12 1076.89 42.7389   1
  -5   1 -12 947.917 34.6203   3
  -5   1 -13-4.61934 26.3313   3
  -5   1 -13 3.14888 35.9323   1
  -5   1 -13 12.8824 33.3293   2
  -5   1 -14 174.780 38.3476   1
  -5   1 -14 127.256 34.7835   2
  -5   1 -15 57.5981 35.0229   1
  -5   1 -15 67.5472 37.0987   2
  -5   1 -16 683.597 45.2629   1
  -5   1 -16 787.750 42.9229   2
  -5   1 -17 435.316 41.8192   2
  -5   1 -17 354.702 43.4049   1
  -5   1 -18 16.3206 38.1773   1
  -5   1 -19 151.561 40.5781   1
  -5   0  20 133.579 49.2659   4
  -5   0  19-30.0085 45.1127   4
  -5   0  17 15.9265 41.3980   4
  -5   0  16 38.5125 40.6692   4
  -5   0  15 38.2893 39.9504   4
  -5   0  14-50.7372 38.4818   4
  -5   0  13 62.0869 37.2114   4
  -5   0  12 63.4098 36.0867   6
  -5   0  12-48.8633 34.3834   4
  -5   0  11 896.292 40.8462   6
  -5   0  11 906.022 42.3099   2
  -5   0  11 857.643 38.6127   4
  -5   0  10-33.3344 33.7415   6
  -5   0  10-30.6471 34.3789   2
  -5   0  10 16.1021 29.8152   4
  -5   0   9 3.28675 32.5641   6
  -5   0   9 29.9265 33.0199   2
  -5   0   9-1.85289 28.6486   4
  -5   0   8 6268.01 60.6896   2
  -5   0   8 6121.93 59.5943   6
  -5   0   8 5957.57 52.5258   4
  -5   0   7 828.253 33.9470   2
  -5   0   7 751.677 34.3147   6
  -5   0   7 763.128 27.5877   4
  -5   0   7 744.694 22.3955   3
  -5   0   6 252.373 30.0337   6
  -5   0   6 296.929 29.3830   2
  -5   0   6 291.102 21.7632   4
  -5   0   6 275.332 18.6147   3
  -5   0   5 262.920 27.5895   6
   5   0  -5 247.600 13.4549   1
  -5   0   5 254.220 19.2625   4
  -5   0   5 263.732 19.3153   3
  -5   0   5 287.154 27.4061   2
  -5   0   4 247.248 26.3342   6
  -5   0   4 286.124 26.4715   2
  -5   0   4 237.214 16.9670   4
  -5   0   4 222.877 20.1907   3
  -5   0   3 486.820 30.8167   6
  -5   0   3 527.961 26.9287   2
  -5   0   3 467.616 15.7275   4
  -5   0   3 495.012 23.3978   3
  -5   0   2-19.0101 21.0348   3
  -5   0   2-11.8427 27.5949   6
  -5   0   2-16.1943 22.4499   2
  -5   0   2 3.87885 10.3152   4
  -5   0   1-11.1897 22.0588   3
  -5   0   1 6.64755 22.1740   2
  -5   0   1 19.8846 27.5884   6
  -5   0   0 1717.86 37.5504   6
  -5   0   0 1871.13 33.5679   2
  -5   0   0 1764.94 34.9672   0
  -5   0   0 1799.88 35.3748   3
  -5   0  -1 4193.84 44.5709   0
  -5   0  -1 4446.09 42.7052   2
  -5   0  -2 190.310 25.1637   0
  -5   0  -2 215.723 24.8135   2
  -5   0  -3 277.716 21.3590   1
  -5   0  -3 312.001 25.6287   2
  -5   0  -4 45.3123 21.1350   1
  -5   0  -4 61.8532 23.7849   2
  -5   0  -5 189.241 23.8452   1
  -5   0  -5 165.843 17.4031   5
  -5   0  -5 173.450 25.2812   2
  -5   0  -6 383.101 29.6013   1
  -5   0  -6 356.147 29.2809   2
  -5   0  -7 233.615 27.3106   1
  -5   0  -7 144.962 29.6257   2
  -5   0  -8-28.9702 27.5721   1
  -5   0  -8-31.8085 29.3435   2
  -5   0  -9 877.234 39.3939   1
  -5   0  -9 870.925 37.1156   2
  -5   0 -10 258.594 35.6660   2
  -5   0 -10 241.614 33.0931   1
  -5   0 -11 448.552 38.7644   2
  -5   0 -11 571.161 39.0158   1
  -5   0 -12 236.356 37.3560   1
  -5   0 -12 236.513 36.6719   2
  -5   0 -13 121.434 36.4376   1
  -5   0 -13 136.837 37.4025   2
  -5   0 -14 66.2650 35.1841   1
  -5   0 -14 107.552 38.1813   2
  -5   0 -15-22.9759 42.8315   1
  -5   0 -15 110.225 39.2115   2
  -5   0 -16-59.7531 39.0685   1
  -5   0 -16 126.133 41.1739   2
  -5   0 -17 33.1412 39.0057   1
  -5   0 -17 113.003 41.2711   2
  -5   0 -18 222.541 41.7805   1
  -5   0 -18 102.571 41.4262   2
  -5   0 -19 154.538 43.1384   1
  -5   0 -19 36.2599 43.9209   2
  -5  -1  20 18.1308 46.3534   4
  -5  -1  18 16.8012 40.4922   4
  -5  -1  17 34.6442 40.6775   4
  -5  -1  15 62.3558 40.2409   4
  -5  -1  14 1946.04 52.4875   4
  -5  -1  13 53.2172 39.8358   2
  -5  -1  13-16.3915 38.1982   4
  -5  -1  12 66.5720 31.8847   6
  -5  -1  12 68.6014 39.4608   2
  -5  -1  12 40.5818 34.2795   4
  -5  -1  11 143.939 36.4798   2
  -5  -1  11 124.610 33.0732   6
  -5  -1  11 102.846 31.6979   4
  -5  -1  10 41.9386 29.6162   6
  -5  -1  10 41.8450 34.8147   2
  -5  -1  10 32.2357 28.8064   4
  -5  -1   9 856.603 34.0547   6
  -5  -1   9 896.103 39.0610   2
  -5  -1   9 738.500 32.0397   4
  -5  -1   8 440.519 34.6816   2
  -5  -1   8 365.447 29.5789   6
  -5  -1   8 322.845 26.9521   4
  -5  -1   8 381.455 17.9317   3
  -5  -1   7 102.012 16.3790   3
  -5  -1   7 103.437 27.3428   6
  -5  -1   7 190.974 30.0511   2
  -5  -1   7 141.235 23.3284   4
  -5  -1   6-8.32038 16.9167   3
  -5  -1   6-6.17268 26.2776   6
  -5  -1   6 10.8262 26.9127   2
  -5  -1   6 11.2325 18.6431   4
   5   1  -6 16.8596 13.8890   1
  -5  -1   5 128.654 18.7651   3
  -5  -1   5 145.654 25.1942   6
  -5  -1   5 163.369 27.1980   2
  -5  -1   5 127.985 17.8215   4
  -5  -1   4 826.311 31.9892   6
  -5  -1   4 864.201 31.4605   2
  -5  -1   4 841.093 19.3581   4
  -5  -1   4 800.757 25.0989   3
  -5  -1   3-28.2101 25.5625   6
  -5  -1   3-27.5108 25.5816   2
  -5  -1   3 1.55867 12.4740   4
  -5  -1   2 111.370 26.8927   6
  -5  -1   2 81.4514 25.1795   2
  -5  -1   1 1558.53 35.5201   6
  -5  -1   1 1655.35 34.7083   2
  -5  -1   0 1613.55 33.9917   2
  -5  -1   0 1557.06 33.9477   0
  -5  -1  -1 92.2526 23.9074   0
  -5  -1  -1 133.165 27.3798   2
  -5  -1  -2 1725.99 36.1073   2
  -5  -1  -3 286.249 28.8405   2
  -5  -1  -4 11.2329 20.7721   1
  -5  -1  -4-5.03555 26.5402   2
  -5  -1  -5 187.046 26.9913   1
  -5  -1  -5 183.813 29.4546   2
  -5  -1  -6 56.4543 26.3395   1
  -5  -1  -6-9.01387 30.5242   2
  -5  -1  -7 78.5130 28.4927   1
  -5  -1  -7 92.8816 32.7730   2
  -5  -1  -8 124.011 30.8778   1
  -5  -1  -8 79.2087 34.4681   2
  -5  -1  -9 44.6789 33.8233   1
  -5  -1  -9 17.8515 34.0635   2
  -5  -1 -10 327.604 36.8801   1
  -5  -1 -10 298.491 38.4655   2
  -5  -1 -11 215.005 39.7342   1
  -5  -1 -11 217.731 40.2482   2
  -5  -1 -12 117.297 36.8638   1
  -5  -1 -12 157.326 39.7177   2
  -5  -1 -13 125.671 35.8140   1
  -5  -1 -13 171.923 40.4400   2
  -5  -1 -14 512.303 43.5212   1
  -5  -1 -14 562.341 44.5940   2
  -5  -1 -15 688.602 48.2114   1
  -5  -1 -15 559.203 45.8097   2
  -5  -1 -16 94.5295 40.0107   1
  -5  -1 -16 71.8945 42.9931   2
  -5  -1 -17 113.311 36.5421   1
  -5  -1 -17-6.88522 42.2120   2
  -5  -1 -18 132.097 41.1337   1
  -5  -1 -18 68.3209 44.2914   2
  -5  -1 -19 34.1605 45.1216   2
  -5  -2  21 82.9472 45.1401   4
  -5  -2  20 3.94743 43.5219   4
  -5  -2  19-34.7124 40.7171   4
  -5  -2  18 0.00000 42.5250   4
  -5  -2  17-36.8320 39.4593   4
  -5  -2  16 29.8169 40.6694   4
  -5  -2  15-19.6878 38.2206   4
  -5  -2  14 81.1854 42.1311   2
  -5  -2  14 72.2453 40.1373   4
  -5  -2  13 2328.55 45.2585   6
  -5  -2  13 2190.19 54.7020   2
  -5  -2  13 2165.74 49.3745   4
  -5  -2  12 800.363 35.9169   6
  -5  -2  12 757.079 44.4579   2
  -5  -2  12 724.913 38.5874   4
  -5  -2  11 187.453 38.0466   2
  -5  -2  11 186.581 31.9856   4
  -5  -2  11 217.256 31.8171   6
  -5  -2  10 38.9498 28.2119   6
  -5  -2  10 45.2665 35.4658   2
  -5  -2  10 8.21648 27.8172   4
  -5  -2   9 814.204 31.2010   6
  -5  -2   9 908.344 39.7377   2
  -5  -2   9 762.162 31.4568   4
  -5  -2   8-13.3035 15.7585   3
   5   2  -8 18.4900 16.7487   1
  -5  -2   8 9.92711 31.1316   2
  -5  -2   8 11.6658 24.6280   6
  -5  -2   8-41.6487 23.9671   4
  -5  -2   7 710.655 29.8916   6
  -5  -2   7 744.731 35.2342   2
   5   2  -7 669.455 22.1531   1
  -5  -2   7 636.611 21.7568   3
  -5  -2   6 124.347 24.7406   6
  -5  -2   6 165.851 30.8826   2
   5   2  -6 143.317 18.3383   1
  -5  -2   5 501.864 31.6389   2
  -5  -2   5 500.148 27.6798   6
  -5  -2   4 446.357 30.7457   2
  -5  -2   4 420.300 27.9105   6
  -5  -2   3 222.339 24.7329   6
  -5  -2   3 208.092 27.7823   2
  -5  -2   2 108.383 24.8682   6
  -5  -2   2 94.2653 27.4064   2
  -5  -2   1 242.344 29.3711   2
  -5  -2   0 18285.2 88.8167   2
  -5  -2  -1 10111.6 70.3342   2
  -5  -2  -2 587.366 33.3856   2
  -5  -2  -3 10.5526 29.7734   2
  -5  -2  -4 34.5225 31.6532   2
  -5  -2  -5 83.0194 32.5320   2
  -5  -2  -6-27.3897 34.0354   2
  -5  -2  -7 12.5921 29.1172   1
  -5  -2  -7-46.0609 35.5416   2
  -5  -2  -8 477.247 34.5347   1
  -5  -2  -8 600.227 41.2604   2
  -5  -2  -9-11.5226 30.9173   1
  -5  -2  -9 13.4279 38.5879   2
  -5  -2 -10 696.648 42.0559   1
  -5  -2 -10 606.162 43.4625   2
  -5  -2 -11 451.714 38.1539   1
  -5  -2 -11 510.908 43.9231   2
  -5  -2 -12 955.666 46.4680   1
  -5  -2 -12 1026.78 49.8686   2
  -5  -2 -13 173.282 40.6758   1
  -5  -2 -13 234.564 44.2183   2
  -5  -2 -14-43.7179 39.5221   1
  -5  -2 -14 143.570 43.5771   2
  -5  -2 -15 27.6993 39.5915   1
  -5  -2 -15 142.123 43.2067   2
  -5  -2 -16 9.15214 37.4095   1
  -5  -2 -16 104.067 44.2579   2
  -5  -2 -17 124.014 38.2217   1
  -5  -2 -17 119.437 46.6225   2
  -5  -2 -18 147.810 38.8356   1
  -5  -2 -18 30.6773 45.1575   2
  -5  -3  21 82.9955 44.5731   4
  -5  -3  20 77.6062 44.6755   4
  -5  -3  19 70.1822 41.1698   4
  -5  -3  17 58.0086 40.3977   4
  -5  -3  16 5.16714 39.6685   4
  -5  -3  15 1857.08 44.4827   6
  -5  -3  15 1856.47 54.4044   2
  -5  -3  15 1801.18 50.8181   4
  -5  -3  14 493.337 34.8194   6
  -5  -3  14 352.371 43.1331   2
  -5  -3  14 338.900 40.8356   4
  -5  -3  13 122.793 31.7311   6
  -5  -3  13 62.0805 40.6526   2
  -5  -3  13 48.5273 36.5010   4
  -5  -3  12 88.7118 29.0441   6
  -5  -3  12 88.6303 40.6514   2
  -5  -3  12 73.7815 34.4627   4
  -5  -3  11 181.161 29.3159   6
  -5  -3  11 197.398 38.6195   2
  -5  -3  11 149.250 31.9110   4
  -5  -3  10 60.0464 25.0975   6
  -5  -3  10 30.3081 35.9812   2
   5   3  -9 34.7155 20.6689   1
  -5  -3   9 10.3507 34.9458   2
  -5  -3   9 60.2889 24.3007   6
  -5  -3   8 0.77677 23.5326   6
  -5  -3   8 20.1073 33.0440   2
   5   3  -8 8.37846 19.7607   1
   5   3  -7 32.4125 19.5762   1
  -5  -3   7 41.5720 22.2562   6
  -5  -3   7 47.2648 32.9994   2
  -5  -3   6 343.473 25.0873   6
  -5  -3   6 339.688 33.5467   2
  -5  -3   5 12.6541 23.0713   6
  -5  -3   5-10.8164 28.7410   2
  -5  -3   4 16.9261 21.7946   6
  -5  -3   4-1.82154 28.8443   2
  -5  -3   3 354.311 24.6428   6
  -5  -3   3 347.785 31.1761   2
  -5  -3   2 1297.77 38.0836   2
  -5  -3   1 189.946 31.7839   2
  -5  -3   0 87.3738 33.8380   2
  -5  -3  -1 7530.93 66.1482   2
  -5  -3  -2 3193.45 50.0567   2
  -5  -3  -3 83.6654 33.9729   2
  -5  -3  -4 56.2403 34.0641   2
  -5  -3  -5 5.39131 35.5871   2
  -5  -3  -6-51.0809 36.3136   2
  -5  -3  -7-17.7413 38.6648   2
  -5  -3  -8 2.11936 41.3987   2
  -5  -3  -9 1062.47 48.4590   2
  -5  -3 -10 293.981 44.2392   2
  -5  -3 -11 32.5870 41.4771   2
  -5  -3 -12 241.893 38.9075   1
  -5  -3 -12 208.790 38.9979   2
  -5  -3 -13 47.3235 39.5504   1
  -5  -3 -13 54.9057 41.5295   2
  -5  -3 -14 111.170 39.8694   1
  -5  -3 -14 50.8945 44.0928   2
  -5  -3 -15 138.266 39.6275   1
  -5  -3 -15 5.19657 47.0598   2
  -5  -3 -16 128.476 39.9758   1
  -5  -3 -16-4.34798 45.3822   2
  -5  -3 -17 107.187 36.7658   1
  -5  -3 -17 20.3185 46.2039   2
  -5  -4  22-28.5338 45.9742   4
  -5  -4  21 126.724 44.5101   4
  -5  -4  20-29.6116 42.8342   4
  -5  -4  19 1.69472 39.2400   4
  -5  -4  18 116.443 40.6703   4
  -5  -4  17 51.3373 42.4255   2
  -5  -4  17 9.53714 38.7447   4
  -5  -4  16 82.6160 43.3004   2
  -5  -4  16 206.562 40.6143   4
  -5  -4  15 62.1634 42.5767   2
  -5  -4  15 40.7503 39.0122   4
  -5  -4  14 320.491 30.4289   6
  -5  -4  14 340.076 43.9027   2
  -5  -4  14 247.958 39.4373   4
  -5  -4  13 64.6678 28.5901   6
  -5  -4  13 113.946 40.7828   2
  -5  -4  13 44.6741 34.7408   4
  -5  -4  12 23.7547 26.7507   6
  -5  -4  12 21.1650 38.7541   2
  -5  -4  11 75.2334 24.7025   6
  -5  -4  11 41.2888 38.7193   2
  -5  -4  10-4.88677 23.3876   6
   5   4 -10-8.63854 22.8572   1
  -5  -4  10 5.71590 37.1296   2
  -5  -4   9 822.519 29.0317   6
   5   4  -9 752.665 30.0189   1
  -5  -4   9 931.997 43.0214   2
  -5  -4   8 1292.00 43.8907   2
  -5  -4   8 1119.21 29.2871   6
   5   4  -8 1090.92 31.6242   1
  -5  -4   7-10.7222 22.1201   6
   5   4  -7 10.2962 22.6687   1
  -5  -4   7-31.2077 33.4616   2
  -5  -4   6 40.0846 20.7524   6
  -5  -4   6 59.8044 32.4557   2
  -5  -4   5 79.4773 21.3858   6
  -5  -4   5 53.8301 32.6895   2
  -5  -4   4 30.3024 21.2212   6
  -5  -4   4-0.28962 31.7047   2
  -5  -4   3 393.132 34.5260   2
  -5  -4   2 152.370 32.2803   2
  -5  -4   1 550.114 38.0092   2
  -5  -4   0 326.393 37.5853   2
  -5  -4  -1 1129.78 42.7604   2
  -5  -4  -2 327.704 38.2103   2
  -5  -4  -3 667.953 41.5842   2
  -5  -4  -4 66.4831 38.5150   2
  -5  -4  -5 81.7285 40.4791   2
  -5  -4  -6 45.2033 41.4960   2
  -5  -4  -7 784.145 48.0634   2
  -5  -4  -8 1584.50 53.5472   2
  -5  -4  -9 121.198 42.8761   2
  -5  -4 -10-22.3546 43.4565   2
  -5  -4 -11 349.180 46.6045   2
  -5  -4 -12-35.2043 44.0285   2
  -5  -4 -13 72.6878 47.2888   2
  -5  -4 -14 69.6341 45.4176   2
  -5  -4 -15 92.3919 47.5009   2
  -5  -4 -16 215.818 49.1124   2
  -5  -5  21 85.9331 43.9590   4
  -5  -5  20 75.8018 41.9530   4
  -5  -5  19 36.3711 40.7909   4
  -5  -5  18 10.9975 40.6128   2
  -5  -5  18 59.3195 39.9156   4
  -5  -5  17 3.01198 40.7252   2
  -5  -5  17 76.1497 39.3785   4
  -5  -5  16 1488.24 53.1191   2
  -5  -5  16 1505.35 49.7588   4
  -5  -5  15 267.355 41.9142   2
  -5  -5  14 34.9363 39.6982   2
  -5  -5  13 94.3392 40.3225   2
   5   5 -12 121.610 26.7878   1
  -5  -5  12 141.041 40.2485   2
   5   5 -11 145.287 26.0395   1
  -5  -5  11 119.332 40.1371   2
  -5  -5  10 9.31128 37.8615   2
   5   5 -10-13.6968 26.5090   1
  -5  -5   9 126.193 38.4302   2
   5   5  -9 77.1489 25.1615   1
  -5  -5   8 714.808 42.1496   2
   5   5  -8 559.467 31.5130   1
  -5  -5   7 21.2414 35.2381   2
   5   5  -7 3.17646 25.3615   1
  -5  -5   6 1.18407 35.5433   2
  -5  -5   5 9.58490 18.6093   6
  -5  -5   5 2.92968 34.4385   2
  -5  -5   4 23.0053 34.3295   2
  -5  -5   3 34.6401 34.2785   2
  -5  -5   2 14.2472 34.9810   2
  -5  -5   1 10.6962 37.2997   2
  -5  -5   0 133.044 38.2095   2
  -5  -5  -1 26.0893 37.1937   2
  -5  -5  -2 138.188 39.0927   2
  -5  -5  -3 7.75945 40.8889   2
  -5  -5  -4 1269.62 49.5489   2
  -5  -5  -5 135.954 44.9261   2
  -5  -5  -6 905.288 49.7095   2
  -5  -5  -7 44.7708 43.5983   2
  -5  -5  -8-10.8224 42.5460   2
  -5  -5  -9-28.6967 46.1057   2
  -5  -5 -10-34.0377 44.5150   2
  -5  -5 -11 32.2382 45.0445   2
  -5  -5 -12-3.19265 44.6708   2
  -5  -5 -13 107.262 47.0762   2
  -5  -5 -14 349.258 52.6911   2
  -5  -6  22 20.0267 44.7446   4
  -5  -6  20 47.2111 41.5539   4
  -5  -6  19 33.3444 40.2403   2
  -5  -6  19-32.8319 39.6361   4
  -5  -6  18-45.7414 40.4244   2
  -5  -6  18-39.7509 38.3168   4
  -5  -6  17 60.8494 38.0916   4
  -5  -6  16-26.6796 41.1686   2
  -5  -6  15 305.766 41.4842   2
  -5  -6  14 90.9460 40.6973   2
   5   6 -13 63.6123 27.1144   1
  -5  -6  13 86.5610 38.2890   2
   5   6 -12 52.1485 29.7379   1
  -5  -6  12 21.1456 38.6244   2
  -5  -6  11-9.18936 38.2213   2
   5   6 -11 23.5554 29.0403   1
  -5  -6  10-26.0669 38.4335   2
   5   6 -10-26.9229 28.2112   1
  -5  -6   9 619.862 42.5502   2
   5   6  -9 417.749 33.3200   1
   5   6  -8 5.01470 29.2990   1
  -5  -6   8 79.2954 38.5903   2
  -5  -6   7-15.9585 36.2631   2
  -5  -6   6 40.8371 35.9150   2
  -5  -6   5 4.52409 36.9443   2
  -5  -6   4-16.7323 38.3208   2
  -5  -6   3 17.6336 37.5345   2
  -5  -6   2-15.8839 38.6092   2
  -5  -6   1-5.21949 40.0549   2
  -5  -6   0 43.3807 40.5679   2
  -5  -6  -1 15.8185 40.9597   2
  -5  -6  -2 33.7381 41.8517   2
  -5  -6  -3 268.783 44.9537   2
  -5  -6  -4 1009.68 50.2638   2
  -5  -6  -5 59.7457 41.8963   2
  -5  -6  -6 615.515 47.3299   2
  -5  -6  -7 622.672 49.8935   2
  -5  -6  -8 26.2070 46.1461   2
  -5  -6 -10-50.7471 46.8035   2
  -5  -6 -11 69.9126 48.0376   2
  -5  -6 -14 94.1240 51.2155   2
  -5  -7  21-5.61622 43.6007   4
  -5  -7  20 3.09147 39.6805   2
  -5  -7  20 62.9589 43.2253   4
  -5  -7  19-1.73251 41.2908   4
  -5  -7  17-5.73737 39.9133   2
  -5  -7  16 91.6978 41.2055   2
  -5  -7  15 139.755 41.7586   2
   5   7 -14-62.3960 29.4207   1
  -5  -7  14 45.9878 39.4593   2
   5   7 -13 32.2586 29.6657   1
  -5  -7  13 76.9997 39.2557   2
   5   7 -12-20.3355 31.6958   1
  -5  -7  12 74.6239 40.1043   2
  -5  -7  11 0.20641 39.5791   2
   5   7 -11 16.6700 28.9205   1
  -5  -7  10 136.883 40.2988   2
   5   7 -10 141.902 33.5561   1
   5   7  -9-10.7628 29.4470   1
  -5  -7   9 9.04996 38.4327   2
   5   7  -8 538.116 38.6693   1
  -5  -7   8 738.992 42.9867   2
  -5  -7   7 210.889 39.5767   2
  -5  -7   6-11.8296 37.6693   2
  -5  -7   5 131.553 38.6559   2
  -5  -7   4 105.975 39.3372   2
  -5  -7   3 27.9753 38.0166   2
  -5  -7   2-22.8096 41.4957   2
  -5  -7   1 663.907 47.0751   2
  -5  -7   0 1375.65 52.5608   2
  -5  -7  -1 61.8376 42.7459   2
  -5  -7  -2 50.7656 43.6746   2
  -5  -7  -3 307.665 45.0572   2
  -5  -7  -4 195.867 43.0810   2
  -5  -7  -5 61.1795 41.7298   2
  -5  -7  -6-32.6497 42.5916   2
  -5  -7  -7 85.6129 45.3407   2
  -5  -7  -8 129.756 47.5880   2
  -5  -7  -9-35.8405 48.9468   2
  -5  -7 -11-51.9219 48.2531   2
  -5  -7 -12 62.5589 49.8821   2
  -5  -7 -13 92.1511 52.3457   2
  -5  -8  21-36.0911 43.3864   4
  -5  -8  17 45.0765 39.3645   2
  -5  -8  16 23.6998 40.0904   2
   5   8 -15 201.989 35.0950   1
  -5  -8  15 249.167 42.7539   2
   5   8 -14-31.9555 32.6135   1
  -5  -8  14 34.0813 39.7753   2
   5   8 -13 33.3549 33.6240   1
  -5  -8  13 11.9753 38.2753   2
  -5  -8  12 17.6314 37.4682   2
   5   8 -12 33.5984 33.0121   1
  -5  -8  11 51.2733 40.6246   2
   5   8 -11 12.7616 31.5646   1
  -5  -8  10 708.199 45.1663   2
   5   8 -10 443.080 35.9144   1
   5   8  -9 4.00233 32.1303   1
  -5  -8   9-44.0677 39.4475   2
   5   8  -8 58.1991 33.3772   1
  -5  -8   8-47.4039 39.0596   2
  -5  -8   7 276.557 40.5604   2
  -5  -8   6 5.69967 39.9243   2
  -5  -8   5 454.991 44.7181   2
  -5  -8   4 247.260 43.3836   2
  -5  -8   3 1877.21 53.5383   2
  -5  -8   2 1406.58 51.8695   2
  -5  -8   1 368.608 47.0690   2
  -5  -8   0-15.2858 42.8017   2
  -5  -8  -1 104.773 43.8162   2
  -5  -8  -2 1009.45 50.1954   2
  -5  -8  -3 2.02962 43.1191   2
  -5  -8  -4 55.9066 42.4678   2
  -5  -8  -5 270.168 45.2974   2
  -5  -8  -6 119.920 45.5195   2
  -5  -8  -7-23.4007 46.3787   2
  -5  -8  -8 49.5755 48.3306   2
  -5  -8 -11 40.2548 49.7098   2
  -5  -9  20-35.9097 38.9532   2
  -5  -9  18 55.4262 39.5675   2
  -5  -9  17-42.3971 38.8034   2
  -5  -9  16-39.4929 41.4710   2
   5   9 -16 92.5114 36.7150   1
   5   9 -15 91.9846 32.4949   1
  -5  -9  15-18.7528 41.6367   2
   5   9 -14 297.476 38.6108   1
  -5  -9  14 142.437 40.1546   2
   5   9 -13 24.6135 36.8446   1
  -5  -9  13 110.562 41.2186   2
  -5  -9  12 215.279 41.2221   2
   5   9 -12 111.881 36.7037   1
  -5  -9  11 51.5863 40.2994   2
   5   9 -11 60.4268 34.2990   1
  -5  -9  10 47.2251 40.0956   2
   5   9 -10 31.0773 34.7189   1
  -5  -9   9 512.309 42.8878   2
   5   9  -9 448.240 41.5499   1
   5   9  -8 133.248 39.0809   1
  -5  -9   8 160.673 41.1028   2
  -5  -9   7 225.296 42.1705   2
  -5  -9   6 246.926 42.2852   2
  -5  -9   5 1302.25 52.8638   2
  -5  -9   4 410.750 45.1958   2
  -5  -9   3 914.535 48.6677   2
  -5  -9   2 761.433 48.4165   2
  -5  -9   1-41.8175 43.4013   2
  -5  -9  -1 63.4560 43.7755   2
  -5  -9  -2-10.6967 44.3260   2
  -5  -9  -3 50.5270 42.9779   2
  -5  -9  -4 223.120 47.4836   2
  -5  -9  -5 222.368 46.4244   2
  -5  -9  -6 188.803 47.7925   2
  -5  -9  -7 80.1967 46.0171   2
  -5  -9  -8-50.1078 45.2791   2
  -5  -9  -9 24.8494 49.8638   2
  -5 -10  19 24.5819 36.7455   2
  -5 -10  18 159.387 39.5259   2
  -5 -10  17 83.3751 39.7620   2
  -5 -10  16 167.667 42.0535   2
  -5 -10  15 347.981 45.0891   2
   5  10 -15 219.155 38.4416   1
   5  10 -14 108.563 39.3849   1
  -5 -10  14 205.295 41.2123   2
   5  10 -13 34.9864 36.9379   1
  -5 -10  13 70.9885 40.5566   2
  -5 -10  12 1027.02 50.3319   2
   5  10 -12 884.616 47.1188   1
  -5 -10  11 71.1083 41.7303   2
   5  10 -11 107.974 37.0357   1
  -5 -10  10 7.55969 39.6956   2
   5  10 -10 35.9276 38.9385   1
   5  10  -9 55.2479 38.3285   1
  -5 -10   9-27.2716 39.3039   2
   5  10  -8 31.3430 38.6689   1
  -5 -10   8 30.1647 39.2288   2
  -5 -10   7 241.130 42.7258   2
  -5 -10   6 94.3135 41.1258   2
  -5 -10   5 36.0706 40.7112   2
  -5 -10   4 382.769 44.0807   2
  -5 -10   3 62.2162 42.7022   2
  -5 -10   2 152.431 44.3200   2
  -5 -10   1-47.1420 43.2414   2
  -5 -10   0-59.0356 44.3337   2
  -5 -10  -1 290.798 47.1585   2
  -5 -10  -2 156.041 45.5437   2
  -5 -10  -3 24.9295 44.8639   2
  -5 -10  -4 58.1703 46.3017   2
  -5 -10  -5 235.923 48.2865   2
  -5 -10  -6 291.283 47.0519   2
  -5 -10  -7 83.3221 49.8951   2
  -5 -10  -8 150.863 48.2314   2
  -5 -11  19 81.1335 40.3093   2
   5  11 -18 112.813 40.3237   1
   5  11 -17 170.469 38.6080   1
   5  11 -16 145.585 37.8476   1
  -5 -11  16-40.3376 38.2515   2
   5  11 -15 265.402 40.2176   1
  -5 -11  15 89.4758 40.5929   2
   5  11 -14 283.683 41.3855   1
  -5 -11  14 205.439 44.8855   2
  -5 -11  13 69.6459 41.4670   2
   5  11 -13 80.1095 38.3111   1
  -5 -11  12 142.924 43.1509   2
   5  11 -12 222.880 40.4354   1
  -5 -11  11-44.1627 40.2188   2
   5  11 -11 18.2184 40.5578   1
  -5 -11  10 85.7810 39.7822   2
   5  11 -10 157.980 42.4646   1
   5  11  -9 100.725 41.0178   1
  -5 -11   9-23.5005 39.7868   2
   5  11  -8 89.8360 40.7581   1
  -5 -11   8 42.0180 39.8001   2
  -5 -11   7 6.38971 39.7077   2
  -5 -11   6 35.6264 39.3426   2
  -5 -11   5 125.708 42.8508   2
  -5 -11   4-10.6126 40.6588   2
  -5 -11   3 97.8650 42.3888   2
  -5 -11   1 162.286 46.6708   2
  -5 -11   0 31.1904 43.8309   2
  -5 -11  -1 88.4615 45.2248   2
  -5 -11  -2 77.7853 43.1101   2
  -5 -11  -3 56.0804 47.7406   2
  -5 -11  -4 193.634 47.6666   2
  -5 -11  -5-13.2282 50.5364   2
  -5 -11  -6 108.314 50.0196   2
  -5 -12  19 227.469 41.8274   2
  -5 -12  18 151.875 43.7008   2
  -5 -12  17 145.483 39.5747   2
  -5 -12  16 107.080 41.5725   2
   5  12 -16 1.02387 39.4326   1
   5  12 -15 101.857 41.3028   1
  -5 -12  15 28.3906 39.4898   2
  -5 -12  14 64.9634 39.3634   2
  -5 -12  13 83.7469 40.5131   2
   5  12 -13-23.3265 41.0880   1
  -5 -12  12 141.417 41.2867   2
   5  12 -12 52.3815 41.1776   1
  -5 -12  11 158.330 43.5448   2
   5  12 -11 146.604 43.2830   1
  -5 -12  10 99.3345 42.0956   2
   5  12 -10 95.3531 42.4114   1
   5  12  -9 282.619 46.3330   1
  -5 -12   9 314.433 43.4330   2
   5  12  -8 268.200 45.9476   1
  -5 -12   8 287.020 43.4585   2
  -5 -12   7 25.2362 41.2740   2
  -5 -12   6 58.7583 41.7665   2
  -5 -12   5 63.1139 41.3728   2
  -5 -12   4 30.4629 41.2451   2
  -5 -12   3 36.1828 41.2555   2
  -5 -12   2-16.4901 43.6386   2
  -5 -12   1-14.0899 42.3872   2
  -5 -12   0 336.077 46.6768   2
  -5 -12  -1 101.723 47.3368   2
  -5 -12  -2 67.9856 46.9928   2
  -5 -12  -3 145.536 45.3978   2
  -5 -12  -4-51.1889 47.3345   2
  -5 -13  18 91.9745 41.4081   2
  -5 -13  17 62.1884 40.8666   2
   5  13 -17 21.3853 40.9086   1
  -5 -13  16 17.4288 41.3456   2
   5  13 -15-15.9299 39.7870   1
  -5 -13  15 77.5900 40.0654   2
  -5 -13  14 27.5148 40.1075   2
  -5 -13  13 54.3912 39.4254   2
  -5 -13  12 164.918 39.4985   2
   5  13 -12 43.6167 40.9071   1
  -5 -13  11 243.843 42.7731   2
   5  13 -11 219.639 43.1434   1
  -5 -13  10 452.981 45.1360   2
   5  13 -10 411.785 46.6131   1
   5  13  -9 19.3200 42.1564   1
  -5 -13   9 61.1098 41.6368   2
  -5 -13   8-2.04930 39.5194   2
   5  13  -7 64.4281 42.2909   1
  -5 -13   7 35.1152 41.9681   2
  -5 -13   6 140.379 40.2359   2
  -5 -13   5 52.0050 41.9487   2
  -5 -13   1 77.4032 43.1158   2
  -5 -13  -1 43.3297 44.9061   2
  -5 -14  15 9.58883 39.9117   2
  -5 -14  13-46.6084 41.4005   2
  -5 -14  12 39.0899 41.0883   2
   5  14 -12-16.8990 44.5012   1
  -5 -14  11 67.7757 41.7171   2
   5  14 -11 106.081 43.3693   1
  -5 -14  10 87.5951 42.7867   2
   5  14 -10 113.802 45.5742   1
  -5 -14   9 311.226 46.4775   2
   5  14  -9 98.3721 45.4612   1
   5  14  -8 122.244 45.4887   1
  -5 -14   8 121.387 43.6789   2
   5  14  -7 199.482 46.3673   1
  -5 -14   7 101.781 43.4923   2
  -5 -14   6 102.253 42.2351   2
  -5 -14   4-37.9200 43.9979   2
  -5 -14   3-26.9932 42.2087   2
  -5 -14   2 84.5517 44.4236   2
  -5 -15  11 53.8087 41.7462   2
  -5 -15  10 155.482 42.3328   2
  -5 -15   9 58.3788 42.3983   2
  -5 -15   8 141.239 41.8327   2
  -5 -15   7 111.653 44.6771   2
  -5 -15   6 8.06178 44.3791   2
  -6  16   0 2.89743 50.2444   4
  -6  16  -2 30.8145 41.5899   5
  -6  16  -2 11.9047 48.3578   4
  -6  16  -3 95.7893 42.8923   5
  -6  16  -3 174.730 50.9275   4
  -6  16  -4-24.8645 48.7337   4
  -6  16  -6 19.5545 44.2435   5
  -6  16  -7 78.2591 45.3376   5
  -6  16  -9 120.389 51.5809   5
  -6  15   3-21.9968 53.9414   4
  -6  15   2 199.383 50.7833   4
  -6  15   0 83.8554 37.0475   5
  -6  15   0 84.1126 47.2058   4
  -6  15  -1-32.9154 37.6731   5
  -6  15  -1 0.71825 46.0951   4
  -6  15  -3-29.3528 46.8664   5
  -6  15  -3-27.1792 44.8358   4
  -6  15  -5 10.2513 43.1739   5
  -6  15  -6-0.71496 42.2088   5
  -6  15  -7-14.0478 44.1400   5
  -6  15  -8 17.4646 44.8201   5
  -6  15  -9-53.3362 45.4319   5
  -6  15 -11 183.291 47.6914   5
  -6  15 -12 31.3709 48.8630   5
  -6  15 -13 48.4926 49.8559   5
  -6  14   5 163.360 53.1968   4
  -6  14   4 104.902 49.2401   4
  -6  14   3-8.87991 49.1571   4
  -6  14   2 55.8412 47.8155   4
  -6  14   1-22.2318 37.0958   5
  -6  14   1 1.53938 45.7361   4
  -6  14   0 98.6044 38.2526   5
  -6  14  -1 65.2088 38.8374   5
  -6  14  -1 17.2237 42.2025   4
  -6  14  -2 49.2259 39.9050   5
  -6  14  -3-23.2545 41.3596   5
  -6  14  -3 77.4127 42.3519   4
  -6  14  -4 32.7318 41.6587   4
  -6  14  -5 12.4983 41.9824   5
  -6  14  -6 87.1796 43.8482   5
  -6  14  -7 16.9213 44.8367   5
  -6  14  -8 61.9519 45.9047   5
  -6  14 -10 178.904 46.7990   5
  -6  14 -11 127.155 45.9447   5
  -6  14 -12-11.6484 45.8186   5
  -6  14 -13 160.701 46.5817   5
  -6  14 -14 36.7719 44.2326   5
  -6  14 -15 22.1754 42.9445   5
  -6  14 -16-31.4162 36.2871   1
  -6  14 -16 275.118 45.7599   5
  -6  14 -17 216.126 41.4095   1
  -6  13   7 7.82078 49.3597   4
  -6  13   6 137.437 48.0326   4
  -6  13   5-15.4148 48.1332   4
  -6  13   4 349.832 50.9866   4
  -6  13   3 177.359 38.0476   5
  -6  13   3 221.728 48.1053   4
  -6  13   2-4.21439 36.7431   5
  -6  13   1-42.3096 37.7423   5
  -6  13   1 0.21088 42.9222   4
  -6  13   0-22.4035 37.3875   5
  -6  13   0 37.2449 42.1819   4
  -6  13  -1 88.3697 37.9754   5
  -6  13  -1 46.8233 42.1504   4
  -6  13  -2 105.363 39.8828   5
  -6  13  -2 56.4236 39.2455   4
  -6  13  -3 47.0459 39.4695   4
  -6  13  -4 1.01605 42.5331   5
  -6  13  -5 109.149 42.4064   5
  -6  13  -6 77.6822 43.6211   5
  -6  13  -7 96.9881 45.5010   5
  -6  13  -8 55.4219 43.3159   5
  -6  13  -9-7.39550 44.2743   5
  -6  13 -10 113.469 44.8868   5
  -6  13 -11 111.329 46.7090   5
  -6  13 -12 108.489 46.0990   5
  -6  13 -13 95.7484 44.7696   5
  -6  13 -14 262.456 46.5800   5
  -6  13 -15 121.372 44.4063   5
  -6  13 -16 173.698 38.0104   1
  -6  13 -16 191.458 44.1313   5
  -6  13 -17 18.4894 39.7818   1
  -6  13 -17 262.957 44.3195   5
  -6  13 -18 141.744 40.4790   1
  -6  13 -18-38.3240 40.4212   5
  -6  12   9 52.6452 49.1428   4
  -6  12   8 154.098 50.7998   4
  -6  12   7-33.3028 45.2747   4
  -6  12   6 1.35045 45.6478   4
  -6  12   5 69.0793 44.1596   4
  -6  12   4-19.9098 36.0715   5
  -6  12   4 38.5613 42.5667   4
  -6  12   3-47.4569 36.4407   5
  -6  12   3 92.3208 42.8096   4
  -6  12   2-23.4052 37.3401   5
  -6  12   2-32.8331 41.2807   4
  -6  12   1-43.8854 36.1810   5
  -6  12   1-20.7838 41.9433   4
  -6  12   0 242.302 39.9503   5
  -6  12   0 123.977 40.8035   4
  -6  12  -1 29.1161 38.3404   5
  -6  12  -2 21.0676 39.4653   5
  -6  12  -2-1.62280 38.6639   4
  -6  12  -3 14.4333 41.4675   5
  -6  12  -3 24.5106 36.8918   4
  -6  12  -4 105.564 42.8966   5
  -6  12  -5 31.1152 42.0319   5
  -6  12  -6 18.8394 41.8184   5
  -6  12  -7 31.0409 43.1445   5
  -6  12  -8 78.2054 44.5263   5
  -6  12  -9 74.7208 43.6654   5
  -6  12 -10 112.317 46.0759   5
  -6  12 -11 8.28250 44.1969   5
  -6  12 -12 353.909 45.6793   5
  -6  12 -13-28.2014 33.2798   1
  -6  12 -13 30.2678 41.7299   5
  -6  12 -14 37.1618 41.5097   5
  -6  12 -14 19.0928 31.4827   1
  -6  12 -15 30.6811 36.9675   1
  -6  12 -15 224.528 42.7161   5
  -6  12 -16 155.965 37.0245   1
  -6  12 -16 319.963 43.8800   5
  -6  12 -17 143.961 40.2747   1
  -6  12 -17 127.573 39.2477   5
  -6  12 -18-17.2045 36.4634   1
  -6  12 -19-36.1753 38.6909   1
  -6  12 -19 37.8056 39.4993   5
  -6  11  11 173.219 41.4161   6
  -6  11  11 205.369 54.0831   4
  -6  11  10-34.8071 36.7839   6
  -6  11   9 207.261 36.3085   6
  -6  11   9 122.820 47.5530   4
  -6  11   8-34.4855 33.5718   6
  -6  11   8-1.10698 47.3989   4
  -6  11   7 180.551 34.1839   6
  -6  11   7 83.5308 44.7181   4
  -6  11   6 27.0015 43.9327   4
  -6  11   5 41.0688 33.2850   6
  -6  11   5 63.3522 42.5524   4
  -6  11   4 51.4023 31.7680   6
  -6  11   4 121.459 36.3411   5
  -6  11   4 78.4342 41.1375   4
  -6  11   3 102.760 31.6920   6
  -6  11   3 8.95164 36.0453   5
  -6  11   3 87.8052 40.0096   4
  -6  11   2 49.8469 31.4330   6
  -6  11   2-17.9128 37.3490   5
  -6  11   2 46.8912 39.4586   4
  -6  11   1-34.1145 38.2905   5
  -6  11   1 15.7757 39.4880   4
  -6  11   1 37.0654 35.5135   6
  -6  11   0 416.242 35.3352   6
  -6  11   0 393.306 42.0204   5
  -6  11   0 313.255 42.4031   4
  -6  11  -1 423.996 36.6048   6
  -6  11  -1 330.194 42.3616   5
  -6  11  -1 387.037 38.8827   4
  -6  11  -2 42.3198 31.9295   6
  -6  11  -2-4.60398 41.1667   5
  -6  11  -2 0.60507 35.7464   4
  -6  11  -3 158.404 43.1283   5
  -6  11  -4 223.587 42.5223   5
  -6  11  -5 248.796 44.0744   5
  -6  11  -6 5.72843 40.6290   5
  -6  11  -7 68.8183 42.0352   5
  -6  11  -8 8.87762 43.3052   5
  -6  11  -9 35.8104 44.5133   5
  -6  11 -10 332.586 46.5736   5
  -6  11 -11 32.1625 41.5761   5
  -6  11 -12 39.5138 32.0053   1
  -6  11 -12 99.6255 43.5497   5
  -6  11 -13 220.052 34.2516   1
  -6  11 -13 191.132 43.5045   5
  -6  11 -14-24.4506 34.2453   1
  -6  11 -14 79.8965 40.1688   5
  -6  11 -15 71.1661 34.8498   1
  -6  11 -15 156.685 38.8804   5
  -6  11 -16 117.474 40.0677   5
  -6  11 -17 22.4793 36.5037   5
  -6  11 -17-41.0854 35.1440   1
  -6  11 -18-15.8642 34.9652   1
  -6  11 -18 1.00548 39.9884   5
  -6  11 -19 58.0895 38.1219   1
  -6  10  12 109.207 51.6455   4
  -6  10  11 149.619 37.2013   6
  -6  10  11-20.9865 47.1499   4
  -6  10  10 85.8920 38.7969   6
  -6  10  10 60.1912 48.3149   4
  -6  10   9 36.2915 42.7469   4
  -6  10   8 146.126 34.0290   6
  -6  10   8 6.36981 43.6518   4
  -6  10   7 62.5313 34.5862   6
  -6  10   7 221.395 43.2555   4
  -6  10   6 41.2167 34.0405   6
  -6  10   6 20.0684 41.2777   4
  -6  10   5 241.892 42.6662   4
  -6  10   5 215.739 35.3342   6
  -6  10   4-29.5832 34.3463   5
  -6  10   4 4.19888 37.6323   4
  -6  10   3 118.996 32.8410   6
  -6  10   3 89.3696 36.9068   5
  -6  10   3 124.564 38.0401   4
  -6  10   2 387.605 34.1585   6
  -6  10   2 324.101 40.2757   5
  -6  10   2 350.871 40.0256   4
  -6  10   1-16.5058 36.0875   6
  -6  10   1 8.16301 38.2593   5
  -6  10   1 68.8817 38.0448   4
  -6  10   0 56.6710 35.3384   6
  -6  10   0 58.6570 40.4836   5
  -6  10   0 73.3488 34.8983   4
  -6  10  -1 179.114 35.7729   6
  -6  10  -1 102.276 40.8569   5
  -6  10  -1 118.737 34.8004   4
  -6  10  -2 31.2938 34.5965   6
  -6  10  -2-15.6595 41.0912   5
  -6  10  -3 221.534 36.0145   6
  -6  10  -3 271.313 42.1518   5
  -6  10  -4 491.934 36.2767   6
  -6  10  -4 612.756 46.4040   5
  -6  10  -5 45.2087 32.6621   6
  -6  10  -5-31.2256 41.8372   5
  -6  10  -6 30.0304 41.3629   5
  -6  10  -7 759.571 46.4622   5
  -6  10  -8 168.184 43.0835   5
  -6  10  -9 74.6414 42.5564   5
  -6  10 -10 1474.05 40.5783   1
  -6  10 -10 1633.12 55.5803   5
  -6  10 -11 3033.86 54.8531   1
  -6  10 -11 3400.10 66.1285   5
  -6  10 -12 25.3962 31.5886   1
  -6  10 -12 116.555 42.1315   5
  -6  10 -13 77.7325 32.4928   1
  -6  10 -13 21.8084 40.0509   5
  -6  10 -14-56.6452 34.0675   1
  -6  10 -14 31.0833 38.6860   5
  -6  10 -15-53.5333 32.5895   1
  -6  10 -15 118.491 38.7626   5
  -6  10 -16 5.14569 36.2879   1
  -6  10 -16 134.000 37.4436   5
  -6  10 -17 52.3045 34.8190   1
  -6  10 -17 78.8148 36.0639   5
  -6  10 -19 182.238 40.5495   1
  -6   9  13 319.673 44.1979   6
  -6   9  13 255.436 53.0462   4
  -6   9  12 89.2717 48.7189   4
  -6   9  10 155.936 40.0948   6
  -6   9  10-40.6989 45.4114   4
  -6   9   9-40.1696 36.1532   6
  -6   9   9 65.0879 43.7582   4
  -6   9   8 64.2349 37.3891   6
  -6   9   8-18.5799 41.4285   4
  -6   9   7 46.4342 41.1242   4
  -6   9   7 7.58026 34.4839   6
  -6   9   6 84.4894 34.1618   6
  -6   9   6-25.5139 38.5159   4
  -6   9   5 795.289 43.8315   6
  -6   9   5 778.469 43.8052   4
  -6   9   4 469.918 38.2772   6
  -6   9   4 525.591 41.0506   5
  -6   9   4 545.894 39.1146   4
  -6   9   3 89.6829 36.9661   6
  -6   9   3 163.965 38.3715   5
  -6   9   3 149.031 36.0647   4
  -6   9   2 317.295 36.7610   6
  -6   9   2 371.292 41.0661   5
  -6   9   2 355.358 35.6830   4
  -6   9   1-7.18779 37.7314   6
  -6   9   1-6.20312 39.8216   5
  -6   9   1-5.65163 36.2594   4
  -6   9   0 1922.55 48.7303   6
  -6   9   0 1908.83 53.0548   5
  -6   9   0 1703.18 45.2045   4
  -6   9  -1 292.461 38.7924   6
  -6   9  -1 373.264 43.6133   5
  -6   9  -1 254.236 35.5985   4
  -6   9  -2 388.688 43.5706   5
  -6   9  -2 261.021 37.4622   6
  -6   9  -3 1592.21 46.5037   6
  -6   9  -3 1818.34 53.4128   5
  -6   9  -4 926.955 42.5513   6
  -6   9  -4 944.331 47.8719   5
  -6   9  -5 21.5516 42.2833   5
  -6   9  -6 49.4170 42.0580   5
  -6   9  -7 172.139 42.9094   5
  -6   9  -8 107.015 40.9960   5
  -6   9  -9 712.684 34.5472   1
  -6   9  -9 773.760 46.4038   5
  -6   9 -10 15.2178 30.6285   1
  -6   9 -10 79.5998 42.2552   5
  -6   9 -11 5.98305 30.5069   1
  -6   9 -11 12.1712 40.9645   5
  -6   9 -12 135.432 32.3243   1
  -6   9 -12 266.930 41.1843   5
  -6   9 -13 279.472 35.1276   1
  -6   9 -13 383.249 41.9948   5
  -6   9 -14-41.1636 32.5599   1
  -6   9 -14-33.7804 36.4621   5
  -6   9 -15 14.6853 32.2034   1
  -6   9 -15 103.498 36.3119   5
  -6   9 -16 43.5119 35.5655   1
  -6   9 -16 195.004 36.1712   5
  -6   9 -17-1.26416 35.8719   1
  -6   9 -18-32.7260 36.9025   1
  -6   9 -19 82.8181 39.5059   1
  -6   9 -20 11.7758 38.2798   1
  -6   8  13 64.0960 47.3977   4
  -6   8  12 183.527 41.8381   6
  -6   8  12 80.6564 46.4356   4
  -6   8  11 34.8706 40.0758   6
  -6   8  11 81.3046 43.7704   4
  -6   8  10-0.85893 40.4838   6
  -6   8  10-35.7624 41.8048   4
  -6   8   9 79.4579 36.9740   6
  -6   8   9 0.64143 40.6141   4
  -6   8   8 0.76967 40.5298   4
  -6   8   7 133.984 38.2001   6
  -6   8   7 103.090 37.8384   4
  -6   8   6 48.7535 36.9935   6
  -6   8   6-0.86619 34.4776   4
  -6   8   5 45.4757 35.5023   4
  -6   8   5 27.8447 36.2840   6
  -6   8   4 162.469 38.6525   5
  -6   8   4 72.4244 35.9485   6
  -6   8   4 147.183 34.4618   4
  -6   8   3 883.218 42.4283   6
  -6   8   3 917.385 45.1522   5
  -6   8   3 833.345 38.9200   4
  -6   8   2 898.367 41.4883   6
  -6   8   2 918.539 45.5249   5
  -6   8   2 844.156 38.6989   4
  -6   8   1 237.351 38.7984   6
  -6   8   1 273.470 40.8962   5
  -6   8   1 201.163 32.4659   4
  -6   8   0 282.716 39.4128   6
  -6   8   0 270.305 41.4374   5
  -6   8   0 213.526 31.4526   4
  -6   8  -1 554.681 43.3461   5
  -6   8  -1 553.505 40.3469   6
  -6   8  -2-11.0845 34.9650   6
  -6   8  -2 13.2726 39.6020   5
  -6   8  -3 1330.87 42.1489   6
  -6   8  -3 1245.36 48.4085   5
  -6   8  -4 66.5818 35.6295   6
  -6   8  -4-5.60859 40.5989   5
  -6   8  -5 472.463 42.4977   5
  -6   8  -6 2093.32 53.5656   5
  -6   8  -7-3.67558 40.6912   5
  -6   8  -8 205.823 26.7670   1
  -6   8  -8 287.161 41.6155   5
  -6   8  -9 248.084 29.0053   1
  -6   8  -9 292.600 41.0391   5
  -6   8  -9 354.893 37.1969   3
  -6   8 -10 1986.75 43.8766   1
  -6   8 -10 2197.95 52.5604   5
  -6   8 -10 2052.88 50.1684   3
  -6   8 -11 12.7888 27.4212   1
  -6   8 -11 28.4891 38.1802   5
  -6   8 -11 47.1736 31.8952   3
  -6   8 -12 57.9431 28.9789   1
  -6   8 -12-2.94253 36.7493   5
  -6   8 -12 11.5636 33.2287   3
  -6   8 -13 209.046 30.9273   1
  -6   8 -13 269.652 37.7894   5
  -6   8 -13 134.425 34.1347   3
  -6   8 -14 271.728 35.6825   1
  -6   8 -14 244.982 37.4767   5
  -6   8 -14 168.799 34.9227   3
  -6   8 -15 124.820 35.2641   5
  -6   8 -15 116.455 37.1188   1
  -6   8 -16-33.1889 37.3455   1
  -6   8 -17 7.15904 34.3532   1
  -6   8 -19 41.1719 39.9696   1
  -6   8 -20 82.0281 38.2644   1
  -6   7  15 291.553 45.2802   6
  -6   7  14 182.196 39.7849   6
  -6   7  13-34.2513 45.6044   4
  -6   7  12 9.35480 41.6220   6
  -6   7  12 31.4155 45.3651   4
  -6   7  11 111.953 39.5584   6
  -6   7  11 87.1124 42.3839   4
  -6   7  10 90.0026 40.5607   4
  -6   7   9 218.844 40.7530   6
  -6   7   9 138.519 40.4003   4
  -6   7   8-42.1809 38.1484   6
  -6   7   8 52.2204 39.1248   4
  -6   7   7 215.570 39.8310   6
  -6   7   7 125.227 37.9226   4
  -6   7   6 509.285 43.0848   6
  -6   7   6 533.069 39.7671   4
  -6   7   5 3714.69 61.9329   6
  -6   7   5 3531.76 54.2785   4
  -6   7   4-8.15056 37.5480   6
  -6   7   4 77.4015 33.2054   4
  -6   7   3 215.517 37.7395   6
  -6   7   3 183.329 38.8918   5
  -6   7   3 178.465 30.5849   4
  -6   7   2 0.79077 35.9063   6
  -6   7   2-12.0469 36.3978   5
  -6   7   2-4.23790 28.4019   4
  -6   7   1 229.409 39.0781   6
  -6   7   1 202.465 39.1953   5
  -6   7   1 204.497 27.3558   4
  -6   7   0 662.226 42.5964   6
  -6   7   0 614.428 42.1399   5
  -6   7  -1 393.033 38.6728   6
  -6   7  -1 461.192 41.4967   5
  -6   7  -2 614.743 36.0543   6
  -6   7  -2 530.816 42.1729   5
  -6   7  -3 347.911 38.3931   6
  -6   7  -3 325.549 39.3305   5
  -6   7  -4 387.383 36.5577   6
  -6   7  -4 359.489 41.1762   5
  -6   7  -4 435.794 38.9966   3
  -6   7  -5 46.1604 37.9583   5
  -6   7  -5 140.281 36.2982   3
  -6   7  -6 191.475 20.7961   1
  -6   7  -6 141.690 39.1076   5
  -6   7  -6 215.582 35.9625   3
  -6   7  -7 536.645 25.6759   1
  -6   7  -7 582.503 41.1950   5
  -6   7  -7 568.136 38.6088   3
  -6   7  -8 86.2978 24.5786   1
  -6   7  -8 38.9972 36.7454   5
  -6   7  -8 52.7855 33.9433   3
  -6   7  -9 321.252 27.3653   1
  -6   7  -9 295.372 38.5328   5
  -6   7  -9 278.843 37.1664   3
  -6   7 -10 254.560 27.8485   1
  -6   7 -10 150.327 36.3948   5
  -6   7 -10 197.514 34.4605   3
  -6   7 -11 376.686 31.3815   1
  -6   7 -11 364.713 36.8415   5
  -6   7 -11 359.415 36.1968   3
  -6   7 -12 171.566 35.6365   5
  -6   7 -12 231.228 33.3343   3
  -6   7 -12 213.731 32.4561   1
  -6   7 -13 313.547 34.5776   1
  -6   7 -13 300.889 37.4920   5
  -6   7 -13 313.090 35.1223   3
  -6   7 -14 29.7022 33.0379   5
  -6   7 -14 66.5494 30.2904   3
  -6   7 -14 53.8346 33.0388   1
  -6   7 -15 46.8146 33.1905   1
  -6   7 -16 858.353 44.3068   1
  -6   7 -17 16.4691 35.6364   1
  -6   7 -19-9.85383 39.0357   1
  -6   7 -20 103.220 39.0062   1
  -6   6  16 209.609 43.7266   6
  -6   6  16 96.9051 50.7162   4
  -6   6  15 137.012 43.3494   6
  -6   6  15 9.91931 47.8913   4
  -6   6  14 248.803 44.6977   6
  -6   6  14 7.53693 44.3178   4
  -6   6  13 128.543 42.2143   6
  -6   6  13 73.3951 44.0128   4
  -6   6  12 114.811 41.7877   6
  -6   6  12 104.127 43.8917   4
  -6   6  11 145.733 41.5025   6
  -6   6  11 20.2491 39.5718   4
  -6   6  10 80.0522 38.0087   4
  -6   6   9 113.961 41.3048   6
  -6   6   9 11.4167 36.6551   4
  -6   6   8 712.773 44.7209   6
  -6   6   8 774.136 42.9687   4
  -6   6   7 56.5296 40.0964   6
  -6   6   7 28.7041 36.0393   4
  -6   6   6 146.192 38.3462   6
  -6   6   6 48.3740 34.5781   4
  -6   6   5 208.928 40.9331   6
  -6   6   5 128.617 32.6067   4
  -6   6   4 895.011 43.8928   6
  -6   6   4 812.228 34.9042   4
  -6   6   3 7.69956 34.2025   6
  -6   6   3 2.72523 35.9561   5
  -6   6   3 25.9559 26.4020   4
  -6   6   2 386.723 39.2502   6
  -6   6   2 441.506 39.3226   5
  -6   6   2 416.920 28.3410   4
  -6   6   2 258.773 21.9995   0
  -6   6   1 69.4863 20.6494   0
  -6   6   1 107.854 37.0639   5
  -6   6   1 98.1713 38.4632   6
  -6   6   0 706.459 42.1735   5
  -6   6   0 544.642 25.0098   0
  -6   6   0 749.088 41.7202   6
  -6   6  -1 396.148 36.8225   6
  -6   6  -1 339.001 39.5927   5
  -6   6  -1 264.966 22.7340   0
  -6   6  -1 405.269 34.8160   3
  -6   6  -2 453.089 39.1215   6
  -6   6  -2 404.482 38.3621   5
  -6   6  -2 528.561 35.5069   3
  -6   6  -3 183.090 37.1488   6
  -6   6  -3 146.458 35.7664   5
  -6   6  -3 160.224 34.4121   3
  -6   6  -4 1281.10 41.0385   6
  -6   6  -4 1271.07 41.7175   5
  -6   6  -4 1203.35 43.2028   3
  -6   6  -5 571.841 22.8681   1
  -6   6  -5 525.111 38.6480   5
  -6   6  -5 607.410 38.4865   3
  -6   6  -6 178.540 21.2413   1
  -6   6  -6 118.360 35.1061   5
  -6   6  -6 149.807 34.0424   3
  -6   6  -7-32.2868 33.6314   5
  -6   6  -7 21.7160 21.5533   1
  -6   6  -7 7.36245 32.2588   3
  -6   6  -8 140.588 34.3415   5
  -6   6  -8 152.334 25.6502   1
  -6   6  -8 111.924 34.9965   3
  -6   6  -9 62.8736 32.8760   5
  -6   6  -9 122.505 25.4036   1
  -6   6  -9 73.2394 34.4873   3
  -6   6 -10 81.2850 33.9170   5
  -6   6 -10 78.4461 28.6677   1
  -6   6 -10 76.8856 32.7800   3
  -6   6 -11-13.9441 31.9974   5
  -6   6 -11 68.8632 29.2053   1
  -6   6 -11 77.0773 32.3604   3
  -6   6 -12 39.3870 30.9205   5
  -6   6 -12 50.7432 29.2227   1
  -6   6 -12 65.4014 31.2198   3
  -6   6 -13 483.663 36.9723   1
  -6   6 -13 384.798 33.9826   3
  -6   6 -14 346.138 37.9691   1
  -6   6 -14 314.746 33.6931   3
  -6   6 -15-54.5140 34.9701   1
  -6   6 -16 153.373 39.8627   1
  -6   6 -17 372.040 43.1572   1
  -6   6 -18-10.5727 39.5180   1
  -6   6 -19-29.9742 37.8706   1
  -6   6 -20 111.275 39.5865   1
  -6   5  17-21.7540 42.5502   6
  -6   5  17 119.795 48.3599   4
  -6   5  16-23.5960 42.4396   6
  -6   5  16 140.166 46.4368   4
  -6   5  15 69.4434 42.4315   6
  -6   5  15 86.3135 42.8704   4
  -6   5  14 242.499 40.7706   6
  -6   5  14 83.0800 42.0498   4
  -6   5  13 117.270 42.8010   6
  -6   5  13 40.6019 40.1104   4
  -6   5  12-34.2016 36.1707   6
  -6   5  12 58.9315 39.3651   4
  -6   5  11 291.600 42.0715   6
  -6   5  11 161.952 39.6720   4
  -6   5  10 149.354 40.3626   6
  -6   5  10 235.334 39.3019   4
  -6   5   9 145.032 42.0802   6
  -6   5   9 101.020 37.4940   4
  -6   5   8 181.262 41.5868   6
  -6   5   8 141.992 36.2110   4
  -6   5   7 969.749 43.9284   6
  -6   5   7 947.125 40.2899   4
  -6   5   6 2634.70 55.4197   6
  -6   5   6 2487.82 45.4149   4
  -6   5   5 147.832 39.1492   6
  -6   5   5 120.680 29.3603   4
  -6   5   4 6.08803 37.5540   6
  -6   5   4 9.32460 26.3093   4
  -6   5   3 118.932 34.7510   6
  -6   5   3 126.370 24.9020   4
  -6   5   2 785.343 39.9475   6
  -6   5   2 825.259 41.3189   5
  -6   5   2 576.767 25.8651   0
  -6   5   2 816.724 34.4003   3
  -6   5   1 258.477 36.5767   6
  -6   5   1 239.125 36.8652   5
  -6   5   1 165.265 22.0435   0
  -6   5   1 254.437 30.0232   3
  -6   5   0 143.294 36.7032   6
  -6   5   0 183.304 36.2152   5
  -6   5   0 80.5985 20.8887   0
  -6   5   0 159.673 31.1863   3
  -6   5  -1 53.0603 34.1404   6
  -6   5  -1 92.5102 34.8905   5
  -6   5  -1 123.701 32.4241   3
  -6   5  -2 1042.26 42.1622   6
  -6   5  -2 893.096 39.1144   5
  -6   5  -2 982.618 38.7339   3
  -6   5  -3 927.901 41.8946   6
  -6   5  -3 873.410 37.8423   5
  -6   5  -3 849.330 39.2373   3
  -6   5  -4 25.3625 30.9281   5
  -6   5  -4 11.2213 16.4754   1
  -6   5  -4-29.4247 33.4033   3
  -6   5  -5 24.3665 30.6030   5
  -6   5  -5-5.33107 18.4971   1
  -6   5  -5-28.6748 32.1568   3
  -6   5  -6 85.1450 32.4812   5
  -6   5  -6 92.9527 20.4853   1
  -6   5  -6 105.006 33.3235   3
  -6   5  -7 67.1564 30.5277   5
  -6   5  -7 107.931 23.1280   1
  -6   5  -7 102.206 32.1465   3
  -6   5  -8 85.8306 30.7676   5
  -6   5  -8 138.910 26.0711   1
  -6   5  -8 88.5955 33.4906   3
  -6   5  -9 86.8450 31.6358   5
  -6   5  -9 58.7048 25.5444   1
  -6   5  -9 43.7138 32.7278   3
  -6   5 -10-2.76574 29.0422   5
  -6   5 -10-15.9412 26.1492   1
  -6   5 -10-28.8590 33.2516   3
  -6   5 -11 401.927 34.3841   1
  -6   5 -11 432.407 32.7690   5
  -6   5 -11 413.997 35.4505   3
  -6   5 -12-12.2429 30.0671   1
  -6   5 -12-8.95933 31.0522   3
  -6   5 -13 56.0402 32.7873   1
  -6   5 -13-6.69850 31.1308   3
  -6   5 -14 101.809 36.4667   1
  -6   5 -14 44.9660 29.2836   3
  -6   5 -15-38.7079 37.0787   1
  -6   5 -16 258.889 38.9434   1
  -6   5 -17 30.1781 36.2809   1
  -6   5 -18 33.0351 36.9288   1
  -6   5 -19-13.7416 37.9966   1
  -6   5 -20 107.452 38.9043   1
  -6   4  18 106.086 48.1841   4
  -6   4  17 136.282 41.8176   6
  -6   4  17 229.494 47.2200   4
  -6   4  16-46.8608 43.3899   6
  -6   4  16 130.710 43.9761   4
  -6   4  15 20.4495 38.1724   6
  -6   4  15 115.303 43.8180   4
  -6   4  14 147.225 39.9971   6
  -6   4  14 159.414 44.3633   4
  -6   4  13 225.025 39.9835   6
  -6   4  13 175.965 41.9483   4
  -6   4  12 178.090 39.1732   6
  -6   4  12 189.993 39.6928   4
  -6   4  11 142.017 41.2077   6
  -6   4  11-11.7617 39.4480   4
  -6   4  10 194.770 39.9464   6
  -6   4  10 187.180 38.5617   4
  -6   4   9 95.1085 38.6860   6
  -6   4   9 63.5049 34.0360   4
  -6   4   8 559.157 41.3346   6
  -6   4   8 602.831 35.3135   4
  -6   4   7 162.725 40.7710   6
  -6   4   7 188.044 31.7201   4
  -6   4   6-13.3265 38.8728   6
  -6   4   6 35.0201 26.9471   4
  -6   4   5 254.872 40.8250   6
  -6   4   5 266.871 27.1362   4
  -6   4   4 1474.32 45.4640   6
  -6   4   4 1310.54 31.4824   2
  -6   4   4 1340.39 31.4205   4
  -6   4   4 1339.20 34.7178   3
  -6   4   3 355.771 38.3144   6
  -6   4   3 270.603 23.5474   4
  -6   4   3 258.487 22.7247   2
  -6   4   3 284.685 29.3225   3
  -6   4   2 34.5275 37.0925   6
  -6   4   2 5.82276 19.0613   2
  -6   4   2 24.3368 27.1422   3
  -6   4   1 92.7295 34.8339   6
  -6   4   1 149.544 34.8605   5
  -6   4   1 105.186 18.6082   2
  -6   4   1 141.337 28.3198   3
  -6   4   0 428.483 39.2784   6
  -6   4   0 389.392 34.4518   5
  -6   4   0 405.373 31.6086   3
  -6   4  -1 31.6454 35.8457   6
  -6   4  -1 13.8140 31.5374   5
  -6   4  -1-23.2419 29.8226   3
  -6   4  -2 37.0411 31.0491   5
  -6   4  -2 45.5979 33.9492   6
  -6   4  -2 11.0014 31.3211   3
  -6   4  -3 13.0874 29.1660   5
  -6   4  -3-0.90058 15.5538   1
  -6   4  -3-22.5895 31.8302   3
  -6   4  -4 1642.91 29.4905   1
  -6   4  -4 1611.66 39.0658   5
  -6   4  -4 1650.73 43.6920   3
  -6   4  -5 573.622 24.6629   1
  -6   4  -5 640.324 32.4827   5
  -6   4  -5 622.806 36.7924   3
  -6   4  -6 26.3872 31.3963   3
  -6   4  -6 30.7046 27.2692   5
  -6   4  -6-15.6111 20.6299   1
  -6   4  -7 104.163 30.9574   3
  -6   4  -7 32.1497 27.8825   5
  -6   4  -7 85.4893 22.6168   1
  -6   4  -8 22.0112 30.9588   3
  -6   4  -8-22.7504 27.6800   5
  -6   4  -8 30.6576 24.6136   1
  -6   4  -9 444.889 31.0060   1
  -6   4  -9 320.878 30.7014   5
  -6   4  -9 370.604 33.4389   3
  -6   4 -10 41.4628 31.7617   3
  -6   4 -10 57.9939 27.3432   5
  -6   4 -10 88.4352 29.7548   1
  -6   4 -11 16.6856 30.4181   3
  -6   4 -11 16.2338 28.7288   1
  -6   4 -12 494.577 38.1447   1
  -6   4 -12 514.424 33.6073   3
  -6   4 -13 16.1339 28.4003   3
  -6   4 -13-18.0536 31.6261   1
  -6   4 -14 46.4697 28.4176   3
  -6   4 -14-54.1293 37.3602   1
  -6   4 -15 2.04141 36.3182   1
  -6   4 -16 630.758 43.3421   1
  -6   4 -17 107.585 40.1109   1
  -6   4 -18-39.9918 39.9815   1
  -6   4 -19 41.2857 40.6159   1
  -6   3  19 208.941 50.3415   4
  -6   3  18 172.437 46.2350   6
  -6   3  18 338.496 49.2322   4
  -6   3  17 105.363 41.9496   6
  -6   3  17 110.346 44.7495   4
  -6   3  16 62.3332 43.2485   6
  -6   3  16 61.0365 44.2055   4
  -6   3  15 66.5746 38.3861   6
  -6   3  15 35.9149 42.2547   4
  -6   3  14 175.825 39.7277   6
  -6   3  14 51.3598 40.3446   4
  -6   3  13 120.689 39.5728   6
  -6   3  13 23.8002 38.2303   4
  -6   3  12 1507.43 52.1562   6
  -6   3  12 1188.45 46.8467   4
  -6   3  11 917.549 45.9632   6
  -6   3  11 741.291 43.4837   4
  -6   3  10 21.8818 40.8099   6
  -6   3  10-3.12124 34.2489   4
  -6   3   9-14.2998 39.2768   6
  -6   3   9 12.2975 32.8555   4
  -6   3   8 659.074 40.2366   6
  -6   3   8 619.253 34.8408   4
  -6   3   7 1280.45 36.9159   2
  -6   3   7 1254.91 46.4216   6
  -6   3   7 1349.63 35.6636   4
  -6   3   6 714.559 43.0597   6
  -6   3   6 789.328 32.0922   2
  -6   3   6 743.254 30.0993   4
  -6   3   6 762.941 28.8312   3
  -6   3   5 14.7528 34.6471   6
  -6   3   5 12.0781 25.9674   2
  -6   3   5 19.7847 22.8589   4
  -6   3   5-5.94594 24.3143   3
  -6   3   4 508.976 39.5078   6
  -6   3   4 434.209 27.2947   2
  -6   3   4 471.064 24.0775   4
  -6   3   4 550.745 29.5298   3
  -6   3   3 1776.76 47.8327   6
  -6   3   3 1764.46 32.2420   2
  -6   3   3 1723.66 37.1134   3
  -6   3   2 52.1107 34.2454   6
  -6   3   2 47.4187 20.4944   2
  -6   3   2 52.8712 25.6019   3
  -6   3   1 73.0485 36.3653   6
  -6   3   1 82.6963 19.5142   2
  -6   3   1 62.3864 26.7412   3
  -6   3   0 137.637 29.2620   3
  -6   3   0 141.131 35.0660   6
  -6   3   0 193.082 20.0511   2
  -6   3   0 186.451 31.3636   5
  -6   3  -1 20.3180 28.0302   3
  -6   3  -1 57.3102 32.5940   6
  -6   3  -1 20.1013 28.7403   5
  -6   3  -1 34.2057 18.0740   2
  -6   3  -2 730.119 20.3302   1
  -6   3  -2 772.275 38.1084   6
  -6   3  -2 706.087 21.9056   2
  -6   3  -2 778.148 34.1827   3
  -6   3  -2 745.473 33.1362   5
  -6   3  -3 26.4922 29.8142   3
  -6   3  -3 9.87013 27.3866   5
  -6   3  -3 4.52905 17.3415   2
  -6   3  -3 19.4801 15.7690   1
  -6   3  -4 323.025 20.3343   1
  -6   3  -4 321.908 29.6960   5
  -6   3  -4 361.147 32.1264   3
  -6   3  -5 529.206 24.2078   1
  -6   3  -5 612.139 30.0636   5
  -6   3  -5 577.683 33.6123   3
  -6   3  -6 2.99453 28.9585   3
  -6   3  -6-9.57612 24.0973   5
  -6   3  -6 13.6850 22.4951   1
  -6   3  -7 49.8899 29.9522   3
  -6   3  -7 32.0958 23.7931   5
  -6   3  -7 34.1941 24.3193   1
  -6   3  -8 137.961 31.3876   3
  -6   3  -8 123.524 24.8955   5
  -6   3  -8 64.1239 24.6569   1
  -6   3  -9-15.3373 30.0100   3
  -6   3  -9-11.5084 29.6603   1
  -6   3 -10 1032.10 40.7094   1
  -6   3 -10 923.932 37.5569   3
  -6   3 -11 4.26695 29.4838   3
  -6   3 -11-36.0505 32.7525   1
  -6   3 -12 16.1151 28.4305   3
  -6   3 -12-20.3155 33.0229   1
  -6   3 -13 3.51327 27.3941   3
  -6   3 -13 36.9920 31.9251   1
  -6   3 -14 20.2826 28.3317   3
  -6   3 -14 44.9425 36.6707   1
  -6   3 -15 36.5735 34.7521   1
  -6   3 -16 81.6085 39.0003   1
  -6   3 -17 4.62302 38.4851   1
  -6   3 -18 219.050 39.9536   1
  -6   3 -19 25.9261 35.5498   1
  -6   2  19 291.909 42.6593   6
  -6   2  18 203.241 44.0684   6
  -6   2  17 159.306 42.8164   6
  -6   2  17-12.7957 42.4552   4
  -6   2  16 47.5576 43.7942   6
  -6   2  16 117.076 43.7474   4
  -6   2  15 449.730 44.8338   6
  -6   2  15 349.406 42.7619   4
  -6   2  14 123.691 41.7952   6
  -6   2  14-18.2587 39.7930   4
  -6   2  13 1551.47 54.0559   6
  -6   2  13 1321.68 49.1504   4
  -6   2  12 494.421 42.3272   6
  -6   2  12 258.263 40.6116   4
  -6   2  11 19.7858 40.6616   6
  -6   2  11 20.8860 33.2271   4
  -6   2  10 789.440 44.8200   6
  -6   2  10 680.923 36.6291   4
  -6   2   9 1234.37 41.3362   2
  -6   2   9 1179.76 38.8446   4
  -6   2   9 1107.07 45.9919   6
  -6   2   8 16.6777 37.0988   6
  -6   2   8 65.6601 31.8371   2
  -6   2   8 20.8715 28.3875   4
  -6   2   7 325.710 38.7929   6
  -6   2   7 345.738 31.9576   2
  -6   2   7 299.591 27.4380   4
  -6   2   7 318.320 24.6691   3
  -6   2   6 495.616 41.8056   6
  -6   2   6 516.462 32.1069   2
  -6   2   6 500.573 27.3323   4
  -6   2   6 497.176 26.5123   3
  -6   2   5 4314.44 56.2572   6
  -6   2   5 4138.14 47.9832   2
  -6   2   5 4050.64 40.2724   4
  -6   2   5 3946.56 45.8952   3
  -6   2   4 37.1135 24.5496   2
  -6   2   4 45.9370 31.5737   6
  -6   2   4-7.48221 24.0476   3
  -6   2   3 91.9790 25.4047   3
  -6   2   3 97.6595 34.8261   6
  -6   2   3 87.0311 24.4138   2
  -6   2   2 94.4924 25.5403   3
  -6   2   2 38.3897 35.0182   6
  -6   2   2 58.1943 22.0433   2
  -6   2   1 1133.71 41.8322   6
  -6   2   1 1041.98 28.2699   2
  -6   2   1 1200.71 33.0377   3
  -6   2   0-16.4478 24.9204   3
  -6   2   0-29.3865 33.6384   6
  -6   2   0-2.29467 20.0482   2
  -6   2  -1 126.616 27.2072   3
  -6   2  -1 142.259 34.8069   6
  -6   2  -1 135.572 19.8125   2
  -6   2  -2 26.6325 27.4600   3
  -6   2  -2 70.4346 25.6793   5
  -6   2  -2 38.8624 15.3741   1
  -6   2  -2 45.7760 19.1226   2
  -6   2  -3 24.2911 29.2709   3
  -6   2  -3 16.4126 25.4201   5
  -6   2  -3 5.81389 17.5216   1
  -6   2  -3 17.6335 20.2374   2
  -6   2  -4 152.251 30.3995   3
  -6   2  -4 194.718 21.0341   1
  -6   2  -4 185.431 25.9620   5
  -6   2  -4 172.431 21.8386   2
  -6   2  -5-23.9105 29.3411   3
  -6   2  -5-1.42763 23.6261   5
  -6   2  -5 4.88478 20.6808   1
  -6   2  -5-4.87573 21.5618   2
  -6   2  -6 12.9242 28.3743   3
  -6   2  -6 37.7847 22.2306   5
  -6   2  -6 26.8498 21.6638   1
  -6   2  -6 37.8541 21.9715   2
  -6   2  -7 26.0914 29.2607   3
  -6   2  -7 21.4809 22.0091   5
  -6   2  -7 20.9239 23.9123   1
  -6   2  -7 58.1720 23.2089   2
  -6   2  -8 100.526 31.2312   3
  -6   2  -8 110.589 26.7342   1
  -6   2  -8 146.239 26.0087   2
  -6   2  -9 268.140 34.5890   1
  -6   2  -9 274.392 34.0925   3
  -6   2 -10 17.4349 30.5558   3
  -6   2 -10 25.4330 32.2309   1
  -6   2 -11 27.9416 28.1540   3
  -6   2 -11 12.9109 30.8079   1
  -6   2 -12-11.6288 28.4405   3
  -6   2 -12-3.51018 31.0877   1
  -6   2 -13 21.2530 27.8813   3
  -6   2 -13 72.4809 33.4392   1
  -6   2 -14 142.712 29.0689   3
  -6   2 -14 213.791 38.8935   1
  -6   2 -15 160.214 36.6755   1
  -6   2 -16 157.279 40.9869   1
  -6   2 -17 85.9700 38.7983   1
  -6   2 -18-40.5092 38.9576   1
  -6   2 -19 34.2174 40.3572   1
  -6   1  20 552.670 44.9114   6
  -6   1  20 290.744 51.8438   4
  -6   1  19 279.049 42.5935   6
  -6   1  18 126.492 43.2514   6
  -6   1  18 23.0584 44.6477   4
  -6   1  17 143.563 42.8686   4
  -6   1  17 216.254 41.8503   6
  -6   1  16 83.4958 39.6288   6
  -6   1  16 35.6556 40.8799   4
  -6   1  15 504.317 44.1142   6
  -6   1  15 385.800 43.4467   4
  -6   1  14 53.5788 39.2122   6
  -6   1  14-11.9488 38.7542   4
  -6   1  13 1161.86 49.6733   6
  -6   1  13 1003.20 46.7285   4
  -6   1  12 3800.87 62.0498   6
  -6   1  12 3768.09 58.9118   4
  -6   1  11 55.3562 35.4972   2
  -6   1  11 17.8079 38.7190   6
  -6   1  11 14.5700 33.9551   4
  -6   1  10 137.444 36.7752   6
  -6   1  10 156.766 36.2595   2
  -6   1  10 109.075 32.2646   4
  -6   1   9 338.446 38.4908   6
  -6   1   9 305.645 35.6273   2
  -6   1   9 288.442 31.6990   4
  -6   1   8 617.945 38.4254   6
  -6   1   8 688.992 36.5479   2
  -6   1   8 638.664 30.0573   4
  -6   1   7 826.140 41.0032   6
  -6   1   7 943.106 36.1848   2
  -6   1   7 776.368 29.4826   4
  -6   1   7 821.523 26.9655   3
  -6   1   6 328.352 30.3491   2
  -6   1   6 230.568 36.8217   6
  -6   1   6 187.784 24.2028   4
  -6   1   6 251.421 23.2203   3
  -6   1   5 51.1137 21.9106   3
  -6   1   5 56.0924 33.5337   6
  -6   1   5 59.0040 27.9298   2
  -6   1   4 473.459 36.4578   6
  -6   1   4 457.964 29.1466   2
  -6   1   4 487.874 25.5785   3
  -6   1   3 621.809 36.9648   6
  -6   1   3 646.507 29.4969   2
  -6   1   3 667.910 28.0862   3
  -6   1   2 36.2981 23.1350   3
  -6   1   2 19.8830 29.3759   6
  -6   1   2 13.9516 24.2589   2
  -6   1   1 10.9211 23.5438   3
  -6   1   1 3.37611 29.9266   6
  -6   1   1 7.61076 21.9449   2
  -6   1   0 32.9828 24.0698   3
  -6   1   0 52.3729 31.2432   6
  -6   1   0 12.0815 21.1683   2
  -6   1  -1 423.263 24.7107   2
  -6   1  -1 404.128 29.6703   3
  -6   1  -1 493.198 33.8758   6
  -6   1  -2 207.207 24.3133   2
  -6   1  -2 243.294 29.1113   3
  -6   1  -3 15.1811 28.0898   3
  -6   1  -3 5.95368 18.0049   1
  -6   1  -3-16.3466 23.0693   2
  -6   1  -4 19.6055 29.7284   3
  -6   1  -4-1.79402 20.0331   1
  -6   1  -4 21.0637 23.7191   2
  -6   1  -5 171.039 23.0286   1
  -6   1  -5 167.488 22.8466   5
  -6   1  -5 186.732 31.2032   3
  -6   1  -5 183.632 25.2912   2
  -6   1  -6 90.2039 30.9206   3
  -6   1  -6 101.037 21.1184   5
  -6   1  -6 109.829 25.9742   1
  -6   1  -6 65.6914 25.6668   2
  -6   1  -7 7.27530 29.1383   3
  -6   1  -7 2.15614 25.1748   1
  -6   1  -7 11.4729 27.0529   2
  -6   1  -8-14.4657 30.0172   3
  -6   1  -8-19.6562 27.9468   1
  -6   1  -8-14.7489 28.9045   2
  -6   1  -9 1419.11 43.2079   1
  -6   1  -9 1463.77 41.2915   2
  -6   1  -9 1447.73 43.2472   3
  -6   1 -10 20.2336 31.9626   3
  -6   1 -10 31.1437 33.8251   1
  -6   1 -10 14.0782 32.2068   2
  -6   1 -11 202.944 31.1494   3
  -6   1 -11 235.706 36.8008   1
  -6   1 -11 239.345 33.9920   2
  -6   1 -12 62.7337 28.7986   3
  -6   1 -12 59.9976 35.4896   1
  -6   1 -12 52.4659 33.2506   2
  -6   1 -13 398.604 40.0526   1
  -6   1 -13 330.001 32.3067   3
  -6   1 -14 5.43159 29.2782   3
  -6   1 -14 82.5902 37.3257   1
  -6   1 -15 30.9098 35.5824   1
  -6   1 -16 190.367 40.3894   1
  -6   1 -17 372.631 43.5834   1
  -6   1 -18 227.719 43.4359   1
  -6   0  20 384.502 45.1269   6
  -6   0  19 296.131 42.8959   6
  -6   0  19 58.9824 45.9132   4
  -6   0  18 22.9334 38.2590   6
  -6   0  18 40.6397 43.7336   4
  -6   0  17 18.5511 38.3549   6
  -6   0  17-48.3629 42.6780   4
  -6   0  16 119.297 41.6965   6
  -6   0  16-22.0330 42.4272   4
  -6   0  15 86.1231 40.1798   6
  -6   0  15 27.1983 39.6652   4
  -6   0  14 8.47322 36.1268   6
  -6   0  13 144.069 40.2161   6
  -6   0  13-16.1222 36.3141   4
  -6   0  12 36.3171 37.7815   6
  -6   0  12 66.5027 37.8838   2
  -6   0  12 48.8807 34.2215   4
  -6   0  11 18.8182 36.1265   6
  -6   0  11 9.48610 37.2151   2
  -6   0  11 53.3809 31.3611   4
  -6   0  10 369.280 37.6305   6
  -6   0  10 382.496 31.9550   4
  -6   0  10 344.800 38.0781   2
  -6   0   9-5.99308 34.9235   6
  -6   0   9 12.6762 34.3764   2
  -6   0   9 8.85172 26.9460   4
  -6   0   8 46.9403 34.4711   6
  -6   0   8 125.385 33.0827   2
  -6   0   8 77.2989 24.5496   4
  -6   0   7 34.2181 19.4930   3
  -6   0   7-10.7570 33.5172   6
  -6   0   7 35.2813 31.3794   2
  -6   0   7 31.5408 22.0824   4
  -6   0   6 322.611 33.6706   6
  -6   0   6 286.012 31.9573   2
  -6   0   6 292.475 21.3585   4
  -6   0   6 283.507 21.8823   3
  -6   0   5 587.046 35.4928   6
  -6   0   5 576.460 32.9745   2
  -6   0   5 565.585 25.5096   3
  -6   0   4 25.3376 21.1163   3
  -6   0   4 47.3919 30.7683   6
  -6   0   4 9.17111 27.7455   2
  -6   0   3-21.2008 28.8371   6
  -6   0   3 0.22973 22.8133   3
  -6   0   3-39.6264 26.7270   2
  -6   0   2 113.739 24.8645   3
  -6   0   2 141.485 30.5100   6
  -6   0   2 114.717 26.8043   2
  -6   0   1 285.385 31.3975   6
  -6   0   1 271.033 26.4237   2
  -6   0   1 247.623 27.3970   3
  -6   0   0 65.8254 29.1138   6
  -6   0   0 18.7090 25.5017   3
  -6   0   0 27.6365 25.1926   2
  -6   0  -1 642.000 29.2229   2
  -6   0  -1 599.064 32.1708   3
  -6   0  -2 72.9414 28.9436   3
  -6   0  -2 72.3897 26.4376   2
  -6   0  -3 248.875 28.8925   2
  -6   0  -4 117.467 23.4505   1
  -6   0  -4 150.473 27.4424   2
  -6   0  -5 87.9148 23.3392   1
  -6   0  -5 99.3220 29.2552   2
  -6   0  -6 503.323 30.1524   1
  -6   0  -6 548.064 33.0279   2
  -6   0  -7-24.3642 28.8239   1
  -6   0  -7 27.4972 30.8886   2
  -6   0  -8 504.739 37.3170   1
  -6   0  -8 514.775 36.0595   2
  -6   0  -9 641.844 39.2088   1
  -6   0  -9 640.052 38.7142   2
  -6   0 -10 70.9081 32.9614   1
  -6   0 -10 40.2724 34.7307   2
  -6   0 -11 252.334 36.4347   1
  -6   0 -11 272.760 37.4138   2
  -6   0 -11 243.737 33.1031   3
  -6   0 -12 36.7896 30.0533   3
  -6   0 -12 10.0272 37.6301   1
  -6   0 -12 55.3817 37.0135   2
  -6   0 -13 1.18588 29.2516   3
  -6   0 -13-44.1545 37.3150   1
  -6   0 -13 7.40483 37.0099   2
  -6   0 -14 96.4422 28.9843   3
  -6   0 -14 42.8681 38.3775   1
  -6   0 -14 5.00275 37.5349   2
  -6   0 -15 188.094 38.9535   1
  -6   0 -15 266.440 40.4539   2
  -6   0 -16 175.765 41.1504   1
  -6   0 -17-7.01460 40.5293   1
  -6   0 -18 81.2460 40.1344   1
  -6  -1  21 287.420 44.1752   6
  -6  -1  21-32.8013 47.3902   4
  -6  -1  20 237.505 38.7102   6
  -6  -1  19-11.8221 37.4746   6
  -6  -1  18 119.694 37.0311   6
  -6  -1  18 100.545 43.4891   4
  -6  -1  17 81.5968 38.5339   6
  -6  -1  17-8.28667 38.4842   4
  -6  -1  16 102.032 38.5679   6
  -6  -1  16 18.9547 37.9570   4
  -6  -1  15-12.6266 35.6607   6
  -6  -1  14 158.267 40.9892   2
  -6  -1  14 188.344 38.3767   6
  -6  -1  14 114.683 38.2107   4
  -6  -1  13-12.2972 33.7262   6
  -6  -1  13 37.3713 40.8482   2
  -6  -1  13 15.0047 35.7452   4
  -6  -1  12 118.470 33.1487   6
  -6  -1  12 42.0704 37.9783   2
  -6  -1  12 52.9525 33.1105   4
  -6  -1  11 230.702 34.3653   6
  -6  -1  11 222.896 38.5086   2
  -6  -1  11 231.026 32.2275   4
  -6  -1  10-44.9574 31.3755   6
  -6  -1  10 12.5295 36.3708   2
  -6  -1  10 19.7341 28.1399   4
  -6  -1   9 434.937 34.3131   6
  -6  -1   9 542.998 38.4588   2
  -6  -1   9 496.969 29.3511   4
  -6  -1   8-35.1627 30.7169   6
  -6  -1   8-9.31130 32.3616   2
  -6  -1   8-5.72164 22.7930   4
  -6  -1   7 198.158 29.6174   6
  -6  -1   7 132.957 32.0907   2
  -6  -1   7 154.778 22.4910   4
  -6  -1   7 168.663 20.2876   3
  -6  -1   6 10.0783 19.2541   3
  -6  -1   6-18.6242 27.7196   6
  -6  -1   6 0.80126 31.0364   2
  -6  -1   5 419.853 33.3579   6
  -6  -1   5 426.880 33.0015   2
  -6  -1   5 351.824 23.9542   3
  -6  -1   4 57.6762 22.4609   3
  -6  -1   4 51.5966 28.6545   6
  -6  -1   4 64.9031 28.9153   2
  -6  -1   3 3.69993 27.5363   6
  -6  -1   3-30.8749 23.0055   3
  -6  -1   3-49.7263 28.6861   2
  -6  -1   2 90.1495 28.9775   6
  -6  -1   2 29.9574 27.3041   2
  -6  -1   1 455.181 33.8757   6
  -6  -1   1 421.213 30.5511   2
  -6  -1   0 10572.6 70.7208   2
  -6  -1  -1 1838.09 40.2057   2
  -6  -1  -2 257.678 32.3525   2
  -6  -1  -3 624.927 35.3093   2
  -6  -1  -4 156.960 32.8253   2
  -6  -1  -5-37.5129 32.5441   2
  -6  -1  -6 12.9379 28.7243   1
  -6  -1  -7 48.8878 32.4624   1
  -6  -1  -7 64.8915 35.5589   2
  -6  -1  -8 2207.79 48.8335   1
  -6  -1  -8 2279.86 51.2104   2
  -6  -1  -9 414.736 35.6924   1
  -6  -1  -9 369.961 39.5490   2
  -6  -1 -10 33.4405 36.9205   1
  -6  -1 -10 16.9878 37.9976   2
  -6  -1 -11 509.536 39.1039   1
  -6  -1 -11 656.297 43.3936   2
  -6  -1 -12-47.3095 35.3079   1
  -6  -1 -12 14.5756 38.6737   2
  -6  -1 -13 59.5181 35.7735   1
  -6  -1 -13 142.084 40.0508   2
  -6  -1 -14 25.2923 40.2250   2
  -6  -1 -15-49.1446 39.9999   2
  -6  -1 -16 129.275 43.5499   2
  -6  -1 -17 118.283 38.5390   1
  -6  -1 -17 320.838 45.2759   2
  -6  -1 -18 82.6067 44.3413   2
  -6  -2  22 60.6831 37.3062   6
  -6  -2  21 48.9695 39.3633   6
  -6  -2  20-1.87094 34.4624   6
  -6  -2  20-15.9386 43.3488   4
  -6  -2  19 37.0547 37.9120   6
  -6  -2  19 71.3788 42.6778   4
  -6  -2  18 133.040 35.5583   6
  -6  -2  18-23.2123 39.7999   4
  -6  -2  17 50.6456 35.0033   6
  -6  -2  17 84.6722 38.7581   4
  -6  -2  16-38.5338 39.6613   4
  -6  -2  15 153.457 43.8296   2
  -6  -2  15 210.957 37.5510   6
  -6  -2  15 189.015 37.8032   4
  -6  -2  14 193.958 34.6635   6
  -6  -2  14 288.964 43.8480   2
  -6  -2  14 217.633 39.5325   4
  -6  -2  13 39.8345 32.4058   6
  -6  -2  13-31.0703 39.2814   2
  -6  -2  13 1.60171 33.8988   4
  -6  -2  12 14.4266 31.6394   6
  -6  -2  12 19.9884 39.0838   2
  -6  -2  12 28.2010 30.4161   4
  -6  -2  11-32.6881 30.8944   6
  -6  -2  11-5.15696 37.1194   2
  -6  -2  11 1.08711 30.4382   4
  -6  -2  10-39.5688 31.3719   6
  -6  -2  10 38.5095 36.5689   2
  -6  -2  10 21.1709 27.4524   4
  -6  -2   9-28.5411 29.4586   6
  -6  -2   9 14.0386 26.0111   4
  -6  -2   8 16.2927 29.1264   6
  -6  -2   8-13.7581 34.8641   2
  -6  -2   8 19.9974 22.9208   4
  -6  -2   7-0.72815 27.9734   6
  -6  -2   7 31.7992 33.3950   2
  -6  -2   7-5.54276 19.8767   3
  -6  -2   6-1.05673 20.4085   3
  -6  -2   6-7.46679 26.9431   6
  -6  -2   6-29.4065 32.3870   2
  -6  -2   5 17.7780 26.6959   6
  -6  -2   5 2.53597 31.2850   2
  -6  -2   4 65.2993 27.1592   6
  -6  -2   4 77.1542 31.8582   2
  -6  -2   3 197.904 27.5740   6
  -6  -2   3 126.137 29.8277   2
  -6  -2   2 46.6125 27.3079   6
  -6  -2   2 3.87796 30.2638   2
  -6  -2   1 73.5379 31.3147   2
  -6  -2   0 717.377 35.5528   2
  -6  -2  -1 12975.3 83.5781   2
  -6  -2  -2 4730.17 58.9147   2
  -6  -2  -3 1433.37 44.8227   2
  -6  -2  -4 875.031 43.3731   2
  -6  -2  -5 1097.29 45.5247   2
  -6  -2  -6 212.504 38.9108   2
  -6  -2  -7 150.085 39.4791   2
  -6  -2  -8 31.3011 39.1848   2
  -6  -2  -9 190.776 40.1140   2
  -6  -2 -10 734.158 42.7145   1
  -6  -2 -10 642.869 45.0593   2
  -6  -2 -11 254.628 35.7800   1
  -6  -2 -11 152.079 43.2291   2
  -6  -2 -12 4.23046 35.7590   1
  -6  -2 -12 11.1284 41.1832   2
  -6  -2 -13-49.8722 41.7903   2
  -6  -2 -14 11.1530 37.8876   1
  -6  -2 -14 166.914 44.1779   2
  -6  -2 -15-14.8086 39.1915   1
  -6  -2 -15 79.5121 43.7378   2
  -6  -2 -16-11.8455 43.2667   2
  -6  -2 -17-54.2514 44.8392   2
  -6  -2 -18-50.9221 46.9515   2
  -6  -3  20 85.6376 42.5619   4
  -6  -3  19-52.6277 41.2904   4
  -6  -3  18-33.8750 33.8623   6
  -6  -3  18 21.7508 39.0724   4
  -6  -3  17-1.61153 34.4838   6
  -6  -3  16 34.2067 32.0042   6
  -6  -3  16-41.0555 43.3039   2
  -6  -3  16 1.12640 36.8764   4
  -6  -3  15 16.0086 34.3196   6
  -6  -3  15 68.4575 41.7686   2
  -6  -3  15 47.4772 37.2459   4
  -6  -3  14 673.581 47.4427   2
  -6  -3  14 697.256 38.2073   6
  -6  -3  14 762.363 41.3250   4
  -6  -3  13 198.460 32.4128   6
  -6  -3  13 232.647 42.4561   2
  -6  -3  13 205.385 34.5472   4
  -6  -3  12-33.4234 28.3077   6
  -6  -3  12 37.9759 39.5735   2
  -6  -3  12 1.17141 30.7668   4
  -6  -3  11 26.7367 27.7412   6
  -6  -3  11 66.2373 38.9316   2
  -6  -3  11 99.7179 30.8700   4
  -6  -3  10 1.75896 28.7380   6
  -6  -3  10 61.4276 38.0040   2
  -6  -3  10 65.4881 28.7908   4
  -6  -3   9 417.962 30.0745   6
  -6  -3   9 460.182 28.2798   4
  -6  -3   9 510.453 40.9414   2
  -6  -3   8 44.5426 27.0586   6
  -6  -3   8 69.5327 36.5766   2
  -6  -3   7-5.55898 26.5133   6
  -6  -3   7-6.09440 34.5440   2
  -6  -3   6-3.32764 26.0930   6
  -6  -3   6 2.72838 34.1432   2
  -6  -3   5-11.4678 25.1368   6
  -6  -3   5-5.91114 34.1377   2
  -6  -3   4 194.940 26.9456   6
  -6  -3   4 156.038 33.6164   2
  -6  -3   3 255.050 29.2251   6
  -6  -3   3 223.673 34.3981   2
  -6  -3   2 89.2317 33.7104   2
  -6  -3   1 79.2005 33.4262   2
  -6  -3   0 1912.58 46.4043   2
  -6  -3  -1 178.920 39.6702   2
  -6  -3  -2 17.5877 38.8834   2
  -6  -3  -3 2967.04 57.4163   2
  -6  -3  -4 2067.24 53.4924   2
  -6  -3  -5-1.13599 41.0774   2
  -6  -3  -6 290.352 41.2529   2
  -6  -3  -7 260.780 41.0977   2
  -6  -3  -8-38.6016 41.2678   2
  -6  -3 -10-36.0325 43.5773   2
  -6  -3 -11-16.1972 43.7262   2
  -6  -3 -12-3.66322 42.8501   2
  -6  -3 -13-8.48180 41.8488   2
  -6  -3 -14-21.1195 44.0069   2
  -6  -3 -15 19.6368 46.5304   2
  -6  -3 -16 268.009 47.4224   2
  -6  -4  21-17.6019 43.8220   4
  -6  -4  20 72.3985 41.3465   4
  -6  -4  18 33.2872 38.3421   4
  -6  -4  17 21.0294 43.8323   2
  -6  -4  17 44.1707 37.9395   4
  -6  -4  16 587.042 48.4237   2
  -6  -4  16 678.711 43.7122   4
  -6  -4  15 86.8726 43.3475   2
  -6  -4  15 188.517 38.5425   4
  -6  -4  14 68.7213 41.7361   2
  -6  -4  14-11.8990 34.3087   4
  -6  -4  13 48.7322 38.3400   2
  -6  -4  13 27.8210 33.1146   4
  -6  -4  12 101.702 41.4627   2
  -6  -4  12 86.6355 31.3767   4
  -6  -4  11 735.409 44.1954   2
  -6  -4  10 77.0901 26.7184   6
  -6  -4  10 136.211 39.6391   2
  -6  -4   9 92.6056 26.8876   6
  -6  -4   9 200.441 39.8988   2
  -6  -4   8 587.639 30.4175   6
  -6  -4   8 611.206 42.2880   2
  -6  -4   7-14.3704 25.4825   6
  -6  -4   7-50.0069 37.2127   2
  -6  -4   6 2.51198 24.7419   6
  -6  -4   6-19.6715 37.0253   2
  -6  -4   5 146.678 25.0564   6
  -6  -4   5 95.1831 35.5897   2
  -6  -4   4 107.018 25.3481   6
  -6  -4   4 37.5897 35.4475   2
  -6  -4   3 298.732 36.5965   2
  -6  -4   2 31.9079 36.1356   2
  -6  -4   1 867.620 42.5846   2
  -6  -4   0 5273.25 66.9042   2
  -6  -4  -1 5775.04 71.4492   2
  -6  -4  -2 209.541 45.2566   2
  -6  -4  -3 520.175 45.4539   2
  -6  -4  -4 7.95119 43.0814   2
  -6  -4  -5 753.554 47.4671   2
  -6  -4  -6 191.395 41.3388   2
  -6  -4  -7 78.6799 40.3625   2
  -6  -4  -8-50.6905 41.4025   2
  -6  -4 -10-41.7722 45.1273   2
  -6  -4 -11-2.70027 45.2895   2
  -6  -4 -13 77.5531 46.1064   2
  -6  -4 -14 50.0611 49.3249   2
  -6  -4 -15-42.7971 47.3929   2
  -6  -5  20 29.5774 41.4120   4
  -6  -5  19 42.3132 38.8633   4
  -6  -5  18-0.34463 37.9955   4
  -6  -5  17 49.5578 36.7788   4
  -6  -5  16-6.43345 41.6971   2
  -6  -5  16 83.0036 38.2957   4
  -6  -5  15 510.627 47.2857   2
  -6  -5  15 422.551 38.4723   4
  -6  -5  14 148.678 42.1297   2
  -6  -5  14 71.5840 33.1432   4
  -6  -5  13 50.8009 41.0847   2
  -6  -5  12 115.515 40.9751   2
  -6  -5  11 55.2049 38.9342   2
  -6  -5  10 147.768 40.4031   2
  -6  -5   9 152.819 40.6552   2
   6   5  -9 110.195 27.3152   1
   6   5  -8-9.73654 28.2943   1
  -6  -5   8-10.7484 39.4869   2
  -6  -5   7 89.0046 40.0453   2
  -6  -5   5 199.150 38.6165   2
  -6  -5   4 168.383 39.0472   2
  -6  -5   3 765.207 44.2698   2
  -6  -5   2 1982.21 51.6804   2
  -6  -5   1 1592.19 50.8312   2
  -6  -5   0 244.070 45.2638   2
  -6  -5  -1 869.508 48.9286   2
  -6  -5  -2 3.69561 42.0594   2
  -6  -5  -3-0.89568 40.6580   2
  -6  -5  -4 49.7772 40.3422   2
  -6  -5  -5 475.575 46.0158   2
  -6  -5  -6 13.3490 42.5866   2
  -6  -5  -7 346.241 45.0423   2
  -6  -5  -8-44.8833 43.3628   2
  -6  -5  -9-23.6396 44.0554   2
  -6  -5 -11 62.2980 47.4726   2
  -6  -5 -12-51.4888 48.4831   2
  -6  -5 -14 41.2176 50.4227   2
  -6  -6  21 26.6162 40.7723   4
  -6  -6  20-2.58110 41.0068   4
  -6  -6  19 85.9487 40.0152   4
  -6  -6  18-0.39827 37.3037   4
  -6  -6  17-25.8124 42.8508   2
  -6  -6  17 39.3579 37.6485   4
  -6  -6  16 130.105 43.7155   2
  -6  -6  16 140.722 36.8876   4
  -6  -6  15 33.4073 42.2668   2
  -6  -6  14-23.0218 41.1411   2
  -6  -6  13 22.3157 42.0188   2
  -6  -6  11-6.56420 39.4478   2
  -6  -6  10-5.12870 40.5135   2
   6   6 -10 27.5270 28.6193   1
   6   6  -9-15.3565 27.7422   1
  -6  -6   9 28.1673 39.7522   2
   6   6  -8 215.012 29.9446   1
  -6  -6   8 207.508 42.4156   2
  -6  -6   7-40.3878 40.5352   2
  -6  -6   6 892.163 46.9717   2
  -6  -6   5 674.717 47.0051   2
  -6  -6   4 744.448 46.5889   2
  -6  -6   3 325.112 43.7917   2
  -6  -6   2 357.594 43.4739   2
  -6  -6   1 224.313 43.3143   2
  -6  -6   0 100.883 44.0276   2
  -6  -6  -1 197.392 44.9422   2
  -6  -6  -2 107.083 43.4950   2
  -6  -6  -3 28.7999 41.8211   2
  -6  -6  -4 65.9695 43.7038   2
  -6  -6  -5 272.663 45.3308   2
  -6  -6  -6 86.9901 41.8283   2
  -6  -6  -7 147.346 43.2083   2
  -6  -6  -8 195.575 45.8388   2
  -6  -6  -9 3.57550 43.6163   2
  -6  -6 -10-15.1117 46.8423   2
  -6  -6 -12-42.0500 48.8550   2
  -6  -6 -13 45.3991 49.1608   2
  -6  -7  21 149.203 40.5870   4
  -6  -7  19 74.8094 38.8671   4
  -6  -7  18-42.1452 40.0632   2
  -6  -7  18 56.0066 39.3913   4
  -6  -7  17 30.1984 40.0380   2
  -6  -7  16 85.1077 45.0622   2
  -6  -7  15 27.3145 44.2157   2
  -6  -7  14-48.4161 42.2710   2
  -6  -7  13-46.2256 40.6871   2
  -6  -7  12 10.1319 39.9408   2
  -6  -7  11-3.85525 41.2843   2
   6   7 -11-32.7270 29.0953   1
  -6  -7  10 9.40814 41.3410   2
   6   7 -10 12.4564 28.4316   1
   6   7  -9 44.2073 32.1364   1
  -6  -7   9-20.7869 40.3121   2
   6   7  -8 352.611 35.3552   1
  -6  -7   8 417.242 46.4041   2
  -6  -7   7 1464.46 52.6420   2
  -6  -7   6 1295.80 51.7929   2
  -6  -7   5 146.751 43.8033   2
  -6  -7   4 562.508 46.8513   2
  -6  -7   3-1.06154 42.1648   2
  -6  -7   2 8.49126 41.4297   2
  -6  -7   0 15.6159 42.2683   2
  -6  -7  -1 52.6087 42.7567   2
  -6  -7  -2 348.007 47.4065   2
  -6  -7  -3 73.8788 43.8276   2
  -6  -7  -4 123.724 44.4310   2
  -6  -7  -5 211.006 45.2733   2
  -6  -7  -6 254.457 44.9966   2
  -6  -7  -7 47.9131 43.5417   2
  -6  -7  -8 86.1884 44.5138   2
  -6  -7  -9-50.3406 45.1779   2
  -6  -7 -10 58.1558 45.6433   2
  -6  -7 -11-10.1934 49.4868   2
  -6  -8  20-37.1990 40.0628   4
  -6  -8  18 5.09986 41.8901   2
  -6  -8  17 41.4656 43.1774   2
  -6  -8  16 56.8984 44.3307   2
  -6  -8  15 13.3543 43.8855   2
  -6  -8  14 384.192 46.3298   2
  -6  -8  13 35.7777 40.8346   2
  -6  -8  12 55.5118 42.5106   2
   6   8 -12-35.1862 31.8362   1
  -6  -8  11 142.234 41.8061   2
   6   8 -11 86.8585 34.4568   1
  -6  -8  10 309.305 43.8395   2
   6   8 -10 250.408 36.5819   1
   6   8  -9 50.7129 34.9386   1
  -6  -8   9 26.6459 42.1364   2
   6   8  -8 87.8341 35.7473   1
  -6  -8   8 51.6773 43.2817   2
  -6  -8   7 331.695 46.4124   2
  -6  -8   6 37.6693 44.3844   2
  -6  -8   5 187.518 45.0188   2
  -6  -8   4 229.565 45.1432   2
  -6  -8   3 81.2449 42.0202   2
  -6  -8   2 363.867 45.3679   2
  -6  -8   1 4.36035 43.3156   2
  -6  -8   0-54.6023 42.1485   2
  -6  -8  -1-49.0065 44.0853   2
  -6  -8  -2 149.686 45.0835   2
  -6  -8  -3 68.4741 44.2119   2
  -6  -8  -4 23.5429 45.7072   2
  -6  -8  -5 122.861 47.0588   2
  -6  -8  -6 58.6390 43.4756   2
  -6  -8  -7-21.5454 45.1558   2
  -6  -8  -8-1.73177 44.3453   2
  -6  -8  -9 67.8653 49.3994   2
  -6  -9  19-24.2545 42.8848   2
  -6  -9  18 194.292 43.3377   2
  -6  -9  17 17.6680 45.1526   2
  -6  -9  16 47.8876 44.7143   2
  -6  -9  15 74.3234 44.8366   2
   6   9 -13 76.2989 33.3635   1
  -6  -9  13-15.4710 41.6520   2
  -6  -9  12 750.764 51.7150   2
   6   9 -12 764.604 42.7547   1
  -6  -9  11 105.476 44.3200   2
   6   9 -11 92.7394 37.9898   1
   6   9 -10 15.0177 35.0946   1
  -6  -9  10 46.3272 42.6003   2
   6   9  -9 152.741 37.2862   1
  -6  -9   9 169.517 45.4664   2
  -6  -9   8 561.520 47.2498   2
   6   9  -8 470.590 42.9731   1
  -6  -9   7 42.1871 40.6042   2
  -6  -9   6 132.078 44.1088   2
  -6  -9   5 209.517 45.0815   2
  -6  -9   4 295.079 46.2518   2
  -6  -9   3 39.0788 44.5259   2
  -6  -9   2 99.1307 44.3903   2
  -6  -9   1-41.2510 43.7874   2
  -6  -9  -1 59.6879 44.7259   2
  -6  -9  -2 87.9325 46.1542   2
  -6  -9  -3 103.200 46.6687   2
  -6  -9  -4 38.3471 47.2119   2
  -6  -9  -5 276.723 48.1660   2
  -6  -9  -6-58.0304 44.4862   2
  -6  -9  -7 84.6571 45.5911   2
  -6  -9  -8 1.73834 46.0257   2
  -6 -10  18-20.2752 44.1367   2
  -6 -10  17-50.6401 44.8376   2
  -6 -10  16 105.436 45.7020   2
  -6 -10  15 862.357 54.4852   2
   6  10 -15 930.856 46.6984   1
  -6 -10  14 737.448 51.5860   2
   6  10 -14 573.575 43.5363   1
  -6 -10  13 90.4065 44.0858   2
   6  10 -13 57.8269 37.6798   1
  -6 -10  12 95.4203 44.3447   2
   6  10 -12 63.2944 36.2392   1
  -6 -10  11 211.872 43.1943   2
   6  10 -11 71.1649 36.7205   1
   6  10 -10 263.048 41.8109   1
  -6 -10  10 421.222 46.4679   2
   6  10  -9 49.2129 37.1977   1
  -6 -10   9 139.780 43.0310   2
   6  10  -8-9.49366 36.6313   1
  -6 -10   8 0.61465 41.7119   2
  -6 -10   7 1.51982 40.4369   2
  -6 -10   6-17.9951 40.8415   2
  -6 -10   5 83.1651 43.2260   2
  -6 -10   4 120.134 42.6932   2
  -6 -10   3 150.902 44.2322   2
  -6 -10   2 269.083 47.2467   2
  -6 -10   1-14.8301 42.4198   2
  -6 -10  -1 94.6298 46.0197   2
  -6 -10  -2 25.0366 44.3056   2
  -6 -10  -3 20.0231 45.2709   2
  -6 -10  -4 30.6233 45.1631   2
  -6 -10  -6 93.4893 47.5411   2
  -6 -11  17 148.343 42.7577   2
  -6 -11  16 106.176 43.6202   2
   6  11 -15 54.8856 39.4883   1
   6  11 -14-45.0037 37.1385   1
  -6 -11  14 1.17701 43.2311   2
  -6 -11  13 47.1020 43.6945   2
   6  11 -13 39.1588 35.3630   1
  -6 -11  12 154.865 45.7824   2
   6  11 -12 19.3207 40.0067   1
  -6 -11  10-17.5150 41.3452   2
   6  11  -9 30.0188 40.0888   1
  -6 -11   9-22.4519 41.9774   2
   6  11  -8 67.1483 41.7987   1
  -6 -11   8 51.5071 43.7430   2
  -6 -11   6-24.7313 43.3690   2
  -6 -11   5 68.4334 43.7454   2
  -6 -11   4 166.768 42.8806   2
  -6 -11   3-43.2870 43.0040   2
  -6 -11   2-19.0958 43.4314   2
  -6 -11   0 78.1179 46.2604   2
  -6 -11  -1 89.4206 44.6251   2
  -6 -11  -3 153.746 45.9721   2
   6  12 -16-19.5376 40.1693   1
  -6 -12  16 30.5239 42.8615   2
   6  12 -15 46.7813 41.5079   1
  -6 -12  15 101.896 42.3622   2
   6  12 -14-50.6541 40.6666   1
  -6 -12  14 131.800 41.9150   2
  -6 -12  13 87.0632 42.8782   2
  -6 -12  12 255.820 44.5954   2
   6  12 -12 85.0162 42.6376   1
  -6 -12  11 301.787 46.2355   2
   6  12 -11 172.842 42.6812   1
   6  12 -10-3.40128 42.5763   1
  -6 -12  10 68.5142 42.1878   2
   6  12  -9 78.8116 42.5759   1
   6  12  -8 133.679 42.7129   1
  -6 -12   8 111.252 44.0895   2
  -6 -12   7-41.2467 42.4153   2
  -6 -12   6 33.6642 41.4038   2
  -6 -12   5-44.7667 43.4804   2
  -6 -12   4 79.9272 43.0740   2
  -6 -12   0 93.6625 47.2898   2
   6  13 -14 81.6865 44.4842   1
  -6 -13  14 120.881 43.5923   2
  -6 -13  13 158.277 44.6197   2
   6  13 -13 5.89050 40.5450   1
  -6 -13  12 74.9954 42.3148   2
   6  13 -12-55.7277 41.8080   1
  -6 -13  11 128.039 44.1700   2
   6  13 -10 135.264 43.3218   1
  -6 -13  10 204.063 46.2318   2
   6  13  -9 264.276 47.7051   1
  -6 -13   9 118.939 43.5965   2
   6  13  -8 29.6888 43.4617   1
  -6 -13   8 121.466 43.0495   2
  -6 -13   7-46.6338 40.7224   2
  -6 -13   5 8.62922 43.1679   2
  -6 -13   4 60.2935 45.9564   2
  -6 -13   3-39.6533 44.8064   2
  -7  15   1 74.1783 40.7413   5
  -7  15   0 97.1300 41.9100   5
  -7  15  -1-37.3502 42.3797   5
  -7  15  -3 63.6552 41.3906   5
  -7  15  -4 62.3553 41.8533   5
  -7  15  -9 128.636 47.3995   5
  -7  14   5-43.5428 49.6324   4
  -7  14   2 7.53761 38.9672   5
  -7  14   1 55.7526 40.5269   5
  -7  14   0 26.8801 39.7387   5
  -7  14  -1 89.0090 41.0466   5
  -7  14  -2-44.0647 41.1882   5
  -7  14  -3 14.0022 40.4465   5
  -7  14  -4 61.1442 41.2507   5
  -7  14  -7-37.2139 44.6334   5
  -7  14  -8-37.6843 44.9282   5
  -7  14  -9 121.200 45.5386   5
  -7  14 -11 111.334 43.7440   5
  -7  14 -12 22.8587 44.0881   5
  -7  13   7 148.899 49.9817   4
  -7  13   6 5.98108 47.3029   4
  -7  13   5 38.9286 45.9021   4
  -7  13   4 51.5625 37.3439   5
  -7  13   3 41.6108 38.2792   5
  -7  13   2-2.02870 38.2707   5
  -7  13   1 16.3062 40.8513   5
  -7  13   0-36.6817 38.4896   5
  -7  13  -1 44.9427 41.1770   5
  -7  13  -2 0.71272 40.8079   5
  -7  13  -3-29.6221 40.1524   5
  -7  13  -4 156.013 42.1089   5
  -7  13  -6 28.1182 42.9588   5
  -7  13  -7 8.02746 45.2428   5
  -7  13  -8 14.6224 43.0703   5
  -7  13  -9 28.8937 45.0806   5
  -7  13 -10-33.8853 42.1513   5
  -7  13 -11 445.877 48.2254   5
  -7  13 -12 57.1675 45.1902   5
  -7  13 -14 36.1438 42.8237   5
  -7  13 -15 174.492 44.6202   5
  -7  13 -16 119.790 45.3005   5
  -7  12   9 8.39962 37.8940   6
  -7  12   8-15.9373 36.0845   6
  -7  12   8 23.9963 46.9057   4
  -7  12   7 151.750 46.0151   4
  -7  12   4 33.0163 38.4164   5
  -7  12   3 2.57714 37.8309   5
  -7  12   2-29.4822 37.6530   5
  -7  12   1-1.67453 39.5773   5
  -7  12   0 49.1055 40.9109   5
  -7  12  -1 54.3622 40.2421   5
  -7  12  -2 18.7611 40.3803   5
  -7  12  -3-25.0327 41.2471   5
  -7  12  -4 524.137 45.8005   5
  -7  12  -5 139.630 41.3590   5
  -7  12  -7 57.8023 44.8426   5
  -7  12  -8 24.7453 44.2159   5
  -7  12  -9 7.09918 43.8131   5
  -7  12 -10-40.1402 44.1361   5
  -7  12 -11 101.073 43.3045   5
  -7  12 -12-30.8435 43.6109   5
  -7  12 -14 67.9564 43.0300   5
  -7  12 -15 101.711 41.3905   5
  -7  12 -16 98.1634 39.4486   5
  -7  12 -17 73.4318 33.5822   1
  -7  12 -17 59.2001 40.3666   5
  -7  12 -18-7.28021 36.8504   1
  -7  12 -18 6.62866 40.0614   5
  -7  11  10 341.404 40.2948   6
  -7  11  10 253.238 50.9843   4
  -7  11   9 43.3529 48.3395   4
  -7  11   8 63.3609 35.1078   6
  -7  11   8-54.7378 45.2103   4
  -7  11   7 97.8598 42.7422   4
  -7  11   6-7.70899 37.7051   6
  -7  11   6 29.2066 40.8835   4
  -7  11   5 70.9937 36.1248   6
  -7  11   4 11.4756 35.3534   6
  -7  11   3-37.4374 37.0649   5
  -7  11   2 54.0620 36.0422   6
  -7  11   2-42.3983 38.3031   5
  -7  11   1 72.9145 32.6392   6
  -7  11   1 96.1206 39.6896   5
  -7  11   0 169.411 35.9625   6
  -7  11   0 26.7158 39.2558   5
  -7  11  -1 314.606 43.2364   5
  -7  11  -1 382.372 34.8708   6
  -7  11  -2 119.868 33.5335   6
  -7  11  -2-36.5314 41.5137   5
  -7  11  -3 213.850 32.5550   6
  -7  11  -3 28.4173 41.1010   5
  -7  11  -4 57.5468 32.9540   6
  -7  11  -4 3.36333 40.8180   5
  -7  11  -5 12.1537 42.4101   5
  -7  11  -6 30.9744 43.4718   5
  -7  11  -7 31.8802 43.6195   5
  -7  11  -8 135.953 44.2220   5
  -7  11  -9 14.9847 42.4624   5
  -7  11 -10 31.2875 42.4902   5
  -7  11 -11 272.508 45.4707   5
  -7  11 -14 8.56849 38.0287   5
  -7  11 -15-27.0629 30.7855   1
  -7  11 -15 153.455 39.2283   5
  -7  11 -16-46.9482 31.9809   1
  -7  11 -16 127.345 39.1899   5
  -7  11 -17 183.306 38.0003   1
  -7  11 -17 99.0568 39.1571   5
  -7  11 -18-40.7399 34.8695   1
  -7  10  11 0.06052 48.9867   4
  -7  10  10 46.8283 38.1037   6
  -7  10  10 70.1721 46.4272   4
  -7  10   9 225.465 41.3584   6
  -7  10   9 55.4127 45.3249   4
  -7  10   8-16.9297 42.8118   4
  -7  10   7 106.033 37.6552   6
  -7  10   7 35.4364 39.5699   4
  -7  10   3-17.1944 38.2472   5
  -7  10   2 235.704 41.5824   6
  -7  10   2 111.721 39.2468   5
  -7  10   1 170.568 38.5718   6
  -7  10   1 124.230 41.1332   5
  -7  10   0 152.401 38.6711   6
  -7  10   0 47.7157 41.7824   5
  -7  10  -1 184.631 35.6806   6
  -7  10  -1 33.3531 40.9967   5
  -7  10  -2 105.855 37.0511   6
  -7  10  -2-38.9485 41.3763   5
  -7  10  -3 129.807 34.8859   6
  -7  10  -3 11.7269 42.5175   5
  -7  10  -4 24.5053 32.2669   6
  -7  10  -4-16.5161 42.2014   5
  -7  10  -5-35.8488 42.5944   5
  -7  10  -6-17.7466 43.6073   5
  -7  10  -7 10.3137 40.9259   5
  -7  10  -8-0.09363 42.3331   5
  -7  10  -9 260.867 44.9074   5
  -7  10 -10 165.017 44.6027   5
  -7  10 -11 351.942 43.6748   5
  -7  10 -12 101.780 40.9794   5
  -7  10 -13-18.2312 27.8569   1
  -7  10 -14 26.0653 30.6619   1
  -7  10 -15 77.4170 36.8841   5
  -7  10 -15 117.274 31.8814   1
  -7  10 -16 93.0702 36.6956   5
  -7  10 -17 86.9515 35.3243   1
  -7  10 -18 64.3948 38.5157   1
  -7   9  13 85.4897 48.6820   4
  -7   9  12 130.408 41.5334   6
  -7   9  12-41.9979 50.1363   4
  -7   9  11 195.355 41.5666   6
  -7   9  11 40.0717 47.8082   4
  -7   9  10 127.686 46.3814   4
  -7   9   9 121.597 39.1451   6
  -7   9   9-6.68674 41.7164   4
  -7   9   8-14.3378 41.7558   4
  -7   9   7 86.2475 38.4315   6
  -7   9   7 25.3375 36.9457   4
  -7   9   4-18.2019 36.7677   6
  -7   9   3 582.131 44.8347   6
  -7   9   3 721.212 45.2717   5
  -7   9   2 1155.01 49.6773   5
  -7   9   2 1214.74 51.7904   6
  -7   9   1 163.677 42.5989   6
  -7   9   1 158.769 42.5298   5
  -7   9   0 356.633 41.7290   6
  -7   9   0 300.279 45.7479   5
  -7   9  -1 3266.20 61.3445   6
  -7   9  -1 3344.48 63.8743   5
  -7   9  -2 159.096 37.8409   6
  -7   9  -2 124.007 43.2001   5
  -7   9  -3-41.1479 37.3829   6
  -7   9  -3 71.2873 41.5643   5
  -7   9  -4 116.659 38.1363   6
  -7   9  -4 164.055 40.9444   5
  -7   9  -5-23.5072 39.7904   5
  -7   9  -6-30.9115 41.2986   5
  -7   9  -7-55.4404 42.3753   5
  -7   9  -8-24.2464 41.7978   5
  -7   9  -9 96.8731 41.8994   5
  -7   9 -10 769.411 46.0275   5
  -7   9 -11-32.0989 38.4598   5
  -7   9 -12 170.187 39.1524   5
  -7   9 -12 138.983 29.3519   1
  -7   9 -13 71.8044 37.3496   5
  -7   9 -13 22.8520 28.4078   1
  -7   9 -14 3.40176 29.4994   1
  -7   9 -15 55.0737 32.0939   1
  -7   9 -16-38.7809 31.7026   1
  -7   9 -17 0.94532 34.0268   1
  -7   9 -18 173.323 36.6569   1
  -7   8  14 126.387 49.0357   4
  -7   8  13 15.8349 42.1095   6
  -7   8  13 72.3368 50.0708   4
  -7   8  12-33.3889 47.1729   4
  -7   8  11 127.607 40.3528   6
  -7   8  10-33.8434 36.3531   6
  -7   8  10 78.7856 42.3892   4
  -7   8   9 284.549 44.6015   6
  -7   8   9 332.845 44.3187   4
  -7   8   8-52.2548 38.5277   6
  -7   8   8-22.6328 37.9650   4
  -7   8   7 27.1801 37.2656   6
  -7   8   6 40.6776 37.4778   6
  -7   8   5 10.8992 40.2268   6
  -7   8   3 948.946 47.6896   6
  -7   8   3 995.158 48.0884   5
  -7   8   2 688.017 45.8342   6
  -7   8   2 565.430 45.4377   5
  -7   8   1 599.782 42.7592   6
  -7   8   1 537.393 45.8771   5
  -7   8   0 38.3617 41.7061   6
  -7   8   0 16.1347 42.3418   5
  -7   8  -1 121.095 38.6754   6
  -7   8  -1 237.229 41.9101   5
  -7   8  -2 45.8793 39.7107   5
  -7   8  -2 22.6705 38.7363   6
  -7   8  -3 365.960 43.8614   6
  -7   8  -3 453.080 43.3170   5
  -7   8  -4 16.2262 39.6978   6
  -7   8  -4 2.93753 38.0543   5
  -7   8  -5 60.5839 37.3503   5
  -7   8  -6 107.867 35.7864   3
  -7   8  -7-49.5245 40.7248   5
  -7   8  -7 41.5697 34.8513   3
  -7   8  -8 63.4837 39.2513   5
  -7   8  -8 113.352 37.2448   3
  -7   8  -9 36.6858 39.0806   5
  -7   8  -9 119.671 38.0169   3
  -7   8 -10 58.0464 38.6866   5
  -7   8 -10 72.5315 34.8621   3
  -7   8 -11 486.988 32.4210   1
  -7   8 -11 458.413 40.9307   5
  -7   8 -11 510.991 40.6246   3
  -7   8 -12 297.634 32.2601   1
  -7   8 -12 260.869 38.3542   5
  -7   8 -12 308.350 36.5259   3
  -7   8 -13 45.1505 35.4800   5
  -7   8 -13-52.3350 31.1204   1
  -7   8 -13 54.2790 35.2598   3
  -7   8 -14 184.590 35.4949   5
  -7   8 -14 98.7055 32.6735   1
  -7   8 -14 165.827 35.5825   3
  -7   8 -15 107.119 32.4908   1
  -7   8 -15 113.401 33.7580   3
  -7   8 -16 93.0340 34.1043   1
  -7   8 -18 74.9342 37.0920   1
  -7   8 -19 21.6082 36.5359   1
  -7   7  15 147.752 48.8916   4
  -7   7  14 155.906 40.2104   6
  -7   7  14 84.0239 49.7314   4
  -7   7  13 156.056 41.2165   6
  -7   7  13 113.557 45.9560   4
  -7   7  12 78.5392 43.4464   4
  -7   7  11 49.5827 41.4117   6
  -7   7  11 1.20986 41.9278   4
  -7   7  10 41.5424 40.0069   6
  -7   7  10 15.9634 41.8139   4
  -7   7   9 202.545 41.1049   6
  -7   7   9 321.581 42.1017   4
  -7   7   8 4.00426 36.1715   6
  -7   7   8-44.0449 36.7736   4
  -7   7   7 46.5201 37.4216   6
  -7   7   6 36.5994 39.4147   6
  -7   7   5 95.3208 41.5637   6
  -7   7   4 1889.94 53.1406   6
  -7   7   3 1888.44 54.3722   6
  -7   7   2 29.6404 43.0762   6
  -7   7   2 19.5903 40.0456   5
  -7   7   1-10.2570 40.9388   5
  -7   7   0 107.160 40.5047   6
  -7   7   0 164.460 41.4780   5
  -7   7  -1 537.959 41.4647   6
  -7   7  -1 583.604 44.9005   5
  -7   7  -2 67.4915 36.1654   6
  -7   7  -2 19.6778 38.6634   5
  -7   7  -3 59.4636 37.7540   6
  -7   7  -3 15.0056 37.8025   5
  -7   7  -3 4.56965 37.0598   3
  -7   7  -4 52.2164 37.1742   5
  -7   7  -4 71.8847 36.4643   3
  -7   7  -5-17.7813 36.0082   5
  -7   7  -5 8.16533 36.4567   3
  -7   7  -6 100.566 36.2455   5
  -7   7  -6 26.4192 36.3936   3
  -7   7  -7 52.5830 35.3777   3
  -7   7  -8 24.7325 34.9294   3
  -7   7  -9 477.026 28.9520   1
  -7   7  -9 449.380 39.2169   5
  -7   7  -9 488.365 40.5616   3
  -7   7 -10 92.3826 36.0491   5
  -7   7 -10 136.621 28.6246   1
  -7   7 -10 135.440 36.0682   3
  -7   7 -11 25.0093 33.5688   5
  -7   7 -11 5.40213 28.3698   1
  -7   7 -11-3.84949 35.1150   3
  -7   7 -12 112.902 34.8482   5
  -7   7 -12 35.6422 30.1290   1
  -7   7 -12 88.2562 35.7272   3
  -7   7 -13 417.459 35.3052   1
  -7   7 -13 405.874 39.1335   3
  -7   7 -14 120.154 35.3760   1
  -7   7 -14 57.6121 35.1039   3
  -7   7 -15 33.7790 35.1718   1
  -7   7 -15-10.0662 31.0440   3
  -7   7 -16 64.4646 35.6876   1
  -7   7 -17 2.14385 33.6305   1
  -7   7 -18-4.40795 36.0538   1
  -7   7 -19 111.214 37.6291   1
  -7   6  16 18.1460 47.9701   4
  -7   6  15 64.9576 49.7956   4
  -7   6  14 13.8843 42.5156   6
  -7   6  14 43.3377 44.5652   4
  -7   6  13 172.750 41.7767   6
  -7   6  13 33.1304 45.0042   4
  -7   6  12 75.0036 41.0012   4
  -7   6  11 54.6965 38.8923   6
  -7   6  11 32.3753 40.7713   4
  -7   6  10 119.769 41.4898   6
  -7   6  10 40.7817 40.7382   4
  -7   6   9-1.22401 40.7939   6
  -7   6   9 68.8273 35.4915   4
  -7   6   7 115.698 41.0948   6
  -7   6   6 152.489 42.6595   6
  -7   6   5 39.3744 39.6403   6
  -7   6   4 671.592 41.5759   6
  -7   6   3 88.4041 39.7377   6
  -7   6   2 60.9484 42.0438   6
  -7   6   1 41.8036 38.0827   6
  -7   6   1 26.4842 40.2323   5
  -7   6   0 149.870 40.7554   6
  -7   6   0 25.4929 39.1714   5
  -7   6   0 135.455 33.8465   3
  -7   6  -1 124.736 40.8558   6
  -7   6  -1 113.708 39.6746   5
  -7   6  -1 148.629 34.9547   3
  -7   6  -2 903.423 46.1055   6
  -7   6  -2 831.771 43.8904   5
  -7   6  -2 870.152 42.4134   3
  -7   6  -3 110.646 40.8165   6
  -7   6  -3 116.275 37.2848   5
  -7   6  -3 177.518 36.8724   3
  -7   6  -4-1.49902 34.8038   5
  -7   6  -4 15.2142 36.2887   3
  -7   6  -5 15.0508 34.1849   5
  -7   6  -5 19.7331 36.3973   3
  -7   6  -6 228.819 35.1780   5
  -7   6  -6 308.245 37.8123   3
  -7   6  -7 230.704 34.7016   5
  -7   6  -7 119.996 37.2364   3
  -7   6  -8 148.338 35.1663   5
  -7   6  -8 210.738 26.8448   1
  -7   6  -8 229.925 37.5437   3
  -7   6  -9 216.144 29.0610   1
  -7   6  -9 183.561 34.9113   5
  -7   6  -9 230.341 36.3815   3
  -7   6 -10 63.2595 32.3067   5
  -7   6 -10 117.045 29.4861   1
  -7   6 -10 114.429 35.1319   3
  -7   6 -11 40.9458 30.6745   5
  -7   6 -11 29.5353 29.4110   1
  -7   6 -11-12.2546 34.3502   3
  -7   6 -12-9.05502 29.0890   1
  -7   6 -12-12.8214 33.8905   3
  -7   6 -13 56.2360 34.1554   1
  -7   6 -13-11.7302 34.7342   3
  -7   6 -14 623.436 39.5578   1
  -7   6 -14 486.136 37.8041   3
  -7   6 -15 70.6476 34.7826   1
  -7   6 -15-33.6938 33.0728   3
  -7   6 -16 52.3561 38.9565   1
  -7   6 -17-45.8799 39.2602   1
  -7   6 -18 61.8383 36.3273   1
  -7   6 -19 84.9788 40.5751   1
  -7   5  17 34.0571 46.2987   4
  -7   5  16 151.189 43.4368   6
  -7   5  16-37.0230 47.4077   4
  -7   5  15-2.53391 42.8659   6
  -7   5  15 32.7446 43.7125   4
  -7   5  14 15.7336 42.5268   6
  -7   5  14-25.2095 42.3190   4
  -7   5  13 177.887 43.3888   6
  -7   5  13-4.21324 41.2586   4
  -7   5  12-22.9054 39.2829   6
  -7   5  12-9.70981 39.4669   4
  -7   5  11 77.0232 39.8218   6
  -7   5  11 28.1688 39.4672   4
  -7   5  10 6.39566 37.5502   6
  -7   5  10 14.8954 36.1523   4
  -7   5   9 59.4551 40.1356   6
  -7   5   8-14.2666 40.7861   6
  -7   5   7 189.441 40.4846   6
  -7   5   6 163.758 41.0527   6
  -7   5   5 311.393 40.2626   6
  -7   5   4 331.676 41.0841   6
  -7   5   3 51.6910 41.4990   6
  -7   5   3 82.0420 28.8126   3
  -7   5   2 58.3866 38.6243   6
  -7   5   2 69.6978 31.7439   3
  -7   5   1 157.112 40.4940   6
  -7   5   1 165.287 39.1845   5
  -7   5   1 156.970 32.5705   3
  -7   5   0 146.105 40.0565   6
  -7   5   0 129.464 37.7115   5
  -7   5   0 228.242 33.2754   3
  -7   5  -1 14.9228 38.2740   6
  -7   5  -1-0.57660 35.3858   5
  -7   5  -1 15.0561 32.9878   3
  -7   5  -2 4.59100 39.3631   6
  -7   5  -2 35.0620 34.7433   5
  -7   5  -2 5.34919 35.0411   3
  -7   5  -3 631.831 43.7866   6
  -7   5  -3 447.519 37.8232   5
  -7   5  -3 470.234 38.1462   3
  -7   5  -4 635.227 38.1254   5
  -7   5  -4 670.793 41.0686   3
  -7   5  -5 78.9639 33.0615   5
  -7   5  -5 43.5518 36.1019   3
  -7   5  -6-24.7019 31.6056   5
  -7   5  -6-3.45421 36.3208   3
  -7   5  -7 191.232 31.7838   5
  -7   5  -7 199.406 25.6394   1
  -7   5  -7 131.359 35.0801   3
  -7   5  -8 98.0226 31.7852   5
  -7   5  -8 84.7026 25.1071   1
  -7   5  -8 90.8268 36.0450   3
  -7   5  -9 252.333 29.5319   1
  -7   5  -9 352.445 31.7152   5
  -7   5  -9 302.748 36.8614   3
  -7   5 -10 34.6065 35.1687   3
  -7   5 -10 6.36408 28.3570   5
  -7   5 -10 52.3069 29.2057   1
  -7   5 -11 63.9971 33.2509   3
  -7   5 -11 29.8626 30.5408   1
  -7   5 -12 135.531 31.0090   1
  -7   5 -12 121.852 34.2808   3
  -7   5 -13 156.899 36.5087   1
  -7   5 -13 135.820 33.5484   3
  -7   5 -14 76.9433 35.9066   1
  -7   5 -14-7.40321 33.6150   3
  -7   5 -15 81.6491 38.3140   1
  -7   5 -15-6.64987 33.5192   3
  -7   5 -16 557.022 42.3896   1
  -7   5 -17 249.146 42.6767   1
  -7   5 -18 16.7655 40.1758   1
  -7   4  17 193.416 45.2939   4
  -7   4  16 268.882 44.2533   6
  -7   4  16 268.351 46.8208   4
  -7   4  15 36.6832 42.3125   6
  -7   4  15 97.1370 42.0278   4
  -7   4  14-26.5613 42.3024   6
  -7   4  14 61.5333 39.5631   4
  -7   4  13 93.0565 40.2539   6
  -7   4  13 14.1191 39.1438   4
  -7   4  12-28.5939 37.5509   6
  -7   4  12 52.7622 38.0872   4
  -7   4  11 13.8789 39.8654   6
  -7   4  10-4.82667 33.9430   4
  -7   4   9 35.6135 39.3590   6
  -7   4   8-33.5337 41.4086   6
  -7   4   7 382.642 43.4221   6
  -7   4   6-42.3297 42.1465   6
  -7   4   5-11.8127 39.1379   6
  -7   4   5 50.8833 25.6731   2
  -7   4   5 37.5673 27.7107   3
  -7   4   4-49.1112 41.1738   6
  -7   4   4 24.2234 28.4318   3
  -7   4   3 767.249 43.3970   6
  -7   4   3 741.071 34.6780   3
  -7   4   2 19.3288 41.6184   6
  -7   4   2 48.5552 30.5889   3
  -7   4   1 27.4328 40.8877   6
  -7   4   1 20.6942 29.9756   3
  -7   4   0 278.092 41.8648   6
  -7   4   0 192.901 31.7413   3
  -7   4  -1 277.666 41.9490   6
  -7   4  -1 223.161 34.9354   5
  -7   4  -1 239.475 32.9923   3
  -7   4  -2-17.3835 39.2533   6
  -7   4  -2 1.88177 32.3015   5
  -7   4  -2-51.6946 34.5797   3
  -7   4  -3-10.8209 34.5055   3
  -7   4  -3-3.42870 31.2355   5
  -7   4  -4 474.271 34.4236   5
  -7   4  -4 452.067 39.0403   3
  -7   4  -5 244.449 35.8692   3
  -7   4  -5 241.804 21.3739   1
  -7   4  -5 257.801 32.1526   5
  -7   4  -6 67.5396 34.1407   3
  -7   4  -6 62.1334 29.7526   5
  -7   4  -6 80.3406 22.5677   1
  -7   4  -7 47.3491 35.6856   3
  -7   4  -7 45.1901 30.2632   5
  -7   4  -7 49.3594 24.9124   1
  -7   4  -8 10.5832 33.8436   3
  -7   4  -8-0.55697 28.0274   5
  -7   4  -8 44.8797 26.9012   1
  -7   4  -9 48.7973 34.5709   3
  -7   4  -9 90.8032 28.0983   1
  -7   4 -10 678.665 34.7610   1
  -7   4 -10 595.533 40.7364   3
  -7   4 -11 23.3456 31.5276   3
  -7   4 -11 37.2332 28.5957   1
  -7   4 -12 72.3059 31.6041   3
  -7   4 -12 112.895 33.0995   1
  -7   4 -13 446.986 38.3589   1
  -7   4 -13 394.434 36.0901   3
  -7   4 -14 728.958 44.4981   1
  -7   4 -14 708.556 38.7972   3
  -7   4 -15 48.1182 32.0955   3
  -7   4 -15 3.16253 34.0021   1
  -7   4 -16 146.575 40.8004   1
  -7   4 -17 253.674 39.0008   1
  -7   4 -18-22.5515 38.8543   1
  -7   3  18 179.040 47.8833   4
  -7   3  17 244.189 46.4422   6
  -7   3  17 220.659 51.2780   4
  -7   3  16 60.5884 41.7434   6
  -7   3  16 196.361 43.6328   4
  -7   3  15-52.6259 39.0061   6
  -7   3  15 233.621 43.3378   4
  -7   3  14 198.144 40.7825   6
  -7   3  14 344.668 41.2945   4
  -7   3  13 0.19916 41.1077   6
  -7   3  13 113.992 37.2856   4
  -7   3  12 32.5255 41.1235   6
  -7   3  12 111.765 37.2668   4
  -7   3  11 213.119 41.5511   6
  -7   3  11 193.567 38.5980   4
  -7   3   9-15.5837 38.9935   6
  -7   3   8 48.2633 29.8278   2
  -7   3   8 48.3287 40.9298   6
  -7   3   7-39.3083 37.3119   6
  -7   3   7 8.67955 29.8051   2
  -7   3   6 557.962 41.4373   6
  -7   3   6 507.352 31.5840   2
  -7   3   6 513.203 29.6790   3
  -7   3   5 187.306 37.2300   6
  -7   3   5 142.127 28.1102   2
  -7   3   5 198.144 27.5858   3
  -7   3   4 51.0236 40.1686   6
  -7   3   4 13.2891 25.6739   2
  -7   3   4 0.40864 26.2804   3
  -7   3   3 39.4853 37.6102   6
  -7   3   3 39.2365 23.7470   2
  -7   3   3 4.15202 27.0609   3
  -7   3   2 112.793 40.1116   6
  -7   3   2 102.416 23.1778   2
  -7   3   2 57.6812 29.5263   3
  -7   3   1 590.743 43.9791   6
  -7   3   1 547.346 25.7174   2
  -7   3   1 560.672 34.7429   3
  -7   3   0-38.8980 31.8723   3
  -7   3   0-22.8687 38.8082   6
  -7   3  -1 67.5466 30.1558   3
  -7   3  -1 63.5135 37.0326   6
  -7   3  -2-44.1952 32.8566   3
  -7   3  -2 28.5251 30.2777   5
  -7   3  -3 89.5647 33.0338   3
  -7   3  -3 79.7187 29.8946   5
  -7   3  -4 39.8767 33.2948   3
  -7   3  -4 30.5441 28.9454   5
  -7   3  -4 28.0265 19.8570   1
  -7   3  -5-35.1802 34.2376   3
  -7   3  -5 4.69982 27.4236   5
  -7   3  -5-16.2747 20.5695   1
  -7   3  -6 4.27812 34.9277   3
  -7   3  -6 26.3762 26.8126   5
  -7   3  -6 22.0569 23.3464   1
  -7   3  -7 295.640 26.8945   1
  -7   3  -7 344.197 30.2133   5
  -7   3  -7 314.802 36.5668   3
  -7   3  -8 374.626 30.7857   1
  -7   3  -8 356.572 36.0796   3
  -7   3  -9 217.768 36.0602   3
  -7   3  -9 205.119 32.5033   1
  -7   3 -10 688.420 36.3024   1
  -7   3 -10 702.753 40.8148   3
  -7   3 -11 28.4703 30.2209   3
  -7   3 -11 53.7460 30.4659   1
  -7   3 -12-1.68219 31.3593   3
  -7   3 -12 37.5388 31.5775   1
  -7   3 -13-14.2798 32.2806   3
  -7   3 -13 143.866 33.7140   1
  -7   3 -14-23.7862 31.4453   3
  -7   3 -14 55.1035 33.8410   1
  -7   3 -15 37.5750 38.5654   1
  -7   3 -16 86.1725 36.4260   1
  -7   3 -17-23.3007 37.2013   1
  -7   3 -18 94.0473 37.1077   1
  -7   2  19 89.8264 43.7480   4
  -7   2  18 231.159 43.0206   6
  -7   2  18 80.7605 45.0055   4
  -7   2  17 159.735 43.4983   6
  -7   2  16-48.8246 43.2466   6
  -7   2  15-41.4400 44.0335   6
  -7   2  15-31.6288 39.5160   4
  -7   2  14 34.0732 43.2797   6
  -7   2  14-41.8316 37.0809   4
  -7   2  13 210.137 41.3098   6
  -7   2  13 208.080 39.7655   4
  -7   2  12 1002.98 49.7534   6
  -7   2  12 879.354 42.9935   4
  -7   2  10-8.64896 33.5260   2
  -7   2  10-36.4372 39.9565   6
  -7   2   9 22.6055 40.9407   6
  -7   2   9-16.7258 32.9433   2
  -7   2   8-18.3769 38.1897   6
  -7   2   8 6.16436 31.5664   2
  -7   2   7 244.391 41.1616   6
  -7   2   7 259.539 32.7180   2
  -7   2   6 98.2135 37.4679   6
  -7   2   6 91.1991 30.3230   2
  -7   2   6 71.3175 26.2995   3
  -7   2   5 159.657 35.7512   6
  -7   2   5 177.881 29.6944   2
  -7   2   5 176.835 26.8138   3
  -7   2   4 93.0208 39.6741   6
  -7   2   4 63.8826 26.2991   2
  -7   2   4 26.7674 25.9457   3
  -7   2   3-8.07832 27.3001   3
  -7   2   3 8.66417 38.1643   6
  -7   2   3 2.94667 24.2688   2
  -7   2   2 113.772 27.1632   3
  -7   2   2 103.123 37.9606   6
  -7   2   2 93.8782 25.5078   2
  -7   2   1 68.7771 28.4115   3
  -7   2   1 33.9388 38.1444   6
  -7   2   1 49.9506 24.0362   2
  -7   2   0 791.901 44.4158   6
  -7   2   0 744.251 29.1129   2
  -7   2   0 845.462 36.4231   3
  -7   2  -1 194.963 31.6719   3
  -7   2  -1 202.764 38.0613   6
  -7   2  -1 176.378 23.8701   2
  -7   2  -2 192.923 24.2366   2
  -7   2  -2 251.813 34.5922   3
  -7   2  -3 8.20592 33.0556   3
  -7   2  -3-4.97115 17.7259   1
  -7   2  -3-9.62697 22.9187   2
  -7   2  -4 19.7681 33.3594   3
  -7   2  -4 2.33826 19.6217   1
  -7   2  -5 9.59821 33.1169   3
  -7   2  -5 32.8717 26.4330   5
  -7   2  -5 14.3953 22.5029   1
  -7   2  -6 51.2901 34.6842   3
  -7   2  -6 45.7779 25.9873   5
  -7   2  -6-8.68414 23.9304   1
  -7   2  -7-19.4687 33.1560   3
  -7   2  -7 15.7321 27.7175   1
  -7   2  -8 718.446 36.2578   1
  -7   2  -8 737.618 39.8114   3
  -7   2  -9 2165.56 48.2477   1
  -7   2  -9 2161.82 49.6993   3
  -7   2 -10 12.0994 32.9994   3
  -7   2 -10 11.8875 31.3101   1
  -7   2 -11 7.48612 31.8359   3
  -7   2 -11 34.6404 30.3031   1
  -7   2 -12 132.587 33.5327   3
  -7   2 -12 197.279 42.2959   1
  -7   2 -13 10.8851 31.3806   3
  -7   2 -13 28.1499 34.2017   1
  -7   2 -14 77.1209 30.8778   3
  -7   2 -14 45.9640 35.0236   1
  -7   2 -15-12.8687 34.3843   1
  -7   2 -16-16.1927 39.0775   1
  -7   1  19 283.217 43.0678   6
  -7   1  19 149.769 45.9624   4
  -7   1  18 299.098 45.8798   6
  -7   1  17-15.5679 41.0901   6
  -7   1  16-32.3823 39.7056   4
  -7   1  15 424.684 45.4388   6
  -7   1  15 295.239 39.7254   4
  -7   1  14-23.8082 42.3922   6
  -7   1  14 25.1446 35.8985   4
  -7   1  13 76.6110 38.2452   6
  -7   1  13 45.8322 36.2662   4
  -7   1  12 669.017 46.3734   6
  -7   1  11-13.4116 36.6656   2
  -7   1  11-36.7935 40.8772   6
  -7   1  10 37.6049 40.8662   6
  -7   1  10 128.892 35.5467   2
  -7   1   9-34.9430 37.5888   6
  -7   1   9-23.9307 33.1304   2
  -7   1   8 57.7756 38.2206   6
  -7   1   8 91.1679 34.0231   2
  -7   1   7 35.2630 36.6610   6
  -7   1   7 64.0397 34.8917   2
  -7   1   6 622.693 35.1954   2
  -7   1   6 567.876 38.2157   6
  -7   1   6 529.712 29.3260   3
  -7   1   5 23.1339 23.5764   3
  -7   1   5-13.3873 37.5888   6
  -7   1   5 5.86276 28.5903   2
  -7   1   4 41.2596 25.1776   3
  -7   1   4-6.64369 36.2392   6
  -7   1   4-11.3334 27.5546   2
  -7   1   3 108.652 26.4362   3
  -7   1   3 122.905 35.2774   6
  -7   1   3 90.1121 28.6548   2
  -7   1   2-2.45068 26.7262   3
  -7   1   2 55.7459 35.1549   6
  -7   1   2 10.1417 25.8427   2
  -7   1   1 42.6784 28.0037   3
  -7   1   1 54.9880 36.2429   6
  -7   1   1 20.8214 25.2858   2
  -7   1   0 149.933 29.8767   3
  -7   1   0 135.372 36.0118   6
  -7   1   0 133.816 25.7545   2
  -7   1  -1-8.80523 30.0587   3
  -7   1  -1 6.00009 25.0807   2
  -7   1  -2 173.300 33.5243   3
  -7   1  -2 184.737 26.3702   2
  -7   1  -3 287.433 27.6103   2
  -7   1  -3 292.085 34.8836   3
  -7   1  -4 13.2610 22.3868   1
  -7   1  -4-17.5449 32.4566   3
  -7   1  -4-25.7230 27.1622   2
  -7   1  -5 1084.13 34.4906   1
  -7   1  -5 1046.99 36.4994   2
  -7   1  -5 1183.13 43.8734   3
  -7   1  -6 237.538 29.2496   1
  -7   1  -6 257.145 36.5996   3
  -7   1  -6 271.729 32.2042   2
  -7   1  -7 386.294 30.7800   1
  -7   1  -7 474.773 33.1020   2
  -7   1  -7 573.479 38.7585   3
  -7   1  -8 234.126 35.7666   3
  -7   1  -8 179.481 32.0807   1
  -7   1  -9 11.9593 32.8689   3
  -7   1  -9 59.3902 29.8797   1
  -7   1 -10-19.2089 32.3013   1
  -7   1 -10-2.69660 33.2989   3
  -7   1 -11-16.4734 30.6089   3
  -7   1 -11 4.10538 31.5309   1
  -7   1 -12 2.44688 32.8398   3
  -7   1 -12 22.3783 35.1620   1
  -7   1 -13-38.3940 31.7561   3
  -7   1 -13-4.37578 36.2251   1
  -7   1 -14 9.42810 28.6052   3
  -7   1 -14-10.5975 38.5946   1
  -7   1 -17-9.98589 37.9308   1
  -7   0  20 61.1276 43.9875   4
  -7   0  19 248.238 42.8002   6
  -7   0  18 2.43003 41.6124   6
  -7   0  16 56.6089 38.5474   6
  -7   0  16 26.1060 39.5084   4
  -7   0  15 7.95948 40.2687   6
  -7   0  14 21.4197 38.8615   6
  -7   0  14-9.22451 36.1551   4
  -7   0  13 53.5291 39.0908   2
  -7   0  13 87.8601 39.3411   6
  -7   0  12 109.278 36.9709   6
  -7   0  12 170.588 40.7909   2
  -7   0  11-43.0039 36.5541   6
  -7   0  11 1.94988 36.4337   2
  -7   0  10 107.866 36.8956   2
  -7   0  10 89.9490 38.6266   6
  -7   0   9 52.5440 36.2791   6
  -7   0   9 82.8853 37.1539   2
  -7   0   8-47.9975 34.2688   6
  -7   0   8-20.7269 34.2262   2
  -7   0   7 51.8903 22.5454   3
  -7   0   7 53.8941 36.7150   6
  -7   0   7 66.6256 33.4753   2
  -7   0   6 20.5029 23.3201   3
  -7   0   6 27.3969 36.4280   6
  -7   0   6 14.1520 31.9075   2
  -7   0   5 927.102 43.4742   6
  -7   0   5 966.457 37.9577   2
  -7   0   5 900.298 30.5466   3
  -7   0   4 35.2067 24.5614   3
  -7   0   4 15.5128 35.2461   6
  -7   0   4 15.0446 31.0328   2
  -7   0   3 14.9747 25.1236   3
  -7   0   3 33.4894 35.4049   6
  -7   0   3-1.55686 28.9036   2
  -7   0   2-9.69309 27.1863   3
  -7   0   2 43.7352 34.1796   6
  -7   0   2-15.4917 28.9474   2
  -7   0   1 49.6360 32.4218   6
  -7   0   1 11.8325 27.9362   3
  -7   0   1 6.31164 27.0605   2
  -7   0   0 52.2640 30.3841   3
  -7   0   0 51.3229 28.4782   2
  -7   0  -1 646.866 33.7665   2
  -7   0  -1 691.303 36.8819   3
  -7   0  -2 543.614 31.9618   2
  -7   0  -2 540.415 37.4987   3
  -7   0  -3 1544.44 40.4515   2
  -7   0  -3 1689.84 46.4502   3
  -7   0  -4 1043.99 39.7476   2
  -7   0  -4 1258.71 43.0260   3
  -7   0  -5 341.507 35.0502   2
  -7   0  -5 396.528 38.6539   3
  -7   0  -6 27.7218 29.1175   1
  -7   0  -6 28.1769 35.2376   3
  -7   0  -6 7.15204 32.2940   2
  -7   0  -7 555.963 35.1488   1
  -7   0  -7 635.448 36.6047   2
  -7   0  -7 574.286 40.0209   3
  -7   0  -8 103.845 35.3286   3
  -7   0  -8 146.714 30.3081   1
  -7   0  -8 155.730 30.7130   2
  -7   0  -9-15.0151 31.8078   3
  -7   0  -9 17.2573 30.0135   1
  -7   0  -9 28.2753 31.8461   2
  -7   0 -10 68.1004 32.7326   3
  -7   0 -10 29.1366 33.1036   1
  -7   0 -10 103.474 33.0544   2
  -7   0 -11 39.6868 31.8642   3
  -7   0 -12 19.2392 32.2688   3
  -7   0 -12-34.2946 36.5391   1
  -7   0 -13-46.4277 32.2708   3
  -7   0 -14 6.78223 31.6989   3
  -7  -1  20 242.096 39.3993   6
  -7  -1  20 48.0783 45.5394   4
  -7  -1  18-51.3231 38.3284   6
  -7  -1  17 64.9599 38.1217   6
  -7  -1  17 13.4643 39.4454   4
  -7  -1  16 13.0801 38.8143   6
  -7  -1  15-17.2567 37.5276   6
  -7  -1  15 16.6303 36.3882   4
  -7  -1  14 72.7232 37.5692   6
  -7  -1  14-22.5049 41.6681   2
  -7  -1  14 38.9913 35.7760   4
  -7  -1  13 2.68009 32.3169   6
  -7  -1  13-39.8151 39.5868   2
  -7  -1  12 82.5011 34.4695   6
  -7  -1  12 84.4383 40.6070   2
  -7  -1  11 131.258 37.0294   6
  -7  -1  11 122.249 39.0463   2
  -7  -1  10-25.4141 33.9781   6
  -7  -1  10 13.6323 37.8421   2
  -7  -1   9-5.06503 34.3099   6
  -7  -1   9-15.5919 37.0759   2
  -7  -1   8 151.895 33.2228   6
  -7  -1   8 173.517 35.8874   2
  -7  -1   7 340.672 37.6331   6
  -7  -1   7 308.177 36.3199   2
  -7  -1   7 237.481 24.0395   3
  -7  -1   6 151.507 23.9444   3
  -7  -1   6 196.447 33.1121   6
  -7  -1   6 166.457 35.4846   2
  -7  -1   5-21.8230 24.7374   3
  -7  -1   5-13.2495 31.7508   6
  -7  -1   5-13.2448 32.4962   2
  -7  -1   4 22.5590 23.6509   3
  -7  -1   4-28.9624 30.7583   6
  -7  -1   4 16.3213 32.3391   2
  -7  -1   3 9.19011 25.1512   3
  -7  -1   3-38.3793 33.0726   2
  -7  -1   2 253.922 34.5561   6
  -7  -1   2 160.846 32.7176   2
  -7  -1   2 238.004 29.7296   3
  -7  -1   1 336.118 34.4192   2
  -7  -1   1 381.940 31.7483   3
  -7  -1   0 188.878 33.6450   2
  -7  -1  -1 1435.73 41.0429   2
  -7  -1  -2 2782.17 49.8064   2
  -7  -1  -3 160.357 36.8407   2
  -7  -1  -4 489.422 38.1674   2
  -7  -1  -5 998.495 42.7371   2
  -7  -1  -6-38.0382 34.2012   2
  -7  -1  -7-17.7178 32.8316   2
  -7  -1  -8 31.9338 32.9517   2
  -7  -1  -9 32.8013 30.7202   1
  -7  -1  -9 70.9783 34.0063   2
  -7  -1 -10 250.423 35.6463   1
  -7  -1 -10 272.659 38.0038   2
  -7  -1 -11-4.51667 35.8399   1
  -7  -1 -11 2.05543 39.3694   2
  -7  -1 -12-32.0067 31.0762   3
  -7  -1 -12-26.9120 34.9499   1
  -7  -1 -13 55.1860 32.2013   3
  -7  -1 -13 20.2919 35.1659   1
  -7  -1 -13 120.498 42.5800   2
  -7  -1 -14 11.3629 29.6739   3
  -7  -1 -14-5.18163 35.6178   1
  -7  -1 -15-14.6088 36.5701   1
  -7  -2  19-48.5851 35.2204   6
  -7  -2  18 130.495 37.6588   6
  -7  -2  18 86.2939 38.2116   4
  -7  -2  16 61.4792 40.4089   2
  -7  -2  16-13.9202 32.3189   6
  -7  -2  16 19.0003 35.3181   4
  -7  -2  15 106.494 35.6002   6
  -7  -2  15 68.5494 43.4303   2
  -7  -2  15 59.9263 36.9438   4
  -7  -2  14 999.646 42.6885   6
  -7  -2  14 1037.17 50.7456   2
  -7  -2  13-27.0653 33.4057   6
  -7  -2  13-12.9166 39.8743   2
  -7  -2  12 12.4143 35.3590   6
  -7  -2  12 64.8658 40.9186   2
  -7  -2  11-14.3119 31.8766   6
  -7  -2  11 29.3024 39.4885   2
  -7  -2  10 84.4073 33.2499   6
  -7  -2  10 110.467 38.7788   2
  -7  -2   9 48.0206 31.3815   6
  -7  -2   9 94.8800 39.0102   2
  -7  -2   8 62.2122 33.8673   6
  -7  -2   8 44.9399 36.1997   2
  -7  -2   7 19.1980 22.0921   3
  -7  -2   7 31.8977 31.7114   6
  -7  -2   7 71.2536 36.4205   2
  -7  -2   6 34.9563 24.6160   3
  -7  -2   6 48.0071 32.2412   6
  -7  -2   6 65.8626 34.9474   2
  -7  -2   5 279.822 32.2435   6
  -7  -2   5 259.700 36.3952   2
  -7  -2   5 257.769 26.5376   3
  -7  -2   4 113.940 26.0693   3
  -7  -2   4 47.5389 37.1877   2
  -7  -2   3 153.052 33.9454   6
  -7  -2   3 39.2111 37.3993   2
  -7  -2   2 1789.78 47.1970   2
  -7  -2   1 3152.01 53.1678   2
  -7  -2   0 808.394 41.7305   2
  -7  -2  -1 3576.29 56.2271   2
  -7  -2  -2 4767.08 63.5995   2
  -7  -2  -3 5.92566 38.4264   2
  -7  -2  -4 46.7180 37.8223   2
  -7  -2  -5 267.907 37.8312   2
  -7  -2  -6 32.7371 35.6691   2
  -7  -2  -7 25.8983 34.5326   2
  -7  -2  -8-10.8513 35.1135   2
  -7  -2  -9 119.855 36.9965   2
  -7  -2 -10 24.1369 37.4085   2
  -7  -2 -11 7.31339 39.8915   2
  -7  -2 -13-17.8934 40.5684   2
  -7  -2 -14 17.6631 43.9893   2
  -7  -2 -15 11.6831 47.9087   2
  -7  -2 -16-10.5914 46.6684   2
  -7  -3  20-38.3246 38.5087   4
  -7  -3  19-21.5913 40.7249   4
  -7  -3  18-7.50917 38.0115   4
  -7  -3  17-36.9377 42.8136   2
  -7  -3  17-42.9433 37.1564   4
  -7  -3  16 171.386 43.2012   2
  -7  -3  16 109.364 37.3934   4
  -7  -3  15-42.4893 40.6322   2
  -7  -3  14 57.7963 34.7156   6
  -7  -3  14 123.219 41.4955   2
  -7  -3  13 413.136 35.2771   6
  -7  -3  13 452.782 44.4199   2
  -7  -3  12 38.1858 33.8977   6
  -7  -3  12 134.028 41.2006   2
  -7  -3  11-4.22131 30.4707   6
  -7  -3  11 93.2071 40.6167   2
  -7  -3  10-50.1725 31.0117   6
  -7  -3  10 37.5737 38.5685   2
  -7  -3   9 541.499 37.0265   6
  -7  -3   9 605.791 43.4046   2
  -7  -3   8 779.110 36.1935   6
  -7  -3   8 740.614 43.4819   2
  -7  -3   7 64.8626 24.6050   3
  -7  -3   7 84.1355 30.4628   6
  -7  -3   7 105.812 40.3522   2
  -7  -3   6 568.980 35.1265   6
  -7  -3   6 658.933 42.3331   2
  -7  -3   5 453.202 33.9227   6
  -7  -3   5 428.877 41.4539   2
  -7  -3   4 601.048 34.9974   6
  -7  -3   4 480.691 41.7880   2
  -7  -3   3 547.710 41.3830   2
  -7  -3   2 292.259 39.9218   2
  -7  -3   1 112.322 40.3556   2
  -7  -3   0 3700.47 59.8127   2
  -7  -3  -1 5761.07 68.4818   2
  -7  -3  -2 151.417 41.1596   2
  -7  -3  -3 227.185 40.2045   2
  -7  -3  -4 296.249 40.3126   2
  -7  -3  -5 56.1461 37.9548   2
  -7  -3  -6 32.8319 37.7442   2
  -7  -3  -7 8.19105 39.3850   2
  -7  -3  -8 2.68352 36.6618   2
  -7  -3  -9 26.5220 38.4511   2
  -7  -3 -10 8.46198 39.7903   2
  -7  -3 -11-22.4955 39.8393   2
  -7  -3 -12-36.2436 43.4092   2
  -7  -3 -14 20.7483 46.1734   2
  -7  -3 -15 53.9123 46.3316   2
  -7  -4  19 42.4056 38.9781   4
  -7  -4  17 28.7657 44.1210   2
  -7  -4  17 79.3817 36.5976   4
  -7  -4  16 97.2150 42.6316   2
  -7  -4  15 728.462 48.0566   2
  -7  -4  14 169.327 42.6340   2
  -7  -4  13 49.1930 42.2895   2
  -7  -4  12 208.313 43.5161   2
  -7  -4  11 40.7860 40.4018   2
  -7  -4  10 46.6352 39.9177   2
  -7  -4   9 47.0400 40.0369   2
  -7  -4   8 20.2985 39.3560   2
  -7  -4   7 324.640 41.3746   2
  -7  -4   6 2752.09 58.3291   2
  -7  -4   5 119.974 30.7255   6
  -7  -4   5 36.8212 40.1143   2
  -7  -4   4 419.913 42.2231   2
  -7  -4   3 309.799 41.3306   2
  -7  -4   2 441.873 43.5821   2
  -7  -4   1 21.8670 39.5431   2
  -7  -4   0 479.170 42.4843   2
  -7  -4  -1 2010.58 54.4018   2
  -7  -4  -2 789.597 47.3083   2
  -7  -4  -3 475.216 44.5581   2
  -7  -4  -4 101.054 41.6439   2
  -7  -4  -5 28.7770 39.9122   2
  -7  -4  -6 95.6930 40.4188   2
  -7  -4  -7-8.37551 35.5650   2
  -7  -4  -8 26.9294 41.3671   2
  -7  -4  -9 1.69790 40.0600   2
  -7  -4 -10-14.8969 40.9126   2
  -7  -4 -11-36.1419 42.0355   2
  -7  -4 -12-39.5950 57.4108   2
  -7  -4 -13-6.51624 48.3002   2
  -7  -5  19 77.5717 37.5196   4
  -7  -5  18 15.7945 39.0642   4
  -7  -5  17-20.2271 42.8682   2
  -7  -5  16 9.88380 41.3841   2
  -7  -5  15 125.388 41.7512   2
  -7  -5  14 588.334 47.1109   2
  -7  -5  13 147.518 41.8240   2
  -7  -5  12 128.220 43.3669   2
  -7  -5  11 63.4661 40.1370   2
  -7  -5  10 609.858 45.9323   2
  -7  -5   9 787.328 48.4225   2
  -7  -5   8 64.6773 40.2870   2
  -7  -5   7 251.247 42.3264   2
  -7  -5   6 84.0904 40.6466   2
  -7  -5   5 19.8413 38.5470   2
  -7  -5   4 500.781 43.2694   2
  -7  -5   3 170.216 41.0099   2
  -7  -5   2 14.0234 40.4448   2
  -7  -5   1 202.468 41.3717   2
  -7  -5   0 19.7878 40.3081   2
  -7  -5  -1 23.2286 41.3222   2
  -7  -5  -2 623.312 47.4015   2
  -7  -5  -3 30.3345 42.5862   2
  -7  -5  -4 30.9876 40.4480   2
  -7  -5  -5-5.24895 40.9382   2
  -7  -5  -6 90.1526 44.3319   2
  -7  -5  -7 182.318 43.9852   2
  -7  -5  -8 64.4092 41.0868   2
  -7  -5  -9-13.6987 42.9206   2
  -7  -5 -10 73.8133 44.0488   2
  -7  -5 -11-33.4705 44.5010   2
  -7  -5 -12-30.7494 47.9503   2
  -7  -6  20-16.9735 39.8897   4
  -7  -6  18-37.8618 40.7122   2
  -7  -6  17 49.2414 42.3635   2
  -7  -6  16 466.014 47.4721   2
  -7  -6  15 548.850 50.4740   2
  -7  -6  14 66.0409 44.0710   2
  -7  -6  13 48.6114 42.3612   2
  -7  -6  12 258.415 43.9771   2
  -7  -6  11 73.2665 41.9584   2
  -7  -6  10-19.8790 42.8293   2
  -7  -6   9 24.3801 41.0609   2
  -7  -6   8 44.3018 41.2494   2
  -7  -6   7 20.6735 39.8840   2
  -7  -6   6 204.340 42.3389   2
  -7  -6   5 51.4686 40.8452   2
  -7  -6   4-28.9469 39.9684   2
  -7  -6   3-33.1496 39.6728   2
  -7  -6   2 15.1800 40.8344   2
  -7  -6   1-10.6263 39.2367   2
  -7  -6   0-21.6168 42.3615   2
  -7  -6  -1 32.6803 44.3724   2
  -7  -6  -2 56.6813 42.7040   2
  -7  -6  -3-25.0438 43.7961   2
  -7  -6  -4-13.8101 39.9649   2
  -7  -6  -5-9.32138 41.9333   2
  -7  -6  -6 84.5176 42.7520   2
  -7  -6  -7-27.4393 42.0118   2
  -7  -6  -8 29.1067 45.1204   2
  -7  -6  -9 83.1657 44.2732   2
  -7  -6 -10 40.8794 45.7085   2
  -7  -6 -11 63.5505 46.7349   2
  -7  -7  18 29.7381 42.8169   2
  -7  -7  17 170.464 43.4262   2
  -7  -7  16 192.806 46.2876   2
  -7  -7  15 570.543 50.5301   2
  -7  -7  14 93.2336 45.9058   2
  -7  -7  12-8.08946 48.0374   2
  -7  -7  11 115.374 46.3970   2
  -7  -7  10-21.8727 41.9479   2
  -7  -7   9-31.4759 42.2009   2
  -7  -7   8 31.5126 41.5838   2
   7   7  -8 5.03094 33.6591   1
  -7  -7   7 89.5223 41.8405   2
  -7  -7   6 8.38298 39.8083   2
  -7  -7   5 47.9653 41.4175   2
  -7  -7   4 19.2500 41.6409   2
  -7  -7   3 12.5967 42.1547   2
  -7  -7   2 51.7752 41.6332   2
  -7  -7   1-2.33585 41.5732   2
  -7  -7  -1-6.78221 42.3117   2
  -7  -7  -2 57.7936 44.4152   2
  -7  -7  -3 10.4898 43.4670   2
  -7  -7  -4 36.4381 43.1080   2
  -7  -7  -5 36.5089 43.3424   2
  -7  -7  -6-7.42068 45.3968   2
  -7  -7  -7 92.3619 44.6862   2
  -7  -7  -8 50.0971 49.0656   2
  -7  -7  -9 85.4175 46.8527   2
  -7  -8  16 62.0223 46.4755   2
  -7  -8  15 7.06006 44.8525   2
  -7  -8  14 22.8839 43.9880   2
  -7  -8  13 255.587 46.8122   2
  -7  -8  12 31.2822 45.1319   2
  -7  -8  11 41.3611 44.6158   2
  -7  -8  10 39.2650 43.2349   2
   7   8  -9 47.5890 32.7796   1
  -7  -8   9 232.160 43.9848   2
  -7  -8   8 613.526 47.5200   2
   7   8  -8 127.038 36.0272   1
  -7  -8   7 87.8966 44.5891   2
  -7  -8   6 22.4399 43.0884   2
  -7  -8   5 38.7637 42.4667   2
  -7  -8   4 76.4607 42.3283   2
  -7  -8   3 93.8772 43.8103   2
  -7  -8   2 19.6567 41.1209   2
  -7  -8   1 21.6408 40.4682   2
  -7  -8  -1-6.25714 43.6024   2
  -7  -8  -2 59.7713 44.1381   2
  -7  -8  -3 21.5992 45.9552   2
  -7  -8  -4-1.91637 43.8314   2
  -7  -8  -5 175.503 45.1427   2
  -7  -8  -6-30.4422 46.7256   2
  -7  -8  -7 144.004 48.4423   2
  -7  -9  17 118.746 48.0606   2
  -7  -9  16 147.317 45.1646   2
  -7  -9  15 379.873 47.1300   2
  -7  -9  14 43.0041 44.7553   2
  -7  -9  13-19.5940 43.3827   2
  -7  -9  12-31.6866 45.8361   2
  -7  -9  11-47.3464 45.4471   2
   7   9 -10 35.8412 33.8394   1
  -7  -9  10 70.9836 45.6848   2
  -7  -9   9-18.3958 44.5159   2
  -7  -9   8-42.9033 43.2531   2
   7   9  -8-29.5102 36.4699   1
  -7  -9   7 29.1358 43.3610   2
  -7  -9   6-24.8127 42.8304   2
  -7  -9   5-29.0568 42.2386   2
  -7  -9   4 59.6547 43.2540   2
  -7  -9   3 215.278 44.5200   2
  -7  -9   2 224.188 46.9017   2
  -7  -9   1-33.5441 41.9244   2
  -7  -9  -1 109.103 47.6651   2
  -7  -9  -2 242.562 47.4650   2
  -7  -9  -4 121.386 47.4738   2
  -7  -9  -5 57.5708 47.5323   2
  -7 -10  14 219.024 48.6274   2
  -7 -10  13 4.56646 46.8277   2
  -7 -10  12 96.8909 45.3659   2
  -7 -10  11 92.2174 46.7415   2
  -7 -10  10 82.1209 44.6963   2
   7  10  -9-65.4997 38.3633   1
  -7 -10   9 40.2925 43.3102   2
   7  10  -8-52.2474 38.7534   1
  -7 -10   8-50.8947 44.5349   2
  -7 -10   7 101.794 46.1003   2
  -7 -10   6-11.3456 41.8820   2
  -7 -10   5-4.86368 40.8491   2
  -7 -10   4 35.5331 45.2653   2
  -7 -10   3-4.45517 43.4431   2
  -7 -10   1 48.2982 43.6485   2
  -7 -10   0-30.0730 45.8689   2
  -7 -10  -1 64.0530 46.2517   2
  -7 -10  -2-48.1899 47.6548   2
  -7 -10  -3 80.9442 47.8645   2
  -7 -11  14 24.1557 42.7533   2
  -7 -11  12 138.283 46.8080   2
   7  11 -12 74.4442 37.8639   1
  -7 -11  11 179.756 47.4424   2
   7  11 -11 29.1938 36.6177   1
  -7 -11  10 77.7387 45.9425   2
   7  11  -9-61.9482 38.1571   1
  -7 -11   9 77.3737 44.9861   2
   7  11  -8 51.0817 37.7325   1
  -7 -11   8 17.2996 43.3321   2
  -7 -11   7 86.3203 42.4038   2
  -7 -11   6 80.4431 45.4379   2
  -7 -11   3 100.888 44.8568   2
  -7 -11   2-43.3946 46.0634   2
  -7 -11   0 55.2521 46.2732   2
   7  12 -13 159.677 42.9836   1
   7  12 -12 18.3424 38.4422   1
   7  12 -11-32.0830 39.5443   1
  -7 -12  10 8.94001 43.9001   2
   7  12  -9 29.4211 41.7398   1
  -7 -12   9 61.6217 44.0529   2
   7  12  -8 155.680 43.8871   1
  -7 -12   8 38.3799 43.7948   2
  -7 -12   7 56.3687 44.3708   2
  -7 -12   6 48.0585 46.0508   2
  -7 -12   5 12.4656 45.7984   2
  -8  14   1-5.92260 40.3282   5
  -8  14   0 115.484 41.4364   5
  -8  14  -1-16.0036 43.1781   5
  -8  14  -3 45.6805 41.0169   5
  -8  14  -4-37.9297 43.4417   5
  -8  14  -5 0.89203 42.0941   5
  -8  14  -6 9.36336 41.5369   5
  -8  14  -7 92.0554 45.5826   5
  -8  13   3 36.1622 41.2646   5
  -8  13   2 11.7335 41.5889   5
  -8  13   1 21.1435 39.1002   5
  -8  13   0 90.1137 42.7187   5
  -8  13  -1 20.3177 40.1748   5
  -8  13  -3 109.020 43.3676   5
  -8  13  -5 16.2778 42.1313   5
  -8  13  -6 25.2613 41.3061   5
  -8  13  -7 78.0447 43.1267   5
  -8  13 -10-49.2641 42.2985   5
  -8  13 -12 6.92787 41.5601   5
  -8  13 -13 137.864 43.0880   5
  -8  12   6 162.092 35.2460   6
  -8  12   4 235.479 39.3388   6
  -8  12   3 119.309 38.4874   6
  -8  12   3 72.2199 40.6256   5
  -8  12   2 26.1728 40.6462   5
  -8  12   1-37.2423 35.9307   6
  -8  12   1-24.2238 38.0682   5
  -8  12   0 18.4783 33.0334   6
  -8  12   0 75.6803 41.6270   5
  -8  12  -1-16.2433 41.0735   5
  -8  12  -3 78.8169 41.9285   5
  -8  12  -4-22.1344 42.4408   5
  -8  12  -5 166.550 44.5465   5
  -8  12  -6 26.8158 42.8157   5
  -8  12  -7 15.6607 43.4040   5
  -8  12 -11-28.4308 40.7417   5
  -8  12 -12-47.5973 41.3079   5
  -8  12 -13 111.173 42.9791   5
  -8  12 -14-23.0285 41.7487   5
  -8  12 -15 4.43131 41.1222   5
  -8  11   7-7.46920 33.2483   6
  -8  11   6 63.0646 34.5918   6
  -8  11   4 150.213 35.7730   6
  -8  11   2 11.6032 40.8476   5
  -8  11   1 72.9817 36.7172   6
  -8  11   1 90.5185 40.4864   5
  -8  11   0 188.502 36.2135   6
  -8  11   0 81.4784 39.4989   5
  -8  11  -1 164.184 34.2729   6
  -8  11  -1-32.3868 40.5680   5
  -8  11  -2 172.866 34.0776   6
  -8  11  -2-42.4923 41.3155   5
  -8  11  -3 65.2887 37.5350   6
  -8  11  -3 30.1511 41.3334   5
  -8  11  -4 182.041 38.2503   6
  -8  11  -4-37.5007 42.1235   5
  -8  11  -5 74.9147 42.5536   5
  -8  11  -6 81.9137 44.7390   5
  -8  11  -7 35.0934 43.3846   5
  -8  11  -8-34.7545 42.3637   5
  -8  11 -10 11.2061 42.9739   5
  -8  11 -11 130.156 42.1851   5
  -8  11 -13 92.1725 39.4992   5
  -8  11 -14 142.502 39.3688   5
  -8  11 -15 14.5841 37.0312   5
  -8  10   7 168.361 39.3634   6
  -8  10   4-40.5380 38.2807   6
  -8  10   2 43.3092 39.6291   5
  -8  10   1 101.821 38.8845   6
  -8  10   1 127.233 40.9806   5
  -8  10   0 193.331 39.7046   6
  -8  10   0 121.545 43.4346   5
  -8  10  -1 394.497 39.7767   6
  -8  10  -1 176.664 43.6751   5
  -8  10  -2 173.205 38.3593   6
  -8  10  -2 24.5243 41.6035   5
  -8  10  -3 146.580 39.9973   6
  -8  10  -3 9.42989 42.8853   5
  -8  10  -4 207.765 36.5642   6
  -8  10  -4-37.3149 42.6570   5
  -8  10  -5 99.1577 43.7030   5
  -8  10  -6 62.8960 40.7505   5
  -8  10  -7 84.7412 42.4328   5
  -8  10  -8-32.0544 41.3094   5
  -8  10  -9-41.9103 42.5587   5
  -8  10 -10 82.6117 40.1882   5
  -8  10 -11 33.9105 37.8352   5
  -8  10 -12 16.4365 37.7541   5
  -8  10 -13-38.1878 36.4687   5
  -8  10 -14 123.622 39.8129   5
  -8   9  10 212.202 43.4879   6
  -8   9   8-6.22063 41.2275   6
  -8   9   7 23.6743 38.4718   6
  -8   9   5 3.13518 40.3465   6
  -8   9   4-40.9436 41.3356   6
  -8   9   3 75.6819 39.7320   6
  -8   9   2 312.583 45.0210   6
  -8   9   2 343.811 42.6425   5
  -8   9   1 33.3876 41.5991   6
  -8   9   1 23.0000 41.5405   5
  -8   9   0 57.3774 41.8083   6
  -8   9   0-18.1617 41.0974   5
  -8   9  -1 310.719 43.1755   6
  -8   9  -1 335.317 43.3265   5
  -8   9  -2 102.838 38.8871   6
  -8   9  -2-2.39782 41.1383   5
  -8   9  -3 127.518 42.0085   6
  -8   9  -3-3.01490 41.5019   5
  -8   9  -4 113.067 40.7004   6
  -8   9  -4 26.8756 41.7964   5
  -8   9  -5 68.0798 40.4640   5
  -8   9  -6 71.5096 38.9638   5
  -8   9  -7 8.59261 39.0093   5
  -8   9  -8 88.9394 38.2916   5
  -8   9  -9 66.3379 40.5613   5
  -8   9 -10 311.245 40.5166   5
  -8   9 -10 413.168 40.8425   3
  -8   9 -11 209.559 40.2208   5
  -8   9 -11 446.180 42.1466   3
  -8   9 -12-47.9678 43.4612   5
  -8   9 -12 86.1622 36.9809   3
  -8   9 -13 48.6689 35.2303   5
  -8   9 -13 106.432 35.4104   3
  -8   9 -14 176.217 36.2604   3
  -8   9 -15 123.546 36.6530   3
  -8   9 -16 107.395 36.8129   1
  -8   8  10 100.216 40.2139   6
  -8   8   9 3.45283 41.2844   6
  -8   8   8 42.9510 40.1664   6
  -8   8   5 48.6209 42.3292   6
  -8   8   4 227.702 44.6876   6
  -8   8   3 6.34573 43.6673   6
  -8   8   2 508.149 45.6763   6
  -8   8   1 5.05728 39.6690   6
  -8   8   1 97.1086 41.5761   5
  -8   8   0 219.670 42.7092   6
  -8   8   0 299.167 43.9195   5
  -8   8  -1 31.6226 43.0100   6
  -8   8  -1 35.8821 41.7965   5
  -8   8  -2 116.149 42.1322   6
  -8   8  -2 46.2739 41.1544   5
  -8   8  -3 7.06834 40.3574   6
  -8   8  -3 146.712 40.2983   5
  -8   8  -4 41.6577 38.3711   5
  -8   8  -5-13.4864 38.1135   5
  -8   8  -5 30.4114 35.4464   3
  -8   8  -6-22.1838 35.5863   5
  -8   8  -6 10.2722 36.3125   3
  -8   8  -7 70.9112 36.9438   5
  -8   8  -7 64.8878 37.9207   3
  -8   8  -8 21.8162 35.9081   5
  -8   8  -8 78.0626 38.4282   3
  -8   8  -9 170.443 36.9769   5
  -8   8  -9 202.726 38.4547   3
  -8   8 -10-30.9230 35.0381   5
  -8   8 -10 39.7114 37.9684   3
  -8   8 -11 391.726 38.2270   5
  -8   8 -11 469.078 41.5269   3
  -8   8 -12 121.980 35.4553   5
  -8   8 -12 165.820 36.7289   3
  -8   8 -13 33.9419 35.3908   3
  -8   8 -14 4.93595 34.2823   3
  -8   8 -15-13.7557 32.4136   1
  -8   8 -15-37.0543 33.7599   3
  -8   8 -16 86.1475 35.4029   1
  -8   8 -17 32.9616 34.8485   1
  -8   7  12 225.806 43.2586   6
  -8   7  10 56.9889 38.6823   6
  -8   7   8 125.437 42.4029   6
  -8   7   7-27.3977 41.3894   6
  -8   7   4 536.504 46.9435   6
  -8   7   3 182.609 41.8377   6
  -8   7   2 355.182 45.5818   6
  -8   7   1-55.3662 39.8455   6
  -8   7   1 19.1662 40.1522   5
  -8   7   0-29.9568 39.0034   5
  -8   7  -1 363.687 45.4388   6
  -8   7  -1 363.468 41.1904   5
  -8   7  -1 452.212 38.7669   3
  -8   7  -2 73.9575 40.4211   6
  -8   7  -2 145.236 38.1399   5
  -8   7  -2 128.898 35.8388   3
  -8   7  -3 18.6949 41.6940   6
  -8   7  -3-22.6974 37.5303   5
  -8   7  -3 25.2413 36.9613   3
  -8   7  -4 25.9223 35.7558   5
  -8   7  -4-9.30867 37.8174   3
  -8   7  -5 18.6781 36.8680   5
  -8   7  -5-1.64196 35.6327   3
  -8   7  -6-16.4572 35.1590   5
  -8   7  -6 43.7088 36.7848   3
  -8   7  -7 57.1139 34.0863   5
  -8   7  -7 68.8139 37.9271   3
  -8   7  -8 93.2489 34.6101   5
  -8   7  -8 53.0302 36.9942   3
  -8   7  -9 26.6737 36.8177   3
  -8   7 -10 363.544 35.0030   5
  -8   7 -10 265.155 38.7328   3
  -8   7 -11 154.392 32.4849   5
  -8   7 -11 135.767 38.8254   3
  -8   7 -12 150.610 38.1609   3
  -8   7 -13 92.5406 29.7937   1
  -8   7 -13 193.268 38.1562   3
  -8   7 -14-40.4842 32.2374   1
  -8   7 -14 31.7505 34.5011   3
  -8   7 -15-8.43703 32.5025   1
  -8   7 -15 35.4926 33.3176   3
  -8   7 -16 42.7414 36.8789   1
  -8   7 -17 111.779 37.4403   1
  -8   6  12 112.101 41.9075   6
  -8   6  10 92.6285 39.6309   6
  -8   6   9-48.0460 41.4694   6
  -8   6   8-26.0485 43.1868   6
  -8   6   7 33.3994 43.1580   6
  -8   6   6 90.8247 40.0564   6
  -8   6   5 369.616 46.8105   6
  -8   6   4 80.0921 41.4334   6
  -8   6   3 274.469 43.5831   6
  -8   6   2 247.637 42.1713   6
  -8   6   1 354.792 41.1422   6
  -8   6   1 217.620 34.6436   3
  -8   6   0 98.1641 41.2407   6
  -8   6   0 39.3878 38.1878   5
  -8   6   0 7.90643 32.4690   3
  -8   6  -1 106.727 40.4909   6
  -8   6  -1-3.71823 36.4000   5
  -8   6  -1-3.22110 35.2117   3
  -8   6  -2 547.695 45.6911   6
  -8   6  -2 440.703 39.7700   5
  -8   6  -2 453.852 38.3792   3
  -8   6  -3 83.8123 38.5727   6
  -8   6  -3 47.4304 35.6174   5
  -8   6  -3 30.5055 37.7885   3
  -8   6  -4 22.0140 34.5310   5
  -8   6  -4 57.4649 36.8197   3
  -8   6  -5 29.5882 34.5925   5
  -8   6  -5-7.06929 35.4523   3
  -8   6  -6-30.2375 34.1382   5
  -8   6  -6 11.9139 36.7268   3
  -8   6  -7 29.6710 33.0069   5
  -8   6  -7 38.9588 37.3590   3
  -8   6  -8 87.5674 34.4083   5
  -8   6  -8 182.523 37.0650   3
  -8   6  -9 69.3105 30.6635   5
  -8   6  -9-26.3611 37.0914   3
  -8   6 -10 268.190 32.2077   5
  -8   6 -10 148.214 37.9946   3
  -8   6 -11 7.74138 27.1114   1
  -8   6 -11-15.3336 34.6075   3
  -8   6 -12-25.0042 29.7693   1
  -8   6 -12-42.6526 35.6530   3
  -8   6 -13-45.8550 33.9500   3
  -8   6 -14-4.69804 34.9802   1
  -8   6 -14-4.75037 35.9699   3
  -8   6 -15-55.4375 32.4947   1
  -8   6 -15-50.2465 33.6375   3
  -8   6 -16 133.165 39.1107   1
  -8   6 -17 128.485 36.9036   1
  -8   5  14-38.9996 39.5220   6
  -8   5  12 70.1925 42.8272   6
  -8   5  10 43.2426 44.0569   6
  -8   5   8 63.7035 40.5762   6
  -8   5   7 176.300 42.8615   6
  -8   5   6 92.4546 40.4662   6
  -8   5   5-54.4793 42.1513   6
  -8   5   4 82.9553 40.4221   6
  -8   5   4 156.916 30.6030   3
  -8   5   3 133.142 40.3258   6
  -8   5   3 276.518 31.5889   3
  -8   5   2-54.7914 39.5793   6
  -8   5   2-8.86551 31.7264   3
  -8   5   1 40.8813 32.8183   3
  -8   5   0 56.3043 38.6059   6
  -8   5   0 86.0971 33.2678   3
  -8   5  -1-46.8414 42.6451   6
  -8   5  -1 38.3769 37.4475   5
  -8   5  -1-39.3829 33.7036   3
  -8   5  -2 32.0550 38.1613   6
  -8   5  -2 60.8474 36.9640   5
  -8   5  -2 73.1067 35.3293   3
  -8   5  -3 79.9011 35.0378   5
  -8   5  -3-47.8328 34.6197   3
  -8   5  -4 443.442 37.5570   5
  -8   5  -4 484.376 39.4854   3
  -8   5  -5 184.991 35.1468   5
  -8   5  -5 169.721 36.0983   3
  -8   5  -6 35.6703 32.1452   5
  -8   5  -6 26.1657 36.9261   3
  -8   5  -7 36.9422 31.8722   5
  -8   5  -7-29.8067 35.9662   3
  -8   5  -8 38.4334 31.0665   5
  -8   5  -8 42.1148 35.2322   3
  -8   5  -9 35.0305 36.0947   3
  -8   5 -10-42.7483 37.8053   3
  -8   5 -10-2.33568 25.6725   1
  -8   5 -11-6.87737 36.6934   3
  -8   5 -11 7.90342 29.5791   1
  -8   5 -12 22.6187 36.8611   3
  -8   5 -12 6.69145 31.7087   1
  -8   5 -13-26.8199 32.0606   1
  -8   5 -13-6.62286 34.3577   3
  -8   5 -14 141.672 33.0411   1
  -8   5 -14 184.553 36.4181   3
  -8   5 -15-52.5552 33.3636   1
  -8   5 -16 136.192 36.5348   1
  -8   5 -17 311.936 41.2075   1
  -8   4  15 214.427 44.3542   6
  -8   4  13 54.1173 43.6920   6
  -8   4  12 29.9740 40.0079   6
  -8   4  11-2.32146 42.3705   6
  -8   4  10 4.43646 38.5316   6
  -8   4   9-40.8680 38.5611   6
  -8   4   8 71.5615 39.0781   6
  -8   4   7-19.4323 40.9834   6
  -8   4   6-43.1438 39.2210   6
  -8   4   6 41.5620 26.0201   3
  -8   4   5 8.20816 43.3562   6
  -8   4   5 22.1274 27.3228   3
  -8   4   4 5.78756 42.2070   6
  -8   4   4 35.7438 28.6235   3
  -8   4   3 225.797 43.6394   6
  -8   4   3 208.086 31.8253   3
  -8   4   2 41.5753 39.4379   6
  -8   4   2-15.5927 30.8851   3
  -8   4   1 97.1290 41.6678   6
  -8   4   1-19.5861 31.5403   3
  -8   4   0 265.644 41.3517   6
  -8   4   0 94.4584 33.6071   3
  -8   4  -1 225.673 43.9098   6
  -8   4  -1 119.349 36.0086   3
  -8   4  -2 19.7116 33.9866   3
  -8   4  -3 97.4082 35.0614   3
  -8   4  -3 204.807 34.3039   5
  -8   4  -4 81.1155 36.0515   3
  -8   4  -4 86.5644 34.2154   5
  -8   4  -5 691.136 36.6479   5
  -8   4  -5 647.811 41.4289   3
  -8   4  -6 47.4538 35.8867   3
  -8   4  -6-25.8110 29.8601   5
  -8   4  -7 767.121 35.0243   5
  -8   4  -7 695.383 41.9974   3
  -8   4  -8 67.5110 35.3317   3
  -8   4  -9 39.5137 34.1808   3
  -8   4  -9 42.4469 27.2553   1
  -8   4 -10 202.749 31.0972   1
  -8   4 -10 261.307 36.6909   3
  -8   4 -11 268.929 33.7246   1
  -8   4 -11 315.321 36.6323   3
  -8   4 -12 74.8912 35.2561   3
  -8   4 -12-28.0396 31.9299   1
  -8   4 -13 92.9457 33.9395   3
  -8   4 -13 11.3286 31.2856   1
  -8   4 -14 159.557 34.3953   3
  -8   4 -14 26.9275 35.3715   1
  -8   4 -15 46.2744 32.5403   3
  -8   4 -15-46.9801 34.4512   1
  -8   4 -16-19.0722 34.1339   1
  -8   4 -17 42.9218 36.3496   1
  -8   3  16 211.972 42.3428   6
  -8   3  15 12.8758 42.0508   6
  -8   3  13 186.942 42.0253   6
  -8   3  12 30.4948 43.6031   6
  -8   3  11 34.3316 40.9553   6
  -8   3  10-48.0724 38.9717   6
  -8   3   9-22.9059 39.5081   6
  -8   3   8-12.8110 39.2305   6
  -8   3   8-1.26495 30.6947   2
  -8   3   7 33.4364 39.6456   6
  -8   3   7-31.4917 28.7542   2
  -8   3   6 35.3562 42.2493   6
  -8   3   6 36.8652 28.4882   2
  -8   3   6 52.5251 26.6103   3
  -8   3   5-7.62015 41.3959   6
  -8   3   5 35.8193 28.0124   3
  -8   3   4-43.2821 41.6783   6
  -8   3   4-15.2921 28.4291   3
  -8   3   3 38.7478 41.4607   6
  -8   3   3 22.3040 29.6870   3
  -8   3   2-18.5914 39.3404   6
  -8   3   2 3.95984 31.4971   3
  -8   3   1 454.583 45.5148   6
  -8   3   1 476.937 37.4020   3
  -8   3   0-7.95782 34.1514   3
  -8   3   0 41.3584 39.5943   6
  -8   3  -1 157.761 33.8767   3
  -8   3  -1 176.978 42.3353   6
  -8   3  -2-8.43867 34.0758   3
  -8   3  -3 950.412 43.3751   3
  -8   3  -4 1042.88 43.8411   3
  -8   3  -5 288.214 32.2139   5
  -8   3  -5 270.245 37.7414   3
  -8   3  -6 0.58564 35.0039   3
  -8   3  -6 9.66667 28.1175   5
  -8   3  -7 309.472 28.3957   1
  -8   3  -7 336.383 37.7371   3
  -8   3  -8 16.1010 33.1943   3
  -8   3  -8 45.7270 25.9599   1
  -8   3  -9-26.8217 32.9456   3
  -8   3  -9 36.6922 27.6693   1
  -8   3 -10-30.7730 33.6439   3
  -8   3 -10 23.9988 31.1884   1
  -8   3 -11 71.9459 33.5371   3
  -8   3 -11 52.1939 29.7006   1
  -8   3 -12 125.138 34.6188   3
  -8   3 -12 76.5400 32.2922   1
  -8   3 -13 0.86401 33.0182   3
  -8   3 -13-49.4985 34.9026   1
  -8   3 -14 25.8853 32.4549   3
  -8   3 -14-15.1738 34.6237   1
  -8   3 -15 97.9400 30.5990   3
  -8   3 -16-45.8769 35.7814   1
  -8   2  17 52.0668 41.8886   6
  -8   2  16 74.6567 41.1626   6
  -8   2  14 48.9521 42.9148   6
  -8   2  13 47.2247 39.5079   6
  -8   2  12 576.342 48.4846   6
  -8   2  11-8.44252 42.7897   6
  -8   2  10-40.5368 42.6880   6
  -8   2  10 26.6060 34.7121   2
  -8   2   9 104.356 41.1672   6
  -8   2   9 24.1546 33.4838   2
  -8   2   8 44.7471 38.3489   6
  -8   2   8-43.6868 32.3309   2
  -8   2   7 11.3731 30.8525   2
  -8   2   6 149.855 41.3693   6
  -8   2   6 173.447 32.0655   2
  -8   2   6 145.631 26.9394   3
  -8   2   5 12.1443 40.8674   6
  -8   2   5 37.2068 29.8104   2
  -8   2   5 31.0814 27.3645   3
  -8   2   4 174.759 42.3016   6
  -8   2   4 186.983 29.8517   2
  -8   2   4 171.775 29.7047   3
  -8   2   3 28.0658 29.9038   3
  -8   2   3 47.9658 39.9745   6
  -8   2   3 21.3039 27.4800   2
  -8   2   2 394.163 30.5060   2
  -8   2   2 476.084 34.6917   3
  -8   2   2 476.706 44.6847   6
  -8   2   1 190.880 35.2804   3
  -8   2   1 284.090 40.6387   6
  -8   2   0 202.203 33.4551   3
  -8   2   0 191.964 43.2213   6
  -8   2  -1-7.83342 32.1965   3
  -8   2  -2 44.0151 35.8429   3
  -8   2  -3 286.355 38.3384   3
  -8   2  -4 606.367 39.5759   3
  -8   2  -5 52.5988 35.7524   3
  -8   2  -6 76.8076 33.9835   3
  -8   2  -6 55.6821 25.7421   1
  -8   2  -7 77.9072 34.9491   3
  -8   2  -7-17.9364 25.1143   1
  -8   2  -8 54.7240 33.5713   3
  -8   2  -8-39.1275 27.0253   1
  -8   2  -9 175.869 35.0952   3
  -8   2  -9 193.193 30.5312   1
  -8   2 -10 143.724 34.6731   3
  -8   2 -10 141.964 32.1842   1
  -8   2 -11 22.8760 32.7830   3
  -8   2 -11 17.9094 33.8146   1
  -8   2 -12 34.0406 33.7560   3
  -8   2 -12 11.5378 34.9424   1
  -8   2 -13-17.0073 32.6952   3
  -8   2 -13-48.3211 32.2810   1
  -8   2 -14-22.4986 31.8603   3
  -8   2 -14-48.1640 33.3696   1
  -8   2 -15 26.6081 31.2608   3
  -8   2 -15-21.6092 35.5978   1
  -8   2 -16-39.8048 36.5379   1
  -8   1  17 147.314 41.0445   6
  -8   1  15 39.9498 40.3178   6
  -8   1  14 75.1504 42.5251   6
  -8   1  13 35.7689 40.1925   6
  -8   1  12 20.4357 38.9340   2
  -8   1  12 83.3158 42.5952   6
  -8   1  11-3.33349 42.8332   6
  -8   1  11 95.2887 38.0981   2
  -8   1  10 39.8814 39.3774   6
  -8   1  10 91.4468 35.1050   2
  -8   1   9 61.8295 37.3214   6
  -8   1   9 112.292 35.1843   2
  -8   1   8-31.3644 39.3970   6
  -8   1   8 97.4909 34.3762   2
  -8   1   7 238.788 43.0968   6
  -8   1   7 192.402 35.3998   2
  -8   1   6 78.2614 26.7667   3
  -8   1   6 158.316 42.8574   6
  -8   1   6 83.8379 33.9152   2
  -8   1   5 1663.60 51.7213   6
  -8   1   5 1436.81 41.5781   2
  -8   1   5 1524.86 39.6678   3
  -8   1   4 8.88620 27.9023   3
  -8   1   4 34.0512 37.1721   6
  -8   1   4-14.9309 31.0299   2
  -8   1   3-3.49383 28.8337   3
  -8   1   3 51.0549 41.3806   6
  -8   1   3-10.7600 29.3819   2
  -8   1   2 105.273 30.7308   3
  -8   1   2 177.983 39.1480   6
  -8   1   2 161.694 29.8333   2
  -8   1   1 1440.68 49.3123   6
  -8   1   1 1239.50 38.1257   2
  -8   1   1 1252.23 41.8504   3
  -8   1   0 31.7217 31.5713   3
  -8   1   0-33.1637 29.3360   2
  -8   1  -1 25.7480 32.7545   3
  -8   1  -1 13.6487 28.6788   2
  -8   1  -2 911.266 42.8374   3
  -8   1  -3-8.50342 34.1747   3
  -8   1  -4 151.196 35.3355   3
  -8   1  -5-2.77645 34.0140   3
  -8   1  -6-24.9029 34.3565   3
  -8   1  -7 22.3925 27.3067   1
  -8   1  -7 26.0742 33.3879   3
  -8   1  -8-3.47926 32.8792   3
  -8   1  -8 5.88165 29.5268   1
  -8   1  -9 6.76183 35.2245   3
  -8   1  -9 34.5958 31.4109   1
  -8   1 -10 151.235 35.9806   3
  -8   1 -10 115.427 33.3637   1
  -8   1 -11 108.045 34.1810   3
  -8   1 -11 7.00187 33.3645   1
  -8   1 -12 49.9025 32.8022   3
  -8   1 -13-23.0895 30.4880   3
  -8   1 -15-26.0530 30.4770   3
  -8   0  18 162.026 40.1838   6
  -8   0  16 64.0293 39.9725   6
  -8   0  15 96.9125 40.2048   6
  -8   0  14-24.9952 40.2867   2
  -8   0  14-46.1409 36.0338   6
  -8   0  13 208.747 42.4758   6
  -8   0  13 106.353 40.4119   2
  -8   0  12 382.280 43.6617   6
  -8   0  12 404.273 42.2634   2
  -8   0  11 41.8660 41.3438   6
  -8   0  11 73.8209 39.4076   2
  -8   0  10 3.73667 36.9824   2
  -8   0   9 80.8634 39.6573   6
  -8   0   9 142.313 37.8857   2
  -8   0   8 27.8805 37.1073   6
  -8   0   8 14.3074 36.1393   2
  -8   0   7 637.086 41.4983   6
  -8   0   7 649.062 41.0111   2
  -8   0   6 407.328 41.5232   6
  -8   0   6 299.749 37.1412   2
  -8   0   6 339.594 29.9156   3
  -8   0   5 628.398 40.0205   2
  -8   0   5 596.919 44.4900   6
  -8   0   5 585.043 32.4520   3
  -8   0   4 939.074 44.0085   6
  -8   0   4 867.370 40.1457   2
  -8   0   4 835.219 34.0545   3
  -8   0   3 334.827 41.8365   6
  -8   0   3 340.432 34.4705   2
  -8   0   3 336.730 30.6921   3
  -8   0   2-9.79088 30.5376   3
  -8   0   2 77.8369 39.8186   6
  -8   0   2 26.2768 31.4267   2
  -8   0   1 30.1705 30.2561   3
  -8   0   1-9.56233 30.1826   2
  -8   0   0-27.9016 31.9461   3
  -8   0   0 12.9584 30.1054   2
  -8   0  -1 42.7492 33.8795   3
  -8   0  -1 24.6540 30.7581   2
  -8   0  -2 359.223 33.5895   2
  -8   0  -2 376.789 36.9821   3
  -8   0  -3 63.0198 34.2708   3
  -8   0  -3 71.9710 31.0267   2
  -8   0  -4-49.9179 34.2534   3
  -8   0  -4 35.6844 30.0104   2
  -8   0  -5-32.4690 34.1175   3
  -8   0  -5-0.39338 30.5507   2
  -8   0  -6-48.5158 34.2652   3
  -8   0  -7-17.5795 32.8853   3
  -8   0  -8-5.02232 33.0663   3
  -8   0  -9 65.6013 36.0994   3
  -8   0 -10 84.5146 33.4398   1
  -8   0 -10 85.2265 34.1372   3
  -8   0 -11-48.2906 32.8880   1
  -8   0 -11 14.0645 33.0165   3
  -8   0 -12 34.6899 31.8726   3
  -8   0 -12-1.50089 35.2412   1
  -8   0 -13 8.10817 33.4859   3
  -8   0 -13-42.9782 34.5908   1
  -8   0 -14-32.0598 34.8810   1
  -8  -1  19 60.8198 37.6137   6
  -8  -1  17-2.46649 42.6209   6
  -8  -1  16 61.9297 38.6055   6
  -8  -1  15 13.1858 41.6497   2
  -8  -1  14 239.253 40.6437   6
  -8  -1  14 245.726 42.5222   2
  -8  -1  13-27.4149 39.1777   2
  -8  -1  12-23.0646 39.5770   6
  -8  -1  12 110.362 40.0540   2
  -8  -1  11 6.14993 34.7108   6
  -8  -1  11 92.3673 40.9770   2
  -8  -1  10 64.2581 36.1309   6
  -8  -1  10 142.367 39.6538   2
  -8  -1   9 28.8785 35.8654   6
  -8  -1   9 37.1017 36.3081   2
  -8  -1   8 116.251 38.6469   6
  -8  -1   8 166.174 37.7695   2
  -8  -1   7 161.759 37.5871   6
  -8  -1   7 176.243 37.7424   2
  -8  -1   6 1873.98 49.1384   6
  -8  -1   6 1767.25 48.6684   2
  -8  -1   6 1618.23 39.4918   3
  -8  -1   5 44.0497 27.1410   3
  -8  -1   5 73.9475 39.2153   6
  -8  -1   5 62.1385 36.5885   2
  -8  -1   4-1.35350 27.8428   3
  -8  -1   4 36.3020 35.8730   6
  -8  -1   4-35.0990 34.0313   2
  -8  -1   3 128.665 29.4667   3
  -8  -1   3 205.117 36.4527   6
  -8  -1   3 154.692 35.3989   2
  -8  -1   2 832.771 42.3983   6
  -8  -1   2 770.689 39.0506   2
  -8  -1   2 743.446 36.7967   3
  -8  -1   1-20.0806 30.5852   3
  -8  -1   1 3.67823 32.5825   2
  -8  -1   0 26.2366 31.2130   3
  -8  -1   0-0.66925 33.0955   2
  -8  -1  -1 132.025 34.3019   3
  -8  -1  -1 119.598 34.4823   2
  -8  -1  -2 231.084 37.1616   3
  -8  -1  -2 307.267 34.7281   2
  -8  -1  -3 220.380 35.4186   3
  -8  -1  -3 199.399 33.6742   2
  -8  -1  -4-38.3558 33.9413   3
  -8  -1  -4-29.5294 33.0405   2
  -8  -1  -5 35.4659 34.1843   3
  -8  -1  -5 16.4357 34.2528   2
  -8  -1  -6 2.45407 34.0201   3
  -8  -1  -6-22.1764 34.2770   2
  -8  -1  -7-28.8983 34.4749   3
  -8  -1  -7 1.53759 34.6202   2
  -8  -1  -8-16.1070 33.9317   3
  -8  -1  -8-9.16140 34.2176   2
  -8  -1  -9-37.3081 33.3931   3
  -8  -1  -9 27.7079 35.7978   2
  -8  -1 -10 69.1329 36.2012   3
  -8  -1 -11 45.2143 32.9824   3
  -8  -1 -12 24.3991 32.9584   3
  -8  -1 -13-2.38875 33.4596   3
  -8  -2  15 37.0306 31.2215   6
  -8  -2  15 18.1387 41.5196   2
  -8  -2  14 25.6016 35.8067   6
  -8  -2  14-0.90023 41.9630   2
  -8  -2  13-13.0716 34.8859   6
  -8  -2  13 32.1145 40.9706   2
  -8  -2  12 22.8249 41.5355   2
  -8  -2  11 19.2844 35.0628   6
  -8  -2  11 102.051 41.4988   2
  -8  -2  10 400.642 36.5057   6
  -8  -2  10 452.254 42.5927   2
  -8  -2   9 68.3879 34.3436   6
  -8  -2   9 54.2982 38.5012   2
  -8  -2   8 503.384 38.0126   6
  -8  -2   8 504.613 40.5207   2
  -8  -2   7 206.862 35.6409   6
  -8  -2   7 166.016 39.4562   2
  -8  -2   6 56.4771 26.4175   3
  -8  -2   6 125.805 35.9256   6
  -8  -2   6 108.460 37.7862   2
  -8  -2   5 51.6006 26.7339   3
  -8  -2   5 117.871 35.1656   6
  -8  -2   5 65.1661 38.0448   2
  -8  -2   4 164.329 29.5276   3
  -8  -2   4 234.012 35.3181   6
  -8  -2   4 133.033 36.8400   2
  -8  -2   3 46.1297 33.5254   6
  -8  -2   3 18.7322 28.6208   3
  -8  -2   3 24.8518 35.0063   2
  -8  -2   2-31.8899 30.0390   3
  -8  -2   2 0.74784 34.2793   2
  -8  -2   1 68.3501 36.0039   2
  -8  -2   0 1713.26 47.2485   2
  -8  -2  -1 306.773 37.6476   2
  -8  -2  -2 8.47310 34.6506   2
  -8  -2  -3 32.2084 35.0886   2
  -8  -2  -4 29.9568 35.6832   2
  -8  -2  -5 35.2421 36.1067   2
  -8  -2  -6 4.68159 35.0209   2
  -8  -2  -7-4.17030 36.4467   2
  -8  -2  -8 10.9142 37.3906   2
  -8  -2  -9 48.0450 38.7501   2
  -8  -2 -10-8.05703 38.1385   2
  -8  -2 -11 70.0323 38.5104   2
  -8  -2 -12-18.3557 34.5771   3
  -8  -2 -12-28.7375 39.7602   2
  -8  -2 -14-6.94568 32.8303   3
  -8  -3  15-47.9154 39.8718   2
  -8  -3  14 14.7589 41.0020   2
  -8  -3  13 23.5237 43.3126   2
  -8  -3  12 337.625 43.1482   2
  -8  -3  11 302.642 43.1005   2
  -8  -3  10 51.3261 39.4409   2
  -8  -3   9 103.538 34.7435   6
  -8  -3   9 96.0192 40.7303   2
  -8  -3   8 429.606 38.0680   6
  -8  -3   8 494.135 44.1909   2
  -8  -3   7 445.414 43.2362   2
  -8  -3   7 534.042 36.5544   6
  -8  -3   6 43.6632 26.5286   3
  -8  -3   6 100.684 33.7552   6
  -8  -3   6 13.2589 38.8480   2
  -8  -3   5-40.7739 25.8168   3
  -8  -3   5-13.0092 33.4323   6
  -8  -3   5 2.55412 35.8722   2
  -8  -3   4-31.4423 36.2466   2
  -8  -3   3 62.0237 37.0206   2
  -8  -3   2-2.14852 36.5396   2
  -8  -3   1 98.6467 36.3297   2
  -8  -3   0 366.844 41.2593   2
  -8  -3  -1 2617.63 54.7466   2
  -8  -3  -2 940.667 44.5183   2
  -8  -3  -3 9.10145 37.9543   2
  -8  -3  -4-18.2419 38.8076   2
  -8  -3  -5-8.48481 38.1038   2
  -8  -3  -6 4.30226 38.3201   2
  -8  -3  -7 49.0547 38.0993   2
  -8  -3  -9-39.1464 42.6586   2
  -8  -3 -10-7.72221 41.9899   2
  -8  -3 -11 82.1815 40.3405   2
  -8  -3 -13 33.4384 42.5318   2
  -8  -3 -14 165.637 43.8130   2
  -8  -4  15 6.33862 40.9958   2
  -8  -4  14 101.880 43.7007   2
  -8  -4  13 161.178 43.0814   2
  -8  -4  12 45.0541 41.4979   2
  -8  -4  11 371.679 42.6424   2
  -8  -4  10 41.8243 40.5284   2
  -8  -4   9 629.240 45.6962   2
  -8  -4   8 45.5551 41.8056   2
  -8  -4   7 62.4221 40.0655   2
  -8  -4   6 26.9289 38.1388   2
  -8  -4   5 30.4186 38.4098   2
  -8  -4   4 37.6155 37.7000   2
  -8  -4   3-8.95329 37.1251   2
  -8  -4   2 23.0469 38.3502   2
  -8  -4   1-6.85400 38.0868   2
  -8  -4   0 55.3594 37.5348   2
  -8  -4  -1 170.325 39.4534   2
  -8  -4  -2 615.222 44.4951   2
  -8  -4  -3 53.1136 40.5390   2
  -8  -4  -4 69.3356 40.1844   2
  -8  -4  -5 5.30090 39.0313   2
  -8  -4  -6 35.0421 41.2703   2
  -8  -4  -7 33.3509 41.5758   2
  -8  -4  -8 3.58842 40.7230   2
  -8  -4  -9 21.2710 39.1772   2
  -8  -4 -10 50.7089 45.5250   2
  -8  -4 -11 245.880 45.8049   2
  -8  -4 -12-45.2959 42.8410   2
  -8  -5  16 63.1050 42.6182   2
  -8  -5  15 16.8598 42.7919   2
  -8  -5  14 136.684 46.1343   2
  -8  -5  13 493.773 47.7949   2
  -8  -5  12 240.905 44.8206   2
  -8  -5  11 43.3342 42.1960   2
  -8  -5  10-7.26816 41.4797   2
  -8  -5   9 146.117 42.8718   2
  -8  -5   8 314.982 43.9897   2
  -8  -5   7 10.4555 39.5654   2
  -8  -5   6 1.51546 39.9020   2
  -8  -5   5-8.07668 37.3281   2
  -8  -5   4 80.0330 37.6137   2
  -8  -5   3 44.2507 39.1734   2
  -8  -5   2 58.6526 40.0109   2
  -8  -5   1 41.3605 40.6540   2
  -8  -5   0 128.575 40.4254   2
  -8  -5  -1 511.941 44.1072   2
  -8  -5  -2 50.4746 42.4583   2
  -8  -5  -3-30.8722 40.4820   2
  -8  -5  -4 61.8791 43.7109   2
  -8  -5  -5 10.7760 42.4062   2
  -8  -5  -6-21.6269 42.9109   2
  -8  -5  -7 25.1947 43.8910   2
  -8  -5  -8-36.1101 41.1219   2
  -8  -5  -9 75.2051 44.2880   2
  -8  -5 -10-43.1399 44.5498   2
  -8  -6  16 105.122 46.2715   2
  -8  -6  15 364.726 47.7868   2
  -8  -6  14 313.910 45.0920   2
  -8  -6  13 47.5419 40.2745   2
  -8  -6  12-6.44958 41.7364   2
  -8  -6  11-47.7617 42.7313   2
  -8  -6  10-30.0408 42.9816   2
  -8  -6   9-50.1315 42.0748   2
  -8  -6   8 11.9903 42.8315   2
  -8  -6   7 176.668 42.5372   2
  -8  -6   6-8.69247 40.5541   2
  -8  -6   5 19.1226 39.6851   2
  -8  -6   4-14.0899 39.4025   2
  -8  -6   3-0.99003 40.4016   2
  -8  -6   2 1.01612 40.7162   2
  -8  -6   1 71.9369 41.9604   2
  -8  -6   0 44.3634 40.0524   2
  -8  -6  -1 73.0445 41.6847   2
  -8  -6  -2 120.074 43.2935   2
  -8  -6  -3-42.9051 44.5448   2
  -8  -6  -4 19.2490 43.6797   2
  -8  -6  -5-32.5809 45.2922   2
  -8  -6  -6 8.99333 45.4811   2
  -8  -6  -7 89.6601 44.3081   2
  -8  -6  -9 102.682 47.5085   2
  -8  -7  16 195.959 49.4614   2
  -8  -7  15 115.929 46.2280   2
  -8  -7  14-29.7192 45.2464   2
  -8  -7  12 27.3786 43.4345   2
  -8  -7  11 2.64300 43.1831   2
  -8  -7  10-19.1728 42.1589   2
  -8  -7   9 84.4242 42.3999   2
  -8  -7   8 212.723 44.2234   2
  -8  -7   7 23.1170 40.9479   2
  -8  -7   6 36.8624 40.6547   2
  -8  -7   5 46.4419 40.1788   2
  -8  -7   4 81.6471 40.9535   2
  -8  -7   3 16.3311 39.3494   2
  -8  -7   2-21.8726 42.4852   2
  -8  -7   1 4.21267 41.2819   2
  -8  -7   0-47.3527 41.5388   2
  -8  -7  -1-4.40714 41.4147   2
  -8  -7  -2 32.7652 45.5463   2
  -8  -7  -3 20.3017 45.7501   2
  -8  -7  -4 117.343 47.6960   2
  -8  -7  -5-27.8815 46.9179   2
  -8  -7  -6 28.8291 45.4717   2
  -8  -7  -7 201.564 50.2080   2
  -8  -8  15 26.1218 46.8173   2
  -8  -8  14 10.2416 45.0608   2
  -8  -8  13 53.2572 43.8556   2
  -8  -8  12 28.2086 42.8672   2
  -8  -8  11-9.16792 44.9113   2
  -8  -8  10 61.4327 45.2958   2
  -8  -8   8 56.7309 45.7620   2
  -8  -8   7 119.372 45.0604   2
  -8  -8   6 29.1086 43.5150   2
  -8  -8   4 32.4627 41.6718   2
  -8  -8   3 147.069 45.0666   2
  -8  -8   2 81.6377 43.9475   2
  -8  -8   1-43.0564 43.6356   2
  -8  -8   0-42.4847 41.2296   2
  -8  -8  -1 184.013 46.0767   2
  -8  -8  -2 198.709 47.3981   2
  -8  -8  -3-39.4368 47.0433   2
  -8  -8  -4 158.288 49.9392   2
  -8  -8  -5 88.0265 50.0650   2
  -8  -9  11-48.4668 45.3046   2
  -8  -9  10 3.14054 45.1610   2
  -8  -9   9 72.3058 43.4651   2
  -8  -9   8 27.5595 43.2574   2
  -8  -9   7-3.34448 43.7307   2
  -8  -9   6 57.9524 43.9107   2
  -8  -9   5-14.3195 42.1199   2
  -8  -9   4-20.7346 44.4436   2
  -8  -9   3 25.5840 42.7467   2
  -8  -9   2 125.172 45.5585   2
  -8  -9   1 28.9747 44.6326   2
  -8  -9   0-54.1075 44.4876   2
  -8  -9  -1 79.0575 45.9105   2
  -8  -9  -2-21.4787 46.9781   2
  -8 -10  11-20.3416 48.2389   2
   8  10  -8-2.28724 39.4905   1
  -8 -10   8 128.990 45.0404   2
  -8 -10   7 37.7669 45.4003   2
  -8 -10   6 37.3723 43.3681   2
  -8 -10   5 79.7595 46.7648   2
  -8 -10   4 20.7671 46.1022   2
  -8 -10   3-7.56370 48.0793   2
  -8 -10   2 111.864 47.6464   2
   8  11  -8 135.968 40.3462   1
  -9  12   4 10.9878 36.7895   6
  -9  12   3 351.888 40.0532   6
  -9  12   2 57.8107 37.3309   6
  -9  12   1 90.8957 40.5392   5
  -9  12   0 237.120 37.8503   6
  -9  12   0 42.4893 42.4708   5
  -9  12  -1 117.140 35.2076   6
  -9  12  -2-21.2347 34.8764   6
  -9  12  -2 101.708 42.0066   5
  -9  12  -3-27.7456 34.6087   6
  -9  12  -3-25.7877 43.9058   5
  -9  12  -4-38.0972 42.8295   5
  -9  12  -5 51.9165 44.5423   5
  -9  12  -6 53.5451 43.9616   5
  -9  12  -7 26.9896 41.2021   5
  -9  12  -8 36.9215 40.1523   5
  -9  12 -10 56.9239 41.3202   5
  -9  11   4 118.278 36.9864   6
  -9  11   3 212.102 37.4831   6
  -9  11   1 154.240 42.8557   5
  -9  11   0 366.299 39.8966   6
  -9  11   0 56.5165 42.1575   5
  -9  11  -1 172.181 33.6214   6
  -9  11  -1-17.5300 40.1595   5
  -9  11  -2-33.0258 33.9272   6
  -9  11  -2 178.726 42.4663   5
  -9  11  -4 3.10529 41.9656   5
  -9  11  -5-33.6878 42.6127   5
  -9  11  -6 166.035 43.4355   5
  -9  11  -7 43.9253 41.2357   5
  -9  11  -8 56.1888 41.2633   5
  -9  11 -10-30.8332 37.7990   5
  -9  11 -11 186.244 38.0982   5
  -9  10   6 64.5092 41.1162   6
  -9  10   4 140.034 41.8355   6
  -9  10   3 102.364 38.6375   6
  -9  10   1 61.9035 41.7824   5
  -9  10   0 260.906 40.9469   6
  -9  10   0 11.6219 42.4311   5
  -9  10  -1 339.769 40.5916   6
  -9  10  -1 247.864 45.4027   5
  -9  10  -2 67.9595 39.2973   6
  -9  10  -2-13.2028 44.1755   5
  -9  10  -3-24.4137 38.1301   6
  -9  10  -3 5.84217 43.4829   5
  -9  10  -4 55.3687 41.5600   5
  -9  10  -5 116.486 44.5579   5
  -9  10  -6 172.036 43.3718   5
  -9  10  -7-25.2760 39.8107   5
  -9  10  -8-14.6940 40.0570   5
  -9  10  -9 94.0248 37.3207   5
  -9  10 -10 144.488 39.5903   5
  -9  10 -11 32.5413 35.8650   5
  -9  10 -12 174.478 34.2609   5
  -9   9   8 30.1612 39.6999   6
  -9   9   6-9.22467 44.7301   6
  -9   9   4 118.735 41.3671   6
  -9   9   3 87.4885 41.5785   6
  -9   9   2-8.95216 42.5647   6
  -9   9   0 376.822 42.3785   6
  -9   9   0 321.533 45.3202   5
  -9   9  -1 339.314 42.6243   6
  -9   9  -1 65.1053 43.3782   5
  -9   9  -2 222.044 44.0459   6
  -9   9  -2-5.38255 43.0434   5
  -9   9  -3 490.497 44.9833   6
  -9   9  -3 449.626 45.7286   5
  -9   9  -4-25.7787 41.2248   5
  -9   9  -5 165.959 42.9543   5
  -9   9  -6 7.43644 39.2210   5
  -9   9  -7 89.3127 39.6089   5
  -9   9  -8 54.6459 38.2859   3
  -9   9  -9 0.00000 36.1927   5
  -9   9  -9 83.4238 38.1981   3
  -9   9 -10 173.152 36.0965   5
  -9   9 -10 57.7688 38.6263   3
  -9   9 -11 181.926 37.1217   5
  -9   9 -11 303.587 43.3675   3
  -9   9 -12-52.5600 31.9659   5
  -9   9 -12 78.6950 39.5049   3
  -9   9 -13-16.0893 38.5438   3
  -9   9 -14-22.0092 38.1229   3
  -9   9 -15-47.2675 37.2674   3
  -9   9 -16 12.1905 35.5693   3
  -9   8   8 48.7038 40.1187   6
  -9   8   6-19.7351 42.7344   6
  -9   8   4 274.086 44.6632   6
  -9   8   3 228.063 45.5185   6
  -9   8   2 68.0322 40.1165   6
  -9   8   0 50.4204 43.6950   6
  -9   8   0 45.9094 42.7307   5
  -9   8  -1 383.288 47.1966   6
  -9   8  -1 316.000 45.6652   5
  -9   8  -2 123.590 43.9676   6
  -9   8  -2 124.519 41.3152   5
  -9   8  -3 173.160 43.2914   6
  -9   8  -3-48.3905 40.1308   5
  -9   8  -4 126.775 41.6066   5
  -9   8  -4 65.9621 37.5305   3
  -9   8  -5-11.3222 38.0946   5
  -9   8  -5 48.0327 37.2634   3
  -9   8  -6 56.1804 36.6432   5
  -9   8  -6 84.5870 38.3044   3
  -9   8  -7 50.1653 37.6054   3
  -9   8  -8 79.8947 35.3439   5
  -9   8  -8-10.1037 37.6107   3
  -9   8  -9 102.453 35.0294   5
  -9   8  -9 120.048 38.3047   3
  -9   8 -10 55.6917 34.2637   5
  -9   8 -10 144.737 40.5185   3
  -9   8 -11 61.0971 31.8596   5
  -9   8 -11-14.7676 38.3673   3
  -9   8 -12 98.4777 38.1941   3
  -9   8 -13 229.955 40.1092   3
  -9   8 -14-19.0879 38.4696   3
  -9   8 -15 7.56446 37.1756   3
  -9   8 -16-25.5926 37.4342   3
  -9   7   8 88.4824 42.3422   6
  -9   7   6 167.833 43.9832   6
  -9   7   5 3.88017 44.2213   6
  -9   7   3 196.191 45.4016   6
  -9   7   2 566.032 46.7014   6
  -9   7   1 17.2929 43.8850   6
  -9   7   0 48.4223 44.5010   6
  -9   7   0 201.639 36.4853   3
  -9   7  -1 119.540 45.7996   6
  -9   7  -1 190.422 42.4396   5
  -9   7  -1 87.1271 38.0599   3
  -9   7  -2-43.7928 42.2336   6
  -9   7  -2 16.6384 40.0541   5
  -9   7  -3 30.9071 38.3636   5
  -9   7  -3 20.8832 36.9424   3
  -9   7  -4 8.04986 38.1111   3
  -9   7  -5 63.9529 37.1397   5
  -9   7  -5 93.3663 37.8276   3
  -9   7  -6 2.49717 35.0381   5
  -9   7  -6 10.0299 37.9660   3
  -9   7  -7 20.1684 34.5127   5
  -9   7  -7-4.10991 37.9591   3
  -9   7  -8-51.7841 32.8147   5
  -9   7  -8 46.0475 37.6201   3
  -9   7  -9-24.1438 33.2907   5
  -9   7  -9 38.5956 37.4051   3
  -9   7 -10 126.945 38.7748   3
  -9   7 -11 200.374 40.1437   3
  -9   7 -12 61.0416 37.1574   3
  -9   7 -13-7.33151 37.1032   3
  -9   7 -14 111.544 39.0326   3
  -9   7 -15 118.693 37.1729   3
  -9   7 -16 21.1434 35.2836   1
  -9   7 -16 51.7800 37.3464   3
  -9   6  11 3.22970 44.2023   6
  -9   6  10 28.3003 43.5103   6
  -9   6   8 161.019 43.1254   6
  -9   6   6 207.415 45.2079   6
  -9   6   5 156.801 42.4376   6
  -9   6   4 100.062 46.2395   6
  -9   6   2 40.2990 41.5384   6
  -9   6   2 22.1971 33.5639   3
  -9   6   1 747.306 49.0685   6
  -9   6   1 580.433 39.3895   3
  -9   6   0 133.562 43.3788   6
  -9   6   0-2.31371 34.9658   3
  -9   6  -1 245.733 44.3240   6
  -9   6  -1 86.7769 37.2137   3
  -9   6  -2 224.039 43.3908   6
  -9   6  -2 140.697 39.2160   5
  -9   6  -2 114.907 36.7953   3
  -9   6  -3 22.3489 36.2633   5
  -9   6  -3 42.4137 35.5446   3
  -9   6  -4 42.4016 35.6169   5
  -9   6  -4-23.8888 37.2439   3
  -9   6  -5 4.54693 34.1074   5
  -9   6  -5-53.2332 35.7951   3
  -9   6  -6 1.10369 32.3209   5
  -9   6  -6 18.6745 36.0987   3
  -9   6  -7 81.0339 32.6664   5
  -9   6  -7 2.89094 37.6375   3
  -9   6  -8-0.05455 35.9218   3
  -9   6  -9-36.0510 37.6451   3
  -9   6 -11 0.74612 37.0297   3
  -9   6 -12 11.2501 36.1247   3
  -9   6 -13 96.8024 37.8337   3
  -9   6 -14-55.0386 37.6874   3
  -9   6 -15 79.8658 31.3275   1
  -9   6 -15-9.37441 34.0737   3
  -9   6 -16 105.211 37.2291   1
  -9   5  10 22.4487 43.6128   6
  -9   5   8 199.833 45.9510   6
  -9   5   7 61.5763 45.1957   6
  -9   5   6 79.4285 43.3570   6
  -9   5   5-6.33966 40.7584   6
  -9   5   4 104.933 45.1051   6
  -9   5   4 51.0598 30.6044   3
  -9   5   3 506.708 48.3091   6
  -9   5   3 370.321 35.3974   3
  -9   5   2-12.8483 42.5875   6
  -9   5   2 68.3149 33.6504   3
  -9   5   1-13.2799 41.3166   6
  -9   5   1 18.3802 32.9238   3
  -9   5   0-23.2510 43.4380   6
  -9   5   0-13.6866 33.5415   3
  -9   5  -1 2.41674 45.3731   6
  -9   5  -1-9.78354 36.3481   3
  -9   5  -2 306.132 38.4950   3
  -9   5  -3-20.9682 34.5694   3
  -9   5  -4 75.3280 34.2933   5
  -9   5  -4 3.06959 36.0293   3
  -9   5  -5-0.25335 30.6548   5
  -9   5  -5 44.2357 36.0151   3
  -9   5  -6 23.1704 31.9808   5
  -9   5  -6-4.80663 37.2992   3
  -9   5  -7 6.47075 30.9913   5
  -9   5  -7-53.1478 36.9507   3
  -9   5  -8-19.5620 36.2167   3
  -9   5  -9-4.56863 36.5361   3
  -9   5 -10-38.3621 37.0216   3
  -9   5 -11-44.1041 36.7048   3
  -9   5 -12-30.9277 36.3638   3
  -9   5 -13 100.793 32.0218   1
  -9   5 -13 135.585 39.3380   3
  -9   5 -14 325.066 35.1491   1
  -9   5 -14 111.383 38.2368   3
  -9   5 -15 148.468 35.0236   1
  -9   5 -16 115.844 36.3270   1
  -9   4  12 22.9322 43.2342   6
  -9   4   9 99.6292 42.3946   6
  -9   4   7 272.289 45.9819   6
  -9   4   6 5.67521 40.8233   6
  -9   4   5-43.1239 44.1981   6
  -9   4   5-23.3752 27.7881   3
  -9   4   4-17.7684 39.0010   6
  -9   4   4 47.8799 30.5079   3
  -9   4   3-4.72631 39.8649   6
  -9   4   3 80.0123 33.1682   3
  -9   4   2 346.201 43.4907   6
  -9   4   2 188.876 34.5478   3
  -9   4   1 127.106 39.9203   6
  -9   4   1-12.8686 33.2560   3
  -9   4   0 230.687 43.1558   6
  -9   4   0 103.220 34.8807   3
  -9   4  -1 494.839 48.0352   6
  -9   4  -1 267.452 37.3935   3
  -9   4  -2-19.8003 35.5479   3
  -9   4  -3 138.920 36.7543   3
  -9   4  -4 58.5815 38.0087   3
  -9   4  -5-39.2747 35.4823   3
  -9   4  -6-10.6493 34.4923   3
  -9   4  -6 17.5709 29.6483   5
  -9   4  -7 38.8379 36.6533   3
  -9   4  -8 34.6323 33.8324   3
  -9   4  -9 61.2712 35.6843   3
  -9   4 -10 42.1668 37.1819   3
  -9   4 -11 63.6826 34.5412   3
  -9   4 -12 109.238 34.7072   3
  -9   4 -12 87.3766 34.3043   1
  -9   4 -13 48.0082 35.9566   3
  -9   4 -13 100.554 32.2672   1
  -9   4 -14 26.3051 34.5750   3
  -9   4 -14 133.411 34.4195   1
  -9   4 -15 181.745 36.6793   1
  -9   3  12 104.012 42.5758   6
  -9   3  11 45.1213 41.4610   6
  -9   3  10-42.6768 41.6929   6
  -9   3   9 18.3440 43.0805   6
  -9   3   8 114.538 43.7044   6
  -9   3   7 35.3857 40.4868   6
  -9   3   6-40.6566 44.6442   6
  -9   3   5 42.5031 39.4648   6
  -9   3   5-35.9198 28.6571   3
  -9   3   4 164.346 41.0630   6
  -9   3   4 63.3190 29.2649   3
  -9   3   3 24.1232 41.5132   6
  -9   3   3-38.7723 30.9753   3
  -9   3   2 25.2590 40.5985   6
  -9   3   2-37.8288 32.2206   3
  -9   3   1 6.18755 33.7469   3
  -9   3   1 56.1307 39.8761   6
  -9   3   0 9.61095 34.7058   3
  -9   3   0 113.142 42.3871   6
  -9   3  -1 280.107 35.8871   3
  -9   3  -2 239.272 35.5584   3
  -9   3  -3-12.4069 33.6219   3
  -9   3  -4 101.508 35.5377   3
  -9   3  -5 269.212 37.1486   3
  -9   3  -6 37.7947 33.9645   3
  -9   3  -7 53.5155 36.4530   3
  -9   3  -8 34.0442 32.9150   3
  -9   3  -9 68.3736 35.4218   3
  -9   3 -10 1.59398 35.6376   3
  -9   3 -11 15.6406 35.9632   3
  -9   3 -11-5.52850 30.0820   1
  -9   3 -12 81.5528 34.7470   3
  -9   3 -12 142.602 34.9695   1
  -9   3 -13 70.4898 35.4892   3
  -9   3 -13 76.9934 35.3068   1
  -9   3 -14 103.558 32.5148   3
  -9   3 -14 113.359 36.1520   1
  -9   3 -15 33.8668 32.8117   3
  -9   3 -15 101.252 35.1466   1
  -9   2  15 85.9085 41.3443   6
  -9   2  14-54.3976 41.6566   6
  -9   2  13 23.9693 44.3233   6
  -9   2  12 107.942 40.0789   6
  -9   2  11 29.8822 35.6576   2
  -9   2  10 65.1950 40.0083   6
  -9   2  10-15.7532 35.0384   2
  -9   2   9 45.2522 33.5019   2
  -9   2   8-8.10767 40.5010   6
  -9   2   8-12.7324 32.9337   2
  -9   2   7 80.3966 42.6023   6
  -9   2   6 66.5278 40.8883   6
  -9   2   5 92.4061 38.0172   6
  -9   2   5 58.1935 28.1222   3
  -9   2   4-26.5362 28.7384   3
  -9   2   3-13.6851 29.3246   3
  -9   2   3 18.9596 37.7373   6
  -9   2   2 29.7628 29.1771   3
  -9   2   2-11.1859 37.9939   6
  -9   2   1 147.958 33.3531   3
  -9   2   1 232.346 43.0902   6
  -9   2   0 69.1463 33.4740   3
  -9   2  -1 17.4799 32.5024   3
  -9   2  -2-34.9179 32.5145   3
  -9   2  -3 12.5322 33.2657   3
  -9   2  -4 61.3680 35.7197   3
  -9   2  -5 40.7897 33.8144   3
  -9   2  -6-9.24099 35.1735   3
  -9   2  -7-20.3951 35.0647   3
  -9   2  -8-22.9201 33.6354   3
  -9   2  -9-13.9523 34.4350   3
  -9   2  -9 0.24845 26.7917   1
  -9   2 -10 236.278 32.8462   1
  -9   2 -10 133.247 36.9892   3
  -9   2 -11-2.16602 36.6616   3
  -9   2 -11 96.7577 32.9995   1
  -9   2 -12 6.76180 32.2594   3
  -9   2 -12-35.3954 29.7303   1
  -9   2 -13 24.4379 35.0612   3
  -9   2 -13-53.2557 33.9376   1
  -9   2 -14 3.93590 31.1203   3
  -9   1  16 91.9676 40.9899   6
  -9   1  14-15.0789 41.4861   6
  -9   1  13 151.556 41.4672   6
  -9   1  12 192.692 42.7227   6
  -9   1  12 186.207 41.2343   2
  -9   1  11 117.811 40.5097   6
  -9   1  11-22.0974 37.5387   2
  -9   1  10-38.7326 34.7266   2
  -9   1   9 62.1214 40.5280   6
  -9   1   9 6.60048 34.6260   2
  -9   1   8 129.133 39.4133   6
  -9   1   8 30.3293 34.7325   2
  -9   1   7 34.4322 40.5723   6
  -9   1   7 32.8639 34.1019   2
  -9   1   6-9.82809 40.9198   6
  -9   1   6 35.0133 32.6197   2
  -9   1   5 55.5697 26.2381   3
  -9   1   5-4.69990 39.8812   6
  -9   1   5 72.4724 32.4199   2
  -9   1   4 151.589 28.1384   3
  -9   1   4 143.230 41.8740   6
  -9   1   4 130.481 32.4004   2
  -9   1   3 30.0412 27.7183   3
  -9   1   3 27.4118 41.6145   6
  -9   1   2-29.8821 28.9353   3
  -9   1   2 64.2178 41.1069   6
  -9   1   1 39.5616 31.0703   3
  -9   1   1 141.462 37.6953   6
  -9   1   0 300.586 36.0016   3
  -9   1  -1-12.0973 33.8631   3
  -9   1  -2 25.5036 32.9517   3
  -9   1  -3 23.5749 32.8624   3
  -9   1  -4-29.9277 33.2796   3
  -9   1  -5-41.1313 33.9532   3
  -9   1  -6-45.2844 34.8153   3
  -9   1  -7-7.32246 33.3448   3
  -9   1  -8-26.1227 34.3047   3
  -9   1  -9 23.3280 35.0182   3
  -9   1 -10-8.64624 34.2994   3
  -9   1 -11 140.816 34.6896   1
  -9   1 -11 55.9356 34.9661   3
  -9   1 -12 66.2539 32.0046   1
  -9   1 -12 36.7316 33.1243   3
  -9   1 -13-34.7087 34.8951   1
  -9   1 -13 36.3945 34.1520   3
  -9   1 -14 30.7398 33.1701   3
  -9   1 -14 11.2578 35.6471   1
  -9   0  14 26.6045 43.9473   2
  -9   0  13-21.8614 40.8827   6
  -9   0  13 142.168 40.0108   2
  -9   0  12 492.815 44.0529   6
  -9   0  12 259.416 42.0205   2
  -9   0  11 331.094 41.5225   2
  -9   0  11 229.224 42.3166   6
  -9   0  10 96.5426 41.8187   6
  -9   0  10 58.4910 37.7323   2
  -9   0   9 23.4404 38.0966   6
  -9   0   9 43.6297 36.7552   2
  -9   0   8-25.3575 39.6644   6
  -9   0   8 34.9225 35.5305   2
  -9   0   7-9.34410 36.8887   6
  -9   0   7 43.3172 35.6258   2
  -9   0   6 34.2915 37.2051   6
  -9   0   6-28.0952 34.5453   2
  -9   0   5 8.75826 26.1733   3
  -9   0   5 39.0414 37.5859   6
  -9   0   5-28.2211 33.8929   2
  -9   0   4 169.320 28.8255   3
  -9   0   4 228.964 37.5557   6
  -9   0   4 129.583 33.7392   2
  -9   0   3 31.4429 28.3185   3
  -9   0   3 110.296 39.6523   6
  -9   0   3 24.6370 31.1659   2
  -9   0   2 46.6314 29.8263   3
  -9   0   2-17.9782 31.7109   2
  -9   0   1-35.4788 30.5171   3
  -9   0   1 16.9997 31.3777   2
  -9   0   0-51.9476 31.3741   3
  -9   0   0 7.36170 30.1721   2
  -9   0  -1 62.8253 32.5320   3
  -9   0  -2-17.2711 33.8164   3
  -9   0  -3-29.6186 34.3589   3
  -9   0  -4-29.1141 33.4602   3
  -9   0  -5-16.8095 33.3326   3
  -9   0  -6 1.54497 33.3366   3
  -9   0  -7 10.5623 32.5895   3
  -9   0  -8-14.2277 34.9474   3
  -9   0  -9 56.1234 34.8689   3
  -9   0 -10 43.5504 36.3743   3
  -9   0 -11 23.3705 34.9730   3
  -9   0 -12-12.0092 32.9129   3
  -9   0 -13 69.7093 35.2660   3
  -9   0 -14-13.8389 32.8659   3
  -9  -1  16-28.4062 39.1191   6
  -9  -1  15 16.0396 35.5963   6
  -9  -1  14 53.6240 39.0945   6
  -9  -1  14 125.225 40.6063   2
  -9  -1  13 166.690 39.5216   6
  -9  -1  12 52.6441 39.7788   2
  -9  -1  11 160.177 41.0606   6
  -9  -1  11 178.946 40.7859   2
  -9  -1  10 25.8386 38.1273   6
  -9  -1  10 83.2926 38.3523   2
  -9  -1   9 19.1731 39.6911   6
  -9  -1   9 75.6497 37.7528   2
  -9  -1   8-42.2390 34.5323   6
  -9  -1   8 67.1018 35.7157   2
  -9  -1   7-19.8819 34.0706   6
  -9  -1   7 0.31175 36.7154   2
  -9  -1   6-15.4764 24.1554   3
  -9  -1   6 75.8908 35.6388   6
  -9  -1   6 3.27966 36.2190   2
  -9  -1   5 83.2455 26.5980   3
  -9  -1   5 98.2044 35.1843   6
  -9  -1   5 62.9675 36.8761   2
  -9  -1   4 3.73102 26.2536   3
  -9  -1   4 82.1921 36.4579   6
  -9  -1   4 19.6517 34.3802   2
  -9  -1   3 39.5513 28.2313   3
  -9  -1   3 74.4011 37.8324   6
  -9  -1   3 36.9740 34.5779   2
  -9  -1   2-11.9333 29.0162   3
  -9  -1   2 38.8413 33.8619   2
  -9  -1   1-37.4091 30.0718   3
  -9  -1   1-19.4345 33.5684   2
  -9  -1   0 96.6359 31.8773   3
  -9  -1   0 64.5045 32.4924   2
  -9  -1  -1 4.27816 32.0891   3
  -9  -1  -1 32.4025 32.4077   2
  -9  -1  -2 120.538 35.9452   3
  -9  -1  -2 188.217 34.8031   2
  -9  -1  -3-5.71682 32.2271   3
  -9  -1  -3 23.1061 33.3426   2
  -9  -1  -4-22.4337 32.7821   3
  -9  -1  -4 44.1342 33.3042   2
  -9  -1  -5 30.9762 35.1118   3
  -9  -1  -6 24.7162 33.7244   3
  -9  -1  -7 32.0436 37.1685   3
  -9  -1  -8-39.1301 34.0227   3
  -9  -1  -9-28.3917 35.3955   3
  -9  -1 -10-17.5073 36.7846   3
  -9  -1 -11 11.5473 35.5613   3
  -9  -1 -12 59.4223 35.5294   3
  -9  -2  16-16.6809 41.3445   2
  -9  -2  15-46.0410 43.6516   2
  -9  -2  13-26.6617 38.7781   2
  -9  -2  12 185.155 38.4734   6
  -9  -2  12 151.060 42.5986   2
  -9  -2  11 149.726 37.3532   6
  -9  -2  11 134.954 42.9704   2
  -9  -2  10-9.81534 35.2113   6
  -9  -2  10 28.0481 39.3454   2
  -9  -2   9-54.8504 34.8386   6
  -9  -2   9 21.3815 38.7721   2
  -9  -2   8-25.3722 33.4897   6
  -9  -2   8 19.9383 38.8290   2
  -9  -2   7 54.9261 32.9284   6
  -9  -2   7-6.69925 37.1304   2
  -9  -2   6 3.82430 24.2101   3
  -9  -2   6 33.3273 33.3826   6
  -9  -2   6-17.9526 36.4915   2
  -9  -2   5-14.6930 25.9997   3
  -9  -2   5 59.2853 36.5056   6
  -9  -2   5 9.34986 37.1839   2
  -9  -2   4 150.146 36.9020   6
  -9  -2   4 136.379 29.9312   3
  -9  -2   4 98.7142 37.6950   2
  -9  -2   3-25.7636 27.7092   3
  -9  -2   3-2.96685 35.8561   2
  -9  -2   2-17.0294 28.7239   3
  -9  -2   2-8.15251 35.4146   2
  -9  -2   1 80.1547 31.9871   3
  -9  -2   1-17.0711 35.2277   2
  -9  -2   0 376.742 39.8610   2
  -9  -2   0 307.113 34.2791   3
  -9  -2  -1 854.240 44.5815   2
  -9  -2  -1 781.654 42.2146   3
  -9  -2  -2 114.508 34.6758   3
  -9  -2  -2 179.307 39.0815   2
  -9  -2  -3 2.67247 34.5724   3
  -9  -2  -3 20.0336 36.4080   2
  -9  -2  -4 7.59214 34.3814   3
  -9  -2  -4-8.64167 35.4904   2
  -9  -2  -5-1.99251 34.4483   3
  -9  -2  -5-1.80914 36.4855   2
  -9  -2  -6 26.6906 34.0594   3
  -9  -2  -7-20.6030 34.5897   3
  -9  -2  -7 59.9047 37.6662   2
  -9  -2  -8-52.4438 34.4078   3
  -9  -2 -10 9.26101 35.0793   3
  -9  -2 -11 23.9776 35.9818   3
  -9  -3  15 1.90363 42.9906   2
  -9  -3  14 141.419 44.9299   2
  -9  -3  13 37.2370 40.2849   2
  -9  -3  12 60.8828 42.3755   2
  -9  -3  11 20.7850 40.7782   2
  -9  -3  10 66.2283 39.6465   2
  -9  -3   9 50.0077 39.8834   2
  -9  -3   8 0.55086 40.2921   2
  -9  -3   7 17.0078 38.1456   2
  -9  -3   6 31.4893 25.9570   3
  -9  -3   6 26.2158 37.2630   2
  -9  -3   5-4.25222 22.4435   3
  -9  -3   5-47.0192 38.1027   2
  -9  -3   4 14.0882 27.9704   3
  -9  -3   4-27.7512 37.2007   2
  -9  -3   3-23.6991 28.9893   3
  -9  -3   3-28.0440 37.1224   2
  -9  -3   2 8.24460 29.3637   3
  -9  -3   2 19.4636 36.0364   2
  -9  -3   1 12.5897 36.7842   2
  -9  -3   0 48.3032 37.5874   2
  -9  -3  -1 714.287 46.2901   2
  -9  -3  -2 742.161 45.8662   2
  -9  -3  -3-0.09698 37.9729   2
  -9  -3  -4 40.8956 38.8822   2
  -9  -3  -5 1.29420 38.3771   2
  -9  -3  -7-30.9920 38.9511   2
  -9  -3  -8 48.6311 39.3773   2
  -9  -3  -9-21.8137 40.4680   2
  -9  -3 -10 153.327 41.0493   2
  -9  -4  15 90.3719 44.2058   2
  -9  -4  14 80.0880 43.1753   2
  -9  -4  13 127.209 44.1241   2
  -9  -4  12 88.7595 41.5230   2
  -9  -4  11 74.1847 42.4165   2
  -9  -4  10 30.4556 41.3040   2
  -9  -4   9 103.675 45.0003   2
  -9  -4   8 42.9241 43.6928   2
  -9  -4   7-31.7506 41.2448   2
  -9  -4   6-23.6589 24.6255   3
  -9  -4   4-31.7433 39.1814   2
  -9  -4   3-9.40567 39.1070   2
  -9  -4   1-13.9156 39.6350   2
  -9  -4   0 223.349 42.6251   2
  -9  -4  -1 335.257 42.0691   2
  -9  -4  -2 66.7320 40.7449   2
  -9  -4  -3 67.1627 39.7994   2
  -9  -4  -4 5.17667 41.3107   2
  -9  -4  -5 35.4561 41.9056   2
  -9  -4  -6 11.5575 43.3389   2
  -9  -4  -7 27.9731 44.9191   2
  -9  -4  -8 101.634 43.8015   2
  -9  -4  -9 24.2454 43.0032   2
  -9  -4 -10 84.3214 44.9130   2
  -9  -5  14 128.541 46.4058   2
  -9  -5  13 62.1470 44.9323   2
  -9  -5  12 147.776 43.3776   2
  -9  -5  10-15.1885 40.8730   2
  -9  -5   9-23.9729 40.6608   2
  -9  -5   8 35.9479 42.2121   2
  -9  -5   7 6.41837 40.8349   2
  -9  -5   6 57.0534 40.8441   2
  -9  -5   5 3.89351 40.9088   2
  -9  -5   4 22.5859 41.0545   2
  -9  -5   3 9.76894 40.6227   2
  -9  -5   2 76.3147 40.8888   2
  -9  -5   1 76.4389 40.5752   2
  -9  -5   0 56.6333 44.2781   2
  -9  -5  -1 796.681 49.4229   2
  -9  -5  -2 381.846 45.4291   2
  -9  -5  -3 89.8841 43.5689   2
  -9  -5  -4 16.9383 42.9504   2
  -9  -5  -5 89.2512 52.8920   2
  -9  -5  -6 12.8083 43.8082   2
  -9  -5  -7-57.7579 45.5179   2
  -9  -5  -8 91.7323 43.7757   2
  -9  -6  13 15.0668 43.4979   2
  -9  -6  11-10.1090 43.2832   2
  -9  -6  10 0.00000 42.6499   2
  -9  -6   9 38.3683 41.8247   2
  -9  -6   8 101.696 41.0790   2
  -9  -6   7 91.6993 41.4025   2
  -9  -6   6 31.4282 41.9158   2
  -9  -6   5-17.0526 40.8972   2
  -9  -6   4 74.3118 41.6452   2
  -9  -6   2-34.5380 40.8642   2
  -9  -6   1 27.9921 41.9862   2
  -9  -6   0 117.673 44.5194   2
  -9  -6  -1 35.6593 40.5135   2
  -9  -6  -2 27.2784 42.8840   2
  -9  -6  -3 37.0621 44.8603   2
  -9  -6  -4-12.6887 45.4108   2
  -9  -6  -5-41.4942 45.7122   2
  -9  -6  -6 80.3377 45.1814   2
  -9  -7  12-1.66344 43.8810   2
  -9  -7  11 74.9995 44.3678   2
  -9  -7  10 25.4112 43.9743   2
  -9  -7   9 84.9928 45.4637   2
  -9  -7   8 135.345 45.0082   2
  -9  -7   7 41.2710 44.7149   2
  -9  -7   6-13.2626 41.9004   2
  -9  -7   5-1.64647 42.1583   2
  -9  -7   4 55.8988 42.7613   2
  -9  -7   3 41.4533 41.8378   2
  -9  -7   2 16.2584 43.9770   2
  -9  -7   1-45.9137 43.4309   2
  -9  -7   0 83.3928 44.8147   2
  -9  -7  -1 33.4061 44.8736   2
  -9  -7  -2-6.72592 45.9274   2
  -9  -7  -3-6.98708 46.8554   2
  -9  -8   9-20.6615 45.0370   2
  -9  -8   8 62.7022 43.6639   2
  -9  -8   7 78.5018 45.8083   2
  -9  -8   6-35.3988 44.2222   2
  -9  -8   5 58.8051 43.4319   2
  -9  -8   4-51.2023 43.9396   2
  -9  -8   3 69.9512 44.9908   2
  -9  -8   2 99.0354 46.8889   2
  -9  -8   1-43.8469 48.0786   2
  -9  -8   0 89.2001 46.4466   2
 -10  12  -1 17.4342 35.2242   6
 -10  12  -2 22.7317 36.8978   6
 -10  11   1 76.0734 37.0811   6
 -10  11   0 362.218 39.6890   6
 -10  11  -1 222.909 38.6348   6
 -10  11  -2 63.7242 38.9560   6
 -10  11  -3 99.8786 42.4231   5
 -10  11  -4-6.52666 40.9579   5
 -10  11  -5 158.931 40.9419   5
 -10  11  -7 133.470 41.5824   5
 -10  10   3 416.148 43.3296   6
 -10  10   1 55.3524 41.1873   6
 -10  10   0 402.773 42.2611   6
 -10  10  -1 150.605 44.3943   6
 -10  10  -1 147.200 46.8249   5
 -10  10  -2 95.7076 39.3390   6
 -10  10  -2 177.031 45.7763   5
 -10  10  -3 83.5024 40.3972   5
 -10  10  -5 62.7866 42.3247   5
 -10  10  -6 61.2689 41.2482   5
 -10  10  -7 113.397 40.1553   5
 -10  10  -8 76.9712 39.8262   5
 -10  10 -10 120.005 39.6173   5
 -10  10 -11 212.824 38.1249   5
 -10   9   5 29.5389 45.1884   6
 -10   9   4-49.5632 42.5525   6
 -10   9   3 424.730 45.4580   6
 -10   9   1-7.97268 42.2388   6
 -10   9   0 695.338 49.8037   6
 -10   9  -1 397.080 47.6576   6
 -10   9  -2 138.223 47.5230   6
 -10   9  -2 184.606 44.0132   5
 -10   9  -3-53.9101 39.5000   5
 -10   9  -4 233.214 43.4851   5
 -10   9  -6 95.1741 38.6762   5
 -10   9  -7 23.3899 39.7821   5
 -10   9  -7 91.9633 39.4119   3
 -10   9  -8-2.72120 37.2532   5
 -10   9  -8 76.5926 39.6390   3
 -10   9  -9 57.4991 35.3099   5
 -10   9  -9 5.57572 39.6260   3
 -10   9 -10-37.9274 39.3296   3
 -10   8   6 51.3779 43.5618   6
 -10   8   5 235.604 44.7226   6
 -10   8   4 40.4179 44.6008   6
 -10   8   3 345.244 48.7476   6
 -10   8   2 228.751 45.4139   6
 -10   8   1-42.6920 44.1584   6
 -10   8   0 8.02221 41.3146   6
 -10   8  -1 845.704 53.6078   6
 -10   8  -2 229.382 48.4469   6
 -10   8  -3 185.272 42.3815   5
 -10   8  -3 145.055 38.4666   3
 -10   8  -4-14.6484 39.6622   5
 -10   8  -4-0.24230 37.1489   3
 -10   8  -5 266.923 41.5687   5
 -10   8  -5 126.400 39.6973   3
 -10   8  -6 79.9926 37.9433   5
 -10   8  -6 248.618 42.3332   3
 -10   8  -7 34.5458 36.3930   5
 -10   8  -7 15.1278 37.4809   3
 -10   8  -8 135.104 35.7743   5
 -10   8  -8-37.8941 38.3318   3
 -10   8  -9 19.0520 34.5385   5
 -10   8  -9 18.8222 38.2048   3
 -10   8 -10 191.247 41.0176   3
 -10   8 -11 84.9249 40.4513   3
 -10   7   7 43.1605 44.4148   6
 -10   7   5 343.527 48.3765   6
 -10   7   4 420.935 47.2218   6
 -10   7   2 249.233 45.6764   6
 -10   7   1 147.251 43.1602   6
 -10   7   0 167.524 36.2213   3
 -10   7  -1 99.9552 46.7998   6
 -10   7  -1 307.072 40.6349   3
 -10   7  -2 169.680 37.0545   3
 -10   7  -3-5.92714 36.5789   3
 -10   7  -4 139.526 38.3074   5
 -10   7  -4 75.9185 38.0817   3
 -10   7  -5-41.4314 36.5138   5
 -10   7  -5 64.5375 39.0525   3
 -10   7  -6 30.9512 36.0578   5
 -10   7  -6 18.7632 37.6891   3
 -10   7  -7 57.7051 35.0379   5
 -10   7  -7-7.15732 36.5991   3
 -10   7  -8-44.6155 33.1156   5
 -10   7  -8 38.4671 37.7149   3
 -10   7  -9 8.78924 37.3817   3
 -10   7 -10 31.6880 40.2757   3
 -10   7 -11 216.932 43.2704   3
 -10   7 -12 172.400 42.0810   3
 -10   6   9-26.4983 45.7351   6
 -10   6   7 150.373 47.6276   6
 -10   6   5 141.156 46.5958   6
 -10   6   4 518.346 48.3700   6
 -10   6   3 29.9097 42.3273   6
 -10   6   3 305.321 34.4388   3
 -10   6   2-13.4592 43.5759   6
 -10   6   2 6.86447 33.2059   3
 -10   6   1 106.138 44.8293   6
 -10   6   1 120.347 35.1986   3
 -10   6   0 196.639 44.4895   6
 -10   6   0-4.19586 35.7959   3
 -10   6  -1 260.564 44.2061   6
 -10   6  -1 59.5222 35.5835   3
 -10   6  -2 78.1914 36.8412   3
 -10   6  -3 71.3736 37.8619   3
 -10   6  -4-15.6090 37.9227   3
 -10   6  -6 115.111 34.1328   5
 -10   6  -6 14.5962 37.0099   3
 -10   6  -7 3.38796 30.8568   5
 -10   6  -7 54.7981 37.2229   3
 -10   6  -8 28.4726 37.4840   3
 -10   6  -9-46.5970 35.7162   3
 -10   6 -12-30.7556 39.3045   3
 -10   5   9 118.162 45.3183   6
 -10   5   7 151.286 45.3967   6
 -10   5   6 243.585 47.0808   6
 -10   5   5 78.2301 45.8321   6
 -10   5   4 20.4438 29.8609   3
 -10   5   3 61.2861 44.9726   6
 -10   5   3-53.1380 30.9015   3
 -10   5   2 121.176 42.3135   6
 -10   5   2 96.7405 33.3148   3
 -10   5   1 168.773 46.9727   6
 -10   5   1 228.438 37.6335   3
 -10   5   0-37.9389 46.4867   6
 -10   5   0 8.55817 34.8280   3
 -10   5  -1-16.9519 35.9927   3
 -10   5  -2 204.911 38.4668   3
 -10   5  -3-9.50714 37.1385   3
 -10   5  -4-49.3138 37.1081   3
 -10   5  -5 11.9085 36.4875   3
 -10   5  -6-13.0391 37.2528   3
 -10   5  -7 10.4912 37.2199   3
 -10   5  -8-43.8417 37.2924   3
 -10   5 -10-57.2396 38.7669   3
 -10   4  10-12.4540 44.6915   6
 -10   4   8 234.823 45.5839   6
 -10   4   6 109.115 46.4279   6
 -10   4   5 49.6943 42.3198   6
 -10   4   4-44.9615 43.5247   6
 -10   4   4 40.4538 31.6952   3
 -10   4   3-44.4729 40.2877   6
 -10   4   3 63.5245 31.5125   3
 -10   4   2 39.3216 44.1072   6
 -10   4   2-2.40717 33.4544   3
 -10   4   1 108.248 45.1186   6
 -10   4   1-17.0654 33.8963   3
 -10   4   0 162.898 44.8038   6
 -10   4   0-51.6522 35.2127   3
 -10   4  -1-15.1013 35.8707   3
 -10   4  -3-25.7616 36.0352   3
 -10   4  -4 164.535 40.2072   3
 -10   4  -5 90.2108 38.5040   3
 -10   4  -6-33.6441 37.5652   3
 -10   4  -7-23.7149 37.3019   3
 -10   4  -8-43.8366 37.1200   3
 -10   4  -9-12.2119 34.3299   3
 -10   4 -10-24.6445 38.0572   3
 -10   4 -11-15.8073 36.7823   3
 -10   4 -12-34.4928 37.5265   3
 -10   3  12 64.8292 43.2440   6
 -10   3  10 151.602 46.1084   6
 -10   3   9-46.7561 45.9953   6
 -10   3   8-11.9475 45.6489   6
 -10   3   7 214.188 43.4998   6
 -10   3   6-2.04649 39.5359   6
 -10   3   4 16.7708 39.1764   6
 -10   3   4 28.6081 29.6800   3
 -10   3   3 164.796 44.3531   6
 -10   3   3 12.6118 30.9186   3
 -10   3   2 114.565 45.2061   6
 -10   3   2 106.208 32.5189   3
 -10   3   1 54.3524 43.3799   6
 -10   3   1-36.6257 34.4873   3
 -10   3   0-21.6805 35.0006   3
 -10   3  -1-43.0266 35.1066   3
 -10   3  -2 5.31502 33.2662   3
 -10   3  -3 38.5967 34.8878   3
 -10   3  -4 30.9144 36.3199   3
 -10   3  -5 47.7918 37.4082   3
 -10   3  -6-9.40455 34.4500   3
 -10   3  -7 14.0616 36.8654   3
 -10   3  -8 5.59313 35.8069   3
 -10   3  -9 12.3890 34.5571   3
 -10   3 -10 16.7989 36.5725   3
 -10   3 -11-15.8781 35.6942   3
 -10   3 -12 25.1554 36.5995   3
 -10   2  13 136.549 40.5641   6
 -10   2  11 360.409 40.8667   6
 -10   2  10-49.8760 39.7845   6
 -10   2   9 44.3703 39.5207   6
 -10   2   8 90.6831 41.2899   6
 -10   2   7-47.4756 42.2880   6
 -10   2   6 50.5316 40.8069   6
 -10   2   5 203.289 44.7828   6
 -10   2   5 64.4180 28.8647   3
 -10   2   4 15.2406 39.1836   6
 -10   2   3-1.49245 31.0097   3
 -10   2   3-55.4098 41.4703   6
 -10   2   2-1.92740 31.7990   3
 -10   2   2-53.6373 41.2787   6
 -10   2   1 57.6216 31.5352   3
 -10   2   0-7.16372 32.4705   3
 -10   2  -1 2.44666 32.7917   3
 -10   2  -2 66.2831 32.1897   3
 -10   2  -3 28.7399 35.6275   3
 -10   2  -4 61.2314 37.0576   3
 -10   2  -5-44.6678 35.8232   3
 -10   2  -6 22.4023 35.1397   3
 -10   2  -7 13.8186 36.3337   3
 -10   2  -8 6.67326 35.2070   3
 -10   2  -9 5.50621 35.8248   3
 -10   2 -10 12.3844 35.8954   3
 -10   2 -11 22.8529 37.5171   3
 -10   2 -13 116.052 33.3036   1
 -10   1  13 71.8105 39.3392   2
 -10   1  12 400.940 45.2845   6
 -10   1  12 120.807 38.9996   2
 -10   1  11-37.0988 41.7519   6
 -10   1  10 130.208 42.0524   6
 -10   1   9 37.0636 42.0992   6
 -10   1   7 124.599 43.0356   6
 -10   1   6 75.1916 38.9457   6
 -10   1   5-36.1598 40.6839   6
 -10   1   4 97.6076 28.8528   3
 -10   1   4 70.9013 41.9819   6
 -10   1   3-31.0136 28.8094   3
 -10   1   3-3.18277 39.4925   6
 -10   1   2 117.013 29.7293   3
 -10   1   1-26.0241 30.6811   3
 -10   1   0 9.31623 32.6982   3
 -10   1  -1 44.7707 32.7837   3
 -10   1  -2 12.0702 32.3756   3
 -10   1  -4-33.0481 35.6159   3
 -10   1  -5 111.923 35.2900   3
 -10   1  -6 67.0230 34.7450   3
 -10   1  -7 73.6001 35.0053   3
 -10   1  -8 47.4440 35.4323   3
 -10   1  -9 150.968 37.5514   3
 -10   1 -10-11.7960 36.8233   3
 -10   0  13 193.830 40.8787   6
 -10   0  13 16.5054 39.9714   2
 -10   0  12-18.9425 36.8664   2
 -10   0  11 193.516 41.6721   6
 -10   0  11 34.9432 38.9963   2
 -10   0  10-25.1450 41.1600   6
 -10   0  10 96.7310 37.1724   2
 -10   0   9 25.1303 37.4920   2
 -10   0   8 70.8487 40.5501   6
 -10   0   8 3.65969 36.6377   2
 -10   0   7 42.1466 41.2651   6
 -10   0   7 46.5013 36.5646   2
 -10   0   6 23.5479 41.4459   6
 -10   0   6 17.3972 35.7180   2
 -10   0   5 169.954 29.8111   3
 -10   0   5 143.509 40.1434   6
 -10   0   4 16.6609 28.3217   3
 -10   0   4 48.4269 38.0764   6
 -10   0   3 14.5710 28.0508   3
 -10   0   3 85.3302 39.3129   6
 -10   0   2-13.9794 28.5680   3
 -10   0   1 1.54899 31.2964   3
 -10   0   0 47.4147 31.5466   3
 -10   0  -1 20.6589 32.2461   3
 -10   0  -2-4.89507 32.1541   3
 -10   0  -3-54.9876 33.5415   3
 -10   0  -4-8.07084 32.9518   3
 -10   0  -5 22.1324 32.6881   3
 -10   0  -6 36.5719 34.1129   3
 -10   0  -7 50.1491 35.5417   3
 -10   0  -8-4.77306 34.3792   3
 -10   0  -9 76.2859 35.1401   3
 -10  -1  14 179.085 39.1503   6
 -10  -1  13-41.1948 39.3029   2
 -10  -1  12 139.522 39.2722   6
 -10  -1  12 64.4936 40.9050   2
 -10  -1  11 12.1672 38.6110   6
 -10  -1  11 130.144 40.3491   2
 -10  -1  10-36.0173 35.9751   6
 -10  -1  10 199.866 50.8107   2
 -10  -1   9 125.299 40.5614   6
 -10  -1   9 67.2161 40.0419   2
 -10  -1   8 68.7667 38.2196   6
 -10  -1   8 1.02527 38.1847   2
 -10  -1   7-4.28246 38.6638   6
 -10  -1   6-35.6228 37.4585   6
 -10  -1   6-2.48441 36.9098   2
 -10  -1   5 188.172 28.1937   3
 -10  -1   5 188.036 38.2431   6
 -10  -1   5 123.305 38.4596   2
 -10  -1   4 163.807 31.0232   3
 -10  -1   4 265.376 39.9657   6
 -10  -1   4 147.129 37.4993   2
 -10  -1   3 81.9170 28.8611   3
 -10  -1   3-4.38030 37.0060   2
 -10  -1   2-12.4610 29.0118   3
 -10  -1   2-6.04641 35.9573   2
 -10  -1   1 34.7201 29.2226   3
 -10  -1   0 61.5391 30.5011   3
 -10  -1  -1 64.9100 33.7679   3
 -10  -1  -2-44.8647 35.1971   3
 -10  -1  -3 28.1509 34.4634   3
 -10  -1  -4 3.78475 34.4835   3
 -10  -1  -5 14.9656 32.9456   3
 -10  -1  -6 50.4695 35.3036   3
 -10  -1  -7 39.3506 36.3072   3
 -10  -1  -8 6.22390 36.5343   3
 -10  -2  13 41.1539 41.8800   2
 -10  -2  12 104.645 43.8175   2
 -10  -2  11 98.9206 42.9928   2
 -10  -2  10 58.6723 40.1199   2
 -10  -2   9 18.5558 39.5514   2
 -10  -2   7-42.2401 38.6727   6
 -10  -2   7-43.7475 39.0079   2
 -10  -2   6-43.7794 37.4190   6
 -10  -2   6-54.6565 39.4430   2
 -10  -2   5-26.0054 26.1002   3
 -10  -2   5-18.7515 38.0856   2
 -10  -2   4 75.1807 28.6578   3
 -10  -2   4 26.1131 38.3359   2
 -10  -2   3-3.25588 28.3136   3
 -10  -2   3 54.1448 37.8920   2
 -10  -2   2 51.7898 30.2814   3
 -10  -2   2 75.8761 38.1882   2
 -10  -2   1 60.4914 31.2930   3
 -10  -2   1-2.47781 36.4520   2
 -10  -2   0 42.7963 32.5984   3
 -10  -2   0 60.2677 37.1029   2
 -10  -2  -1 527.011 42.0544   2
 -10  -2  -1 364.795 38.4989   3
 -10  -2  -2 466.275 42.7573   2
 -10  -2  -2 395.970 40.4559   3
 -10  -2  -3 10.1959 34.5198   3
 -10  -2  -4-43.0646 33.5284   3
 -10  -2  -5-42.4819 33.8625   3
 -10  -2  -6-17.4924 35.8284   3
 -10  -2  -7-55.7324 35.6984   3
 -10  -3  13 135.198 45.2915   2
 -10  -3  12 90.6772 44.0963   2
 -10  -3  11 104.658 42.5625   2
 -10  -3  10 110.872 43.6424   2
 -10  -3   8-23.6117 41.9474   2
 -10  -3   7-13.1259 43.3689   2
 -10  -3   6 10.7574 42.3471   2
 -10  -3   5 38.5024 39.5849   2
 -10  -3   4 63.3653 29.3399   3
 -10  -3   4 68.4733 38.6748   2
 -10  -3   3-51.0626 28.3853   3
 -10  -3   3-26.1131 38.8905   2
 -10  -3   2-3.45247 31.3599   3
 -10  -3   2-53.8449 39.6888   2
 -10  -3   1 40.3259 31.2037   3
 -10  -3   1 42.1889 39.4961   2
 -10  -3   0 133.106 35.1848   3
 -10  -3   0 99.2320 41.5138   2
 -10  -3  -1 24.4517 35.1234   3
 -10  -3  -1 59.0083 41.4546   2
 -10  -3  -2 183.536 36.6055   3
 -10  -3  -2 261.293 43.2772   2
 -10  -3  -3 24.5862 36.3847   3
 -10  -3  -3 177.360 42.8292   2
 -10  -3  -4 3.10617 36.7210   3
 -10  -4  12 128.381 43.8083   2
 -10  -4  11 51.2203 44.2225   2
 -10  -4   9-42.7996 43.0600   2
 -10  -4   8-16.6179 41.7212   2
 -10  -4   7 38.8624 41.1736   2
 -10  -4   6 57.2605 41.4065   2
 -10  -4   5-12.7269 29.1159   3
 -10  -4   5 30.3472 42.8169   2
 -10  -4   4 18.2094 31.0842   3
 -10  -4   4-16.2846 42.1548   2
 -10  -4   3 4.40344 40.8350   2
 -10  -4   2 37.6689 43.0700   2
 -10  -4   0 269.275 44.1076   2
 -10  -4  -1 986.910 51.5257   2
 -10  -4  -2 299.872 48.4431   2
 -10  -4  -4-33.3594 43.1733   2
 -10  -4  -5-37.3352 40.4535   2
 -10  -4  -7 70.0523 43.5754   2
 -10  -5  10 26.8684 40.7140   2
 -10  -5   9 6.42777 43.4157   2
 -10  -5   8 68.8215 43.8632   2
 -10  -5   7 74.3066 41.9763   2
 -10  -5   5-34.2594 27.7524   3
 -10  -5   4-40.3782 41.1712   2
 -10  -5   3 18.8646 42.7352   2
 -10  -5   2 49.0259 43.5506   2
 -10  -5   1 86.2892 44.8685   2
 -10  -5   0-52.2724 41.9943   2
 -10  -5  -1 98.4840 49.1336   2
 -10  -5  -2 495.585 50.1998   2
 -10  -5  -3 19.8469 43.6064   2
 -10  -5  -4-51.7875 44.9834   2
 -10  -6   9 9.61907 47.1113   2
 -10  -6   8-12.7126 43.9256   2
 -10  -6   7-25.0081 42.5547   2
 -10  -6   6 55.7301 42.3908   2
 -10  -6   5 57.7595 41.8277   2
 -10  -6   4-24.7621 44.1814   2
 -10  -6   3 43.5369 43.0723   2
 -10  -6   1 61.0568 45.7169   2
 -10  -6   0 149.135 45.5335   2
 -10  -6  -1-11.0755 46.4740   2
 -11   8   0-10.6214 45.7857   6
 -11   8  -1 300.268 48.7087   6
 -11   8  -3 69.9668 37.3356   3
 -11   8  -4-12.5091 39.6068   3
 -11   8  -6 222.450 40.8622   5
 -11   8  -7 111.070 35.6357   5
 -11   8  -8 56.6020 34.5364   5
 -11   7   2 215.833 44.7268   6
 -11   7   1 183.000 48.2105   6
 -11   7   0 21.9343 35.6187   3
 -11   7  -1 98.7583 39.3126   3
 -11   7  -2 126.848 37.9770   3
 -11   7  -4 66.6482 38.7381   3
 -11   7  -5 63.6618 37.9913   3
 -11   7  -6 94.2002 40.1021   3
 -11   6   4 276.777 47.2547   6
 -11   6   3 429.428 48.0403   6
 -11   6   3 353.052 37.1713   3
 -11   6   2 79.2561 49.8611   6
 -11   6   2 152.702 35.6051   3
 -11   6   1 141.755 47.4250   6
 -11   6   1 168.723 35.5994   3
 -11   6   0 252.064 49.2827   6
 -11   6   0 10.0555 35.7080   3
 -11   6  -1 139.265 39.6715   3
 -11   6  -2 115.530 39.2337   3
 -11   6  -3 98.1154 39.4395   3
 -11   6  -4 11.7349 37.2438   3
 -11   5   6 38.5835 46.1762   6
 -11   5   5 207.216 46.6490   6
 -11   5   4 71.4276 32.1742   3
 -11   5   3 104.111 45.5355   6
 -11   5   3-20.1904 32.5001   3
 -11   5   2 176.431 49.1197   6
 -11   5   2 109.938 34.2429   3
 -11   5   1 170.273 46.0477   6
 -11   5   1 174.929 36.1749   3
 -11   5   0 88.8084 36.5405   3
 -11   5  -1-47.8565 39.0381   3
 -11   5  -2 41.0886 36.8813   3
 -11   5  -3 47.1842 38.1937   3
 -11   5  -6 44.7365 39.1533   3
 -11   5  -7 49.7957 39.1261   3
 -11   4   7 279.270 45.5346   6
 -11   4   5 120.779 41.8216   6
 -11   4   4 215.246 44.7095   6
 -11   4   4 82.9769 32.2066   3
 -11   4   3 53.7045 46.1417   6
 -11   4   3 196.275 34.7470   3
 -11   4   2-55.0024 33.8191   3
 -11   4   1 242.634 45.0157   6
 -11   4   1 118.063 34.0107   3
 -11   4  -1 4.37373 38.0374   3
 -11   4  -2 105.483 38.1146   3
 -11   4  -4-41.6888 38.0789   3
 -11   4  -5 2.33425 39.1381   3
 -11   4  -6 85.6254 40.2322   3
 -11   4  -7 32.1014 41.4470   3
 -11   3   8 55.4828 43.2760   6
 -11   3   6 162.292 44.2663   6
 -11   3   4-21.1225 40.4963   6
 -11   3   4 2.44010 31.9288   3
 -11   3   3 125.852 46.8535   6
 -11   3   2 259.890 45.2119   6
 -11   3   2 59.3807 33.1876   3
 -11   3   0-56.5819 35.6982   3
 -11   3  -1 2.74803 37.6947   3
 -11   3  -2 39.0136 37.5078   3
 -11   3  -3 0.83119 38.6466   3
 -11   3  -4-9.05315 36.7297   3
 -11   3  -5 33.8892 37.3910   3
 -11   3  -6 62.7622 38.2404   3
 -11   3  -7 295.515 41.3627   3
 -11   2   8 7.04359 42.9006   6
 -11   2   7 107.122 42.0221   6
 -11   2   5 103.823 39.4901   6
 -11   2   4 132.131 41.6265   6
 -11   2   4-13.2655 31.0172   3
 -11   2   3 90.5962 45.9476   6
 -11   2   3 48.2845 33.8032   3
 -11   2   2 18.5055 34.3253   3
 -11   2   0 86.0175 36.0411   3
 -11   2  -1 208.978 36.6364   3
 -11   2  -2-2.35308 34.7066   3
 -11   2  -3 32.7509 36.6412   3
 -11   2  -4 138.632 36.4098   3
 -11   2  -5 74.2515 36.2928   3
 -11   2  -6 110.154 38.9342   3
 -11   1   9-30.1691 42.3599   6
 -11   1   8 0.18545 42.8907   6
 -11   1   6 281.594 43.2349   6
 -11   1   5 135.042 44.3326   6
 -11   1   4-26.9360 39.7331   6
 -11   1   3 61.6724 30.9320   3
 -11   1   2 108.689 32.7473   3
 -11   1   1-15.7686 30.9417   3
 -11   1   0 67.0409 33.8452   3
 -11   1  -1 124.378 34.6179   3
 -11   1  -2 82.3681 37.2439   3
 -11   1  -3-37.7492 34.9635   3
 -11   1  -4-36.9628 33.1621   3
 -11   1  -5-43.0088 33.9658   3
 -11   0  11-4.47122 42.2197   6
 -11   0  10 59.3529 40.1474   6
 -11   0   9-8.76860 40.7303   6
 -11   0   7 254.769 40.4482   6
 -11   0   6 145.077 43.9011   6
 -11   0   5 96.9757 38.1035   6
 -11   0   4-19.8909 28.5038   3
 -11   0   3 80.5519 30.8041   3
 -11   0   1 34.9013 31.9743   3
 -11   0   0 147.025 33.8739   3
 -11   0  -2-20.1562 34.0564   3
 -11   0  -3 55.7288 36.6077   3
 -11   0  -4 120.614 37.6614   3
 -11  -1  11 245.683 42.5891   2
 -11  -1  10 113.315 38.2696   6
 -11  -1  10-20.0504 38.5886   2
 -11  -1   9-33.3995 42.2988   2
 -11  -1   8 118.053 40.1193   6
 -11  -1   7 241.983 43.3791   6
 -11  -1   6-23.5243 39.1048   6
 -11  -1   4 3.37888 28.4570   3
 -11  -1   3-41.3732 29.1718   3
 -11  -1   2-31.7986 31.9812   3
 -11  -1   1 64.2478 33.5150   3
 -11  -1   0 63.0299 33.3871   3
 -11  -1  -1-24.1276 33.4002   3
 -11  -1  -2-34.3431 32.9306   3
 -11  -1  -3-34.6938 37.0103   3
 -11  -2  10 28.3537 41.5947   2
 -11  -2   9 19.2716 42.2505   2
 -11  -2   8-22.6193 42.5842   2
 -11  -2   7 162.041 41.6767   2
 -11  -2   6 151.469 40.8882   2
 -11  -2   5 31.3518 42.2527   2
 -11  -2   4 75.1897 30.4177   3
 -11  -2   3-46.3381 28.5360   3
 -11  -2   1 116.015 32.0486   3
 -11  -2   0 56.5184 33.7132   3
 -11  -2  -1 42.3680 36.1265   3
 -11  -2  -2 15.3396 42.2475   3
 -11  -3   9-23.2497 44.3405   2
 -11  -3   8 147.722 41.2037   2
 -11  -3   7 17.7672 42.9060   2
 -11  -3   6 18.1321 44.1111   2
 -11  -3   5-3.79391 42.2391   2
 -11  -3   4 62.8685 29.6294   3
 -11  -3   4 69.5652 43.3917   2
 -11  -3   3 20.6988 42.4686   2
 -11  -3   2-49.2435 30.6650   3
 -11  -3   2 50.3695 40.4338   2
 -11  -3   1 51.5037 32.5026   3
 -11  -3   0 160.517 36.8646   3
 -11  -4   7 15.1242 44.8751   2
 -11  -4   5 34.4249 43.2192   2
 -11  -4   4 75.0885 30.0481   3
 -11  -4   4 129.176 43.9059   2
 -11  -4   3-21.0334 29.5457   3
 -11  -4   3 14.8102 42.1643   2
 -11  -4   1 3.73760 42.1735   2
 -11  -4   0 106.272 42.6860   2
 -11  -4  -1 244.759 46.0749   2
 -11  -4  -2 199.417 46.2721   2
 -11  -5   4 10.2103 28.7131   3
 -12   5   3 65.6461 35.3110   3
 -12   5   2 4.06983 33.3246   3
 -12   4   3 47.7580 35.8747   3
 -12   4   2 47.8861 34.7529   3
 -12   3   3 72.9826 35.1435   3
 -12   3   1-22.3088 34.1237   3
 -12   2   3 63.3153 34.8922   3
 -12   2   2-28.6234 33.8128   3
 -12   2   1 16.7209 34.7182   3
 -12   1   3 0.00000 33.3927   3
 -12   1   2 95.0227 32.1292   3
 -12   0   3 16.7416 29.4614   3
;
_shelx_hkl_checksum              45832
loop_
_space_group_symop_operation_xyz
'x, y, z'
'-x, -y, -z'
loop_
_atom_site_label
_atom_site_type_symbol
_atom_site_fract_x
_atom_site_fract_y
_atom_site_fract_z
_atom_site_U_iso_or_equiv
_atom_site_adp_type
_atom_site_occupancy
_atom_site_site_symmetry_order
_atom_site_calc_flag
_atom_site_refinement_flags_posn
_atom_site_refinement_flags_adp
C1 C 0.6325(3) 0.1482(3) 0.51118(19) 0.0430(8) Uani 1 1 d . .
C2 C 0.6644(4) 0.0663(3) 0.5317(2) 0.0537(10) Uani 1 1 d . .
H2 H 0.6932 0.0093 0.4964 0.064 Uiso 1 1 calc R U
C3 C 0.6531(4) 0.0707(3) 0.6043(2) 0.0650(11) Uani 1 1 d . .
H3 H 0.6753 0.0168 0.6185 0.078 Uiso 1 1 calc R U
C4 C 0.6088(5) 0.1545(4) 0.6560(2) 0.0722(13) Uani 1 1 d . .
H4 H 0.5998 0.1563 0.7049 0.087 Uiso 1 1 calc R U
C5 C 0.5775(4) 0.2366(3) 0.6363(2) 0.0634(11) Uani 1 1 d . .
H5 H 0.5485 0.2933 0.6717 0.076 Uiso 1 1 calc R U
C6 C 0.5899(4) 0.2335(3) 0.56406(19) 0.0481(9) Uani 1 1 d . .
C7 C 0.5606(4) 0.3133(3) 0.52968(18) 0.0460(9) Uani 1 1 d . .
C8 C 0.5944(3) 0.2615(2) 0.44958(18) 0.0397(8) Uani 1 1 d . .
C9 C 0.5897(3) 0.2969(2) 0.39065(18) 0.0416(8) Uani 1 1 d . .
H9 H 0.5650 0.3614 0.3974 0.050 Uiso 1 1 calc R U
C10 C 0.6223(3) 0.2350(2) 0.32138(18) 0.0383(8) Uani 1 1 d . .
C11 C 0.6280(3) 0.2519(3) 0.25028(19) 0.0432(8) Uani 1 1 d . .
C12 C 0.6003(4) 0.3352(3) 0.2304(2) 0.0567(10) Uani 1 1 d . .
H12 H 0.5736 0.3930 0.2658 0.068 Uiso 1 1 calc R U
C13 C 0.6129(5) 0.3305(3) 0.1576(2) 0.0713(12) Uani 1 1 d . .
H13 H 0.5945 0.3856 0.1437 0.086 Uiso 1 1 calc R U
C14 C 0.6523(5) 0.2457(4) 0.1054(2) 0.0718(12) Uani 1 1 d . .
H14 H 0.6606 0.2436 0.0565 0.086 Uiso 1 1 calc R U
C15 C 0.6802(4) 0.1625(3) 0.1250(2) 0.0621(11) Uani 1 1 d . .
H15 H 0.7067 0.1050 0.0893 0.075 Uiso 1 1 calc R U
C16 C 0.6682(4) 0.1660(3) 0.19716(19) 0.0461(9) Uani 1 1 d . .
C17 C 0.6922(4) 0.0847(3) 0.23125(19) 0.0466(9) Uani 1 1 d . .
C18 C 0.6586(3) 0.1369(3) 0.31136(18) 0.0403(8) Uani 1 1 d . .
C19 C 0.6641(3) 0.1008(3) 0.37012(19) 0.0431(8) Uani 1 1 d . .
H19 H 0.6882 0.0361 0.3633 0.052 Uiso 1 1 calc R U
C20 C 0.6328(3) 0.1640(2) 0.43955(18) 0.0377(8) Uani 1 1 d . .
C21 C 0.3993(4) 0.3273(3) 0.5329(2) 0.0591(10) Uani 1 1 d . .
H21A H 0.3817 0.3622 0.5846 0.071 Uiso 1 1 calc R U
H21B H 0.3824 0.3719 0.5053 0.071 Uiso 1 1 calc R U
C22 C 0.2909(4) 0.2268(3) 0.5017(3) 0.0710(12) Uani 1 1 d . .
H22A H 0.3109 0.1909 0.4506 0.085 Uiso 1 1 calc R U
H22B H 0.3062 0.1832 0.5304 0.085 Uiso 1 1 calc R U
C23 C 0.1341(5) 0.2388(4) 0.5022(3) 0.0947(16) Uani 1 1 d . .
H23A H 0.1140 0.2769 0.5529 0.114 Uiso 1 1 calc R U
H23B H 0.1166 0.2794 0.4714 0.114 Uiso 1 1 calc R U
C24 C 0.0309(5) 0.1363(5) 0.4736(4) 0.133(2) Uani 1 1 d . .
H24A H -0.0671 0.1485 0.4715 0.200 Uiso 1 1 calc R U
H24B H 0.0407 0.0986 0.5067 0.200 Uiso 1 1 calc R U
H24C H 0.0535 0.0965 0.4245 0.200 Uiso 1 1 calc R U
C25 C 0.6597(4) 0.4195(3) 0.5676(2) 0.0576(10) Uani 1 1 d . .
H25A H 0.6411 0.4651 0.5410 0.069 Uiso 1 1 calc R U
H25B H 0.6327 0.4494 0.6183 0.069 Uiso 1 1 calc R U
C26 C 0.8214(4) 0.4175(3) 0.5709(2) 0.0628(11) Uani 1 1 d . .
H26A H 0.8498 0.3885 0.5204 0.075 Uiso 1 1 calc R U
H26B H 0.8412 0.3724 0.5977 0.075 Uiso 1 1 calc R U
C27 C 0.9131(5) 0.5246(3) 0.6092(2) 0.0816(14) Uani 1 1 d . .
H27A H 0.8964 0.5686 0.5810 0.098 Uiso 1 1 calc R U
H27B H 0.8811 0.5548 0.6587 0.098 Uiso 1 1 calc R U
C28 C 1.0745(6) 0.5237(4) 0.6164(3) 0.1090(19) Uani 1 1 d . .
H28A H 1.1257 0.5935 0.6395 0.164 Uiso 1 1 calc R U
H28B H 1.1072 0.4937 0.5676 0.164 Uiso 1 1 calc R U
H28C H 1.0928 0.4835 0.6465 0.164 Uiso 1 1 calc R U
C29 C 0.8513(4) 0.0665(3) 0.2282(2) 0.0597(11) Uani 1 1 d . .
H29A H 0.8622 0.0175 0.2530 0.072 Uiso 1 1 calc R U
H29B H 0.8695 0.0345 0.1762 0.072 Uiso 1 1 calc R U
C30 C 0.9666(4) 0.1620(3) 0.2633(2) 0.0643(11) Uani 1 1 d . .
H30A H 0.9492 0.1956 0.3152 0.077 Uiso 1 1 calc R U
H30B H 0.9603 0.2106 0.2375 0.077 Uiso 1 1 calc R U
C31 C 1.1184(4) 0.1345(4) 0.2592(3) 0.0901(16) Uani 1 1 d . .
H31A H 1.1252 0.0882 0.2868 0.108 Uiso 1 1 calc R U
H31B H 1.1332 0.0978 0.2074 0.108 Uiso 1 1 calc R U
C32 C 1.2360(5) 0.2270(5) 0.2901(3) 0.114(2) Uani 1 1 d . .
H32A H 1.3285 0.2048 0.2878 0.171 Uiso 1 1 calc R U
H32B H 1.2215 0.2644 0.3412 0.171 Uiso 1 1 calc R U
H32C H 1.2337 0.2713 0.2612 0.171 Uiso 1 1 calc R U
C33 C 0.5918(4) -0.0203(3) 0.1916(2) 0.0594(10) Uani 1 1 d . .
H33A H 0.6233 -0.0503 0.1419 0.071 Uiso 1 1 calc R U
H33B H 0.6061 -0.0662 0.2186 0.071 Uiso 1 1 calc R U
C34 C 0.4310(4) -0.0196(3) 0.1837(2) 0.0713(12) Uani 1 1 d . .
H34A H 0.4152 0.0326 0.1627 0.086 Uiso 1 1 calc R U
H34B H 0.3939 -0.0012 0.2328 0.086 Uiso 1 1 calc R U
C35 C 0.3481(6) -0.1252(4) 0.1335(3) 0.1075(19) Uani 1 1 d . .
H35A H 0.3975 -0.1478 0.0881 0.129 Uiso 1 1 calc R U
H35B H 0.3542 -0.1744 0.1588 0.129 Uiso 1 1 calc R U
C36 C 0.1967(7) -0.1308(5) 0.1126(4) 0.147(3) Uani 1 1 d . .
H36A H 0.1558 -0.2007 0.0819 0.220 Uiso 1 1 calc R U
H36B H 0.1884 -0.0853 0.0851 0.220 Uiso 1 1 calc R U
H36C H 0.1453 -0.1102 0.1568 0.220 Uiso 1 1 calc R U
C37 C 0.2883(5) 0.5631(3) 0.0681(2) 0.0612(11) Uani 1 1 d . .
C38 C 0.4208(5) 0.6065(3) 0.0519(3) 0.0760(13) Uani 1 1 d . .
H38 H 0.4290 0.6227 0.0086 0.091 Uiso 1 1 calc R U
C39 C 0.5417(6) 0.6256(4) 0.1014(3) 0.0908(15) Uani 1 1 d . .
H39 H 0.6315 0.6556 0.0917 0.109 Uiso 1 1 calc R U
C40 C 0.5288(6) 0.6002(4) 0.1648(3) 0.0938(16) Uani 1 1 d . .
H40 H 0.6105 0.6136 0.1977 0.113 Uiso 1 1 calc R U
C41 C 0.3973(6) 0.5551(4) 0.1808(2) 0.0810(14) Uani 1 1 d . .
H41 H 0.3909 0.5370 0.2234 0.097 Uiso 1 1 calc R U
C42 C 0.2746(5) 0.5372(3) 0.1325(2) 0.0639(11) Uani 1 1 d . .
C43 C 0.1206(5) 0.4879(3) 0.1369(2) 0.0639(11) Uani 1 1 d . .
C44 C 0.0454(5) 0.4901(3) 0.0660(2) 0.0588(10) Uani 1 1 d . .
C45 C -0.0991(5) 0.4562(3) 0.0400(2) 0.0624(11) Uani 1 1 d . .
H45 H -0.1646 0.4277 0.0666 0.075 Uiso 1 1 calc R U
C46 C 0.1444(4) 0.5345(3) 0.0266(2) 0.0567(10) Uani 1 1 d . .
C47 C 0.1119(6) 0.3754(3) 0.1356(2) 0.0789(14) Uani 1 1 d . .
H47A H 0.1638 0.3777 0.1809 0.095 Uiso 1 1 calc R U
H47B H 0.0109 0.3467 0.1368 0.095 Uiso 1 1 calc R U
C48 C 0.1727(6) 0.3021(3) 0.0688(2) 0.0891(15) Uani 1 1 d . U
H48A H 0.1226 0.3002 0.0232 0.107 Uiso 1 1 calc R U
H48B H 0.2747 0.3289 0.0683 0.107 Uiso 1 1 calc R U
C49 C 0.1576(8) 0.1930(4) 0.0698(3) 0.129(2) Uani 1 1 d . U
H49A H 0.2111 0.1946 0.1145 0.155 Uiso 1 1 calc R U
H49B H 0.0561 0.1673 0.0725 0.155 Uiso 1 1 calc R U
C50 C 0.2111(9) 0.1211(5) 0.0038(4) 0.173(3) Uani 1 1 d . U
H50A H 0.1965 0.0529 0.0068 0.259 Uiso 1 1 calc R U
H50B H 0.3128 0.1442 0.0022 0.259 Uiso 1 1 calc R U
H50C H 0.1589 0.1193 -0.0406 0.259 Uiso 1 1 calc R U
C51 C 0.0528(5) 0.5513(3) 0.2072(2) 0.0722(12) Uani 1 1 d . .
H51A H -0.0429 0.5136 0.2084 0.087 Uiso 1 1 calc R U
H51B H 0.1115 0.5551 0.2509 0.087 Uiso 1 1 calc R U
C52 C 0.0378(5) 0.6608(3) 0.2135(2) 0.0768(13) Uani 1 1 d . .
H52A H 0.1333 0.6999 0.2136 0.092 Uiso 1 1 calc R U
H52B H -0.0205 0.6580 0.1699 0.092 Uiso 1 1 calc R U
C53 C -0.0313(6) 0.7168(4) 0.2830(3) 0.0954(16) Uani 1 1 d . .
H53A H 0.0327 0.7262 0.3263 0.114 Uiso 1 1 calc R U
H53B H -0.1214 0.6734 0.2856 0.114 Uiso 1 1 calc R U
C54 C -0.0634(7) 0.8211(4) 0.2869(3) 0.138(2) Uani 1 1 d . .
H54A H -0.1104 0.8505 0.3315 0.207 Uiso 1 1 calc R U
H54B H -0.1260 0.8130 0.2439 0.207 Uiso 1 1 calc R U
H54C H 0.0258 0.8663 0.2877 0.207 Uiso 1 1 calc R U
loop_
_atom_site_aniso_label
_atom_site_aniso_U_11
_atom_site_aniso_U_22
_atom_site_aniso_U_33
_atom_site_aniso_U_23
_atom_site_aniso_U_13
_atom_site_aniso_U_12
C1 0.0358(19) 0.046(2) 0.046(2) 0.0188(18) -0.0015(15) -0.0015(16)
C2 0.049(2) 0.054(2) 0.060(3) 0.026(2) -0.0012(18) 0.0012(19)
C3 0.066(3) 0.066(3) 0.070(3) 0.039(2) -0.006(2) -0.003(2)
C4 0.089(3) 0.076(3) 0.051(3) 0.033(2) -0.006(2) -0.011(3)
C5 0.079(3) 0.057(3) 0.046(2) 0.014(2) 0.005(2) -0.001(2)
C6 0.047(2) 0.049(2) 0.043(2) 0.0148(18) -0.0002(16) -0.0037(18)
C7 0.054(2) 0.040(2) 0.041(2) 0.0114(17) 0.0063(16) 0.0070(17)
C8 0.0351(18) 0.0386(19) 0.0410(19) 0.0113(16) 0.0024(15) -0.0004(15)
C9 0.041(2) 0.0340(19) 0.049(2) 0.0137(17) 0.0028(16) 0.0065(15)
C10 0.0299(17) 0.0406(19) 0.043(2) 0.0137(16) 0.0004(14) 0.0042(15)
C11 0.0382(19) 0.045(2) 0.046(2) 0.0179(18) -0.0006(16) 0.0039(16)
C12 0.064(3) 0.056(2) 0.055(2) 0.023(2) 0.0058(19) 0.015(2)
C13 0.089(3) 0.071(3) 0.067(3) 0.038(3) 0.008(2) 0.019(3)
C14 0.093(3) 0.083(3) 0.046(2) 0.031(2) 0.007(2) 0.014(3)
C15 0.078(3) 0.063(3) 0.045(2) 0.017(2) 0.010(2) 0.016(2)
C16 0.042(2) 0.048(2) 0.045(2) 0.0132(18) 0.0014(16) 0.0064(17)
C17 0.048(2) 0.047(2) 0.045(2) 0.0137(18) 0.0068(16) 0.0144(17)
C18 0.0322(18) 0.044(2) 0.043(2) 0.0136(17) 0.0025(15) 0.0081(15)
C19 0.0382(19) 0.041(2) 0.051(2) 0.0149(18) 0.0037(16) 0.0103(16)
C20 0.0294(17) 0.0374(19) 0.044(2) 0.0130(16) 0.0026(14) 0.0030(15)
C21 0.064(3) 0.056(2) 0.062(3) 0.020(2) 0.022(2) 0.022(2)
C22 0.048(2) 0.075(3) 0.094(3) 0.033(3) 0.013(2) 0.015(2)
C23 0.066(3) 0.131(5) 0.114(4) 0.065(4) 0.033(3) 0.037(3)
C24 0.050(3) 0.177(6) 0.193(7) 0.102(6) 0.005(4) -0.005(4)
C25 0.080(3) 0.039(2) 0.048(2) 0.0113(18) 0.003(2) 0.003(2)
C26 0.076(3) 0.048(2) 0.055(2) 0.016(2) -0.005(2) -0.010(2)
C27 0.112(4) 0.054(3) 0.065(3) 0.020(2) -0.014(3) -0.025(3)
C28 0.102(4) 0.104(4) 0.096(4) 0.035(3) -0.022(3) -0.050(3)
C29 0.060(3) 0.070(3) 0.056(2) 0.022(2) 0.018(2) 0.031(2)
C30 0.046(2) 0.084(3) 0.067(3) 0.027(2) 0.012(2) 0.020(2)
C31 0.051(3) 0.129(5) 0.105(4) 0.049(3) 0.019(3) 0.037(3)
C32 0.049(3) 0.163(6) 0.126(5) 0.047(4) 0.007(3) 0.018(3)
C33 0.074(3) 0.048(2) 0.051(2) 0.0095(19) 0.005(2) 0.010(2)
C34 0.070(3) 0.055(3) 0.080(3) 0.018(2) -0.006(2) -0.001(2)
C35 0.105(4) 0.077(4) 0.114(4) 0.017(3) -0.028(4) -0.019(3)
C36 0.137(6) 0.108(5) 0.156(6) 0.018(4) -0.056(5) -0.024(4)
C37 0.082(3) 0.048(2) 0.046(2) 0.0049(19) 0.002(2) 0.015(2)
C38 0.083(3) 0.067(3) 0.069(3) 0.013(2) 0.004(3) 0.009(3)
C39 0.079(4) 0.083(4) 0.092(4) 0.007(3) 0.001(3) 0.017(3)
C40 0.093(4) 0.083(4) 0.087(4) 0.003(3) -0.018(3) 0.025(3)
C41 0.106(4) 0.074(3) 0.057(3) 0.009(2) -0.011(3) 0.029(3)
C42 0.086(3) 0.052(2) 0.047(2) 0.006(2) -0.003(2) 0.021(2)
C43 0.096(3) 0.055(2) 0.041(2) 0.0163(19) 0.000(2) 0.015(2)
C44 0.088(3) 0.049(2) 0.038(2) 0.0146(18) 0.001(2) 0.009(2)
C45 0.088(3) 0.057(3) 0.042(2) 0.0206(19) 0.007(2) 0.004(2)
C46 0.078(3) 0.046(2) 0.041(2) 0.0119(18) 0.002(2) 0.006(2)
C47 0.126(4) 0.060(3) 0.054(3) 0.023(2) -0.003(3) 0.020(3)
C48 0.132(4) 0.068(2) 0.062(3) 0.013(2) 0.007(3) 0.025(3)
C49 0.202(5) 0.081(3) 0.115(4) 0.036(3) 0.035(4) 0.048(4)
C50 0.252(8) 0.106(5) 0.146(6) 0.007(4) 0.051(6) 0.072(5)
C51 0.108(4) 0.072(3) 0.041(2) 0.022(2) 0.003(2) 0.024(3)
C52 0.109(4) 0.065(3) 0.057(3) 0.017(2) 0.006(2) 0.027(3)
C53 0.130(5) 0.087(4) 0.073(3) 0.020(3) 0.014(3) 0.046(3)
C54 0.188(7) 0.108(5) 0.128(5) 0.030(4) 0.026(5) 0.078(5)
loop_
_atom_type_symbol
_atom_type_description
_atom_type_scat_dispersion_real
_atom_type_scat_dispersion_imag
_atom_type_scat_source
C C 0.0033 0.0016 'International Tables Vol C Tables 4.2.6.8 and 6.1.1.4'
H H 0.0000 0.0000 'International Tables Vol C Tables 4.2.6.8 and 6.1.1.4'
loop_
_geom_angle_atom_site_label_1
_geom_angle_atom_site_label_2
_geom_angle_atom_site_label_3
_geom_angle
_geom_angle_site_symmetry_1
_geom_angle_site_symmetry_3
C6 C1 C2 120.1(3) . .
C6 C1 C20 108.4(3) . .
C2 C1 C20 131.5(3) . .
C3 C2 C1 119.4(4) . .
C3 C2 H2 120.3 . .
C1 C2 H2 120.3 . .
C4 C3 C2 120.2(4) . .
C4 C3 H3 119.9 . .
C2 C3 H3 119.9 . .
C3 C4 C5 120.8(4) . .
C3 C4 H4 119.6 . .
C5 C4 H4 119.6 . .
C6 C5 C4 119.5(4) . .
C6 C5 H5 120.2 . .
C4 C5 H5 120.2 . .
C1 C6 C5 120.0(4) . .
C1 C6 C7 111.3(3) . .
C5 C6 C7 128.7(3) . .
C8 C7 C6 101.0(3) . .
C8 C7 C21 110.6(3) . .
C6 C7 C21 111.2(3) . .
C8 C7 C25 111.9(3) . .
C6 C7 C25 112.3(3) . .
C21 C7 C25 109.6(3) . .
C9 C8 C20 120.6(3) . .
C9 C8 C7 128.8(3) . .
C20 C8 C7 110.6(3) . .
C10 C9 C8 118.9(3) . .
C10 C9 H9 120.6 . .
C8 C9 H9 120.6 . .
C9 C10 C18 120.3(3) . .
C9 C10 C11 131.1(3) . .
C18 C10 C11 108.5(3) . .
C16 C11 C12 120.1(3) . .
C16 C11 C10 108.8(3) . .
C12 C11 C10 131.1(3) . .
C13 C12 C11 119.0(4) . .
C13 C12 H12 120.5 . .
C11 C12 H12 120.5 . .
C12 C13 C14 120.6(4) . .
C12 C13 H13 119.7 . .
C14 C13 H13 119.7 . .
C13 C14 C15 120.6(4) . .
C13 C14 H14 119.7 . .
C15 C14 H14 119.7 . .
C16 C15 C14 119.5(4) . .
C16 C15 H15 120.2 . .
C14 C15 H15 120.2 . .
C15 C16 C11 120.2(3) . .
C15 C16 C17 128.8(3) . .
C11 C16 C17 111.0(3) . .
C18 C17 C16 101.1(3) . .
C18 C17 C29 110.6(3) . .
C16 C17 C29 111.5(3) . .
C18 C17 C33 113.0(3) . .
C16 C17 C33 112.2(3) . .
C29 C17 C33 108.4(3) . .
C19 C18 C10 121.3(3) . .
C19 C18 C17 128.1(3) . .
C10 C18 C17 110.5(3) . .
C20 C19 C18 118.0(3) . .
C20 C19 H19 121.0 . .
C18 C19 H19 121.0 . .
C19 C20 C8 120.9(3) . .
C19 C20 C1 130.4(3) . .
C8 C20 C1 108.6(3) . .
C22 C21 C7 114.4(3) . .
C22 C21 H21A 108.7 . .
C7 C21 H21A 108.7 . .
C22 C21 H21B 108.7 . .
C7 C21 H21B 108.7 . .
H21A C21 H21B 107.6 . .
C23 C22 C21 115.3(4) . .
C23 C22 H22A 108.4 . .
C21 C22 H22A 108.4 . .
C23 C22 H22B 108.4 . .
C21 C22 H22B 108.4 . .
H22A C22 H22B 107.5 . .
C24 C23 C22 113.0(4) . .
C24 C23 H23A 109.0 . .
C22 C23 H23A 109.0 . .
C24 C23 H23B 109.0 . .
C22 C23 H23B 109.0 . .
H23A C23 H23B 107.8 . .
C23 C24 H24A 109.5 . .
C23 C24 H24B 109.5 . .
H24A C24 H24B 109.5 . .
C23 C24 H24C 109.5 . .
H24A C24 H24C 109.5 . .
H24B C24 H24C 109.5 . .
C26 C25 C7 115.6(3) . .
C26 C25 H25A 108.4 . .
C7 C25 H25A 108.4 . .
C26 C25 H25B 108.4 . .
C7 C25 H25B 108.4 . .
H25A C25 H25B 107.4 . .
C25 C26 C27 113.0(4) . .
C25 C26 H26A 109.0 . .
C27 C26 H26A 109.0 . .
C25 C26 H26B 109.0 . .
C27 C26 H26B 109.0 . .
H26A C26 H26B 107.8 . .
C28 C27 C26 113.9(4) . .
C28 C27 H27A 108.8 . .
C26 C27 H27A 108.8 . .
C28 C27 H27B 108.8 . .
C26 C27 H27B 108.8 . .
H27A C27 H27B 107.7 . .
C27 C28 H28A 109.5 . .
C27 C28 H28B 109.5 . .
H28A C28 H28B 109.5 . .
C27 C28 H28C 109.5 . .
H28A C28 H28C 109.5 . .
H28B C28 H28C 109.5 . .
C30 C29 C17 116.0(3) . .
C30 C29 H29A 108.3 . .
C17 C29 H29A 108.3 . .
C30 C29 H29B 108.3 . .
C17 C29 H29B 108.3 . .
H29A C29 H29B 107.4 . .
C29 C30 C31 111.4(4) . .
C29 C30 H30A 109.3 . .
C31 C30 H30A 109.3 . .
C29 C30 H30B 109.3 . .
C31 C30 H30B 109.3 . .
H30A C30 H30B 108.0 . .
C32 C31 C30 113.3(4) . .
C32 C31 H31A 108.9 . .
C30 C31 H31A 108.9 . .
C32 C31 H31B 108.9 . .
C30 C31 H31B 108.9 . .
H31A C31 H31B 107.7 . .
C31 C32 H32A 109.5 . .
C31 C32 H32B 109.5 . .
H32A C32 H32B 109.5 . .
C31 C32 H32C 109.5 . .
H32A C32 H32C 109.5 . .
H32B C32 H32C 109.5 . .
C34 C33 C17 117.3(3) . .
C34 C33 H33A 108.0 . .
C17 C33 H33A 108.0 . .
C34 C33 H33B 108.0 . .
C17 C33 H33B 108.0 . .
H33A C33 H33B 107.2 . .
C33 C34 C35 111.5(4) . .
C33 C34 H34A 109.3 . .
C35 C34 H34A 109.3 . .
C33 C34 H34B 109.3 . .
C35 C34 H34B 109.3 . .
H34A C34 H34B 108.0 . .
C36 C35 C34 116.9(5) . .
C36 C35 H35A 108.1 . .
C34 C35 H35A 108.1 . .
C36 C35 H35B 108.1 . .
C34 C35 H35B 108.1 . .
H35A C35 H35B 107.3 . .
C35 C36 H36A 109.5 . .
C35 C36 H36B 109.5 . .
H36A C36 H36B 109.5 . .
C35 C36 H36C 109.5 . .
H36A C36 H36C 109.5 . .
H36B C36 H36C 109.5 . .
C38 C37 C42 121.2(4) . .
C38 C37 C46 130.8(4) . .
C42 C37 C46 108.0(4) . .
C37 C38 C39 118.9(5) . .
C37 C38 H38 120.5 . .
C39 C38 H38 120.5 . .
C40 C39 C38 120.0(5) . .
C40 C39 H39 120.0 . .
C38 C39 H39 120.0 . .
C39 C40 C41 121.5(5) . .
C39 C40 H40 119.3 . .
C41 C40 H40 119.3 . .
C40 C41 C42 119.2(5) . .
C40 C41 H41 120.4 . .
C42 C41 H41 120.4 . .
C37 C42 C41 119.1(5) . .
C37 C42 C43 111.6(4) . .
C41 C42 C43 129.2(4) . .
C44 C43 C42 101.3(3) . .
C44 C43 C51 111.1(3) . .
C42 C43 C51 112.2(3) . .
C44 C43 C47 111.3(3) . .
C42 C43 C47 111.8(4) . .
C51 C43 C47 109.0(3) . .
C45 C44 C46 121.0(3) . .
C45 C44 C43 128.2(4) . .
C46 C44 C43 110.8(4) . .
C44 C45 C46 118.4(4) . 2_565
C44 C45 H45 120.8 . .
C46 C45 H45 120.8 2_565 .
C45 C46 C44 120.5(4) 2_565 .
C45 C46 C37 131.1(4) 2_565 .
C44 C46 C37 108.4(3) . .
C48 C47 C43 115.6(4) . .
C48 C47 H47A 108.4 . .
C43 C47 H47A 108.4 . .
C48 C47 H47B 108.4 . .
C43 C47 H47B 108.4 . .
H47A C47 H47B 107.5 . .
C49 C48 C47 113.0(4) . .
C49 C48 H48A 109.0 . .
C47 C48 H48A 109.0 . .
C49 C48 H48B 109.0 . .
C47 C48 H48B 109.0 . .
H48A C48 H48B 107.8 . .
C50 C49 C48 113.1(5) . .
C50 C49 H49A 109.0 . .
C48 C49 H49A 109.0 . .
C50 C49 H49B 109.0 . .
C48 C49 H49B 109.0 . .
H49A C49 H49B 107.8 . .
C49 C50 H50A 109.5 . .
C49 C50 H50B 109.5 . .
H50A C50 H50B 109.5 . .
C49 C50 H50C 109.5 . .
H50A C50 H50C 109.5 . .
H50B C50 H50C 109.5 . .
C52 C51 C43 116.3(3) . .
C52 C51 H51A 108.2 . .
C43 C51 H51A 108.2 . .
C52 C51 H51B 108.2 . .
C43 C51 H51B 108.2 . .
H51A C51 H51B 107.4 . .
C53 C52 C51 113.0(4) . .
C53 C52 H52A 109.0 . .
C51 C52 H52A 109.0 . .
C53 C52 H52B 109.0 . .
C51 C52 H52B 109.0 . .
H52A C52 H52B 107.8 . .
C52 C53 C54 114.5(4) . .
C52 C53 H53A 108.6 . .
C54 C53 H53A 108.6 . .
C52 C53 H53B 108.6 . .
C54 C53 H53B 108.6 . .
H53A C53 H53B 107.6 . .
C53 C54 H54A 109.5 . .
C53 C54 H54B 109.5 . .
H54A C54 H54B 109.5 . .
C53 C54 H54C 109.5 . .
H54A C54 H54C 109.5 . .
H54B C54 H54C 109.5 . .
loop_
_geom_bond_atom_site_label_1
_geom_bond_atom_site_label_2
_geom_bond_distance
_geom_bond_site_symmetry_2
C1 C6 1.391(5) .
C1 C2 1.396(5) .
C1 C20 1.457(4) .
C2 C3 1.373(5) .
C2 H2 0.9300 .
C3 C4 1.375(6) .
C3 H3 0.9300 .
C4 C5 1.390(5) .
C4 H4 0.9300 .
C5 C6 1.372(5) .
C5 H5 0.9300 .
C6 C7 1.525(5) .
C7 C8 1.516(4) .
C7 C21 1.550(5) .
C7 C25 1.544(5) .
C8 C9 1.376(4) .
C8 C20 1.410(4) .
C9 C10 1.380(4) .
C9 H9 0.9300 .
C10 C18 1.410(4) .
C10 C11 1.455(4) .
C11 C16 1.388(5) .
C11 C12 1.395(5) .
C12 C13 1.379(5) .
C12 H12 0.9300 .
C13 C14 1.368(5) .
C13 H13 0.9300 .
C14 C15 1.390(5) .
C14 H14 0.9300 .
C15 C16 1.369(5) .
C15 H15 0.9300 .
C16 C17 1.528(5) .
C17 C18 1.516(4) .
C17 C29 1.547(5) .
C17 C33 1.542(5) .
C18 C19 1.380(4) .
C19 C20 1.384(4) .
C19 H19 0.9300 .
C21 C22 1.517(5) .
C21 H21A 0.9700 .
C21 H21B 0.9700 .
C22 C23 1.501(5) .
C22 H22A 0.9700 .
C22 H22B 0.9700 .
C23 C24 1.511(7) .
C23 H23A 0.9700 .
C23 H23B 0.9700 .
C24 H24A 0.9600 .
C24 H24B 0.9600 .
C24 H24C 0.9600 .
C25 C26 1.517(5) .
C25 H25A 0.9700 .
C25 H25B 0.9700 .
C26 C27 1.524(5) .
C26 H26A 0.9700 .
C26 H26B 0.9700 .
C27 C28 1.514(6) .
C27 H27A 0.9700 .
C27 H27B 0.9700 .
C28 H28A 0.9600 .
C28 H28B 0.9600 .
C28 H28C 0.9600 .
C29 C30 1.514(5) .
C29 H29A 0.9700 .
C29 H29B 0.9700 .
C30 C31 1.523(5) .
C30 H30A 0.9700 .
C30 H30B 0.9700 .
C31 C32 1.492(6) .
C31 H31A 0.9700 .
C31 H31B 0.9700 .
C32 H32A 0.9600 .
C32 H32B 0.9600 .
C32 H32C 0.9600 .
C33 C34 1.509(5) .
C33 H33A 0.9700 .
C33 H33B 0.9700 .
C34 C35 1.527(6) .
C34 H34A 0.9700 .
C34 H34B 0.9700 .
C35 C36 1.445(7) .
C35 H35A 0.9700 .
C35 H35B 0.9700 .
C36 H36A 0.9600 .
C36 H36B 0.9600 .
C36 H36C 0.9600 .
C37 C38 1.381(6) .
C37 C42 1.398(5) .
C37 C46 1.472(5) .
C38 C39 1.388(6) .
C38 H38 0.9300 .
C39 C40 1.375(7) .
C39 H39 0.9300 .
C40 C41 1.380(7) .
C40 H40 0.9300 .
C41 C42 1.391(6) .
C41 H41 0.9300 .
C42 C43 1.513(6) .
C43 C44 1.522(5) .
C43 C51 1.544(5) .
C43 C47 1.549(5) .
C44 C45 1.381(5) .
C44 C46 1.405(5) .
C45 C46 1.385(5) 2_565
C45 H45 0.9300 .
C46 C45 1.385(5) 2_565
C47 C48 1.522(6) .
C47 H47A 0.9700 .
C47 H47B 0.9700 .
C48 C49 1.510(6) .
C48 H48A 0.9700 .
C48 H48B 0.9700 .
C49 C50 1.470(7) .
C49 H49A 0.9700 .
C49 H49B 0.9700 .
C50 H50A 0.9600 .
C50 H50B 0.9600 .
C50 H50C 0.9600 .
C51 C52 1.518(5) .
C51 H51A 0.9700 .
C51 H51B 0.9700 .
C52 C53 1.507(6) .
C52 H52A 0.9700 .
C52 H52B 0.9700 .
C53 C54 1.507(6) .
C53 H53A 0.9700 .
C53 H53B 0.9700 .
C54 H54A 0.9600 .
C54 H54B 0.9600 .
C54 H54C 0.9600 .
loop_
_geom_torsion_atom_site_label_1
_geom_torsion_atom_site_label_2
_geom_torsion_atom_site_label_3
_geom_torsion_atom_site_label_4
_geom_torsion
_geom_torsion_site_symmetry_4
C6 C1 C2 C3 0.1(5) .
C20 C1 C2 C3 -178.9(3) .
C1 C2 C3 C4 0.8(6) .
C2 C3 C4 C5 -1.1(6) .
C3 C4 C5 C6 0.5(6) .
C2 C1 C6 C5 -0.7(5) .
C20 C1 C6 C5 178.5(3) .
C2 C1 C6 C7 180.0(3) .
C20 C1 C6 C7 -0.7(4) .
C4 C5 C6 C1 0.4(6) .
C4 C5 C6 C7 179.5(4) .
C1 C6 C7 C8 -0.6(4) .
C5 C6 C7 C8 -179.8(4) .
C1 C6 C7 C21 116.8(3) .
C5 C6 C7 C21 -62.4(5) .
C1 C6 C7 C25 -120.0(3) .
C5 C6 C7 C25 60.9(5) .
C6 C7 C8 C9 -179.1(3) .
C21 C7 C8 C9 63.0(4) .
C25 C7 C8 C9 -59.5(5) .
C6 C7 C8 C20 1.8(3) .
C21 C7 C8 C20 -116.1(3) .
C25 C7 C8 C20 121.4(3) .
C20 C8 C9 C10 0.4(5) .
C7 C8 C9 C10 -178.6(3) .
C8 C9 C10 C18 0.5(5) .
C8 C9 C10 C11 -179.2(3) .
C9 C10 C11 C16 179.3(3) .
C18 C10 C11 C16 -0.5(4) .
C9 C10 C11 C12 -1.0(6) .
C18 C10 C11 C12 179.2(4) .
C16 C11 C12 C13 0.2(5) .
C10 C11 C12 C13 -179.5(4) .
C11 C12 C13 C14 -0.1(6) .
C12 C13 C14 C15 0.1(7) .
C13 C14 C15 C16 -0.1(7) .
C14 C15 C16 C11 0.2(6) .
C14 C15 C16 C17 179.6(4) .
C12 C11 C16 C15 -0.3(5) .
C10 C11 C16 C15 179.5(3) .
C12 C11 C16 C17 -179.7(3) .
C10 C11 C16 C17 0.0(4) .
C15 C16 C17 C18 -179.0(4) .
C11 C16 C17 C18 0.4(4) .
C15 C16 C17 C29 63.4(5) .
C11 C16 C17 C29 -117.2(3) .
C15 C16 C17 C33 -58.4(5) .
C11 C16 C17 C33 121.0(3) .
C9 C10 C18 C19 -0.8(5) .
C11 C10 C18 C19 179.0(3) .
C9 C10 C18 C17 -179.1(3) .
C11 C10 C18 C17 0.7(4) .
C16 C17 C18 C19 -178.8(3) .
C29 C17 C18 C19 -60.6(5) .
C33 C17 C18 C19 61.1(4) .
C16 C17 C18 C10 -0.7(3) .
C29 C17 C18 C10 117.6(3) .
C33 C17 C18 C10 -120.7(3) .
C10 C18 C19 C20 0.1(5) .
C17 C18 C19 C20 178.0(3) .
C18 C19 C20 C8 0.9(5) .
C18 C19 C20 C1 -178.7(3) .
C9 C8 C20 C19 -1.1(5) .
C7 C8 C20 C19 178.0(3) .
C9 C8 C20 C1 178.5(3) .
C7 C8 C20 C1 -2.3(4) .
C6 C1 C20 C19 -178.5(3) .
C2 C1 C20 C19 0.6(6) .
C6 C1 C20 C8 1.9(4) .
C2 C1 C20 C8 -178.9(3) .
C8 C7 C21 C22 59.9(4) .
C6 C7 C21 C22 -51.5(4) .
C25 C7 C21 C22 -176.3(3) .
C7 C21 C22 C23 -178.2(4) .
C21 C22 C23 C24 -177.5(4) .
C8 C7 C25 C26 -58.8(4) .
C6 C7 C25 C26 54.0(4) .
C21 C7 C25 C26 178.1(3) .
C7 C25 C26 C27 -179.8(3) .
C25 C26 C27 C28 177.3(4) .
C18 C17 C29 C30 -56.8(4) .
C16 C17 C29 C30 54.9(4) .
C33 C17 C29 C30 178.8(3) .
C17 C29 C30 C31 178.2(3) .
C29 C30 C31 C32 177.4(4) .
C18 C17 C33 C34 60.8(4) .
C16 C17 C33 C34 -52.7(4) .
C29 C17 C33 C34 -176.2(3) .
C17 C33 C34 C35 171.4(4) .
C33 C34 C35 C36 -171.2(5) .
C42 C37 C38 C39 -0.8(6) .
C46 C37 C38 C39 -179.8(4) .
C37 C38 C39 C40 0.8(7) .
C38 C39 C40 C41 0.3(8) .
C39 C40 C41 C42 -1.4(7) .
C38 C37 C42 C41 -0.4(6) .
C46 C37 C42 C41 178.9(4) .
C38 C37 C42 C43 -178.2(4) .
C46 C37 C42 C43 1.0(4) .
C40 C41 C42 C37 1.5(6) .
C40 C41 C42 C43 178.9(4) .
C37 C42 C43 C44 -0.8(4) .
C41 C42 C43 C44 -178.3(4) .
C37 C42 C43 C51 -119.3(4) .
C41 C42 C43 C51 63.1(5) .
C37 C42 C43 C47 117.9(4) .
C41 C42 C43 C47 -59.7(5) .
C42 C43 C44 C45 -179.1(4) .
C51 C43 C44 C45 -59.8(5) .
C47 C43 C44 C45 61.9(6) .
C42 C43 C44 C46 0.2(4) .
C51 C43 C44 C46 119.6(4) .
C47 C43 C44 C46 -118.7(4) .
C46 C44 C45 C46 0.8(6) 2_565
C43 C44 C45 C46 -179.8(4) 2_565
C45 C44 C46 C45 -0.9(6) 2_565
C43 C44 C46 C45 179.7(3) 2_565
C45 C44 C46 C37 179.8(3) .
C43 C44 C46 C37 0.3(4) .
C38 C37 C46 C45 -1.0(7) 2_565
C42 C37 C46 C45 179.9(4) 2_565
C38 C37 C46 C44 178.3(4) .
C42 C37 C46 C44 -0.8(4) .
C44 C43 C47 C48 56.3(5) .
C42 C43 C47 C48 -56.2(5) .
C51 C43 C47 C48 179.2(4) .
C43 C47 C48 C49 -178.5(5) .
C47 C48 C49 C50 177.7(6) .
C44 C43 C51 C52 -50.9(5) .
C42 C43 C51 C52 61.7(5) .
C47 C43 C51 C52 -173.9(4) .
C43 C51 C52 C53 179.1(4) .
C51 C52 C53 C54 -173.5(5) .
