#------------------------------------------------------------------------------
#$Date: 2017-10-07 08:35:01 +0300 (Sat, 07 Oct 2017) $
#$Revision: 201850 $
#$URL: file:///home/coder/svn-repositories/cod/cif/7/22/92/7229294.cif $
#------------------------------------------------------------------------------
#
# This file is available in the Crystallography Open Database (COD),
# http://www.crystallography.net/
#
# All data on this site have been placed in the public domain by the
# contributors.
#
data_7229294
loop_
_publ_author_name
'Hempe, M.'
'Reggelin, M.'
_publ_section_title
;
 Molecular packing and morphological stability of
 dihydro-indeno[1,2-b]fluorenes in the context of their substitution
 pattern
;
_journal_issue                   75
_journal_name_full               'RSC Adv.'
_journal_page_first              47183
_journal_paper_doi               10.1039/C7RA09401A
_journal_volume                  7
_journal_year                    2017
_chemical_formula_moiety         'C60 H62, C10'
_chemical_formula_sum            'C70 H62'
_chemical_formula_weight         903.19
_space_group_crystal_system      triclinic
_space_group_IT_number           2
_space_group_name_Hall           '-P 1'
_space_group_name_H-M_alt        'P -1'
_symmetry_space_group_name_Hall  '-P 1'
_symmetry_space_group_name_H-M   'P -1'
_atom_sites_solution_hydrogens   geom
_audit_creation_method           SHELXL-2014/6
_audit_update_record
;
2017-08-14 deposited with the CCDC.
2017-10-06 downloaded from the CCDC.
;
_cell_angle_alpha                102.39(2)
_cell_angle_beta                 115.41(3)
_cell_angle_gamma                107.53(3)
_cell_formula_units_Z            1
_cell_length_a                   11.660(4)
_cell_length_b                   11.794(3)
_cell_length_c                   11.944(3)
_cell_measurement_reflns_used    1361
_cell_measurement_temperature    293(2)
_cell_measurement_theta_max      27.95
_cell_measurement_theta_min      2.94
_cell_volume                     1297.1(9)
_computing_cell_refinement
;
CrysAlis RED (Oxford Diffraction Ltd., 2009)
;
_computing_data_collection
;
CrysAlis CCD (Oxford Diffraction Ltd., 2009)
;
_computing_data_reduction
;
CrysAlis RED (Oxford Diffraction Ltd., 2009)
;
_computing_molecular_graphics    'PLATON (Spek, 2003)'
_computing_publication_material  'SHELXL-2014/6 (Sheldrick, 2014)'
_computing_structure_refinement  'SHELXL-2014/6 (Sheldrick, 2014)'
_computing_structure_solution    'SHELXL-2014 (Sheldrick, 2014)'
_diffrn_ambient_temperature      293(2)
_diffrn_measured_fraction_theta_full 0.993
_diffrn_measured_fraction_theta_max 0.993
_diffrn_measurement_device_type
;  
Oxford Diffraction Xcalibur (TM) Single Crystal X-ray Diffractometer 
with Sapphire CCD Detector.
;
_diffrn_measurement_method
;
Rotation method data acquisition using omega scans.
;
_diffrn_radiation_type           MoK\a
_diffrn_radiation_wavelength     0.71073
_diffrn_reflns_av_R_equivalents  0.0584
_diffrn_reflns_av_unetI/netI     0.1061
_diffrn_reflns_Laue_measured_fraction_full 0.993
_diffrn_reflns_Laue_measured_fraction_max 0.993
_diffrn_reflns_limit_h_max       12
_diffrn_reflns_limit_h_min       -14
_diffrn_reflns_limit_k_max       14
_diffrn_reflns_limit_k_min       -13
_diffrn_reflns_limit_l_max       14
_diffrn_reflns_limit_l_min       -14
_diffrn_reflns_number            8235
_diffrn_reflns_point_group_measured_fraction_full 0.993
_diffrn_reflns_point_group_measured_fraction_max 0.993
_diffrn_reflns_theta_full        25.242
_diffrn_reflns_theta_max         25.349
_diffrn_reflns_theta_min         2.941
_diffrn_source                   'Enhance (Mo) X-ray Source'
_exptl_absorpt_coefficient_mu    0.065
_exptl_absorpt_correction_T_max  0.996
_exptl_absorpt_correction_T_min  0.987
_exptl_absorpt_correction_type   multi-scan
_exptl_absorpt_process_details
;
CrysAlis RED, Oxford Diffraction Ltd., 2009
Empirical absorption correction using spherical harmonics,
implemented in SCALE3 ABSPACK scaling algorithm.
;
_exptl_crystal_colour            colourless
_exptl_crystal_density_diffrn    1.156
_exptl_crystal_description       prism
_exptl_crystal_F_000             482
_exptl_crystal_size_max          0.200
_exptl_crystal_size_mid          0.120
_exptl_crystal_size_min          0.060
_refine_diff_density_max         0.534
_refine_diff_density_min         -0.464
_refine_diff_density_rms         0.066
_refine_ls_extinction_method     none
_refine_ls_goodness_of_fit_ref   1.037
_refine_ls_hydrogen_treatment    constr
_refine_ls_matrix_type           full
_refine_ls_number_parameters     385
_refine_ls_number_reflns         4703
_refine_ls_number_restraints     112
_refine_ls_restrained_S_all      1.060
_refine_ls_R_factor_all          0.2161
_refine_ls_R_factor_gt           0.1147
_refine_ls_shift/su_max          0.006
_refine_ls_shift/su_mean         0.000
_refine_ls_structure_factor_coef Fsqd
_refine_ls_weighting_details
'w=1/[\s^2^(Fo^2^)+(0.1331P)^2^+2.3916P] where P=(Fo^2^+2Fc^2^)/3'
_refine_ls_weighting_scheme      calc
_refine_ls_wR_factor_gt          0.2738
_refine_ls_wR_factor_ref         0.3353
_reflns_Friedel_coverage         0.000
_reflns_number_gt                2248
_reflns_number_total             4703
_reflns_threshold_expression     'I > 2\s(I)'
_cod_data_source_file            c7ra09401a2.cif
_cod_data_source_block           1336m
_cod_original_cell_volume        1297.1(7)
_cod_database_code               7229294
_shelx_space_group_comment
;
The symmetry employed for this shelxl refinement is uniquely defined
by the following loop, which should always be used as a source of
symmetry information in preference to the above space-group names.
They are only intended as comments.
;
_shelx_estimated_absorpt_t_min   0.987
_shelx_estimated_absorpt_t_max   0.996
_shelxl_version_number           2014/6
_shelx_res_file
;
TITL 1336 (MAH-474) IN P-1
CELL  0.71073 11.66000 11.79400 11.94400 102.39000 115.41000 107.53000
ZERR 1  0.00400  0.00300  0.00300  0.02000  0.03000  0.03000
LATT 1
SFAC C H
UNIT 70 62
PLAN 30
FMAP 2
SHEL 12 0.83
SIZE 0.20 0.12 0.06
L.S. 14
SADI C27 C28 C27 C28'
SADI C27 C29 C27 C29'
SADI C27 C30 C27 C30'
SADI C23 C24 C23 C24'
SADI C23 C25 C23 C25'
SADI C23 C26 C23 C26'
ISOR 0.005 C24 C25 C26 C28 C29 C30 C24' C25' C26' C28' C29' C30'
ISOR 0.005 C31 C32 C33 C34 C35
DELU 0.001 0.001 C27 C28 C27 C30 C23 C25'
EQIV $2 -X+1, -Y, -Z+1
CONF
ACTA
FREE C31 C35_$2
FREE C32 C35
FREE C35 C35_$2
FREE C35 C34_$2
REM DFIX 1.40 0.02 C31 C34 C31 C35 C31 C32 C32 C33 C33 C35
REM DFIX 1.40 0.02 C33_$2 C34 C35 C31_$2
WGHT    0.133100    2.391600
FVAR       1.02617   0.70776   0.71274   0.57138
C1    1   -0.197830    0.354419    0.220251    11.00000    0.04198    0.03552 =
         0.03478    0.01551    0.02211    0.02427
C2    1   -0.323515    0.242017    0.139719    11.00000    0.04562    0.04986 =
         0.04641    0.02272    0.02609    0.01992
AFIX  43
H2    2   -0.362587    0.195129    0.178378    11.00000   -1.20000
AFIX   0
C3    1   -0.390365    0.200161    0.001267    11.00000    0.05419    0.05277 =
         0.04075    0.01366    0.01669    0.01870
AFIX  43
H3    2   -0.474356    0.123768   -0.053861    11.00000   -1.20000
AFIX   0
C4    1   -0.333586    0.270834   -0.056456    11.00000    0.05856    0.06803 =
         0.03556    0.01786    0.01835    0.02535
AFIX  43
H4    2   -0.379906    0.241567   -0.150071    11.00000   -1.20000
AFIX   0
C5    1   -0.209614    0.383679    0.023027    11.00000    0.05373    0.05062 =
         0.04305    0.02457    0.02441    0.02448
AFIX  43
H5    2   -0.172722    0.431632   -0.016220    11.00000   -1.20000
AFIX   0
C6    1   -0.140260    0.425246    0.161856    11.00000    0.04494    0.04372 =
         0.03672    0.02133    0.02243    0.02639
C7    1    0.000886    0.543247    0.269488    11.00000    0.04475    0.04643 =
         0.03756    0.02474    0.02800    0.02829
C8    1    0.012565    0.530549    0.399222    11.00000    0.04214    0.03348 =
         0.03704    0.01774    0.02478    0.02137
C9    1   -0.103921    0.420313    0.367350    11.00000    0.04066    0.03578 =
         0.03588    0.02082    0.02107    0.02541
C10   1    0.117263    0.610502    0.531386    11.00000    0.04167    0.03840 =
         0.04180    0.02040    0.02581    0.02011
AFIX  43
H10   2    0.195070    0.683358    0.552651    11.00000   -1.20000
AFIX   0
C11   1    0.126578    0.532398    0.263795    11.00000    0.04543    0.04173 =
         0.03617    0.02356    0.02662    0.02503
C12   1    0.116600    0.416422    0.196482    11.00000    0.04872    0.03786 =
         0.05373    0.01748    0.03063    0.02220
AFIX  43
H12   2    0.029576    0.343012    0.146784    11.00000   -1.20000
AFIX   0
C13   1    0.233497    0.406995    0.201351    11.00000    0.06136    0.05100 =
         0.06372    0.01845    0.03948    0.03358
AFIX  43
H13   2    0.222688    0.326788    0.154423    11.00000   -1.20000
AFIX   0
C14   1    0.365173    0.511052    0.272573    11.00000    0.04889    0.06839 =
         0.05204    0.02756    0.03439    0.03175
C15   1    0.373573    0.626952    0.338010    11.00000    0.04541    0.05739 =
         0.04743    0.01769    0.02424    0.01928
AFIX  43
H15   2    0.460536    0.700323    0.386385    11.00000   -1.20000
AFIX   0
C16   1    0.258493    0.639096    0.334995    11.00000    0.05520    0.04316 =
         0.04720    0.01844    0.03428    0.02546
AFIX  43
H16   2    0.269362    0.719626    0.381153    11.00000   -1.20000
AFIX   0
C17   1   -0.011025    0.667190    0.258767    11.00000    0.04262    0.04583 =
         0.04110    0.02358    0.02466    0.02550
C18   1   -0.060076    0.727550    0.326823    11.00000    0.07691    0.06417 =
         0.06660    0.04279    0.05480    0.04775
AFIX  43
H18   2   -0.078552    0.697118    0.385863    11.00000   -1.20000
AFIX   0
C19   1   -0.082267    0.832064    0.309104    11.00000    0.08711    0.06484 =
         0.07075    0.03707    0.05556    0.05329
AFIX  43
H19   2   -0.117550    0.869244    0.355251    11.00000   -1.20000
AFIX   0
C20   1   -0.054438    0.883364    0.226259    11.00000    0.05811    0.04831 =
         0.05293    0.02590    0.02694    0.03091
C21   1   -0.003477    0.822217    0.159286    11.00000    0.07445    0.05310 =
         0.05556    0.03686    0.04187    0.03426
AFIX  43
H21   2    0.016771    0.853636    0.101568    11.00000   -1.20000
AFIX   0
C22   1    0.017939    0.717566    0.175220    11.00000    0.07172    0.05767 =
         0.05627    0.03634    0.04404    0.04120
AFIX  43
H22   2    0.052670    0.679883    0.128758    11.00000   -1.20000
AFIX   0
C23   1    0.491135    0.493481    0.274850    11.00000    0.05996    0.10063 =
         0.07561    0.03162    0.04471    0.04687
PART 1
C24   1    0.490038    0.488535    0.148584    21.00000    0.10133    0.13382 =
         0.11387    0.05345    0.07926    0.05699
AFIX 137
H24A  2    0.568972    0.475310    0.153128    21.00000   -1.50000
H24B  2    0.497244    0.568793    0.139165    21.00000   -1.50000
H24C  2    0.403192    0.418318    0.072163    21.00000   -1.50000
PART 2
AFIX   0
C24'  1    0.440449    0.431113    0.124084   -21.00000    0.06565    0.07389 =
         0.07575    0.01935    0.05427    0.02956
AFIX 137
H24D  2    0.384524    0.468046    0.073936   -21.00000   -1.50000
H24E  2    0.384086    0.339289    0.089476   -21.00000   -1.50000
H24F  2    0.521257    0.447269    0.115206   -21.00000   -1.50000
PART 1
AFIX   0
C25   1    0.634241    0.601641    0.402420    21.00000    0.06170    0.12613 =
         0.11754    0.02967    0.04902    0.04965
AFIX 137
H25A  2    0.627256    0.611276    0.480813    21.00000   -1.50000
H25B  2    0.654274    0.682138    0.391211    21.00000   -1.50000
H25C  2    0.709233    0.578051    0.413720    21.00000   -1.50000
PART 2
AFIX   0
C25'  1    0.609511    0.631592    0.319679   -21.00000    0.09055    0.10846 =
         0.12224    0.03547    0.06601    0.03651
AFIX 137
H25D  2    0.576846    0.664170    0.250959   -21.00000   -1.50000
H25E  2    0.694037    0.625107    0.332495   -21.00000   -1.50000
H25F  2    0.629780    0.689655    0.402899   -21.00000   -1.50000
PART 1
AFIX   0
C26   1    0.489539    0.368528    0.295840    21.00000    0.07028    0.10782 =
         0.08549    0.03929    0.03772    0.06228
AFIX 137
H26A  2    0.464842    0.361181    0.361869    21.00000   -1.50000
H26B  2    0.581806    0.371946    0.326909    21.00000   -1.50000
H26C  2    0.420975    0.294718    0.211800    21.00000   -1.50000
PART 3
AFIX   0
C26'  1    0.538970    0.417649    0.355927   -21.00000    0.10991    0.12393 =
         0.11630    0.04097    0.05605    0.06373
AFIX 137
H26D  2    0.587866    0.470670    0.450508   -21.00000   -1.50000
H26E  2    0.601679    0.391906    0.337218   -21.00000   -1.50000
H26F  2    0.457928    0.341917    0.331861   -21.00000   -1.50000
PART 0
AFIX   0
C27   1   -0.077856    1.000451    0.208914    11.00000    0.10813    0.05722 =
         0.06727    0.03640    0.03943    0.04983
PART 1
C28   1   -0.158260    1.034072    0.272130    31.00000    0.11953    0.09039 =
         0.10270    0.04362    0.05292    0.07887
AFIX 137
H28A  2   -0.113208    1.040693    0.363590    31.00000   -1.50000
H28B  2   -0.254257    0.967371    0.221156    31.00000   -1.50000
H28C  2   -0.158110    1.115392    0.271579    31.00000   -1.50000
PART 2
AFIX   0
C28'  1   -0.044673    1.101376    0.329877   -31.00000    0.09870    0.08913 =
         0.09560    0.03164    0.05057    0.04399
AFIX 137
H28D  2    0.044003    1.118582    0.405703   -31.00000   -1.50000
H28E  2   -0.118467    1.072243    0.348170   -31.00000   -1.50000
H28F  2   -0.037874    1.179246    0.314793   -31.00000   -1.50000
PART 1
AFIX   0
C29   1   -0.177216    0.968790    0.062773    31.00000    0.12575    0.09664 =
         0.10042    0.05447    0.03303    0.08084
AFIX 137
H29A  2   -0.141125    0.938087    0.010310    31.00000   -1.50000
H29B  2   -0.185089    1.045254    0.052933    31.00000   -1.50000
H29C  2   -0.268986    0.902779    0.031603    31.00000   -1.50000
PART 2
AFIX   0
C29'  1   -0.069048    1.027344    0.093319   -31.00000    0.10593    0.08410 =
         0.09066    0.04865    0.03967    0.04968
AFIX 137
H29D  2   -0.123979    0.948012    0.013951   -31.00000   -1.50000
H29E  2    0.028085    1.062564    0.117714   -31.00000   -1.50000
H29F  2   -0.105682    1.088451    0.075236   -31.00000   -1.50000
PART 1
AFIX   0
C30   1    0.069019    1.108542    0.256850    31.00000    0.11819    0.10316 =
         0.14986    0.05944    0.06235    0.04206
AFIX 137
H30A  2    0.135876    1.125823    0.348374    31.00000   -1.50000
H30B  2    0.060432    1.186089    0.252236    31.00000   -1.50000
H30C  2    0.101464    1.080472    0.199544    31.00000   -1.50000
PART 3
AFIX   0
C30'  1    0.054168    1.125697    0.325015   -31.00000    0.08969    0.06462 =
         0.08454    0.03064    0.04684    0.04207
AFIX 137
H30D  2    0.035889    1.199284    0.320966   -31.00000   -1.50000
H30E  2    0.133939    1.134623    0.315845   -31.00000   -1.50000
H30F  2    0.074594    1.120895    0.410270   -31.00000   -1.50000
PART 0
AFIX   0
C31   1    0.393107    0.010023    0.424806    11.00000    0.13414    0.11347 =
         0.14112    0.04082    0.05726    0.06065
C32   1    0.343226   -0.008845    0.539258    11.00000    0.17770    0.17067 =
         0.20064    0.06259    0.09298    0.08573
C33   1    0.411238   -0.035682    0.634515    11.00000    0.11290    0.09082 =
         0.09404    0.02218    0.06754    0.01721
C34   1    0.456247    0.045572    0.325555    11.00000    0.20837    0.18600 =
         0.19714    0.07023    0.09892    0.09293
C35   1    0.470012   -0.009440    0.542474    11.00000    0.22904    0.21666 =
         0.22424    0.07709    0.13103    0.08996
HKLF 4

REM  1336 (MAH-474) IN P-1
REM R1 =  0.1147 for    2248 Fo > 4sig(Fo)  and  0.2161 for all    4703 data
REM    385 parameters refined using    112 restraints

END

WGHT      0.1352      2.4033

REM Highest difference peak  0.534,  deepest hole -0.464,  1-sigma level  0.066
Q1    1  -0.2592  0.9411  0.1258  11.00000  0.05    0.53
Q2    1   0.5311  0.0662  0.3243  11.00000  0.05    0.41
Q3    1   0.3342  0.0097  0.4694  11.00000  0.05    0.39
Q4    1   0.3757  0.0601  0.2716  11.00000  0.05    0.39
Q5    1   0.3549 -0.0135  0.6043  11.00000  0.05    0.35
Q6    1   0.4098  0.0275  0.3609  11.00000  0.05    0.34
Q7    1   0.5812  0.6212  0.2206  11.00000  0.05    0.26
Q8    1   0.0002  0.5435  0.3335  11.00000  0.05    0.22
Q9    1  -0.2458  1.0047  0.2719  11.00000  0.05    0.21
Q10   1   0.3583  0.3652  0.0353  11.00000  0.05    0.21
Q11   1   0.0439  0.6019  0.4408  11.00000  0.05    0.19
Q12   1   0.6138  0.5643  0.4414  11.00000  0.05    0.19
Q13   1  -0.0320  0.5803  0.2526  11.00000  0.05    0.19
Q14   1  -0.2692  1.0745  0.1289  11.00000  0.05    0.18
Q15   1   0.4461  0.3345  0.0849  11.00000  0.05    0.18
Q16   1   0.2090  0.7376  0.2177  11.00000  0.05    0.18
Q17   1  -0.0169  0.6375  0.0804  11.00000  0.05    0.17
Q18   1   0.2490  1.0737  0.3775  11.00000  0.05    0.17
Q19   1   0.2071  0.0290  0.4392  11.00000  0.05    0.17
Q20   1   0.2470  0.7356  0.3064  11.00000  0.05    0.17
Q21   1   0.6062  0.5768  0.3299  11.00000  0.05    0.17
Q22   1  -0.1671  0.5474  0.0749  11.00000  0.05    0.17
Q23   1   0.4564  0.1490  0.4975  11.00000  0.05    0.17
Q24   1   0.0378  0.5057  0.4333  11.00000  0.05    0.17
Q25   1  -0.0901  0.5416  0.0337  11.00000  0.05    0.17
Q26   1   0.0316  0.5253  0.5055  11.00000  0.05    0.17
Q27   1   0.6257  0.7065  0.3409  11.00000  0.05    0.16
Q28   1   0.7076  0.8541  0.4904  11.00000  0.05    0.16
Q29   1   0.5268  0.3151  0.2006  11.00000  0.05    0.16
Q30   1   0.1172  0.7530  0.0572  11.00000  0.05    0.16
;
_shelx_res_checksum              20189
_shelx_hkl_file
;
   0   0   2 9455.11 24.6171   1
   0   0  -2 9313.95 25.4218   5
   0   0  -2 9501.12 26.2034   6
   0   0  -2 9552.43 28.9107   2
   0   0  -3 570.753 8.99951   5
   0   0   3 659.116 9.34351   1
   0   0  -3 652.338 10.9400   2
   0   0  -3 651.208 9.88931   6
   0   0   3 630.926 11.0630   0
   0   0   4 113.657 6.77243   1
   0   0  -4 103.764 6.98122   6
   0   0   4 124.298 7.84329   0
   0   0  -4 117.106 7.76156   2
   0   0  -4 120.460 6.37347   5
   0   0  -5 126.969 7.86181   6
   0   0  -5 118.584 8.14729   2
   0   0   5 54.0516 8.41728   0
   0   0   5 123.098 7.28040   1
   0   0  -5 169.650 7.33079   5
   0   0   6 151.417 7.93064   1
   0   0  -6 164.632 9.64151   2
   0   0  -6 150.240 8.36847   6
   0   0   6 160.774 10.1547   0
   0   0  -7 14.4682 7.04041   6
   0   0   7 15.9999 8.48696   0
   0   0  -7 14.1459 9.21343   2
   0   0   7 19.5586 7.11951   1
   0   0  -8 1.09154 7.16262   6
   0   0  -8-5.23465 8.59951   2
   0   0   8-6.22464 9.95568   0
   0   0  -9 25.0333 10.8835   2
   0   0   9-0.67271 10.8698   0
   0   0  10 4.97901 11.2771   0
   0   0 -10 22.0156 11.2708   2
   0   0 -11 4.57176 12.0943   2
   0   0  11 19.4219 13.3181   0
   0   0 -12 5.53796 12.9412   2
   0   1 -13 9.88750 12.6007   2
   0   1 -12 1.53926 12.1840   2
   0   1 -11 5.50365 11.1396   2
   0   1 -10 21.4064 11.5270   2
   0  -1  10 13.6703 11.3926   0
   0   1  -9 122.452 11.5547   2
   0  -1   9 63.2509 12.3979   0
   0  -1   8 40.5710 9.84532   0
   0   1  -8 70.3063 11.0707   2
   0  -1   8 61.8366 9.17203   1
   0  -1   7 72.7557 9.47981   0
   0  -1   7 129.620 9.22942   1
   0   1  -7 82.9934 9.57938   2
   0  -1   6 5.60949 6.91277   1
   0  -1   6 7.77208 6.94777   0
   0   1  -6 7.08330 6.05725   5
   0   1  -6 1.35377 6.68509   2
   0  -1   5 9.86402 6.39587   1
   0   1  -5 2.82138 6.76345   2
   0  -1   5 8.70523 6.04088   0
   0   1  -5 3.01790 6.15294   5
   0  -1   4 830.893 12.4417   1
   0   1  -4 836.479 13.6730   2
   0   1  -4 805.559 12.6491   5
   0  -1   4 669.568 12.0527   0
   0   1  -3 10.3349 5.66947   5
   0   1  -3 22.4264 6.50500   2
   0  -1   3 13.9324 6.02094   1
   0  -1   3 28.1578 4.74180   0
   0   1  -2 4837.99 20.4246   5
   0   1  -2 4596.86 20.1732   2
   0  -1  -2 511.596 7.91699   2
   0   1   2 540.125 6.91609   3
   0   1   2 528.806 10.7961   0
   0  -1  -3 8.03302 5.62398   6
   0   1   3 6.11930 7.07366   0
   0   1   3 2.74719 3.42632   3
   0   1   3 10.2191 4.22284   1
   0  -1  -3 2.73988 5.41946   2
   0  -1  -3 4.50450 3.76597   5
   0  -1  -4 215.617 6.56329   5
   0  -1  -4 240.637 8.69239   2
   0  -1  -4 241.043 9.00755   6
   0   1   4 302.620 6.02109   3
   0   1   4 255.319 7.03962   1
   0   1   4 263.653 10.4837   0
   0  -1  -5 15.9984 6.93772   2
   0   1   5 10.7515 3.47481   3
   0  -1  -5 11.4831 6.64623   6
   0   1   5 21.1379 5.67018   1
   0   1   5 11.9966 8.27812   0
   0  -1  -6 1.33879 7.44357   2
   0   1   6 3.48410 7.98834   0
   0   1   6 19.8539 5.97541   1
   0  -1  -6 4.43004 6.66014   6
   0  -1  -7 15.3240 8.98891   2
   0   1   7 17.3714 9.68301   0
   0  -1  -7 22.3289 7.71583   6
   0  -1  -8-0.54295 7.41298   6
   0  -1  -8-6.09328 8.36143   2
   0   1   8-8.77113 10.1430   0
   0   1   9 0.52455 12.5231   0
   0  -1  -9 31.0188 10.4334   2
   0   1  10 5.65144 12.6764   0
   0  -1 -10-2.52380 10.8409   2
   0   1  11 112.609 16.8738   0
   0  -1 -11 107.264 14.4526   2
   0   2 -13-29.7093 12.7676   2
   0   2 -12 2.54487 13.0466   2
   0   2 -11-8.19515 12.6021   2
   0   2 -10-13.4094 10.4425   2
   0   2  -9 53.3314 10.3763   2
   0  -2   9 70.0937 10.3668   1
   0  -2   8 120.135 10.5064   1
   0  -2   8 89.8019 10.0563   0
   0   2  -8 126.488 11.9202   2
   0  -2   7 169.746 10.5275   1
   0   2  -7 152.815 11.3064   2
   0  -2   7 189.690 9.39988   0
   0   2  -6 1319.28 18.6045   5
   0   2  -6 1262.18 20.2062   2
   0  -2   6 1258.70 18.6296   1
   0  -2   6 1268.52 16.9222   0
   0  -2   5 0.50004 5.31858   0
   0   2  -5-5.00296 7.50385   2
   0  -2   5 0.46539 7.54091   1
   0   2  -5 1.98909 6.28590   5
   0  -2   4 2457.71 21.2537   1
   0   2  -4 2467.16 21.4092   2
   0  -2   4 2581.14 15.8895   0
   0   2  -4 2519.83 21.3645   5
   0   2  -3 2.29780 5.38873   2
   0   2  -3-0.61738 6.32681   5
   0   2  -2 7514.23 23.5661   3
   0   2  -2 7439.90 25.3105   2
   0   2  -2 7520.37 28.3604   5
   0   2  -1 2639.18 15.7506   3
   0   2  -1 2708.67 14.2944   5
   0   2  -1 2852.32 15.7979   4
   0   2   0 7316.81 23.6949   0
   0   2   0 7300.91 26.3032   3
   0   2   1 1889.35 15.2669   3
   0   2   1 1899.96 16.7443   0
   0   2   2 884.872 11.3458   3
   0  -2  -2 907.712 9.79228   2
   0   2   2 893.233 14.3681   0
   0  -2  -3 8.20719 4.95359   2
   0   2   3 13.0639 6.84394   0
   0   2   3 14.4810 4.73270   3
   0  -2  -4 257.399 8.99144   2
   0   2   4 247.655 7.14912   3
   0   2   4 265.855 10.9701   0
   0   2   5 16.9000 8.27925   0
   0   2   5 29.9386 4.86982   3
   0  -2  -5 13.0517 6.81662   2
   0  -2  -5 22.0589 7.36294   6
   0  -2  -6 42.5727 8.00350   2
   0   2   6 32.6561 9.78243   0
   0  -2  -6 53.8528 8.63645   6
   0   2   7 13.9232 11.5129   0
   0  -2  -7 74.7588 9.61763   6
   0  -2  -7 45.7538 8.76656   2
   0  -2  -8 1.38806 9.93395   2
   0   2   8-8.60696 12.1761   0
   0   2   9 8.69376 12.5734   0
   0  -2  -9 19.4677 10.2047   2
   0   2  10-4.23832 13.0989   0
   0   2  11 96.2440 16.3231   0
   0   2  12 40.4171 16.0287   0
   0   3 -13 1.15338 13.3201   2
   0   3 -12 1.57564 10.8157   2
   0   3 -11 5.20666 11.8828   2
   0  -3  10 75.8206 11.1757   1
   0   3 -10 63.3446 13.0773   2
   0   3  -9 75.8023 12.3311   2
   0  -3   9 64.7802 10.9877   1
   0  -3   8 148.356 11.3397   1
   0   3  -8 152.542 11.8171   2
   0   3  -7 4.90735 7.98683   5
   0   3  -7 8.29569 7.66627   2
   0  -3   7 8.94319 5.82355   0
   0  -3   7-1.52396 8.47336   1
   0  -3   6 265.569 10.4605   1
   0  -3   6 278.322 8.41243   0
   0   3  -6 252.269 11.8699   2
   0   3  -6 286.737 11.0633   5
   0   3  -5 20.8329 3.55390   3
   0  -3   5 14.5606 7.24025   1
   0   3  -5 15.9952 6.53708   2
   0   3  -5 26.5166 7.72474   5
   0  -3   5 5.78005 4.17383   0
   0   3  -4 147.080 8.54147   5
   0   3  -4 166.412 5.71722   3
   0   3  -4 163.141 8.45479   2
   0   3  -3 35.8358 6.94737   5
   0   3  -3 41.8411 5.79993   4
   0   3  -3 35.0354 5.57053   2
   0   3  -3 40.9237 5.30403   3
   0   3  -2 652.940 10.3601   4
   0   3  -2 605.978 10.4185   5
   0   3  -2 657.993 8.49806   2
   0   3  -2 627.965 10.5233   3
   0   3  -1 246.271 6.50587   5
   0   3  -1 235.876 5.72704   0
   0   3  -1 191.251 8.40291   3
   0   3   0 1787.32 17.0777   3
   0   3   0 1819.50 15.2451   0
   0   3   1 3635.48 23.9799   3
   0   3   1 3637.60 24.8205   0
   0   3   2 108.968 8.58964   0
   0   3   2 99.8051 7.01609   3
   0  -3  -2 101.089 4.84635   2
   0  -3  -3 46.4803 4.95988   2
   0   3   3 46.8079 8.02787   0
   0   3   3 46.4394 5.99760   3
   0  -3  -4-5.64094 5.50418   2
   0   3   4-6.41979 5.44453   3
   0   3   4-2.77953 8.95877   0
   0   3   5 49.6233 10.6663   0
   0  -3  -5 67.0205 6.82973   2
   0  -3  -6 27.0967 8.57235   6
   0   3   6 26.3819 10.9661   0
   0  -3  -6 19.2646 7.02149   2
   0  -3  -7 600.992 16.4090   2
   0   3   7 545.944 21.1644   0
   0  -3  -7 644.258 17.9641   6
   0   3   8 9.88258 12.8311   0
   0   3   9 42.0401 14.3503   0
   0   3  10 0.44402 14.1078   0
   0   3  11 13.7743 15.7064   0
   0   4 -13 19.8667 14.6745   2
   0  -4  12 11.0280 12.3867   1
   0   4 -12 3.37231 14.5810   2
   0  -4  11 5.50009 12.2246   1
   0   4 -11 13.6046 11.9083   2
   0  -4  10-5.41868 11.4248   1
   0   4 -10 9.65420 10.7661   2
   0  -4   9 338.258 15.1239   1
   0   4  -9 335.445 16.0447   2
   0  -4   8 94.8725 10.5491   1
   0   4  -8 84.6367 11.1728   2
   0  -4   7 1.41333 8.42428   1
   0   4  -7 16.8109 8.69990   5
   0   4  -7 9.14940 8.35908   2
   0   4  -6 974.311 11.2604   3
   0  -4   6 1009.53 18.3928   1
   0   4  -6 986.675 17.8356   2
   0   4  -6 989.607 18.3910   5
   0  -4   5 26.2316 8.42291   1
   0   4  -5 22.8058 5.09412   3
   0   4  -5 19.3561 8.12054   5
   0   4  -5 27.4105 6.63848   4
   0   4  -5 23.8908 7.30090   2
   0   4  -4 14.9487 5.61286   3
   0   4  -4 12.1729 5.99272   4
   0   4  -4 16.1339 6.90887   5
   0   4  -4 20.8141 6.19858   2
   0   4  -3 453.639 9.00273   2
   0   4  -3 450.112 9.95335   4
   0   4  -3 457.039 10.3144   3
   0   4  -3 473.330 10.9072   5
   0   4  -2 279.208 8.20558   5
   0   4  -2 283.328 9.20720   4
   0   4  -2 260.452 5.75141   2
   0   4  -2 270.740 9.38218   3
   0   4  -1 11.5410 4.86919   0
   0   4  -1 7.87724 6.13030   3
   0   4   0 56.9822 6.76900   0
   0   4   0 42.2587 7.22530   3
   0   4   1 3.73953 6.85857   0
   0   4   1 7.35355 6.85496   3
   0   4   2 819.991 15.8275   0
   0  -4  -2 783.237 8.93006   2
   0   4   2 800.372 14.1516   3
   0   4   3 0.23122 5.84244   3
   0   4   3-5.04585 7.40637   0
   0  -4  -3 1.16871 4.29462   2
   0   4   4 107.123 11.0789   0
   0  -4  -4 114.166 6.87833   2
   0   4   4 102.218 8.14539   3
   0   4   5 76.6970 10.6519   0
   0   4   6 16.4977 10.9711   0
   0  -4  -6 6.82651 9.13718   6
   0  -4  -7 208.368 14.0775   6
   0   4   7 198.141 15.6704   0
   0   4   8 1.06913 12.6186   0
   0   4   9 29.6945 14.8857   0
   0   4  10 17.4140 15.6101   0
   0  -5  13 66.7459 15.1712   1
   0   5 -13-2.07690 15.0186   2
   0  -5  12 11.6619 12.5763   1
   0   5 -12 14.6635 11.8737   2
   0  -5  11 20.6569 12.0758   1
   0   5 -11 0.98117 12.9779   2
   0   5 -10 14.4881 12.2916   2
   0  -5  10 25.4176 12.6686   1
   0  -5   9 123.952 13.7325   1
   0   5  -9 148.743 12.6512   2
   0   5  -8 80.5328 10.8311   2
   0  -5   8 93.9934 11.0764   1
   0  -5   7 20.2635 7.84361   1
   0   5  -7 16.5517 7.80111   2
   0   5  -7 19.9781 7.37248   4
   0   5  -6 464.580 12.1433   4
   0  -5   6 439.138 13.8710   1
   0   5  -6 429.467 10.0486   3
   0   5  -6 453.401 13.7892   5
   0   5  -6 427.824 12.8209   2
   0   5  -5 192.906 8.24649   3
   0   5  -5 190.622 8.75623   4
   0   5  -5 196.245 10.0990   5
   0   5  -5 183.439 9.40711   2
   0   5  -4 83.2356 6.84930   2
   0   5  -4 97.4505 7.52661   4
   0   5  -4 101.784 7.52186   3
   0   5  -4 89.6495 8.45963   5
   0   5  -3 22.2082 6.58404   4
   0   5  -3 28.6505 6.95324   5
   0   5  -3 22.9650 7.28869   3
   0   5  -3 21.8180 4.78179   2
   0   5  -2 450.545 6.86840   2
   0   5  -2 502.728 12.8853   3
   0   5  -2 498.128 8.50124   0
   0   5  -1 147.343 7.43069   0
   0   5  -1 156.703 9.15822   3
   0   5   0 890.517 16.0474   3
   0   5   0 906.400 14.7717   0
   0   5   1 265.003 11.0824   3
   0   5   1 275.568 10.7497   0
   0   5   2 494.987 13.3646   3
   0   5   2 441.488 14.0207   0
   0   5   3 71.0344 9.73137   0
   0   5   3 75.5859 8.08630   3
   0   5   4 7.56486 10.5641   0
   0   5   4 0.10484 7.04866   3
   0   5   5 609.998 20.1675   0
   0   5   6 193.017 15.9577   0
   0  -5  -7 46.0287 11.3775   6
   0   5   7 10.5959 14.4850   0
   0   5   8 49.1435 11.2039   0
   0   5   9 8.69077 15.0948   0
   0  -6  14 32.9979 14.9493   1
   0   6 -13 3.63496 14.8341   2
   0  -6  13 20.7256 14.8262   1
   0   6 -12 22.9818 13.2428   2
   0  -6  12 33.0277 11.8355   1
   0  -6  11 18.6361 12.5669   1
   0   6 -11 27.5958 11.5314   2
   0   6 -10-20.2151 10.5061   2
   0  -6  10 9.20353 9.74435   1
   0  -6   9 7.39452 10.9086   1
   0   6  -9 16.7180 10.4103   2
   0  -6   8 94.3651 12.1394   1
   0   6  -8 100.452 9.36253   4
   0   6  -8 87.9727 11.3080   2
   0   6  -7 34.2285 7.39371   4
   0   6  -7 28.2006 8.86423   2
   0  -6   7 15.6494 9.64468   1
   0   6  -6 123.149 8.69233   4
   0  -6   6 107.893 9.28379   1
   0   6  -6 117.103 8.99553   2
   0   6  -6 93.2918 7.50490   3
   0   6  -5 145.431 8.38623   2
   0   6  -5 138.179 8.59592   3
   0   6  -5 129.486 8.94193   4
   0   6  -4 129.536 9.13754   3
   0   6  -4 131.609 8.51596   4
   0   6  -4 120.154 6.91469   2
   0   6  -3 0.45270 4.19863   2
   0   6  -3 2.58477 4.04597   0
   0   6  -3 4.46954 7.50178   3
   0   6  -2 154.890 10.5797   3
   0   6  -2 187.665 4.55344   2
   0   6  -2 173.903 7.32836   0
   0   6  -1 216.563 9.02666   0
   0   6  -1 228.567 11.5514   3
   0   6   0 60.4927 8.57050   3
   0   6   0 48.8731 8.17434   0
   0   6   1 1021.83 18.9821   0
   0   6   1 1022.83 19.1277   3
   0   6   2 10.0159 7.72896   3
   0   6   2 9.11808 9.38377   0
   0   6   3 51.6808 8.17054   3
   0   6   3 42.7441 11.2702   0
   0   6   4 137.737 10.1803   3
   0   6   4 91.0289 13.3215   0
   0   6   5 213.734 14.8632   0
   0   6   6 61.9372 14.6060   0
   0  -6  -7 47.4926 11.4045   6
   0   6   7 20.9760 14.5869   0
   0   6   8 9.27382 13.8183   0
   0   7 -13 6.81884 11.0841   2
   0  -7  13 52.6496 13.8300   1
   0   7 -12-2.49606 14.6023   2
   0  -7  12 35.0931 13.9216   1
   0  -7  11 18.5940 12.9551   1
   0   7 -11 4.58893 11.5204   2
   0  -7  10 57.7517 13.1153   1
   0   7 -10 78.9283 13.1786   2
   0  -7   9 143.048 14.1146   1
   0   7  -9 130.444 12.5351   2
   0  -7   8 572.730 19.2163   1
   0   7  -8 581.195 15.5930   4
   0   7  -8 576.116 17.2094   2
   0   7  -7 68.8635 8.52376   4
   0   7  -7 69.4508 8.02304   3
   0   7  -7 71.2885 8.84127   2
   0  -7   7 65.3681 11.1233   1
   0   7  -6 152.560 9.72495   4
   0   7  -6 143.056 9.48557   2
   0   7  -6 134.135 9.20173   3
   0  -7   6 142.308 11.5950   1
   0   7  -5 14.2017 7.31176   3
   0   7  -5 13.9409 6.50136   2
   0   7  -5 3.79571 7.23117   4
   0  -7   5 5.50269 8.38619   1
   0   7  -4 50.4064 9.04202   3
   0   7  -4 53.9239 5.87907   2
   0   7  -3 87.6588 9.30031   3
   0   7  -2 10.2682 8.74549   3
   0   7  -2 21.5476 6.41317   0
   0   7  -1 268.870 13.0486   3
   0   7  -1 293.773 10.6042   0
   0   7   0 88.3337 8.93881   0
   0   7   0 98.2254 10.3297   3
   0   7   1 106.558 10.2829   3
   0   7   1 84.6197 10.4553   0
   0   7   2 32.3547 9.00870   3
   0   7   2 20.4993 9.86712   0
   0   7   3 207.846 11.5279   3
   0   7   3 213.665 14.6380   0
   0   7   4 51.3971 12.8261   0
   0   7   4 36.1220 9.44877   3
   0   7   5 58.0755 13.6535   0
   0   7   6 0.16941 13.6163   0
   0   7   7 18.3535 13.6696   0
   0  -7  -7 36.6449 12.0582   6
   0   7   8 15.9596 14.4869   0
   0  -8  13 44.9362 16.2396   1
   0   8 -13 5.15768 12.3115   2
   0  -8  12 68.6362 15.4338   1
   0   8 -12 4.41558 12.8697   2
   0   8 -11 14.4629 10.6837   2
   0  -8  11 10.7451 13.2973   1
   0  -8  10 33.8649 11.0899   1
   0   8 -10 61.1454 11.6579   2
   0  -8   9 243.980 15.8107   1
   0   8  -9 244.001 14.3301   2
   0   8  -8-0.98524 7.91003   2
   0   8  -8-6.06882 8.47145   4
   0  -8   8-7.71215 11.2639   1
   0   8  -7 351.765 13.3801   2
   0   8  -7 324.178 13.7129   4
   0  -8   7 361.796 15.6103   1
   0   8  -7 360.619 13.2826   3
   0   8  -6 2.13049 8.48746   4
   0   8  -6-0.02084 7.48330   3
   0   8  -6 7.87299 6.85756   2
   0  -8   6 2.95209 9.15698   1
   0  -8   5 20.1654 8.53204   1
   0   8  -5 18.1533 8.49366   3
   0  -8   4 8.98298 7.76611   1
   0   8  -4 13.5376 9.00071   3
   0  -8   3 6.26205 7.18793   1
   0   8  -3 10.6590 8.79669   3
   0   8  -2 77.1546 11.4596   3
   0  -8   2 128.759 8.75937   1
   0   8  -1 7.94131 9.24770   3
   0   8  -1 26.3208 8.26464   0
   0   8   0 170.172 12.1279   3
   0   8   0 153.414 11.1247   0
   0   8   1 245.593 13.9929   0
   0   8   1 211.995 13.0489   3
   0   8   2 88.7297 10.8677   3
   0   8   2 73.3057 12.3066   0
   0   8   3 15.0559 11.6917   0
   0   8   3-3.31635 9.58115   3
   0   8   4 30.8536 12.1938   0
   0   8   4 39.2281 9.59764   3
   0   8   5 3.31276 12.2586   0
   0   8   6 0.87728 15.0677   0
   0   8   7 4.60864 14.7348   0
   0  -8  -7 82.0794 15.1744   6
   0  -9  13 51.7577 14.9927   1
   0   9 -13 29.0909 13.7164   2
   0  -9  12-9.76059 14.0160   1
   0   9 -12 11.0305 12.3915   2
   0  -9  11-3.18893 12.2302   1
   0   9 -11 4.23254 12.3457   2
   0  -9  10 18.5072 11.0760   1
   0   9 -10 35.9079 11.2881   2
   0  -9   9 6.91304 11.0470   1
   0   9  -9-0.91756 9.30422   2
   0  -9   8 106.594 12.6855   1
   0   9  -8 103.358 11.3630   4
   0  -9   7-5.74073 10.8181   1
   0   9  -7-6.65957 9.04517   4
   0   9  -7-1.56667 8.32695   3
   0  -9   6 395.335 16.0994   1
   0   9  -6 376.737 14.5512   3
   0  -9   5 22.5188 9.81506   1
   0   9  -5 32.4943 10.1506   3
   0   9  -4 4.60667 9.03393   3
   0  -9   4 7.06421 8.06863   1
   0  -9   3 1.39741 7.83035   1
   0   9  -3 14.7739 10.0117   3
   0   9  -2 5.01583 9.47743   3
   0   9  -1 82.6230 11.0317   3
   0   9   0 9.49721 10.0758   0
   0   9   0 0.80955 10.2061   3
   0   9   1 47.7111 11.0619   0
   0   9   1 53.1116 10.5649   3
   0   9   2 36.0772 11.8983   0
   0   9   2 51.8413 11.4538   3
   0   9   3-13.2793 10.0403   3
   0   9   3 22.2335 12.4603   0
   0   9   4 15.0194 12.8630   0
   0   9   5 9.59705 15.7204   0
   0   9   6-7.51684 15.7829   0
   0  10 -13 31.1016 15.5014   2
   0 -10  12-9.73087 14.9812   1
   0  10 -12 7.31993 13.1817   2
   0 -10  11-4.05475 13.2218   1
   0 -10  10 5.25909 14.4937   1
   0 -10   9-11.1254 12.7219   1
   0 -10   8-2.87314 11.7056   1
   0  10  -8-2.23445 9.57496   4
   0  10  -7 6.19610 7.99659   3
   0 -10   7 8.29536 10.1162   1
   0 -10   6 0.91988 5.22802   1
   0  10  -6 18.1325 8.85651   3
   0 -10   5 6.87486 9.36215   1
   0  10  -5 22.7143 10.8653   3
   0  10  -4 38.2643 10.0675   3
   0  10  -3 8.54067 10.0760   3
   0  10  -2 9.07780 9.80210   3
   0  10  -1 219.013 14.2865   3
   0  10   0 8.74433 10.1898   3
   0  10   1 131.525 12.4331   3
   0  10   1 150.870 14.2074   0
   0  10   2 61.3040 12.9562   0
   0  10   2 30.0048 11.7521   3
   0  10   3 46.1533 13.9887   0
   0  10   3 23.6950 10.2791   3
   0  10   4 1.79901 14.0889   0
   0  10   5 86.7509 18.8564   0
   0 -11  12 45.1914 15.7112   1
   0 -11  11 15.4798 15.2521   1
   0 -11  10 2.13544 11.1203   1
   0 -11   9 2.55554 12.6136   1
   0 -11   8 12.5686 13.4285   1
   0 -11   7 34.4301 12.7717   1
   0  11  -7 1.59632 9.14237   3
   0  11  -6 19.5940 8.22165   3
   0 -11   6-5.56823 9.51566   1
   0  11  -5 19.0238 10.5736   3
   0  11  -4 31.5583 11.0508   3
   0  11  -3 13.4840 10.6096   3
   0  11  -2 22.5530 10.1927   3
   0  11  -1 12.2156 10.6745   3
   0  11   0 19.3050 11.5514   3
   0  11   1-6.47419 11.5655   3
   0  11   2 74.5376 16.2756   0
   0  11   2 20.9969 10.4078   3
   0  11   3-3.05909 15.2970   0
   0  11   3-28.9355 11.9683   3
   0  11   4 0.94471 19.4246   0
   0 -12  11 10.5450 15.9589   1
   0 -12  10-12.0160 14.3679   1
   0 -12   9 5.13836 12.1825   1
   0 -12   8 0.22301 11.3366   1
   0  12  -8-14.6942 9.52750   3
   0 -12   7 69.0328 13.5969   1
   0  12  -7 86.6273 12.9465   3
   0  12  -6-2.07349 11.7358   3
   0  12  -5 6.43278 9.77243   3
   0  12  -4 13.5776 10.4443   3
   0  12  -3 56.9988 13.7960   3
   0  12  -2 45.8751 10.3295   3
   0  12  -1-39.5542 10.9328   3
   0  12   1 13.4708 11.5215   3
   0  12   2-5.81769 12.6154   3
   0 -13  10 25.3630 15.0876   1
   0 -13   9 9.50133 13.6608   1
   0 -13   8 2.00793 12.9017   1
   0  13  -7 59.8674 12.0852   3
   0  13  -5 11.7078 12.0176   3
   0  13  -4-30.9014 11.2268   3
   0  13  -2-26.9402 11.6455   3
   0  13   0-29.7429 11.9390   3
   0  14  -8 35.8895 13.0104   3
   0  14  -7-22.0785 12.2272   3
   0  14  -6-34.7918 12.1575   3
   0  14  -5-37.9574 10.6889   3
  -1  14  -3-20.7557 13.6914   3
  -1  14  -4 57.4478 12.7279   3
  -1  14  -5 29.4063 12.6474   3
  -1  14  -6 22.7529 13.4600   3
  -1  14  -7 52.7292 12.9713   3
   1 -14   9 15.5965 14.8789   1
  -1  13   1-1.58862 13.4151   3
  -1  13   0-4.11482 11.6928   3
  -1  13  -1 29.1338 11.0561   3
  -1  13  -2 27.1018 11.0317   3
  -1  13  -3 18.8729 12.1655   3
  -1  13  -4 43.6345 12.1059   3
  -1  13  -5 8.90904 11.2480   3
  -1  13  -6 19.4498 11.5306   3
  -1  13  -7 32.9261 12.1900   3
   1 -13   8 53.8276 14.1680   1
   1 -13   9 37.4214 12.0331   1
   1 -13  10 0.33412 15.4392   1
  -1  12   2-15.5744 10.9774   3
  -1  12   1-25.0205 10.6968   3
  -1  12   0 1.17291 11.2363   3
  -1  12  -1 27.6137 13.3823   3
  -1  12  -2-7.87695 8.63620   3
  -1  12  -3 2.70199 11.2701   3
  -1  12  -4 6.76793 12.0847   3
  -1  12  -5 8.84165 10.8256   3
   1 -12   6-0.60592 12.3017   1
  -1  12  -6 22.7641 12.0220   3
   1 -12   7 7.33691 13.1875   1
  -1  12  -7 21.6769 11.6026   3
   1 -12   8 19.4584 11.7976   1
   1 -12   9 0.49689 14.2738   1
   1 -12  10 22.0716 15.1494   1
   1 -12  11-11.3957 13.0368   1
  -1  11   4 7.67616 15.4765   0
  -1  11   3 12.7563 14.6973   0
  -1  11   3-20.3505 10.4744   3
  -1  11   2 70.4164 14.3957   0
  -1  11   2 103.411 12.7032   3
  -1  11   1 26.8654 12.0344   3
  -1  11   0-5.08901 11.8361   3
  -1  11  -1 0.10655 10.3896   3
  -1  11  -2 43.9009 11.2001   3
  -1  11  -3 143.136 14.8665   3
  -1  11  -4 20.1575 11.1115   3
   1 -11   5 39.0827 10.4421   1
  -1  11  -5 43.3766 12.5142   3
   1 -11   6 13.3916 11.5484   1
  -1  11  -6 1.20633 10.7543   3
   1 -11   7 34.9042 11.7447   1
  -1  11  -7 18.6480 11.0252   3
   1 -11   8 30.4977 12.9337   1
  -1  11  -8 29.9475 11.8161   4
   1 -11   9 19.2265 13.3020   1
  -1  11  -9 53.7863 12.4729   4
   1 -11  10-10.1854 12.6643   1
   1 -11  11 9.84084 15.1424   1
  -1  10   5 15.9995 15.9257   0
  -1  10   4 7.55475 13.0197   0
  -1  10   3 40.4225 12.7883   0
  -1  10   3-0.54659 10.2450   3
  -1  10   2 15.2380 11.7173   0
  -1  10   2 6.35187 10.1506   3
  -1  10   1 2.53272 9.74797   3
  -1  10   1-8.60183 10.3091   0
  -1  10   0 3.78393 9.60323   3
  -1  10  -1 36.3134 11.6171   3
  -1  10  -2 62.7755 11.9329   3
  -1  10  -3 10.8993 11.3839   3
   1 -10   4 19.1381 9.36815   1
  -1  10  -4 29.5393 10.5308   3
   1 -10   5 23.5526 9.62045   1
  -1  10  -5 24.7720 10.3065   3
   1 -10   6 9.89286 9.80161   1
  -1  10  -6-8.77523 9.23237   3
  -1  10  -6 8.71379 8.78903   4
  -1  10  -7 15.8624 9.88255   3
  -1  10  -7 13.3838 10.4936   4
   1 -10   7 46.6209 12.5005   1
   1 -10   8 7.46736 11.7855   1
  -1  10  -8 9.17878 9.83182   4
  -1  10  -9-0.73261 9.56092   4
   1 -10   9-2.67397 10.9084   1
   1 -10  10 15.2279 14.3202   1
  -1  10 -10 4.88591 11.6538   2
   1 -10  11 20.6934 13.5724   1
  -1  10 -11 16.5910 11.5776   2
  -1  10 -12-11.3647 11.6169   2
   1 -10  12 25.1966 14.1830   1
  -1   9   6 21.5416 14.7409   0
  -1   9   5-9.88819 13.7280   0
  -1   9   4 12.9033 11.8252   0
  -1   9   4-9.30314 8.95571   3
  -1   9   3 50.2997 11.7392   0
  -1   9   3 62.6391 9.42652   3
  -1   9   2 125.810 13.4955   3
  -1   9   2 30.7850 12.0652   0
  -1   9   1 0.77315 10.8634   0
  -1   9   1 49.0498 10.4167   3
  -1   9   0 10.5064 9.48261   0
  -1   9   0 40.1613 9.90143   3
  -1   9  -1 15.9092 10.5204   3
  -1   9  -2 63.4771 11.4723   3
  -1   9  -3-4.65296 8.92943   3
   1  -9   3 9.79325 8.59528   1
   1  -9   4 2.21220 9.02245   1
  -1   9  -4 11.8949 8.95556   3
  -1   9  -5 11.7696 8.80239   3
   1  -9   5-7.29142 9.17142   1
  -1   9  -5-13.7912 8.88596   4
  -1   9  -6 88.4382 10.3525   3
   1  -9   6 77.2405 10.7811   1
  -1   9  -6 64.4127 10.4469   4
   1  -9   7 6.73664 10.6424   1
  -1   9  -7-13.8661 8.09227   3
  -1   9  -7 7.93960 8.38749   2
  -1   9  -7-6.29292 10.6274   4
   1  -9   8 3.40589 10.2982   1
  -1   9  -8 9.32891 9.55223   2
  -1   9  -8 9.43061 9.12502   4
   1  -9   9 49.2567 13.9603   1
  -1   9  -9 51.1277 10.0865   4
  -1   9  -9 36.7008 10.8923   2
   1  -9  10 18.5019 13.7325   1
  -1   9 -10-7.58080 10.6170   2
  -1   9 -11 10.1473 12.3371   2
   1  -9  11 26.6922 14.8003   1
   1  -9  12 6.92269 15.5335   1
  -1   9 -12 1.50867 12.8270   2
  -1   8   7-25.4729 13.8390   0
  -1   8   6 5.75275 13.6680   0
  -1   8   5 14.3396 13.7024   0
  -1   8   4 119.554 15.1119   0
  -1   8   4 117.647 11.5696   3
  -1   8   3 9.88538 9.78335   3
  -1   8   3 18.9637 10.7041   0
  -1   8   2 88.9315 11.3396   3
  -1   8   2 128.483 12.4924   0
  -1   8   1-2.78395 8.67875   0
  -1   8   1-2.26189 8.83465   3
  -1   8   0 4.21219 8.49309   3
  -1   8   0 4.08033 7.86688   0
  -1   8  -1 30.3599 9.86390   3
  -1   8  -1 28.5127 7.32248   0
   1  -8   2 0.99884 7.13570   1
  -1   8  -2 21.1379 9.71280   3
  -1   8  -3 18.6603 8.47154   3
   1  -8   3 2.20678 7.89061   1
   1  -8   4 6.14056 7.95198   1
  -1   8  -4 5.98576 7.56404   4
  -1   8  -4 9.28826 9.15380   3
  -1   8  -5 613.255 16.5128   4
   1  -8   5 632.036 17.3128   1
  -1   8  -5 686.718 17.1750   3
  -1   8  -5 651.652 14.1102   2
  -1   8  -6 14.9677 8.48101   4
  -1   8  -6 5.66044 7.29598   2
   1  -8   6-4.04635 10.0716   1
  -1   8  -6 3.15293 7.82717   3
  -1   8  -7 526.161 15.7785   2
  -1   8  -7 525.083 16.2044   4
   1  -8   7 507.434 18.3649   1
   1  -8   8 3.39752 9.67162   1
  -1   8  -8 1.16330 9.13711   2
  -1   8  -8-0.71652 8.32547   4
  -1   8  -9 485.018 18.2200   2
   1  -8   9 513.119 20.6229   1
  -1   8  -9 489.053 17.0465   4
  -1   8 -10 37.2615 11.0544   2
   1  -8  10 12.7264 12.6704   1
  -1   8 -11-0.30777 12.6096   2
   1  -8  11 3.35578 12.3422   1
  -1   8 -12-0.82162 12.8650   2
   1  -8  12-1.19584 14.5036   1
   1  -8  13 14.9912 15.9894   1
  -1   8 -13 12.2594 16.0962   2
  -1   7   8-5.58593 15.5942   0
  -1   7   7-8.29660 12.6663   0
  -1   7   6 139.263 15.1532   0
  -1   7   5 37.8633 11.9754   0
  -1   7   4 67.1080 13.2555   0
  -1   7   4 75.6421 9.92335   3
  -1   7   3 43.1060 8.85190   3
  -1   7   3 27.5886 10.3463   0
  -1   7   2 33.4322 10.0061   0
  -1   7   2 25.9260 8.55730   3
  -1   7   1 600.369 16.0756   3
  -1   7   1 598.307 15.6389   0
  -1   7   0 412.400 13.3444   0
  -1   7   0 515.129 14.9460   3
   1  -7   1 76.7890 6.73686   1
  -1   7  -1 38.7028 7.75715   0
  -1   7  -1 61.6340 9.38385   3
  -1   7  -2 131.928 10.5704   3
  -1   7  -2 102.613 6.36314   0
   1  -7   2 103.951 7.81694   1
  -1   7  -3 12.7945 7.72437   4
  -1   7  -3 14.8030 4.95555   2
   1  -7   3 5.26712 7.23020   1
  -1   7  -3 15.5560 7.70497   3
  -1   7  -4 6.32645 5.58336   2
  -1   7  -4 9.14547 6.93716   4
  -1   7  -4 15.5621 7.75591   3
   1  -7   4 7.84470 8.64131   1
  -1   7  -5 332.737 10.8992   2
  -1   7  -5 292.730 11.6193   4
   1  -7   5 312.545 12.9808   1
  -1   7  -5 333.834 11.9595   3
  -1   7  -6 336.570 12.0043   2
  -1   7  -6 303.471 12.4116   4
  -1   7  -6 326.558 11.1586   3
   1  -7   6 306.363 16.5493   1
  -1   7  -7 2.89684 8.38720   2
   1  -7   7 1.60627 10.7560   1
  -1   7  -7 6.57547 8.60955   4
  -1   7  -8 180.095 12.0432   2
  -1   7  -8 218.574 12.6794   4
   1  -7   8 178.529 14.9755   1
   1  -7   9 20.9604 11.8513   1
  -1   7  -9 23.1826 10.9414   4
  -1   7  -9 31.0476 11.8258   2
  -1   7 -10-0.10177 12.1551   2
   1  -7  10-12.1747 12.8401   1
  -1   7 -11 26.4683 12.8628   2
   1  -7  11 36.7821 13.3838   1
   1  -7  12 30.5345 15.8020   1
  -1   7 -12-6.49204 11.8162   2
  -1   7 -13 2.51333 14.4239   2
   1  -7  13 74.9443 15.2628   1
  -1   6   9-29.4310 15.8923   0
  -1   6   8-15.6336 13.9043   0
  -1   6   7 35.1717 13.6787   0
  -1   6   6 253.232 17.4924   0
  -1   6   5 148.896 14.4385   0
  -1   6   4 9.30838 9.99712   0
  -1   6   4 4.83815 7.63720   3
  -1   6   3 36.6551 10.0744   0
  -1   6   3 25.1168 8.04346   3
  -1   6   2 134.573 10.0350   3
  -1   6   2 82.4511 9.84042   0
  -1   6   1-1.64682 7.32174   0
  -1   6   1 4.71065 8.14282   3
  -1   6   0 472.465 11.6420   0
   1  -6   0 434.321 8.48165   1
  -1   6   0 447.275 13.7990   3
   1  -6   1 1003.41 13.7259   1
  -1   6  -1 1057.46 14.4846   0
  -1   6  -1 1041.79 18.2556   3
  -1   6  -2 18.0408 8.35934   3
  -1   6  -2 10.0782 4.30800   0
  -1   6  -2 9.50156 6.69446   4
  -1   6  -2 11.9426 4.13077   2
   1  -6   2 8.14363 6.59349   1
  -1   6  -3 896.210 16.6025   3
   1  -6   3 829.914 15.7662   1
  -1   6  -3 924.504 8.76370   0
  -1   6  -3 870.039 16.2277   4
  -1   6  -3 850.911 12.3232   2
  -1   6  -4 291.923 10.8747   3
  -1   6  -4 296.258 11.2370   4
   1  -6   4 295.307 11.0887   1
  -1   6  -4 323.841 9.78704   2
  -1   6  -5 118.923 7.92622   3
   1  -6   5 107.194 8.79683   1
  -1   6  -5 107.145 8.50299   2
  -1   6  -5 98.7190 8.95652   4
   1  -6   6 56.3123 10.4040   1
  -1   6  -6 63.7092 8.58762   2
  -1   6  -6 58.5792 8.82439   4
  -1   6  -6 69.3581 6.80056   3
  -1   6  -7 3.30132 8.28984   2
  -1   6  -7 0.50196 8.08731   4
   1  -6   7 6.34332 9.20735   1
   1  -6   8 91.7169 11.1948   1
  -1   6  -8 94.2042 11.4681   2
   1  -6   9 318.913 16.9110   1
  -1   6  -9 282.557 15.6783   2
   1  -6  10 14.0628 12.5566   1
  -1   6 -10 0.47522 10.6506   2
  -1   6 -11-14.4022 10.4356   2
   1  -6  11-7.89570 12.1012   1
   1  -6  12 9.03355 12.1732   1
  -1   6 -12-1.12902 12.3422   2
  -1   6 -13 2.04142 14.0707   2
   1  -6  13 65.0137 14.8658   1
  -1   5  10 9.75656 15.0365   0
  -1   5   9-2.65165 15.9104   0
  -1   5   8 88.2436 14.0741   0
   1  -5  -7 83.6254 11.7413   6
  -1   5   7 42.4789 13.3859   0
  -1   5   6 20.1131 11.0928   0
  -1   5   5 27.4046 10.1795   0
  -1   5   5 38.1556 4.11117   3
  -1   5   4 5.54602 7.20777   3
  -1   5   4-2.99869 9.66293   0
  -1   5   3 66.4972 7.76088   3
  -1   5   3 30.1970 9.64566   0
   1  -5  -2 247.651 5.14445   2
  -1   5   2 281.081 11.3839   0
  -1   5   2 253.873 10.5923   3
  -1   5   1 113.332 8.74282   3
  -1   5   1 118.085 8.67930   0
  -1   5   0 241.495 9.27542   0
  -1   5   0 269.787 10.7554   3
   1  -5   0 325.843 7.20856   1
   1  -5   1 267.107 8.11715   1
  -1   5  -1 258.317 11.2276   3
  -1   5  -1 286.502 5.22102   2
  -1   5  -1 289.496 7.75200   0
   1  -5   2 360.076 9.84971   1
  -1   5  -2 348.040 12.1605   3
  -1   5  -2 377.173 11.0305   4
  -1   5  -2 348.441 6.71076   0
  -1   5  -2 392.131 7.47758   2
  -1   5  -3 151.044 7.45293   2
  -1   5  -3 146.963 8.98514   3
   1  -5   3 143.707 9.17201   1
  -1   5  -3 161.779 8.93983   4
   1  -5   4 110.008 9.41737   1
  -1   5  -4 86.3642 7.87561   2
  -1   5  -4 118.414 8.31291   4
  -1   5  -4 130.546 7.89988   3
  -1   5  -5 138.721 7.20292   3
   1  -5   5 129.424 10.2028   1
  -1   5  -5 124.873 8.64288   2
  -1   5  -6 31.9747 8.20221   2
  -1   5  -6 32.6336 5.46394   3
   1  -5   6 39.3592 10.0556   1
  -1   5  -7 110.946 9.70644   2
   1  -5   7 111.606 11.4682   1
   1  -5   8 4.86362 10.4358   1
  -1   5  -8-4.44878 9.74287   2
   1  -5   9 107.478 11.9116   1
  -1   5  -9 89.8028 11.5232   2
  -1   5 -10 21.8676 11.1179   2
   1  -5  10 26.7184 13.0246   1
  -1   5 -11-3.66848 12.9287   2
   1  -5  11 3.64467 11.5031   1
  -1   5 -12 14.5089 12.4426   2
   1  -5  12 32.6134 14.0636   1
  -1   5 -13 9.67711 15.9870   2
  -1   4  11 3.79927 16.8283   0
  -1   4  10 14.0323 15.1150   0
  -1   4   9-23.9924 13.0869   0
  -1   4   8-2.93327 12.0182   0
   1  -4  -7 33.8519 9.06370   6
  -1   4   7 10.1739 11.7796   0
  -1   4   6 101.134 11.9377   0
  -1   4   5 97.5074 10.9866   0
   1  -4  -5 93.4847 7.27286   2
  -1   4   5 105.840 6.98333   3
   1  -4  -4 189.755 7.37812   2
  -1   4   4 104.783 11.8104   0
  -1   4   4 196.898 8.81302   3
  -1   4   3 119.888 10.7064   0
   1  -4  -3 169.496 5.98556   2
  -1   4   3 178.328 8.70047   3
   1  -4  -2 5.84520 3.37626   2
  -1   4   2 0.62883 6.49901   3
  -1   4   2 2.28211 7.90340   0
  -1   4   1 196.223 8.55989   0
  -1   4   1 116.029 8.58021   3
   1  -4   0 878.550 9.48009   1
  -1   4   0 703.126 13.4404   3
  -1   4   0 872.418 11.8369   0
  -1   4  -1 147.039 8.25322   3
  -1   4  -1 169.252 4.93045   2
   1  -4   1 158.208 6.73536   1
  -1   4  -1 111.451 5.57920   0
  -1   4  -1 108.004 7.82950   4
  -1   4  -2 377.427 10.1715   3
  -1   4  -2 364.496 7.85742   2
   1  -4   2 365.250 9.53780   1
  -1   4  -2 377.950 9.82967   4
   1  -4   3 379.985 10.8834   1
  -1   4  -3 395.999 9.66198   2
  -1   4  -3 377.354 11.1963   4
  -1   4  -3 343.072 9.67183   3
   1  -4   4-0.09785 7.45498   1
  -1   4  -4 5.31683 5.50163   3
  -1   4  -4 5.78442 6.53691   2
  -1   4  -5 258.001 7.68257   3
  -1   4  -5 181.089 11.0481   2
   1  -4   5 245.050 11.3868   1
   1  -4   6 27.3785 5.43951   0
   1  -4   6 29.8302 8.53035   1
  -1   4  -6 40.6314 9.07057   2
   1  -4   7 3.78268 9.17741   1
  -1   4  -7 2.08738 8.76984   2
   1  -4   8 19.4095 10.2435   1
  -1   4  -8 6.96002 7.98699   2
   1  -4   9 97.3050 12.1684   1
  -1   4  -9 74.8738 12.7812   2
  -1   4 -10 33.0175 11.5695   2
   1  -4  10 31.7364 11.1361   1
   1  -4  11-12.4907 11.4579   1
  -1   4 -11-11.4808 11.4049   2
  -1   4 -12 4.24632 13.7757   2
  -1   3  11 20.9194 14.5074   0
  -1   3  10 40.4286 14.8219   0
  -1   3   9 6.86517 11.8836   0
  -1   3   8 12.5862 11.2523   0
   1  -3  -8 12.5117 9.00657   2
  -1   3   7 24.4066 12.0970   0
   1  -3  -7 31.4679 8.54768   6
   1  -3  -7 22.8725 7.96130   2
  -1   3   6 19.6656 9.08982   0
   1  -3  -6 28.3310 7.56757   2
   1  -3  -6 54.0682 8.81818   6
  -1   3   5 13.4880 8.97033   0
  -1   3   5 18.7617 5.52637   3
   1  -3  -5 26.4149 6.52884   2
  -1   3   4 869.291 13.0447   3
   1  -3  -4 928.341 8.74374   5
   1  -3  -4 822.668 12.7058   2
  -1   3   4 921.188 18.0315   0
  -1   3   3 616.009 11.5305   3
  -1   3   3 649.274 14.0453   0
   1  -3  -3 664.445 9.99481   2
  -1   3   2 143.614 7.84945   3
   1  -3  -2 135.973 4.78093   2
  -1   3   2 143.901 9.10411   0
  -1   3   1 1496.39 15.5903   0
  -1   3   1 1524.18 16.2793   3
  -1   3   0 351.642 9.39150   4
  -1   3   0 290.720 8.27143   0
  -1   3   0 397.803 10.0376   3
   1  -3   0 381.844 6.55666   1
   1  -3   1 10422.5 33.2499   1
  -1   3  -1 10588.3 35.7733   4
  -1   3  -1 10787.0 112.645   2
   1  -3   2 238.235 8.45975   1
  -1   3  -2 222.267 7.18910   2
   1  -3   3 2163.61 20.1629   1
  -1   3  -3 1932.80 18.6957   2
  -1   3  -4 1.44611 5.92443   2
   1  -3   4 2.39603 7.52870   1
  -1   3  -5 164.188 9.79302   2
   1  -3   5 167.512 9.51102   1
  -1   3  -5 173.512 5.18809   3
  -1   3  -6 23.5341 7.58936   2
   1  -3   6 32.4085 7.96257   1
  -1   3  -7 40.3194 7.64138   2
   1  -3   7 49.4723 8.76222   1
   1  -3   7 18.4500 7.06765   0
  -1   3  -8 4.30406 8.45132   2
   1  -3   8 9.45581 9.74409   1
  -1   3  -9 13.1043 9.92192   2
   1  -3   9 27.3963 10.5059   1
   1  -3  10-1.23313 10.5574   1
  -1   3 -10 1.78631 13.1471   2
  -1   3 -11 4.17516 12.5373   2
  -1   3 -12 23.3953 12.5309   2
  -1   2  12 15.5883 17.2580   0
  -1   2  11-5.28981 13.9732   0
   1  -2 -10-3.37845 9.84370   2
  -1   2  10-2.98409 11.7688   0
   1  -2  -9 1.30710 9.33355   2
  -1   2   9-5.53397 12.1216   0
   1  -2  -8 1.60690 8.43568   2
  -1   2   8 4.18423 11.1067   0
  -1   2   7 3.88019 9.70380   0
   1  -2  -7 0.40626 6.78837   6
   1  -2  -7-1.57058 7.58387   2
  -1   2   6 2.38871 9.00492   0
   1  -2  -6 25.7798 6.91221   6
   1  -2  -6 8.38919 7.18388   2
  -1   2   5 12.1200 4.18468   1
  -1   2   5 9.39232 8.64219   0
   1  -2  -5 6.72108 4.20926   5
  -1   2   5 14.7736 4.44241   3
   1  -2  -5 9.07924 6.52119   2
  -1   2   4 58.3386 4.01682   1
   1  -2  -4 58.2733 6.26386   2
   1  -2  -4 60.4757 4.34149   5
  -1   2   4 67.7565 9.00069   0
  -1   2   4 66.8908 5.33113   3
  -1   2   3 152.661 6.84316   3
   1  -2  -3 179.136 4.78029   5
  -1   2   3 161.868 9.74589   0
   1  -2  -3 197.392 6.71400   2
  -1   2   2 12.5312 6.93240   0
   1  -2  -2 35.7726 4.22433   2
  -1   2   2 19.6699 5.82904   3
  -1   2   1 1080.45 14.6047   0
  -1   2   0 539.288 8.12753   4
   1  -2   1 61.4336 5.68203   1
  -1   2  -1 61.0392 4.79776   2
   1  -2   2 216.681 7.91351   1
  -1   2  -2 204.263 7.40310   2
   1  -2   3 793.846 12.9409   1
  -1   2  -3 868.441 13.5109   2
   1  -2   4 1575.16 18.3137   1
  -1   2  -4 1527.86 18.9782   2
   1  -2   5 530.440 12.8030   1
  -1   2  -5 517.960 13.6131   2
   1  -2   6 15.2895 7.37702   1
  -1   2  -6 4.05632 8.14307   2
  -1   2  -7 193.595 12.0281   2
   1  -2   7 168.493 10.1104   0
   1  -2   7 179.015 10.4358   1
   1  -2   8 130.493 11.1074   0
  -1   2  -8 138.376 12.2523   2
   1  -2   8 150.089 11.7061   1
   1  -2   9 53.5971 10.2487   1
  -1   2  -9-0.51227 11.1291   2
  -1   2 -10 32.7326 13.2254   2
  -1   2 -11 23.9057 11.5192   2
  -1   2 -12-10.4051 12.4632   2
   1  -1 -12 47.5248 14.1618   2
   1  -1 -11 24.4957 11.4782   2
  -1   1  11 1.92161 13.2657   0
  -1   1  10 2.78410 11.4856   0
   1  -1 -10 31.2192 11.3277   2
  -1   1   9 52.7975 12.6103   0
   1  -1  -9 53.8324 10.5438   2
   1  -1  -8 5.63150 8.47599   2
  -1   1   8 12.5210 9.28319   0
   1  -1  -7 11.3166 6.57124   5
   1  -1  -7 3.66305 7.14238   2
  -1   1   7 2.71630 8.34776   0
   1  -1  -7-1.64201 6.35481   6
  -1   1   6 257.096 8.72783   1
   1  -1  -6 284.253 9.46094   6
   1  -1  -6 265.523 10.4026   2
  -1   1   6 187.889 11.0523   0
   1  -1  -6 287.971 8.81769   5
   1  -1  -5 821.787 14.4925   2
  -1   1   5 739.523 8.21218   3
   1  -1  -5 807.947 12.6154   6
  -1   1   5 688.335 16.5256   0
  -1   1   5 789.947 11.2861   1
   1  -1  -5 773.021 11.3502   5
   1  -1  -4 77.8097 5.24244   5
   1  -1  -4 83.1557 6.70736   2
   1  -1  -4 83.8423 5.82759   6
  -1   1   4 92.1452 8.38587   0
  -1   1   4 53.1194 4.29291   3
  -1   1   3 8.83335 7.14599   0
   1  -1  -3 9.73124 4.37319   5
   1  -1  -3 9.33622 5.38059   2
  -1   1   2 3237.88 19.1454   0
   1  -1  -2 3135.43 16.3637   2
  -1   1  -1 444.663 7.05714   2
   1  -1   2 2322.31 16.7145   1
  -1   1  -2 2340.02 17.1200   2
  -1   1  -3 36.4321 5.92469   6
  -1   1  -3 24.7408 6.15626   2
   1  -1   3 34.2851 6.01545   1
   1  -1   4 206.509 8.56257   1
  -1   1  -4 177.781 8.91877   2
  -1   1  -4 195.938 8.41852   6
  -1   1  -5 34.4736 7.17177   6
  -1   1  -5 25.9690 8.60984   2
   1  -1   5 36.9829 7.07081   1
   1  -1   6 5.79921 7.65893   0
  -1   1  -6-2.50206 6.91571   6
   1  -1   6 20.1431 7.43518   1
  -1   1  -6 0.37386 8.10186   2
   1  -1   7-0.71897 8.18458   0
   1  -1   7 23.1587 8.03987   1
  -1   1  -7 4.46691 9.22209   2
  -1   1  -7 1.48578 7.44219   6
   1  -1   8 220.225 13.0632   0
  -1   1  -8 235.272 13.3978   2
  -1   1  -9 1.09918 10.2010   2
   1  -1   9 10.8103 13.0409   0
  -1   1 -10-6.67127 11.2824   2
  -1   1 -11 10.4907 12.3503   2
  -1   1 -12 17.0633 14.4692   2
   1   0 -13-14.0707 14.1052   2
   1   0 -12 4.37497 11.8438   2
   1   0 -11-8.04719 11.4539   2
  -1   0  11 8.67184 11.4180   0
   1   0 -10-0.88224 9.99366   2
  -1   0  10 21.8152 10.3812   0
   1   0  -9 124.533 11.8309   2
  -1   0   9 116.678 12.4478   0
   1   0  -8-0.13916 9.42421   2
  -1   0   8 4.76917 8.42947   0
  -1   0   8-3.81005 7.15355   1
   1   0  -8 4.30254 6.78013   5
  -1   0   7 18.7346 8.74677   0
   1   0  -7 24.9933 5.70408   6
   1   0  -7 23.6360 8.57445   2
  -1   0   7 28.0887 3.35030   1
   1   0  -7 21.5350 7.06315   5
   1   0  -6 22.2995 8.02012   2
  -1   0   6 20.1927 5.96617   1
  -1   0   6 7.52964 5.89689   0
   1   0  -6 11.6360 5.77610   5
   1   0  -6 15.6437 5.15572   6
   1   0  -5 240.162 7.25297   6
   1   0  -5 227.355 8.21056   5
   1   0  -5 247.155 9.84344   2
   1   0  -4 911.178 11.8833   5
  -1   0   4 987.394 13.5888   0
   1   0  -4 913.531 13.4729   2
   1   0  -4 908.628 10.2143   6
   1   0  -3 2848.10 17.8937   5
   1   0  -3 2938.47 19.3104   2
  -1   0   3 2949.59 18.3356   0
   1   0  -2 5015.22 19.1092   5
  -1   0   2 5083.08 18.7846   0
   1   0  -2 5037.13 20.3498   2
  -1   0  -1 645.784 8.78335   6
  -1   0  -1 726.025 8.68200   2
  -1   0  -2 2322.08 17.8365   2
  -1   0  -2 2303.42 18.0128   6
   1   0   3 47.5042 3.98407   3
  -1   0  -3 63.0721 7.09097   6
  -1   0  -3 66.9679 7.16204   2
   1   0   4 1.50918 3.36967   3
  -1   0  -4-6.14030 6.60479   6
  -1   0  -4 1.76630 7.00089   2
  -1   0  -5 74.9524 7.92914   2
  -1   0  -5 82.2382 8.22896   6
   1   0   6 10.0993 8.64608   0
  -1   0  -6 9.41352 6.94986   6
  -1   0  -6 4.07333 7.03366   2
  -1   0  -7 9.67191 8.61415   2
   1   0   7 1.39372 8.38563   0
  -1   0  -7 19.2560 8.26537   6
  -1   0  -8 0.32935 8.72249   6
  -1   0  -8 5.13829 10.1405   2
   1   0   8-0.35138 10.7510   0
  -1   0  -9 0.21574 10.9551   2
   1   0   9-11.1055 11.5536   0
  -1   0 -10 5.11250 12.2457   2
   1   0  10-32.5955 12.3474   0
  -1   0 -11 29.0355 14.0687   2
  -1   0 -12 35.1334 12.0942   2
   1   1 -13-19.3769 13.9454   2
   1   1 -12-5.60997 12.2220   2
   1   1 -11-3.82205 10.4526   2
   1   1 -10 9.71944 11.7618   2
  -1  -1  10-3.29353 9.15411   0
  -1  -1   9 134.928 10.2890   1
   1   1  -9 121.178 10.5841   5
  -1  -1   9 88.6423 11.4849   0
   1   1  -9 133.797 11.5490   2
  -1  -1   8 68.7692 9.27166   0
   1   1  -8 60.1605 10.1903   2
  -1  -1   8 66.4235 8.95171   1
   1   1  -8 57.0842 8.59720   5
   1   1  -7 6.01374 6.91967   5
  -1  -1   7-0.24477 7.16411   1
  -1  -1   7-2.65617 7.62677   0
   1   1  -7 16.9029 8.15510   2
  -1  -1   6 382.458 11.1724   0
   1   1  -6 442.512 12.5995   2
   1   1  -6 436.205 11.3095   5
  -1  -1   5 120.122 7.40187   0
   1   1  -5 122.354 7.75613   5
   1   1  -5 143.296 9.12932   2
   1   1  -4 255.002 9.42691   2
   1   1  -4 260.566 8.60085   5
  -1  -1   4 222.895 7.40444   0
   1   1  -3 3051.75 19.5188   5
   1   1  -3 2978.78 19.4912   2
  -1  -1   3 3104.21 14.9303   0
   1   1  -2 1269.11 10.8387   2
   1   1  -2 1255.79 11.6615   5
   1   1  -1 354.257 6.37800   3
   1   1   0 778.619 8.87392   3
   1   1   1 12640.7 32.8976   3
  -1  -1  -1 12533.2 31.6630   2
   1   1   2 13.8195 4.26797   3
  -1  -1  -2 17.6212 6.38139   6
  -1  -1  -2 10.8570 4.90831   2
   1   1   3 514.317 8.33529   3
  -1  -1  -3 508.896 11.9199   6
  -1  -1  -3 525.455 10.6790   2
  -1  -1  -4 172.834 9.39041   6
   1   1   4 165.997 5.85097   3
  -1  -1  -4 157.964 8.72287   2
  -1  -1  -5 120.317 8.71082   2
  -1  -1  -5 145.263 9.77889   6
   1   1   6-5.90418 8.95718   0
  -1  -1  -6 2.60895 7.46472   2
  -1  -1  -6 13.7384 7.90941   6
  -1  -1  -7 11.1274 9.41212   2
   1   1   7-7.86978 10.2857   0
  -1  -1  -7 7.80912 9.10881   6
  -1  -1  -8 3.10530 9.61747   2
   1   1   8-2.29035 12.1088   0
  -1  -1  -8-3.02170 8.24611   6
   1   1   9-1.09901 12.3167   0
  -1  -1  -9 21.7688 10.6761   2
   1   1  10 18.0200 14.3032   0
  -1  -1 -10-9.93703 10.3062   2
   1   1  11 28.6182 17.6591   0
   1   2 -13 28.7585 13.6790   2
   1   2 -12 4.87319 11.2500   2
   1   2 -11 4.46387 11.3183   2
   1   2 -10 80.9851 12.7684   2
  -1  -2  10 64.4296 11.0707   1
   1   2  -9 48.8029 9.83525   2
   1   2  -9 43.6143 9.68297   5
  -1  -2   9 48.5767 9.50085   1
  -1  -2   8 243.198 11.9668   1
  -1  -2   8 247.010 10.8321   0
   1   2  -8 242.748 12.7509   2
   1   2  -8 224.814 11.4076   5
   1   2  -7 415.003 13.5294   2
  -1  -2   7 417.998 11.2985   0
  -1  -2   7 419.854 12.7844   1
   1   2  -7 418.232 12.9271   5
   1   2  -6 2275.68 25.1983   2
   1   2  -6 2337.75 24.2748   5
  -1  -2   6 2349.66 20.6640   0
   1   2  -5 1475.04 17.8464   5
  -1  -2   5 1347.94 14.4135   0
   1   2  -5 1411.26 18.8789   2
   1   2  -4 491.639 6.82668   3
   1   2  -4 524.516 11.0223   5
  -1  -2   4 526.401 7.14843   0
   1   2  -4 507.858 10.9080   2
   1   2  -3 3876.33 18.9485   3
   1   2  -3 4053.78 22.0948   2
   1   2  -3 3955.66 17.7851   4
   1   2  -3 3866.69 23.2371   5
   1   2  -2 85.0643 5.14687   2
   1   2  -2 75.2320 6.03320   5
   1   2  -2 77.5149 5.80951   3
   1   2  -1 752.204 10.5174   3
   1   2  -1 791.283 9.02391   5
   1   2   0 2262.11 17.5619   3
  -1  -2  -1 1158.06 10.2276   2
   1   2   1 1231.59 13.6653   3
  -1  -2  -2 136.598 6.19510   2
   1   2   2 128.857 6.78078   3
  -1  -2  -3 172.383 7.49473   2
   1   2   3 131.401 6.44684   3
  -1  -2  -4 16.5195 7.86319   6
   1   2   4 15.3792 5.11594   3
  -1  -2  -4 14.4662 5.81333   2
   1   2   5 19.4182 9.08514   0
  -1  -2  -5 16.2342 8.54239   6
  -1  -2  -5 10.2123 6.87812   2
  -1  -2  -6 18.9061 8.04786   2
   1   2   6 13.3939 9.36376   0
  -1  -2  -6 27.1066 9.56810   6
   1   2   7 119.902 13.3177   0
  -1  -2  -7 122.309 11.3992   6
  -1  -2  -7 135.911 10.7062   2
   1   2   8 40.6827 13.4263   0
  -1  -2  -8 13.6150 10.5206   6
  -1  -2  -8 10.0287 10.1618   2
   1   2   9-0.07904 13.6516   0
   1   2  10 4.72364 14.6576   0
   1   2  11-10.6716 16.3965   0
   1   3 -13-7.51066 13.9491   2
   1   3 -12 1.00105 12.1874   2
   1   3 -11 21.2176 11.8508   2
  -1  -3  11 12.4526 11.2287   1
   1   3 -10-5.54377 9.64327   2
  -1  -3  10-6.44178 9.37944   1
   1   3 -10 15.2273 10.1707   5
  -1  -3   9-4.82362 8.41787   1
   1   3  -9-0.16351 9.08706   5
   1   3  -9 1.13543 9.94281   2
   1   3  -8 4.53802 8.23060   5
  -1  -3   8-3.15628 7.45214   1
   1   3  -8 4.53454 9.03144   2
  -1  -3   7 795.013 12.2970   0
   1   3  -7 725.796 16.4147   5
   1   3  -7 730.263 16.3637   2
   1   3  -6 53.7416 4.04520   3
  -1  -3   6 49.6732 4.72861   0
   1   3  -6 64.8434 8.08898   2
   1   3  -6 55.9800 8.17877   5
   1   3  -5 2915.25 21.4862   4
  -1  -3   5 2923.73 14.8096   0
   1   3  -5 2876.67 25.3388   2
   1   3  -5 2854.61 17.9168   3
   1   3  -5 2925.38 25.6656   5
   1   3  -4 175.465 7.63789   2
   1   3  -4 151.822 8.40948   5
   1   3  -4 161.209 6.48686   4
   1   3  -4 177.901 6.37511   3
   1   3  -3 252.232 7.37701   4
   1   3  -3 236.964 7.46676   3
   1   3  -3 260.197 7.29036   2
   1   3  -3 229.825 8.44785   5
   1   3  -2 4.38150 5.27003   5
   1   3  -2 0.82157 6.17061   3
   1   3  -2 4.23492 3.72381   2
   1   3  -1 421.929 10.5398   3
   1   3  -1 369.565 6.80275   5
   1   3   0 394.472 9.98584   3
   1   3   1 131.819 7.30542   3
  -1  -3  -1 131.937 4.56211   2
  -1  -3  -2 1.06728 4.33855   2
   1   3   2 13.0887 5.95569   3
   1   3   3 37.8809 6.23533   3
  -1  -3  -3 31.7049 5.09370   2
  -1  -3  -4 245.206 9.03057   2
   1   3   4 246.105 8.74578   3
   1   3   4 218.063 13.2364   0
   1   3   5 261.328 14.2446   0
  -1  -3  -5 253.825 10.1943   2
  -1  -3  -5 269.570 13.2724   6
   1   3   6 12.2798 10.4084   0
  -1  -3  -6 24.9962 10.0303   6
  -1  -3  -7 79.9852 11.7444   6
   1   3   7 91.0879 13.7716   0
  -1  -3  -8 36.6807 10.8765   6
   1   3   8 6.27895 12.9913   0
   1   3   9 3.74145 14.4996   0
   1   3  10 7.03839 16.7200   0
   1   4 -13 18.6589 13.4456   2
  -1  -4  12-7.99008 11.5226   1
   1   4 -12 3.98440 10.8053   2
  -1  -4  11 4.92088 10.2527   1
   1   4 -11-3.18186 11.9906   2
   1   4 -10 32.1880 10.6577   2
  -1  -4  10 25.4932 11.0580   1
   1   4 -10 41.7432 11.1999   5
  -1  -4   9 47.9740 9.71358   1
   1   4  -9 61.4113 9.99404   2
   1   4  -9 79.8923 11.0415   5
  -1  -4   8 13.3683 9.38375   1
   1   4  -8-3.04382 8.10509   2
   1   4  -8 3.41312 9.15582   5
   1   4  -7 597.633 12.7712   4
   1   4  -7 579.784 15.4035   5
   1   4  -7 566.186 15.3981   2
   1   4  -6 122.989 9.35795   5
   1   4  -6 115.995 8.25399   2
   1   4  -6 107.065 6.02160   3
   1   4  -6 127.255 7.21733   4
   1   4  -5 1002.13 13.3569   3
   1   4  -5 1080.13 17.6244   5
   1   4  -5 1026.60 15.9380   2
   1   4  -5 978.332 13.6663   4
   1   4  -4 47.2869 6.11475   4
   1   4  -4 49.8191 6.12082   3
   1   4  -4 49.5107 6.91250   5
   1   4  -4 46.2730 5.98952   2
   1   4  -3 77.2250 6.73839   5
   1   4  -3 70.3401 5.30756   2
   1   4  -3 80.9747 6.51985   3
   1   4  -2 32.4817 6.88459   3
   1   4  -2 38.6037 3.64420   2
   1   4  -2 36.5926 5.47935   5
   1   4  -1 129.516 5.57129   5
   1   4  -1 106.455 8.05922   3
   1   4   0 932.600 14.9875   3
   1   4   0 590.606 7.74389   5
  -1  -4  -1 3.70985 2.82167   2
   1   4   1 2.25844 6.90018   3
  -1  -4  -2 109.160 5.27768   2
   1   4   2 121.171 8.48854   3
   1   4   3 24.8763 7.25940   3
   1   4   3 24.4432 9.44241   0
   1   4   4 94.2034 10.5730   0
   1   4   4 95.7537 7.98628   3
  -1  -4  -5 213.089 13.6492   6
   1   4   5 186.852 14.7171   0
   1   4   6 26.5428 11.7584   0
  -1  -4  -6-2.78247 10.9338   6
   1   4   7-1.27815 16.6089   0
  -1  -4  -7-0.97977 10.2678   6
  -1  -4  -8 117.110 7.90116   6
   1   4   8 41.3679 14.9721   0
   1   4   9-6.21809 14.8611   0
  -1  -5  13 31.2145 12.1086   1
   1   5 -13-11.0140 12.2968   2
   1   5 -12 39.2525 12.4497   2
  -1  -5  12 28.5558 11.5341   1
   1   5 -11 13.8597 11.8885   2
  -1  -5  11 11.2911 11.4782   1
   1   5 -10 2.51706 10.2350   5
   1   5 -10 7.83539 11.1034   2
  -1  -5  10-5.33714 10.8324   1
  -1  -5   9 767.771 19.9919   1
   1   5  -9 757.418 20.2603   2
   1   5  -9 723.756 20.3960   5
   1   5  -8 73.0476 9.61626   2
   1   5  -8 60.6142 6.91270   4
   1   5  -8 74.0768 10.8356   5
   1   5  -7 108.713 7.50196   4
   1   5  -7 109.766 7.04270   3
   1   5  -7 129.772 9.81787   2
   1   5  -7 122.040 11.4141   5
   1   5  -6 8.06388 5.76499   3
   1   5  -6 8.10481 5.89762   4
   1   5  -6 5.92380 6.81400   2
   1   5  -6 9.30494 7.52846   5
   1   5  -5 309.672 9.65300   4
   1   5  -5 328.459 11.9589   5
   1   5  -5 314.210 9.83496   2
   1   5  -5 314.417 9.60520   3
   1   5  -4 156.098 8.39875   3
   1   5  -4 158.096 6.95037   2
   1   5  -4 156.120 9.08480   5
   1   5  -3 858.522 15.0082   3
   1   5  -3 869.645 14.2811   5
   1   5  -3 899.321 10.9164   2
   1   5  -2 95.4945 8.36357   3
   1   5  -2 99.2906 3.87113   2
   1   5  -2 93.0286 6.37697   5
   1   5  -1 3.61505 7.70846   3
   1   5  -1 6.17789 4.45271   5
   1   5   0 25.2932 6.99781   3
   1   5   1 505.410 13.4381   3
   1   5   1 595.725 14.8043   0
   1   5   2 126.858 9.15380   3
   1   5   2 128.587 11.0328   0
   1   5   3 4.70104 7.22596   3
   1   5   3-5.34229 10.3391   0
   1   5   4 1.67190 11.3284   0
   1   5   4-2.44223 7.22554   3
   1   5   5 8.90151 11.6332   0
  -1  -5  -6-2.54388 10.8258   6
   1   5   6 22.1220 12.3776   0
  -1  -5  -7 2.35926 11.7055   6
   1   5   7-3.54117 13.7105   0
   1   5   8 17.8822 16.2796   0
   1   5   9 29.7502 17.2512   0
  -1  -6  14 35.9840 14.9053   1
  -1  -6  13 59.4664 15.1438   1
   1   6 -13 74.7435 14.4296   2
   1   6 -12 25.4630 13.0989   2
  -1  -6  12 11.7962 12.3166   1
  -1  -6  11 81.9657 14.1663   1
   1   6 -11 96.7671 13.7845   2
   1   6 -10 11.1194 11.7538   5
   1   6 -10 19.4405 10.6943   2
  -1  -6  10 4.50131 11.8888   1
   1   6  -9 513.579 17.0330   2
  -1  -6   9 558.964 19.3698   1
   1   6  -9 613.238 19.3671   5
   1   6  -8 67.7119 10.3119   5
   1   6  -8 65.8686 9.81838   2
   1   6  -8 51.3684 7.65211   4
   1   6  -7 34.8969 9.85392   5
   1   6  -7 44.2185 8.38902   2
   1   6  -7 38.9062 6.64920   3
   1   6  -7 34.9604 6.96813   4
   1   6  -6 29.6310 6.48288   3
   1   6  -6 62.2889 9.29972   5
   1   6  -6 51.0293 7.05698   4
   1   6  -6 48.2044 7.06553   2
   1   6  -5 25.9357 7.20993   3
   1   6  -5 48.6384 6.59381   2
   1   6  -5 39.8904 8.02978   5
   1   6  -4-1.29699 5.00383   2
   1   6  -4-0.06521 6.96733   3
   1   6  -4 5.78066 6.88038   5
   1   6  -3 45.7584 5.17903   0
   1   6  -3 33.1586 7.45313   3
   1   6  -3 38.6631 7.00026   5
   1   6  -3 41.8899 4.49810   2
   1   6  -2 92.9874 6.80369   5
   1   6  -2 89.3485 8.77600   3
   1   6  -2 82.8524 6.85403   0
   1   6  -1 374.507 12.0273   3
   1   6  -1 353.384 11.2913   0
   1   6   0 17.4463 8.64031   3
   1   6   0 20.5104 8.08414   0
   1   6   1 10.4939 9.19588   0
   1   6   1 7.13258 8.09338   3
   1   6   2 17.2808 7.89279   3
   1   6   2 12.5396 9.19210   0
   1   6   3 27.1498 8.83454   3
   1   6   3 10.5005 11.4430   0
   1   6   4 4.36188 7.90837   3
   1   6   4 5.85369 10.7437   0
   1   6   5 17.4740 10.4395   0
  -1  -6  -6 47.2654 11.9387   6
   1   6   6 23.8966 13.5677   0
   1   6   7-9.48535 14.3046   0
  -1  -6  -7 38.0734 11.6997   6
   1   6   8 25.7372 17.0528   0
  -1  -7  14 1.36638 15.1928   1
  -1  -7  13 65.3064 19.6939   1
   1   7 -13 53.1397 14.3085   2
  -1  -7  12-8.20024 13.1399   1
   1   7 -12 3.33495 11.9459   2
   1   7 -11 168.987 15.0785   2
  -1  -7  11 181.799 15.9269   1
   1   7 -10 243.066 14.0557   2
  -1  -7  10 269.419 15.2940   1
   1   7  -9 70.0587 11.1273   5
  -1  -7   9 64.5711 12.1264   1
   1   7  -9 70.7604 11.2528   2
   1   7  -8 158.137 13.2488   5
   1   7  -8 143.232 11.2636   2
   1   7  -8 118.877 9.31511   4
   1   7  -7 9.93572 7.46583   2
   1   7  -7 1.43639 9.17984   5
   1   7  -7-2.67845 7.17677   3
   1   7  -7-3.01281 7.23836   4
   1   7  -6 199.251 10.4511   3
   1   7  -6 195.114 11.2167   5
   1   7  -6 189.353 9.30163   2
   1   7  -5 145.774 10.0590   3
   1   7  -5 155.617 7.64943   2
   1   7  -5 151.408 9.88868   5
   1   7  -4 12.6883 7.00045   3
   1   7  -4 15.3754 7.67456   5
   1   7  -3 2.12362 6.63743   5
   1   7  -3 6.68774 8.39727   3
   1   7  -2 65.3321 7.62493   0
   1   7  -2 59.4495 8.49914   3
   1   7  -1 373.167 13.5227   3
   1   7  -1 414.325 12.7677   0
   1   7   0 162.419 11.6685   3
   1   7   0 192.186 11.3985   0
   1   7   1 324.797 14.2066   0
   1   7   1 349.733 14.3007   3
   1   7   2 867.164 20.4400   3
   1   7   2 849.126 21.6506   0
   1   7   3-0.06333 11.2163   0
   1   7   3 11.7768 9.43702   3
   1   7   4 11.6098 11.9501   0
   1   7   5-5.07309 14.6728   0
   1   7   6 16.6911 15.7673   0
  -1  -7  -6 33.5021 12.9765   6
  -1  -7  -7-15.6571 11.9808   6
   1   7   7 2.22049 17.6264   0
  -1  -8  13-16.0958 12.6145   1
   1   8 -13-9.04189 11.9253   2
   1   8 -12 14.1216 10.4490   2
  -1  -8  12-21.2731 14.6002   1
   1   8 -11 25.9239 10.9037   2
  -1  -8  11 2.91618 14.1925   1
   1   8 -10 21.8607 10.2327   2
  -1  -8  10 51.1781 11.1042   1
  -1  -8   9 116.717 14.3814   1
   1   8  -9 105.252 11.7529   2
   1   8  -8 53.7067 9.21378   4
   1   8  -8 63.6896 11.6692   5
   1   8  -8 68.8085 9.55303   2
  -1  -8   8 57.2755 12.0063   1
   1   8  -7 350.900 13.5852   3
   1   8  -7 372.822 13.0810   2
   1   8  -7 378.883 15.3263   5
   1   8  -6 7.36149 8.74164   5
   1   8  -6 6.42976 7.99169   3
   1   8  -5 66.5335 9.63134   3
   1   8  -4 45.1236 9.47747   3
   1   8  -3-6.93320 8.93430   3
   1   8  -2 41.9800 9.40405   3
   1   8  -1 60.3840 13.4680   0
   1   8  -1 57.8856 9.72213   3
   1   8   0 135.243 11.4952   3
   1   8   0 157.859 11.7478   0
   1   8   1 26.3607 10.9108   0
   1   8   1 12.3167 8.98472   3
   1   8   2 240.947 14.3110   3
   1   8   2 194.985 14.4966   0
   1   8   3 22.5342 9.58842   3
   1   8   3 1.84301 11.7357   0
   1   8   4-44.3972 14.1891   0
   1   8   5-4.60238 12.3096   0
  -1  -8  -6 60.5223 15.4229   6
   1   8   6 6.95163 15.7419   0
  -1  -8  -7 25.6866 14.6530   6
  -1  -9  13 8.12844 15.5836   1
   1   9 -13 38.3395 13.8388   2
   1   9 -12 7.78894 11.9248   2
  -1  -9  12-24.7238 14.9186   1
  -1  -9  11-14.2632 13.1459   1
   1   9 -11 49.9190 10.2213   2
  -1  -9  10-2.48700 13.0802   1
   1   9 -10 8.07635 9.97131   2
  -1  -9   9-2.26257 12.8397   1
  -1  -9   8 17.2923 11.9244   1
   1   9  -7-24.7238 8.56843   3
   1   9  -6 422.573 15.6077   3
   1   9  -5 11.3036 9.09831   3
   1   9  -4 262.191 13.5703   3
   1   9  -3 26.2688 9.87109   3
   1   9  -2 310.551 15.2096   3
   1   9  -1 111.225 12.0402   3
   1   9   0 88.5093 11.3778   3
   1   9   0 94.1919 12.4255   0
   1   9   1 56.6141 12.8656   0
   1   9   1 89.9336 11.7163   3
   1   9   2 184.223 13.9068   3
   1   9   2 128.326 14.6848   0
   1   9   3 7.86770 12.6568   0
   1   9   3 13.5706 9.07139   3
   1   9   4-5.72160 15.2804   0
   1   9   5-12.0635 16.4191   0
   1  10 -13 76.7514 13.4105   2
  -1 -10  12 17.5391 15.4120   1
  -1 -10  11 2.31880 14.6185   1
  -1 -10  10-8.11801 13.2236   1
  -1 -10   9 15.1165 13.1590   1
   1  10  -8 32.0303 10.0742   3
  -1 -10   8 40.6391 11.5764   1
  -1 -10   7 11.8119 11.0757   1
   1  10  -7-36.5661 9.84546   3
  -1 -10   6 37.0457 11.4632   1
   1  10  -6 49.8978 10.2126   3
   1  10  -5 33.7622 10.9694   3
   1  10  -4 192.799 13.8599   3
   1  10  -3 79.5818 12.7363   3
   1  10  -2 19.4883 9.64444   3
   1  10  -1 12.8789 10.5739   3
   1  10   0 14.6246 10.2932   3
   1  10   1 13.9393 13.0221   0
   1  10   1 36.2127 11.0139   3
   1  10   2 10.3402 11.3175   3
   1  10   2 6.07644 12.2353   0
   1  10   3-3.71229 14.3179   0
   1  10   3-25.2428 10.9020   3
   1  10   4 20.2632 14.1676   0
  -1 -11  12 2.20904 13.6960   1
  -1 -11  11 8.98960 13.3829   1
  -1 -11  10-5.58945 12.9351   1
  -1 -11   9-26.9409 11.1602   1
   1  11  -8 0.00000 9.10172   3
  -1 -11   8-10.9995 12.4608   1
  -1 -11   7 79.1207 12.0975   1
   1  11  -7 94.0502 12.1999   3
  -1 -11   6 77.8996 11.7790   1
   1  11  -6 40.3398 11.7996   3
   1  11  -5-6.72100 11.2246   3
   1  11  -4 185.772 15.6686   3
   1  11  -3 1.28269 10.4029   3
   1  11  -2 0.00000 11.1941   3
   1  11  -1-12.2807 8.09259   3
   1  11   0 2.45170 11.6375   3
   1  11   1 31.2781 13.1437   3
   1  11   2 17.4919 11.9130   3
   1  11   2 9.68419 13.5474   0
   1  11   3 38.6831 15.6230   0
  -1 -12  11-33.5913 15.0049   1
  -1 -12  10 9.64623 13.0826   1
  -1 -12   9-0.24089 13.7384   1
   1  12  -8 31.2170 10.6726   3
  -1 -12   8-11.1073 10.3697   1
   1  12  -7 111.510 12.5828   3
   1  12  -6 82.9988 13.9221   3
   1  12  -5 86.9266 13.6526   3
   1  12  -4 45.7695 13.0841   3
   1  12  -3 9.51085 13.0074   3
   1  12  -2 33.6569 12.9010   3
   1  12  -1-12.5870 11.8565   3
   1  12   0 32.7614 12.3266   3
   1  12   1 26.0546 14.5710   3
  -1 -13  10-32.0353 16.5425   1
  -1 -13   9 11.4380 15.3686   1
   1  13  -8 34.8432 11.6395   3
   1  13  -7 11.8935 12.1304   3
   1  13  -6 12.5913 11.8868   3
   1  13  -5 18.8871 12.1479   3
   1  13  -4 7.84156 9.66112   3
   1  13  -3 19.1250 13.1533   3
   1  13  -2-4.95339 12.7847   3
   1  14  -8 45.5152 13.3096   3
   1  14  -7 14.9741 14.1274   3
  -2  14  -1 86.0069 13.5154   3
  -2  14  -2-9.07049 14.5412   3
  -2  14  -3 3.92229 12.5124   3
  -2  14  -4 26.6609 15.1198   3
  -2  14  -5 4.21458 12.7701   3
  -2  14  -6 40.6843 11.4034   3
  -2  14  -7 52.9459 12.1003   3
   2 -14   8 30.1194 14.2386   1
   2 -14   9 37.3799 15.8509   1
  -2  13   2 34.6922 12.6691   3
  -2  13   1 47.3988 11.0692   3
  -2  13   0 19.3548 11.1764   3
  -2  13  -1 35.1006 12.0823   3
  -2  13  -2 4.48813 9.70003   3
  -2  13  -3 42.6468 13.7648   3
  -2  13  -4 14.7501 10.7865   3
  -2  13  -5 39.2534 12.8503   3
  -2  13  -6 11.6353 10.3928   3
  -2  13  -7 24.6245 11.2261   3
   2 -13   7 64.3842 13.7014   1
   2 -13   8 89.6789 15.2723   1
   2 -13   9 77.2476 16.5444   1
  -2  13  -9 93.3752 15.7826   4
   2 -13  10 29.7150 15.3071   1
  -2  12   4-8.25585 15.4807   0
  -2  12   3 34.4734 12.3388   3
  -2  12   2 57.6451 12.0883   3
  -2  12   1 3.03556 11.1354   3
  -2  12   0 23.1082 12.4188   3
  -2  12  -1-0.79587 10.2548   3
  -2  12  -2 13.4903 11.3194   3
  -2  12  -3 59.7003 13.7204   3
  -2  12  -4 83.7781 12.5258   3
  -2  12  -5 17.7721 11.7633   3
  -2  12  -6 16.5141 13.2163   3
   2 -12   6 36.0215 10.4771   1
   2 -12   7 41.2215 14.6500   1
  -2  12  -7 12.9771 10.7985   3
  -2  12  -7 33.1866 11.9487   4
  -2  12  -8 6.39976 12.7694   4
   2 -12   8 29.9445 13.3341   1
  -2  12  -9 14.6472 12.5398   4
   2 -12   9-3.83468 12.5152   1
   2 -12  10 83.1551 17.2161   1
  -2  11   5-4.49918 15.2316   0
  -2  11   4 3.30791 13.0169   0
  -2  11   4 39.4641 11.6572   3
  -2  11   3 2.32086 10.0422   3
  -2  11   3 3.85814 12.0684   0
  -2  11   2 24.1040 11.5432   3
  -2  11   2 10.3771 12.7265   0
  -2  11   1-12.3589 9.73597   3
  -2  11   0 23.1717 11.2528   3
  -2  11  -1 57.4801 11.1904   3
  -2  11  -2-1.39604 11.1062   3
  -2  11  -3 17.9064 12.1773   3
  -2  11  -4 17.3808 11.0491   3
  -2  11  -5 3.65979 10.1465   3
   2 -11   5-10.1290 10.5607   1
  -2  11  -6 28.2147 11.3027   3
   2 -11   6 0.49924 10.4168   1
  -2  11  -6 14.0175 11.0458   4
  -2  11  -7 40.9182 11.6497   4
   2 -11   7 45.9756 12.1295   1
  -2  11  -7 58.2364 10.8304   3
   2 -11   8 71.6515 13.8877   1
  -2  11  -8 23.8605 11.4436   4
  -2  11  -9 66.0130 11.7552   4
   2 -11   9 50.1176 16.1814   1
   2 -11  10 44.9799 15.9784   1
   2 -11  11 42.9837 16.1084   1
  -2  11 -12-20.0820 14.1392   2
  -2  10   6 11.0055 15.2238   0
  -2  10   5 24.4399 15.5057   0
  -2  10   4 23.0395 10.7213   3
  -2  10   4 14.2591 13.1404   0
  -2  10   3 110.765 13.3964   3
  -2  10   3 142.719 17.1025   0
  -2  10   2 4.49509 12.2452   0
  -2  10   2 18.5670 10.3965   3
  -2  10   1 0.56612 9.71242   0
  -2  10   1 12.6005 10.5987   3
  -2  10   0 13.7502 10.3284   3
  -2  10  -1 23.8685 11.8867   3
  -2  10  -2 18.6182 10.8400   3
  -2  10  -3-2.35723 10.0321   3
   2 -10   3 27.8543 9.29115   1
  -2  10  -4 6.05521 10.1988   3
  -2  10  -4 10.6904 9.88346   4
   2 -10   4 8.72912 9.47528   1
   2 -10   5 16.8496 9.74776   1
  -2  10  -5 23.4475 9.44917   3
  -2  10  -5-4.44701 10.2687   4
  -2  10  -6 11.7573 9.92795   3
   2 -10   6 11.3367 9.85549   1
  -2  10  -6-10.7373 9.64039   4
  -2  10  -7-3.16322 9.92241   4
   2 -10   7 18.1790 12.2493   1
   2 -10   8 16.2659 11.6269   1
  -2  10  -8 18.0001 10.6102   4
  -2  10  -9 44.2122 10.8531   4
   2 -10   9 45.6499 14.1560   1
  -2  10  -9 24.2765 9.91550   2
   2 -10  10-0.54973 13.5559   1
  -2  10 -10 21.1561 11.5680   2
   2 -10  11 49.0904 15.8172   1
  -2  10 -11 31.4422 13.0212   2
  -2  10 -12-5.70300 15.1415   2
  -2   9   7 10.9576 16.9174   0
  -2   9   6-17.2091 13.5985   0
  -2   9   5 0.40228 14.2316   0
  -2   9   4 1.14097 13.7447   3
  -2   9   4-5.09057 12.4277   0
  -2   9   3 42.6969 10.1446   3
  -2   9   3-0.41295 10.7154   0
  -2   9   2 9.49331 10.0283   3
  -2   9   2 5.76127 10.1426   0
  -2   9   1 23.0506 9.39252   0
  -2   9   1 15.2664 10.2350   3
  -2   9   0 33.6432 11.0308   3
  -2   9   0 32.9131 13.1801   0
  -2   9  -1 16.3071 8.77701   3
   2  -9   2 126.311 9.84509   1
  -2   9  -2 120.203 11.1903   3
  -2   9  -3 16.8001 9.59566   3
   2  -9   3 21.9554 8.59005   1
  -2   9  -3 23.2756 10.3723   4
  -2   9  -4 156.864 11.6478   3
   2  -9   4 163.280 11.8509   1
  -2   9  -4 180.403 12.8783   4
  -2   9  -5 82.8650 10.1778   3
   2  -9   5 78.6008 10.9223   1
  -2   9  -5 72.1076 9.94210   4
  -2   9  -6-8.43046 8.75606   3
  -2   9  -6 2.47525 7.66281   2
   2  -9   6-0.02746 10.7527   1
  -2   9  -6-1.83579 9.05562   4
  -2   9  -7-2.07945 8.75376   2
  -2   9  -7 1.17922 9.06190   4
  -2   9  -8-3.44114 9.76948   2
  -2   9  -8 16.9005 8.50402   4
   2  -9   8-5.80698 10.3241   1
  -2   9  -9 36.8362 11.3548   2
   2  -9   9 66.1027 14.4282   1
  -2   9  -9 47.1915 10.6132   4
  -2   9 -10 36.3405 11.1467   2
   2  -9  10 41.1874 12.9892   1
   2  -9  11 0.65922 14.2845   1
  -2   9 -11 26.7446 12.5573   2
   2  -9  12-18.5549 15.7869   1
  -2   9 -12 24.1040 13.4301   2
  -2   8   8-5.85787 15.2194   0
  -2   8   7 8.79512 14.3578   0
  -2   8   6 97.0044 14.6690   0
  -2   8   5 31.6691 14.1609   0
  -2   8   4-6.91158 11.3287   0
  -2   8   4 14.3557 8.25187   3
  -2   8   3 4.53757 10.3245   0
  -2   8   3 1.69844 9.07099   3
  -2   8   2 29.9741 7.56948   3
  -2   8   2-3.61792 9.76807   0
  -2   8   1 72.7014 10.2933   3
  -2   8   1 69.8101 8.38006   0
  -2   8   0 16.7211 7.32962   0
  -2   8   0 28.7811 10.3368   3
   2  -8   1 5.22023 6.34289   1
  -2   8  -1-5.31983 6.88309   0
  -2   8  -1 5.12627 8.07826   3
   2  -8   2 136.601 9.21795   1
  -2   8  -2 132.135 11.0145   4
  -2   8  -2 100.338 10.7409   3
   2  -8   3 13.3840 7.98910   1
  -2   8  -3 2.75093 8.24559   3
  -2   8  -3 1.61094 8.31144   4
  -2   8  -4 1.60213 8.70017   3
   2  -8   4-0.33032 8.54714   1
  -2   8  -4 8.48669 6.93709   2
  -2   8  -4 5.85652 8.48261   4
  -2   8  -5 417.954 13.0016   2
   2  -8   5 430.314 15.3719   1
  -2   8  -5 422.422 14.0852   3
  -2   8  -5 406.278 14.8173   4
  -2   8  -6-1.64330 9.02400   4
  -2   8  -6-2.51611 7.99278   2
   2  -8   6-9.27309 9.51476   1
  -2   8  -6-3.02065 7.64366   3
  -2   8  -7 312.730 13.5735   2
   2  -8   7 336.030 15.3987   1
  -2   8  -7 324.563 14.4591   4
  -2   8  -8 290.753 14.6084   4
  -2   8  -8 271.729 14.3639   2
   2  -8   8 274.782 16.8726   1
  -2   8  -9 11.0775 10.1797   4
  -2   8  -9 23.0359 11.4917   2
   2  -8   9 14.5367 12.7617   1
  -2   8 -10 26.3893 12.4667   2
   2  -8  10 47.3075 14.4476   1
   2  -8  11 49.1339 15.4467   1
  -2   8 -11 4.18160 12.1849   2
   2  -8  12 80.6181 15.0983   1
  -2   8 -12-19.9720 13.1958   2
  -2   7   9-23.4032 16.3876   0
  -2   7   8 16.6455 12.5478   0
  -2   7   7-0.04098 12.4441   0
  -2   7   6 11.9296 11.9004   0
  -2   7   5 57.2465 9.72173   3
  -2   7   5 68.0764 12.2877   0
  -2   7   4 4.17569 8.43941   3
  -2   7   4 9.30105 9.75524   0
  -2   7   3 51.4068 10.0272   0
  -2   7   3 39.1346 9.34718   3
  -2   7   2 5.93941 8.24985   3
  -2   7   2-6.16570 9.05857   0
  -2   7   1 3.79190 8.16864   0
  -2   7   1-8.99629 9.17945   3
  -2   7   0 5.63677 9.16977   3
  -2   7   0 49.7063 7.09936   0
  -2   7  -1 60.7848 6.36517   0
  -2   7  -1 76.0931 10.1971   3
   2  -7   1 80.3741 7.07797   1
  -2   7  -2 646.464 10.7486   2
  -2   7  -2 600.343 15.6460   4
   2  -7   2 602.020 13.6249   1
  -2   7  -2 629.954 11.0593   0
  -2   7  -2 657.737 16.7717   3
  -2   7  -3 209.252 11.7391   3
   2  -7   3 209.621 10.9559   1
  -2   7  -3 213.968 8.49624   2
  -2   7  -3 176.969 10.1429   4
   2  -7   4 19.9907 8.47358   1
  -2   7  -4 10.9463 8.28095   3
  -2   7  -4 11.1288 7.29416   4
  -2   7  -4 15.9149 6.39987   2
  -2   7  -5 7.32882 7.93967   4
  -2   7  -5 3.39037 7.35773   3
   2  -7   5 6.29265 8.53214   1
  -2   7  -5 3.03299 7.40616   2
   2  -7   6 447.776 16.5357   1
  -2   7  -6 451.034 14.5783   2
  -2   7  -6 463.692 13.1953   3
  -2   7  -6 480.446 15.8591   4
  -2   7  -7-2.85766 10.0868   4
   2  -7   7 5.03787 11.6048   1
  -2   7  -7 0.11840 8.63755   2
   2  -7   8 67.7827 11.3918   1
  -2   7  -8 62.6335 11.4385   2
  -2   7  -9 49.5711 10.9155   2
   2  -7   9 75.5833 13.8197   1
  -2   7 -10 47.4243 12.7851   2
   2  -7  10 18.8780 13.4744   1
   2  -7  11-13.9051 13.0687   1
  -2   7 -11 20.5899 9.87028   2
  -2   7 -12 9.76443 12.3492   2
  -2   6  10-17.6765 16.3571   0
  -2   6   9 15.3333 13.2702   0
  -2   6   8-1.57718 13.3489   0
  -2   6   7 73.5931 13.8830   0
  -2   6   6-2.18748 10.4126   0
  -2   6   5 27.7887 8.09652   3
  -2   6   5 19.7849 10.5648   0
  -2   6   4 10.7464 7.84354   3
  -2   6   4-2.79256 8.75021   0
  -2   6   3 16.1297 8.52461   3
  -2   6   3 15.2749 9.27065   0
  -2   6   2 35.7479 9.06018   3
  -2   6   2 27.9674 8.85012   0
  -2   6   1 80.6297 9.26763   0
  -2   6   1 218.467 12.0809   3
  -2   6   0 311.743 9.68929   0
  -2   6   0 241.664 12.7230   3
  -2   6  -1 2277.82 24.4936   4
  -2   6  -1 2262.26 26.1445   3
   2  -6   1 2194.50 20.5233   1
  -2   6  -1 2158.58 15.8408   2
  -2   6  -1 2086.92 18.9910   0
  -2   6  -2 198.862 10.7856   3
  -2   6  -2 179.888 7.18001   2
   2  -6   2 181.253 9.56695   1
  -2   6  -2 186.629 6.44110   0
  -2   6  -2 191.759 10.1474   4
  -2   6  -3 456.113 13.1994   3
  -2   6  -3 441.344 10.8117   2
  -2   6  -3 480.523 7.63264   0
  -2   6  -3 410.693 12.2137   4
   2  -6   3 426.626 12.8108   1
  -2   6  -4 66.0587 8.52199   4
  -2   6  -4 72.7344 7.97628   3
   2  -6   4 61.2819 9.73538   1
  -2   6  -4 72.7295 8.08488   2
  -2   6  -5 68.4916 7.41769   3
   2  -6   5 57.6827 10.3011   1
  -2   6  -5 71.3360 8.01329   2
  -2   6  -6 7.54328 8.17972   2
   2  -6   6 2.13574 10.2709   1
   2  -6   7 129.514 12.5484   1
  -2   6  -7 108.013 11.4815   2
   2  -6   8 19.7217 12.1623   1
  -2   6  -8 12.7360 10.1248   2
   2  -6   9 265.565 16.2028   1
  -2   6  -9 268.496 14.9809   2
  -2   6 -10-5.48922 11.4238   2
   2  -6  10 2.16978 11.8922   1
   2  -6  11-0.73143 12.9374   1
  -2   6 -11-0.04102 13.0708   2
  -2   6 -12 25.9521 13.6149   2
  -2   5  11 35.7078 17.6999   0
  -2   5  10-12.1748 21.3337   0
  -2   5   9-0.16848 13.6082   0
  -2   5   8 10.3952 11.3210   0
  -2   5   7 9.65559 10.7872   0
  -2   5   6 11.8295 10.9083   0
  -2   5   5 11.9137 9.47271   0
  -2   5   5 24.2703 7.04889   3
  -2   5   4 3.05210 9.46309   0
  -2   5   4-0.74968 6.87778   3
  -2   5   3 82.6974 10.7380   0
  -2   5   3 29.9617 10.3938   3
  -2   5   2 428.678 12.6495   3
  -2   5   2 360.096 12.0430   0
  -2   5   1-0.42749 6.74110   0
  -2   5   1 7.36583 7.34966   3
  -2   5   0 797.204 14.7800   4
  -2   5   0 908.527 13.5689   0
  -2   5   0 897.273 16.7629   3
  -2   5  -1 247.812 9.92255   4
  -2   5  -1 223.876 6.72164   0
  -2   5  -1 211.336 6.53294   2
   2  -5   1 212.359 8.19519   1
  -2   5  -2 2336.73 15.1062   0
   2  -5   2 2216.16 21.9112   1
  -2   5  -2 2269.33 23.0519   4
  -2   5  -2 2303.93 19.2485   2
  -2   5  -3 23.4988 7.99457   4
   2  -5   3 26.4003 6.96193   1
  -2   5  -3 31.3751 3.80268   0
  -2   5  -3 29.0712 6.50051   2
  -2   5  -4 70.5417 7.89901   2
   2  -5   4 68.8859 9.21924   1
  -2   5  -5 29.5945 6.21396   3
   2  -5   5 24.8878 7.74958   1
  -2   5  -5 22.7375 8.66658   2
   2  -5   6 40.5699 8.97049   1
  -2   5  -6 14.7517 7.30276   2
  -2   5  -7 5.48624 9.92292   2
   2  -5   7 15.3615 10.4941   1
   2  -5   8 117.670 12.5928   1
  -2   5  -8 89.1225 11.5240   2
   2  -5   9 155.592 14.0887   1
  -2   5  -9 100.524 13.4400   2
  -2   5 -10-6.44698 12.6215   2
   2  -5  10 9.13263 12.2516   1
  -2   5 -11-0.90572 13.4113   2
  -2   5 -12 46.8210 15.4789   2
  -2   4  11-8.87894 15.7336   0
  -2   4  10 24.9791 13.9724   0
  -2   4   9 27.9257 13.8188   0
  -2   4   8 15.4486 13.0358   0
  -2   4   7 26.1753 11.4428   0
  -2   4   6 1.33613 8.67358   0
   2  -4  -6 1.47683 7.11765   2
  -2   4   5 11.6788 8.58583   0
  -2   4   5 43.0150 7.11876   3
   2  -4  -5 34.8837 5.93353   2
  -2   4   4 376.613 11.1113   3
   2  -4  -4 312.185 9.10738   2
  -2   4   4 281.263 12.0937   0
   2  -4  -3 12.5242 4.73174   2
  -2   4   3-2.10381 6.84557   3
  -2   4   3 0.14423 7.36479   0
  -2   4   2-0.05264 7.40648   0
  -2   4   1 743.693 12.4951   0
  -2   4   0 862.780 12.8285   4
  -2   4   0 876.713 11.6506   0
  -2   4  -1 0.81979 4.27960   0
  -2   4  -1 2.83483 4.58464   2
  -2   4  -1 2.63719 6.93087   4
   2  -4   1 8.26965 6.53648   1
  -2   4  -2 112.393 6.96293   2
  -2   4  -2 111.172 4.88538   0
   2  -4   2 120.777 7.99978   1
   2  -4   3 56.7905 8.72220   1
  -2   4  -3 61.1532 4.89753   0
  -2   4  -3 70.0070 7.47116   2
  -2   4  -4-3.95841 7.83054   2
   2  -4   4-3.61228 6.70043   1
  -2   4  -5 267.998 11.9762   2
   2  -4   5 254.410 12.1900   1
   2  -4   6 49.5884 9.51322   1
  -2   4  -6 30.6089 7.13598   2
   2  -4   7 8.72854 8.32494   1
  -2   4  -7 18.8088 8.43059   2
  -2   4  -8 78.7311 11.9969   2
   2  -4   8 79.8669 11.2534   1
  -2   4  -9 182.673 14.7064   2
  -2   4 -10 23.9067 11.2697   2
  -2   4 -11 20.0623 11.8527   2
  -2   4 -12-20.4672 12.3758   2
  -2   3  12 31.9383 16.9592   0
  -2   3  11-7.41464 15.7244   0
  -2   3  10 11.7952 12.1741   0
   2  -3  -9-6.29795 9.38072   2
  -2   3   9 6.69679 11.7737   0
  -2   3   8-1.03869 10.5498   0
   2  -3  -8 3.21341 8.15396   2
  -2   3   7 250.528 14.9617   0
   2  -3  -7 275.649 10.9855   6
   2  -3  -7 299.060 11.9199   2
   2  -3  -6 0.40933 6.70018   2
  -2   3   6 10.8472 8.90072   0
   2  -3  -5 124.545 6.46622   5
  -2   3   5 102.725 7.80314   3
  -2   3   5 145.967 11.2606   0
   2  -3  -5 147.449 8.00058   2
   2  -3  -4 12.5561 4.45256   5
  -2   3   4 19.0085 5.88950   3
  -2   3   4 20.4275 7.87753   0
   2  -3  -4 10.8697 5.62280   2
  -2   3   3 551.852 12.9136   0
   2  -3  -3 506.243 9.36129   2
  -2   3   2 3.40372 6.24566   0
   2  -3  -2 18.4462 4.17509   2
  -2   3   1 1785.07 17.4120   0
  -2   3   1 1893.79 15.9145   4
  -2   3   0 7343.50 28.1916   0
  -2   3   0 7448.06 31.2941   4
  -2   3  -1 388.309 7.44224   0
  -2   3  -2 359.396 7.22014   0
   2  -3   2 349.066 10.0093   1
  -2   3  -2 349.880 9.28872   2
   2  -3   3 16.0976 6.99338   1
  -2   3  -3 2.68268 5.25824   0
  -2   3  -3 4.30016 7.32076   2
   2  -3   4 125.941 9.69911   1
  -2   3  -4 122.529 8.27778   2
   2  -3   5 129.060 9.86173   1
  -2   3  -5 121.384 9.86417   2
   2  -3   6 80.1409 9.29925   1
  -2   3  -6 49.5337 9.93185   2
   2  -3   7 15.1349 8.98729   1
  -2   3  -7 6.88376 9.75813   2
  -2   3  -8 130.688 11.6084   2
  -2   3  -9 36.4554 11.3944   2
  -2   3 -10 11.4248 13.6722   2
  -2   3 -11 6.50787 13.8376   2
  -2   3 -12 23.0882 14.6470   2
  -2   2  12 10.1212 14.9555   0
   2  -2 -11 21.6896 11.4172   2
  -2   2  11-1.89779 14.3649   0
   2  -2 -10-11.0538 10.2346   2
  -2   2  10 16.0630 12.8275   0
  -2   2   9 37.7605 12.2835   0
   2  -2  -9 30.7795 9.78949   2
   2  -2  -8 25.5210 8.98953   2
  -2   2   8 19.4912 10.5830   0
  -2   2   7 5.25140 9.59845   0
   2  -2  -7 50.6610 6.94575   6
   2  -2  -7 71.9714 8.93867   2
  -2   2   6 19.3448 8.77373   0
   2  -2  -6 98.1260 6.86891   5
   2  -2  -6 98.2052 6.90629   6
   2  -2  -6 106.505 8.44707   2
   2  -2  -5 5.02447 4.87163   5
  -2   2   5 14.6318 7.65668   0
   2  -2  -5 8.67389 6.63241   2
  -2   2   5 10.4250 5.13934   3
   2  -2  -4 359.828 7.98387   5
   2  -2  -4 348.632 9.24149   2
   2  -2  -3 265.769 7.75483   2
  -2   2   3 239.386 9.65263   0
  -2   2   2 323.211 8.48766   0
   2  -2  -2 318.182 7.32442   2
  -2   2   1 1998.35 13.7801   4
  -2   2   1 1932.35 15.3284   0
  -2   2   0 6744.86 23.8669   0
  -2   2  -1 8.87582 5.07408   0
  -2   2  -2 971.619 11.9700   0
  -2   2  -2 871.827 13.7537   2
  -2   2  -3 27.1994 7.98837   2
  -2   2  -4 131.855 9.20007   2
  -2   2  -5 228.978 11.8451   2
  -2   2  -6 29.8502 8.47278   2
  -2   2  -7-4.75638 8.03621   2
   2  -2   8 133.313 12.6205   0
  -2   2  -8 213.268 13.7973   2
  -2   2  -9 4.37332 10.7411   2
  -2   2 -10 7.44566 12.1458   2
  -2   2 -11 46.3372 13.6147   2
  -2   2 -12-0.09453 13.4645   2
   2  -1 -13 47.5473 13.8013   2
  -2   1  12 10.8951 12.9969   0
   2  -1 -12 23.4876 12.6185   2
  -2   1  11 22.1817 12.6204   0
   2  -1 -11 65.1311 12.0388   2
   2  -1 -10 1.08712 9.66424   2
  -2   1  10 25.4664 12.1374   0
   2  -1  -9 675.713 18.5973   2
  -2   1   9 622.912 20.5679   0
  -2   1   8 38.5698 10.5100   0
   2  -1  -8 30.9973 9.50115   2
   2  -1  -7 49.2882 5.45694   6
  -2   1   7 43.0227 9.87676   0
   2  -1  -7 57.1144 9.13513   2
   2  -1  -7 58.1883 6.70469   5
  -2   1   6 400.106 7.43036   3
   2  -1  -6 507.178 11.1421   5
  -2   1   6 324.290 12.5153   0
   2  -1  -6 484.121 12.7978   2
   2  -1  -6 465.867 9.34518   6
   2  -1  -5 13.4662 6.79782   2
  -2   1   5-0.42249 7.41412   0
   2  -1  -5 4.04498 4.16794   6
   2  -1  -5 4.62549 5.80344   5
  -2   1   4 357.453 10.7570   0
   2  -1  -4 382.737 10.2690   2
   2  -1  -4 348.435 8.45983   5
  -2   1   3 333.261 8.98490   0
   2  -1  -3 323.327 8.24687   2
  -2   1   2 193.958 7.61573   0
   2  -1  -2 223.934 6.59714   2
  -2   1   1 2726.62 17.0110   0
  -2   1   0 967.967 10.3390   0
  -2   1  -1 2.53818 5.86816   0
  -2   1  -1-4.49110 6.65411   6
  -2   1  -2 440.680 10.7920   6
  -2   1  -2 467.356 10.0240   2
  -2   1  -3 173.556 8.88688   2
  -2   1  -3 170.062 8.60192   6
  -2   1  -4 182.417 9.55621   2
  -2   1  -4 194.444 9.64642   6
  -2   1  -5 290.268 11.3731   6
  -2   1  -5 294.967 12.0994   2
  -2   1  -6 309.371 12.5375   6
  -2   1  -6 308.114 12.5748   2
  -2   1  -7 110.648 10.1953   6
  -2   1  -7 129.956 11.8442   2
   2  -1   8 22.7668 11.6671   0
  -2   1  -8 94.7806 10.8543   2
   2  -1   9 4.98987 10.6232   0
  -2   1  -9 4.04526 11.4097   2
  -2   1 -10 21.8784 12.0895   2
  -2   1 -11 6.91035 12.6693   2
  -2   1 -12 15.7657 15.5631   2
   2   0 -13 48.8251 14.4654   2
   2   0 -12 72.3918 12.5372   2
  -2   0  11 8.00443 11.7362   0
   2   0 -11 9.40167 12.0584   2
   2   0 -10-5.87620 10.7445   2
  -2   0  10-0.05605 9.96376   0
   2   0  -9 141.167 12.5922   2
   2   0  -9 128.486 10.4835   5
  -2   0   9 100.569 11.6512   0
  -2   0   8 126.468 9.02601   1
  -2   0   8 123.798 10.2381   0
   2   0  -8 130.607 10.1335   2
   2   0  -8 118.531 9.06295   5
   2   0  -7 2.54106 6.94405   5
   2   0  -7 11.3792 7.13686   2
   2   0  -7-6.05392 3.95877   6
  -2   0   7-0.96120 7.60884   0
  -2   0   6 19.6204 7.61191   0
   2   0  -6 42.5662 4.18972   6
   2   0  -6 32.1845 7.31536   2
   2   0  -6 36.7792 6.80887   5
   2   0  -5 551.203 7.01053   6
  -2   0   5 549.876 11.5288   0
   2   0  -5 505.406 11.6555   2
   2   0  -5 513.192 11.3858   5
   2   0  -4 1370.63 14.7516   5
   2   0  -4 1339.46 16.2315   2
  -2   0   4 1341.51 14.5739   0
   2   0  -3 5.91163 6.31788   2
  -2   0   3 8.83839 5.48890   0
   2   0  -3 9.68556 5.89250   5
   2   0  -2 2415.94 15.1945   3
   2   0  -2 2381.72 15.7071   2
  -2   0   2 2466.11 15.4874   0
   2   0  -1 6340.12 24.9220   3
  -2   0   1 6405.88 23.0836   0
  -2   0   0 6007.63 25.7745   0
  -2   0   0 5905.59 24.8416   6
   2   0   0 5934.49 25.1240   3
  -2   0  -1 141.601 7.45223   6
   2   0   1 143.809 6.59709   3
  -2   0  -1 161.639 6.92861   2
   2   0   2 2391.82 17.0947   3
  -2   0  -2 2402.25 21.6022   6
  -2   0  -2 2451.26 20.3652   2
  -2   0  -3 36.1583 6.54734   2
  -2   0  -3 30.1797 7.59098   6
   2   0   3 41.4593 5.19107   3
  -2   0  -4 161.434 9.84073   6
   2   0   4 191.579 6.64641   3
  -2   0  -4 166.913 9.28675   2
  -2   0  -5 2.65871 7.69207   6
  -2   0  -5-0.03691 7.32453   2
  -2   0  -6 8.21860 8.77762   6
  -2   0  -6 10.4847 8.70470   2
  -2   0  -7 160.638 11.6005   6
   2   0   7 172.402 13.1467   0
  -2   0  -7 173.450 11.8471   2
  -2   0  -8-2.74705 9.39923   2
   2   0   8 2.54000 11.4711   0
  -2   0  -8-4.88985 9.24738   6
  -2   0  -9 12.1108 11.4999   2
   2   0   9-1.69180 12.6540   0
   2   0  10-15.9081 13.5026   0
  -2   0 -10 17.7920 11.8617   2
  -2   0 -11 0.29916 11.9225   2
   2   1 -13 17.4194 13.7921   2
   2   1 -12 13.1587 11.2157   2
   2   1 -11-4.27032 11.6428   2
   2   1 -10 7.87868 8.59223   5
   2   1 -10 22.3855 9.78508   2
  -2  -1  10 9.85115 9.22647   0
  -2  -1   9 291.726 12.5896   1
  -2  -1   9 324.760 13.4704   0
   2   1  -9 301.734 14.8440   2
   2   1  -9 300.197 11.5563   5
   2   1  -8 121.417 9.08419   5
   2   1  -8 108.042 9.40862   2
  -2  -1   8 121.772 8.57030   0
  -2  -1   7 105.017 8.80992   0
   2   1  -7 160.332 8.92128   5
   2   1  -7 149.624 9.95638   2
   2   1  -6-0.12354 6.70081   5
   2   1  -6 23.1639 7.53963   2
  -2  -1   6 2.69097 5.71077   0
   2   1  -5 31.1410 6.56389   5
  -2  -1   5 24.4906 5.09209   0
   2   1  -5 24.9420 7.01339   2
   2   1  -4 1342.36 16.1049   2
   2   1  -4 1423.55 12.1159   3
  -2  -1   4 1498.57 13.2739   0
   2   1  -4 1378.65 16.1328   5
   2   1  -3 46.3301 6.55442   5
   2   1  -3 56.4873 5.47319   3
   2   1  -3 58.1098 6.60396   2
  -2  -1   3 58.9647 4.99568   0
  -2  -1   2 691.675 8.46131   0
   2   1  -2 619.494 9.51829   3
   2   1  -2 631.330 9.07091   2
   2   1  -1 3088.82 19.1131   3
  -2  -1   1 2927.61 19.3002   0
  -2  -1   0 526.757 10.5278   0
   2   1   0 490.225 10.0210   3
  -2  -1  -1 462.305 8.79571   2
   2   1   1 459.986 9.31149   3
  -2  -1  -1 464.975 11.1409   6
   2   1   2 1201.80 13.6647   3
  -2  -1  -2 1254.05 15.0474   2
  -2  -1  -2 1222.94 17.4472   6
  -2  -1  -3 1131.24 18.3488   6
  -2  -1  -3 1143.07 16.1018   2
   2   1   3 1122.42 13.6509   3
   2   1   4 209.349 7.33654   3
  -2  -1  -4 201.884 9.71552   2
  -2  -1  -4 218.543 11.3832   6
  -2  -1  -5 278.405 12.6050   6
  -2  -1  -5 287.764 11.8411   2
  -2  -1  -6 33.2125 9.51207   6
  -2  -1  -6 40.9765 7.18414   2
  -2  -1  -7 90.7409 11.1755   6
  -2  -1  -7 101.188 11.3110   2
   2   1   7 91.4642 13.4360   0
  -2  -1  -8-1.53840 9.14815   6
   2   1   8 1.36735 10.8614   0
  -2  -1  -8 2.88593 9.26104   2
   2   1   9 3.23148 12.6389   0
  -2  -1  -9-0.43705 10.7362   2
   2   1  10 7.89273 10.8059   0
   2   1  11-6.81200 13.6849   0
   2   2 -14-0.43853 14.4976   2
   2   2 -13-11.0319 13.9560   2
   2   2 -12 15.6047 11.0836   2
  -2  -2  11 0.66847 10.1870   1
   2   2 -11 8.90553 10.5349   5
   2   2 -11 5.90932 11.4491   2
  -2  -2  10-6.15356 9.42612   1
   2   2 -10 14.8491 10.6572   2
   2   2 -10-4.83474 9.12452   5
   2   2  -9 6.97937 8.63773   2
   2   2  -9-2.69153 8.35040   5
   2   2  -8 2.36182 8.45217   2
  -2  -2   8 5.94711 6.25489   0
   2   2  -8 0.40532 7.73205   5
   2   2  -7 29.6293 7.53068   2
   2   2  -7 38.4839 7.87176   5
  -2  -2   7 38.9867 6.16881   0
   2   2  -6-3.27594 3.76662   3
   2   2  -6 0.57094 7.73863   2
  -2  -2   6-0.65153 4.65925   0
   2   2  -6-3.87447 6.89490   5
   2   2  -5 120.628 5.29283   3
  -2  -2   5 129.575 5.61023   0
   2   2  -5 122.281 8.48070   2
   2   2  -5 124.522 8.37088   5
   2   2  -5 122.170 4.43463   4
   2   2  -4 303.015 9.43619   5
   2   2  -4 284.366 7.28725   3
   2   2  -4 298.292 8.59359   2
  -2  -2   4 292.922 6.47813   0
   2   2  -3 8.88340 5.66557   2
   2   2  -3 15.2497 6.22799   5
  -2  -2   3 19.1782 4.06393   0
   2   2  -3 15.3768 5.84135   3
   2   2  -2 496.582 10.2217   3
  -2  -2   2 462.882 8.72083   0
   2   2  -2 583.669 9.86744   5
  -2  -2   1 96.2793 7.04549   0
   2   2  -1 85.4263 7.36711   3
   2   2   0 424.236 9.80016   3
   2   2   1 78.3300 7.07035   3
  -2  -2  -1 56.6349 5.13374   2
   2   2   2 1.55298 5.60895   3
  -2  -2  -2 0.62815 5.21977   2
   2   2   3 126.680 7.57234   3
  -2  -2  -3 131.879 10.4741   6
  -2  -2  -3 126.182 7.72606   2
   2   2   4 57.8794 6.42225   3
  -2  -2  -4 63.7651 10.0940   6
  -2  -2  -4 66.8085 7.64087   2
  -2  -2  -5 219.807 12.8940   6
  -2  -2  -5 213.790 10.5748   2
   2   2   6 111.807 12.8164   0
  -2  -2  -6 157.498 12.8880   6
  -2  -2  -6 127.115 10.4626   2
  -2  -2  -7 3.34844 8.74690   2
   2   2   7 12.3312 12.8576   0
  -2  -2  -8-6.52712 9.45967   6
   2   2   8 8.64561 12.8055   0
   2   2   9 9.53854 14.5774   0
   2   3 -14 16.9793 15.4243   2
   2   3 -13-9.38203 12.3227   2
  -2  -3  12-20.0198 10.6946   1
   2   3 -12 12.1337 12.3030   5
   2   3 -12-4.67009 12.2446   2
   2   3 -11 17.0999 11.7385   2
  -2  -3  11-10.5723 10.0012   1
   2   3 -11 10.8932 9.83070   5
   2   3 -10 67.2186 11.8229   2
  -2  -3  10 52.1724 11.3843   1
   2   3 -10 40.8807 10.4618   5
   2   3  -9 39.4552 9.44455   2
   2   3  -9 46.0991 9.44134   5
   2   3  -8 87.3917 9.82984   5
   2   3  -8 102.877 9.84138   2
   2   3  -7 167.247 6.58704   4
   2   3  -7 147.775 9.38884   5
  -2  -3   7 166.627 6.39978   0
   2   3  -7 171.589 10.8730   2
   2   3  -6 319.598 11.6391   5
   2   3  -6 265.078 6.98767   4
   2   3  -6 287.791 7.53756   3
  -2  -3   6 310.018 7.09873   0
   2   3  -6 303.439 11.2179   2
   2   3  -5 2291.82 17.0512   4
  -2  -3   5 2557.83 14.6186   0
   2   3  -5 2455.57 24.1154   5
   2   3  -5 2489.72 23.2914   2
   2   3  -5 2418.00 19.1677   3
   2   3  -4 8.28846 5.84731   2
   2   3  -4 7.51837 5.61398   3
   2   3  -4 7.83186 6.34496   5
  -2  -3   4 7.15981 3.25043   0
  -2  -3   3 62.5680 5.23720   0
   2   3  -3 94.0439 5.96117   2
   2   3  -3 111.575 7.50402   5
   2   3  -3 97.8658 7.20385   3
   2   3  -2 124.415 6.37543   5
   2   3  -2 107.025 7.94032   3
   2   3  -1 41.5482 7.12849   3
   2   3  -1 50.0372 4.79453   5
   2   3   0 29.0939 3.42139   5
   2   3   0 24.0297 6.85550   3
  -2  -3  -1-1.35591 4.56521   2
   2   3   1-0.80223 6.42780   3
   2   3   2 406.593 11.1810   3
  -2  -3  -2 423.053 9.40063   2
   2   3   3 26.7929 6.50679   3
  -2  -3  -3 26.9488 6.37686   2
  -2  -3  -4 20.4513 10.0175   6
   2   3   4 20.8012 7.01045   3
  -2  -3  -4 41.7990 6.52349   2
   2   3   5 95.7855 12.9669   0
  -2  -3  -5 118.688 12.1024   6
   2   3   6 37.7956 12.7163   0
  -2  -3  -6 55.9930 11.5699   6
   2   3   7 9.85103 12.3751   0
  -2  -3  -7-1.69458 11.5773   6
   2   3   8-1.28955 14.3193   0
  -2  -3  -8-44.2745 10.9808   6
   2   3   9 4.74836 16.6190   0
   2   4 -14 34.9984 14.4262   2
  -2  -4  13-0.03670 11.6555   1
   2   4 -13-13.9871 14.1719   2
   2   4 -12 12.0174 11.7444   5
  -2  -4  12-11.9424 10.6640   1
   2   4 -12 13.5008 13.1959   2
   2   4 -11 7.89073 11.2881   2
   2   4 -11 7.11249 10.4593   5
  -2  -4  11-7.14947 9.57595   1
   2   4 -10 201.783 13.7055   5
   2   4 -10 219.549 14.4221   2
   2   4  -9 325.601 15.1172   2
   2   4  -9 353.503 14.6401   5
   2   4  -8 49.2978 9.84909   2
   2   4  -8 36.2515 9.16049   5
   2   4  -7 82.7131 5.95466   4
   2   4  -7 80.3509 8.92147   2
   2   4  -7 73.7865 5.82751   3
   2   4  -7 96.7109 9.12033   5
   2   4  -6 89.6202 6.03163   4
   2   4  -6 99.2260 6.74673   3
   2   4  -6 90.1144 8.69806   5
   2   4  -6 90.9094 8.25619   2
   2   4  -5 9.89868 5.91984   3
  -2  -4   5 6.76302 2.74071   0
   2   4  -5 8.49962 7.43019   5
   2   4  -5 3.18213 6.72055   2
   2   4  -4 116.006 8.09303   3
   2   4  -4 78.3962 7.40741   5
  -2  -4   4 87.2888 4.66511   0
   2   4  -4 97.0619 6.68712   2
   2   4  -3 202.935 8.43234   5
   2   4  -3 198.232 6.85605   2
   2   4  -3 179.634 8.98595   3
   2   4  -2 231.958 7.33142   5
   2   4  -2 196.441 10.2657   3
   2   4  -1 165.438 9.12763   3
   2   4  -1 142.206 5.63509   5
   2   4   0 96.4053 8.06956   3
   2   4   0 74.0765 3.75221   5
  -2  -4   0 87.5944 4.25309   2
   2   4   1 46.8057 7.57398   3
  -2  -4  -1 46.4840 4.52917   2
   2   4   2 12.9059 7.03708   3
   2   4   3 3.11846 6.56718   3
  -2  -4  -4 50.8025 14.8784   6
  -2  -4  -5 156.366 13.7824   6
   2   4   5 139.715 13.4015   0
  -2  -4  -6 31.5526 11.5692   6
   2   4   6 26.9046 12.4927   0
  -2  -4  -7-15.2433 11.2142   6
   2   4   7 0.24529 14.6277   0
  -2  -4  -8 23.9661 11.6501   6
   2   4   8 11.2254 15.5798   0
   2   5 -14 26.7419 13.4324   2
  -2  -5  14 40.6621 16.0679   1
  -2  -5  13-12.0456 12.1170   1
   2   5 -13 4.12350 13.5083   2
   2   5 -12-0.78728 11.6838   2
  -2  -5  12-9.97502 11.5793   1
   2   5 -12 21.4150 12.2669   5
   2   5 -11 15.6480 10.9191   2
  -2  -5  11 40.7764 11.4884   1
   2   5 -11 29.2782 12.2464   5
   2   5 -10 18.2331 11.4113   2
   2   5 -10 12.8565 10.3842   5
   2   5  -9 14.8814 10.0556   2
   2   5  -9-0.42392 9.77574   5
   2   5  -8-8.34803 7.69419   2
   2   5  -8 2.09594 9.80831   5
   2   5  -7 13.4067 7.84522   2
   2   5  -7 21.4906 8.43496   5
   2   5  -7 14.4114 5.79576   3
   2   5  -7 8.46576 5.28739   4
   2   5  -6 174.956 8.83402   3
   2   5  -6 168.022 9.98433   5
   2   5  -6 166.218 9.00520   2
   2   5  -5 17.0767 7.68206   5
   2   5  -5 6.63420 6.55382   3
   2   5  -5 5.41024 6.29623   2
   2   5  -4 92.4749 6.16470   2
   2   5  -4 84.0535 8.35166   3
   2   5  -4 80.7159 7.57264   5
   2   5  -3 5.81564 4.18787   2
   2   5  -3 7.12823 7.64544   3
   2   5  -3-3.17865 5.63619   5
   2   5  -2 173.437 7.24982   5
   2   5  -2 177.510 10.9818   3
   2   5  -1 138.040 5.71144   5
   2   5  -1 169.379 10.1109   3
   2   5   0 164.587 10.3953   3
   2   5   1 35.1982 8.19321   3
   2   5   2 31.1088 8.21088   3
   2   5   3 57.4044 8.47875   3
   2   5   3 37.0829 11.9729   0
   2   5   4-3.02968 10.3435   0
   2   5   5 60.7610 14.0003   0
  -2  -5  -5 88.7251 12.9441   6
   2   5   6 15.1771 13.4134   0
  -2  -5  -6 5.30417 10.9760   6
  -2  -5  -7-6.15718 11.3647   6
   2   5   7 29.6817 15.0735   0
   2   5   8-34.6287 18.0784   0
  -2  -5  -8 13.0656 11.9536   6
  -2  -6  14 8.18203 14.2005   1
   2   6 -14 10.0227 15.3682   2
  -2  -6  13 76.0607 12.9464   1
   2   6 -13 33.3980 14.0806   2
  -2  -6  12 26.1606 13.1927   1
   2   6 -12 23.8006 12.5908   5
   2   6 -12 56.4755 13.7387   2
   2   6 -11 103.051 13.6982   5
   2   6 -11 89.2273 11.9248   2
  -2  -6  11 56.8136 12.4930   1
   2   6 -10 52.6625 12.2250   2
   2   6 -10 36.3364 11.3108   5
   2   6  -9 16.0566 9.31236   2
   2   6  -9 16.1435 10.4546   5
   2   6  -8-3.32356 8.47206   2
   2   6  -8 2.15244 9.31882   5
   2   6  -7 23.9695 8.06096   2
   2   6  -7 13.8581 8.80300   5
   2   6  -7 17.2395 6.97133   3
   2   6  -6 92.6466 8.65816   3
   2   6  -6 90.3457 7.93355   2
   2   6  -6 87.0572 10.0976   5
   2   6  -5 121.442 9.18991   3
   2   6  -5 98.0336 7.44337   2
   2   6  -5 123.664 9.56017   5
   2   6  -4 231.422 10.1349   5
   2   6  -4 210.857 7.69018   2
   2   6  -4 238.957 10.8345   3
   2   6  -3 4.43365 6.14971   5
   2   6  -3 3.03763 8.22884   3
   2   6  -2 329.578 12.7449   3
   2   6  -2 233.928 9.20182   5
   2   6  -1 32.3727 8.44010   3
   2   6   0 107.880 10.2677   3
   2   6   1 3.44736 8.76733   3
   2   6   2 87.6411 12.3768   0
   2   6   2 87.2058 9.46941   3
   2   6   3 113.326 13.4192   0
   2   6   3 125.038 10.9872   3
   2   6   4-1.45218 10.8381   0
   2   6   5-1.37885 13.4454   0
  -2  -6  -5-2.42036 11.3724   6
   2   6   6 18.6419 14.8997   0
  -2  -6  -6 4.65441 13.7714   6
   2   6   7 15.2430 15.4119   0
  -2  -6  -7 40.8122 12.5049   6
   2   7 -14 20.1558 13.7466   2
  -2  -7  14-14.1859 15.3293   1
  -2  -7  13 4.23107 12.1917   1
   2   7 -13 31.9271 11.6448   2
   2   7 -12 38.6299 13.1456   2
   2   7 -12 50.5676 14.6956   5
  -2  -7  12 48.0852 12.3069   1
   2   7 -11 17.9127 12.7179   5
  -2  -7  11-9.04630 10.4007   1
   2   7 -11-8.55722 10.5281   2
   2   7 -10 20.0151 10.7790   2
   2   7 -10 40.1409 12.0808   5
   2   7  -9 41.2965 10.0302   2
   2   7  -9 29.6185 11.4941   5
   2   7  -8 117.943 9.28704   3
   2   7  -8 125.774 12.2356   5
   2   7  -8 129.064 10.6085   2
   2   7  -7-4.30737 7.68625   2
   2   7  -7 2.27416 7.66854   3
   2   7  -7 6.57662 8.93450   5
   2   7  -6 6.14950 6.75945   2
   2   7  -6 21.5548 8.22251   3
   2   7  -6 20.5512 8.52494   5
   2   7  -5 18.9100 8.07737   5
   2   7  -5 17.3466 8.54809   3
   2   7  -4 20.6179 8.89402   3
   2   7  -4 37.9731 7.56254   5
   2   7  -3 55.9370 9.75910   3
   2   7  -3 67.4680 7.78218   5
   2   7  -2 114.583 10.4484   3
   2   7  -1-0.85402 8.75762   3
   2   7  -1 4.55574 8.37632   0
   2   7   0 62.5740 10.4710   3
   2   7   0 76.5755 9.89581   0
   2   7   1 17.2837 10.2739   0
   2   7   1 28.2739 9.78804   3
   2   7   2 124.422 12.9879   0
   2   7   2 150.561 11.3484   3
   2   7   3-13.0522 9.63461   3
   2   7   3-1.03075 10.8629   0
   2   7   4 1.33384 12.3538   0
   2   7   5 6.18285 13.7859   0
  -2  -7  -5 34.8289 13.9349   6
   2   7   6 31.3088 15.9661   0
  -2  -7  -6 43.8158 14.2603   6
  -2  -7  -7 54.1661 15.9531   6
   2   8 -14 26.3251 14.1081   2
  -2  -8  14-0.72174 11.4626   1
   2   8 -13-8.03941 12.5892   2
  -2  -8  13-14.2683 13.1982   1
  -2  -8  12 28.4623 10.9820   1
   2   8 -12 13.5326 11.6350   2
   2   8 -11-4.80342 10.7477   2
  -2  -8  11-5.32332 10.3260   1
   2   8 -11 6.65404 11.3965   5
   2   8 -10 9.99511 11.7251   5
   2   8 -10 7.72274 9.94919   2
   2   8  -9 18.5863 10.0871   2
   2   8  -9 48.9267 11.2342   5
   2   8  -8 156.672 10.8522   3
   2   8  -8 119.286 10.6388   2
   2   8  -8 133.088 12.6889   5
   2   8  -7 284.580 13.4231   3
   2   8  -7 273.222 13.9284   5
   2   8  -6 10.3699 9.00421   5
   2   8  -6 10.2455 8.85487   3
   2   8  -5 2.74705 8.30362   3
   2   8  -5 11.3300 8.24979   5
   2   8  -4 34.6019 10.2736   3
   2   8  -4 6.30591 7.25455   5
   2   8  -3 4.07708 9.90795   3
   2   8  -2 13.4028 8.19493   0
   2   8  -2-3.94060 9.61825   3
   2   8  -1 27.1138 9.74833   0
   2   8  -1 18.4544 10.8384   3
   2   8   0 25.2931 10.6329   3
   2   8   0 10.8888 9.73674   0
   2   8   1 11.1001 9.19944   3
   2   8   1 1.53377 11.0505   0
   2   8   2 22.1205 12.2021   0
   2   8   2 5.98807 9.56383   3
   2   8   3 4.53603 8.61173   3
   2   8   3 3.28457 10.9842   0
   2   8   4-4.69508 13.7017   0
  -2  -8  -5 53.6137 15.2428   6
   2   8   5-39.9322 15.4587   0
  -2  -8  -6 102.354 11.8850   6
   2   9 -14 31.1254 14.4496   2
   2   9 -13-10.5782 10.0297   2
  -2  -9  13 1.44786 12.6341   1
   2   9 -12-11.8428 10.9265   2
  -2  -9  12 0.46596 13.2688   1
   2   9 -11 4.30440 10.9092   2
  -2  -9  11 7.35333 13.5363   1
  -2  -9  10 17.2946 13.2767   1
   2   9 -10 26.9316 12.9354   5
   2   9  -9 44.2688 12.2378   5
   2   9  -8 46.6109 9.75942   3
   2   9  -8 48.5804 11.8947   5
   2   9  -7 119.521 12.2462   3
   2   9  -7 127.608 12.0426   5
   2   9  -6 577.423 17.3581   5
   2   9  -6 554.601 17.9584   3
   2   9  -5 21.3744 11.1684   3
   2   9  -5 24.8130 8.28323   5
   2   9  -4 772.157 21.0075   3
   2   9  -3-1.14959 10.3403   3
   2   9  -2 12.3344 9.42305   3
   2   9  -1 29.2397 10.5544   3
   2   9   0 3.44205 10.6844   0
   2   9   0-0.50900 10.3011   3
   2   9   1-4.47835 9.97112   3
   2   9   1 4.51177 11.5699   0
   2   9   2 23.7385 12.6538   0
   2   9   2-15.4651 10.5335   3
   2   9   3 10.9488 13.1145   0
   2   9   4 17.1083 15.4340   0
  -2 -10  12-15.4116 13.4003   1
  -2 -10  11-2.89411 14.0903   1
  -2 -10  10-2.49234 13.0700   1
   2  10  -8 8.76191 10.2716   3
   2  10  -7 9.99474 10.4310   3
   2  10  -6 142.246 13.9984   3
   2  10  -5 37.8533 11.0206   3
   2  10  -4 76.9233 11.8398   3
   2  10  -3 21.0563 10.9179   3
   2  10  -2-3.56760 10.8122   3
   2  10  -1 1.42613 11.4422   3
   2  10   0 14.1373 10.5622   3
   2  10   1-34.1271 10.2429   3
   2  10   1-34.6243 12.9005   0
   2  10   2-31.5364 11.2490   3
   2  10   2 4.72267 14.3010   0
   2  10   3-0.98589 17.0723   0
  -2 -11  12 36.0718 15.0606   1
  -2 -11  11 27.0714 14.2223   1
  -2 -11  10 42.0478 12.8130   1
  -2 -11   9-1.90818 12.6075   1
   2  11  -8-1.37300 11.2942   3
   2  11  -7 13.8478 11.0800   3
   2  11  -6 39.0637 12.4347   3
   2  11  -5 0.03765 10.8208   3
   2  11  -4 15.7923 11.3581   3
   2  11  -3 75.0151 15.0401   3
   2  11  -2 8.07472 12.5332   3
   2  11  -1 6.83870 10.8863   3
   2  11   0-11.0093 11.2133   3
   2  11   1-36.1167 12.5512   3
   2  11   2-7.74284 13.3706   3
  -2 -12  11-14.5500 14.9886   1
  -2 -12  10 14.3947 14.1811   1
  -2 -12   9 4.98582 12.9488   1
  -2 -12   8 46.7632 17.4468   1
   2  12  -8 22.8668 11.9303   3
   2  12  -7-13.1295 10.3223   3
   2  12  -6 12.7474 12.8684   3
   2  12  -5 18.1986 11.6208   3
   2  12  -4 8.40134 13.4958   3
   2  12  -3 6.91389 10.5411   3
   2  12  -2 27.7442 10.8493   3
   2  12  -1 4.40901 14.5083   3
   2  12   0-37.7936 12.8460   3
  -2 -13  10 22.8320 14.4865   1
   2  13  -8-10.1125 12.1570   3
   2  13  -7 24.1520 12.3030   3
   2  13  -6 11.9254 13.1994   3
   2  13  -5 28.2112 13.6733   3
   2  13  -4 16.6896 12.5956   3
  -3  15  -7 5.03597 16.5792   3
  -3  14   0 27.5282 12.3497   3
  -3  14  -1-0.58455 11.7536   3
  -3  14  -2 15.8179 13.6688   3
  -3  14  -3 50.2638 13.8497   3
  -3  14  -4 64.6019 12.9762   3
  -3  14  -5 44.1423 13.4570   3
  -3  14  -6 24.3171 13.0005   3
  -3  14  -7-5.88880 11.9254   3
   3 -14   8 51.3165 16.0875   1
  -3  14  -9 6.07282 13.9597   4
  -3  13   3-22.1912 13.3539   3
  -3  13   2-37.1008 12.9683   3
  -3  13   1 9.96904 13.1490   3
  -3  13   0 21.3862 12.3749   3
  -3  13  -1 6.92778 12.3065   3
  -3  13  -2 27.7665 12.2732   3
  -3  13  -3-7.83292 11.1476   3
  -3  13  -4 18.2190 12.4758   3
  -3  13  -5-2.68624 12.2951   3
   3 -13   6 9.39333 12.4918   1
  -3  13  -6 22.7681 11.6960   3
  -3  13  -7 66.6487 15.0433   4
   3 -13   7 95.7667 15.3909   1
  -3  13  -8 6.18115 12.2720   4
   3 -13   8 36.3789 15.2953   1
  -3  13  -9 34.3588 13.2896   4
   3 -13   9 90.1103 17.0282   1
  -3  12   5-18.4489 14.5673   0
  -3  12   4-23.0941 13.4288   0
  -3  12   4 74.9380 12.9906   3
  -3  12   3 15.0880 11.4882   3
  -3  12   2 18.0737 11.5441   3
  -3  12   1 32.6544 11.9029   3
  -3  12   0 14.2954 13.1275   3
  -3  12  -1-10.9488 11.4018   3
  -3  12  -2 123.655 13.0411   3
  -3  12  -3 21.5033 11.3652   3
  -3  12  -4 106.899 13.9535   3
  -3  12  -5 24.1664 13.0452   4
   3 -12   5 29.5786 11.5820   1
  -3  12  -5 39.9065 11.5122   3
  -3  12  -6 4.21093 11.6078   4
  -3  12  -6-15.1133 10.7443   3
   3 -12   7 30.8851 12.0666   1
  -3  12  -7-14.8060 12.0948   4
  -3  12  -8 50.1805 11.9709   4
   3 -12   8 26.8945 14.1318   1
   3 -12   9 11.2560 13.0554   1
  -3  12  -9 35.2314 12.5163   4
   3 -12  10 96.5634 14.8524   1
  -3  11   6-17.0834 15.4739   0
  -3  11   5-0.21970 18.3558   0
  -3  11   4 89.0991 11.9834   3
  -3  11   4 46.4508 13.0742   0
  -3  11   3-4.54380 10.1217   3
  -3  11   3 7.41208 12.0886   0
  -3  11   2-19.3273 11.5134   3
  -3  11   2-5.25072 10.0921   0
  -3  11   1 0.61242 11.8270   3
  -3  11   0 13.7122 11.5649   3
  -3  11  -1 14.7391 12.1508   3
  -3  11  -2 2.42629 11.0273   3
  -3  11  -3 4.83636 11.5473   3
  -3  11  -4 9.73107 11.2536   3
   3 -11   4-1.17528 10.3146   1
  -3  11  -4-4.64768 10.8009   4
   3 -11   5 29.5390 11.0936   1
  -3  11  -5 17.6455 10.5743   3
  -3  11  -5 21.2216 10.9379   4
  -3  11  -6 14.2091 10.5323   3
  -3  11  -6 35.5137 10.9205   4
   3 -11   6 24.1881 12.4145   1
   3 -11   7 8.02290 12.8811   1
  -3  11  -7 2.50434 11.6324   4
  -3  11  -8 26.5678 11.4774   4
   3 -11   8 60.9612 14.0140   1
  -3  11  -9 85.5270 12.4412   4
   3 -11   9 80.2795 16.3028   1
   3 -11  10 45.6761 15.9344   1
  -3  11 -11 52.8705 12.7986   2
  -3  10   7 6.34859 15.0050   0
  -3  10   6 7.35157 15.2011   0
  -3  10   5 0.40551 12.4887   0
  -3  10   4 41.3208 13.1943   0
  -3  10   4 68.4644 11.0959   3
  -3  10   3 45.6140 13.0974   0
  -3  10   3 88.2043 12.3293   3
  -3  10   2 11.1326 11.1048   3
  -3  10   2-3.50922 10.2556   0
  -3  10   1 22.4717 10.6870   3
  -3  10   1 19.3222 9.48437   0
  -3  10   0 20.4430 9.98491   3
  -3  10  -1 35.5301 12.0684   3
  -3  10  -2 6.94795 9.47957   3
  -3  10  -3 1.32133 11.0894   4
   3 -10   3 10.4054 9.56864   1
  -3  10  -3 5.07704 11.4058   3
   3 -10   4 37.1667 10.5273   1
  -3  10  -4 37.1804 11.0531   3
  -3  10  -4 27.3439 9.17836   4
   3 -10   5 17.1121 10.1086   1
  -3  10  -5-11.3454 10.5881   3
  -3  10  -6 11.0632 9.35353   3
   3 -10   6 9.69592 11.1085   1
  -3  10  -6-3.31888 10.9130   4
  -3  10  -7-2.06193 10.1702   4
   3 -10   7-0.06761 9.93448   1
  -3  10  -8 7.07685 10.0256   2
   3 -10   8 25.2217 13.5184   1
  -3  10  -8 2.10291 9.58360   4
  -3  10  -9 6.48000 11.9441   4
  -3  10  -9 5.67685 11.7023   2
   3 -10   9 7.79747 14.2385   1
  -3  10 -10 16.4021 12.2750   2
   3 -10  10 48.1425 14.0924   1
  -3  10 -11 22.1933 12.2865   2
  -3   9   8-7.66319 14.4352   0
  -3   9   7 1.47470 14.6851   0
  -3   9   6 2.23600 13.0801   0
  -3   9   5 17.1610 13.0283   0
  -3   9   5 14.0362 9.75359   3
  -3   9   4 98.0247 11.7048   3
  -3   9   4 19.6182 12.4326   0
  -3   9   3 40.5433 11.3360   3
  -3   9   3 17.8052 10.8339   0
  -3   9   2 220.995 13.9063   3
  -3   9   2 210.860 12.7687   0
  -3   9   1 7.50535 8.90054   0
  -3   9   1 0.28558 10.9501   3
  -3   9   0 112.252 12.1078   3
  -3   9   0 62.9421 9.95931   0
  -3   9  -1 9.77100 11.0459   3
  -3   9  -2 285.290 13.4513   4
  -3   9  -2 319.307 15.5766   3
   3  -9   3 69.1742 9.84115   1
  -3   9  -3 64.6704 11.8593   3
  -3   9  -3 57.9355 10.1240   4
   3  -9   4 10.0078 9.84735   1
  -3   9  -4 12.6252 9.36194   3
  -3   9  -4 6.41224 8.47835   4
  -3   9  -5 8.32886 9.79721   3
  -3   9  -5 4.72893 7.93559   2
  -3   9  -5 6.05530 8.76844   4
  -3   9  -6 86.3058 9.80086   3
   3  -9   6 110.956 13.0724   1
  -3   9  -6 57.0881 11.7769   4
  -3   9  -6 66.2105 10.1529   2
  -3   9  -7 6.08277 10.4410   4
   3  -9   7 11.3512 10.8552   1
  -3   9  -7 2.99560 12.5306   2
  -3   9  -8 99.1068 12.7993   4
   3  -9   8 88.7704 13.4263   1
  -3   9  -8 116.560 12.7575   2
  -3   9  -9 63.9954 12.6926   2
  -3   9  -9 82.0134 13.3923   4
   3  -9   9 94.3207 13.5126   1
   3  -9  10 48.9143 15.4063   1
  -3   9 -10 2.55720 11.3840   2
  -3   9 -11 1.44418 13.4509   2
  -3   8   9 3.43571 15.5702   0
  -3   8   8 3.86289 13.6526   0
  -3   8   7 76.0642 15.7247   0
  -3   8   6 0.49061 11.4783   0
  -3   8   5 83.5843 11.2948   3
  -3   8   5 79.4451 13.8036   0
  -3   8   4 9.87686 9.45192   3
  -3   8   4 3.30661 11.0704   0
  -3   8   3 123.171 12.0851   3
  -3   8   3 123.730 11.6588   0
  -3   8   2 2.12072 9.28291   0
  -3   8   2 11.9932 10.2997   3
  -3   8   1-3.12238 9.16137   3
  -3   8   1 11.0109 8.21224   0
  -3   8   0 1.45008 6.51295   0
  -3   8   0-0.60312 9.36970   3
  -3   8  -1 12.8966 8.33521   4
  -3   8  -1 11.9781 9.07652   3
  -3   8  -1 7.12321 6.53362   0
  -3   8  -2 12.9531 7.63155   4
  -3   8  -2 5.30143 8.85416   3
  -3   8  -3 4.50757 8.32555   4
  -3   8  -3 5.05323 6.63187   2
   3  -8   3 22.4971 8.92655   1
  -3   8  -3 9.33231 9.10443   3
  -3   8  -4 87.3279 9.93431   4
  -3   8  -4 95.6657 10.3714   3
   3  -8   4 96.1122 11.1184   1
  -3   8  -4 79.3752 8.88344   2
  -3   8  -5 56.3918 9.64482   4
   3  -8   5 63.2263 10.7786   1
  -3   8  -5 61.2558 9.20569   2
  -3   8  -5 68.2365 9.83715   3
  -3   8  -6 16.4472 10.5704   4
   3  -8   6 14.8468 9.81735   1
  -3   8  -6 11.0692 9.83158   2
  -3   8  -7 66.9623 11.7156   4
   3  -8   7 67.8684 13.3035   1
  -3   8  -7 39.0096 10.9793   2
   3  -8   8 133.387 15.2662   1
  -3   8  -8 107.560 14.3197   2
   3  -8   9 46.8319 12.7413   1
  -3   8  -9 10.3476 9.32983   2
  -3   8 -10 14.7519 11.0664   2
  -3   8 -11-2.67100 14.2678   2
  -3   7   9 3.62522 14.8526   0
  -3   7   8 1.15163 13.3351   0
  -3   7   7 94.3841 14.6251   0
  -3   7   6 74.2409 13.7387   0
  -3   7   5 61.8398 12.0388   0
  -3   7   5 57.2791 9.13571   3
  -3   7   4 1.83738 10.3852   0
  -3   7   4-6.89479 8.47534   3
  -3   7   3 26.3572 8.86816   0
  -3   7   3 19.9989 9.53385   3
  -3   7   2-4.32602 9.47071   3
  -3   7   2-2.19495 7.45741   0
  -3   7   1 141.559 11.1810   3
  -3   7   1 168.324 9.53414   0
  -3   7   0 17.3641 8.51452   4
  -3   7   0 15.0091 6.98590   0
  -3   7   0 20.8608 8.70996   3
  -3   7  -1 1.77495 6.81043   4
  -3   7  -1 8.92918 9.26844   3
  -3   7  -1-3.41293 6.13949   0
  -3   7  -2 9.33749 5.29106   0
  -3   7  -2 7.82927 5.58701   2
  -3   7  -2 7.99867 7.37550   4
   3  -7   3 32.0957 7.89981   1
  -3   7  -3 26.2721 7.12133   2
  -3   7  -3 34.3334 7.70440   4
  -3   7  -4 39.4627 7.75391   2
  -3   7  -4 34.8564 8.67784   4
   3  -7   4 53.8885 9.52517   1
  -3   7  -4 35.2256 8.58980   3
   3  -7   5 7.51764 10.2100   1
  -3   7  -5 2.70709 7.73567   2
  -3   7  -5 2.05703 9.66908   4
  -3   7  -5-8.28463 8.14913   3
   3  -7   6 260.328 14.3645   1
  -3   7  -6 246.620 13.4141   2
   3  -7   7 25.1069 12.8034   1
  -3   7  -7 18.1892 9.75113   2
   3  -7   8 353.218 18.1428   1
  -3   7  -8 281.973 14.9788   2
  -3   7  -9 4.53801 11.1905   2
  -3   7 -10 6.32775 10.8138   2
  -3   7 -11-10.1332 11.4916   2
  -3   6  10 3.91184 14.0627   0
  -3   6   9 5.40087 11.9242   0
  -3   6   8 13.9413 12.8861   0
  -3   6   7 45.6527 13.2791   0
  -3   6   6 10.3675 10.6169   0
  -3   6   5 39.1697 11.8328   0
  -3   6   5 20.6115 8.80799   3
  -3   6   4-0.60314 8.67887   0
  -3   6   4 10.7191 8.12366   3
  -3   6   3 25.2414 9.49205   0
  -3   6   3-2.66109 8.67282   3
  -3   6   2 454.682 14.2018   3
  -3   6   2 254.256 12.6895   0
  -3   6   1-0.04353 6.59509   0
  -3   6   0 3.32423 5.70681   0
  -3   6   0 2.81528 7.14742   4
  -3   6  -1-3.39022 7.00219   4
  -3   6  -1 2.64579 5.63152   2
  -3   6  -1 1.40573 5.91416   0
  -3   6  -2 281.956 9.77107   2
  -3   6  -2 298.614 8.29387   0
  -3   6  -2 296.105 11.9467   4
  -3   6  -3-0.57374 6.36324   2
  -3   6  -3 2.96730 4.17141   0
   3  -6   3 13.0042 7.14632   1
  -3   6  -3 0.54051 9.21729   4
  -3   6  -4 10.1188 7.97984   2
   3  -6   4 12.3716 7.13783   1
  -3   6  -5 46.7175 8.36363   2
   3  -6   5 46.9476 9.92717   1
  -3   6  -6 17.2960 9.37811   2
   3  -6   6 8.11595 10.1569   1
   3  -6   7 12.6156 10.1250   1
  -3   6  -7 8.41170 9.64995   2
  -3   6  -8 91.5896 12.6502   2
  -3   6  -9 147.590 14.4766   2
  -3   6 -10 0.96073 12.8887   2
  -3   6 -11-0.30655 12.7442   2
  -3   5  11-6.63164 13.8452   0
  -3   5  10-10.7857 14.7405   0
  -3   5   9 3.20911 14.6271   0
  -3   5   8 22.0197 12.7622   0
  -3   5   7 50.0089 12.5293   0
  -3   5   6 27.2429 11.3350   0
  -3   5   5 61.9167 8.80426   3
  -3   5   5 60.6847 10.8099   0
   3  -5  -5 51.0549 6.28991   2
   3  -5  -4 2.57930 5.28817   2
  -3   5   4 1.71016 8.93913   0
  -3   5   4-1.19087 7.50633   3
  -3   5   3 1.05901 7.16215   0
  -3   5   2 265.161 10.5515   0
  -3   5   1 417.634 10.9893   4
  -3   5   1 462.298 11.3950   0
  -3   5   0 2307.76 22.8053   4
  -3   5   0 2365.78 20.9399   0
  -3   5  -1 342.743 11.5126   4
  -3   5  -1 340.029 8.98101   0
  -3   5  -2 779.049 11.0943   0
  -3   5  -2 782.025 13.6873   2
  -3   5  -3 261.959 7.81783   0
  -3   5  -3 256.756 10.6380   2
   3  -5   4 201.016 10.4060   1
  -3   5  -4 213.876 8.19807   0
  -3   5  -4 218.613 10.9983   2
   3  -5   5 3.81270 9.00213   1
  -3   5  -5-0.96502 7.75322   2
  -3   5  -6-8.79812 16.4071   2
  -3   5  -7 20.6037 9.91474   2
  -3   5  -8 13.9378 10.6859   2
  -3   5  -9 64.2477 13.5876   2
  -3   5 -10 1.34994 12.3515   2
  -3   5 -11 9.10189 12.0965   2
  -3   4  12-24.3469 15.5625   0
  -3   4  11 3.04449 14.9778   0
  -3   4  10 2.94526 13.4820   0
  -3   4   9 2.21960 12.4391   0
  -3   4   8-1.71016 11.1767   0
   3  -4  -7 7.42727 7.34340   2
  -3   4   7 3.89958 10.2528   0
   3  -4  -6 5.62120 6.84851   2
  -3   4   6 11.1686 10.5242   0
  -3   4   6 16.1046 6.57379   3
  -3   4   5 499.634 13.8191   3
  -3   4   5 693.644 17.5265   0
   3  -4  -5 660.975 12.9842   2
  -3   4   4 144.294 10.8551   0
   3  -4  -4 173.142 7.66217   2
  -3   4   3 313.839 11.7790   0
  -3   4   2 21.9250 6.22436   4
  -3   4   2 23.5774 6.80146   0
  -3   4   1 30.7161 6.65019   0
  -3   4   1 34.2800 6.51284   4
  -3   4   0 2035.08 20.6733   4
  -3   4   0 1894.95 18.1890   0
  -3   4  -1 48.0323 5.99534   0
  -3   4  -2 241.535 7.46404   0
  -3   4  -2 262.877 9.33436   2
  -3   4  -3 158.708 9.84134   2
  -3   4  -3 162.199 7.56189   0
  -3   4  -4 5.70380 7.83287   2
  -3   4  -5 24.8498 9.31214   2
  -3   4  -6 140.920 10.8563   2
  -3   4  -7 6.75818 9.17811   2
  -3   4  -8 45.8882 10.5348   2
  -3   4  -9 33.4994 11.8490   2
  -3   4 -10-5.23435 11.2076   2
  -3   4 -11 40.2744 15.2979   2
  -3   3  13 40.4513 12.7367   0
  -3   3  12 5.53286 14.8307   0
  -3   3  11-5.01750 13.4537   0
   3  -3 -10 32.7671 10.5953   2
  -3   3  10 33.7452 13.5022   0
  -3   3   9 13.3497 11.0516   0
   3  -3  -9 18.1894 9.74748   2
   3  -3  -8 10.2460 8.98526   2
  -3   3   8-3.91119 11.1281   0
  -3   3   7 8.41672 9.97000   0
   3  -3  -7 7.94983 7.31056   2
   3  -3  -6 9.87442 5.33295   5
   3  -3  -6 14.3576 6.75895   2
  -3   3   6 14.0228 10.1779   0
   3  -3  -5 33.0247 6.75943   2
  -3   3   5 28.0880 9.24222   0
  -3   3   4 0.79857 7.46468   0
   3  -3  -4 17.3109 5.84944   2
  -3   3   3 47.8402 7.24326   0
   3  -3  -3 50.7968 5.88314   2
  -3   3   2 7.37836 6.66706   0
  -3   3   2 6.07773 4.76432   4
  -3   3   1 1671.59 16.8781   0
  -3   3   1 1747.66 17.3880   4
  -3   3   0 429.917 9.63870   0
  -3   3  -1 66.2527 5.93319   0
  -3   3  -2 5.02723 5.93650   2
  -3   3  -2 0.79087 5.55980   0
  -3   3  -3 7.82433 7.88180   2
  -3   3  -3 7.80405 6.40343   0
  -3   3  -4 337.755 12.8658   2
  -3   3  -5 71.8926 10.1176   2
  -3   3  -6-4.75998 9.19753   2
  -3   3  -7-1.09644 10.5138   2
  -3   3  -8-0.71178 11.1093   2
  -3   3  -9 4.19777 11.8488   2
  -3   3 -10 14.0417 10.7025   2
  -3   3 -11-1.16145 13.5687   2
  -3   2  13 10.2863 15.0804   0
   3  -2 -12-10.6951 13.2897   2
  -3   2  12 9.68349 13.4893   0
   3  -2 -11 7.38139 10.8931   2
  -3   2  11 1.18992 11.9036   0
  -3   2  10 12.8604 12.3142   0
   3  -2 -10 59.5855 9.47742   2
  -3   2   9 17.7602 10.5102   0
   3  -2  -9 14.6593 8.88404   2
   3  -2  -8 64.1531 9.12193   2
  -3   2   8 65.0804 10.7527   0
  -3   2   7 132.236 11.9416   0
   3  -2  -7 159.831 10.3076   2
   3  -2  -7 126.426 8.74115   5
   3  -2  -6 1254.93 16.2848   5
   3  -2  -6 1264.97 19.1225   2
  -3   2   6 992.691 20.6843   0
   3  -2  -5 13.3680 6.95745   2
   3  -2  -5 13.0394 5.84079   5
  -3   2   5 7.22735 6.84663   0
  -3   2   4 625.239 12.7449   0
   3  -2  -4 599.906 11.7396   2
  -3   2   3 125.620 7.76652   0
   3  -2  -3 129.702 6.81763   2
  -3   2   2 29.5007 5.00779   4
  -3   2   2 22.6592 6.11005   0
  -3   2   1 11919.7 39.4922   0
  -3   2   0 1855.18 16.1466   0
  -3   2  -1 438.595 9.93452   0
  -3   2  -2 24.5106 6.09683   2
  -3   2  -2 21.6369 6.38143   0
  -3   2  -3 28.1978 6.95825   2
  -3   2  -4 112.224 9.23658   2
  -3   2  -5-1.08333 7.35951   2
  -3   2  -6-40.8320 8.94927   2
  -3   2  -7-6.94880 10.4624   2
  -3   2  -8 8.76624 11.3342   2
  -3   2  -9 8.96444 12.6564   2
  -3   2 -10 5.20671 12.5793   2
  -3   2 -11 34.0610 14.2554   2
   3  -1 -13 2.16480 12.3891   2
  -3   1  12 5.78934 11.8882   0
   3  -1 -12 17.3672 12.5038   2
  -3   1  11 82.2860 12.9222   0
   3  -1 -11 110.807 13.8818   2
   3  -1 -10 41.0275 10.6195   2
  -3   1  10 17.3265 12.0625   0
   3  -1  -9 153.099 11.6289   2
  -3   1   9 145.528 11.8549   0
  -3   1   8 46.6457 9.16348   0
   3  -1  -8 43.8913 7.58256   5
   3  -1  -8 42.0655 9.63045   2
   3  -1  -7 197.466 9.05631   5
  -3   1   7 144.935 11.1729   0
   3  -1  -7 185.520 11.2064   2
   3  -1  -6 304.462 6.21790   6
  -3   1   6 313.352 10.9621   0
   3  -1  -6 307.058 11.2219   2
   3  -1  -6 303.573 9.80175   5
   3  -1  -5 13.6082 6.09119   5
   3  -1  -5 11.7341 7.55190   2
  -3   1   5 22.7645 7.02443   0
  -3   1   4 4.67201 6.49551   0
   3  -1  -4 0.01101 6.37059   2
   3  -1  -3 28.5183 5.87468   2
  -3   1   3 33.7535 7.13296   0
  -3   1   2 2689.03 19.7954   0
  -3   1   1 2265.20 18.7906   0
  -3   1   0 1408.84 15.1358   6
  -3   1   0 1387.62 15.3395   0
  -3   1  -1 727.176 13.0434   6
  -3   1  -1 775.964 13.1666   0
  -3   1  -2 117.872 7.63564   2
  -3   1  -2 113.768 8.96512   6
  -3   1  -3 462.252 13.0284   6
  -3   1  -3 496.178 13.0869   2
  -3   1  -4 72.1701 8.79831   2
  -3   1  -4 76.4090 9.37597   6
  -3   1  -5 19.6167 9.47787   6
  -3   1  -5 40.5811 9.42056   2
  -3   1  -6 3.46196 9.20418   2
  -3   1  -6 4.50474 9.06927   6
  -3   1  -7 105.786 11.1997   6
  -3   1  -7 84.4230 11.3522   2
  -3   1  -8-5.80954 10.2782   2
   3  -1   9 8.79815 12.6185   0
  -3   1  -9 4.00485 6.78778   2
  -3   1 -10 26.7323 12.4375   2
  -3   1 -11-19.5270 13.4143   2
   3   0 -14 3.25781 13.2183   2
   3   0 -13-3.61179 13.3652   2
   3   0 -12 135.973 13.7453   2
   3   0 -11-5.64747 11.8597   2
  -3   0  11 5.30449 9.86905   0
   3   0 -10 19.5705 10.6933   2
  -3   0  10 25.2263 9.72691   0
   3   0 -10 8.38612 8.32212   5
  -3   0   9 15.3670 8.44278   0
   3   0  -9 22.1606 10.6089   2
   3   0  -9 13.4823 8.08842   5
   3   0  -8 355.970 12.3248   5
  -3   0   8 334.146 12.9382   0
   3   0  -8 341.841 13.1877   2
   3   0  -7 17.3612 7.36142   5
   3   0  -7 15.0249 8.59524   2
  -3   0   7 15.9309 7.05621   0
  -3   0   6 211.744 9.24036   0
   3   0  -6 199.737 9.88988   2
   3   0  -6 220.242 9.56542   5
  -3   0   5 681.161 12.2680   0
   3   0  -5 579.059 12.6659   2
   3   0  -5 632.584 12.2931   5
  -3   0   4 383.871 9.80947   0
   3   0  -4 390.576 10.6458   2
  -3   0   3 20.6594 6.17156   0
   3   0  -3 19.8210 5.45279   2
  -3   0   2 1085.81 9.95586   6
  -3   0   2 1056.68 13.7842   0
   3   0  -2 1141.18 13.9313   3
  -3   0   1 771.761 11.0098   6
   3   0  -1 782.643 12.5946   3
  -3   0   1 760.056 11.6284   0
  -3   0   0 472.656 10.4110   6
   3   0   0 470.740 10.8358   3
  -3   0   0 458.160 10.5968   0
  -3   0  -1 47.4284 7.72742   0
  -3   0  -1 48.5446 7.66493   6
   3   0   1 56.0510 6.85682   3
   3   0   2 380.291 9.91704   3
  -3   0  -2 347.504 12.1897   6
  -3   0  -2 377.788 10.5559   2
  -3   0  -3 47.1965 9.30588   6
   3   0   3 37.3927 5.95963   3
  -3   0  -3 38.5086 7.09438   2
  -3   0  -4 73.2437 10.1192   6
   3   0   4 96.9097 6.87435   3
  -3   0  -4 102.118 9.25702   2
  -3   0  -5 42.9126 9.49103   6
  -3   0  -5 68.1411 8.93086   2
  -3   0  -6 2.80948 8.76017   2
  -3   0  -6 0.95347 9.77355   6
  -3   0  -7 26.0758 10.0492   6
  -3   0  -7 36.6222 10.2019   2
   3   0   8 19.4783 11.8283   0
  -3   0  -8 4.32928 9.79179   2
   3   0   9 2.95429 12.7334   0
  -3   0  -9 31.5599 9.65566   6
  -3   0  -9 11.7051 10.2391   2
   3   0  10 8.69652 13.9856   0
  -3   0 -10 11.7696 13.5582   2
   3   1 -14-0.28381 13.9043   2
   3   1 -13 17.6304 12.5112   2
   3   1 -12 10.9768 10.9657   2
   3   1 -11 59.8574 10.9359   5
   3   1 -11 71.7062 12.5956   2
   3   1 -10 0.58083 9.88818   2
  -3  -1  10 0.19844 8.27049   0
   3   1 -10-8.40131 8.36781   5
   3   1  -9 5.84110 9.35546   2
  -3  -1   9-1.45698 7.45358   0
   3   1  -8 0.20645 7.54996   5
   3   1  -8 7.94622 9.35054   2
  -3  -1   8 12.3729 6.99812   0
   3   1  -7 10.1424 7.30049   5
   3   1  -7 3.42619 7.60049   2
  -3  -1   7 5.98173 5.89685   0
   3   1  -6 34.3982 7.97670   5
  -3  -1   6 32.9582 6.28281   0
   3   1  -6 32.4012 7.26827   2
   3   1  -5 8.15779 6.22214   5
  -3  -1   5 12.4805 5.49437   0
   3   1  -5 1.37581 6.68241   2
   3   1  -5 9.40091 5.00254   3
   3   1  -4 1.88037 6.48892   5
  -3  -1   4 3.96318 5.27552   0
   3   1  -4 0.91474 5.44540   3
   3   1  -4-0.46838 5.61189   2
   3   1  -3 512.966 10.5463   3
   3   1  -3 477.744 10.6291   2
   3   1  -2 86.1168 6.89083   3
  -3  -1   2 85.4886 6.62673   0
   3   1  -1 1309.28 15.4922   3
  -3  -1   1 1320.40 15.0379   6
  -3  -1   1 1424.14 15.9602   0
   3   1   0 9.61014 6.64205   3
  -3  -1   0 0.48602 7.13968   0
  -3  -1   0 8.34671 7.46645   6
   3   1   1 3726.72 25.9426   3
  -3  -1  -1 3583.29 29.1138   6
  -3  -1  -2 353.242 10.4282   2
  -3  -1  -2 337.563 12.5944   6
   3   1   2 318.314 9.39764   3
  -3  -1  -3 1084.28 20.1163   6
   3   1   3 1138.66 15.9973   3
  -3  -1  -3 1145.72 17.6257   2
  -3  -1  -4 4.72226 9.04739   6
  -3  -1  -4 0.49207 7.22613   2
  -3  -1  -5 273.825 14.0336   6
  -3  -1  -5 259.886 12.1377   2
  -3  -1  -6 181.292 13.8179   6
  -3  -1  -6 181.241 11.2095   2
  -3  -1  -7-1.42451 9.59193   2
  -3  -1  -7 8.42570 10.6726   6
   3   1   8-4.97192 13.5692   0
  -3  -1  -8-1.54182 10.8107   2
   3   1   9 36.9276 13.0882   0
  -3  -1  -9-4.26834 9.66674   6
   3   1  10 18.7889 17.3765   0
   3   2 -14 6.67511 14.3302   2
   3   2 -13-16.6746 12.1268   2
   3   2 -12 11.9364 12.5365   2
   3   2 -12-23.4359 14.6336   5
   3   2 -11 25.9685 11.7517   2
   3   2 -11 2.35751 10.4021   5
   3   2 -10 139.758 11.6644   5
   3   2 -10 142.458 13.7374   2
   3   2  -9 114.231 12.3797   2
   3   2  -9 122.488 10.6428   5
  -3  -2   8 136.915 8.08163   0
   3   2  -8 131.239 11.1476   2
   3   2  -8 124.712 9.52312   5
   3   2  -7 3.18786 8.86880   2
   3   2  -7 13.4117 4.76672   3
  -3  -2   7 7.16507 5.66923   0
   3   2  -7 8.12393 7.90582   5
   3   2  -6 814.381 12.2907   3
   3   2  -6 842.080 16.0944   2
  -3  -2   6 799.766 12.6942   0
   3   2  -6 799.518 16.5882   5
  -3  -2   5 630.487 10.3111   0
   3   2  -5 628.576 11.1148   3
   3   2  -5 679.757 13.4472   2
   3   2  -5 673.648 13.9835   5
   3   2  -4 709.380 11.8771   3
  -3  -2   4 589.146 10.8955   0
   3   2  -4 688.960 12.1786   2
   3   2  -4 634.691 12.8094   5
  -3  -2   3 229.335 7.22746   0
   3   2  -3 199.635 8.41283   3
   3   2  -3 212.832 8.18846   5
  -3  -2   2 15.5490 6.32664   0
   3   2  -2 8.66889 6.38336   3
   3   2  -1 589.168 11.8835   3
  -3  -2   1 640.121 12.9831   0
   3   2   0 1164.47 16.6376   3
  -3  -2  -1 1953.85 23.6408   6
  -3  -2  -1 1953.25 18.4859   2
   3   2   1 1910.62 20.6338   3
   3   2   2 580.628 12.5819   3
  -3  -2  -2 586.346 12.1887   2
  -3  -2  -2 603.392 15.5024   6
   3   2   3 190.195 9.32625   3
  -3  -2  -3 201.809 12.6311   6
  -3  -2  -3 192.877 9.47677   2
  -3  -2  -4 10.2873 9.99175   6
  -3  -2  -4 24.9984 7.49316   2
  -3  -2  -5-2.65351 9.27073   6
  -3  -2  -5-13.5504 8.12064   2
  -3  -2  -6 1.20380 10.4460   6
  -3  -2  -6 20.4745 8.95839   2
   3   2   7 7.30747 12.6833   0
  -3  -2  -7-26.4441 10.9584   6
   3   2   8-9.18311 14.9456   0
   3   2   9 12.1607 15.6245   0
   3   3 -14 6.07462 12.6102   2
   3   3 -13 22.6174 13.2900   2
   3   3 -13 21.5672 12.7343   5
   3   3 -12 40.9013 11.4679   2
  -3  -3  12 19.9386 9.71410   1
   3   3 -12 2.84401 10.5616   5
   3   3 -11-4.19235 11.5972   2
   3   3 -11-6.88680 10.4858   5
   3   3 -10 57.0178 10.6598   5
   3   3 -10 48.1787 11.7907   2
   3   3  -9 141.257 11.6822   5
   3   3  -9 155.629 11.9090   2
   3   3  -8-3.86109 7.19664   2
   3   3  -8-6.75358 7.94716   5
   3   3  -7-0.22525 7.77817   5
   3   3  -7 5.24716 4.99798   3
  -3  -3   7 2.46213 4.69863   0
   3   3  -7 7.61012 8.22447   2
   3   3  -6 119.757 6.89105   3
   3   3  -6 120.036 8.92345   5
  -3  -3   6 114.818 5.72593   0
   3   3  -6 137.994 8.74131   2
  -3  -3   5 192.111 6.36298   0
   3   3  -5 202.230 8.31798   3
   3   3  -5 210.821 9.05130   2
   3   3  -5 205.656 9.82780   5
   3   3  -4 150.317 8.07808   3
   3   3  -4 143.684 7.61044   2
   3   3  -4 163.671 8.98752   5
  -3  -3   4 170.651 6.44333   0
   3   3  -3 117.565 8.27047   3
   3   3  -3 120.217 7.38295   5
  -3  -3   3 106.567 6.63553   0
   3   3  -2 99.3918 7.95329   3
  -3  -3   2 123.631 8.00400   0
   3   3  -2 124.557 6.79929   5
   3   3  -1 2838.71 19.6175   5
   3   3  -1 2881.72 26.0845   3
   3   3   0 5.63147 7.13677   3
   3   3   1 88.7653 8.86088   3
  -3  -3  -1 103.209 6.73424   2
   3   3   2 80.7609 7.92214   3
  -3  -3  -2 83.7051 6.63750   2
   3   3   3 8.72174 6.87173   3
  -3  -3  -3-1.33899 9.52543   6
  -3  -3  -4 120.112 12.5873   6
  -3  -3  -5 79.3974 12.8384   6
  -3  -3  -6 0.97659 11.3118   6
   3   3   6-14.0184 11.7472   0
   3   3   7 18.1585 13.6702   0
  -3  -3  -7 3.35945 12.0688   6
   3   3   8 18.2698 14.4000   0
   3   4 -14 21.4305 14.4473   2
   3   4 -14 10.7456 13.6233   5
   3   4 -13 16.4695 13.3520   5
  -3  -4  13 8.87988 11.8149   1
   3   4 -13-0.62587 11.0949   2
   3   4 -12 41.4691 12.1980   2
  -3  -4  12 55.4376 12.0782   1
   3   4 -12 34.9177 11.4172   5
   3   4 -11 34.9955 11.6632   2
   3   4 -11 37.3552 10.3549   5
   3   4 -10 15.8693 9.41508   2
   3   4 -10 19.1534 10.3557   5
   3   4  -9-2.85682 10.3216   2
   3   4  -9-5.48137 8.27514   5
   3   4  -8 5.73411 8.17921   2
   3   4  -8 5.51957 7.97201   5
   3   4  -7 4.16984 8.29010   5
   3   4  -7-0.34781 6.89215   2
   3   4  -7 5.63162 5.47612   3
  -3  -4   6 23.1882 3.99203   0
   3   4  -6 34.2393 7.76926   2
   3   4  -6 25.8711 6.50660   3
   3   4  -6 30.0150 8.54134   5
   3   4  -5 18.6977 6.99523   3
   3   4  -5 14.9573 6.41478   2
  -3  -4   5 17.1216 4.63651   0
   3   4  -5 15.3922 7.44227   5
   3   4  -4 489.887 12.3316   3
   3   4  -4 497.827 12.4396   5
  -3  -4   4 448.269 10.3640   0
   3   4  -4 516.988 10.9332   2
   3   4  -3 13.6449 6.07918   5
   3   4  -3 11.1665 6.70555   3
   3   4  -2 36.7106 6.04425   5
   3   4  -2 32.5297 8.37123   3
   3   4  -1 283.619 10.9207   3
   3   4  -1 250.645 7.23905   5
  -3  -4   0 27.4552 4.31965   2
   3   4   0 27.4942 7.58038   3
   3   4   1 10.8943 7.43080   3
   3   4   2 81.1421 8.90150   3
  -3  -4  -3 112.098 12.1749   6
   3   4   3 96.7266 9.28585   3
  -3  -4  -4 14.3106 11.8378   6
   3   4   5 26.0008 13.2315   0
  -3  -4  -5 17.1339 11.0629   6
   3   4   6 18.8214 13.4254   0
  -3  -4  -6 6.00826 11.9021   6
   3   4   7 4.35861 14.9599   0
  -3  -4  -7-1.38989 12.3820   6
   3   4   8-2.63379 16.8260   0
   3   5 -14 65.6610 13.2607   5
   3   5 -14 47.1798 14.1996   2
  -3  -5  14 14.1356 12.9844   1
  -3  -5  13-28.7270 10.6284   1
   3   5 -13-16.6100 11.2792   2
   3   5 -13 12.4245 13.3764   5
   3   5 -12 1.40518 12.6086   2
   3   5 -12 22.4566 11.9882   5
   3   5 -11 13.3512 11.5720   2
   3   5 -11 2.24364 11.5862   5
   3   5 -10 192.185 14.1403   5
   3   5 -10 177.296 12.8170   2
   3   5  -9 55.8864 10.1293   2
   3   5  -9 39.5148 9.65065   5
   3   5  -8 1.76089 7.79141   2
   3   5  -8 1.88897 8.33193   5
   3   5  -7 5.95110 8.16052   5
   3   5  -7-2.39400 7.75712   2
   3   5  -7 6.39242 6.64345   3
   3   5  -6 0.16933 7.98197   5
   3   5  -6 2.34218 6.80550   2
   3   5  -6-1.41659 6.96266   3
   3   5  -5 4.74921 6.80211   3
   3   5  -5 4.50219 5.61395   2
   3   5  -5 4.84085 7.00173   5
   3   5  -4-0.53237 5.03908   2
   3   5  -4-7.82581 6.98180   3
   3   5  -4 3.73606 6.77884   5
   3   5  -3 24.0237 6.02461   5
   3   5  -3 40.6500 7.94267   3
   3   5  -2 5.19770 5.40197   5
   3   5  -2 5.35977 6.99111   3
   3   5  -1 138.133 10.4553   3
   3   5   0 20.6653 8.22078   3
   3   5   1 17.6294 7.72315   3
   3   5   2 36.8181 8.89107   3
   3   5   3 43.2289 9.39374   3
   3   5   4-5.70149 12.8295   0
  -3  -5  -4 10.1251 12.2920   6
  -3  -5  -5-7.49062 12.5334   6
   3   5   5-1.31019 13.2712   0
   3   5   6-6.05742 14.2327   0
  -3  -5  -6-0.86312 11.2967   6
   3   5   7 10.3046 14.0643   0
  -3  -5  -7 8.29037 15.8861   6
  -3  -5  -8 34.0103 14.3297   6
   3   6 -14 41.1952 14.8380   5
  -3  -6  14 24.5238 13.3151   1
   3   6 -14 10.1768 14.7475   2
   3   6 -13 11.4220 11.7743   2
   3   6 -13 17.9983 13.8768   5
  -3  -6  13 2.10286 12.2368   1
   3   6 -12 8.52249 11.9431   2
   3   6 -12 4.03380 12.5383   5
   3   6 -11 9.33940 11.5141   2
   3   6 -11 2.32717 10.7259   5
   3   6 -10 58.4219 11.8808   2
   3   6 -10 50.9753 12.8784   5
   3   6  -9 13.3900 10.1233   5
   3   6  -9 27.8043 8.81870   2
   3   6  -8 70.8766 8.11877   3
   3   6  -8 59.0385 10.0284   5
   3   6  -8 76.7619 9.45087   2
   3   6  -7 109.608 8.21623   3
   3   6  -7 116.578 9.21296   2
   3   6  -7 97.3367 10.0710   5
   3   6  -6 90.4472 7.79851   2
   3   6  -6 78.7375 9.54968   5
   3   6  -6 79.1049 9.06560   3
   3   6  -5 31.8400 5.72155   2
   3   6  -5 22.1478 7.39566   5
   3   6  -5 24.4584 8.49256   3
   3   6  -4 22.7747 9.03711   3
   3   6  -4 32.4692 6.98112   5
   3   6  -3 23.8921 6.06766   5
   3   6  -3 13.6466 8.37332   3
   3   6  -2-4.51279 8.94322   3
   3   6  -1 6.01051 8.88963   3
   3   6   0 64.4769 9.06596   3
   3   6   1 32.9205 8.84254   3
   3   6   2-4.79162 9.03818   3
   3   6   3 8.65241 11.2207   0
   3   6   3 20.8185 8.76143   3
   3   6   4 3.22098 13.5900   0
  -3  -6  -4 10.1119 12.9997   6
   3   6   5-2.36494 14.1003   0
  -3  -6  -5 18.3827 11.2383   6
   3   6   6 15.4920 15.3831   0
  -3  -6  -6-8.26281 13.2449   6
  -3  -6  -7-18.3648 13.0989   6
   3   7 -14 23.3549 15.9146   5
  -3  -7  14-18.1300 13.4153   1
   3   7 -14-4.21558 14.0208   2
  -3  -7  13 17.1957 12.4970   1
   3   7 -13-14.0754 11.7822   2
   3   7 -13 42.1252 12.2237   5
   3   7 -12 5.67029 10.6035   2
   3   7 -12 12.3324 12.1653   5
   3   7 -11 3.22477 11.8122   2
   3   7 -11 3.03371 13.0319   5
   3   7 -10-0.05700 10.4292   2
   3   7 -10 16.6365 12.0140   5
   3   7  -9 22.4219 9.89452   2
   3   7  -9 16.3360 11.5123   5
   3   7  -8 59.4833 9.71167   2
   3   7  -8 83.2571 9.21535   3
   3   7  -8 72.9257 11.5075   5
   3   7  -7 98.7398 10.9991   5
   3   7  -7 102.227 8.99162   2
   3   7  -7 101.699 9.89820   3
   3   7  -6 3.03357 8.32396   5
   3   7  -6-1.06736 8.29107   3
   3   7  -5 58.0818 9.32008   3
   3   7  -5 47.9802 8.61408   5
   3   7  -4 93.2767 11.0387   3
   3   7  -4 78.9135 8.40167   5
   3   7  -3 73.0304 10.8440   3
   3   7  -2 6.54147 8.36382   3
   3   7  -1 19.3396 9.04680   3
   3   7   0 1.86930 10.2035   3
   3   7   1 71.1505 11.0293   3
   3   7   2 10.1292 11.5060   0
   3   7   2-8.55354 6.82147   3
   3   7   3 13.2446 12.6061   0
   3   7   4 6.32293 14.0319   0
  -3  -7  -4 51.1653 15.3386   6
   3   7   5 1.88306 13.9801   0
  -3  -7  -5 48.9154 15.1164   6
  -3  -7  -6 36.9735 14.3987   6
  -3  -8  14-34.2666 14.1567   1
   3   8 -14 12.2175 14.8772   2
   3   8 -13 9.97584 13.2773   2
  -3  -8  13 17.5625 12.5985   1
   3   8 -13 27.9412 15.5071   5
   3   8 -12 5.55417 12.3443   2
   3   8 -12 1.86964 12.5062   5
   3   8 -11 2.74401 11.5448   2
   3   8 -11 3.99920 13.1845   5
   3   8 -10 2.74974 9.77114   2
   3   8 -10 21.7090 11.8507   5
   3   8  -9 17.4751 10.6149   5
   3   8  -8 37.0294 11.1874   5
   3   8  -8 49.5077 9.54149   3
   3   8  -7 500.199 16.2863   3
   3   8  -7 531.036 17.2640   5
   3   8  -6 9.97507 9.42917   3
   3   8  -6 7.75984 8.83643   5
   3   8  -5 39.3411 9.20445   5
   3   8  -5 34.1418 10.4689   3
   3   8  -4 8.93708 9.47985   3
   3   8  -3 52.6899 10.6727   3
   3   8  -2 97.1317 10.8531   3
   3   8  -1 1.38004 9.29137   3
   3   8  -1 27.3461 11.3896   0
   3   8   0 34.7187 11.0865   0
   3   8   0-3.39240 10.8014   3
   3   8   1 3.56519 11.9985   0
   3   8   1-8.94928 9.91813   3
   3   8   2-38.3152 9.53291   3
   3   8   2 7.76315 12.7770   0
   3   8   3-16.0776 13.0676   0
   3   8   4 47.9634 15.6443   0
  -3  -8  -4 76.5464 14.4198   6
   3   9 -14-8.80177 15.2180   2
   3   9 -13 21.8525 14.3517   2
  -3  -9  13 31.9670 15.6271   1
  -3  -9  12 27.2754 15.3399   1
   3   9 -12 33.8836 13.9765   5
   3   9 -11 17.9112 13.5192   5
   3   9 -10 11.3813 12.3354   5
   3   9  -9-2.00723 10.5405   5
   3   9  -8-1.27216 9.85507   3
   3   9  -8 24.5101 10.3801   5
   3   9  -7 103.683 11.7677   5
   3   9  -7 88.4236 11.3898   3
   3   9  -6 282.482 14.0076   5
   3   9  -6 344.659 15.4468   3
   3   9  -5 84.0982 12.6975   3
   3   9  -4 19.3287 10.5204   3
   3   9  -3-1.81838 11.1920   3
   3   9  -2 16.2458 11.5607   3
   3   9  -1 12.6279 10.5525   3
   3   9   0 1.72763 11.8593   0
   3   9   1 3.41248 13.3584   0
   3   9   1 6.14432 10.7888   3
   3   9   2 8.93602 12.3184   0
   3   9   2 9.60804 10.4556   3
   3   9   3 30.5952 14.7228   0
  -3 -10  12-9.47259 15.2387   1
   3  10 -11 27.2308 13.3177   5
   3  10 -10 27.7839 12.4810   5
   3  10  -9 7.31315 9.69175   3
   3  10  -9 7.58228 11.1414   5
   3  10  -8 15.5165 10.5434   3
   3  10  -8 17.3594 11.6019   5
   3  10  -7-12.5414 10.4616   3
   3  10  -7 21.7412 11.2275   5
   3  10  -6 25.9518 10.5265   3
   3  10  -5 3.49462 11.8158   3
   3  10  -4 1.05126 11.6198   3
   3  10  -3 108.978 13.2687   3
   3  10  -2-23.7833 10.7245   3
   3  10  -1-1.33339 11.7782   3
   3  10   0 22.2969 11.2682   3
   3  10   1 30.6951 13.8783   0
   3  10   1 12.8636 11.3267   3
   3  10   2 22.4563 15.5903   0
   3  10   2 2.26278 12.6400   3
  -3 -11  12 47.5595 16.0012   1
  -3 -11  11 9.42163 14.8878   1
   3  11  -9 25.9942 10.9726   3
   3  11  -8 31.4974 11.8115   3
   3  11  -7-10.5621 10.4122   3
   3  11  -6 29.3845 12.4180   3
   3  11  -5 5.86236 11.2384   3
   3  11  -4 3.31422 12.9061   3
   3  11  -3-33.6131 11.1502   3
   3  11  -2 17.1757 10.6956   3
   3  11  -1 4.38542 14.3118   3
   3  11   0 11.9742 12.3910   3
  -3 -12  11 5.08153 14.9700   1
  -3 -12  10 21.6149 12.6749   1
   3  12  -9 31.4984 11.5539   3
   3  12  -8-16.2425 12.5187   3
   3  12  -7 19.6238 12.9813   3
   3  12  -6-5.36125 12.9397   3
   3  12  -4 7.45766 12.3155   3
   3  12  -3 1.68158 13.1775   3
   3  12  -2 3.57910 14.6623   3
  -3 -13  10 16.3780 14.3671   1
   3  13  -9-33.7952 13.8661   3
  -4  15  -5 56.3878 14.8296   3
  -4  15  -6 5.70864 14.6916   3
  -4  14   1-3.97051 13.6445   3
  -4  14   0 40.9596 12.9171   3
  -4  14  -1 15.1991 11.5471   3
  -4  14  -2 32.1464 12.5683   3
  -4  14  -3 35.4091 14.7531   3
  -4  14  -4-17.0241 13.9948   3
  -4  14  -5 40.4676 13.0113   3
  -4  14  -6 0.69880 13.7109   3
  -4  14  -7 0.57479 12.7180   4
  -4  14  -8 9.29330 13.7953   4
  -4  13   4-4.35070 14.2532   3
  -4  13   3 31.8548 13.1593   3
  -4  13   2 37.5416 11.2446   3
  -4  13   1 42.8476 12.4386   3
  -4  13   0 0.35067 13.1800   3
  -4  13  -1 4.76348 13.4680   3
  -4  13  -2 43.9302 13.7273   3
  -4  13  -3 23.9889 12.0232   3
  -4  13  -4 24.9722 12.6503   3
  -4  13  -5 26.5834 12.8113   4
  -4  13  -5 11.7949 12.3720   3
  -4  13  -6-0.51391 11.3390   4
  -4  13  -6 13.0150 11.8997   3
  -4  13  -7 12.3425 12.7975   4
  -4  13  -8 36.1420 13.9873   4
  -4  13  -9 75.0214 14.0141   4
  -4  13 -10 23.1335 13.3320   4
  -4  12   5-1.10958 14.7120   0
  -4  12   4 29.9776 13.8004   0
  -4  12   4 18.3776 12.0711   3
  -4  12   3 21.7081 14.3471   3
  -4  12   2 18.9262 12.0133   3
  -4  12   1-19.4049 11.4591   3
  -4  12   0 11.4044 12.3929   3
  -4  12  -1 0.07692 12.7749   3
  -4  12  -2 40.4296 13.2297   3
  -4  12  -3-12.7621 12.8778   3
  -4  12  -4 66.5849 13.7604   4
  -4  12  -4 48.7685 12.7877   3
  -4  12  -5-8.38906 9.76323   4
  -4  12  -5 9.44299 10.6951   3
  -4  12  -6 31.2936 11.4845   4
  -4  12  -6-5.73627 10.6696   3
  -4  12  -7 7.69516 12.2654   4
  -4  12  -8 29.5100 12.9099   4
  -4  12  -9 2.21667 14.0009   4
  -4  12 -10-16.0598 13.4830   4
  -4  11   6-4.24732 12.5947   0
  -4  11   5 26.3198 13.8898   0
  -4  11   5 31.4458 10.2121   3
  -4  11   4 46.5541 12.7357   0
  -4  11   4 83.0027 13.1552   3
  -4  11   3 25.7771 12.1757   0
  -4  11   3 16.0215 12.4862   3
  -4  11   2-12.3370 10.2302   0
  -4  11   2-15.6376 12.2287   3
  -4  11   1-23.5423 11.6703   3
  -4  11   0 41.7858 13.2357   3
  -4  11  -1 19.1773 12.9453   3
  -4  11  -2 1.08154 12.1487   3
  -4  11  -3 2.59721 10.4353   4
  -4  11  -3 8.38540 12.2737   3
  -4  11  -4 11.3871 10.6134   3
  -4  11  -4-7.96767 10.6672   4
  -4  11  -5 3.66234 11.0298   3
  -4  11  -5 9.57686 10.8689   4
  -4  11  -6-9.88462 11.5345   4
  -4  11  -6 8.84739 10.8423   3
  -4  11  -7 11.8577 10.9114   4
  -4  11  -8 35.4399 11.8954   4
  -4  11  -9-21.5740 12.5391   4
  -4  11  -9 15.3780 12.9910   2
  -4  11 -10 29.1996 12.4492   4
  -4  11 -10 12.2427 11.1289   2
  -4  11 -11-11.9978 15.5827   2
  -4  10   7 21.7280 14.9754   0
  -4  10   6 17.6624 13.1793   0
  -4  10   5-1.26100 12.8994   0
  -4  10   5-10.6654 9.23115   3
  -4  10   4 35.1929 11.3105   0
  -4  10   4 76.5146 11.7916   3
  -4  10   3 56.3234 11.3316   0
  -4  10   3 48.6885 14.1409   3
  -4  10   2 1.43581 9.23294   0
  -4  10   2-5.71774 10.0716   3
  -4  10   1 38.3564 9.57613   0
  -4  10   1 24.6549 11.8485   3
  -4  10   0 25.7942 12.5067   3
  -4  10  -1 10.0811 11.0100   3
  -4  10  -2 10.8603 11.8886   3
  -4  10  -2 8.22622 10.2753   4
  -4  10  -3 26.7105 10.0231   4
  -4  10  -3 4.45768 11.2874   3
  -4  10  -4 121.765 13.0397   4
  -4  10  -4 110.545 12.9267   3
  -4  10  -5 7.57709 10.1635   3
  -4  10  -5 11.7322 9.84379   4
  -4  10  -6 27.6161 10.7187   4
  -4  10  -6-5.37485 9.02206   2
  -4  10  -7-2.69026 10.7672   4
  -4  10  -7-5.09301 9.98652   2
  -4  10  -8 76.2602 12.2657   2
  -4  10  -8 64.6015 13.5948   4
  -4  10  -9 81.3119 12.8244   2
  -4  10  -9 91.2627 13.9866   4
  -4  10 -10-13.0200 12.8125   4
  -4  10 -10 4.27449 13.0393   2
  -4  10 -11-3.51903 12.0893   2
  -4   9   7 4.63250 12.4070   0
  -4   9   6 35.2039 13.2654   0
  -4   9   5 35.4019 9.96593   3
  -4   9   5 34.8145 11.9219   0
  -4   9   4 122.504 12.4601   3
  -4   9   4 48.9796 12.3481   0
  -4   9   3 57.8502 11.3875   0
  -4   9   3 36.3450 10.3999   3
  -4   9   2 309.610 16.6511   3
  -4   9   2 335.801 14.6880   0
  -4   9   1 272.067 14.6263   3
  -4   9   1 243.989 12.4372   0
  -4   9   0-3.68872 10.6292   3
  -4   9   0-3.97450 8.26488   0
  -4   9  -1 11.4861 8.51832   4
  -4   9  -1 17.7206 11.2667   3
  -4   9  -2 51.9954 10.5274   4
  -4   9  -2 60.2876 11.1540   3
  -4   9  -3 70.4025 11.1217   3
  -4   9  -3 44.6598 10.7202   4
  -4   9  -4 62.6374 10.5977   4
  -4   9  -4 67.9636 9.10351   2
  -4   9  -4 35.6345 8.27808   3
  -4   9  -5 1.01124 10.4562   4
  -4   9  -5 17.8644 9.82998   3
  -4   9  -5 0.49064 8.71885   2
  -4   9  -6 11.2807 10.9691   4
  -4   9  -6-1.98449 9.28106   2
  -4   9  -7 15.7840 12.5469   4
  -4   9  -7-4.01969 9.94583   2
  -4   9  -8 42.3053 13.1076   4
  -4   9  -8 50.1860 12.3675   2
  -4   9  -9 62.8003 11.9971   2
  -4   9  -9 93.1206 14.7918   4
  -4   9 -10 13.0595 11.4959   2
  -4   9 -11 14.8257 12.9306   2
  -4   8   9-4.28275 14.1834   0
  -4   8   8-2.30270 12.0898   0
  -4   8   7 25.8289 13.2982   0
  -4   8   6 54.2236 13.4267   0
  -4   8   5 12.2731 12.0201   0
  -4   8   5-1.32860 10.2348   3
  -4   8   4-0.35901 9.80955   0
  -4   8   4 13.6926 10.4463   3
  -4   8   3 56.1354 11.4809   3
  -4   8   3 128.005 11.8968   0
  -4   8   2-7.72672 10.5799   0
  -4   8   2 4.58066 10.2243   3
  -4   8   1 10.8062 7.90170   0
  -4   8   1 10.6997 9.21704   3
  -4   8   0 14.9249 8.92259   4
  -4   8   0 17.5319 6.95004   0
  -4   8  -1 14.8143 7.89942   4
  -4   8  -1 4.83455 5.58476   2
  -4   8  -1 13.5262 6.84007   0
  -4   8  -2 2.26712 7.65262   4
  -4   8  -2 6.76397 6.57150   2
  -4   8  -3 230.777 12.6028   4
  -4   8  -3 216.342 10.8031   2
  -4   8  -4 43.5908 11.4486   4
  -4   8  -4 42.6671 8.49540   2
  -4   8  -5 6.62737 9.79683   4
  -4   8  -5-0.79482 8.40492   2
  -4   8  -6 144.686 11.5975   2
  -4   8  -7 4.84225 11.6157   2
  -4   8  -8 3.28063 11.5020   2
  -4   8  -9 3.65763 11.0857   2
  -4   8 -10 69.7406 13.5011   2
  -4   8 -11 20.7153 14.2813   2
  -4   7  10-29.3179 15.4137   0
  -4   7   9 5.43302 11.6231   0
  -4   7   8 99.2852 14.9817   0
  -4   7   7 16.8114 11.9638   0
  -4   7   6-1.45341 11.2638   0
  -4   7   6-7.63493 9.39028   3
  -4   7   5 43.2453 11.1842   0
  -4   7   5 10.4305 9.41974   3
  -4   7   4 15.0323 10.0744   0
  -4   7   4 0.59041 8.95799   3
  -4   7   3 23.5179 9.54926   0
  -4   7   3 17.8003 9.76159   3
  -4   7   2 21.3735 8.59207   0
  -4   7   1 11.2083 8.55659   4
  -4   7   1 15.1301 7.56010   0
  -4   7   0 183.485 10.2636   4
  -4   7   0 182.166 9.37284   0
  -4   7  -1 19.2791 7.03799   0
  -4   7  -1 37.9968 8.59887   4
  -4   7  -1 34.9798 6.44124   2
  -4   7  -2 3.38636 5.65358   0
  -4   7  -2 0.96480 8.49354   4
  -4   7  -2 5.31792 6.52877   2
  -4   7  -3 93.4690 10.3889   4
  -4   7  -3 92.2253 8.95150   2
  -4   7  -4-6.80533 8.11036   2
  -4   7  -5-0.69874 8.87563   2
  -4   7  -6 14.0297 10.9966   2
  -4   7  -7 56.0138 11.7060   2
  -4   7  -8 141.568 14.1560   2
  -4   7  -9-7.43285 12.4354   2
  -4   7 -10 28.3242 14.1575   2
  -4   7 -11 37.7359 14.3098   2
  -4   6  11-8.77861 14.2774   0
  -4   6  10-10.3082 11.2940   0
  -4   6   9 11.4092 13.3505   0
  -4   6   8 20.3270 12.7850   0
  -4   6   7 4.93952 11.2797   0
  -4   6   6 12.8196 10.8641   0
  -4   6   6 29.6219 8.70961   3
  -4   6   5 28.0782 9.44733   0
  -4   6   5 32.8352 9.18392   3
  -4   6   4 24.4796 9.23053   0
  -4   6   3 2.00744 8.34922   0
  -4   6   2 0.47519 7.24228   4
  -4   6   2-2.05523 6.94238   0
  -4   6   1 0.88490 6.90227   4
  -4   6   1 1.09922 6.92780   0
  -4   6   0 208.175 9.90961   4
  -4   6   0 219.455 9.44333   0
  -4   6  -1 154.413 10.1413   4
  -4   6  -1 150.569 7.79435   0
  -4   6  -2 5.08422 5.87676   0
  -4   6  -2 5.37309 7.00055   2
  -4   6  -3 72.7650 9.19951   2
  -4   6  -3 57.6180 5.80117   0
  -4   6  -4 36.3493 9.22593   2
  -4   6  -4 32.2347 6.41841   0
  -4   6  -5 53.4865 9.85597   2
  -4   6  -6 103.121 11.9736   2
  -4   6  -7 34.1901 11.5021   2
  -4   6  -8 42.0640 12.4239   2
  -4   6  -9 94.9662 13.2459   2
  -4   6 -10-6.05947 14.1137   2
  -4   6 -11-3.13525 14.7988   2
  -4   5  11-2.76364 11.9352   0
  -4   5  10 4.81237 11.7941   0
  -4   5   9 2.59599 11.6605   0
  -4   5   8 1.61561 11.5855   0
  -4   5   7 11.4406 10.5722   0
  -4   5   6 17.2655 10.8300   0
   4  -5  -6 36.1465 7.38786   2
  -4   5   6 15.7903 8.63467   3
  -4   5   5 316.645 14.3856   0
   4  -5  -5 325.200 10.4916   2
  -4   5   4 11.0235 8.54065   0
  -4   5   3 41.2797 8.91529   0
  -4   5   2 98.9644 7.72241   4
  -4   5   2 100.115 9.04331   0
  -4   5   1 56.4126 6.91609   4
  -4   5   1 61.1994 7.59841   0
  -4   5   0 3687.53 31.7228   4
  -4   5   0 3418.39 26.7947   0
  -4   5  -1 73.3633 7.22837   0
  -4   5  -2 57.2150 6.42421   0
  -4   5  -2 58.5483 8.45232   2
  -4   5  -3 51.2503 8.53501   2
  -4   5  -3 40.0608 6.53846   0
  -4   5  -4 0.88109 6.51712   0
  -4   5  -4-1.63161 8.77999   2
  -4   5  -5 2.84173 15.4231   2
  -4   5  -6 28.2753 10.1990   2
  -4   5  -7-1.14458 10.9080   2
  -4   5  -8 11.5705 10.7076   2
  -4   5  -9-19.8452 10.5062   2
  -4   5 -10 4.63520 13.6453   2
  -4   5 -11 14.1949 12.2472   2
  -4   4  12 28.9313 13.6595   0
  -4   4  11-12.2328 12.8538   0
  -4   4  10-2.56481 12.6478   0
   4  -4  -9 10.4007 9.32533   2
  -4   4   9 11.5810 11.6902   0
  -4   4   8 1.28377 11.1059   0
   4  -4  -8 17.9366 8.65969   2
  -4   4   7 59.4693 11.9096   0
   4  -4  -7 85.4627 9.47637   2
   4  -4  -6-0.10179 7.11899   2
  -4   4   6-4.70840 8.81779   0
  -4   4   5 404.851 14.1383   0
   4  -4  -5 402.554 11.3924   2
  -4   4   4 4.96046 8.28840   0
  -4   4   3 432.452 10.1779   4
  -4   4   3 445.996 12.8447   0
  -4   4   2 243.904 8.33321   4
  -4   4   2 221.260 10.4427   0
  -4   4   1 1571.89 19.1295   4
  -4   4   1 1414.83 17.8069   0
  -4   4   0 50.2246 6.85706   0
  -4   4  -1 375.729 9.76606   0
  -4   4  -2 31.7390 8.41659   2
  -4   4  -2 31.5932 6.67999   0
  -4   4  -3 1.38976 8.32629   2
  -4   4  -3-0.58401 6.56525   0
  -4   4  -4 487.113 14.5940   2
  -4   4  -5 97.2508 11.1800   2
  -4   4  -6 13.5187 9.77548   2
  -4   4  -7 14.8860 11.5018   2
  -4   4  -8-10.3290 12.3327   2
  -4   4  -9-5.98901 12.3260   2
  -4   4 -10 6.25703 13.4863   2
  -4   4 -11 11.0271 12.2423   2
  -4   3  13 30.9025 15.5473   0
  -4   3  12-5.61371 12.8335   0
   4  -3 -11 9.09292 11.5079   2
  -4   3  11 9.48789 11.8780   0
   4  -3 -10 38.2240 11.4614   2
  -4   3  10 11.4873 12.4246   0
   4  -3  -9 35.9046 9.96895   2
  -4   3   9 3.73552 11.1426   0
  -4   3   8 7.64943 9.64581   0
   4  -3  -8 7.02213 8.96126   2
  -4   3   7 31.7217 9.32533   0
   4  -3  -7 51.9767 7.34206   5
   4  -3  -7 56.7926 8.60327   2
   4  -3  -6 32.6389 7.70124   2
  -4   3   6 24.1322 9.14423   0
  -4   3   5 132.920 9.00399   0
   4  -3  -5 126.232 8.59019   2
  -4   3   4 619.908 16.0852   0
  -4   3   3 64.8681 5.24568   4
  -4   3   3 42.8366 6.81228   0
  -4   3   2 165.341 9.12528   0
  -4   3   2 178.566 7.62333   4
  -4   3   1 1983.77 19.2528   0
  -4   3   0 140.856 8.18001   0
  -4   3  -1 318.873 9.85309   0
  -4   3  -2 427.749 11.9311   2
  -4   3  -2 443.592 11.7464   0
  -4   3  -3 32.9800 7.79658   0
  -4   3  -3 21.2483 8.82932   2
  -4   3  -4 234.172 11.9116   2
  -4   3  -5-4.90940 7.98270   2
  -4   3  -6 9.94116 9.78235   2
  -4   3  -7 3.62561 9.37256   2
  -4   3  -8 35.4846 11.0535   2
  -4   3  -9 16.5354 11.7296   2
  -4   3 -10 17.1461 12.1047   2
   4  -2 -13 20.7654 15.4081   2
  -4   2  13-17.9070 14.9486   0
   4  -2 -12-7.65098 11.8858   2
  -4   2  12 18.5018 12.9915   0
   4  -2 -11 17.9990 10.9377   2
  -4   2  11-0.26981 10.8606   0
  -4   2  10 178.405 13.8963   0
   4  -2 -10 189.232 14.7461   2
   4  -2  -9 7.24204 8.55169   2
  -4   2   9 0.15839 9.78638   0
   4  -2  -8 51.9022 9.63332   2
  -4   2   8 49.4908 9.30448   0
   4  -2  -8 42.8141 8.42508   5
   4  -2  -7-7.25955 7.26996   2
  -4   2   7-0.56946 7.94955   0
   4  -2  -7-5.05788 6.54455   5
   4  -2  -6 32.7961 6.79727   5
   4  -2  -6 29.3793 8.23823   2
  -4   2   6 53.5755 8.26706   0
  -4   2   5 362.117 11.6368   0
   4  -2  -5 397.016 11.8132   2
  -4   2   4 224.891 9.53349   0
  -4   2   4 230.118 5.44162   4
   4  -2  -4 211.539 9.22470   2
  -4   2   3 275.889 6.76612   4
  -4   2   3 223.704 9.81923   0
  -4   2   2 0.38844 6.31236   0
  -4   2   1 145.128 7.75211   0
  -4   2   0 54.2420 6.59229   0
  -4   2  -1 12.9219 6.76668   0
  -4   2  -2 15.0737 7.32120   0
  -4   2  -2 7.07442 8.23073   2
  -4   2  -3 123.481 9.64364   2
  -4   2  -4 72.8430 8.89299   2
  -4   2  -5 2.58037 7.89475   2
  -4   2  -6 0.27404 10.4451   2
  -4   2  -7 5.41187 9.64226   2
  -4   2  -8-6.65304 11.9031   2
  -4   2  -9 36.7654 13.1551   2
  -4   2 -10 8.53606 13.7001   2
   4  -1 -14-21.9892 12.2799   2
   4  -1 -13 24.8442 13.2313   2
   4  -1 -12 2.83610 11.3279   2
   4  -1 -11-6.97430 11.2644   2
  -4   1  11 3.46386 10.3459   0
  -4   1  10 269.098 14.4524   0
   4  -1 -10 262.935 14.7102   2
  -4   1   9 299.380 13.3610   0
   4  -1  -9 282.550 14.1484   2
   4  -1  -9 267.630 11.8882   5
   4  -1  -8-1.45696 7.51520   2
  -4   1   8 3.49237 8.38879   0
   4  -1  -8 19.1702 7.29413   5
   4  -1  -7 125.350 8.94220   5
  -4   1   7 105.220 9.32962   0
   4  -1  -7 121.088 10.3366   2
  -4   1   6 0.95857 7.61783   0
   4  -1  -6-0.43027 7.97188   2
   4  -1  -6-1.36274 6.69001   5
  -4   1   5 85.2378 7.97632   0
   4  -1  -5 95.6513 8.70691   2
   4  -1  -4 16.3873 5.92432   2
  -4   1   4 17.3835 6.66998   0
  -4   1   3 162.843 8.58443   0
  -4   1   2-2.83504 7.00580   0
  -4   1   1 34.9067 7.00161   0
  -4   1   1 27.1107 6.15460   6
  -4   1   0 8.56034 6.91661   6
  -4   1   0-1.03475 6.91959   0
  -4   1  -1 81.9676 8.96351   6
  -4   1  -1 91.1150 8.06041   0
  -4   1  -2 68.4905 9.04589   6
  -4   1  -2 67.4904 8.69379   2
  -4   1  -2 74.8265 8.87920   0
  -4   1  -3 3.70849 8.72918   6
  -4   1  -3 4.08006 7.68819   2
  -4   1  -4 77.2153 10.4648   2
  -4   1  -4 94.2807 10.7746   6
  -4   1  -5 44.1986 10.6308   6
  -4   1  -5 43.6998 10.1983   2
  -4   1  -6 104.233 11.6899   2
  -4   1  -6 83.7076 11.4171   6
  -4   1  -7-7.40204 11.2145   2
  -4   1  -7 10.8127 9.67068   6
  -4   1  -8-16.0366 10.8222   2
   4  -1   9 12.6378 13.2901   0
  -4   1  -9-3.29161 12.9110   2
  -4   1 -10-3.43153 12.7192   2
   4   0 -14 58.2137 14.8388   2
   4   0 -13 12.7018 13.9595   2
   4   0 -12 56.4176 13.2799   2
   4   0 -11 44.4707 12.1127   2
  -4   0  11 31.1272 10.3529   0
   4   0 -10 26.0326 10.7242   2
   4   0 -10 8.41946 7.71217   5
  -4   0  10-3.09907 8.80347   0
   4   0  -9 5.22840 8.07366   5
   4   0  -9 2.98968 9.42552   2
  -4   0   9-2.03010 8.17482   0
   4   0  -8 14.7728 8.08844   5
   4   0  -8 26.1787 7.97189   2
  -4   0   8 11.5621 7.49417   0
   4   0  -7 119.719 9.33891   5
  -4   0   7 101.736 8.60474   0
   4   0  -7 73.2198 9.91385   2
   4   0  -6 80.0254 8.38715   5
  -4   0   6 74.4143 7.86290   0
   4   0  -6 58.9109 7.17982   2
  -4   0   5 151.879 8.98997   0
   4   0  -5 178.524 9.38938   2
  -4   0   4 3.43512 6.32817   0
   4   0  -4 3.76526 6.30820   2
   4   0  -3 46.8934 6.94584   3
  -4   0   3 39.7327 4.23962   6
  -4   0   3 60.9116 7.03395   0
  -4   0   2 226.943 7.56108   6
   4   0  -2 257.674 10.0303   3
  -4   0   2 241.044 8.69163   0
   4   0  -1 1.27107 7.63481   3
  -4   0   1 2.91889 6.38741   6
  -4   0   1 3.60731 7.53848   0
   4   0   0 160.150 9.11916   3
  -4   0   0 163.517 9.35605   6
  -4   0   0 162.736 9.33932   0
   4   0   1 328.759 10.6468   3
  -4   0  -1 292.356 11.3174   0
  -4   0  -1 316.368 11.8063   6
  -4   0  -2 364.032 13.6785   6
   4   0   2 390.787 11.1961   3
  -4   0  -2 356.087 11.9077   2
  -4   0  -3 33.1795 9.70862   6
   4   0   3 35.5101 6.64637   3
  -4   0  -3 28.2656 8.14820   2
  -4   0  -4 6.27411 9.46540   6
  -4   0  -4 16.7412 8.96578   2
  -4   0  -5 53.7430 10.8723   6
  -4   0  -5 30.8252 10.1663   2
  -4   0  -6 40.1090 10.1638   2
  -4   0  -6 59.8885 11.5473   6
  -4   0  -7 23.6834 10.8160   6
  -4   0  -7 15.4050 10.8714   2
  -4   0  -8-0.17058 10.6452   2
  -4   0  -8-8.81704 9.96168   6
  -4   0  -9 1.93195 12.0340   2
  -4   0  -9 35.1432 10.8891   6
   4   0  10 3.17797 15.1526   0
   4   1 -14-9.50956 13.9595   2
   4   1 -13 38.1198 13.2461   2
   4   1 -12-7.40011 12.1000   2
   4   1 -12-7.51071 9.96180   5
   4   1 -11 56.2101 10.1293   5
   4   1 -11 48.6559 13.1040   2
  -4  -1  10 121.573 9.95339   0
   4   1 -10 85.9759 11.5350   2
   4   1 -10 127.640 11.2673   5
   4   1  -9 127.807 10.3657   5
  -4  -1   9 149.169 9.52927   0
   4   1  -9 135.028 11.1336   2
   4   1  -8 13.7224 9.07301   2
   4   1  -8 4.55463 8.05397   5
  -4  -1   8 12.2014 6.48644   0
  -4  -1   7 146.702 8.77952   0
   4   1  -7 110.082 10.6658   2
   4   1  -7 173.507 10.2685   5
   4   1  -6 1.98329 6.71613   5
   4   1  -6 3.91485 7.15728   2
  -4  -1   6 4.28498 6.21616   0
   4   1  -5 53.1153 8.42433   5
  -4  -1   5 51.5126 6.62842   0
   4   1  -5 70.1191 6.96865   3
   4   1  -5 53.2920 7.77481   2
  -4  -1   4 48.1786 4.05665   6
   4   1  -4 45.3386 7.26233   2
   4   1  -4 50.2261 7.33313   3
  -4  -1   4 19.3696 6.81493   0
   4   1  -3 432.583 11.6169   3
  -4  -1   3 436.212 10.2701   0
  -4  -1   3 453.864 8.97879   6
  -4  -1   2 8.56894 6.12748   6
   4   1  -2-0.70837 6.74042   3
  -4  -1   2-5.25732 6.17771   0
   4   1  -1 213.779 9.56605   3
  -4  -1   1 186.863 9.46532   6
  -4  -1   1 166.106 10.0153   0
   4   1   0 295.666 10.2768   3
  -4  -1   0 278.959 11.3147   6
  -4  -1   0 301.221 11.3543   0
  -4  -1  -1 420.616 13.9064   6
   4   1   1 457.112 11.9470   3
  -4  -1  -2 240.102 12.6526   6
   4   1   2 242.901 9.99202   3
  -4  -1  -2 242.865 10.4906   2
   4   1   3 224.372 10.3088   3
  -4  -1  -3 247.246 12.9596   6
  -4  -1  -3 267.858 11.2087   2
  -4  -1  -4 434.140 17.0994   6
  -4  -1  -4 434.071 14.2236   2
  -4  -1  -5 16.4795 11.2296   6
  -4  -1  -5 38.1968 9.58099   2
  -4  -1  -6 13.7925 9.52917   2
  -4  -1  -7 3.06754 10.6985   6
  -4  -1  -7-18.9410 9.97638   2
  -4  -1  -8 87.9673 9.46361   6
   4   1   8-0.46545 14.3489   0
   4   1   9-2.24658 16.5687   0
  -4  -1  -9-8.70923 12.8586   6
   4   2 -14 20.7689 15.0703   2
   4   2 -13 35.9068 13.7391   2
   4   2 -13 9.52122 11.1213   5
   4   2 -12 3.35869 11.2479   2
   4   2 -12 13.8292 10.3640   5
   4   2 -11 82.4743 12.3362   2
   4   2 -11 95.5255 11.2657   5
   4   2 -10-4.07860 10.3391   2
   4   2 -10-7.10950 9.73406   5
   4   2  -9 98.9585 10.5848   2
   4   2  -9 123.542 11.1680   5
   4   2  -8 8.22605 8.82805   5
   4   2  -8 13.6541 7.48885   2
  -4  -2   8 4.10057 6.62366   0
   4   2  -7 95.4196 6.99048   3
   4   2  -7 86.2755 9.56906   2
  -4  -2   7 30.1664 7.01623   0
   4   2  -7 87.2938 9.39939   5
   4   2  -6 269.061 9.49109   3
   4   2  -6 258.362 10.6342   2
  -4  -2   6 225.110 8.46995   0
   4   2  -6 270.825 11.1830   5
   4   2  -5 112.617 7.69907   3
  -4  -2   5 82.2333 7.16249   0
   4   2  -5 104.438 8.50480   2
   4   2  -5 109.483 9.25578   5
   4   2  -4 45.4004 7.94652   5
  -4  -2   4 47.0064 5.81112   0
   4   2  -4 36.0274 6.79811   3
   4   2  -3 74.7653 8.30483   3
  -4  -2   3 82.5041 7.12495   0
   4   2  -2 78.9412 8.45208   3
  -4  -2   2 89.1512 7.62802   0
  -4  -2   1 299.210 11.3647   0
   4   2  -1 296.962 10.6145   3
   4   2   0 223.388 10.4197   3
  -4  -2   0 251.666 11.5834   6
   4   2   1 35.9704 7.50671   3
  -4  -2  -1 34.3084 10.1785   6
  -4  -2  -1 32.7469 6.95700   2
  -4  -2  -2 302.712 13.7381   6
   4   2   2 332.143 11.8040   3
  -4  -2  -2 283.280 11.0105   2
  -4  -2  -3 18.4885 10.4613   6
   4   2   3 15.2444 7.73253   3
  -4  -2  -3 2.93421 7.68557   2
  -4  -2  -4-0.56875 11.1841   6
  -4  -2  -4 0.59785 8.34212   2
  -4  -2  -5 26.8781 11.4149   6
  -4  -2  -6 36.7543 11.3472   6
   4   2   7-2.85846 13.9124   0
   4   2   8-23.5823 12.9144   0
  -4  -2  -8-19.4086 11.3607   6
  -4  -2  -9 8.03727 13.6538   6
   4   3 -14 0.54274 11.7094   2
   4   3 -14 4.98883 12.9577   5
   4   3 -13 20.3826 12.9397   2
  -4  -3  13 27.0542 12.8045   1
   4   3 -13 9.51483 13.2370   5
   4   3 -12-14.0703 11.4230   5
   4   3 -12 0.00000 10.6020   2
   4   3 -11 23.7250 9.80535   5
   4   3 -11 41.7624 11.7699   2
   4   3 -10 220.285 12.8914   5
   4   3 -10 204.309 12.8076   2
   4   3  -9 57.5365 9.92164   5
   4   3  -9 68.9247 10.7595   2
   4   3  -8 6.95253 8.14569   5
   4   3  -8-4.92283 7.61977   2
   4   3  -7 50.4211 6.46181   3
  -4  -3   7 41.0169 6.03969   0
   4   3  -7 47.9653 9.30852   2
   4   3  -7 72.5392 8.84965   5
   4   3  -6 66.7846 9.18729   5
  -4  -3   6 41.7912 5.50031   0
   4   3  -6 55.8231 7.04214   3
   4   3  -6 48.0796 7.30637   2
   4   3  -5 152.902 8.72850   3
   4   3  -5 127.779 8.80211   2
  -4  -3   5 147.450 7.08991   0
   4   3  -5 146.159 9.35999   5
   4   3  -4 340.384 11.2115   3
   4   3  -4 372.993 11.3141   5
  -4  -3   4 373.808 10.0818   0
   4   3  -3 93.8681 9.02752   3
   4   3  -3 101.270 7.59891   5
  -4  -3   3 71.9605 7.91599   0
  -4  -3   2 5.29690 7.27337   0
   4   3  -2-0.42863 6.63585   3
   4   3  -1 0.67102 7.62755   3
   4   3   0 101.541 9.01177   3
   4   3   1 13.0066 7.28738   3
  -4  -3  -1 7.44144 9.89318   6
   4   3   2 93.1652 8.69029   3
  -4  -3  -2 71.9176 7.40418   2
  -4  -3  -2 80.3917 11.6108   6
   4   3   3 122.771 9.47811   3
  -4  -3  -3 142.889 13.0855   6
  -4  -3  -4-0.22059 11.0119   6
  -4  -3  -5 4.91018 12.2715   6
  -4  -3  -6-10.0454 11.7802   6
  -4  -3  -7-17.5931 11.6227   6
   4   3   7-6.43122 14.9631   0
   4   3   8 20.1456 15.3325   0
   4   4 -15 20.4046 13.9055   5
   4   4 -14 15.2341 11.5359   2
   4   4 -14 14.6739 11.8695   5
  -4  -4  14 32.8046 13.2739   1
   4   4 -13 6.45144 12.4890   2
   4   4 -13-17.2975 11.8222   5
   4   4 -12-7.83373 11.4644   5
   4   4 -12 0.68178 12.4422   2
   4   4 -11 6.24133 10.6220   5
   4   4 -11 8.19441 11.2163   2
   4   4 -10 97.0196 11.7680   2
   4   4 -10 94.1222 11.5634   5
   4   4  -9 65.2280 10.3641   5
   4   4  -9 55.8494 11.0595   2
   4   4  -8 35.5788 9.21199   5
   4   4  -8 19.9418 9.40447   2
   4   4  -8 20.6730 6.91938   3
   4   4  -7 41.3391 9.25411   5
   4   4  -7 28.2062 8.45555   2
   4   4  -7 29.3217 7.22623   3
   4   4  -6 359.315 12.7348   5
   4   4  -6 373.821 11.8086   3
   4   4  -6 358.032 11.7891   2
  -4  -4   6 396.898 9.06057   0
   4   4  -5 17.2318 7.63032   5
  -4  -4   5 6.35402 5.89557   0
   4   4  -5 22.3517 6.48268   2
   4   4  -5 22.5921 7.67908   3
  -4  -4   4 187.481 9.31357   0
   4   4  -4 228.279 10.1505   5
   4   4  -4 238.254 10.8966   3
   4   4  -3 72.9254 6.84258   5
   4   4  -3 63.9976 8.32050   3
   4   4  -2 96.0424 6.53452   5
   4   4  -2 113.469 9.41510   3
   4   4  -1 28.5531 5.53959   5
   4   4  -1 17.2195 8.77891   3
   4   4   0 30.1564 8.96137   3
   4   4   1 0.95565 8.23111   3
   4   4   2 20.4681 8.64340   3
  -4  -4  -2 31.8850 11.3948   6
   4   4   3 53.4648 8.79282   3
  -4  -4  -3 41.9308 12.3561   6
  -4  -4  -4 14.0495 11.9460   6
  -4  -4  -5 1.03957 12.3134   6
   4   4   6 5.90642 13.3313   0
  -4  -4  -6 0.00000 12.6249   6
   4   4   7 10.8165 15.5330   0
  -4  -5  15-5.19093 12.0161   1
   4   5 -15 39.6077 13.6435   5
   4   5 -14 13.2228 13.8086   2
  -4  -5  14-18.4486 12.2717   1
   4   5 -14 10.3316 12.8967   5
   4   5 -13 17.5317 10.7989   2
   4   5 -13 36.3742 13.5322   5
   4   5 -12 11.2442 11.0352   2
   4   5 -12 35.4813 11.6839   5
   4   5 -11 165.253 14.3083   5
   4   5 -11 128.312 13.5553   2
   4   5 -10 9.47660 10.3831   5
   4   5 -10-0.36452 9.33311   2
   4   5  -9 53.3706 10.3669   2
   4   5  -9 47.4167 10.5074   5
   4   5  -8 23.4201 9.56501   5
   4   5  -8 21.7563 8.89229   2
   4   5  -8 13.8405 7.08703   3
   4   5  -7-1.47896 8.10412   5
   4   5  -7 0.68835 6.90370   3
   4   5  -7-6.48531 7.40516   2
   4   5  -6 204.687 11.1878   5
   4   5  -6 207.953 11.2196   3
   4   5  -6 222.114 9.92327   2
   4   5  -5 25.6743 8.44851   3
  -4  -5   5 6.64824 6.08297   0
   4   5  -5 30.2167 7.47148   5
   4   5  -4 254.562 12.3836   3
   4   5  -4 234.225 10.0176   5
   4   5  -3 78.5774 10.1156   3
   4   5  -3 65.4956 7.28992   5
   4   5  -2 7.15273 5.70187   5
   4   5  -2 0.24237 7.72988   3
   4   5  -1 16.9235 8.57756   3
   4   5   0 23.1432 8.92677   3
   4   5   1 135.457 11.4356   3
   4   5   2 31.9329 9.53597   3
  -4  -5  -2 32.9349 12.8503   6
  -4  -5  -3 13.4668 11.6131   6
  -4  -5  -4-5.67181 12.8916   6
   4   5   5 31.0490 14.3009   0
  -4  -5  -5 20.2291 14.8024   6
   4   5   6 12.3156 16.7957   0
  -4  -5  -6 12.4966 12.5287   6
  -4  -6  15 22.1342 14.6638   1
   4   6 -14 17.2102 12.2581   2
  -4  -6  14 5.35338 15.7811   1
   4   6 -14-6.88477 15.0326   5
   4   6 -13 37.0273 12.3732   2
   4   6 -13 12.7055 13.4732   5
   4   6 -12-11.1421 12.2192   2
   4   6 -12 22.6295 12.6104   5
   4   6 -11-27.0562 10.4528   5
   4   6 -11 3.56086 11.7319   2
   4   6 -10 13.1567 10.8908   5
   4   6 -10-1.21935 6.87039   2
   4   6  -9 14.5774 9.67208   2
   4   6  -9 23.0096 10.2817   5
   4   6  -8 2.18373 9.19177   5
   4   6  -8 6.28789 8.68384   2
   4   6  -8 4.97529 7.61875   3
   4   6  -7 23.4709 9.09523   5
   4   6  -7 25.9585 8.05064   2
   4   6  -7 23.2638 8.64743   3
   4   6  -6 83.9238 9.30307   3
   4   6  -6 83.9777 8.59412   2
   4   6  -6 89.5274 9.88871   5
   4   6  -5 129.190 10.5487   3
   4   6  -5 134.410 9.83923   5
   4   6  -4 81.2362 9.35810   3
   4   6  -4 112.509 8.53053   5
   4   6  -3 15.8428 8.23590   3
   4   6  -2 59.8389 11.9455   3
   4   6  -1 3.70277 9.57841   3
   4   6   0 47.2917 9.89086   3
   4   6   1 35.2726 10.3580   3
   4   6   2 17.0569 8.68682   3
  -4  -6  -3 26.4456 13.7260   6
   4   6   4 7.40349 12.2918   0
  -4  -6  -4 23.7020 13.4851   6
   4   6   5 5.04517 15.1605   0
  -4  -6  -5-5.92662 13.1433   6
   4   7 -14-13.1644 13.9036   2
  -4  -7  14 28.0708 13.3721   1
   4   7 -14 29.8363 15.7445   5
   4   7 -13 6.43625 12.9679   2
   4   7 -13 43.7710 13.4947   5
   4   7 -12 21.4824 11.0827   2
   4   7 -12-9.06145 13.0134   5
   4   7 -11 0.19291 10.0400   2
   4   7 -11-2.26851 11.1337   5
   4   7 -10 4.30647 10.4301   5
   4   7 -10 14.9120 10.0111   2
   4   7  -9 16.4337 10.8696   5
   4   7  -9 26.9233 8.98098   2
   4   7  -8-4.19343 9.90523   5
   4   7  -8 7.73248 9.34544   3
   4   7  -8 5.70770 8.28619   2
   4   7  -7 31.8711 9.46495   5
   4   7  -7 20.8496 9.14456   3
   4   7  -6 139.024 11.3094   3
   4   7  -6 160.088 10.9394   5
   4   7  -5 1.29235 8.35092   5
   4   7  -5 7.90047 8.36298   3
   4   7  -4 50.9558 29.8174   3
   4   7  -3 17.6974 9.29121   3
   4   7  -2 19.9874 10.8509   3
   4   7  -1 10.2625 10.6653   3
   4   7   0 17.1734 10.4513   3
   4   7   1 32.5477 11.0718   3
   4   7   2 3.00655 9.34403   3
   4   7   3 1.08009 13.8591   0
  -4  -7  -3 8.92269 12.9525   6
   4   7   4 9.45238 13.6171   0
  -4  -7  -4 40.7049 16.3331   6
   4   8 -14-12.6163 11.4597   2
  -4  -8  14 7.69757 14.8705   1
   4   8 -14 4.54497 16.3324   5
   4   8 -13 2.03256 10.6261   2
   4   8 -13 52.9422 16.0278   5
   4   8 -12 14.7974 10.6130   2
   4   8 -12-11.7075 13.0589   5
   4   8 -11 14.4257 10.4582   2
   4   8 -11 12.2542 12.5473   5
   4   8 -10 61.9138 13.6330   5
   4   8  -9 8.03320 9.98724   5
   4   8  -9 6.25577 9.00117   3
   4   8  -8-1.34680 9.66625   5
   4   8  -8 2.46128 9.75840   3
   4   8  -7 107.653 11.9346   3
   4   8  -7 113.813 11.6237   5
   4   8  -6 8.62092 8.91473   5
   4   8  -6 14.9618 9.23379   3
   4   8  -5 212.380 14.3069   3
   4   8  -4 151.430 12.8018   3
   4   8  -3-2.38569 11.0571   3
   4   8  -2 29.3754 10.3210   3
   4   8  -1-22.2253 10.1391   3
   4   8   0-8.84364 10.5105   3
   4   8   1 22.1209 12.2527   0
   4   8   1 17.1872 10.8450   3
   4   8   2-0.85741 12.0361   0
   4   8   2 7.68417 9.94625   3
  -4  -8  -3 45.0114 14.5096   6
   4   9 -14-6.57834 14.6647   2
   4   9 -13-0.60474 14.1776   5
   4   9 -12-3.34580 14.6622   5
   4   9 -11 32.2405 12.3669   5
   4   9 -10 54.1467 12.8281   5
   4   9  -9 10.7896 10.0515   3
   4   9  -9-3.15947 11.3003   5
   4   9  -8 1.58247 11.2824   5
   4   9  -8 8.98288 10.3771   3
   4   9  -7 52.6635 11.3837   3
   4   9  -7 75.5067 10.8847   5
   4   9  -6 56.7289 12.2122   3
   4   9  -5 103.888 12.6850   3
   4   9  -4-9.79817 9.58714   3
   4   9  -3-7.03221 10.5636   3
   4   9  -2 16.5601 10.5057   3
   4   9  -1-14.1230 11.8369   3
   4   9   0-8.11501 12.6655   0
   4   9   0-6.00852 10.7090   3
   4   9   1 10.3221 13.7113   0
   4   9   1 13.3453 11.1224   3
   4   9   2 4.87016 16.1959   0
   4  10 -12 28.2290 14.3355   5
   4  10 -11 32.4218 15.4191   5
   4  10 -10 11.9382 13.6437   5
   4  10  -9 10.6855 11.5665   3
   4  10  -9-6.79990 11.6622   5
   4  10  -8-19.5908 10.8308   3
   4  10  -8 21.8912 11.7334   5
   4  10  -7 33.5081 10.7590   3
   4  10  -6 0.11078 14.3618   3
   4  10  -5 2.38608 10.6436   3
   4  10  -4 7.73941 11.3768   3
   4  10  -3 36.8593 11.9932   3
   4  10  -2-9.73563 12.2052   3
   4  10  -1 18.4130 10.7691   3
   4  10   0-7.85743 12.1942   3
   4  10   1 27.7281 13.7872   3
   4  10   1 108.088 18.1115   0
   4  11 -12 57.8737 16.7462   5
   4  11 -11 16.2132 11.3791   5
   4  11 -10 34.9001 13.4728   5
   4  11  -9 9.18551 10.9196   3
   4  11  -9 56.8326 12.9643   5
   4  11  -8 3.92213 12.0660   3
   4  11  -7 22.1264 11.9959   3
   4  11  -6 8.50911 13.3816   3
   4  11  -5-29.4780 17.1732   3
   4  11  -4 21.2301 13.5958   3
   4  11  -3 16.7188 13.5718   3
   4  11  -2-6.47401 12.2715   3
   4  11  -1 2.83573 12.9915   3
   4  12  -9 51.7975 14.7646   3
   4  12  -8-7.35442 11.1375   3
   4  12  -7 21.7581 14.2952   3
   4  12  -6 18.2490 12.7733   3
   4  12  -5 46.0309 13.5470   3
  -5  15  -4 15.5740 14.8747   3
  -5  15  -6 16.0755 14.9962   3
  -5  14   1 8.33278 13.2046   3
  -5  14   0 4.42300 13.1273   3
  -5  14  -1 49.1634 12.7173   3
  -5  14  -2 32.1913 15.2680   3
  -5  14  -3 24.5874 12.9993   3
  -5  14  -4 13.5748 12.8381   3
  -5  14  -5 29.0860 14.2190   4
  -5  14  -5 66.2186 14.5539   3
  -5  14  -6 13.0009 11.6843   4
  -5  14  -6 36.0377 12.8094   3
  -5  14  -7 4.75744 14.3011   4
  -5  13   4-2.05452 13.5295   3
  -5  13   3 8.45614 13.0927   3
  -5  13   2 23.3327 14.3573   3
  -5  13   1 2.13052 13.5230   3
  -5  13   0 29.1414 13.7080   3
  -5  13  -1-33.0314 10.9541   3
  -5  13  -2 2.89494 13.0171   3
  -5  13  -3 8.23635 12.0316   3
  -5  13  -4 18.4544 12.3802   4
  -5  13  -4 12.3628 11.8355   3
  -5  13  -5 2.87076 10.5173   4
  -5  13  -5-33.8827 12.4558   3
  -5  13  -6 36.1901 12.2004   4
  -5  13  -7 50.3524 13.2075   4
  -5  13  -8 43.0150 13.6005   4
  -5  12   6 30.7430 15.2758   0
  -5  12   5 2.94989 13.2200   0
  -5  12   5 26.6203 12.4769   3
  -5  12   4 22.5790 12.0610   3
  -5  12   4 8.39232 12.4847   0
  -5  12   3-8.54454 10.4931   3
  -5  12   2-8.16778 13.5265   3
  -5  12   1-6.98384 13.2688   3
  -5  12   0 90.5815 7.95000   3
  -5  12  -1-16.2913 11.4942   3
  -5  12  -2 16.7637 12.4154   4
  -5  12  -2 9.77606 13.3996   3
  -5  12  -3 4.60931 12.6688   4
  -5  12  -3 6.14351 13.9764   3
  -5  12  -4 4.95769 11.2896   4
  -5  12  -4-3.06164 13.1190   3
  -5  12  -5 29.1456 11.2663   4
  -5  12  -5-12.7596 11.8210   3
  -5  12  -6 20.6175 11.5952   4
  -5  12  -7 26.4107 11.8673   4
  -5  12  -8 20.4929 11.7325   4
  -5  12  -9-36.2886 13.1656   4
  -5  12 -10 6.58732 13.6360   4
  -5  11   7 8.74346 14.6550   0
  -5  11   6 5.52278 14.0780   0
  -5  11   5 19.6023 13.0121   0
  -5  11   5 68.3649 11.7816   3
  -5  11   4-12.0401 10.6111   0
  -5  11   4 21.1049 11.2160   3
  -5  11   3-8.41280 11.7626   3
  -5  11   3 10.7045 10.8075   0
  -5  11   2 15.8826 12.0125   3
  -5  11   2 37.8623 11.0817   0
  -5  11   1 7.64079 12.1291   3
  -5  11   0 58.3558 14.0113   3
  -5  11  -1 0.49976 9.99993   4
  -5  11  -1 4.73725 12.8054   3
  -5  11  -2-3.15254 10.8874   4
  -5  11  -2 0.32329 10.5334   3
  -5  11  -3-12.2317 11.3757   4
  -5  11  -3 6.39323 11.1973   3
  -5  11  -4 45.2649 12.3866   4
  -5  11  -4 17.9066 12.3651   3
  -5  11  -5-1.66587 11.9260   4
  -5  11  -5 2.23244 11.5205   3
  -5  11  -6-3.22633 11.5969   4
  -5  11  -7-2.75517 11.9732   4
  -5  11  -8 31.2976 11.2132   4
  -5  11  -8 36.5556 15.0931   2
  -5  11  -9 48.3338 11.5765   2
  -5  11  -9 65.5099 13.9007   4
  -5  11 -10 13.1750 13.9880   2
  -5  11 -10 7.42506 14.3998   4
  -5  10   8 8.67983 14.1820   0
  -5  10   7 8.87119 13.9845   0
  -5  10   6 63.7911 13.0817   0
  -5  10   5 53.3121 12.6557   0
  -5  10   5 10.4345 10.7902   3
  -5  10   4 0.00000 11.0245   0
  -5  10   4 3.54764 11.2875   3
  -5  10   3 4.83221 9.89724   0
  -5  10   3 3.56915 12.0060   3
  -5  10   2 6.05112 12.3979   3
  -5  10   2 3.34180 8.56536   0
  -5  10   1 13.4853 12.2611   3
  -5  10   1 14.7901 9.23393   0
  -5  10   0 2.36151 10.1596   4
  -5  10   0 25.7177 11.2462   3
  -5  10  -1 30.6645 10.5253   4
  -5  10  -1 12.0549 11.1505   3
  -5  10  -2 21.3571 8.05556   4
  -5  10  -2 8.22664 11.6258   3
  -5  10  -3-18.3334 9.94423   4
  -5  10  -3 9.75578 10.7342   3
  -5  10  -4 84.6325 12.1461   4
  -5  10  -4 75.8557 12.6937   3
  -5  10  -5 16.9576 11.6532   4
  -5  10  -5 11.6904 9.82668   3
  -5  10  -5 1.97146 9.86325   2
  -5  10  -6 6.20227 10.9665   4
  -5  10  -6 21.0373 10.5812   2
  -5  10  -7 36.7403 13.0477   4
  -5  10  -7 50.4110 12.0156   2
  -5  10  -8-3.61385 12.1878   2
  -5  10  -8 13.4200 14.2327   4
  -5  10  -9 13.7884 12.6296   2
  -5  10  -9-23.9272 13.6381   4
  -5  10 -10-5.07685 14.0948   2
  -5  10 -10 1.13934 15.1638   4
  -5   9   8 30.9252 15.3869   0
  -5   9   7 7.29456 14.4418   0
  -5   9   6 186.757 14.0169   3
  -5   9   6 201.371 16.2094   0
  -5   9   5 110.044 13.4785   3
  -5   9   5 112.662 13.9884   0
  -5   9   4 377.431 17.4081   3
  -5   9   4 274.618 16.1605   0
  -5   9   3 113.553 13.4346   3
  -5   9   3 99.0351 12.4951   0
  -5   9   2 84.8275 13.3377   3
  -5   9   2 22.7252 10.0266   0
  -5   9   1 149.124 11.2305   0
  -5   9   0 7.61008 9.21616   4
  -5   9   0 22.4319 8.36164   0
  -5   9  -1 48.8856 9.36120   4
  -5   9  -2-6.82131 9.60741   4
  -5   9  -3 10.5763 9.94418   4
  -5   9  -3 8.98634 8.06389   2
  -5   9  -4 9.42381 10.6782   4
  -5   9  -4 13.9898 8.42140   2
  -5   9  -5 63.6965 13.9257   4
  -5   9  -5 63.7720 10.9903   2
  -5   9  -6-2.92455 11.3533   4
  -5   9  -6-3.62352 10.8753   2
  -5   9  -7 6.50775 9.83194   2
  -5   9  -8 10.3282 10.9898   2
  -5   9  -9 22.8473 13.7232   2
  -5   9 -10 4.30673 14.3944   2
  -5   8   9-29.8857 14.6482   0
  -5   8   8 82.8754 14.6485   0
  -5   8   7-21.2859 12.9722   0
  -5   8   6 44.7651 12.3848   0
  -5   8   6 30.9154 10.8731   3
  -5   8   5-1.78015 9.83358   0
  -5   8   5 12.9894 10.7772   3
  -5   8   4 211.235 14.5772   3
  -5   8   4 206.789 13.3193   0
  -5   8   3 59.4417 11.3254   0
  -5   8   2 38.4683 10.5333   0
  -5   8   1 187.897 11.6771   4
  -5   8   1 207.307 11.2701   0
  -5   8   0 17.1817 8.88021   4
  -5   8   0 11.3818 7.94116   0
  -5   8  -1 6.74374 8.48216   4
  -5   8  -1 9.05029 6.62388   0
  -5   8  -1 16.4792 6.88490   2
  -5   8  -2 9.64009 8.64026   4
  -5   8  -2-1.85255 7.29589   2
  -5   8  -3 34.1213 11.5838   4
  -5   8  -3 22.2919 8.41760   2
  -5   8  -4 6.51079 8.75923   2
  -5   8  -5 48.2430 11.1076   2
  -5   8  -6 23.1032 11.0540   2
  -5   8  -7 174.743 15.1336   2
  -5   8  -8 3.88244 10.6662   2
  -5   8  -9-8.02452 13.7793   2
  -5   8 -10 2.37614 11.2482   2
  -5   7  10-8.27567 15.5960   0
  -5   7   9 19.6112 13.9307   0
  -5   7   8 73.6550 14.4070   0
  -5   7   7 33.5859 12.1463   0
  -5   7   6 4.85133 11.1870   0
  -5   7   6-5.37193 10.0580   3
  -5   7   5 50.8780 10.2734   0
  -5   7   4-2.45184 8.54701   0
  -5   7   3-2.32092 8.43620   0
  -5   7   2 67.9468 8.86112   4
  -5   7   2 44.3992 8.63473   0
  -5   7   1 5.36393 8.09863   4
  -5   7   1 14.8722 8.06250   0
  -5   7   0 255.874 11.1863   4
  -5   7   0 259.045 10.7997   0
  -5   7  -1 14.4866 9.09459   4
  -5   7  -1 17.1433 6.95419   0
  -5   7  -2 103.983 7.37354   0
  -5   7  -2 113.762 11.5088   4
  -5   7  -2 112.369 9.33778   2
  -5   7  -3 5.85395 8.26837   2
  -5   7  -4 31.0046 9.09925   2
  -5   7  -5 184.377 12.9609   2
  -5   7  -6 19.1201 11.4006   2
  -5   7  -7 282.118 16.9061   2
  -5   7  -8 113.214 14.8969   2
  -5   7  -9-17.4428 10.5036   2
  -5   7 -10-8.35496 14.0424   2
  -5   6  11 3.71984 14.4628   0
  -5   6  10-1.86918 14.1131   0
  -5   6   9 4.35679 12.9358   0
  -5   6   8 8.40246 11.0203   0
  -5   6   7 39.1710 11.2881   0
  -5   6   6-11.0801 10.3351   0
  -5   6   5 29.5794 10.5374   0
  -5   6   4 11.2191 8.02106   0
  -5   6   3 7.39122 6.80313   4
  -5   6   3 8.57432 7.48977   0
  -5   6   2 6.78559 7.00692   4
  -5   6   2-0.35244 7.60923   0
  -5   6   1 333.667 12.1213   4
  -5   6   1 406.047 12.8175   0
  -5   6   0 115.979 10.2333   4
  -5   6   0 103.248 8.30978   0
  -5   6  -1 56.1783 7.77271   0
  -5   6  -2 137.053 9.70780   2
  -5   6  -2 141.170 8.50838   0
  -5   6  -3 423.015 14.5679   2
  -5   6  -3 411.301 11.8661   0
  -5   6  -4 481.120 13.1498   0
  -5   6  -4 420.379 15.5784   2
  -5   6  -5 55.5318 10.3024   2
  -5   6  -6 13.4735 10.9322   2
  -5   6  -7 35.0813 10.7953   2
  -5   6  -8 145.345 14.0855   2
  -5   6  -9-14.9028 12.8918   2
  -5   6 -10 10.3195 15.3156   2
  -5   5  12 51.6726 14.5532   0
  -5   5  11-5.81570 14.0513   0
  -5   5  10-8.09776 12.0900   0
  -5   5   9-17.0610 12.1030   0
   5  -5  -8 28.4918 9.12528   2
  -5   5   8 14.4591 10.4023   0
   5  -5  -7 61.5356 9.06491   2
  -5   5   7 53.8794 11.8302   0
  -5   5   6 31.9642 10.9257   0
  -5   5   5 3.27467 8.97450   0
  -5   5   4 1.95401 7.40911   0
  -5   5   3 167.742 8.19866   4
  -5   5   3 200.930 10.3695   0
  -5   5   2 81.2564 7.49493   4
  -5   5   2 90.0444 8.77598   0
  -5   5   1 1980.85 23.8584   4
  -5   5   1 1827.70 21.9152   0
  -5   5   0 128.454 8.85216   0
  -5   5  -1 15.0659 6.34224   0
  -5   5  -2 9.17594 6.39531   0
  -5   5  -2 19.1270 8.68196   2
  -5   5  -3 116.592 9.06874   0
  -5   5  -3 132.275 11.1199   2
  -5   5  -4 25.1320 7.72835   0
  -5   5  -4 25.7576 8.83197   2
  -5   5  -5 14.7638 10.8587   2
  -5   5  -6-5.65890 11.2318   2
  -5   5  -7 48.9301 11.0695   2
  -5   5  -8-2.40983 11.1999   2
  -5   5  -9-14.0866 10.9058   2
  -5   5 -10 5.20565 11.7740   2
  -5   4  13 2.90324 15.6535   0
  -5   4  12 43.9508 15.9589   0
  -5   4  11 10.9718 12.4165   0
  -5   4  10 111.554 13.9381   0
   5  -4 -10 98.1468 12.6229   2
   5  -4  -9 39.9238 10.4811   2
  -5   4   9 47.7864 12.9498   0
   5  -4  -8-1.23518 8.40261   2
  -5   4   8-6.63077 10.7439   0
   5  -4  -7 23.1174 8.26370   2
  -5   4   7 17.5331 9.75238   0
  -5   4   6 111.751 10.6017   0
   5  -4  -6 105.748 9.42294   2
  -5   4   5 10.9446 8.88600   0
  -5   4   4 10.9555 5.56666   4
  -5   4   4 9.81183 8.30887   0
  -5   4   3 4.60320 5.26992   4
  -5   4   3 7.28719 8.60696   0
  -5   4   2 593.506 13.0452   4
  -5   4   2 536.440 13.4177   0
  -5   4   1 2252.18 23.5316   0
  -5   4   0 156.864 8.77894   0
  -5   4  -1 18.4768 6.90459   0
  -5   4  -2 9.82778 7.28076   0
  -5   4  -2 9.86489 7.99461   2
  -5   4  -3 149.687 10.8730   2
  -5   4  -3 156.444 9.90627   0
  -5   4  -4 33.3916 9.41768   2
  -5   4  -5 5.10788 10.8624   2
  -5   4  -6 16.4624 11.0670   2
  -5   4  -7 30.5066 12.3834   2
  -5   4  -8 0.83148 11.7421   2
  -5   4  -9 22.0393 13.8298   2
  -5   4 -10 4.10491 14.3876   2
  -5   3  13 10.6561 13.2573   0
   5  -3 -12-4.36275 11.4846   2
  -5   3  12 10.5619 12.0800   0
   5  -3 -11 4.78633 11.2049   2
  -5   3  11 30.7904 11.8833   0
  -5   3  10 92.5415 13.5755   0
   5  -3 -10 94.5690 11.7570   2
   5  -3  -9 3.40301 10.1277   2
  -5   3   9-8.77645 10.3261   0
   5  -3  -8-9.98218 6.94396   5
   5  -3  -8 9.09288 8.54386   2
  -5   3   8-7.82352 9.64832   0
   5  -3  -7 1.77372 6.31050   5
   5  -3  -7 10.2587 8.14906   2
  -5   3   7-4.71226 7.95928   0
  -5   3   6 119.875 10.6362   0
   5  -3  -6 139.054 9.56154   2
  -5   3   5 22.3202 8.76089   0
  -5   3   4 754.900 10.6743   4
  -5   3   4 748.827 15.7258   0
  -5   3   3 291.032 11.6662   0
  -5   3   2 4330.37 31.1133   0
  -5   3   1 494.574 12.2859   0
  -5   3   0 394.017 11.6641   0
  -5   3  -1 343.496 11.4926   0
  -5   3  -2 8.31254 7.56761   0
  -5   3  -2 27.0476 8.39653   2
  -5   3  -3 88.5773 9.71336   0
  -5   3  -3 64.0041 10.7045   2
  -5   3  -4 18.1733 9.35333   2
  -5   3  -5 3.52777 8.60061   2
  -5   3  -6 3.27694 11.4966   2
  -5   3  -7 4.08572 11.4726   2
  -5   3  -8-0.57086 12.7711   2
  -5   3  -9-17.1215 12.9630   2
  -5   3 -10-1.05784 13.8568   2
   5  -2 -14 28.0372 14.3537   2
   5  -2 -13 1.71281 13.1966   2
  -5   2  13-7.31378 13.3690   0
   5  -2 -12 28.5381 12.8850   2
  -5   2  12 40.2653 12.6372   0
  -5   2  11 82.3859 13.2889   0
   5  -2 -11 100.414 13.8214   2
  -5   2  10 213.478 14.0779   0
   5  -2 -10 226.978 13.7209   2
   5  -2  -9 15.7564 8.53883   5
   5  -2  -9 7.79237 9.94809   2
  -5   2   9 19.0382 9.72614   0
   5  -2  -8-12.7354 7.24233   5
   5  -2  -8-3.48231 8.08221   2
  -5   2   8-1.07163 8.69451   0
   5  -2  -7 40.9724 7.83123   5
   5  -2  -7 38.1616 8.27800   2
  -5   2   7 27.1012 8.13906   0
   5  -2  -6 17.5703 7.32418   2
  -5   2   6 25.1824 8.99039   0
  -5   2   5-1.88648 8.08988   0
  -5   2   4 16.2239 8.33947   0
  -5   2   4 42.3379 4.79053   4
  -5   2   3 1924.12 21.2463   0
  -5   2   2 950.114 16.9248   0
  -5   2   1 1320.92 18.1385   0
  -5   2   0 18.5361 7.94093   0
  -5   2  -1 17.3245 8.24956   0
  -5   2  -2 29.4558 8.68659   0
  -5   2  -2 24.0995 8.61100   2
  -5   2  -3 20.6628 9.15679   2
  -5   2  -4 60.1562 10.1285   2
  -5   2  -5 2.39573 8.74203   2
  -5   2  -6 123.393 14.0102   2
  -5   2  -7 11.6817 11.9152   2
  -5   2  -8 10.2971 11.9357   2
  -5   2  -9 17.1110 12.9818   2
  -5   2 -10 28.6938 14.3923   2
   5  -1 -14-2.54221 13.1886   2
   5  -1 -13 39.5154 8.68914   2
   5  -1 -12 15.9295 12.1763   2
  -5   1  12 16.5835 10.7378   0
   5  -1 -11 26.1520 10.9013   2
  -5   1  11 13.5255 10.6195   0
  -5   1  10 443.845 16.6596   0
   5  -1 -10 376.940 17.6929   2
   5  -1 -10 441.455 15.1266   5
   5  -1  -9 15.6637 9.07204   5
   5  -1  -9 23.0724 9.71544   2
  -5   1   9 10.0619 9.30435   0
  -5   1   8 140.842 10.1186   0
   5  -1  -8 137.405 11.9509   2
   5  -1  -8 160.241 10.4295   5
   5  -1  -7 8.34891 7.93868   5
   5  -1  -7-0.40065 7.47835   2
  -5   1   7 14.3431 8.11435   0
   5  -1  -6 10.4807 7.71746   2
  -5   1   6 17.8774 7.55989   0
  -5   1   5 132.309 9.64289   0
  -5   1   4 21.0257 8.03214   0
  -5   1   3 357.477 11.6777   0
  -5   1   2 97.9869 6.73061   6
  -5   1   2 98.4392 7.52549   0
  -5   1   1 114.378 8.15865   6
  -5   1   1 99.8189 8.90039   0
  -5   1   0 424.423 13.2300   0
  -5   1   0 456.526 12.9923   6
  -5   1  -1 1.54725 7.49657   0
  -5   1  -1-1.64569 8.30417   6
  -5   1  -2-7.92045 9.08943   6
  -5   1  -2 12.2623 7.89492   2
  -5   1  -3-1.32012 9.31960   6
  -5   1  -3 5.97295 9.14560   2
  -5   1  -4 29.0324 10.5067   6
  -5   1  -4 30.2758 10.1137   2
  -5   1  -5 13.7551 10.4187   6
  -5   1  -5 10.3884 10.6516   2
  -5   1  -6 53.7971 12.1745   6
  -5   1  -6 80.8515 12.5265   2
  -5   1  -7-2.96875 10.3326   2
  -5   1  -8 7.70782 13.2164   2
   5  -1   9 121.647 18.8834   0
  -5   1  -9 29.0386 13.2456   2
   5   0 -14 7.70892 13.9821   2
   5   0 -13-10.8477 11.6104   2
   5   0 -12 5.70438 11.8247   2
   5   0 -11 10.1114 8.99738   5
   5   0 -11 3.74696 10.0990   2
  -5   0  11 13.3638 9.46394   0
   5   0 -10 12.7331 8.88786   5
   5   0 -10 11.9632 10.2084   2
  -5   0  10 7.26858 8.77461   0
   5   0  -9-0.11475 8.99772   5
   5   0  -9-11.8641 10.1064   2
  -5   0   9 7.47902 7.99028   0
  -5   0   8 211.193 10.8447   0
   5   0  -8 176.167 10.6615   2
   5   0  -8 208.450 11.0761   5
   5   0  -7 49.5380 9.04590   2
   5   0  -7 68.5206 9.17394   5
  -5   0   7 77.8043 8.65644   0
   5   0  -6 168.129 9.30918   2
  -5   0   6 188.490 9.96411   0
  -5   0   5 29.6127 6.90619   0
  -5   0   4 160.244 5.55537   6
  -5   0   4 167.219 9.14651   0
  -5   0   3 706.881 11.2391   6
   5   0  -3 683.559 14.8752   3
  -5   0   3 711.356 13.7845   0
  -5   0   2 135.216 7.89906   6
   5   0  -2 139.071 9.88346   3
  -5   0   2 131.268 9.01946   0
   5   0  -1 122.879 9.81769   3
  -5   0   1 132.840 9.15153   0
  -5   0   1 109.384 8.76233   6
   5   0   0 89.3107 8.54855   3
  -5   0   0 80.8394 9.68094   6
  -5   0   0 73.2018 9.69812   0
   5   0   1 59.5204 8.01006   3
  -5   0  -1 44.2347 9.55211   6
  -5   0  -1 37.1859 9.74959   0
   5   0   2 0.80009 7.06292   3
  -5   0  -2 6.26178 9.37871   6
  -5   0  -2 9.27344 7.09445   2
  -5   0  -3 30.9957 8.32015   2
   5   0   3 23.7912 7.62419   3
  -5   0  -3 18.9412 9.57034   6
  -5   0  -4 160.679 12.0949   2
  -5   0  -4 146.430 13.0238   6
  -5   0  -5 228.781 13.6561   2
  -5   0  -5 233.780 14.9675   6
  -5   0  -6 3.54934 11.6079   6
  -5   0  -6-0.21701 10.6093   2
  -5   0  -7 40.7682 10.3863   6
  -5   0  -7-18.4535 10.8192   2
  -5   0  -8 5.73259 10.6075   6
  -5   0  -8-3.19727 11.3550   2
   5   0   9 8.75176 16.1320   0
   5   1 -14 15.1960 13.4107   2
   5   1 -13 27.0856 12.6134   2
   5   1 -12-2.23502 10.1173   5
   5   1 -12 13.9525 11.7987   2
   5   1 -11 111.080 13.4551   2
   5   1 -11 140.228 12.4858   5
   5   1 -10 7.50997 8.91915   5
   5   1 -10 13.6668 11.9128   2
  -5  -1  10 18.1907 8.41553   0
   5   1  -9 72.7970 10.9724   2
  -5  -1   9 68.8308 9.57565   0
   5   1  -9 81.0650 10.5510   5
   5   1  -8 5.62909 8.15858   5
   5   1  -8 4.51926 7.47311   2
  -5  -1   8 9.11830 6.56848   0
  -5  -1   7 37.8154 7.11392   0
   5   1  -7 26.1634 8.95040   5
   5   1  -7 22.8827 7.22890   2
   5   1  -6 132.762 9.93418   5
   5   1  -6 130.688 8.62993   3
  -5  -1   6 126.173 8.17510   0
   5   1  -6 116.475 10.0318   2
   5   1  -5 674.688 15.0959   3
  -5  -1   5 775.284 14.3754   0
  -5  -1   5 708.234 8.86415   6
  -5  -1   4 144.293 7.94663   0
   5   1  -4 158.877 9.51749   3
  -5  -1   4 150.243 6.53032   6
   5   1  -3 129.461 10.3908   3
  -5  -1   3 124.266 8.96040   0
  -5  -1   3 140.693 7.43804   6
   5   1  -2 42.4760 7.72464   3
  -5  -1   2 52.4607 7.98335   0
  -5  -1   2 48.7849 7.56579   6
   5   1  -1 660.352 15.6508   3
  -5  -1   1 716.118 15.4392   6
  -5  -1   1 697.670 15.6626   0
  -5  -1   0 297.614 13.0186   0
   5   1   0 328.079 11.7654   3
  -5  -1   0 301.723 12.5780   6
   5   1   1 18.9806 8.17673   3
  -5  -1  -1 15.7687 9.40805   6
   5   1   2 120.776 9.56043   3
  -5  -1  -2 97.6444 11.7070   6
  -5  -1  -2 87.5729 8.98006   2
   5   1   3 12.6796 7.76072   3
  -5  -1  -3 18.5508 11.0113   6
  -5  -1  -3 7.55999 8.28923   2
  -5  -1  -4 268.126 16.1290   6
  -5  -1  -4 215.866 13.1162   2
  -5  -1  -5 35.0143 11.5734   6
  -5  -1  -5 55.4998 10.9336   2
  -5  -1  -6 2.36738 10.1892   2
  -5  -1  -6 2.20268 11.3125   6
  -5  -1  -7-12.3694 11.2655   6
   5   1   8-2.82889 15.1868   0
   5   2 -14 26.8366 14.4042   2
   5   2 -13-13.5395 11.2882   5
   5   2 -13-10.7722 13.3354   2
   5   2 -12 23.0290 9.96157   5
   5   2 -12 38.5616 13.0457   2
   5   2 -11 27.5711 10.9001   5
   5   2 -11 39.2181 11.4275   2
   5   2 -10 85.7112 12.5397   2
   5   2 -10 97.1175 11.8006   5
   5   2  -9 81.4724 11.3443   2
   5   2  -9 77.3513 10.2625   5
   5   2  -8 9.32362 8.61546   5
  -5  -2   8 13.7824 6.39097   0
   5   2  -8 0.47119 8.96543   2
   5   2  -7 23.4122 8.40428   5
  -5  -2   7 26.0998 6.40093   0
   5   2  -7 30.6686 8.21167   2
   5   2  -7 24.8012 6.70367   3
  -5  -2   6 206.004 7.30580   0
   5   2  -6 212.043 10.1349   3
   5   2  -6 221.020 11.0383   5
   5   2  -6 194.792 10.0771   2
   5   2  -5 267.406 11.2129   3
   5   2  -5 267.753 11.5654   5
  -5  -2   5 273.705 9.59669   0
  -5  -2   4 2.20921 6.40820   0
   5   2  -4 3.33594 6.56911   3
   5   2  -3 204.826 11.1539   3
  -5  -2   3 276.602 10.0043   6
  -5  -2   3 258.239 10.8141   0
   5   2  -2 131.595 10.1398   3
  -5  -2   2 152.229 9.80484   6
  -5  -2   2 143.154 9.90985   0
  -5  -2   1-0.31202 8.04951   0
   5   2  -1 2.14026 7.23702   3
  -5  -2   1 9.62153 8.41928   6
   5   2   0 18.3478 8.09135   3
  -5  -2   0 13.3348 9.57735   6
  -5  -2  -1 92.3375 10.9958   6
   5   2   1 108.152 9.35945   3
  -5  -2  -1 92.5179 8.78545   2
   5   2   2 247.811 12.0733   3
  -5  -2  -2 241.385 11.2251   2
  -5  -2  -2 225.969 14.0825   6
  -5  -2  -3 13.4023 11.7808   6
   5   2   3 15.2802 7.66484   3
  -5  -2  -3 9.30062 8.37331   2
  -5  -2  -4 32.6911 10.5142   6
  -5  -2  -6 12.6658 12.5662   6
  -5  -2  -7 3.95210 11.9191   6
   5   3 -14-12.0723 13.1562   2
   5   3 -14-13.9268 14.3647   5
   5   3 -13 6.43333 11.1496   5
   5   3 -13-9.32039 12.6879   2
   5   3 -12-15.6167 10.2196   5
   5   3 -12 3.96534 12.4037   2
   5   3 -11 71.3481 10.9513   5
   5   3 -11 59.3445 13.3485   2
   5   3 -10 10.2579 9.41909   5
   5   3 -10 4.23052 8.80664   2
   5   3  -9 34.7965 10.1597   2
   5   3  -9 60.7878 10.8320   5
   5   3  -8 12.9917 9.23021   5
   5   3  -8 1.30215 8.94695   2
   5   3  -8 16.4591 7.47463   3
   5   3  -7 11.8264 8.33464   5
   5   3  -7 17.7900 8.66703   2
   5   3  -7 24.4884 6.96146   3
  -5  -3   7 14.2783 5.97211   0
   5   3  -6 39.7758 8.02372   5
   5   3  -6 45.3107 7.72530   2
   5   3  -6 38.2871 7.92021   3
  -5  -3   6 46.2339 6.12849   0
   5   3  -5 15.5024 7.38205   5
   5   3  -5 30.9839 7.89365   3
  -5  -3   5 23.3554 4.10806   0
  -5  -3   4 64.3881 7.73605   0
   5   3  -4 46.6969 7.61673   5
   5   3  -4 47.9127 9.01409   3
   5   3  -3 25.8298 8.65196   3
  -5  -3   3 34.6078 8.38973   0
  -5  -3   2 44.4057 9.58461   0
   5   3  -2 67.2314 8.38983   3
  -5  -3   1 21.8894 9.32214   6
   5   3  -1 0.79680 8.16192   3
   5   3   0 16.6441 8.33477   3
  -5  -3   0 18.2718 10.1709   6
  -5  -3  -1 5.83873 10.4598   6
   5   3   1 7.28088 7.50266   3
   5   3   2 35.1978 9.44416   3
  -5  -3  -2 35.9898 11.5797   6
  -5  -3  -3 82.3611 13.6515   6
  -5  -3  -4 8.25228 11.3440   6
  -5  -3  -5 6.36905 11.8878   6
  -5  -3  -6-1.41978 12.5070   6
   5   3   7 23.0099 16.7885   0
   5   4 -15 4.01498 12.6249   5
   5   4 -14 18.8782 13.5122   2
   5   4 -14 7.54491 13.8354   5
   5   4 -13 8.07906 12.3279   5
   5   4 -13 20.7470 13.2210   2
   5   4 -12-3.10663 11.0765   5
   5   4 -12 11.7714 10.9085   2
   5   4 -11 98.7932 12.6806   2
   5   4 -11 92.8668 12.7170   5
   5   4 -10 10.3094 10.9130   5
   5   4 -10 0.45806 9.34238   2
   5   4  -9-2.12305 9.58962   5
   5   4  -9-0.48264 10.1200   2
   5   4  -8 13.6894 9.26740   5
   5   4  -8 3.23310 8.83122   2
   5   4  -8 0.42606 6.81133   3
   5   4  -7 11.0441 8.59723   5
   5   4  -7 4.26472 7.99517   2
   5   4  -7 4.57948 7.62274   3
   5   4  -6 206.859 11.4404   5
   5   4  -6 238.924 10.9918   3
   5   4  -6 207.883 10.4998   2
  -5  -4   6 224.441 9.15761   0
   5   4  -5 87.8186 9.37256   3
   5   4  -5 88.8869 9.12072   5
  -5  -4   5 72.2116 7.86261   0
   5   4  -4 278.423 12.9443   3
   5   4  -4 303.756 11.1804   5
  -5  -4   4 311.414 11.9861   0
   5   4  -3 43.2504 7.22319   5
   5   4  -3 31.2058 8.09272   3
   5   4  -2 4.29038 6.26030   5
   5   4  -2 1.81230 7.56011   3
   5   4  -1 12.5157 8.81333   3
  -5  -4   0 30.0448 11.5584   6
   5   4   0-7.26372 8.24458   3
  -5  -4  -1 57.0531 12.3450   6
   5   4   1 78.6804 10.2467   3
   5   4   2 6.66489 8.60102   3
  -5  -4  -2 10.2705 11.9786   6
  -5  -4  -3 21.8206 12.2351   6
  -5  -4  -4-4.61166 12.0813   6
  -5  -4  -5-1.95485 13.7141   6
  -5  -4  -6-9.95531 12.5960   6
   5   4   6-1.83832 18.2232   0
  -5  -5  15 18.7482 13.1704   1
   5   5 -14 19.6146 11.5279   2
   5   5 -14 53.8524 13.8524   5
   5   5 -13-21.4295 12.7072   5
   5   5 -13 33.4142 13.6945   2
   5   5 -12 5.90889 11.5424   5
   5   5 -12-7.75806 10.5886   2
   5   5 -11 77.5674 12.8164   5
   5   5 -11 78.7534 12.3733   2
   5   5 -10 11.5562 10.5197   5
   5   5 -10-3.64182 9.96641   2
   5   5  -9 111.781 11.7526   5
   5   5  -9 95.8620 11.0149   2
   5   5  -8-9.46952 9.30610   5
   5   5  -8-3.64914 8.31112   2
   5   5  -8 10.1985 7.61273   3
   5   5  -7 3.19969 8.38979   5
   5   5  -7-5.30869 8.15118   2
   5   5  -7-8.46513 8.05432   3
   5   5  -6 9.80017 8.40175   5
   5   5  -6 54.6601 9.45732   3
  -5  -5   5 96.4951 9.36000   0
   5   5  -5 159.501 11.1337   3
   5   5  -5 175.076 10.4175   5
   5   5  -4 90.7476 8.86750   5
   5   5  -4 96.6070 9.83572   3
   5   5  -3 21.8519 6.66215   5
   5   5  -3 23.7910 9.06557   3
   5   5  -2-4.03597 8.92832   3
   5   5  -1 6.32621 8.59793   3
   5   5   0 4.74842 9.56359   3
   5   5   1 6.71815 9.75675   3
  -5  -5  -1 4.16919 12.3067   6
   5   5   2-19.0989 9.60767   3
  -5  -5  -2 27.2257 13.1151   6
  -5  -5  -3 11.7074 13.9963   6
  -5  -5  -4 11.4869 13.7788   6
   5   5   5-2.20510 14.9224   0
  -5  -5  -5-7.21456 10.4963   6
  -5  -6  15 3.25498 13.8994   1
   5   6 -14-18.6193 11.8836   2
   5   6 -14 25.1318 12.4824   5
   5   6 -13 14.9926 12.5206   5
   5   6 -13 4.64224 13.1299   2
   5   6 -12 2.59621 11.6923   5
   5   6 -12 24.2558 12.8936   2
   5   6 -11-7.11650 11.8048   5
   5   6 -11 11.2758 10.3412   2
   5   6 -10 5.40385 10.4663   5
   5   6 -10 10.9228 9.87431   2
   5   6  -9 33.7605 11.2512   5
   5   6  -9 15.9142 9.77713   2
   5   6  -9 26.0026 8.84521   3
   5   6  -8 78.9967 10.9994   5
   5   6  -8 76.4757 9.85526   3
   5   6  -8 43.2959 9.60365   2
   5   6  -7 38.6953 9.90178   5
   5   6  -7 32.6650 8.43617   2
   5   6  -7 22.4808 8.99987   3
   5   6  -6 65.8130 9.52132   5
   5   6  -6 50.1393 11.0243   3
   5   6  -5 7.32961 7.46698   5
   5   6  -5 6.49390 9.38465   3
   5   6  -4 9.81449 7.62343   5
   5   6  -4 13.4640 9.37720   3
   5   6  -3 3.49464 9.70484   3
   5   6  -2 44.8100 11.3985   3
   5   6  -1-4.39779 10.0741   3
   5   6   0 92.3766 11.4816   3
  -5  -6  -1 26.3729 13.1520   6
   5   6   1-0.18926 8.50220   3
   5   6   2 61.4956 8.86022   3
  -5  -6  -2-8.74686 12.5019   6
  -5  -6  -3 37.8171 13.5304   6
  -5  -6  -4 16.8011 15.6458   6
   5   6   4 6.09884 15.1113   0
   5   7 -14 16.4769 12.8499   2
   5   7 -14 22.4955 15.6333   5
   5   7 -13-7.04605 11.0316   2
   5   7 -13 31.6351 14.2602   5
   5   7 -12-21.1943 12.6732   5
   5   7 -12 9.21128 9.99665   2
   5   7 -11-1.70395 10.5599   5
   5   7 -11 16.9299 9.27808   2
   5   7 -10 27.9190 11.1741   5
   5   7 -10 39.3534 10.3139   2
   5   7  -9-5.12113 10.2054   5
   5   7  -9 3.48861 9.22882   3
   5   7  -8 44.8831 10.4036   5
   5   7  -8 26.0567 10.1632   3
   5   7  -7-5.22384 9.41692   5
   5   7  -7 2.40994 9.55337   3
   5   7  -6 20.3640 9.14934   5
   5   7  -6 17.2046 10.3111   3
   5   7  -5 86.3499 12.1610   3
   5   7  -4 74.2173 12.0892   3
   5   7  -3 19.5896 10.8330   3
   5   7  -2 13.5848 11.0078   3
   5   7  -1-11.6769 11.1979   3
   5   7   0 7.28685 10.0050   3
   5   7   1 12.5578 10.2221   3
  -5  -7  -2 15.6376 13.8850   6
   5   7   3-0.90966 14.8180   0
  -5  -7  -3 26.3047 15.5189   6
   5   8 -14 13.0357 11.7756   2
   5   8 -13 4.98716 11.7966   2
   5   8 -13 10.9216 13.8468   5
   5   8 -12 16.0801 12.6588   2
   5   8 -12-3.79830 14.2511   5
   5   8 -11 40.8158 14.0811   5
   5   8 -10 17.6067 10.8864   5
   5   8  -9-18.1377 9.41029   3
   5   8  -9 4.33435 10.5862   5
   5   8  -8 64.5594 11.6708   5
   5   8  -8 67.6213 11.6960   3
   5   8  -7 53.7702 10.3843   5
   5   8  -7 37.2322 10.4816   3
   5   8  -6 82.2664 11.7602   3
   5   8  -5 37.4141 12.5022   3
   5   8  -4 42.3685 12.2495   3
   5   8  -3 3.45449 10.8454   3
   5   8  -2 22.6373 11.5874   3
   5   8  -1 1.76717 10.9490   3
   5   8   0 27.2161 11.0774   3
   5   8   1 16.5025 11.0652   3
   5   8   2-11.1658 14.1851   0
  -5  -8  -2 60.3360 14.5581   6
   5   9 -13 29.0017 14.9872   5
   5   9 -12 30.9719 13.6439   5
   5   9 -11 21.5397 13.5706   5
   5   9 -10-13.1319 12.1965   5
   5   9  -9 32.5604 11.8451   5
   5   9  -9 26.4240 10.7090   3
   5   9  -8-15.7695 10.7479   5
   5   9  -8-8.76631 10.0028   3
   5   9  -7 14.7005 11.6464   3
   5   9  -6-1.52954 10.7475   3
   5   9  -5 31.4238 11.1696   3
   5   9  -4 35.0511 12.7969   3
   5   9  -3 2.25546 12.4105   3
   5   9  -2-5.34593 11.8921   3
   5   9  -1 19.1139 9.39041   3
   5   9   0 13.6925 13.9216   0
   5   9   0 14.5361 12.1310   3
   5   9   1 8.88946 13.9350   0
   5   9   1 54.7250 13.5808   3
   5  10 -12 18.2469 16.2109   5
   5  10 -11 20.0643 13.7331   5
   5  10 -10 36.6180 14.2120   5
   5  10  -9 14.9685 11.0221   3
   5  10  -9 41.6101 12.6703   5
   5  10  -8 0.62435 12.2903   3
   5  10  -7 16.6264 13.2242   3
   5  10  -6-5.83927 10.8354   3
   5  10  -5 20.1803 11.2487   3
   5  10  -4 9.71448 12.0026   3
   5  10  -3 27.8842 13.8215   3
   5  10  -2-3.00890 10.6874   3
   5  10  -1-0.75131 13.0085   3
   5  10   0 13.3681 13.3719   3
   5  11 -11 6.12499 15.4469   5
   5  11 -10 31.3172 14.6079   5
   5  11  -9 8.37176 12.8352   3
   5  11  -8 7.72456 11.1369   3
   5  11  -7 7.66544 13.2498   3
   5  11  -6 28.9217 12.2055   3
   5  11  -5 8.22675 12.8005   3
   5  11  -4-7.04857 12.8200   3
   5  12  -9 12.8035 13.7676   3
   5  12  -8 12.3952 14.6010   3
  -6  15  -5 36.1772 15.1626   3
  -6  14   1-5.71503 13.3003   3
  -6  14   0-11.7517 12.5536   3
  -6  14  -1 26.7553 13.7069   3
  -6  14  -2 18.3682 15.0554   3
  -6  14  -3 23.8129 14.3275   3
  -6  14  -4 30.0254 14.1806   4
  -6  14  -4 40.2541 14.3546   3
  -6  14  -5-24.9672 15.4781   4
  -6  14  -5-37.6745 13.3101   3
  -6  13   5 35.4024 15.6988   3
  -6  13   5 51.1910 14.3223   0
  -6  13   4 101.635 16.0452   3
  -6  13   3-13.3413 11.8680   3
  -6  13   2 19.7206 12.7283   3
  -6  13   1 33.8003 13.4333   3
  -6  13   0-16.4936 11.3979   3
  -6  13  -1 40.2038 14.6790   3
  -6  13  -2 30.7102 13.3323   4
  -6  13  -2 5.42125 13.9643   3
  -6  13  -3-1.28118 12.4445   4
  -6  13  -3 6.40612 12.5050   3
  -6  13  -4-21.7853 12.6884   4
  -6  13  -4 11.5763 13.7055   3
  -6  13  -5 17.7678 12.6181   4
  -6  13  -5-10.3388 13.4869   3
  -6  13  -6 10.2263 11.2731   4
  -6  13  -7 17.9610 12.3743   4
  -6  12   6 34.1632 13.6210   0
  -6  12   5-31.8167 12.2322   3
  -6  12   5 18.5912 14.9637   0
  -6  12   4 0.39893 12.9137   3
  -6  12   4 0.79708 13.1567   0
  -6  12   3 48.3710 14.2598   3
  -6  12   2 87.4918 14.9708   3
  -6  12   1 0.34821 11.9098   3
  -6  12   0 10.2297 12.9066   3
  -6  12  -1 38.7446 13.8254   4
  -6  12  -1 11.6300 12.0781   3
  -6  12  -2 12.7304 12.9680   4
  -6  12  -2 5.50425 13.2848   3
  -6  12  -3 10.6839 12.5987   4
  -6  12  -3 24.7087 14.4740   3
  -6  12  -4 37.3020 11.7576   4
  -6  12  -4 37.9685 13.6290   3
  -6  12  -5 23.3868 11.8485   4
  -6  12  -5 16.1923 12.8261   3
  -6  12  -6 9.83762 11.5969   4
  -6  12  -7 55.2943 13.7881   4
  -6  12  -8 17.0296 12.1164   4
  -6  11   7-7.34643 15.2272   0
  -6  11   6 12.9190 14.7144   0
  -6  11   5 12.7696 11.2209   3
  -6  11   5-21.5802 10.9475   0
  -6  11   4 12.6168 11.4516   3
  -6  11   4-4.47262 10.2391   0
  -6  11   3 10.3568 13.5828   3
  -6  11   3 4.79811 11.1427   0
  -6  11   2 10.0970 12.4268   3
  -6  11   2 7.60690 10.4140   0
  -6  11   1 11.2598 12.9002   3
  -6  11   0-11.0356 11.3162   4
  -6  11   0 0.26535 12.9347   3
  -6  11  -1 3.99138 11.6897   4
  -6  11  -1 7.81611 13.0748   3
  -6  11  -2 16.2477 11.8872   4
  -6  11  -2 19.3861 12.0062   3
  -6  11  -3 167.910 13.5215   4
  -6  11  -3 220.673 16.1214   3
  -6  11  -4 63.2799 12.2381   4
  -6  11  -4 50.3307 13.0334   3
  -6  11  -5-0.72396 11.0207   4
  -6  11  -5 29.2468 11.0999   3
  -6  11  -6 32.8281 13.1340   4
  -6  11  -7 45.6812 14.0057   4
  -6  11  -7 46.4595 11.9052   2
  -6  11  -8-16.1798 14.0492   4
  -6  11  -8 37.2048 12.9763   2
  -6  11  -9 1.08385 14.6915   4
  -6  11  -9-12.6583 12.7985   2
  -6  10   8 66.4392 15.1841   0
  -6  10   7 12.7336 12.2933   0
  -6  10   6-7.60900 11.6121   0
  -6  10   6-6.07730 12.9444   3
  -6  10   5 13.3507 12.4461   3
  -6  10   5-3.74381 10.6538   0
  -6  10   4-3.58991 14.3872   3
  -6  10   4 6.25659 10.2291   0
  -6  10   3 3.43652 12.1539   3
  -6  10   3 1.31766 9.75453   0
  -6  10   2 32.8093 13.1859   3
  -6  10   2 8.24631 9.73337   0
  -6  10   1 35.4313 10.8893   4
  -6  10   1 3.39770 9.93732   0
  -6  10   0 23.4203 9.16080   4
  -6  10  -1 14.3503 10.1104   4
  -6  10  -2 76.7831 11.8974   4
  -6  10  -3 65.6876 11.0937   4
  -6  10  -4 193.185 14.2335   4
  -6  10  -4 213.895 14.0628   2
  -6  10  -5-0.45639 11.0384   4
  -6  10  -5-6.03801 10.6654   2
  -6  10  -6 32.5526 13.3399   4
  -6  10  -6 52.9831 12.5490   2
  -6  10  -7 11.9831 14.5236   4
  -6  10  -7 1.85257 10.8484   2
  -6  10  -8 57.7266 12.6097   2
  -6  10  -9-3.86471 14.3960   2
  -6   9   9-1.83983 15.5513   0
  -6   9   8-0.54200 14.2067   0
  -6   9   7 43.3733 12.7070   0
  -6   9   6-12.7600 11.8271   0
  -6   9   6 3.72457 10.3696   3
  -6   9   5 33.1026 10.7246   0
  -6   9   5 37.0907 11.1520   3
  -6   9   4 72.0577 12.2127   0
  -6   9   3 171.405 13.2616   0
  -6   9   2-4.41402 9.89499   0
  -6   9   2 29.2889 10.5035   4
  -6   9   1 172.014 11.6392   4
  -6   9   1 205.082 12.3000   0
  -6   9   0 8.45924 8.08600   0
  -6   9   0 27.5088 9.13695   4
  -6   9  -1 123.806 12.1305   4
  -6   9  -1 87.4890 9.76523   2
  -6   9  -2-1.52513 8.17773   2
  -6   9  -2-1.57969 9.87929   4
  -6   9  -3 41.9844 11.3104   4
  -6   9  -3 44.0917 9.47295   2
  -6   9  -4 1.34491 12.3747   4
  -6   9  -4-28.9609 8.48916   2
  -6   9  -5 43.5039 11.7587   2
  -6   9  -6-0.33571 11.9407   2
  -6   9  -7 59.0375 13.9029   2
  -6   9  -8 15.9872 12.3237   2
  -6   9  -9 18.8464 14.4860   2
  -6   8  10 22.3047 13.6711   0
  -6   8   9-17.8787 9.34954   0
  -6   8   8 1.40367 12.0204   0
  -6   8   7 29.2480 11.0760   0
  -6   8   6 9.39951 11.6151   0
  -6   8   6 37.0438 11.0242   3
  -6   8   5 12.6041 10.1581   0
  -6   8   4 111.131 11.6517   0
  -6   8   3 192.696 12.7523   0
  -6   8   2 190.859 12.0047   4
  -6   8   2 219.303 12.3949   0
  -6   8   1 47.9094 9.17284   0
  -6   8   1 62.7524 9.76223   4
  -6   8   0 30.9619 8.43400   4
  -6   8   0 20.1071 7.11154   0
  -6   8  -1-1.30118 9.45153   4
  -6   8  -1 6.58603 8.39780   0
  -6   8  -2 5.39196 9.44470   4
  -6   8  -2 10.5636 8.52711   2
  -6   8  -3 7.49168 9.29156   2
  -6   8  -4-0.21634 9.24616   2
  -6   8  -5 2.60614 10.0641   2
  -6   8  -6-8.22773 10.9915   2
  -6   8  -7 13.6596 12.5646   2
  -6   8  -8 29.3929 12.5812   2
  -6   8  -9 2.00471 13.6835   2
  -6   7  11-8.15960 14.5767   0
  -6   7  10 7.08050 13.3568   0
  -6   7   9-6.79550 12.6731   0
  -6   7   8 8.32877 11.8349   0
  -6   7   7-6.94146 11.6220   0
  -6   7   6 30.5293 11.7683   0
  -6   7   5 30.3130 10.6942   0
  -6   7   4 16.0190 9.49220   0
  -6   7   3 24.2549 7.95063   4
  -6   7   3 14.5090 9.46028   0
  -6   7   2 180.867 10.3531   4
  -6   7   2 183.422 11.3792   0
  -6   7   1 408.045 13.9284   4
  -6   7   1 484.781 14.0525   0
  -6   7   0 217.722 10.9693   0
  -6   7   0 233.170 13.2269   4
  -6   7  -1 2.27141 7.30001   0
  -6   7  -2 15.7522 6.14807   0
  -6   7  -2 17.6874 8.39541   2
  -6   7  -3 11.5010 8.67707   2
  -6   7  -4 15.2257 10.7232   2
  -6   7  -5 0.02996 10.8295   2
  -6   7  -6 2.33941 11.3773   2
  -6   7  -7 51.6539 13.5297   2
  -6   7  -8 61.2120 14.3477   2
  -6   7  -9 19.0449 15.7465   2
  -6   6  11 14.9177 13.9142   0
  -6   6  10 26.6172 12.4463   0
  -6   6   9 63.7037 14.0693   0
  -6   6   8-1.37467 11.4644   0
  -6   6   7 11.4363 9.79706   0
  -6   6   6 28.7294 11.1561   0
  -6   6   5 10.1611 9.59714   0
  -6   6   4 2.32846 6.46826   4
  -6   6   4 5.64413 9.28037   0
  -6   6   3 64.8068 7.66381   4
  -6   6   3 55.6581 9.55456   0
  -6   6   2 8.62871 8.45474   0
  -6   6   2-4.18567 6.71273   4
  -6   6   1 986.249 19.9374   4
  -6   6   1 830.784 16.9467   0
  -6   6   0-3.08381 7.50851   0
  -6   6  -1 30.8275 7.69527   0
  -6   6  -2 7.67990 7.04364   0
  -6   6  -2 13.2881 9.25007   2
  -6   6  -3 169.467 10.5056   0
  -6   6  -3 157.909 11.1375   2
  -6   6  -4-1.38684 10.3109   2
  -6   6  -4 7.41285 8.06893   0
  -6   6  -5 9.80392 8.99027   2
  -6   6  -6 34.5353 11.5460   2
  -6   6  -7 24.3502 12.9350   2
  -6   6  -8 23.0237 14.9334   2
  -6   6  -9-16.2217 15.5632   2
  -6   5  12 20.8831 14.2057   0
  -6   5  11 40.3151 15.1990   0
  -6   5  10 61.0900 13.9541   0
   6  -5  -9 9.59293 10.0428   2
  -6   5   9-5.35690 12.0524   0
   6  -5  -8 53.1559 9.79465   2
  -6   5   8 69.2501 12.7186   0
  -6   5   7 9.93868 10.0776   0
  -6   5   6 62.3081 10.8797   0
  -6   5   5 1.01145 8.20288   0
  -6   5   4 0.64170 5.51243   4
  -6   5   4 0.61092 8.72445   0
  -6   5   3 12.9153 6.37119   4
  -6   5   3 24.3400 8.17860   0
  -6   5   2 337.745 11.8972   4
  -6   5   2 312.024 12.2359   0
  -6   5   1 230.603 11.1968   0
  -6   5   0 78.3922 8.69539   0
  -6   5  -1 86.6334 8.66553   0
  -6   5  -2 204.846 12.4998   2
  -6   5  -2 189.125 10.7824   0
  -6   5  -3-33.4879 9.05362   2
  -6   5  -3 1.36759 8.13539   0
  -6   5  -4 73.7613 10.0276   0
  -6   5  -4 72.1584 11.8930   2
  -6   5  -5 32.4928 10.5633   2
  -6   5  -6 10.6411 11.2883   2
  -6   5  -7 10.6030 14.0370   2
  -6   5  -8 27.9401 12.3708   2
  -6   5  -9 25.2192 11.6680   2
  -6   4  13-7.32674 14.9780   0
  -6   4  12 10.4947 12.6882   0
   6  -4 -11-14.3687 11.5743   2
  -6   4  11-2.62330 11.9258   0
   6  -4 -10 28.2052 10.4989   2
  -6   4  10 23.6706 11.2687   0
   6  -4  -9 16.2386 9.89050   2
  -6   4   9 26.2198 10.6242   0
   6  -4  -8 31.6324 8.26101   5
   6  -4  -8 33.9446 9.82838   2
  -6   4   8 29.6383 10.6825   0
  -6   4   7 6.01612 10.2557   0
  -6   4   6 14.0386 8.59300   0
  -6   4   5 18.2278 8.50477   0
  -6   4   5 20.2202 5.18979   4
  -6   4   4 11.6521 5.20454   4
  -6   4   4 11.8586 8.35984   0
  -6   4   3 10.8386 7.43093   0
  -6   4   3 6.03304 6.21983   4
  -6   4   2 161.241 9.98255   0
  -6   4   1 8.75792 7.53432   0
  -6   4   0 289.138 11.2018   0
  -6   4  -1 66.4672 9.02802   0
  -6   4  -2 107.464 10.9738   2
  -6   4  -2 117.218 9.98581   0
  -6   4  -3 81.0760 10.8039   2
  -6   4  -3 90.2798 10.0251   0
  -6   4  -4 16.8476 11.3226   2
  -6   4  -5 60.9949 11.7213   2
  -6   4  -6 2.59768 11.5513   2
  -6   4  -7-17.2483 11.2062   2
  -6   4  -8-4.96945 14.4828   2
  -6   4  -9-14.1478 15.0235   2
  -6   3  14 0.67771 14.8068   0
   6  -3 -13 11.0820 14.4098   2
  -6   3  13 31.3000 13.3009   0
   6  -3 -12 8.97007 12.2209   2
  -6   3  12 27.7241 12.5449   0
   6  -3 -11 21.0924 11.2548   2
  -6   3  11 39.0258 12.3580   0
   6  -3 -10 37.1376 10.9973   2
  -6   3  10 9.67990 10.6047   0
   6  -3  -9 11.4809 8.86857   5
   6  -3  -9 11.4403 10.4126   2
  -6   3   9 17.1570 11.9766   0
   6  -3  -8 24.2170 8.33153   5
   6  -3  -8 10.6331 9.52865   2
  -6   3   8 16.2434 9.31824   0
   6  -3  -7 35.0162 9.21056   2
  -6   3   7 42.5852 9.42701   0
  -6   3   6 106.403 10.9500   0
  -6   3   5 47.8581 9.48138   0
  -6   3   5 29.9937 4.65260   4
  -6   3   4 93.0849 6.62442   4
  -6   3   4 71.6121 9.75060   0
  -6   3   3 1.37893 6.90270   0
  -6   3   2 29.8395 8.91733   0
  -6   3   1 6.03213 7.60821   0
  -6   3   0-2.10291 7.14047   0
  -6   3  -1 4.88523 8.42991   0
  -6   3  -2 48.9229 10.0213   2
  -6   3  -2 47.8907 9.12594   0
  -6   3  -3 17.8574 9.83789   0
  -6   3  -3 16.3923 9.39770   2
  -6   3  -4 102.695 11.7328   2
  -6   3  -5 14.3613 9.78208   2
  -6   3  -6-4.01043 11.4647   2
  -6   3  -7 26.2907 11.9843   2
  -6   3  -8 7.49454 15.2171   2
  -6   3  -9 27.9361 13.6418   2
   6  -2 -14-2.87530 13.1001   2
   6  -2 -13-32.2682 12.4546   2
  -6   2  13 15.1733 13.1919   0
   6  -2 -12-9.62373 11.3810   2
  -6   2  12 12.2043 11.6208   0
   6  -2 -11 64.6424 13.1428   2
  -6   2  11 64.9715 12.9802   0
  -6   2  10 135.600 12.6066   0
   6  -2 -10 143.276 13.0030   2
   6  -2 -10 129.744 11.5679   5
   6  -2  -9 4.30405 8.96932   5
   6  -2  -9 7.08820 9.38104   2
  -6   2   9 19.5132 9.56175   0
   6  -2  -8 21.3410 9.04762   5
   6  -2  -8 36.6207 8.69725   2
  -6   2   8 15.3131 8.93693   0
  -6   2   7 253.476 12.0384   0
   6  -2  -7 242.094 11.6379   2
  -6   2   6 107.529 9.55646   0
  -6   2   5 330.719 7.60344   4
  -6   2   5 337.641 12.1343   0
  -6   2   4 712.535 15.4344   0
  -6   2   3 895.904 17.0277   0
  -6   2   2 645.922 14.5781   0
  -6   2   1 24.1739 7.50132   0
  -6   2   0 3.93807 8.09469   0
  -6   2  -1 2.83853 8.95934   0
  -6   2  -2 8.74637 8.86473   0
  -6   2  -2 3.76046 9.07865   2
  -6   2  -3 62.0698 10.3797   2
  -6   2  -4 26.6313 10.6311   2
  -6   2  -5 12.4698 9.98232   2
  -6   2  -6-4.94571 12.2672   2
  -6   2  -7 27.4994 12.6559   2
  -6   2  -8-35.5039 12.6364   2
  -6   2  -9-4.03685 14.6064   2
   6  -1 -14-0.18421 13.0542   2
   6  -1 -13 5.09397 12.0055   2
   6  -1 -12 20.6087 13.5218   2
  -6   1  12 20.0695 11.1553   0
   6  -1 -11-7.23343 9.34085   5
   6  -1 -11 1.29393 11.4089   2
  -6   1  11 15.0084 10.3981   0
  -6   1  10 191.398 12.9888   0
   6  -1 -10 126.437 13.1968   2
   6  -1 -10 167.184 12.3743   5
   6  -1  -9 63.2809 9.70282   5
   6  -1  -9 34.6199 9.27736   2
  -6   1   9 49.1195 10.2117   0
   6  -1  -8 19.5981 8.30701   5
   6  -1  -8 10.8951 8.04892   2
  -6   1   8 27.7118 8.86045   0
  -6   1   7 436.553 14.2249   0
   6  -1  -7 403.310 14.8488   2
  -6   1   6 240.823 11.2643   0
  -6   1   5 103.364 9.68387   0
  -6   1   4 554.379 14.7732   0
  -6   1   3 103.512 8.85659   0
  -6   1   2 588.769 14.5737   0
  -6   1   2 573.337 12.6643   6
  -6   1   1 144.951 9.58214   6
  -6   1   1 144.279 9.93841   0
  -6   1   0 211.079 11.2370   6
  -6   1   0 189.806 11.4942   0
  -6   1  -1 35.2794 9.17863   0
  -6   1  -1 32.8079 9.10073   6
  -6   1  -2 7.06470 8.20409   2
  -6   1  -2 1.62757 9.70461   6
  -6   1  -3-3.04653 9.99836   2
  -6   1  -3 11.6032 10.2517   6
  -6   1  -4 62.6890 12.7882   6
  -6   1  -4 49.9381 10.1441   2
  -6   1  -5 111.499 13.7624   6
  -6   1  -5 155.930 14.2715   2
  -6   1  -6 17.6228 12.1946   6
  -6   1  -6 13.8354 11.4991   2
  -6   1  -7-1.99368 11.3778   2
  -6   1  -8 8.92450 12.9913   2
   6   0 -14-10.2456 11.9615   2
   6   0 -13-0.20557 11.4993   2
   6   0 -12 27.0715 11.3183   5
   6   0 -12 11.6119 12.4350   2
   6   0 -11 0.43372 10.0170   5
   6   0 -11 0.42906 12.1970   2
  -6   0  11 7.13148 9.84542   0
  -6   0  10 477.678 16.5801   0
   6   0 -10 416.047 17.0742   2
   6   0 -10 455.272 16.9391   5
   6   0  -9 438.526 15.4965   5
  -6   0   9 506.667 15.6379   0
   6   0  -9 468.405 17.0570   2
   6   0  -8 50.6089 9.06130   5
   6   0  -8 30.3090 9.30816   2
  -6   0   8 50.2283 9.15636   0
   6   0  -7 851.046 18.1960   5
   6   0  -7 873.516 19.0518   2
  -6   0   7 914.724 17.9955   0
  -6   0   6 703.424 15.0753   0
  -6   0   5 455.217 14.4314   0
  -6   0   4 3.50686 7.73118   0
  -6   0   4-1.04629 5.24117   6
  -6   0   3-0.23314 7.89330   0
   6   0  -3-0.23680 8.53709   3
  -6   0   3-8.51029 6.09475   6
   6   0  -2 49.4694 8.10172   3
  -6   0   2 43.2615 7.75189   6
  -6   0   2 32.4388 7.75118   0
  -6   0   1 30.5779 8.94868   0
   6   0  -1 18.2418 8.19609   3
  -6   0   1 16.5563 8.52165   6
   6   0   0 138.663 10.3854   3
  -6   0   0 119.078 10.9084   6
  -6   0   0 92.7993 11.2688   0
  -6   0  -1 85.1729 10.5438   0
  -6   0  -1 101.471 11.3073   6
   6   0   1 104.554 10.2743   3
  -6   0  -2 11.0438 8.40433   2
  -6   0  -2-15.9637 10.4455   6
  -6   0  -3 139.271 12.7290   2
  -6   0  -3 143.040 13.5937   6
  -6   0  -4 5.88387 11.3633   6
  -6   0  -4 4.65763 9.73829   2
  -6   0  -5-4.51149 11.5414   6
  -6   0  -5-4.29957 10.3105   2
  -6   0  -6 31.6217 11.7628   6
  -6   0  -6 44.7974 12.4654   2
  -6   0  -7-19.8369 11.6356   2
   6   1 -14 6.45394 14.2052   2
   6   1 -13 25.3569 12.0409   5
   6   1 -13 0.04085 13.9215   2
   6   1 -12-6.59617 11.2929   5
   6   1 -12 3.15290 10.4825   2
   6   1 -11 30.9563 10.8607   5
   6   1 -11 24.8605 10.9967   2
   6   1 -10 373.387 16.3638   2
  -6  -1  10 412.589 14.5302   0
   6   1 -10 413.886 17.2570   5
   6   1  -9 56.8354 10.8539   5
   6   1  -9 66.2417 11.5621   2
  -6  -1   9 89.6121 9.66133   0
   6   1  -8 83.3741 9.51874   2
  -6  -1   8 93.6310 9.33049   0
   6   1  -8 91.4726 10.7963   5
  -6  -1   7 147.780 9.38741   0
   6   1  -7 128.908 9.40696   2
   6   1  -7 138.400 10.6651   5
   6   1  -6 15.4319 7.48368   3
  -6  -1   6 7.96172 7.82389   0
  -6  -1   5 39.9519 5.27970   6
   6   1  -5 43.2756 8.72452   3
  -6  -1   5 55.3671 7.82757   0
  -6  -1   4 73.6005 6.63173   6
   6   1  -4 59.9197 9.21843   3
  -6  -1   4 57.6577 7.46578   0
   6   1  -3 73.2786 9.45088   3
  -6  -1   3 78.7460 7.83492   6
  -6  -1   3 76.2086 8.47416   0
   6   1  -2 212.919 11.7689   3
  -6  -1   2 160.697 11.2987   0
  -6  -1   2 184.505 10.0919   6
  -6  -1   1 65.0208 9.65822   0
  -6  -1   1 60.3765 9.10035   6
   6   1  -1 62.8104 9.48178   3
  -6  -1   0 195.745 12.2116   0
   6   1   0 184.661 11.4290   3
  -6  -1   0 206.014 12.3971   6
  -6  -1  -1 67.0819 12.5714   6
   6   1   1 76.6821 10.1117   3
  -6  -1  -1 99.6119 9.73741   2
   6   1   2 78.4668 9.86471   3
  -6  -1  -2 45.2095 12.4144   6
  -6  -1  -2 55.5873 9.46021   2
  -6  -1  -3 25.6877 8.85769   2
  -6  -1  -3 18.2786 12.8251   6
  -6  -1  -4-0.95138 9.90232   2
  -6  -1  -5-2.63318 12.0562   6
  -6  -1  -6 73.0888 13.1702   6
  -6  -1  -7 28.7673 11.9627   6
   6   2 -14 24.2234 12.1327   5
   6   2 -14 50.4893 13.3512   2
   6   2 -13 27.8651 10.7146   5
   6   2 -13 10.4137 12.8062   2
   6   2 -12 49.5076 11.5956   5
   6   2 -12 37.7646 11.3659   2
   6   2 -11 116.972 13.3816   2
   6   2 -11 123.431 13.3090   5
   6   2 -10 4.23451 9.87493   5
   6   2 -10 4.34060 10.2618   2
   6   2  -9 66.2642 10.9394   5
   6   2  -9 71.5963 10.0712   2
  -6  -2   9 81.8997 8.56001   0
   6   2  -8 29.9720 9.75270   5
   6   2  -8 26.4263 7.63770   3
   6   2  -8 28.2383 8.75399   2
  -6  -2   8 26.2485 6.86402   0
   6   2  -7 161.008 10.1570   3
  -6  -2   7 157.913 9.27917   0
   6   2  -7 155.906 10.4095   2
   6   2  -7 158.222 10.8782   5
   6   2  -6-2.82235 7.87914   5
   6   2  -6 1.44555 8.29310   3
  -6  -2   6 9.09220 6.10318   0
  -6  -2   5 13.5402 6.97123   0
   6   2  -5 23.4515 9.34256   3
  -6  -2   5 19.4383 5.58596   6
  -6  -2   4 4.58163 7.55037   0
  -6  -2   4-1.28863 6.67595   6
   6   2  -3 151.558 11.0758   3
  -6  -2   3 162.335 9.92786   6
  -6  -2   3 141.598 10.2260   0
  -6  -2   2 14.9088 9.18011   0
   6   2  -2 32.8253 7.93416   3
  -6  -2   2 34.9706 8.95503   6
   6   2  -1 62.5641 9.36283   3
  -6  -2   1 39.5548 9.66137   0
  -6  -2   1 55.0402 10.2322   6
  -6  -2   0-0.19842 9.95912   6
   6   2   1 171.759 11.3812   3
  -6  -2  -1 190.276 10.7655   2
  -6  -2  -1 192.679 14.1626   6
  -6  -2  -2 69.5090 10.2075   2
  -6  -2  -2 67.4818 12.5042   6
   6   2   2 68.1663 10.1812   3
  -6  -2  -3-1.34399 12.2959   6
  -6  -2  -4-4.33837 12.2607   6
  -6  -2  -5 30.6855 13.2084   6
  -6  -2  -6 3.48234 10.4361   6
  -6  -2  -7 57.8849 10.8867   6
   6   3 -15 43.8401 13.2796   5
   6   3 -14 18.5950 11.4862   5
   6   3 -14 8.65788 12.1130   2
   6   3 -13 7.36772 10.4119   5
   6   3 -13-0.89249 13.7627   2
   6   3 -12-1.60262 10.5868   5
   6   3 -12 12.5015 12.1942   2
   6   3 -11 151.109 14.9399   2
   6   3 -11 172.931 13.7528   5
   6   3 -10-2.51782 9.74785   5
   6   3 -10 16.1659 10.2480   2
   6   3  -9 87.8967 10.7195   2
   6   3  -9 87.5182 11.9979   5
   6   3  -8 43.0972 10.2981   5
   6   3  -8 55.2975 10.0344   2
   6   3  -8 63.9217 8.44538   3
   6   3  -7 48.3795 9.94606   5
   6   3  -7 50.3373 8.26702   2
   6   3  -7 35.4944 8.61460   3
  -6  -3   7 48.4229 6.86374   0
   6   3  -6 39.1106 9.18201   5
  -6  -3   6 50.0806 7.42175   0
   6   3  -6 40.2748 6.59563   3
   6   3  -5 4.27892 7.27907   5
   6   3  -5 5.85878 8.03256   3
  -6  -3   5 22.7505 7.41568   0
   6   3  -4 29.1498 8.01394   3
  -6  -3   4 26.6949 8.76844   0
   6   3  -3 33.1115 8.71404   3
  -6  -3   3 28.3533 9.19429   0
  -6  -3   3 39.6407 8.68088   6
  -6  -3   2 91.2710 11.4281   0
   6   3  -2 107.313 10.1655   3
  -6  -3   2 133.223 11.3911   6
   6   3  -1-2.04168 9.29548   3
  -6  -3   1-5.01779 9.77727   6
   6   3   0 62.7593 9.73285   3
  -6  -3   0 69.6478 12.3152   6
   6   3   1 57.1620 10.2362   3
  -6  -3  -1 86.1072 13.5832   6
  -6  -3  -2-0.30632 11.8860   6
  -6  -3  -3-6.79473 11.7548   6
  -6  -3  -4-10.5591 12.6960   6
  -6  -3  -5 16.8948 12.0353   6
   6   4 -15-2.47545 13.6596   5
   6   4 -14-34.1153 12.2457   5
   6   4 -14 25.7893 13.8890   2
   6   4 -13-14.3724 10.2477   5
   6   4 -13 1.05411 11.6120   2
   6   4 -12 15.4415 12.5557   5
   6   4 -12 4.62884 10.6207   2
   6   4 -11 51.2978 11.6918   5
   6   4 -11 47.4584 11.8255   2
   6   4 -10 25.5203 11.3405   5
   6   4 -10 9.95632 10.5158   2
   6   4  -9 114.367 10.5422   3
   6   4  -9 86.2445 12.0274   2
   6   4  -9 136.429 12.5182   5
   6   4  -8 23.1732 9.29042   5
   6   4  -8 17.5548 9.24365   2
   6   4  -8 12.8950 8.34903   3
   6   4  -7 24.6730 9.83888   5
   6   4  -7 31.6949 8.69459   3
   6   4  -6 85.5480 9.55900   3
  -6  -4   6 59.8392 8.72140   0
   6   4  -6 78.6088 10.1320   5
   6   4  -5-4.04370 7.80771   5
   6   4  -5-2.66664 8.82101   3
  -6  -4   5 1.66515 7.50508   0
   6   4  -4 100.409 11.3684   3
   6   4  -4 116.546 9.07030   5
  -6  -4   4 96.3876 10.7711   0
   6   4  -3 45.5242 7.90756   5
   6   4  -3 53.9482 9.68373   3
   6   4  -2 5.82088 9.49636   3
  -6  -4   1 19.8424 10.3478   6
   6   4  -1 8.60799 8.64035   3
   6   4   0 95.0601 11.8529   3
  -6  -4   0 95.2516 13.2599   6
   6   4   1 30.7584 9.31887   3
  -6  -4  -1 32.7481 13.3042   6
   6   4   2 20.1489 8.48799   3
  -6  -4  -2 18.9428 12.3277   6
  -6  -4  -3-8.39242 12.2359   6
  -6  -4  -4-10.9820 11.8768   6
  -6  -4  -5-8.82075 13.1108   6
   6   5 -14 22.3777 13.3863   5
   6   5 -14-12.8708 11.0347   2
   6   5 -13-28.5099 13.2928   5
   6   5 -13 8.88337 12.0387   2
   6   5 -12 29.6006 12.4504   5
   6   5 -12 16.8290 9.99867   2
   6   5 -11 108.904 13.8415   2
   6   5 -11 89.4861 13.4848   5
   6   5 -10 2.62969 10.8525   5
   6   5 -10-9.12257 9.66432   2
   6   5  -9 111.753 10.3012   3
   6   5  -9 69.1611 11.4697   2
   6   5  -9 107.702 12.8324   5
   6   5  -8 31.2290 10.1095   5
   6   5  -8 39.1338 9.37269   2
   6   5  -8 57.3319 9.41680   3
   6   5  -7 24.9711 9.23506   5
   6   5  -7 16.3065 9.02023   3
   6   5  -6 136.774 11.6000   3
   6   5  -6 138.691 11.3620   5
   6   5  -5 31.9398 8.34148   5
  -6  -5   5 11.5266 8.98265   0
   6   5  -5 42.4884 9.67214   3
   6   5  -4 49.4497 7.92710   5
   6   5  -4 42.0265 10.4007   3
   6   5  -3 40.8594 10.2727   3
   6   5  -2 58.0276 10.9611   3
  -6  -5   1 33.0142 12.2677   6
   6   5  -1 0.50808 10.3108   3
   6   5   0 73.1014 11.2843   3
  -6  -5   0 84.5891 14.2234   6
   6   5   1-37.7483 11.0077   3
  -6  -5  -1 25.0138 12.3324   6
  -6  -5  -2 24.0586 13.2524   6
  -6  -5  -3 2.97397 14.4820   6
  -6  -5  -4-31.9277 14.6343   6
   6   6 -14-36.8068 12.5958   5
   6   6 -14 26.8817 12.4596   2
   6   6 -13 15.3994 11.8971   5
   6   6 -13 1.05410 11.0420   2
   6   6 -12 24.6952 12.7596   5
   6   6 -12 26.0379 11.8553   2
   6   6 -11 13.9131 11.6150   5
   6   6 -11 33.7392 10.7439   2
   6   6 -10-10.3594 10.3516   5
   6   6 -10-18.4775 10.2732   2
   6   6  -9 9.77876 10.6020   5
   6   6  -9 8.97155 9.78150   2
   6   6  -9 13.4078 8.34485   3
   6   6  -8 125.021 12.3936   5
   6   6  -8 152.638 12.4424   3
   6   6  -7 2.72179 9.66968   5
   6   6  -7 27.5102 10.0121   3
   6   6  -6 16.3374 9.41799   5
   6   6  -6 15.6126 9.68506   3
   6   6  -5 58.4638 9.44656   5
   6   6  -5 70.5230 11.8526   3
   6   6  -4 132.399 11.9896   3
   6   6  -3 16.9512 10.3957   3
   6   6  -2 59.8601 10.8729   3
   6   6  -1-1.13109 9.67451   3
   6   6   0 32.7872 11.6898   3
  -6  -6   0 26.8345 13.3366   6
   6   6   1 23.9935 10.8753   3
  -6  -6  -1 40.6178 13.8136   6
  -6  -6  -2-2.81052 12.8175   6
  -6  -6  -3 1.18623 13.6960   6
   6   7 -14-9.01550 13.7906   2
   6   7 -14 11.7380 16.7867   5
   6   7 -13 0.74762 12.2463   5
   6   7 -13 14.7458 11.3968   2
   6   7 -12 31.5590 13.4253   5
   6   7 -12 16.1110 11.7594   2
   6   7 -11-23.6651 12.3867   5
   6   7 -11 9.31340 10.7829   2
   6   7 -10 13.5543 11.1162   5
   6   7  -9-0.06338 10.6303   5
   6   7  -9-2.69090 10.3021   3
   6   7  -8 24.7041 10.7054   3
   6   7  -8 17.2246 10.6706   5
   6   7  -7 7.66958 10.2119   5
   6   7  -7 30.2243 10.8167   3
   6   7  -6 46.4592 11.3510   3
   6   7  -6 79.8078 10.4526   5
   6   7  -5 4.69291 11.3296   3
   6   7  -4 28.1374 12.0834   3
   6   7  -3 21.0345 11.3524   3
   6   7  -2 36.4317 12.4658   3
   6   7  -1 31.0090 11.2182   3
   6   7   0 10.9297 11.0643   3
  -6  -7   0 50.5549 13.3132   6
   6   7   1 29.9419 11.5444   3
  -6  -7  -1-23.0756 13.4003   6
  -6  -7  -2 43.1909 16.1466   6
   6   8 -14 41.8173 14.4146   2
   6   8 -13-4.92357 13.9331   5
   6   8 -12 34.5877 12.7763   5
   6   8 -11 6.14346 12.7012   5
   6   8 -10-7.15952 11.9171   5
   6   8  -9-4.26544 11.0896   5
   6   8  -9-5.34475 10.9090   3
   6   8  -8 13.8574 10.4115   5
   6   8  -8 22.7771 11.0578   3
   6   8  -7 0.38658 11.9152   3
   6   8  -6 133.649 14.5749   3
   6   8  -5 25.5142 11.6457   3
   6   8  -3-0.35175 10.2792   3
   6   8  -2 14.7295 10.3216   3
   6   8  -1-7.56648 12.0418   3
   6   8   0-27.4346 12.0381   3
  -6  -8   0 79.7605 15.9126   6
   6   8   1-13.7649 12.8868   3
   6   9 -13-4.47195 16.1937   5
   6   9 -12-14.3744 14.2798   5
   6   9 -11-22.6318 13.6577   5
   6   9 -10 48.0271 12.0711   5
   6   9 -10 18.3082 11.9865   3
   6   9  -9-9.96266 11.2565   5
   6   9  -9-14.0343 11.4261   3
   6   9  -8-0.26849 11.3865   3
   6   9  -7-8.18108 11.8911   3
   6   9  -6 6.36562 10.0847   3
   6   9  -5 53.4679 14.3273   3
   6   9  -4-2.41884 11.0484   3
   6   9  -3 0.47902 12.9044   3
   6   9  -2 10.5863 12.8421   3
   6   9  -1 17.8672 12.1087   3
   6   9   0 41.4509 13.7646   3
   6   9   0-35.7435 14.9082   0
   6  10 -12 16.7381 14.1900   5
   6  10 -11-1.70955 15.1125   5
   6  10 -10 52.2939 13.0746   3
   6  10 -10 44.1928 12.4233   5
   6  10  -9 48.7908 12.7554   3
   6  10  -8 9.23328 11.7600   3
   6  10  -7 5.69648 11.9828   3
   6  10  -6 5.42119 14.0466   3
   6  10  -5 26.8206 12.2554   3
   6  10  -4 31.9039 12.9700   3
   6  10  -3-32.9474 12.6118   3
   6  11 -11 50.7802 15.8363   5
   6  11 -10-20.9712 12.9690   3
   6  11  -9 20.4450 13.5453   3
   6  11  -8 2.90339 13.8819   3
   6  11  -7 63.8588 11.7575   3
  -7  14   1 91.6583 13.5843   3
  -7  14   0-41.9543 14.6126   3
  -7  14  -1 43.7345 14.8400   3
  -7  14  -2 40.3307 15.6287   4
  -7  14  -2 8.68380 15.3374   3
  -7  14  -3-0.62502 12.5978   4
  -7  14  -3 43.5173 14.4177   3
  -7  14  -4 31.4780 12.9282   4
  -7  14  -4 25.6949 12.6131   3
  -7  14  -5-25.7347 14.1217   3
  -7  13   5 71.9926 14.3728   3
  -7  13   5-6.10785 12.3875   0
  -7  13   4-21.4501 13.7200   3
  -7  13   3-21.1280 13.5072   3
  -7  13   2-1.53645 12.4713   3
  -7  13   1-4.55945 14.3237   3
  -7  13   0 10.9825 15.2283   3
  -7  13  -1 25.1521 13.9099   4
  -7  13  -1 43.2228 15.3866   3
  -7  13  -2 26.8467 11.6084   4
  -7  13  -2 6.14448 15.7152   3
  -7  13  -3 33.5291 12.4089   4
  -7  13  -3 48.1918 15.0307   3
  -7  13  -4 39.3609 13.6069   4
  -7  13  -4 77.3904 14.5155   3
  -7  13  -5 4.48103 13.0152   4
  -7  13  -5 48.8098 15.1155   3
  -7  13  -6 43.0973 14.1583   4
  -7  12   6-42.8997 14.1134   3
  -7  12   6-5.34306 13.6069   0
  -7  12   5 23.4872 13.3856   3
  -7  12   5 5.39918 9.88409   0
  -7  12   4-1.44872 12.4891   3
  -7  12   4-9.91780 13.3183   0
  -7  12   3 13.5360 14.1639   3
  -7  12   2-2.50187 13.5623   3
  -7  12   1-3.73461 12.0433   3
  -7  12   0-11.7594 11.1228   4
  -7  12   0-15.6182 11.2447   3
  -7  12  -1 28.4922 12.8986   4
  -7  12  -1 42.0699 14.4677   3
  -7  12  -2 45.4157 11.6393   4
  -7  12  -2 68.4725 14.6834   3
  -7  12  -3 0.35512 11.4086   4
  -7  12  -3 32.0212 9.88934   3
  -7  12  -4 74.8479 11.8957   4
  -7  12  -4 106.930 15.2659   3
  -7  12  -5 16.7491 12.9508   4
  -7  12  -6 40.1449 13.6664   4
  -7  12  -7-19.7491 15.3122   4
  -7  11   7 9.94856 14.4682   0
  -7  11   6 44.6404 12.5518   3
  -7  11   6-1.31519 14.0638   0
  -7  11   5 5.88772 12.4605   3
  -7  11   5 3.41236 11.0261   0
  -7  11   4 2.27971 11.8270   3
  -7  11   4 22.2172 11.8101   0
  -7  11   3-18.9651 11.9458   3
  -7  11   3-5.29822 11.4713   0
  -7  11   2 36.8329 11.6780   0
  -7  11   1-1.36174 10.8809   4
  -7  11   0 38.1860 10.6279   4
  -7  11  -1 2.62253 9.98917   4
  -7  11  -2 83.6603 12.1908   4
  -7  11  -3 8.95133 10.9425   4
  -7  11  -4 27.0270 13.0804   4
  -7  11  -5-3.20192 11.3647   4
  -7  11  -5 20.3120 10.8819   2
  -7  11  -6 3.75728 12.6791   4
  -7  11  -6 34.5837 11.1125   2
  -7  11  -7 9.28827 15.7189   4
  -7  11  -7 9.08548 13.6588   2
  -7  11  -8 11.4089 15.1677   4
  -7  11  -8 11.0490 14.0005   2
  -7  10   8 27.0669 14.4457   0
  -7  10   7-7.34530 8.96035   0
  -7  10   6 22.8939 13.0281   3
  -7  10   6 14.3161 12.0188   0
  -7  10   5-4.89608 10.3182   3
  -7  10   5 13.7036 10.3962   0
  -7  10   4 20.1618 11.0208   0
  -7  10   3 12.8050 10.0346   0
  -7  10   2-6.06726 10.2077   4
  -7  10   2-0.99416 10.5100   0
  -7  10   1-18.3610 8.94500   0
  -7  10   1-1.31935 10.0122   4
  -7  10   0 73.7201 10.5279   4
  -7  10  -1 23.7447 10.8339   4
  -7  10  -2 221.057 14.5882   4
  -7  10  -3 5.75823 12.8753   4
  -7  10  -3 11.2287 10.8783   2
  -7  10  -4 203.655 16.4674   4
  -7  10  -4 168.386 13.1720   2
  -7  10  -5 8.50060 14.2973   4
  -7  10  -5 12.6313 10.5606   2
  -7  10  -6 21.8209 11.3791   2
  -7  10  -7 41.9802 12.2875   2
  -7  10  -8 9.88100 13.6149   2
  -7   9   9-23.7920 12.9496   0
  -7   9   8 6.70136 13.2321   0
  -7   9   7-4.57216 12.1583   0
  -7   9   6 9.39795 12.5103   0
  -7   9   5 95.8030 11.9847   0
  -7   9   4 34.9694 12.0355   0
  -7   9   3 189.465 12.8240   4
  -7   9   3 154.282 13.2022   0
  -7   9   2 110.652 11.3329   4
  -7   9   2 115.584 11.8274   0
  -7   9   1 0.67495 9.54922   0
  -7   9   1 0.79944 9.68812   4
  -7   9   0 92.2469 11.8239   4
  -7   9   0 85.0173 10.5165   0
  -7   9  -1 25.5458 10.2327   4
  -7   9  -1 5.08433 8.59924   2
  -7   9  -2 45.7652 10.3876   2
  -7   9  -2 67.4266 11.7687   4
  -7   9  -3 141.266 15.7174   4
  -7   9  -3 98.2267 11.8191   2
  -7   9  -4-3.02510 9.76157   2
  -7   9  -5 56.8047 13.0280   2
  -7   9  -6 10.9662 12.0557   2
  -7   9  -7-2.46351 12.7572   2
  -7   9  -8 27.0946 15.4587   2
  -7   8  10-21.6587 12.8120   0
  -7   8   9 18.2181 13.7810   0
  -7   8   8 1.49713 12.5853   0
  -7   8   7 4.32694 10.3534   0
  -7   8   6 5.05263 11.6984   0
  -7   8   5-6.34843 12.3607   0
  -7   8   4 390.375 17.6297   0
  -7   8   3 31.5736 8.73630   4
  -7   8   3 35.5007 10.9852   0
  -7   8   2 1046.11 21.3411   4
  -7   8   2 1032.32 21.9424   0
  -7   8   1 806.153 19.5628   4
  -7   8   1 825.684 18.9915   0
  -7   8   0 736.639 19.7597   4
  -7   8   0 697.394 17.8769   0
  -7   8  -1 47.7339 10.9372   4
  -7   8  -1 43.4033 8.53499   0
  -7   8  -2 91.6418 11.6635   2
  -7   8  -3 7.79952 10.4137   2
  -7   8  -4 43.0168 11.7080   2
  -7   8  -5 8.17792 11.9022   2
  -7   8  -6 7.54986 12.8861   2
  -7   8  -7 69.2028 14.2832   2
  -7   8  -8 2.53948 12.7446   2
  -7   7  11-17.1938 12.1370   0
  -7   7  10 7.46731 13.8167   0
  -7   7   9 21.1055 12.0794   0
  -7   7   8 10.9673 12.2663   0
  -7   7   7-11.2151 12.0689   0
  -7   7   6 14.2038 10.4325   0
  -7   7   5 9.25128 11.0969   0
  -7   7   4 21.2785 9.63900   0
  -7   7   4 7.71910 7.84182   4
  -7   7   3 38.4476 8.95411   0
  -7   7   3 28.0610 8.11943   4
  -7   7   2 78.2112 9.57233   4
  -7   7   2 85.2962 10.9720   0
  -7   7   1 954.411 20.0932   0
  -7   7   1 1078.40 22.0334   4
  -7   7   0 77.4180 9.31821   0
  -7   7  -1 0.80307 7.68806   0
  -7   7  -2 3.87425 8.58982   2
  -7   7  -2 15.2890 7.75483   0
  -7   7  -3 22.5283 9.00138   0
  -7   7  -3 29.9988 8.94605   2
  -7   7  -4 15.5621 11.6793   2
  -7   7  -5-7.99510 11.9908   2
  -7   7  -6-6.09167 10.7929   2
  -7   7  -7 83.4329 15.5018   2
  -7   7  -8 10.9501 14.5405   2
  -7   6  12 39.0445 16.3642   0
  -7   6  11 21.6120 14.7743   0
  -7   6  10 43.8694 13.9331   0
  -7   6   9 8.56876 10.6767   0
  -7   6   8-6.16956 11.0055   0
  -7   6   7 12.2172 10.3656   0
  -7   6   6 58.5795 12.1743   0
  -7   6   5 7.54767 10.2384   0
  -7   6   4 114.855 8.71599   4
  -7   6   4 96.0470 11.5649   0
  -7   6   3 39.0432 8.96953   0
  -7   6   3 45.7987 8.01749   4
  -7   6   2 1199.97 21.8266   4
  -7   6   2 1035.24 20.1084   0
  -7   6   1 7.07128 8.35294   0
  -7   6   0 2.43570 7.92674   0
  -7   6  -1 8.21472 7.36990   0
  -7   6  -2 2.95099 8.72625   0
  -7   6  -2 10.1610 8.65973   2
  -7   6  -3 98.3352 12.1511   2
  -7   6  -3 142.757 11.3119   0
  -7   6  -4 14.6951 11.6277   2
  -7   6  -4 10.5979 7.88209   0
  -7   6  -5 0.47684 10.1368   2
  -7   6  -6 3.59476 12.2985   2
  -7   6  -7 13.1589 14.2148   2
  -7   6  -8-8.02326 14.5960   2
  -7   5  12-11.4514 13.8162   0
  -7   5  11 32.0756 13.0855   0
   7  -5 -10 60.6283 11.4813   2
  -7   5  10 53.9982 13.1025   0
  -7   5   9-0.24254 11.3918   0
  -7   5   8 2.04479 10.5834   0
  -7   5   7 59.4125 11.9160   0
  -7   5   6 81.9348 11.9091   0
  -7   5   5 17.8292 8.57004   0
  -7   5   4 11.5581 8.70333   0
  -7   5   4 29.0118 5.56960   4
  -7   5   3 1.61454 8.65597   0
  -7   5   3 4.94864 7.13355   4
  -7   5   2 413.441 14.6814   0
  -7   5   1 28.2773 8.65448   0
  -7   5   0 69.2708 8.96111   0
  -7   5  -1 32.1147 8.82573   0
  -7   5  -2 126.965 12.4984   2
  -7   5  -2 112.899 11.4953   0
  -7   5  -3-12.6546 9.59503   2
  -7   5  -3 0.39046 9.25905   0
  -7   5  -4 0.18684 10.0394   0
  -7   5  -4 11.3878 12.2401   2
  -7   5  -5 25.7904 10.9235   2
  -7   5  -6 11.4256 10.3901   2
  -7   5  -7 21.4685 13.0884   2
  -7   5  -8-1.37400 12.0778   2
  -7   4  13-36.0424 12.8902   0
   7  -4 -12-10.8191 10.8730   2
  -7   4  12 2.65679 11.5761   0
   7  -4 -11 75.6504 11.9927   2
  -7   4  11 37.3966 13.0722   0
  -7   4  10 130.910 14.1857   0
   7  -4 -10 136.247 13.2608   2
   7  -4  -9 7.94155 10.3641   2
  -7   4   9 5.85112 11.2836   0
  -7   4   8 137.622 13.4761   0
  -7   4   7-10.7677 9.34062   0
  -7   4   6 91.0975 11.0885   0
  -7   4   5 32.2233 10.0109   0
  -7   4   4 76.8943 7.21943   4
  -7   4   4 61.8484 9.04057   0
  -7   4   3 0.95117 9.12596   0
  -7   4   2 10.4265 8.08722   0
  -7   4   1-5.42535 7.14165   0
  -7   4   0 7.07734 8.39429   0
  -7   4  -1 73.3396 10.7401   0
  -7   4  -2 72.7550 11.8194   2
  -7   4  -2 82.5961 10.6887   0
  -7   4  -3 29.6968 9.10625   2
  -7   4  -3 70.9006 11.2465   0
  -7   4  -4 15.4131 9.49919   2
  -7   4  -5 9.91974 12.9427   2
  -7   4  -6 52.4750 14.2065   2
  -7   4  -7 2.02420 12.9602   2
  -7   4  -8 21.7111 12.7334   2
   7  -3 -14 14.7059 13.7032   2
  -7   3  14-17.3754 14.0578   0
   7  -3 -13 13.1862 13.1874   2
  -7   3  13-21.4346 13.2191   0
   7  -3 -12-6.24633 9.39762   2
  -7   3  12-27.6095 13.0326   0
   7  -3 -11 70.4438 13.1999   2
  -7   3  11 40.0230 13.3085   0
  -7   3  10 171.328 14.4422   0
   7  -3 -10 173.124 13.3327   2
   7  -3 -10 149.092 12.2213   5
   7  -3  -9 35.2784 9.52424   5
   7  -3  -9 18.1828 10.8920   2
  -7   3   9 37.8930 11.6823   0
  -7   3   8 76.8807 11.5502   0
  -7   3   7-11.2445 9.21566   0
  -7   3   6-2.51049 8.89722   0
  -7   3   5 110.981 10.0777   0
  -7   3   4 84.7776 9.34417   0
  -7   3   3-1.87277 8.08494   0
  -7   3   2 29.2721 8.54518   0
  -7   3   1 55.6431 9.55113   0
  -7   3   0 0.42658 8.63060   0
  -7   3  -1 9.29384 8.80448   0
  -7   3  -2 16.6476 9.64948   0
  -7   3  -2 26.1931 9.24897   2
  -7   3  -3-0.64704 10.3001   2
  -7   3  -4 20.3088 11.1846   2
  -7   3  -5 210.004 15.9561   2
  -7   3  -6-13.5996 13.0233   2
  -7   3  -7 39.0036 13.1676   2
  -7   3  -8-2.46213 12.1703   2
   7  -2 -14-7.40121 12.7758   2
   7  -2 -13-21.2971 9.21363   2
  -7   2  13 17.0377 14.1176   0
   7  -2 -12 25.5244 11.8059   2
  -7   2  12 41.5072 12.6933   0
   7  -2 -11 73.1039 11.4710   5
   7  -2 -11 71.2470 13.0804   2
   7  -2 -10 89.0078 11.0247   5
   7  -2 -10 78.5171 12.7331   2
  -7   2  10 65.6671 12.6473   0
   7  -2  -9 52.8023 10.4188   5
   7  -2  -9 40.9221 11.0813   2
  -7   2   9 67.0864 11.1613   0
  -7   2   8 34.3696 10.1039   0
  -7   2   7 9.62250 9.69382   0
  -7   2   6 186.912 10.4376   0
  -7   2   5 119.377 10.8221   0
  -7   2   4 56.1940 9.11977   0
  -7   2   3 360.845 13.2053   0
  -7   2   2 13.2463 7.99822   0
  -7   2   1 5.59609 8.85026   0
  -7   2   0-0.04629 8.14271   0
  -7   2  -1 147.447 12.7107   0
  -7   2  -2 8.68256 10.1505   0
  -7   2  -2-1.06898 8.38455   2
  -7   2  -3 125.162 12.8896   2
  -7   2  -4 35.6519 10.5501   2
  -7   2  -5 228.809 15.8746   2
  -7   2  -6 29.1389 10.3679   2
  -7   2  -7-16.8918 12.4293   2
   7  -1 -14-4.44044 14.9086   2
   7  -1 -13 4.84747 12.6472   2
   7  -1 -12 71.5494 12.6259   5
   7  -1 -12 94.9365 15.1641   2
  -7   1  12 80.6214 13.3353   0
   7  -1 -11 10.8271 11.0619   5
   7  -1 -11 17.3261 11.1941   2
  -7   1  11-3.33551 10.6470   0
  -7   1  10 12.5504 10.4810   0
   7  -1 -10-5.39465 9.63298   5
   7  -1 -10 19.4200 10.2572   2
   7  -1  -9 32.4586 9.52115   5
   7  -1  -9 28.2778 11.1167   2
  -7   1   9 35.2272 10.0060   0
  -7   1   8 102.123 10.8265   0
   7  -1  -8 101.131 11.6380   2
  -7   1   7-3.54415 8.58638   0
  -7   1   6 318.469 13.0686   0
  -7   1   5 20.0578 8.12576   0
  -7   1   4-3.39240 7.47171   0
  -7   1   3-8.42683 7.40228   0
  -7   1   2 272.140 11.4109   6
  -7   1   2 288.230 12.4735   0
  -7   1   1 11.1331 8.41904   6
  -7   1   1 4.39245 9.80848   0
  -7   1   0 8.05574 8.51291   0
  -7   1   0 29.0649 9.14934   6
  -7   1  -1 126.162 11.9222   6
  -7   1  -1 111.319 11.5856   0
  -7   1  -2-2.90620 10.0168   2
  -7   1  -2 3.01787 10.5994   6
  -7   1  -3 425.485 18.4973   2
  -7   1  -3 431.957 18.2855   6
  -7   1  -4 9.99238 8.06218   6
  -7   1  -4 4.11497 10.7776   2
  -7   1  -5 22.7229 11.0944   6
  -7   1  -5 5.33070 11.7699   2
  -7   1  -6 33.4382 11.9414   2
  -7   1  -7 28.3007 12.4335   2
   7   0 -14 26.3008 14.1714   2
   7   0 -13 36.0010 11.1210   5
   7   0 -13 0.95549 12.8710   2
   7   0 -12-0.96277 11.7174   5
   7   0 -12 29.2721 12.0503   2
  -7   0  11 189.151 13.5856   0
   7   0 -11 176.650 15.8118   2
   7   0 -11 181.672 14.2096   5
  -7   0  10 312.944 14.7364   0
   7   0 -10 285.516 16.4467   2
   7   0 -10 293.628 15.0477   5
   7   0  -9 184.955 14.0133   2
  -7   0   9 189.581 11.8601   0
   7   0  -9 145.173 12.2936   5
   7   0  -8 226.486 13.4213   2
  -7   0   8 215.812 11.3030   0
   7   0  -8 237.580 13.3380   5
  -7   0   7 51.3290 8.57273   0
  -7   0   6 9.14352 8.83803   0
  -7   0   5-2.53463 7.16840   0
  -7   0   5-4.30550 4.53374   6
  -7   0   4 30.8665 8.35136   0
  -7   0   4 36.9983 6.15927   6
  -7   0   3 11.3658 7.98088   0
  -7   0   3 12.3621 6.36748   6
  -7   0   2 2.54054 7.89129   6
   7   0  -2 16.9262 9.01585   3
  -7   0   2 25.3459 10.7903   0
   7   0  -1 106.090 11.1686   3
  -7   0   1 62.1496 9.24655   6
  -7   0   1 89.5895 10.3161   0
  -7   0   0 36.2530 9.53942   0
  -7   0   0 11.8508 9.56061   6
  -7   0  -1 40.1221 10.4566   6
  -7   0  -2 19.8179 11.2187   6
  -7   0  -2 16.3080 10.2243   2
  -7   0  -3 169.943 13.9101   2
  -7   0  -3 187.915 15.5290   6
  -7   0  -4 21.8248 11.5716   6
  -7   0  -4 11.2068 10.8110   2
  -7   0  -5 4.07451 11.9345   6
  -7   0  -5-9.57122 11.4976   2
  -7   0  -7 38.3104 12.7961   6
   7   1 -14 8.49415 12.6365   2
   7   1 -14 15.1252 12.9652   5
   7   1 -13-17.3548 12.4209   5
   7   1 -13 0.41266 13.4167   2
   7   1 -12 86.8988 12.5378   5
   7   1 -12 55.3479 13.1162   2
   7   1 -11 36.4238 11.5046   5
   7   1 -11 28.9820 11.9759   2
   7   1 -10 77.8081 11.4319   5
   7   1 -10 95.2327 13.0159   2
  -7  -1  10 80.6838 9.88124   0
   7   1  -9 101.304 12.0570   2
  -7  -1   9 136.206 10.2618   0
   7   1  -9 98.3866 11.8915   5
  -7  -1   8 261.546 12.8724   0
   7   1  -8 296.592 14.2517   5
   7   1  -7 52.4368 9.99721   5
  -7  -1   7 53.2047 8.35248   0
   7   1  -6 10.5258 7.27950   3
  -7  -1   6 17.9510 7.19521   0
  -7  -1   5 10.8255 8.07053   0
   7   1  -5 4.75500 9.00607   3
  -7  -1   5 14.0228 5.55336   6
   7   1  -4 14.4154 8.52587   3
  -7  -1   4 29.2084 8.11265   0
  -7  -1   4 7.19015 6.33493   6
   7   1  -3 78.0473 10.6910   3
  -7  -1   3 88.2453 9.07600   6
  -7  -1   3 77.4330 10.8323   0
   7   1  -2-6.01873 8.95690   3
  -7  -1   2-0.04744 9.01031   0
  -7  -1   2-5.51443 8.63470   6
   7   1  -1 77.5534 11.3534   3
  -7  -1   1 59.3321 11.1806   0
  -7  -1   1 59.9240 10.4396   6
   7   1   0 15.0154 9.07554   3
  -7  -1   0-9.06542 10.1166   6
   7   1   1 45.1677 10.0766   3
  -7  -1  -1 49.0603 10.1286   2
  -7  -1  -1 35.3604 11.4700   6
  -7  -1  -2 0.03318 10.9902   6
   7   1   2 7.40389 9.00430   3
  -7  -1  -2 6.89409 9.61629   2
  -7  -1  -3-36.5598 11.1094   6
  -7  -1  -3-5.91737 10.0122   2
  -7  -1  -4 8.60570 11.3276   6
  -7  -1  -5 26.7683 12.4738   6
  -7  -1  -6 31.6965 13.6606   6
   7   2 -15 19.3233 14.8648   5
   7   2 -14 43.5103 12.6313   5
   7   2 -14 17.1047 12.7080   2
   7   2 -13 36.2610 12.3214   5
   7   2 -13 9.04767 12.9726   2
   7   2 -12-1.15846 11.5016   5
   7   2 -12-1.22801 12.3948   2
   7   2 -11 12.8868 11.3953   5
   7   2 -11 29.6989 12.7782   2
   7   2 -10 0.60903 10.5995   5
   7   2 -10 3.01970 9.26649   2
   7   2  -9 50.8870 10.8394   5
   7   2  -9 44.2615 11.4194   2
  -7  -2   9 37.4998 8.62661   0
   7   2  -8-1.46962 9.67594   5
   7   2  -8 14.6683 8.29923   3
  -7  -2   8 4.01364 7.60220   0
   7   2  -7 87.2411 10.2634   3
  -7  -2   7 104.927 9.08064   0
   7   2  -7 87.9655 9.99586   5
  -7  -2   6 31.9310 7.98268   0
   7   2  -6 50.0822 10.1037   3
   7   2  -5 237.215 13.1217   3
  -7  -2   5 209.257 9.29242   6
  -7  -2   5 232.855 11.4844   0
   7   2  -4 51.7543 10.5655   3
  -7  -2   4 44.1349 7.80024   6
  -7  -2   4 41.4398 9.89638   0
   7   2  -3 47.4681 9.27981   3
  -7  -2   3 61.2472 10.7093   0
  -7  -2   3 49.8064 8.88495   6
  -7  -2   2 7.69394 9.30171   6
   7   2  -2-3.57041 8.57066   3
  -7  -2   2-2.24403 10.1146   0
  -7  -2   1 7.38888 10.2009   6
   7   2  -1 12.5971 10.2708   3
  -7  -2   0 1.10023 10.8187   6
   7   2   0 5.08916 10.2786   3
   7   2   1 130.979 12.3547   3
  -7  -2  -1 107.080 11.5841   2
  -7  -2  -1 140.931 14.6514   6
   7   2   2 4.41821 7.38913   3
  -7  -2  -2 9.39660 11.8568   6
  -7  -2  -3 26.0348 13.7872   6
  -7  -2  -4 17.9673 12.7371   6
  -7  -2  -5 59.1347 14.4359   6
   7   3 -15 9.66439 15.1657   5
   7   3 -14 12.3878 14.2080   5
   7   3 -14 8.39483 11.8414   2
   7   3 -13 2.95223 12.7084   5
   7   3 -13-5.96327 13.0558   2
   7   3 -12-30.9964 12.3554   5
   7   3 -12-0.78064 10.3506   2
   7   3 -11-7.71403 11.3177   5
   7   3 -11 9.22029 10.8311   2
   7   3 -10-2.25500 10.5407   5
   7   3 -10-2.56549 9.72014   2
   7   3  -9 18.9305 10.8912   5
   7   3  -9 24.2133 8.99417   3
   7   3  -9 15.9891 10.4354   2
   7   3  -8-2.42232 8.74455   5
   7   3  -8 10.2870 9.16154   3
   7   3  -7 17.3671 9.37605   5
  -7  -3   7 27.3464 7.26011   0
   7   3  -7 19.0273 9.49026   3
   7   3  -6 28.6078 9.75509   5
   7   3  -6 0.53971 9.60445   3
  -7  -3   6 16.6268 8.56052   0
  -7  -3   5 49.2050 9.13564   0
   7   3  -5 36.8857 9.09319   5
   7   3  -5 22.4143 10.1935   3
  -7  -3   5 56.4872 7.52071   6
   7   3  -4 5.03939 9.93864   3
  -7  -3   4 8.49760 9.44304   0
  -7  -3   4 6.17210 8.28687   6
  -7  -3   3 6.92200 10.2057   0
   7   3  -3 21.0606 10.4028   3
  -7  -3   3 32.5519 10.1280   6
   7   3  -2 27.4718 10.6918   3
  -7  -3   2 28.8854 10.4120   6
   7   3  -1-27.7665 9.80832   3
  -7  -3   1 2.42755 10.4381   6
  -7  -3   0 53.1332 11.5879   6
  -7  -3  -1 14.3897 12.6487   6
   7   3   1 11.1541 9.98058   3
  -7  -3  -2 25.6605 13.1835   6
  -7  -3  -3 8.13898 12.8925   6
  -7  -3  -4 31.1170 13.4104   6
   7   4 -15 16.0782 12.9612   5
   7   4 -14-19.0971 13.7242   5
   7   4 -14-19.0813 13.6624   2
   7   4 -13 14.6479 12.3051   5
   7   4 -13-0.69886 13.7850   2
   7   4 -12 19.0890 13.1991   5
   7   4 -12-6.95697 9.96009   2
   7   4 -11-8.01514 11.2889   5
   7   4 -11-6.33897 11.2458   2
   7   4 -10 17.6692 9.84398   5
   7   4 -10 15.2498 11.5804   2
   7   4  -9 1.15658 10.8246   5
   7   4  -9 16.4733 9.69531   3
   7   4  -9 4.39261 10.4503   2
   7   4  -8 31.6057 10.3614   5
   7   4  -8 3.88183 9.73099   3
   7   4  -7 1.29554 9.38329   5
   7   4  -7 3.82563 9.93178   3
   7   4  -6 165.072 12.3888   3
   7   4  -6 183.785 11.8954   5
  -7  -4   6 207.770 11.4504   0
  -7  -4   5 8.76630 9.56476   0
   7   4  -5 38.7186 9.36097   5
   7   4  -5 36.4071 11.0754   3
   7   4  -4 17.7531 8.38931   5
   7   4  -4 18.4260 9.58368   3
  -7  -4   4 12.5073 9.51355   0
  -7  -4   4 27.9052 8.90820   6
   7   4  -3 9.28183 9.70896   3
  -7  -4   3 9.96632 9.80062   6
   7   4  -2 11.9810 10.7303   3
  -7  -4   2 9.40240 10.7368   6
   7   4  -1 19.3442 10.4153   3
  -7  -4   1 20.1592 12.4548   6
   7   4   0 9.14244 10.2959   3
  -7  -4   0-5.90533 11.0782   6
  -7  -4  -1 21.1862 13.9916   6
  -7  -4  -2 4.61314 12.2788   6
  -7  -4  -3 44.2944 14.5980   6
  -7  -4  -4 11.1402 14.0602   6
   7   5 -14 28.0023 13.8179   5
   7   5 -14 23.7909 13.7377   2
   7   5 -13 11.9961 11.4499   5
   7   5 -13 3.94836 12.9878   2
   7   5 -12 3.75328 12.0324   5
   7   5 -12 9.61825 12.4240   2
   7   5 -11 19.4113 11.8812   5
   7   5 -11 9.57645 10.1276   2
   7   5 -10 9.60441 10.9693   5
   7   5 -10 19.4290 10.7807   2
   7   5  -9 32.2430 10.9165   5
   7   5  -9 53.6758 9.73310   3
   7   5  -8 55.2859 11.5627   5
   7   5  -8 54.1262 10.3854   3
   7   5  -7 9.78878 9.60052   5
   7   5  -7 21.0212 10.6654   3
   7   5  -6 13.0828 9.40021   5
   7   5  -6 12.7745 9.77905   3
   7   5  -5 30.0942 8.64768   5
   7   5  -5 24.0712 10.9122   3
  -7  -5   5 17.7716 9.55142   0
   7   5  -4 7.32628 9.26806   3
   7   5  -3 49.9902 10.9449   3
  -7  -5   3 53.8303 11.7018   6
   7   5  -2 8.21240 10.2336   3
  -7  -5   2 23.1191 11.4578   6
   7   5  -1 10.6379 9.45002   3
  -7  -5   1-4.37099 12.7637   6
   7   5   0 8.62943 10.9053   3
  -7  -5   0 13.6663 12.1271   6
  -7  -5  -1 7.21336 11.8110   6
   7   5   1 11.5490 9.51282   3
  -7  -5  -2-5.91942 13.9120   6
  -7  -5  -3-25.2253 12.2819   6
   7   6 -14 44.8454 14.3476   5
   7   6 -14 44.6864 14.7352   2
   7   6 -13-20.5236 12.4968   5
   7   6 -13 16.9825 10.8825   2
   7   6 -12 3.49322 10.9693   5
   7   6 -12 37.5563 12.0135   2
   7   6 -11 0.89636 11.9641   5
   7   6 -11-1.82335 10.0952   2
   7   6 -10 40.6498 11.4489   5
   7   6  -9 24.4139 10.9443   5
   7   6  -9 12.6556 10.2312   3
   7   6  -8 98.2997 12.0983   3
   7   6  -8 105.248 12.5016   5
   7   6  -7 21.1440 10.9039   5
   7   6  -7 14.2540 11.2669   3
   7   6  -6 88.5622 12.9526   3
   7   6  -6 98.8749 11.2777   5
   7   6  -5-0.66791 12.8282   3
   7   6  -4 20.3863 10.8601   3
   7   6  -3 15.9326 10.6162   3
   7   6  -2 20.2786 9.74922   3
  -7  -6   2 44.0005 12.9351   6
   7   6  -1 19.2154 10.4715   3
  -7  -6   1-3.60551 9.81498   6
   7   6   0 6.74252 9.42726   3
  -7  -6   0 17.0585 13.2952   6
   7   6   1 15.1447 11.0564   3
  -7  -6  -1-1.93922 13.0857   6
  -7  -6  -2 16.4316 14.1458   6
   7   7 -14 49.2464 14.3228   2
   7   7 -13-7.02030 12.2545   5
   7   7 -13 18.7178 12.5203   2
   7   7 -12-30.7232 13.4511   5
   7   7 -12 30.7616 11.5528   2
   7   7 -11 0.15371 13.2754   5
   7   7 -10 7.52320 12.1880   5
   7   7 -10 21.8586 10.2166   3
   7   7  -9 25.9718 11.9600   3
   7   7  -9 3.69718 11.2066   5
   7   7  -8 18.2321 9.62588   5
   7   7  -8 1.38059 11.0159   3
   7   7  -7-1.98934 10.4055   5
   7   7  -7 0.03519 11.4265   3
   7   7  -6 34.6149 12.8348   3
   7   7  -5 42.2191 11.3262   3
   7   7  -4 50.5731 12.6619   3
   7   7  -3-16.3025 10.5258   3
   7   7  -2 11.7821 12.1433   3
  -7  -7   2 37.2802 14.0734   6
   7   7  -1 33.1518 9.76484   3
  -7  -7   1 43.2355 13.5102   6
   7   7   0 35.3966 11.9746   3
  -7  -7   0-10.5329 13.0963   6
   7   8 -13-20.2554 13.3355   5
   7   8 -12-14.3835 12.7509   5
   7   8 -11 4.84245 11.9209   5
   7   8 -10 12.8413 12.6583   5
   7   8 -10 35.8067 11.6515   3
   7   8  -9-9.55291 11.0847   5
   7   8  -9 11.1829 11.1307   3
   7   8  -8-6.26095 11.1453   3
   7   8  -7 40.6560 11.7883   3
   7   8  -6-8.68089 11.3171   3
   7   8  -5 7.63632 11.4454   3
   7   8  -4 9.68721 12.0161   3
   7   8  -3 43.0124 12.5072   3
   7   8  -2-18.3201 11.5893   3
  -7  -8   1 43.1535 14.2555   6
   7   8  -1 50.4225 13.4630   3
   7   8   0 52.7173 14.1970   3
   7   9 -12 64.4457 13.5838   5
   7   9 -11-29.0783 12.6962   5
   7   9 -10 45.1653 12.9371   5
   7   9 -10 16.0619 11.9614   3
   7   9  -9 11.9251 13.2058   3
   7   9  -8 5.43615 13.3954   3
   7   9  -7 25.4323 14.0395   3
   7   9  -6 5.86101 12.7401   3
   7   9  -5 58.5437 14.9385   3
   7   9  -4 1.16072 11.3002   3
   7   9  -3 51.4637 13.7321   3
   7  10 -11 4.49487 15.1098   5
   7  10 -10 33.2673 12.6553   3
   7  10  -9 145.525 14.8562   3
   7  10  -8 15.8602 11.4665   3
   7  10  -7 37.6282 13.2120   3
   7  10  -6 65.1773 13.3352   3
  -8  14   0 3.28782 14.8328   3
  -8  14  -1 31.0456 12.9779   4
  -8  14  -1-4.86971 14.3368   3
  -8  14  -2 53.8059 14.3523   4
  -8  14  -2 2.71622 15.1740   3
  -8  14  -3 10.6188 12.0994   4
  -8  14  -3-4.69543 13.0072   3
  -8  14  -4 54.8567 16.5394   3
  -8  13   5-23.6151 12.9983   0
  -8  13   4 22.5576 15.8863   3
  -8  13   3 0.77231 14.9651   3
  -8  13   2 28.3850 14.3713   3
  -8  13   1 28.1239 15.1985   3
  -8  13   0-18.2081 11.3921   4
  -8  13   0-5.03531 15.2235   3
  -8  13  -1 13.2959 11.7684   4
  -8  13  -1 25.8933 14.0536   3
  -8  13  -2-1.90107 13.4073   4
  -8  13  -2 6.52578 13.2809   3
  -8  13  -3 34.3783 12.0244   4
  -8  13  -3-5.51134 12.4538   3
  -8  13  -4 33.0922 15.6876   4
  -8  13  -4-13.9316 14.9861   3
  -8  13  -5 69.4803 13.2047   4
  -8  12   6 10.6803 14.6530   3
  -8  12   6 7.41932 14.5372   0
  -8  12   5-12.5667 13.2962   3
  -8  12   5-3.87433 10.7000   0
  -8  12   4-7.83573 12.6250   3
  -8  12   4-8.20350 13.2163   0
  -8  12   3-11.7865 12.6583   3
  -8  12   1-13.8860 11.7744   4
  -8  12   0 14.7438 10.6667   4
  -8  12  -1 28.4892 11.3421   4
  -8  12  -2-22.2845 11.4039   4
  -8  12  -3 32.3202 10.6357   4
  -8  12  -4-25.7395 11.9799   4
  -8  12  -5-12.7028 12.2614   4
  -8  12  -6 14.1898 14.7551   4
  -8  11   7 33.8651 15.1420   0
  -8  11   6-6.78274 12.7332   3
  -8  11   6 14.4204 14.2920   0
  -8  11   5 40.1287 14.2800   3
  -8  11   5 35.8573 12.6123   0
  -8  11   4 2.66976 10.6241   0
  -8  11   3 3.71352 11.4524   0
  -8  11   2 14.5887 10.3560   0
  -8  11   2-0.17254 11.0510   4
  -8  11   1 59.2652 12.0023   4
  -8  11   0 1.38729 11.1512   4
  -8  11  -1 29.6804 11.8555   4
  -8  11  -2 27.7466 11.1601   4
  -8  11  -3 28.1796 14.7901   4
  -8  11  -4 13.2140 11.0323   4
  -8  11  -4-10.6961 10.9057   2
  -8  11  -5 14.4827 12.7681   4
  -8  11  -5 18.3917 11.7585   2
  -8  11  -6-16.1982 14.1649   4
  -8  11  -6 10.9784 13.2275   2
  -8  11  -7 21.0395 13.5621   4
  -8  11  -7 15.3095 13.2496   2
  -8  10   8-28.2688 13.6834   0
  -8  10   7-3.22349 11.9514   3
  -8  10   7 42.5764 11.3421   0
  -8  10   6 4.10179 12.3542   0
  -8  10   5 34.2007 12.8254   0
  -8  10   4 7.69800 11.5777   0
  -8  10   3 15.7435 10.9297   0
  -8  10   3 6.11770 10.1443   4
  -8  10   2 22.8748 9.65087   0
  -8  10   2 7.72422 10.0339   4
  -8  10   1 144.231 12.7266   4
  -8  10   1 159.960 12.8315   0
  -8  10   0 36.7540 9.93763   4
  -8  10  -1 60.7957 12.4431   4
  -8  10  -1 39.7506 10.7214   2
  -8  10  -2 20.4429 11.4676   4
  -8  10  -2-36.6474 9.96567   2
  -8  10  -3 4.22491 11.7686   4
  -8  10  -3 6.59590 10.4889   2
  -8  10  -4 94.5011 18.3553   4
  -8  10  -4 58.5691 12.8672   2
  -8  10  -5 0.68516 12.0874   2
  -8  10  -6 28.1951 14.3032   2
  -8  10  -7-0.96750 14.2048   2
  -8   9   9 4.23715 13.7481   0
  -8   9   8 13.0428 15.0424   0
  -8   9   7 18.0586 12.7110   0
  -8   9   6 47.1362 12.8897   0
  -8   9   5-9.85383 11.6502   0
  -8   9   4 7.22694 9.98950   0
  -8   9   3-2.29011 10.2043   0
  -8   9   3 8.12460 8.81023   4
  -8   9   2-0.77836 9.09015   0
  -8   9   2-4.68197 7.83021   4
  -8   9   1 379.671 16.3689   4
  -8   9   1 381.149 15.7065   0
  -8   9   0 26.0984 11.0060   4
  -8   9   0 5.49833 9.04757   0
  -8   9  -1 25.5489 13.0412   4
  -8   9  -1 8.77334 9.96304   2
  -8   9  -2 20.0329 9.94578   2
  -8   9  -3 36.5779 10.7850   2
  -8   9  -4 34.5865 12.3787   2
  -8   9  -5 13.6665 12.0581   2
  -8   9  -6 12.6736 13.8773   2
  -8   9  -7 26.3724 15.5671   2
  -8   8  10 1.57120 14.1113   0
  -8   8   9-26.1798 12.8865   0
  -8   8   8 6.56192 12.8954   0
  -8   8   7 1.57955 12.4490   0
  -8   8   6 1.18515 11.9690   0
  -8   8   5 193.040 15.4439   0
  -8   8   4 175.250 11.5075   4
  -8   8   4 160.628 14.7602   0
  -8   8   3 565.273 16.8671   4
  -8   8   3 510.519 18.4264   0
  -8   8   2 619.294 16.5622   4
  -8   8   2 596.646 17.9252   0
  -8   8   1 761.426 20.3100   4
  -8   8   1 729.934 19.4992   0
  -8   8   0 73.4186 11.5726   4
  -8   8   0 56.2338 10.1377   0
  -8   8  -1 33.6379 8.71492   0
  -8   8  -2 31.6216 10.5237   2
  -8   8  -3 47.6872 12.5215   2
  -8   8  -4 9.35512 11.2450   2
  -8   8  -5-4.89654 12.3343   2
  -8   8  -6-7.66990 13.1636   2
  -8   8  -7 12.9196 12.6822   2
  -8   7  11 22.1625 12.4104   0
  -8   7  10 42.1264 15.5942   0
  -8   7   9 4.47847 12.9911   0
  -8   7   8 4.57494 12.2517   0
  -8   7   7 131.779 13.8307   0
  -8   7   6 24.7280 12.4272   0
  -8   7   5 421.419 18.4419   0
  -8   7   4 37.9121 11.1231   0
  -8   7   4 27.7600 7.69295   4
  -8   7   3 806.586 18.4598   4
  -8   7   3 875.477 21.0112   0
  -8   7   2 74.0888 10.1527   4
  -8   7   2 85.4774 11.5924   0
  -8   7   1 409.612 16.0435   0
  -8   7   0 173.614 11.2076   0
  -8   7  -1 87.0290 10.8230   0
  -8   7  -2 17.7079 10.1626   0
  -8   7  -2 17.9616 9.55062   2
  -8   7  -3 25.3068 11.1847   0
  -8   7  -3 3.28040 11.5647   2
  -8   7  -4 36.0945 12.5880   2
  -8   7  -5-1.30098 12.5947   2
  -8   7  -6 3.33560 12.4097   2
  -8   7  -7-1.79645 14.9160   2
  -8   6  12 12.4836 16.3496   0
  -8   6  11 10.1269 13.8508   0
  -8   6  10 47.5089 14.4442   0
  -8   6   9 154.550 15.8635   0
  -8   6   8 21.4830 12.3404   0
  -8   6   7 560.872 21.3609   0
  -8   6   6 69.7496 11.0407   0
  -8   6   5 317.331 16.4475   0
  -8   6   4-5.08839 9.27736   0
  -8   6   4 12.3962 7.59562   4
  -8   6   3 13.9452 8.68439   4
  -8   6   3 17.3461 9.40609   0
  -8   6   2 9.12670 9.56462   0
  -8   6   1 15.3275 9.78039   0
  -8   6   0 21.5896 8.85074   0
  -8   6  -1 17.0410 8.82881   0
  -8   6  -2 47.9173 11.3832   2
  -8   6  -2 36.3755 10.6337   0
  -8   6  -3-7.29961 9.10447   0
  -8   6  -4 2.45119 13.2858   2
  -8   6  -4 1.01305 10.1387   0
  -8   6  -5 26.7947 13.8701   2
  -8   6  -6 56.1007 14.0821   2
  -8   6  -7-29.9454 13.2731   2
  -8   5  13-4.58355 14.2232   0
  -8   5  12 7.96656 14.5817   0
  -8   5  11 9.45014 12.5967   0
  -8   5  10 8.85357 12.9507   0
  -8   5   9 235.878 17.1149   0
  -8   5   8 21.9105 11.5257   0
  -8   5   7 418.460 18.2758   0
  -8   5   6-1.93784 11.4085   0
  -8   5   5 100.605 12.4257   0
  -8   5   4 14.9724 8.12352   4
  -8   5   4 11.8121 9.67652   0
  -8   5   3 21.4471 8.91909   0
  -8   5   2-0.26579 9.32505   0
  -8   5   1 17.5264 9.24744   0
  -8   5   0 18.7283 9.03746   0
  -8   5  -1 21.3277 10.6462   0
  -8   5  -2 96.6452 10.8794   2
  -8   5  -2 89.7815 12.0757   0
  -8   5  -3 11.1015 10.6803   0
  -8   5  -3-13.4340 9.61863   2
  -8   5  -4 75.8077 14.6309   2
  -8   5  -5 32.7367 12.6801   2
  -8   5  -6 68.3987 12.8296   2
  -8   5  -7-15.3666 15.4300   2
   8  -4 -13 34.9776 16.1975   2
  -8   4  13-15.5740 12.3947   0
   8  -4 -12-10.9252 12.5203   2
  -8   4  12 0.39186 12.8524   0
  -8   4  11-7.44284 11.8865   0
  -8   4  10 36.8858 11.1421   0
  -8   4   9 160.538 15.2852   0
  -8   4   8 3.62490 10.7234   0
  -8   4   7 359.825 15.8462   0
  -8   4   6 71.5068 11.4447   0
  -8   4   5 1.89986 8.30356   0
  -8   4   4 3.62296 10.4037   0
  -8   4   3 73.7993 10.6891   0
  -8   4   2-1.64725 8.75974   0
  -8   4   1 137.645 11.3372   0
  -8   4   0 0.48944 9.56310   0
  -8   4  -1 33.5428 10.5572   0
  -8   4  -2 119.395 12.9982   2
  -8   4  -2 121.752 12.3441   0
  -8   4  -3 16.2641 10.9433   0
  -8   4  -3-31.5524 9.55894   2
  -8   4  -4 296.066 17.1232   2
  -8   4  -5 71.3465 14.9479   2
  -8   4  -6 53.1514 15.7245   2
  -8   4  -7 21.6740 14.0533   2
   8  -3 -14 38.1270 12.3703   2
  -8   3  14 8.96467 15.3576   0
   8  -3 -13 28.1760 10.9390   2
  -8   3  13 9.68896 13.3138   0
   8  -3 -12 26.5143 12.4308   2
  -8   3  12 20.5872 13.9826   0
   8  -3 -11-8.59399 11.9055   2
  -8   3  11 3.87016 11.6870   0
   8  -3 -10 23.8170 10.7719   5
  -8   3  10 8.37299 11.1959   0
  -8   3   9 231.084 14.9228   0
  -8   3   8-1.38444 10.3767   0
  -8   3   7 114.625 13.0833   0
  -8   3   6 64.9904 10.8011   0
  -8   3   5 6.02201 9.17097   0
  -8   3   4 31.7813 9.96795   0
  -8   3   3 56.7980 9.67100   0
  -8   3   2-2.77401 9.18146   0
  -8   3   1 59.2668 9.94980   0
  -8   3   0 73.1232 9.81372   0
  -8   3  -1 53.4537 11.8976   0
  -8   3  -2 114.295 11.6370   2
  -8   3  -2 117.190 13.4770   0
  -8   3  -3 30.2099 12.3144   2
  -8   3  -4 14.5499 10.2604   2
  -8   3  -5 31.9786 13.7445   2
  -8   3  -6-7.36757 14.4157   2
  -8   3  -7 7.14120 14.3640   2
   8  -2 -14-20.9322 14.5086   2
  -8   2  13 39.6866 14.5837   0
   8  -2 -13 38.6284 19.0540   2
   8  -2 -12 11.5768 9.90546   5
  -8   2  12 0.83795 12.4079   0
   8  -2 -12 20.2820 14.3613   2
   8  -2 -11-0.12278 9.77207   5
   8  -2 -11 12.7872 11.3866   2
  -8   2  11 13.2981 11.7038   0
   8  -2 -10 25.2351 11.2337   5
   8  -2 -10 47.6351 12.7202   2
  -8   2  10 41.0175 11.7226   0
  -8   2   9 122.431 12.8949   0
  -8   2   8 15.9535 9.67054   0
  -8   2   7 194.206 12.3087   0
  -8   2   6-5.43774 9.84443   0
  -8   2   5-3.61595 8.36693   0
  -8   2   4 113.040 10.1125   0
  -8   2   3 33.3136 8.68704   0
  -8   2   2 155.216 11.5681   0
  -8   2   1 228.866 13.4088   0
  -8   2   0 116.358 12.9851   0
  -8   2  -1 37.0556 11.6884   0
  -8   2  -2 103.869 13.8850   0
  -8   2  -2 111.359 12.5282   2
  -8   2  -3 123.021 15.1771   2
  -8   2  -4 7.87155 12.4596   2
  -8   2  -5 2.18019 10.6655   2
  -8   2  -6 21.6750 12.5710   2
  -8   2  -7-6.67933 13.5313   2
   8  -1 -14-8.30931 14.9498   2
   8  -1 -13-1.03086 12.9775   5
   8  -1 -13 41.0948 14.2204   2
   8  -1 -12 4.23454 11.8477   5
   8  -1 -12 6.84781 12.9995   2
  -8   1  12 6.30792 11.3921   0
  -8   1  11 240.433 15.1042   0
   8  -1 -11 270.313 17.5427   2
   8  -1 -11 267.466 15.6470   5
  -8   1  10 16.4884 9.88044   0
   8  -1 -10 12.1112 10.6766   5
   8  -1 -10 21.2933 9.40654   2
  -8   1   9 130.263 12.0669   0
   8  -1  -9 119.726 12.1709   5
  -8   1   8 90.4063 11.1129   0
  -8   1   7 66.3894 10.2435   0
  -8   1   6 122.032 10.6980   0
  -8   1   5 0.42975 8.75816   0
  -8   1   4 79.1021 10.5882   0
  -8   1   3 117.726 10.4225   0
  -8   1   2 750.421 17.3991   6
  -8   1   2 760.768 19.8535   0
  -8   1   1 307.819 13.8964   6
  -8   1   1 330.728 15.3154   0
  -8   1   0 465.164 16.8457   6
  -8   1   0 433.710 16.9738   0
  -8   1  -1 8.12868 10.4989   0
  -8   1  -1 23.4100 10.9824   6
  -8   1  -2 52.1033 11.5817   2
  -8   1  -2 32.6053 11.5833   6
  -8   1  -3 33.7143 11.4580   2
  -8   1  -4 39.2847 11.6467   6
  -8   1  -4 13.3349 12.0164   2
  -8   1  -5-6.16168 13.0040   2
  -8   1  -6 29.0154 12.8049   2
   8   0 -14 51.7519 12.9303   5
   8   0 -14-21.0388 13.1453   2
   8   0 -13 59.3763 13.5136   5
   8   0 -13 28.9929 13.7632   2
   8   0 -12 33.5075 13.4505   5
   8   0 -12 27.3051 12.9067   2
   8   0 -11 403.650 18.6384   2
  -8   0  11 380.281 17.3605   0
   8   0 -11 408.783 17.7878   5
   8   0 -10 8.33206 9.69558   5
  -8   0  10 14.5541 9.11169   0
   8   0 -10 0.86143 10.8219   2
   8   0  -9 233.639 14.3077   5
  -8   0   9 223.756 12.7443   0
  -8   0   8 1.48676 9.56996   0
  -8   0   7 192.523 12.1601   0
  -8   0   6 11.1305 8.87658   0
  -8   0   5 11.0308 9.01511   0
  -8   0   4 8.15183 8.68471   0
  -8   0   4-0.27422 6.54756   6
  -8   0   3 130.970 10.1013   6
  -8   0   3 110.918 11.6834   0
  -8   0   2 288.395 13.1470   6
  -8   0   2 235.083 14.8830   0
  -8   0   1 65.9432 11.0396   6
  -8   0   1 76.4659 11.0809   0
  -8   0   0 409.865 17.1530   6
  -8   0   0 335.702 16.7058   0
  -8   0  -1 45.8236 11.4620   6
  -8   0  -1 18.7906 10.0567   2
  -8   0  -2 23.7376 10.8845   6
  -8   0  -3 8.48773 11.8819   2
  -8   0  -3 19.2639 20.2910   6
  -8   0  -4 21.0588 11.8526   6
  -8   0  -4 3.53951 13.0299   2
   8   1 -15 65.2277 15.4841   5
   8   1 -14 5.21745 12.9540   5
   8   1 -14 3.01667 14.8238   2
   8   1 -13 38.9559 13.4198   5
   8   1 -13 16.0932 14.1277   2
   8   1 -12 0.81217 11.2359   5
   8   1 -12-5.42734 10.6666   2
   8   1 -11 0.20148 10.6705   5
   8   1 -11 6.07943 11.5729   2
   8   1 -10 75.2086 12.4329   5
  -8  -1  10 53.2045 10.1950   0
   8   1 -10 38.0298 11.2861   2
   8   1  -9 4.58462 10.8146   5
  -8  -1   9 8.75604 9.22712   0
   8   1  -8 77.4453 10.9197   5
  -8  -1   8 47.3597 10.0040   0
  -8  -1   7 82.7263 9.87428   0
  -8  -1   6 16.1993 8.42110   0
   8   1  -5 84.4935 11.6272   3
  -8  -1   5 93.0098 10.1516   0
   8   1  -4 68.9674 10.4398   3
  -8  -1   4 74.4769 8.82055   6
  -8  -1   4 82.2526 10.5097   0
  -8  -1   3 42.7522 11.6274   0
   8   1  -3 92.1627 11.6379   3
  -8  -1   3 73.9027 9.90609   6
   8   1  -2 279.266 14.5788   3
  -8  -1   2 290.338 14.3184   6
  -8  -1   2 239.126 14.8383   0
   8   1  -1 16.0038 10.0271   3
  -8  -1   1 1.17141 11.4004   0
  -8  -1   1-8.81701 10.6236   6
   8   1   0 374.885 16.4584   3
  -8  -1   0 346.273 16.6996   6
   8   1   1 76.1259 10.7740   3
  -8  -1  -1 62.6785 11.5656   2
  -8  -1  -1 38.5431 10.9331   6
  -8  -1  -2 7.21662 10.8935   2
  -8  -1  -2-14.2880 11.8105   6
  -8  -1  -3 1.41142 11.7051   6
  -8  -1  -4-7.65295 12.5241   6
  -8  -1  -5 65.4609 12.8826   6
   8   2 -15 50.5201 14.9118   5
   8   2 -14 58.5504 13.5007   5
   8   2 -14-4.30319 14.2671   2
   8   2 -13-19.6914 12.6510   5
   8   2 -13 9.74376 12.5648   2
   8   2 -12-4.10524 12.7715   5
   8   2 -12 15.6401 13.7021   2
   8   2 -11 9.04377 11.0310   5
   8   2 -11-2.88411 11.6206   2
   8   2 -10 32.2524 11.8961   5
   8   2 -10 18.3256 10.6228   2
   8   2  -9 14.8615 10.3666   5
  -8  -2   9 7.20152 8.30987   0
   8   2  -8 29.7470 10.0490   5
   8   2  -8 10.7539 10.1247   3
  -8  -2   8 0.40172 8.03871   0
  -8  -2   7 20.6421 8.38732   0
   8   2  -7 10.8514 10.1900   5
   8   2  -7 24.4548 10.3623   3
   8   2  -6 6.39628 9.92906   3
  -8  -2   6 11.1379 8.58795   0
   8   2  -5 4.54635 10.2602   3
  -8  -2   5 8.86080 7.11948   6
  -8  -2   5 7.60935 8.97632   0
   8   2  -4 176.007 13.4722   3
  -8  -2   4 170.995 11.4557   6
  -8  -2   4 164.073 12.8395   0
   8   2  -3 74.2495 12.8098   3
  -8  -2   3 85.6982 10.6596   6
  -8  -2   3 79.7398 12.2295   0
   8   2  -2 151.435 14.7881   3
  -8  -2   2 197.221 13.2094   6
  -8  -2   2 136.607 13.6156   0
   8   2  -1 1.66978 8.89710   3
  -8  -2   1 2.92066 10.9345   6
   8   2   0 116.696 13.0654   3
  -8  -2   0 112.352 13.5818   6
   8   2   1 1.53817 10.0592   3
  -8  -2  -1 2.21680 15.3102   6
  -8  -2  -2 17.0209 13.3482   6
  -8  -2  -4 24.4875 12.0886   6
   8   3 -15 62.2841 16.1169   5
   8   3 -14 17.8509 14.1972   5
   8   3 -14-10.7723 13.5417   2
   8   3 -13 31.1851 13.2685   2
   8   3 -12-14.9516 12.1452   5
   8   3 -12-1.49376 10.2526   2
   8   3 -11 13.8627 12.2086   5
   8   3 -11-1.60148 11.2541   2
   8   3 -10 26.3948 11.4658   5
   8   3  -9 72.5006 12.0701   5
   8   3  -9 61.5521 10.8992   3
   8   3  -8 123.886 12.7852   3
   8   3  -8 119.987 11.9499   5
   8   3  -7 10.7348 10.6324   5
   8   3  -7 29.7934 10.8016   3
  -8  -3   7 25.9977 8.93304   0
   8   3  -6 30.7405 9.73359   5
   8   3  -6 32.5558 11.2046   3
  -8  -3   6 30.7915 9.20127   0
   8   3  -5 31.5210 11.4793   3
  -8  -3   5 27.4388 10.9484   0
  -8  -3   5 26.5816 8.62967   6
   8   3  -4 486.647 19.5801   3
  -8  -3   4 528.836 16.7445   6
  -8  -3   4 473.364 18.2698   0
   8   3  -3 11.0172 11.6517   3
  -8  -3   3 3.71596 9.88688   6
  -8  -3   3-0.60574 11.2254   0
  -8  -3   2 65.1808 11.8345   6
   8   3  -2 48.9970 12.2824   3
   8   3  -1 2.63930 11.0272   3
  -8  -3   1-2.73072 10.7229   6
   8   3   0 4.29918 10.0211   3
  -8  -3   0-3.44878 11.5947   6
  -8  -3  -1-17.6001 13.2350   6
   8   3   1 15.4451 9.33954   3
  -8  -3  -3-12.3665 14.2865   6
   8   4 -14 7.40288 13.3021   5
   8   4 -14-11.9224 13.7506   2
   8   4 -13 17.1732 13.8393   5
   8   4 -13-8.60563 11.2434   2
   8   4 -12 2.36720 12.8124   5
   8   4 -12 2.60586 12.2134   2
   8   4 -11 24.4272 11.5242   5
   8   4 -11 10.1604 10.8396   2
   8   4 -10 13.0844 11.2992   5
   8   4  -9 101.242 12.8347   3
   8   4  -9 94.4509 12.6848   5
   8   4  -8 213.552 14.7505   3
   8   4  -8 196.194 13.9702   5
   8   4  -7-1.22393 9.19987   5
   8   4  -7-0.60986 11.4045   3
   8   4  -6 159.761 14.4275   3
   8   4  -6 208.737 13.3846   5
  -8  -4   6 176.940 13.6342   0
   8   4  -5 6.20826 9.49354   5
  -8  -4   5-0.94753 10.3553   0
  -8  -4   5 1.15497 9.02954   6
  -8  -4   4-15.2967 10.2648   0
   8   4  -4 15.3157 9.74958   3
  -8  -4   4 17.7285 9.76326   6
   8   4  -3 13.3173 10.1862   3
  -8  -4   3 4.72816 11.4139   6
   8   4  -2-43.8885 10.8015   3
  -8  -4   2 8.36124 11.0383   6
  -8  -4   1-23.5909 12.1252   6
  -8  -4   0 0.60624 12.4600   6
   8   4   0 30.2063 10.8013   3
   8   4   1-3.87092 10.6241   3
  -8  -4  -1-4.91568 10.3004   6
  -8  -4  -2-10.9982 10.7337   6
   8   5 -14 30.5183 16.3194   5
   8   5 -14-4.95462 13.9055   2
   8   5 -13 38.7831 14.8054   5
   8   5 -13-1.43126 14.4027   2
   8   5 -12 16.0705 13.6776   5
   8   5 -12 0.49729 11.8182   2
   8   5 -11 6.89321 12.8618   5
   8   5 -10 38.6055 12.5970   5
   8   5 -10 49.6580 10.8587   3
   8   5  -9 70.1842 12.9032   5
   8   5  -9 82.2764 10.7662   3
   8   5  -8 83.6354 11.8742   3
   8   5  -8 104.813 12.7403   5
   8   5  -7 1.97706 10.2622   5
   8   5  -7-0.63585 10.9860   3
   8   5  -6 139.776 13.5260   3
   8   5  -6 120.294 12.1607   5
   8   5  -5 59.9646 12.9333   3
  -8  -5   5 77.4501 11.9769   6
   8   5  -4 9.60819 11.0212   3
  -8  -5   4 18.7404 10.9270   6
   8   5  -3 15.2638 10.4099   3
  -8  -5   3-8.33073 11.9237   6
   8   5  -2 22.8773 11.1522   3
  -8  -5   2-12.6067 11.9141   6
   8   5  -1 48.9086 12.2539   3
  -8  -5   1-11.1782 12.2136   6
  -8  -5   0-8.41521 13.8887   6
  -8  -5  -1-6.37744 13.8113   6
   8   6 -14 31.6800 12.4996   2
   8   6 -13 72.3444 12.8765   5
   8   6 -13 1.84448 12.5136   2
   8   6 -12 54.4513 13.4182   5
   8   6 -12 26.2037 11.5940   2
   8   6 -11 32.0494 12.1003   5
   8   6 -10 34.5267 11.3097   3
   8   6 -10 152.402 14.7742   5
   8   6  -9 26.5387 11.5632   5
   8   6  -9 19.6807 11.6475   3
   8   6  -8 47.1925 11.7639   5
   8   6  -8 67.9426 12.9196   3
   8   6  -7 14.7709 10.2209   5
   8   6  -7 10.2022 11.2762   3
   8   6  -6 24.6926 13.1356   3
   8   6  -5 9.15936 11.4492   3
  -8  -6   5 34.5088 12.5026   6
   8   6  -4 30.2406 11.8717   3
  -8  -6   4 24.1758 12.3706   6
   8   6  -3 34.5017 12.3464   3
  -8  -6   3 19.3078 12.6997   6
   8   6  -2 3.97489 11.6103   3
  -8  -6   2 66.4226 16.3248   6
   8   6  -1 32.1954 12.5284   3
  -8  -6   1 0.27094 14.0305   6
   8   6   0 58.3041 12.5413   3
  -8  -6   0 24.0117 13.1254   6
   8   7 -14 33.5256 12.0961   2
   8   7 -13 14.3182 13.2841   5
   8   7 -12 11.1031 12.0476   5
   8   7 -11-6.93405 12.8345   5
   8   7 -10-17.1853 10.4429   5
   8   7 -10 42.3640 12.3533   3
   8   7  -9 5.88826 11.9158   5
   8   7  -9 5.31967 10.1793   3
   8   7  -8 14.0523 11.0501   5
   8   7  -8 18.4090 12.6575   3
   8   7  -7 7.70556 11.4767   3
   8   7  -6 9.87985 12.0826   3
   8   7  -5 4.68732 11.6435   3
   8   7  -4 22.3748 10.5094   3
  -8  -7   4 58.2963 11.8330   6
   8   7  -3 22.6874 12.0865   3
  -8  -7   3 44.3203 11.0217   6
   8   7  -2 21.6991 14.1032   3
  -8  -7   2 63.0203 13.9215   6
   8   7  -1-11.0009 12.7332   3
  -8  -7   1-16.2442 13.6271   6
   8   7   0 22.7880 14.5450   3
   8   8 -11 31.9118 13.9490   5
   8   8 -10 71.3195 13.4170   5
   8   8 -10-9.77648 13.0136   3
   8   8  -9 14.6731 11.9518   3
   8   8  -8 34.4872 14.1825   3
   8   8  -7 12.2791 12.4156   3
   8   8  -6 12.9503 11.0852   3
   8   8  -5-10.7181 12.3393   3
   8   8  -4 29.9485 11.2019   3
  -8  -8   4 92.5313 14.9141   6
   8   8  -3 50.5839 13.0207   3
  -8  -8   3 84.4899 14.2063   6
   8   9 -12 27.5138 12.9606   5
   8   9 -11-31.0722 12.4783   5
   8   9 -10-12.9578 12.5055   3
   8   9  -9 20.3755 13.3103   3
   8   9  -8-16.3400 12.7750   3
   8   9  -7 4.21228 13.4173   3
   8   9  -6 20.2308 13.4021   3
  -8  -9   4 50.7132 13.4045   6
  -9  14   0 51.8056 15.5666   4
  -9  14  -1 32.9115 13.5017   4
  -9  14  -2 6.08282 15.8569   3
  -9  14  -3 99.4537 16.4298   3
  -9  14  -4 26.6229 16.2204   3
  -9  13   5-13.0167 12.6116   0
  -9  13   4-8.39750 13.8022   3
  -9  13   3 16.2672 12.6830   3
  -9  13   2 29.0236 15.4379   3
  -9  13   1-1.04960 12.5818   4
  -9  13   0 2.22860 12.5172   4
  -9  13  -1-25.0377 11.1087   4
  -9  13  -2 4.32153 13.5790   4
  -9  13  -3-0.18981 13.2008   4
  -9  12   6 9.69696 16.1880   0
  -9  12   5 45.0294 14.8806   3
  -9  12   5 12.5185 13.5742   0
  -9  12   4-27.3018 13.7708   0
  -9  12   2 24.3241 12.0272   4
  -9  12   1 35.2466 11.4449   4
  -9  12   0 99.0097 12.1652   4
  -9  12  -1 12.7382 11.4265   4
  -9  12  -2 24.2952 13.7292   4
  -9  12  -3 1.76612 13.0202   4
  -9  12  -4 56.4559 12.8239   4
  -9  12  -5-24.8036 13.9593   4
  -9  12  -6-17.2351 12.2327   2
  -9  11   7 52.6434 13.9990   3
  -9  11   7 19.1188 14.8860   0
  -9  11   6 17.3204 14.1668   0
  -9  11   5 69.8849 12.6291   0
  -9  11   4 13.0403 11.9702   0
  -9  11   3 22.7258 10.5886   0
  -9  11   3-5.00508 11.3359   4
  -9  11   2 19.9369 10.6682   4
  -9  11   2 1.65284 9.13666   0
  -9  11   1 142.058 14.7379   4
  -9  11   0 2.13740 12.0015   4
  -9  11  -1 4.50977 11.6088   4
  -9  11  -2 60.0698 12.5721   4
  -9  11  -3-2.95811 12.3019   4
  -9  11  -3 10.3267 10.5994   2
  -9  11  -4-13.0459 13.4504   4
  -9  11  -4 32.5603 11.4883   2
  -9  11  -5 15.8267 15.6057   4
  -9  11  -5 6.69255 12.9827   2
  -9  11  -6-12.9601 12.6579   2
  -9  10   8 9.99467 15.9187   0
  -9  10   7 81.1511 14.1057   0
  -9  10   6 15.7235 12.5048   0
  -9  10   5-14.1007 12.2740   0
  -9  10   4-14.8278 11.2240   0
  -9  10   3 8.58428 10.7329   0
  -9  10   3 22.9162 10.0512   4
  -9  10   2-25.1758 8.94538   4
  -9  10   2-4.33642 10.7489   0
  -9  10   1 170.325 12.0960   4
  -9  10   1 160.840 13.4054   0
  -9  10   0 13.3085 11.4259   4
  -9  10  -1 4.54516 11.9151   4
  -9  10  -1 8.03558 8.55225   2
  -9  10  -2-6.39278 13.3865   4
  -9  10  -3 19.5845 11.5375   2
  -9  10  -4-0.51310 13.2797   2
  -9  10  -5 2.64392 12.7356   2
  -9  10  -6 21.6727 13.6617   2
  -9   9   9 12.2674 14.6502   0
  -9   9   8-24.4111 14.0894   0
  -9   9   7 8.21540 13.8386   0
  -9   9   6-6.25433 12.3074   0
  -9   9   5 8.51231 11.7626   0
  -9   9   4 31.5453 12.9522   0
  -9   9   3 15.0027 8.06371   4
  -9   9   3 4.25448 9.43927   0
  -9   9   2 62.2460 10.6369   4
  -9   9   2 76.3293 11.6919   0
  -9   9   1 9.35239 9.93412   4
  -9   9   1 15.9454 10.0401   0
  -9   9   0-9.54904 12.2505   4
  -9   9   0 13.0302 9.24197   0
  -9   9  -1 6.19393 10.4551   2
  -9   9  -2 13.0212 12.0172   2
  -9   9  -3 3.01585 9.39522   2
  -9   9  -4 17.1863 12.8703   2
  -9   9  -5 20.3423 13.4406   2
  -9   9  -6-7.00297 13.3327   2
  -9   8  10 7.16134 14.0645   0
  -9   8   9-7.03205 13.4495   0
  -9   8   8 6.04860 13.8431   0
  -9   8   7 3.66667 12.6152   0
  -9   8   6 11.5676 11.9174   0
  -9   8   5-3.68538 10.3138   0
  -9   8   4 2.81809 10.8240   0
  -9   8   3-0.97353 8.88906   4
  -9   8   3-2.61772 9.46941   0
  -9   8   2 684.345 19.9773   4
  -9   8   2 597.202 20.1994   0
  -9   8   1-1.51175 10.3196   4
  -9   8   1 6.63550 10.1069   0
  -9   8   0 85.6172 10.9078   0
  -9   8  -1-5.64202 9.41834   0
  -9   8  -2 32.2853 12.2072   2
  -9   8  -3 5.25408 12.3880   2
  -9   8  -4 17.2760 13.4764   2
  -9   8  -5-2.05704 9.95921   2
  -9   8  -6 8.99496 12.5168   2
  -9   7  11 29.4085 14.5774   0
  -9   7  10 45.1712 14.2212   0
  -9   7   9 19.0041 13.7018   0
  -9   7   8 12.3056 12.2517   0
  -9   7   7 13.0747 11.0884   0
  -9   7   6 57.6353 14.4876   0
  -9   7   5 15.9289 10.7525   0
  -9   7   4 100.627 11.7756   0
  -9   7   3 8.72746 8.63309   4
  -9   7   3 19.7448 11.1172   0
  -9   7   2 3.27103 11.0854   0
  -9   7   1 119.641 11.8720   0
  -9   7   0 16.5578 9.45683   0
  -9   7  -1 66.2336 5.43227   0
  -9   7  -2 1.82505 11.8058   2
  -9   7  -2-8.81535 10.2216   0
  -9   7  -3-2.13622 11.9697   2
  -9   7  -4 15.4077 12.7423   2
  -9   7  -5-5.14747 13.2040   2
  -9   7  -6 18.9508 13.3302   2
  -9   6  12 8.27589 16.2246   0
  -9   6  11 5.29544 14.6463   0
  -9   6  10 34.4763 14.4019   0
  -9   6   9 78.4157 14.3515   0
  -9   6   8 35.3255 13.1827   0
  -9   6   7 8.52736 10.5887   0
  -9   6   6 76.5031 13.5783   0
  -9   6   4 28.8232 8.54835   4
  -9   6   4 22.6435 11.2698   0
  -9   6   3 61.5301 10.5926   0
  -9   6   2 22.9234 9.95072   0
  -9   6   1 2.07118 8.94627   0
  -9   6   0 13.3670 10.6197   0
  -9   6  -1 2.40659 10.4908   0
  -9   6  -2-0.30384 10.6812   0
  -9   6  -2 0.63038 10.2175   2
  -9   6  -3 10.6615 11.8508   0
  -9   6  -3-38.1626 12.1685   2
  -9   6  -4 16.7499 11.7049   2
  -9   6  -5-3.87007 14.2815   2
  -9   6  -6 7.08216 14.0209   2
  -9   5  13 14.6257 14.9791   0
  -9   5  12-2.59875 13.4208   0
  -9   5  11 10.1494 13.6490   0
  -9   5  10 25.2243 12.5728   0
  -9   5   9 31.0619 12.9890   0
  -9   5   8 98.1248 13.9007   0
  -9   5   7 18.7692 10.1633   0
  -9   5   6 373.620 18.1951   0
  -9   5   5 6.36060 10.5150   0
  -9   5   4 14.9769 9.82231   0
  -9   5   3 55.8831 13.0830   0
  -9   5   2 13.3105 9.49568   0
  -9   5   1 20.5062 9.61994   0
  -9   5   0 6.06369 9.87425   0
  -9   5  -1 4.59799 11.0378   0
  -9   5  -2 4.63753 11.1182   0
  -9   5  -2 7.67695 10.0286   2
  -9   5  -3-5.09850 12.1932   0
  -9   5  -3-13.2968 13.0803   2
  -9   5  -4 39.7363 12.4452   2
  -9   5  -5 0.60442 12.4164   2
  -9   5  -6-14.6138 13.3950   2
  -9   4  13 23.2332 12.6056   0
  -9   4  12 1.07617 13.3528   0
  -9   4  11-0.28815 11.9586   0
  -9   4  10 160.452 16.1878   0
   9  -4 -10 173.273 14.3916   5
  -9   4   9-5.83618 11.3736   0
  -9   4   8 42.4560 13.0070   0
  -9   4   7-1.24754 10.7195   0
  -9   4   6 65.3193 12.0117   0
  -9   4   5-2.12350 9.32863   0
  -9   4   4 103.298 12.0227   0
  -9   4   3 7.06232 9.79969   0
  -9   4   2 5.01672 9.78989   0
  -9   4   1 9.41130 9.09481   0
  -9   4   0 6.87951 10.1440   0
  -9   4  -1 18.2979 11.1953   0
  -9   4  -2 39.9190 12.9696   0
  -9   4  -2 41.7587 13.8293   2
  -9   4  -3 5.18157 11.7382   2
  -9   4  -4 12.0570 13.9232   2
  -9   4  -5 9.99670 11.7411   2
  -9   4  -6-3.86391 14.3782   2
   9  -3 -14 6.21686 15.1709   2
  -9   3  14 16.6493 15.9800   0
  -9   3  13 11.8886 14.6375   0
  -9   3  12 46.2554 14.0705   0
   9  -3 -11 24.2421 10.0550   5
  -9   3  11 13.7024 11.4567   0
  -9   3  10 180.810 12.7614   0
   9  -3 -10 154.820 13.9409   5
  -9   3   9 10.3142 11.2093   0
  -9   3   8 14.8174 10.1213   0
  -9   3   7 43.2059 11.4039   0
  -9   3   6 12.9316 11.0111   0
  -9   3   5 10.2891 10.9474   0
  -9   3   4 216.436 13.6738   0
  -9   3   3 39.1653 9.74807   0
  -9   3   2 30.5262 9.21696   0
  -9   3   1-9.39724 9.68342   0
  -9   3   0 4.92949 10.4411   0
  -9   3  -1 62.5665 13.3425   0
  -9   3  -2 24.8244 11.9478   2
  -9   3  -2 3.29859 11.8993   0
  -9   3  -3-0.36742 10.8102   2
  -9   3  -4 44.1593 12.3695   2
  -9   3  -5 36.4257 12.1040   2
  -9   3  -6-24.0545 11.1403   2
   9  -2 -14 30.5981 14.3091   2
   9  -2 -13 12.2414 12.1718   2
  -9   2  13 12.8498 13.7241   0
  -9   2  12 112.768 14.8016   0
   9  -2 -12 179.163 15.4579   5
  -9   2  11 77.5903 12.4709   0
   9  -2 -11 59.2889 12.5169   5
  -9   2  10-3.50200 10.8756   0
   9  -2 -10 3.64529 10.8577   5
  -9   2   9 59.6599 11.5636   0
  -9   2   8 4.08479 10.8271   0
  -9   2   7-9.72276 10.9564   0
  -9   2   6 193.066 12.9470   0
  -9   2   5-2.68866 8.64735   0
  -9   2   4 36.3027 10.4305   0
  -9   2   3 63.0076 10.1844   0
  -9   2   2 7.19141 10.1820   0
  -9   2   1-1.76482 14.0052   0
  -9   2   0-2.63641 10.5268   0
  -9   2  -1 79.4649 13.2012   0
  -9   2  -2 10.6635 12.9772   2
  -9   2  -3 23.5253 13.2792   2
  -9   2  -4-11.6871 10.7374   2
  -9   2  -5 13.2296 14.8476   2
  -9   2  -6-31.3665 14.6324   2
   9  -1 -14 82.0224 14.9673   2
   9  -1 -13 15.5662 12.3447   5
   9  -1 -13 12.2494 13.9804   2
   9  -1 -12 2.65669 11.6649   5
  -9   1  12 42.3493 11.3098   0
   9  -1 -12 15.4014 11.0986   2
  -9   1  11 88.1500 13.2761   0
   9  -1 -11 124.648 14.1194   5
  -9   1  10 97.8672 12.0507   0
   9  -1 -10 95.0368 11.0457   5
  -9   1   9-0.43597 10.0247   0
  -9   1   8 78.2254 11.7764   0
  -9   1   7-4.21330 10.2289   0
  -9   1   6 4.22776 9.13000   0
  -9   1   5-11.9248 9.07303   0
  -9   1   4 14.7321 10.3498   0
  -9   1   3-4.43668 9.54433   0
  -9   1   2 79.7715 13.2577   0
  -9   1   2 107.006 10.3290   6
  -9   1   1 41.0138 12.6710   0
  -9   1   1 30.5368 9.48028   6
  -9   1   0 72.0694 13.4557   0
  -9   1   0 40.8091 10.7124   6
  -9   1  -1 100.096 13.0338   2
  -9   1  -1 53.9595 11.4514   6
  -9   1  -2 2.85517 12.2972   6
  -9   1  -3 0.30357 12.4157   2
  -9   1  -3-6.23688 12.6923   6
  -9   1  -4-34.7518 12.4133   2
  -9   1  -5-7.07639 13.2162   2
   9   0 -14 83.3536 14.3075   5
   9   0 -14 18.3666 14.8379   2
   9   0 -13 30.9365 13.9669   5
   9   0 -13 22.4393 14.0548   2
   9   0 -12 5.42945 11.8800   5
   9   0 -12 22.3950 13.8281   2
   9   0 -11 48.2691 13.1546   5
  -9   0  11 74.3223 11.1034   0
   9   0 -10-14.1344 11.0856   5
  -9   0  10 3.10562 10.0768   0
  -9   0   9 111.118 12.9304   0
   9   0  -9 158.160 13.6573   5
  -9   0   8 0.50396 9.61685   0
  -9   0   7 5.46961 9.07122   0
  -9   0   6-14.9881 9.53720   0
  -9   0   5 26.5232 10.6064   0
  -9   0   4 14.0459 9.96136   0
  -9   0   4 20.4869 7.54102   6
  -9   0   3 237.858 13.1037   6
  -9   0   3 279.903 15.5333   0
  -9   0   2-3.37743 10.4809   0
  -9   0   2-2.07097 9.36985   6
  -9   0   1 134.628 13.1363   6
  -9   0   1 124.275 13.9769   0
  -9   0   0 31.2702 13.3193   0
  -9   0   0 37.9077 11.4653   6
  -9   0  -1 41.6914 11.7078   2
  -9   0  -1 36.6103 11.5309   6
  -9   0  -2 8.92553 11.7347   2
  -9   0  -2-3.70465 10.5560   6
  -9   0  -3 65.4538 12.4394   6
  -9   0  -3 15.4064 13.4913   2
   9   1 -15 40.5284 15.0200   5
   9   1 -14-0.26190 13.1745   5
   9   1 -14-19.2518 15.3263   2
   9   1 -13 1.13247 13.8576   5
   9   1 -13-4.89006 13.3473   2
   9   1 -12-0.80991 12.7750   5
   9   1 -12 17.8119 18.6952   2
   9   1 -11-13.5485 11.4626   5
   9   1 -10-5.74270 11.1332   5
  -9  -1  10 3.07989 10.3180   0
   9   1  -9-0.35054 10.4476   5
  -9  -1   9-0.78035 9.65459   0
  -9  -1   8 414.760 15.5656   0
  -9  -1   7 115.596 11.2514   0
  -9  -1   6 167.468 12.9096   0
  -9  -1   5 410.998 16.7510   0
   9   1  -4 162.722 14.1137   3
  -9  -1   4 116.912 10.3158   6
  -9  -1   4 167.899 14.5728   0
   9   1  -3 68.6453 11.6758   3
  -9  -1   3 87.3954 13.1338   0
  -9  -1   3 80.8189 10.4218   6
   9   1  -2 1.41091 10.2160   3
  -9  -1   2 0.03345 11.8894   0
  -9  -1   2-9.23944 9.04736   6
   9   1  -1 69.1298 9.42627   3
  -9  -1   1 13.6164 11.2043   0
  -9  -1   0 47.2560 10.4479   6
  -9  -1  -1-9.93929 10.6091   2
  -9  -1  -1-12.1715 10.8830   6
  -9  -1  -2 36.6671 12.5351   6
  -9  -1  -3-37.7443 10.5248   6
   9   2 -15 89.5666 16.7011   5
   9   2 -14 71.9025 15.5627   5
   9   2 -14 17.6015 14.5192   2
   9   2 -13 10.8191 13.2958   5
   9   2 -13 2.59267 11.2035   2
   9   2 -12 8.25870 12.1858   5
   9   2 -11-12.6278 11.5841   5
   9   2 -10 26.7412 12.0540   5
   9   2  -9 32.9787 11.4761   5
  -9  -2   9 15.8339 9.38749   0
  -9  -2   8 132.944 11.7040   0
   9   2  -8 127.662 13.2223   5
   9   2  -7 447.743 18.4193   3
  -9  -2   7 410.609 15.8205   0
   9   2  -6 31.1160 12.3621   3
  -9  -2   6 11.8369 10.9761   0
   9   2  -5 355.223 18.3897   3
  -9  -2   5 342.779 16.7035   0
   9   2  -4 107.149 13.0099   3
  -9  -2   4 115.123 11.6426   6
  -9  -2   4 78.2755 12.8753   0
   9   2  -3 12.8779 12.3792   3
  -9  -2   3 14.6286 11.2990   0
  -9  -2   3 11.3048 10.0889   6
   9   2  -2-8.47843 10.4929   3
  -9  -2   2-34.9145 10.3837   6
  -9  -2   2-6.68900 11.5432   0
   9   2  -1 25.0134 10.4347   3
  -9  -2   1 11.7854 11.7636   6
   9   2   0-17.3595 9.44615   3
  -9  -2   0-17.8106 12.2251   6
   9   2   1 13.6851 9.76599   3
  -9  -2  -1-8.09047 9.09959   6
  -9  -2  -3 37.8410 13.9599   6
   9   3 -14-8.13317 14.3662   5
   9   3 -14 26.5843 13.5498   2
   9   3 -13 19.2904 14.7414   5
   9   3 -13 2.42203 12.0583   2
   9   3 -12 28.2156 13.0346   5
   9   3 -11 27.1243 12.7734   5
   9   3 -10-4.95487 11.7530   5
   9   3  -9-0.23173 10.7714   5
   9   3  -9 14.5719 10.0015   3
   9   3  -8 140.375 14.1887   3
   9   3  -8 138.060 13.5592   5
   9   3  -7 274.341 16.0909   3
  -9  -3   7 273.189 15.4587   0
   9   3  -7 287.839 15.6138   5
   9   3  -6 225.218 16.3704   3
  -9  -3   6 202.930 14.9066   0
   9   3  -6 194.766 13.4078   5
   9   3  -5 58.8906 12.9680   3
  -9  -3   5 40.5326 11.3540   0
   9   3  -4 3.91548 10.4041   3
  -9  -3   4-1.35211 10.8642   0
  -9  -3   4-5.61555 9.97847   6
   9   3  -3 6.98668 10.6584   3
  -9  -3   3-2.27404 9.73859   6
   9   3  -2 30.9131 12.8161   3
  -9  -3   2 1.77617 11.4948   6
   9   3  -1-12.1445 10.6933   3
  -9  -3   1-2.77253 12.0050   6
   9   3   0 33.7181 10.2492   3
  -9  -3  -1-5.61637 11.8212   6
  -9  -3  -2-8.97256 14.8206   6
   9   4 -14 10.9764 12.9912   2
   9   4 -13 27.1260 13.9782   5
   9   4 -13 5.28389 12.1986   2
   9   4 -12 14.9894 14.1331   5
   9   4 -11 73.7268 14.1836   5
   9   4 -10 48.5980 13.4867   5
   9   4 -10 32.7234 11.2000   3
   9   4  -9 10.4582 11.0563   5
   9   4  -9 15.5232 10.8772   3
   9   4  -8 77.2825 12.9048   3
   9   4  -8 107.310 12.8786   5
   9   4  -7 52.0217 11.7937   5
   9   4  -7 64.5963 13.1794   3
  -9  -4   6 28.3963 12.2766   0
   9   4  -6 52.3037 10.9307   5
   9   4  -6 43.6389 11.8872   3
  -9  -4   5 0.85231 11.5749   0
   9   4  -5-3.39319 10.5576   3
   9   4  -4 21.3511 11.1989   3
  -9  -4   4 16.4128 10.4768   6
   9   4  -3-16.1225 10.3844   3
  -9  -4   3-1.72073 10.0085   6
   9   4  -2 12.0742 11.0457   3
  -9  -4   2 1.60595 11.3028   6
   9   4  -1 13.0737 10.8954   3
  -9  -4   1 4.80416 13.0967   6
   9   4   0 25.7102 12.4999   3
  -9  -4   0 3.51794 13.3486   6
   9   5 -14 26.9422 13.8159   2
   9   5 -13 46.5324 14.7898   5
   9   5 -12-9.71607 13.1620   5
   9   5 -11 19.5675 14.1018   5
   9   5 -10 50.1688 13.6638   5
   9   5 -10 50.0462 11.9632   3
   9   5  -9 6.37086 11.1117   5
   9   5  -9-4.42378 11.3762   3
   9   5  -8 33.7290 11.6513   5
   9   5  -8 15.7701 12.7978   3
   9   5  -7 27.9803 9.93186   5
  -9  -5   4 35.0317 12.1834   6
  -9  -5   3 21.8405 11.3027   6
   9   5  -2 28.1400 11.6195   3
  -9  -5   2 11.3021 12.4258   6
   9   5  -1-6.03228 11.9803   3
  -9  -5   1-29.2735 13.7140   6
   9   5   0 9.81066 14.3371   3
  -9  -5   0 14.2510 13.8962   6
   9   6 -13 41.9451 14.1062   5
   9   6 -12 78.5904 13.8873   5
   9   6 -11 19.6882 13.3678   5
   9   6 -10 13.2368 12.9263   5
   9   6 -10 57.1754 12.9315   3
   9   6  -9 11.7697 12.0890   5
   9   6  -8-4.04787 12.0007   5
   9   6  -7 32.1116 12.6238   3
   9   6  -6 20.3246 11.8920   3
   9   6  -5 2.29376 10.9533   3
   9   6  -4 32.2262 13.1970   3
  -9  -6   4 23.0360 11.5298   6
   9   6  -3-39.4151 10.6854   3
  -9  -6   3 1.90146 12.2200   6
  -9  -6   2 26.5502 12.3273   6
  -9  -6   1 28.9864 14.6753   6
   9   7 -12-19.7487 14.7115   5
   9   7 -11-2.22615 13.2601   5
   9   7 -10-12.8433 12.2473   5
   9   7  -9 106.105 13.6180   3
   9   7  -9 118.715 14.4397   5
   9   7  -8-12.5977 12.6597   3
   9   7  -7 36.5761 12.9625   3
   9   7  -6 36.7331 12.2410   3
   9   7  -5 26.0343 11.2581   3
   9   7  -4 43.9063 13.3469   3
  -9  -7   4 24.6435 11.9511   6
   9   7  -3 17.3250 12.2278   3
  -9  -7   3-23.5139 13.0371   6
   9   8 -12 56.8355 14.4443   5
   9   8 -11 66.8820 15.1176   5
   9   8 -10 54.0361 13.5248   3
   9   8  -9 57.6114 12.8965   3
   9   8  -8 23.6311 13.7060   3
   9   8  -7-0.97570 11.8696   3
   9   8  -6-1.09740 13.4841   3
  -9  -8   4 67.8032 14.9504   6
 -10  13   5-16.9080 13.3710   0
 -10  13   2 34.0160 14.5439   4
 -10  13   1-8.79939 13.0625   4
 -10  13   0-24.9089 11.6500   4
 -10  13  -1 93.1451 13.7645   4
 -10  13  -2-22.7699 12.4950   4
 -10  12   6 3.35153 13.3147   0
 -10  12   5-8.96725 14.3248   0
 -10  12   4 7.62513 12.6406   0
 -10  12   2-2.69844 11.5261   4
 -10  12   1 76.0050 12.6107   4
 -10  12   0-18.0866 9.69382   4
 -10  12  -1 10.0551 12.1228   4
 -10  12  -2-0.92625 11.2270   4
 -10  12  -3 34.4321 12.7063   4
 -10  12  -5 14.2376 13.1354   2
 -10  11   7-1.00936 13.0232   0
 -10  11   6 5.24753 14.2625   0
 -10  11   5 8.41024 12.6046   0
 -10  11   4 16.3860 11.8501   0
 -10  11   3 12.4337 11.9882   4
 -10  11   3 8.55550 11.9813   0
 -10  11   2 40.1392 12.2518   4
 -10  11   1 28.3939 10.1610   4
 -10  11   0-1.11536 10.8151   4
 -10  11  -1 36.4077 11.9274   4
 -10  11  -2 4.01409 11.2765   4
 -10  11  -2 4.25315 11.8305   2
 -10  11  -3-34.5535 14.8823   4
 -10  11  -3 34.6148 13.6540   2
 -10  11  -4 28.3815 15.1922   4
 -10  11  -4 25.8704 14.3039   2
 -10  11  -5 7.69581 14.2584   2
 -10  10   8 14.2329 16.2892   0
 -10  10   7 31.8640 13.5534   0
 -10  10   6 17.4941 12.7966   0
 -10  10   5-1.97241 12.1470   0
 -10  10   4 2.95953 10.7064   0
 -10  10   3-0.28912 10.0403   4
 -10  10   3 2.36406 12.2218   0
 -10  10   2 63.8749 11.0706   4
 -10  10   2 27.2706 12.0807   0
 -10  10   1 28.5735 10.8303   4
 -10  10   1 0.10200 10.4349   0
 -10  10   0 33.4523 11.7825   4
 -10  10  -1 8.60595 12.6312   4
 -10  10  -1-10.4447 11.6957   2
 -10  10  -3 28.3290 11.4301   2
 -10  10  -4-3.95158 14.1770   2
 -10  10  -5 12.9720 17.1795   2
 -10   9   9 11.1481 15.2606   0
 -10   9   8 54.2354 11.5374   0
 -10   9   7 61.2682 17.0485   0
 -10   9   6 6.78490 12.8969   0
 -10   9   5 8.06785 11.9812   0
 -10   9   4 4.76412 10.8233   0
 -10   9   3 89.4606 10.8787   4
 -10   9   3 99.4260 12.8681   0
 -10   9   2 66.8617 13.7715   4
 -10   9   2 33.8277 9.87861   0
 -10   9   1 85.0808 12.1427   4
 -10   9   1 49.7428 11.8913   0
 -10   9   0 34.3975 10.8212   0
 -10   9  -1-2.89849 11.1410   2
 -10   9  -2 27.9115 11.6417   2
 -10   9  -3 1.86180 13.6054   2
 -10   9  -4-10.9996 12.9328   2
 -10   9  -5 10.7600 15.1998   2
 -10   8  10 67.7293 16.4124   0
 -10   8   9 22.7320 8.52634   0
 -10   8   8 9.77492 13.7271   0
 -10   8   7 2.36560 12.9970   0
 -10   8   6-0.69684 12.3837   0
 -10   8   5 8.00408 11.1021   0
 -10   8   4 7.56020 11.7739   0
 -10   8   3 140.347 12.2970   4
 -10   8   3 139.839 14.4575   0
 -10   8   2 73.5030 11.6444   4
 -10   8   2 56.7602 11.3031   0
 -10   8   1-0.12261 9.26758   0
 -10   8   0 24.8618 10.2810   0
 -10   8  -1 25.7408 11.4587   0
 -10   8  -2 38.6212 12.1885   2
 -10   8  -3 15.0690 13.4780   2
 -10   8  -4 16.7164 14.2076   2
 -10   8  -5-22.5838 13.2564   2
 -10   7  11 5.85682 14.5372   0
 -10   7  10 20.1669 12.4133   0
 -10   7   9-2.99241 13.7014   0
 -10   7   8-2.25210 12.5378   0
 -10   7   7 1.51075 12.1634   0
 -10   7   6 6.75169 11.8256   0
 -10   7   5-2.15077 10.7758   0
 -10   7   4-13.3249 10.7288   0
 -10   7   3 22.6249 9.69450   4
 -10   7   3 13.5990 11.1801   0
 -10   7   2 14.9880 9.93201   0
 -10   7   1 228.792 14.8935   0
 -10   7   0 14.9469 10.6738   0
 -10   7  -1 223.740 15.2452   0
 -10   7  -2 32.0129 12.5377   0
 -10   7  -2 44.4941 13.3795   2
 -10   7  -3 16.3646 13.3722   2
 -10   7  -4 37.3998 14.0624   2
 -10   7  -5 20.6558 13.4554   2
 -10   6  12 1.93539 17.8080   0
 -10   6  11 8.55837 13.5010   0
 -10   6  10-1.39460 13.1540   0
 -10   6   9 1.71965 12.4549   0
 -10   6   8 25.1394 11.7919   0
 -10   6   7 9.14665 12.2889   0
 -10   6   6 0.81740 11.4223   0
 -10   6   5 11.5497 11.4574   0
 -10   6   4-14.6961 11.9807   0
 -10   6   3 1.78586 10.4499   0
 -10   6   2 79.0352 11.5266   0
 -10   6   1 1.28686 10.5030   0
 -10   6   0 130.461 14.1555   0
 -10   6  -1 73.2809 13.8347   0
 -10   6  -2 124.930 13.7437   2
 -10   6  -2 119.268 14.0271   0
 -10   6  -3 16.4309 13.5041   2
 -10   6  -3 13.0967 13.2522   0
 -10   6  -4 33.3178 14.2358   2
 -10   6  -5-8.60391 13.0381   2
 -10   5  12 16.6531 14.6435   0
 -10   5  11 29.0975 13.3038   0
 -10   5  10 77.9875 14.6458   0
 -10   5   9 19.9288 11.7843   0
 -10   5   8-15.5638 10.5458   0
 -10   5   7 53.2242 12.2265   0
 -10   5   6 29.2914 12.2245   0
 -10   5   5 25.0923 12.2059   0
 -10   5   4 10.4441 10.0629   0
 -10   5   3 17.0450 10.1610   0
 -10   5   2 45.0418 8.57720   0
 -10   5   1 22.2514 10.2067   0
 -10   5   0 0.66030 11.4211   0
 -10   5  -1 4.05867 11.9835   0
 -10   5  -2 12.7946 12.5712   0
 -10   5  -2 27.8376 13.6282   2
 -10   5  -3 40.9310 13.4738   0
 -10   5  -3 33.4907 14.8550   2
 -10   5  -4 18.2023 14.3379   2
 -10   5  -5 1.44373 15.6306   2
 -10   4  13 15.2242 14.2333   0
 -10   4  12 46.9460 13.3177   0
 -10   4  11-0.89478 12.4289   0
  10  -4 -11 15.4753 11.5241   5
 -10   4  10 56.9186 13.3392   0
 -10   4   9-11.6543 11.3829   0
 -10   4   8 8.78264 11.4425   0
 -10   4   7 110.085 13.1014   0
 -10   4   6-15.8786 11.3872   0
 -10   4   5 25.5789 10.3054   0
 -10   4   4-7.79947 10.4637   0
 -10   4   3 1.73108 10.1207   0
 -10   4   2 94.1024 11.6363   0
 -10   4   1 24.1385 11.9068   0
 -10   4   0-7.22022 11.4918   0
 -10   4  -1 5.14655 12.7059   0
 -10   4  -2 23.2053 12.7401   0
 -10   4  -2 3.92090 12.2337   2
 -10   4  -3 5.70474 13.3609   2
 -10   4  -4 26.2540 15.0861   2
 -10   4  -5 4.58119 15.0162   2
 -10   3  14 7.27061 14.5913   0
 -10   3  13 10.7549 13.5797   0
 -10   3  12 14.5493 12.0945   0
  10  -3 -12 28.4466 11.9030   5
 -10   3  11-1.11474 11.7406   0
  10  -3 -11-0.94791 11.8197   5
 -10   3  10 8.21532 11.3147   0
 -10   3   9-0.39729 9.90868   0
 -10   3   8-3.10622 10.3250   0
 -10   3   7 71.5868 13.1228   0
 -10   3   6 1.93357 12.5423   0
 -10   3   5 11.9265 9.42462   0
 -10   3   4 3.96969 10.4333   0
 -10   3   3 37.9616 10.7102   0
 -10   3   2-6.25416 10.2479   0
 -10   3   1 9.95696 12.5541   0
 -10   3   0 13.2379 13.3846   0
 -10   3  -1 12.8530 13.9166   0
 -10   3  -2 80.4704 14.3726   2
 -10   3  -3 25.4739 13.6596   2
 -10   3  -4-27.3175 13.5002   2
 -10   3  -5 6.00678 12.5953   2
 -10   2  13-22.1681 13.0666   0
  10  -2 -12-4.22486 11.0729   5
 -10   2  12 11.6667 12.5010   0
  10  -2 -11 46.8081 13.3268   5
 -10   2  11 30.1150 11.9970   0
 -10   2  10 13.5395 10.6152   0
 -10   2   9 24.4091 12.7464   0
 -10   2   8-13.8760 10.8643   0
 -10   2   7 2.48307 11.0051   0
 -10   2   6 10.3167 10.2758   0
 -10   2   5-3.36162 9.76709   0
 -10   2   4 21.5983 10.5929   0
 -10   2   3 63.2068 10.9121   0
 -10   2   2 20.3339 13.5670   0
 -10   2   1 3.36259 11.6677   0
 -10   2   0 3.57827 10.5829   0
 -10   2  -1 9.79702 12.1824   2
 -10   2  -1 26.6899 13.6076   0
 -10   2  -2 22.5299 11.4922   2
 -10   2  -3 6.85918 12.0028   2
 -10   2  -4 25.8536 14.5164   2
  10  -1 -14 16.2557 14.2138   5
  10  -1 -13 12.4291 13.7086   5
  10  -1 -12 46.4410 12.8198   5
 -10   1  12 48.7436 12.8639   0
  10  -1 -11-9.16649 10.9528   5
 -10   1  11 3.14543 11.0715   0
  10  -1 -10 10.3802 10.9085   5
 -10   1  10 30.2459 11.9408   0
 -10   1   9 125.880 14.2200   0
 -10   1   8 19.6474 10.9465   0
 -10   1   7 6.00793 8.72446   0
 -10   1   6 38.7818 9.83517   0
 -10   1   5 5.42165 10.2237   0
 -10   1   4 22.1108 11.2750   0
 -10   1   3 21.3948 12.2664   0
 -10   1   2 2.83448 12.6102   0
 -10   1   1-8.19984 11.6533   0
 -10   1   1 32.5738 10.6265   6
 -10   1   0 60.5446 14.9541   0
 -10   1   0 99.6940 12.7203   6
 -10   1  -1-11.2967 9.95289   2
 -10   1  -1 14.9088 10.4115   6
 -10   1  -2 2.46160 11.8686   2
 -10   1  -3 34.3115 13.5664   2
 -10   1  -4-5.26820 14.0145   2
  10   0 -14-4.90643 14.7065   5
  10   0 -13-8.17549 14.1389   5
  10   0 -12 9.84049 11.9196   5
  10   0 -11 58.9609 12.8093   5
 -10   0  11 79.3522 13.0461   0
  10   0 -10 8.65001 12.2878   5
 -10   0  10-29.6609 10.1969   0
 -10   0   9 321.263 16.4556   0
 -10   0   8 5.58572 10.0362   0
 -10   0   7 24.2392 10.7093   0
 -10   0   6 49.6173 10.8521   0
 -10   0   5 57.9737 11.6278   0
 -10   0   4 3.10885 8.45791   6
 -10   0   4 11.1718 12.7630   0
 -10   0   3 0.51389 10.8289   0
 -10   0   3-12.7260 8.51141   6
 -10   0   2-4.66825 10.3699   6
 -10   0   2-9.84961 13.0087   0
 -10   0   1 7.72623 13.3476   0
 -10   0   1 9.73770 10.8632   6
 -10   0   0 43.9288 11.4430   6
 -10   0  -1-7.90507 12.0312   2
 -10   0  -1 26.1410 10.2423   6
 -10   0  -2 7.62324 12.4224   2
 -10   0  -3-5.86509 12.3972   6
  10   1 -14-9.62279 14.4637   5
  10   1 -13 11.7814 14.5796   5
  10   1 -12-7.60021 13.1716   5
  10   1 -11-19.7011 11.9502   5
  10   1 -10-5.27988 11.7079   5
 -10  -1  10-0.61743 9.56364   0
  10   1  -9 17.3153 10.8083   5
 -10  -1   9 15.3688 9.53681   0
 -10  -1   8 152.251 12.9947   0
 -10  -1   7 78.8183 11.6365   0
 -10  -1   6 11.3590 11.4250   0
 -10  -1   5 21.6965 10.8660   0
 -10  -1   4-5.61513 12.0279   0
 -10  -1   4-2.07817 8.45015   6
 -10  -1   3 3.60021 9.73291   6
 -10  -1   3 11.5768 13.5140   0
 -10  -1   2 9.04507 13.6949   0
 -10  -1   2-3.64980 9.39262   6
 -10  -1   1 10.4997 10.9746   6
 -10  -1   0 29.1110 12.3721   6
 -10  -1  -2 91.9596 13.4906   6
  10   2 -14 10.0885 14.4784   5
  10   2 -13 26.9852 15.6736   5
  10   2 -12-1.25714 13.1923   5
  10   2 -11-4.92491 12.0958   5
  10   2 -10-17.9380 12.6680   5
  10   2  -9 26.2371 12.1323   5
 -10  -2   9 16.7209 11.8461   0
  10   2  -8 9.99093 11.1207   5
 -10  -2   8 0.68870 10.2548   0
 -10  -2   7 262.530 15.5682   0
  10   2  -6 10.2897 10.2766   3
 -10  -2   6-3.16521 10.8120   0
  10   2  -5 9.42693 10.9406   3
 -10  -2   5 3.08826 11.1579   0
 -10  -2   4 13.5395 12.4227   0
  10   2  -4 73.1190 13.5362   3
 -10  -2   4 43.3820 11.3030   6
 -10  -2   3-17.7605 13.1501   0
 -10  -2   3 4.00029 10.2465   6
  10   2  -2 31.8742 11.1836   3
 -10  -2   2 12.4085 9.05152   6
  10   2  -1 12.1635 11.3234   3
 -10  -2  -1-4.84270 10.9296   6
  10   3 -14-4.62328 14.2787   5
  10   3 -13-1.06688 13.4102   5
  10   3 -12 7.67355 11.4810   5
  10   3 -11 31.5888 14.1379   5
  10   3 -10 1.32059 12.5069   5
  10   3  -9 12.5479 11.7066   5
  10   3  -9 17.6483 11.2517   3
  10   3  -8 8.22289 11.3164   5
  10   3  -8 12.5032 11.3950   3
  10   3  -7 4.28906 11.3827   5
 -10  -3   7-10.3944 11.1508   0
  10   3  -7 18.5701 11.3933   3
  10   3  -6-11.5910 10.9110   3
 -10  -3   6-14.4240 11.7397   0
 -10  -3   5 8.03930 12.2545   0
  10   3  -5 0.80588 12.8416   3
  10   3  -4 13.2829 11.5517   3
 -10  -3   4 8.24742 10.1107   6
 -10  -3   4 5.09797 13.1033   0
  10   3  -3-12.9384 10.2119   3
 -10  -3   3 9.08542 11.0350   6
  10   3  -2 17.2484 12.8519   3
  10   3  -1 48.8716 11.9321   3
 -10  -3   1-10.6053 13.8118   6
  10   3   0 143.181 15.3030   3
 -10  -3   0 12.2360 12.6091   6
  10   4 -13 38.7111 14.8349   5
  10   4 -12-9.00989 14.8499   5
  10   4 -11 20.2150 13.3878   5
  10   4 -10 8.88660 13.5056   5
  10   4 -10 43.0197 12.7296   3
  10   4  -9-6.13698 11.5484   5
  10   4  -9 36.3625 11.1694   3
  10   4  -8 15.5727 11.8647   5
  10   4  -8 40.3624 12.1519   3
  10   4  -7 24.2324 10.0636   5
  10   4  -7 13.7813 11.7723   3
  10   4  -6 15.0390 11.4138   3
 -10  -4   6-3.80431 12.8024   0
 -10  -4   5-4.63904 12.6111   0
  10   4  -5 25.1033 14.3133   3
  10   4  -4 28.4111 13.7908   3
 -10  -4   4-14.8917 9.99392   6
  10   4  -3 0.09238 10.5134   3
 -10  -4   3 31.3286 10.9388   6
  10   4  -2-32.5234 11.0391   3
 -10  -4   2-15.3647 12.6855   6
  10   4  -1 18.2621 13.0298   3
 -10  -4   1-2.00977 13.8628   6
  10   4   0 78.0377 14.6156   3
  10   5 -13 56.0960 14.6320   5
  10   5 -12-1.37283 13.2610   5
  10   5 -11-10.0649 15.1998   5
  10   5 -10 19.6707 11.5083   5
  10   5 -10 46.5152 13.7514   3
  10   5  -9 12.3522 12.3796   5
  10   5  -9 14.3683 12.5464   3
  10   5  -8-7.51263 10.8529   5
  10   5  -8 19.2197 12.7097   3
  10   5  -7 11.7489 12.0944   3
  10   5  -6 24.0481 13.2542   3
  10   5  -5 23.4778 10.1229   3
  10   5  -4-22.8022 11.9731   3
 -10  -5   4-24.4713 9.95138   6
  10   5  -3-25.0923 11.3187   3
 -10  -5   3 43.2280 13.0791   6
  10   5  -2 11.8602 13.3618   3
  10   6 -12 64.7426 14.6196   5
  10   6 -11 16.5683 14.3378   5
  10   6 -11 15.6423 13.0389   3
  10   6 -10 16.9300 13.9664   5
  10   6 -10 60.4442 13.4679   3
  10   6  -9 19.1440 12.8591   5
  10   6  -9 37.1891 12.9303   3
  10   6  -8 1.05427 13.9358   3
  10   6  -7 1.81060 13.7394   3
  10   6  -6 24.6537 13.7718   3
  10   6  -5 30.7313 14.4387   3
  10   6  -4 12.1223 13.6143   3
 -10  -6   4-8.51210 11.3857   6
 -10  -6   3 1.01460 13.5477   6
  10   7 -11 50.4471 14.3313   5
  10   7 -11 12.2781 14.2177   3
  10   7 -10 40.7947 13.5423   5
  10   7 -10 11.0982 13.4762   3
  10   7  -9 42.4039 14.2657   3
 -10  -7   4 42.9929 12.6782   6
 -11  13   2 45.1705 13.7720   4
 -11  13   1 81.0386 13.7507   4
 -11  13   0 245.224 13.3714   4
 -11  12   6 26.7035 15.7868   0
 -11  12   5 4.79296 14.7803   0
 -11  12   4 9.90173 12.4159   0
 -11  12   2-3.03487 11.8132   4
 -11  12   1 9.34855 11.8262   4
 -11  12   0 6.82996 12.3960   4
 -11  12  -1 27.2217 12.9223   4
 -11  11   7 24.2472 15.6959   0
 -11  11   6 21.3310 14.4954   0
 -11  11   5 29.4076 11.0766   0
 -11  11   4 7.84751 9.80634   0
 -11  11   3 18.9104 13.5318   0
 -11  11   2 124.566 14.1959   4
 -11  11   1 21.6596 10.8147   4
 -11  11   0-24.5557 11.4963   4
 -11  11  -1-18.5995 13.5889   4
 -11  11  -1-10.3801 12.0701   2
 -11  11  -2 10.2782 14.4994   4
 -11  11  -2 18.3541 13.9583   2
 -11  11  -3 8.96595 15.2997   2
 -11  10   8 11.7259 14.3831   0
 -11  10   7 3.00619 13.5994   0
 -11  10   6 31.4715 13.2849   0
 -11  10   5 1.38174 12.1545   0
 -11  10   4 3.88214 11.4262   0
 -11  10   3 43.0872 11.7073   0
 -11  10   2 18.5531 11.7826   4
 -11  10   2 41.7691 13.6027   0
 -11  10   1-3.16588 10.4804   4
 -11  10   1 26.4562 10.6454   0
 -11  10   0 3.06358 13.0687   4
 -11  10  -1 13.9533 11.2930   2
 -11  10  -3 6.53419 13.4164   2
 -11   9   9 2.30445 15.6074   0
 -11   9   8 12.9210 14.7013   0
 -11   9   7 18.4377 15.4454   0
 -11   9   6 6.93422 13.3676   0
 -11   9   5 4.56739 11.7963   0
 -11   9   4 10.9886 12.3090   0
 -11   9   3 105.613 14.7153   0
 -11   9   2-7.18783 10.8747   4
 -11   9   2 3.46807 11.5469   0
 -11   9   1-7.11935 13.0918   4
 -11   9   1-10.9621 10.6347   0
 -11   9   0 4.15156 9.82295   0
 -11   9  -1 28.9249 11.8350   2
 -11   9  -2 26.0631 11.4673   2
 -11   9  -3 3.94832 13.5752   2
 -11   9  -4 13.8753 13.7588   2
 -11   8  10 8.94861 15.7107   0
 -11   8   9 0.73126 14.2150   0
 -11   8   8-6.18324 15.2644   0
 -11   8   7 8.96091 12.5385   0
 -11   8   6 38.1673 11.9696   0
 -11   8   5 22.5967 12.3071   0
 -11   8   4 16.7858 11.2112   0
 -11   8   3 30.8147 11.1053   4
 -11   8   3 19.5174 13.0866   0
 -11   8   2 23.7950 10.6072   0
 -11   8   1 12.6776 12.1330   0
 -11   8   0 32.7995 11.2510   0
 -11   8  -1-6.86971 11.8952   2
 -11   8  -1 1.47859 12.7248   0
 -11   8  -2 28.7875 12.5145   2
 -11   8  -3-6.39558 15.1668   2
 -11   8  -4-10.4037 14.1395   2
 -11   7  11 0.74186 15.6663   0
 -11   7  10 8.40679 15.0579   0
 -11   7   9-2.71277 11.2971   0
 -11   7   8 9.51224 13.1642   0
 -11   7   7 0.96458 11.3914   0
 -11   7   6 13.8621 11.2051   0
 -11   7   5 2.62393 12.8105   0
 -11   7   4-14.1592 12.2073   0
 -11   7   3 25.6636 11.1787   0
 -11   7   2 5.27488 10.7245   0
 -11   7   1 19.8258 9.13172   0
 -11   7   0-17.1070 12.3522   0
 -11   7  -1 54.7887 13.4971   0
 -11   7  -1 31.8498 14.4355   2
 -11   7  -2 20.9440 12.7132   0
 -11   7  -2-9.90417 13.6784   2
 -11   7  -3 43.3771 15.0443   2
 -11   7  -4 5.58399 12.7004   2
 -11   6  11-6.77363 15.1664   0
 -11   6   9-18.4064 12.0849   0
 -11   6   8 56.7791 13.3456   0
 -11   6   7 9.59707 11.1903   0
 -11   6   6-1.13449 10.7946   0
 -11   6   5 3.10241 11.2168   0
 -11   6   4 2.99227 11.3141   0
 -11   6   3 17.5485 12.0260   0
 -11   6   2 231.181 16.1414   0
 -11   6   1 0.17643 11.1926   0
 -11   6   0 49.0698 13.6887   0
 -11   6  -1 4.17972 12.7055   0
 -11   6  -1 6.30167 12.2330   2
 -11   6  -2 3.80399 13.0045   0
 -11   6  -2 4.91638 13.8496   2
 -11   6  -3 32.2178 14.4216   0
 -11   6  -3 32.8115 15.1172   2
 -11   6  -4 11.8492 14.2427   2
 -11   5  12 30.0716 15.3021   0
 -11   5  11-4.98624 13.3867   0
 -11   5  10-16.7217 12.6220   0
 -11   5   9 7.58393 11.4464   0
 -11   5   8-4.63210 11.2868   0
 -11   5   7 51.5305 13.8323   0
 -11   5   6-2.97552 11.5963   0
 -11   5   5-2.39510 11.5108   0
 -11   5   4 15.3177 10.3449   0
 -11   5   3 13.2447 11.4704   0
 -11   5   2 57.2309 12.6656   0
 -11   5   1-18.4763 10.7376   0
 -11   5   0-10.8156 11.2010   0
 -11   5  -1 27.0614 13.7156   2
 -11   5  -1 18.4020 12.8946   0
 -11   5  -2 3.46888 13.3619   0
 -11   5  -2 39.4391 14.6955   2
 -11   5  -3 1.40215 13.5058   2
 -11   4  13 20.5674 15.4079   0
  11  -4 -12 30.0922 13.5364   5
 -11   4  12 19.7570 14.7005   0
 -11   4  11 34.2723 14.3609   0
 -11   4  10 21.9862 11.4667   0
 -11   4   9 25.2955 13.4998   0
 -11   4   8 3.62870 12.3751   0
 -11   4   7-8.71943 12.5410   0
 -11   4   6 22.7327 10.4240   0
 -11   4   5-0.36608 9.75053   0
 -11   4   4 48.7541 12.3378   0
 -11   4   3 22.8487 10.8881   0
 -11   4   2 4.90053 11.3302   0
 -11   4   1-1.74072 10.9093   0
 -11   4   0-3.59259 11.6366   0
 -11   4  -1-2.69571 13.9254   0
 -11   4  -1-14.5809 12.1118   2
 -11   4  -2 18.2366 14.6344   0
 -11   4  -2 36.3776 14.8497   2
 -11   4  -3 3.58213 14.1461   2
 -11   3  14-4.45829 13.7627   0
  11  -3 -13 48.9738 14.3537   5
 -11   3  13-20.8199 13.5299   0
  11  -3 -12 40.1909 13.9807   5
 -11   3  12 54.1713 14.8529   0
  11  -3 -11-8.13231 12.6914   5
 -11   3  11-11.1541 12.3443   0
 -11   3  10 6.16595 11.5352   0
 -11   3   9-1.67132 12.5524   0
 -11   3   8-0.55813 12.8407   0
 -11   3   7 29.1429 11.8472   0
 -11   3   6-3.08836 11.2826   0
 -11   3   5 7.65319 11.0051   0
 -11   3   4 19.1575 11.2283   0
 -11   3   3 6.21270 10.2215   0
 -11   3   2 23.5378 13.8086   0
 -11   3   1-8.30301 12.9418   0
 -11   3   0-0.12367 12.6248   0
 -11   3  -1 1.58542 13.7769   0
 -11   3  -1 32.0533 12.7388   2
 -11   3  -3 2.47638 13.1053   2
  11  -2 -14 18.6218 14.4084   5
  11  -2 -13 36.4035 12.4068   5
 -11   2  13 24.0856 12.8037   0
  11  -2 -12 54.4052 14.6227   5
 -11   2  12 36.9336 12.9972   0
  11  -2 -11-1.92883 10.4478   5
 -11   2  11 14.2081 11.8095   0
 -11   2  10-4.10458 11.2886   0
 -11   2   9-14.1713 12.0707   0
 -11   2   8 62.8129 12.1638   0
 -11   2   7 55.1400 13.0306   0
 -11   2   6 5.79821 10.7011   0
 -11   2   5 31.1325 11.9426   0
 -11   2   4 5.91275 10.6740   0
 -11   2   3-4.10327 12.5124   0
 -11   2   2 48.6817 13.4185   0
 -11   2   1 10.7229 14.4677   0
 -11   2   0 10.3309 12.8513   0
 -11   2  -1 36.8939 12.7288   2
 -11   2  -2 12.1093 12.2567   2
 -11   2  -3 38.7150 16.7148   2
  11  -1 -14 17.3364 16.1461   5
  11  -1 -13-3.72685 14.3010   5
  11  -1 -12-24.1073 11.3331   5
 -11   1  12 10.6875 12.3281   0
  11  -1 -11-21.8323 12.8075   5
 -11   1  11-5.49112 11.7820   0
 -11   1  10-5.97377 11.1309   0
 -11   1   9-5.76976 10.1099   0
 -11   1   8 18.7416 11.1994   0
 -11   1   7 58.4004 11.7109   0
 -11   1   6 4.45106 12.8117   0
 -11   1   5 22.6006 11.1963   0
 -11   1   4-1.95383 11.7276   0
 -11   1   3 13.9050 13.2516   0
 -11   1   2 9.10982 13.0289   0
 -11   1   1 48.8631 13.2696   0
 -11   1  -1-11.4217 12.2013   2
 -11   1  -2 1.38162 12.1556   2
  11   0 -14-18.1177 15.3081   5
  11   0 -13 6.27091 14.9453   5
  11   0 -12-17.1559 14.1826   5
  11   0 -11-20.3823 12.7726   5
 -11   0  11 8.07840 12.4365   0
  11   0 -10 7.78296 13.1008   5
 -11   0  10-0.41945 11.4033   0
 -11   0   9 66.3875 12.5256   0
 -11   0   8 43.0883 11.1903   0
 -11   0   7 5.59336 10.3829   0
 -11   0   6 43.0003 12.4514   0
 -11   0   5 3.67211 12.7692   0
 -11   0   4 15.6520 13.0502   0
 -11   0   3-6.60461 13.6455   0
 -11   0   3-43.1369 7.89860   6
 -11   0   2 8.90102 14.2525   0
 -11   0   2-23.0766 8.97998   6
 -11   0   1 0.40537 15.2033   0
 -11   0   0-4.07065 12.5862   2
 -11   0  -1 15.2507 12.0279   6
  11   1 -13 21.9153 13.6738   5
  11   1 -12 20.8425 14.8298   5
  11   1 -11-24.5854 13.7955   5
  11   1 -10 50.2609 13.2571   5
 -11  -1  10 54.6577 10.8394   0
 -11  -1   9 32.5446 10.4994   0
  11   1  -9 18.1169 13.3101   5
 -11  -1   8 171.450 14.6880   0
 -11  -1   7 11.1839 10.8158   0
 -11  -1   6 101.169 14.0996   0
 -11  -1   5 35.4146 12.7168   0
 -11  -1   4-0.43480 12.5513   0
 -11  -1   3-0.04204 14.2347   0
 -11  -1   3-18.8568 8.26386   6
 -11  -1   2-6.69180 14.3629   0
 -11  -1   2-31.4756 8.95588   6
 -11  -1   1 12.7767 10.8159   6
 -11  -1   0 24.5484 11.7999   6
  11   2 -13 10.2887 14.4758   5
  11   2 -12 16.9881 16.0621   5
  11   2 -11-16.3386 12.8923   5
  11   2 -10 13.5040 12.1168   5
  11   2  -9-6.82865 11.0380   5
 -11  -2   9 10.5091 11.5441   0
  11   2  -8 13.0433 12.0610   5
 -11  -2   8 24.4956 12.7789   0
 -11  -2   7 5.74829 12.0713   0
 -11  -2   6-0.11222 12.7666   0
 -11  -2   5 3.57887 13.9997   0
 -11  -2   4 5.26840 12.9781   0
 -11  -2   3 7.48113 14.6656   0
 -11  -2   3-5.58250 9.33018   6
 -11  -2   2 41.6449 11.2809   6
 -11  -2   1 39.9154 12.2297   6
 -11  -2   0 122.300 13.6014   6
  11   3 -13 24.7367 14.1500   5
  11   3 -12 2.21386 14.8014   5
  11   3 -11 15.4912 14.1137   5
  11   3 -10-19.4725 12.0425   5
  11   3  -9 43.3725 13.6259   5
  11   3  -8 31.8698 12.8095   5
  11   3  -8 26.4049 13.0536   3
  11   3  -7 21.9920 12.3698   5
  11   3  -7 36.4107 13.8721   3
 -11  -3   7 6.61093 13.4484   0
 -11  -3   6 4.24052 13.0368   0
  11   3  -6 43.0296 13.4220   3
 -11  -3   5 1.49748 11.0234   0
  11   3  -5 0.94675 14.3188   3
  11   3  -4-0.32281 10.8487   3
  11   3  -3 34.0690 10.7002   3
 -11  -3   3-11.1955 10.6079   6
  11   3  -2-1.75092 12.4320   3
 -11  -3   2-17.5337 11.9488   6
  11   4 -12 13.1688 14.9429   5
  11   4 -11-10.1280 13.8378   5
  11   4 -10 5.30460 13.7208   5
  11   4  -9 29.0659 12.2977   5
  11   4  -9 41.9622 12.5807   3
  11   4  -8 14.7539 12.4893   5
  11   4  -8 13.2903 13.3086   3
  11   4  -7 24.8050 14.0037   3
  11   4  -6-24.7472 12.2125   3
 -11  -4   6 7.61195 12.9272   0
  11   4  -5 12.2349 10.6932   3
  11   4  -4 5.76413 11.2902   3
  11   4  -3 18.8613 13.4640   3
  11   4  -2 3.26804 15.0268   3
 -11  -4   2-40.9628 14.8104   6
  11   5 -12 11.4800 15.8022   5
  11   5 -11 8.34019 13.6282   5
  11   5 -11 26.1674 12.9782   3
  11   5 -10 8.63686 13.5802   5
  11   5 -10 4.55563 17.7706   3
  11   5  -9 26.9328 13.9218   5
  11   5  -9-0.96190 11.0503   3
  11   5  -8 18.6039 11.6284   3
  11   5  -7 3.69461 12.0380   3
  11   5  -6 46.3139 15.1178   3
  11   5  -5-6.34282 13.8231   3
 -11  -5   3-7.57903 15.5023   6
  11   6 -11-6.45468 15.1957   5
  11   6 -11 62.1618 14.4146   3
  11   6 -10-7.36267 15.7668   5
  11   6 -10 50.2236 15.3765   3
  11   6  -9-9.48647 15.0070   3
  11   6  -8 14.9687 16.7522   3
 -12  12   5-12.8087 13.0977   0
 -12  12   4-4.82817 12.2046   0
 -12  12   1 42.9032 13.3951   4
 -12  12   0-33.8121 13.1480   4
 -12  11   6 4.68829 14.4518   0
 -12  11   5-2.81607 14.1959   0
 -12  11   4 6.14949 13.3679   0
 -12  11   3 110.263 14.0493   0
 -12  11   2-36.6063 11.2578   4
 -12  11   1-7.05938 11.7480   4
 -12  11   0 29.6702 13.9684   4
 -12  11   0-11.9861 12.7216   2
 -12  11  -1 38.2557 14.4819   4
 -12  11  -1 9.23781 14.8793   2
 -12  11  -2 68.0887 12.9471   2
 -12  10   7 10.7800 14.4746   0
 -12  10   6 10.5919 15.8485   0
 -12  10   5-3.76722 14.4211   0
 -12  10   4 0.45046 13.4710   0
 -12  10   3 106.549 14.5996   0
 -12  10   2 1.77849 11.1615   4
 -12  10   2 42.0548 11.3761   0
 -12  10   1-4.17279 12.5798   4
 -12  10   0 2.06570 13.5342   4
 -12  10  -1 20.9960 13.4652   2
 -12   9   8-22.4960 12.5358   0
 -12   9   7 7.25828 11.7957   0
 -12   9   6-1.00112 11.7415   0
 -12   9   5-2.23011 13.5721   0
 -12   9   4 3.89429 13.6944   0
 -12   9   3 10.7440 12.0766   0
 -12   9   2 22.9087 11.8373   4
 -12   9   2-4.77251 11.6987   0
 -12   9   1 29.2679 12.0817   0
 -12   9   0 28.8168 12.0137   0
 -12   9  -1-7.94747 12.9879   2
 -12   8   9 0.05015 14.6014   0
 -12   8   8-0.04522 12.6756   0
 -12   8   7-0.67044 13.1320   0
 -12   8   6-3.61783 12.6370   0
 -12   8   5-11.1737 13.1529   0
 -12   8   4 9.64420 12.4969   0
 -12   8   3 0.54125 11.9882   0
 -12   8   2 11.3135 11.2675   0
 -12   8   1-2.12222 11.5670   0
 -12   8   0-28.2466 13.4875   0
 -12   8  -1 0.16908 13.3269   0
 -12   8  -1 27.0269 14.0146   2
 -12   7  10 18.8334 14.2457   0
 -12   7   9-10.3267 14.1233   0
 -12   7   8-0.39880 13.7938   0
 -12   7   7 15.9001 11.5583   0
 -12   7   6 13.9510 12.7150   0
 -12   7   5 17.5628 14.1023   0
 -12   7   4 45.3512 12.6691   0
 -12   7   3 8.23997 13.3966   0
 -12   7   2 5.81320 11.9720   0
 -12   7   1 76.0154 12.3024   0
 -12   7   0 16.1826 13.0615   0
 -12   7  -1 34.1768 13.1928   0
 -12   7  -1 37.7902 14.4051   2
 -12   7  -2 10.8204 14.8504   0
 -12   7  -2 5.30111 14.1902   2
 -12   6  11 43.5096 13.3902   0
 -12   6  10 24.4061 12.7248   0
 -12   6   9 16.3545 13.1801   0
 -12   6   8 25.8798 14.9021   0
 -12   6   7-1.58594 12.1708   0
 -12   6   6 28.9677 14.3049   0
 -12   6   5 23.8488 11.7211   0
 -12   6   4-20.2121 11.2143   0
 -12   6   3-4.40482 10.7016   0
 -12   6   2 22.7771 12.7407   0
 -12   6   1 7.78965 13.4661   0
 -12   6   0 9.23678 13.3922   0
 -12   6  -1 21.2425 12.5456   2
 -12   6  -1-7.06924 14.2109   0
 -12   6  -2 6.44617 15.2909   0
 -12   5  12 16.2734 16.2041   0
 -12   5  11 27.8670 14.9395   0
 -12   5  10 3.12606 12.3922   0
 -12   5   9 3.54638 12.3858   0
 -12   5   8-11.2762 13.7199   0
 -12   5   7-18.3562 13.8087   0
 -12   5   6 6.54877 9.01438   0
 -12   5   5 12.7249 12.7160   0
 -12   5   4 1.97153 11.6544   0
 -12   5   3 8.55774 11.3344   0
 -12   5   2 7.95618 13.0841   0
 -12   5   1 8.64681 12.7200   0
 -12   5   0 5.90452 14.6239   0
 -12   5  -1 27.4771 15.6492   0
 -12   5  -1 18.8589 13.9017   2
 -12   5  -2-9.27961 15.2311   0
  12  -4 -12 30.6433 15.9984   5
 -12   4  12 8.49454 14.4002   0
 -12   4  11 6.15852 13.1277   0
 -12   4  10-9.10919 13.7373   0
 -12   4   9-15.1149 13.4835   0
 -12   4   8 7.23496 12.7250   0
 -12   4   7 40.1252 13.8098   0
 -12   4   6 12.6847 11.1741   0
 -12   4   5 41.3714 11.0713   0
 -12   4   4 5.42762 11.7315   0
 -12   4   3 9.67173 11.3174   0
 -12   4   2 9.45146 14.0689   0
 -12   4   1-5.71989 12.9855   0
 -12   4   0 18.4915 15.2391   0
 -12   4  -1 14.5026 15.5992   0
 -12   4  -1-1.81877 12.7569   2
 -12   3  13 3.49934 14.1116   0
  12  -3 -12 6.27042 15.3155   5
 -12   3  12 40.0432 15.2222   0
 -12   3  11 13.2062 13.0388   0
 -12   3  10-16.6636 12.6306   0
 -12   3   9-9.90365 12.8989   0
 -12   3   8-0.23799 11.8663   0
 -12   3   7 63.4459 13.8268   0
 -12   3   6 22.8216 10.9815   0
 -12   3   5 47.5039 11.9297   0
 -12   3   4-3.58251 12.2554   0
 -12   3   3-9.09916 13.8063   0
 -12   3   2 6.18897 14.2767   0
 -12   3   1-2.59243 11.9536   0
 -12   3   0 5.41534 14.2371   0
 -12   3  -1 56.4120 14.3927   2
  12  -2 -13 43.8226 14.7640   5
 -12   2  13-4.49420 12.5468   0
  12  -2 -12 40.7752 14.6826   5
 -12   2  12 9.23998 13.5942   0
  12  -2 -11 0.65525 12.2201   5
 -12   2  11 15.2941 11.9559   0
 -12   2  10-6.08100 13.0688   0
 -12   2   9 0.23474 11.5375   0
 -12   2   8 20.9498 10.7820   0
 -12   2   7 48.6846 11.4013   0
 -12   2   6 1.13557 10.7713   0
 -12   2   5-12.4701 12.3101   0
 -12   2   4 20.1142 13.1691   0
 -12   2   3 1.77167 12.6174   0
 -12   2   2 16.2466 13.2045   0
 -12   2   1 11.9072 12.9174   0
 -12   2   0-3.37052 13.7130   0
 -12   2   0 24.0436 13.1231   2
 -12   2  -1 40.2929 15.1744   2
  12  -1 -13-23.2130 14.5222   5
  12  -1 -12-5.78506 11.9671   5
 -12   1  12-1.67935 13.8574   0
  12  -1 -11 23.5375 13.6887   5
 -12   1  11 16.1312 13.5018   0
 -12   1  10-0.93489 11.7580   0
 -12   1   9-2.07086 11.1804   0
 -12   1   8-7.02618 11.3184   0
 -12   1   7 12.7041 11.5359   0
 -12   1   6 7.71991 12.4448   0
 -12   1   5 27.1805 13.7524   0
 -12   1   4-13.8256 15.0163   0
 -12   1   3 16.4270 17.3772   0
 -12   1   2 10.5730 14.4301   0
 -12   1   1 8.29501 13.2620   0
 -12   1   0 37.0566 14.7598   2
  12   0 -13 9.50237 14.9685   5
  12   0 -11 11.2119 12.8152   5
 -12   0  11 5.04086 11.1774   0
  12   0 -10-13.6617 13.0100   5
 -12   0  10-0.22761 11.6723   0
 -12   0   9 55.2758 12.9167   0
 -12   0   8-20.2504 7.77575   0
 -12   0   7 48.7456 13.2469   0
 -12   0   6 24.2878 12.6516   0
 -12   0   5 11.6613 14.8494   0
 -12   0   4-12.5825 13.8652   0
 -12   0   3 3.12668 13.5968   0
 -12   0   3 28.4753 9.52076   6
 -12   0   2 47.7413 11.6004   6
 -12   0   2-4.90188 15.7352   0
 -12   0   1 15.4342 12.6422   6
  12   1 -12-5.86910 15.4455   5
  12   1 -11 18.9557 15.3774   5
  12   1 -10 3.84804 12.7273   5
 -12  -1  10-2.53362 10.7536   0
 -12  -1   9 57.4291 13.2825   0
 -12  -1   8 53.4526 13.4955   0
 -12  -1   7 47.7106 14.9539   0
 -12  -1   6 28.2945 15.0759   0
 -12  -1   5 15.7784 13.4750   0
 -12  -1   4 4.75018 14.4024   0
 -12  -1   3 6.16231 15.8814   0
 -12  -1   3 80.2329 10.5983   6
 -12  -1   2 95.0666 11.9491   6
 -12  -1   1 78.6040 14.7082   6
  12   2 -12-12.1132 14.0452   5
  12   2 -11 20.8751 14.2376   5
  12   2 -10-2.52978 12.7143   5
  12   2  -9 2.36207 12.3398   5
  12   2  -8-8.15774 13.7415   5
 -12  -2   8 12.6529 13.0784   0
 -12  -2   7 26.0157 15.4279   0
 -12  -2   6 12.6302 13.7548   0
 -12  -2   5 2.90866 14.8432   0
 -12  -2   4-0.57470 13.1334   0
 -12  -2   3 17.0415 11.7659   6
  12   3 -11-4.17226 13.1983   5
  12   3 -10 22.9095 13.0872   5
  12   3  -9 25.5382 13.9162   5
  12   3  -8 69.8534 13.6549   5
  12   3  -7-18.3619 13.2256   5
 -12  -3   7 14.6526 14.0405   0
 -12  -3   6 3.93800 14.6564   0
 -12  -3   5-26.4234 15.1565   0
 -12  -3   3 11.9348 14.3474   6
  12   4 -11-13.5579 11.9792   5
  12   4 -10 26.9754 14.7123   5
  12   4  -9 3.74382 14.7763   5
  12   4  -8 16.1460 13.6365   3
  12   4  -7 41.4964 14.3662   3
  12   5 -10 26.9026 16.8294   5
 -13  11   5 39.0370 15.4006   0
 -13  11   4-6.13709 14.1026   0
 -13  11   3 40.2233 14.3766   0
 -13  11   1 30.6074 14.8523   4
 -13  10   6 10.0739 14.2677   0
 -13  10   5 30.1229 13.8935   0
 -13  10   4 6.92471 14.1716   0
 -13  10   3 15.6733 11.8626   0
 -13  10   2 14.2864 12.0471   0
 -13  10   1 26.5690 15.6588   4
 -13  10   0 0.09619 12.1774   2
 -13   9   7-4.29693 13.6630   0
 -13   9   6 29.8708 14.3635   0
 -13   9   5 0.91443 14.9153   0
 -13   9   4 24.3484 12.5979   0
 -13   9   3 238.160 18.4096   0
 -13   9   2 29.9399 11.8943   0
 -13   9   1 63.4905 11.9324   0
 -13   8   8 35.4281 16.8704   0
 -13   8   7-15.2788 14.0725   0
 -13   8   6 4.18271 13.3271   0
 -13   8   5 1.48087 8.48469   0
 -13   8   4-27.0240 13.7927   0
 -13   8   3-1.37972 14.1933   0
 -13   8   2 19.1563 11.2980   0
 -13   8   1-14.5994 14.7370   0
 -13   8   0 10.3670 15.4143   0
 -13   8  -1-25.3464 15.2230   0
 -13   7   9-10.1863 12.9961   0
 -13   7   8 54.7487 15.5080   0
 -13   7   7 0.14521 13.9006   0
 -13   7   6 1.18208 12.8073   0
 -13   7   5-0.08559 11.4617   0
 -13   7   4 6.24500 13.0161   0
 -13   7   3 20.5068 13.6151   0
 -13   7   2 2.54662 11.7234   0
 -13   7   1 5.13755 14.5280   0
 -13   7   0 38.9765 13.3493   0
 -13   7  -1-10.0062 14.5115   0
 -13   6  10 12.1530 13.2040   0
 -13   6   9 32.0469 14.0572   0
 -13   6   8 25.4832 14.0338   0
 -13   6   7 6.22946 13.8036   0
 -13   6   6 18.7160 11.8343   0
 -13   6   5 9.92948 11.6205   0
 -13   6   4 0.25590 11.8883   0
 -13   6   3 6.87736 12.6273   0
 -13   6   2 14.8816 14.9877   0
 -13   6   1 15.6071 14.7754   0
 -13   6   0-18.8044 14.4784   0
 -13   6  -1 25.1435 16.9188   0
  13  -5 -12 98.1816 17.7631   5
 -13   5  11-8.43105 14.6295   0
 -13   5  10 32.2600 13.9619   0
 -13   5   9 8.55938 13.3622   0
 -13   5   8-0.04655 14.2817   0
 -13   5   7-3.68061 11.4573   0
 -13   5   6-4.89662 12.7415   0
 -13   5   5 3.34072 12.3097   0
 -13   5   4 10.3193 15.3687   0
 -13   5   3-3.51723 13.0401   0
 -13   5   2 24.6588 14.5350   0
 -13   5   1-8.42175 14.6401   0
 -13   5   0 26.6231 16.1344   0
  13  -4 -12-6.95509 13.5144   5
 -13   4  11 24.3397 14.3041   0
 -13   4  10 2.57243 13.7112   0
 -13   4   9-2.98537 14.9918   0
 -13   4   8-7.23234 10.3867   0
 -13   4   7-0.33708 11.1967   0
 -13   4   6 40.3649 12.3767   0
 -13   4   5 1.40352 11.4737   0
 -13   4   4 8.96754 12.5948   0
 -13   4   3-7.03718 14.8982   0
 -13   4   2 22.0966 15.1172   0
 -13   4   1 6.34697 15.7591   0
 -13   4   0 28.0003 14.9466   2
 -13   4   0 14.6075 16.1642   0
  13  -3 -12 43.5397 15.7745   5
 -13   3  12-29.4837 15.2629   0
 -13   3  11 26.2639 14.5067   0
 -13   3  10 26.2209 14.0203   0
 -13   3   9-18.2254 11.7661   0
 -13   3   8-6.36388 11.4796   0
 -13   3   7 31.6393 12.6603   0
 -13   3   6-5.45912 12.4526   0
 -13   3   5-2.24602 11.1523   0
 -13   3   4 14.8742 13.5854   0
 -13   3   3-3.78099 14.9376   0
 -13   3   2 11.9871 16.6480   0
 -13   3   1 25.9083 18.0953   0
 -13   2  13-23.1317 15.4141   0
  13  -2 -12-7.26334 14.3166   5
 -13   2  12 28.8816 12.9023   0
 -13   2  11-42.5325 12.2990   0
 -13   2  10 52.3264 13.0051   0
 -13   2   9-0.71804 11.4343   0
 -13   2   8-5.75734 11.3822   0
 -13   2   7 13.5579 12.7093   0
 -13   2   5 19.1054 15.3641   0
 -13   2   4 69.2149 15.6600   0
 -13   2   3 7.98226 15.4936   0
 -13   2   2-1.76528 14.9463   0
  13  -1 -11 1.05328 13.7110   5
 -13   1  11-15.2382 11.4455   0
 -13   1  10 27.6156 12.4907   0
 -13   1   9 22.5773 12.4038   0
 -13   1   8 4.98723 11.0791   0
 -13   1   7-1.76011 11.9762   0
 -13   1   6-17.6157 14.9961   0
 -13   1   5 18.4575 13.5308   0
 -13   1   4 18.6713 15.8510   0
 -13   1   3 4.94953 15.3688   0
 -13   1   2-3.37992 17.3369   0
  13   0 -11 0.81895 12.6415   5
 -13   0  11-18.8163 11.1783   0
 -13   0  10 2.96048 13.2419   0
 -13   0   9 26.7402 12.5255   0
 -13   0   8 15.2499 11.5993   0
 -13   0   7 46.6693 14.1487   0
 -13   0   6 34.0741 15.4645   0
 -13   0   5 7.10493 14.1027   0
 -13   0   4 1.34038 14.5521   0
 -13   0   3 45.2476 15.5868   0
  13   1 -11 15.5938 13.8718   5
  13   1 -10 15.7782 15.8674   5
 -13  -1   9-12.6824 12.9959   0
 -13  -1   8-9.98456 15.3892   0
 -13  -1   7-2.37680 13.2357   0
 -13  -1   6-2.22152 14.4592   0
 -13  -1   5-14.2174 15.5647   0
 -13  -1   4-15.1346 17.4144   0
  13   2 -10 5.44732 14.7899   5
  13   2  -9 10.4222 13.8392   5
  13   2  -8 8.69531 14.0782   5
 -13  -2   8 25.3053 13.8640   0
 -13  -2   7 33.1491 16.4855   0
 -13  -2   6 4.94502 15.2118   0
 -13  -2   5-23.4282 15.3794   0
  13   3 -10 40.3720 15.0635   5
  13   3  -9 25.4540 15.6001   5
  13   3  -8 6.97650 14.3633   5
 -13  -3   7-9.44897 13.8208   0
 -13  -3   6 11.5339 15.2911   0
 -14  10   3 3.41228 12.9685   0
 -14   9   5 7.95443 12.0383   0
 -14   9   4-12.7798 12.1581   0
 -14   9   3 6.72218 12.4735   0
 -14   9   2 7.07522 11.8794   0
 -14   8   6 36.8643 14.8078   0
 -14   8   5-3.94008 14.2618   0
 -14   8   4-1.81922 12.4789   0
 -14   8   3 11.2241 13.5310   0
 -14   8   2 0.93245 14.9522   0
 -14   8   1 42.9302 16.8276   0
 -14   7   7-5.47473 13.7247   0
 -14   7   6 19.4748 12.6726   0
 -14   7   5 12.3563 14.1918   0
 -14   7   4 6.39699 12.7863   0
 -14   7   3 3.53916 18.0720   0
 -14   7   2 6.14816 16.8386   0
 -14   6   8 15.0694 15.5772   0
 -14   6   7-14.2945 12.5583   0
 -14   6   6-25.7663 12.1261   0
 -14   6   5-8.23694 13.1898   0
 -14   6   4 0.23919 13.5064   0
 -14   6   3 13.1501 14.8782   0
 -14   6   2-5.23897 15.8134   0
 -14   5   9-5.92116 12.6111   0
 -14   5   8-39.8545 14.7931   0
 -14   5   7 23.0282 14.3234   0
 -14   5   6-0.65809 14.8092   0
 -14   5   5 14.7529 13.4742   0
 -14   5   4 1.59776 15.5345   0
 -14   5   3-1.66108 15.6799   0
 -14   5   2 14.0893 14.7617   0
 -14   4  10 0.86229 14.3730   0
 -14   4   9-5.08081 13.7059   0
 -14   4   8 25.6936 13.5415   0
 -14   4   7 12.8463 11.8833   0
 -14   4   6 15.1476 11.9597   0
 -14   4   5 54.7413 14.9380   0
 -14   4   4 11.9196 15.1069   0
 -14   4   3-20.2076 14.4217   0
 -14   3  11 11.7082 14.0740   0
 -14   3  10-30.4078 12.4251   0
 -14   3   9 22.3743 12.5081   0
 -14   3   8 24.5949 12.9667   0
 -14   3   7 5.12933 12.2434   0
 -14   3   6 13.6225 14.2109   0
 -14   3   5 24.7218 15.7189   0
 -14   3   4 11.9797 14.4401   0
 -14   2  11 6.88752 12.1919   0
 -14   2  10-0.33084 12.4103   0
 -14   2   9 24.2326 14.4394   0
 -14   2   8 7.99072 13.5349   0
 -14   2   7 47.6617 14.2974   0
 -14   2   6-0.83112 16.3914   0
 -14   2   5 74.7067 17.1056   0
 -14   1  11 26.4908 12.2822   0
 -14   1  10 2.82241 15.2048   0
 -14   1   9 78.3988 14.2397   0
 -14   1   8 52.3859 14.2298   0
 -14   1   7 68.0530 18.4034   0
 -14   1   6 22.6735 14.4759   0
 -14   1   5 29.0331 16.1325   0
 -14   0  10 24.0719 13.5031   0
 -14   0   9 43.1402 13.5132   0
 -14   0   8 19.5394 14.7282   0
 -14   0   7 66.1493 17.2386   0
 -14  -1   9 18.0190 16.8260   0
 -14  -1   8-1.90905 15.1151   0
;
_shelx_hkl_checksum              14986
loop_
_space_group_symop_operation_xyz
'x, y, z'
'-x, -y, -z'
loop_
_atom_site_label
_atom_site_type_symbol
_atom_site_fract_x
_atom_site_fract_y
_atom_site_fract_z
_atom_site_U_iso_or_equiv
_atom_site_adp_type
_atom_site_occupancy
_atom_site_site_symmetry_order
_atom_site_calc_flag
_atom_site_refinement_flags_posn
_atom_site_refinement_flags_adp
_atom_site_refinement_flags_occupancy
_atom_site_disorder_assembly
_atom_site_disorder_group
C1 C -0.1978(5) 0.3544(5) 0.2203(5) 0.0344(12) Uani 1 1 d . . . . .
C2 C -0.3235(6) 0.2420(5) 0.1397(5) 0.0463(14) Uani 1 1 d . . . . .
H2 H -0.3626 0.1951 0.1784 0.056 Uiso 1 1 calc R U . . .
C3 C -0.3904(7) 0.2002(6) 0.0013(6) 0.0553(16) Uani 1 1 d . . . . .
H3 H -0.4744 0.1238 -0.0539 0.066 Uiso 1 1 calc R U . . .
C4 C -0.3336(7) 0.2708(6) -0.0565(6) 0.0582(17) Uani 1 1 d . . . . .
H4 H -0.3799 0.2416 -0.1501 0.070 Uiso 1 1 calc R U . . .
C5 C -0.2096(6) 0.3837(6) 0.0230(5) 0.0482(14) Uani 1 1 d . . . . .
H5 H -0.1727 0.4316 -0.0162 0.058 Uiso 1 1 calc R U . . .
C6 C -0.1403(5) 0.4252(5) 0.1619(5) 0.0385(13) Uani 1 1 d . . . . .
C7 C 0.0009(5) 0.5432(5) 0.2695(5) 0.0364(12) Uani 1 1 d . . . . .
C8 C 0.0126(5) 0.5305(5) 0.3992(5) 0.0339(12) Uani 1 1 d . . . . .
C9 C -0.1039(5) 0.4203(5) 0.3674(5) 0.0334(12) Uani 1 1 d . . . . .
C10 C 0.1173(6) 0.6105(5) 0.5314(5) 0.0375(12) Uani 1 1 d . . . . .
H10 H 0.1951 0.6834 0.5527 0.045 Uiso 1 1 calc R U . . .
C11 C 0.1266(5) 0.5324(5) 0.2638(5) 0.0358(12) Uani 1 1 d . . . . .
C12 C 0.1166(6) 0.4164(5) 0.1965(5) 0.0446(13) Uani 1 1 d . . . . .
H12 H 0.0296 0.3430 0.1468 0.054 Uiso 1 1 calc R U . . .
C13 C 0.2335(7) 0.4070(6) 0.2014(6) 0.0544(16) Uani 1 1 d . . . . .
H13 H 0.2227 0.3268 0.1544 0.065 Uiso 1 1 calc R U . . .
C14 C 0.3652(6) 0.5111(6) 0.2726(6) 0.0509(15) Uani 1 1 d . . . . .
C15 C 0.3736(6) 0.6270(6) 0.3380(6) 0.0519(15) Uani 1 1 d . . . . .
H15 H 0.4605 0.7003 0.3864 0.062 Uiso 1 1 calc R U . . .
C16 C 0.2585(6) 0.6391(5) 0.3350(5) 0.0444(14) Uani 1 1 d . . . . .
H16 H 0.2694 0.7196 0.3812 0.053 Uiso 1 1 calc R U . . .
C17 C -0.0110(5) 0.6672(5) 0.2588(5) 0.0393(13) Uani 1 1 d . . . . .
C18 C -0.0601(7) 0.7275(6) 0.3268(6) 0.0541(16) Uani 1 1 d . . . . .
H18 H -0.0786 0.6971 0.3859 0.065 Uiso 1 1 calc R U . . .
C19 C -0.0823(7) 0.8321(6) 0.3091(7) 0.0609(17) Uani 1 1 d . . . . .
H19 H -0.1176 0.8692 0.3553 0.073 Uiso 1 1 calc R U . . .
C20 C -0.0544(6) 0.8834(5) 0.2263(6) 0.0510(15) Uani 1 1 d . . . . .
C21 C -0.0035(7) 0.8222(6) 0.1593(6) 0.0532(16) Uani 1 1 d . . . . .
H21 H 0.0168 0.8536 0.1016 0.064 Uiso 1 1 calc R U . . .
C22 C 0.0179(6) 0.7176(6) 0.1752(6) 0.0514(15) Uani 1 1 d . . . . .
H22 H 0.0527 0.6799 0.1288 0.062 Uiso 1 1 calc R U . . .
C23 C 0.4911(7) 0.4935(8) 0.2748(7) 0.073(2) Uani 1 1 d D U . . .
C24 C 0.490(2) 0.489(2) 0.1486(15) 0.105(6) Uani 0.71(2) 1 d D U P A 1
H24A H 0.5690 0.4753 0.1531 0.157 Uiso 0.71(2) 1 calc R U P A 1
H24B H 0.4972 0.5688 0.1392 0.157 Uiso 0.71(2) 1 calc R U P A 1
H24C H 0.4032 0.4183 0.0722 0.157 Uiso 0.71(2) 1 calc R U P A 1
C24' C 0.440(3) 0.431(3) 0.1241(18) 0.067(9) Uani 0.29(2) 1 d D U P A 2
H24D H 0.3845 0.4680 0.0739 0.101 Uiso 0.29(2) 1 calc R U P A 2
H24E H 0.3841 0.3393 0.0895 0.101 Uiso 0.29(2) 1 calc R U P A 2
H24F H 0.5213 0.4473 0.1152 0.101 Uiso 0.29(2) 1 calc R U P A 2
C25 C 0.6342(11) 0.6016(15) 0.4024(16) 0.103(6) Uani 0.71(2) 1 d D U P A 1
H25A H 0.6273 0.6113 0.4808 0.154 Uiso 0.71(2) 1 calc R U P A 1
H25B H 0.6543 0.6821 0.3912 0.154 Uiso 0.71(2) 1 calc R U P A 1
H25C H 0.7092 0.5781 0.4137 0.154 Uiso 0.71(2) 1 calc R U P A 1
C25' C 0.610(4) 0.632(2) 0.320(5) 0.107(9) Uani 0.29(2) 1 d D U P A 2
H25D H 0.5768 0.6642 0.2510 0.161 Uiso 0.29(2) 1 calc R U P A 2
H25E H 0.6940 0.6251 0.3325 0.161 Uiso 0.29(2) 1 calc R U P A 2
H25F H 0.6298 0.6897 0.4029 0.161 Uiso 0.29(2) 1 calc R U P A 2
C26 C 0.4895(16) 0.3685(14) 0.2958(17) 0.083(4) Uani 0.71(2) 1 d D U P A 1
H26A H 0.4648 0.3612 0.3619 0.124 Uiso 0.71(2) 1 calc R U P A 1
H26B H 0.5818 0.3719 0.3269 0.124 Uiso 0.71(2) 1 calc R U P A 1
H26C H 0.4210 0.2947 0.2118 0.124 Uiso 0.71(2) 1 calc R U P A 1
C26' C 0.539(5) 0.418(4) 0.356(4) 0.116(16) Uani 0.29(2) 1 d D U P A 3
H26D H 0.5879 0.4707 0.4505 0.175 Uiso 0.29(2) 1 calc R U P A 3
H26E H 0.6017 0.3919 0.3372 0.175 Uiso 0.29(2) 1 calc R U P A 3
H26F H 0.4579 0.3419 0.3319 0.175 Uiso 0.29(2) 1 calc R U P A 3
C27 C -0.0779(8) 1.0005(6) 0.2089(7) 0.0746(18) Uani 1 1 d D U . . .
C28 C -0.1583(17) 1.0341(14) 0.2721(14) 0.097(4) Uani 0.713(16) 1 d D U P B 1
H28A H -0.1132 1.0407 0.3636 0.145 Uiso 0.713(16) 1 calc R U P B 1
H28B H -0.2543 0.9674 0.2212 0.145 Uiso 0.713(16) 1 calc R U P B 1
H28C H -0.1581 1.1154 0.2716 0.145 Uiso 0.713(16) 1 calc R U P B 1
C28' C -0.045(5) 1.101(3) 0.330(3) 0.095(11) Uani 0.287(16) 1 d D U P B 2
H28D H 0.0440 1.1186 0.4057 0.143 Uiso 0.287(16) 1 calc R U P B 2
H28E H -0.1185 1.0722 0.3482 0.143 Uiso 0.287(16) 1 calc R U P B 2
H28F H -0.0379 1.1792 0.3148 0.143 Uiso 0.287(16) 1 calc R U P B 2
C29 C -0.1772(18) 0.9688(14) 0.0628(11) 0.107(5) Uani 0.713(16) 1 d D U P B 1
H29A H -0.1411 0.9381 0.0103 0.161 Uiso 0.713(16) 1 calc R U P B 1
H29B H -0.1851 1.0453 0.0529 0.161 Uiso 0.713(16) 1 calc R U P B 1
H29C H -0.2690 0.9028 0.0316 0.161 Uiso 0.713(16) 1 calc R U P B 1
C29' C -0.069(4) 1.027(3) 0.093(3) 0.094(10) Uani 0.287(16) 1 d D U P B 2
H29D H -0.1240 0.9480 0.0140 0.141 Uiso 0.287(16) 1 calc R U P B 2
H29E H 0.0281 1.0626 0.1177 0.141 Uiso 0.287(16) 1 calc R U P B 2
H29F H -0.1057 1.0885 0.0752 0.141 Uiso 0.287(16) 1 calc R U P B 2
C30 C 0.0690(15) 1.1085(15) 0.257(2) 0.128(5) Uani 0.713(16) 1 d D U P B 1
H30A H 0.1359 1.1258 0.3484 0.192 Uiso 0.713(16) 1 calc R U P B 1
H30B H 0.0604 1.1861 0.2522 0.192 Uiso 0.713(16) 1 calc R U P B 1
H30C H 0.1015 1.0805 0.1995 0.192 Uiso 0.713(16) 1 calc R U P B 1
C30' C 0.054(3) 1.126(2) 0.325(3) 0.077(9) Uani 0.287(16) 1 d D U P B 3
H30D H 0.0359 1.1993 0.3210 0.115 Uiso 0.287(16) 1 calc R U P B 3
H30E H 0.1339 1.1346 0.3158 0.115 Uiso 0.287(16) 1 calc R U P B 3
H30F H 0.0746 1.1209 0.4103 0.115 Uiso 0.287(16) 1 calc R U P B 3
C31 C 0.3931(14) 0.0100(11) 0.4248(14) 0.137(4) Uani 1 1 d . U . . .
C32 C 0.3432(18) -0.0088(15) 0.5393(19) 0.186(6) Uani 1 1 d . U . . .
C33 C 0.4112(12) -0.0357(9) 0.6345(10) 0.105(3) Uani 1 1 d . U . . .
C34 C 0.456(2) 0.0456(16) 0.3256(18) 0.201(6) Uani 1 1 d . U . . .
C35 C 0.470(3) -0.0094(19) 0.542(2) 0.223(8) Uani 1 1 d . U . . .
loop_
_atom_site_aniso_label
_atom_site_aniso_U_11
_atom_site_aniso_U_22
_atom_site_aniso_U_33
_atom_site_aniso_U_23
_atom_site_aniso_U_13
_atom_site_aniso_U_12
C1 0.042(3) 0.036(3) 0.035(3) 0.016(2) 0.022(3) 0.024(3)
C2 0.046(3) 0.050(4) 0.046(3) 0.023(3) 0.026(3) 0.020(3)
C3 0.054(4) 0.053(4) 0.041(3) 0.014(3) 0.017(3) 0.019(3)
C4 0.059(4) 0.068(4) 0.036(3) 0.018(3) 0.018(3) 0.025(4)
C5 0.054(4) 0.051(4) 0.043(3) 0.025(3) 0.024(3) 0.024(3)
C6 0.045(3) 0.044(3) 0.037(3) 0.021(3) 0.022(3) 0.026(3)
C7 0.045(3) 0.046(3) 0.038(3) 0.025(2) 0.028(3) 0.028(3)
C8 0.042(3) 0.033(3) 0.037(3) 0.018(2) 0.025(3) 0.021(3)
C9 0.041(3) 0.036(3) 0.036(3) 0.021(2) 0.021(2) 0.025(2)
C10 0.042(3) 0.038(3) 0.042(3) 0.020(3) 0.026(3) 0.020(3)
C11 0.045(3) 0.042(3) 0.036(3) 0.024(2) 0.027(3) 0.025(3)
C12 0.049(3) 0.038(3) 0.054(3) 0.017(3) 0.031(3) 0.022(3)
C13 0.061(4) 0.051(4) 0.064(4) 0.018(3) 0.039(3) 0.034(3)
C14 0.049(4) 0.068(4) 0.052(3) 0.028(3) 0.034(3) 0.032(3)
C15 0.045(4) 0.057(4) 0.047(3) 0.018(3) 0.024(3) 0.019(3)
C16 0.055(4) 0.043(3) 0.047(3) 0.018(3) 0.034(3) 0.025(3)
C17 0.043(3) 0.046(3) 0.041(3) 0.024(3) 0.025(3) 0.025(3)
C18 0.077(4) 0.064(4) 0.067(4) 0.043(3) 0.055(4) 0.048(4)
C19 0.087(5) 0.065(4) 0.071(4) 0.037(4) 0.056(4) 0.053(4)
C20 0.058(4) 0.048(3) 0.053(4) 0.026(3) 0.027(3) 0.031(3)
C21 0.074(4) 0.053(4) 0.056(4) 0.037(3) 0.042(3) 0.034(3)
C22 0.072(4) 0.058(4) 0.056(4) 0.036(3) 0.044(3) 0.041(3)
C23 0.060(4) 0.101(5) 0.076(5) 0.032(4) 0.045(4) 0.047(4)
C24 0.101(9) 0.134(10) 0.114(8) 0.053(6) 0.079(7) 0.057(7)
C24' 0.066(12) 0.074(12) 0.076(12) 0.019(8) 0.054(9) 0.030(8)
C25 0.062(6) 0.126(9) 0.118(9) 0.030(6) 0.049(6) 0.050(6)
C25' 0.091(11) 0.108(10) 0.122(13) 0.035(9) 0.066(10) 0.037(5)
C26 0.070(7) 0.108(8) 0.085(7) 0.039(6) 0.038(5) 0.062(6)
C26' 0.110(18) 0.124(18) 0.116(18) 0.041(11) 0.056(12) 0.064(12)
C27 0.108(5) 0.057(4) 0.067(4) 0.036(4) 0.039(4) 0.050(3)
C28 0.120(7) 0.090(7) 0.103(7) 0.044(5) 0.053(5) 0.079(6)
C28' 0.099(14) 0.089(13) 0.096(13) 0.032(9) 0.051(10) 0.044(10)
C29 0.126(9) 0.097(7) 0.100(8) 0.054(6) 0.033(6) 0.081(7)
C29' 0.106(14) 0.084(13) 0.091(13) 0.049(9) 0.040(9) 0.050(9)
C30 0.118(6) 0.103(8) 0.150(10) 0.059(7) 0.062(6) 0.042(4)
C30' 0.090(12) 0.065(11) 0.085(12) 0.031(9) 0.047(9) 0.042(9)
C31 0.134(6) 0.113(5) 0.141(6) 0.041(4) 0.057(4) 0.061(4)
C32 0.178(7) 0.171(7) 0.201(7) 0.063(5) 0.093(5) 0.086(5)
C33 0.113(5) 0.091(4) 0.094(4) 0.022(3) 0.068(4) 0.017(3)
C34 0.208(8) 0.186(7) 0.197(8) 0.070(5) 0.099(5) 0.093(5)
C35 0.229(9) 0.217(9) 0.224(9) 0.077(6) 0.131(6) 0.090(6)
loop_
_atom_type_symbol
_atom_type_description
_atom_type_scat_dispersion_real
_atom_type_scat_dispersion_imag
_atom_type_scat_source
C C 0.0033 0.0016 'International Tables Vol C Tables 4.2.6.8 and 6.1.1.4'
H H 0.0000 0.0000 'International Tables Vol C Tables 4.2.6.8 and 6.1.1.4'
loop_
_geom_angle_atom_site_label_1
_geom_angle_atom_site_label_2
_geom_angle_atom_site_label_3
_geom_angle
_geom_angle_site_symmetry_1
_geom_angle_site_symmetry_3
C2 C1 C6 120.3(5) . .
C2 C1 C9 131.1(4) . .
C6 C1 C9 108.6(4) . .
C3 C2 C1 119.1(5) . .
C2 C3 C4 120.5(6) . .
C5 C4 C3 120.7(5) . .
C4 C5 C6 119.3(5) . .
C5 C6 C1 120.1(5) . .
C5 C6 C7 128.6(4) . .
C1 C6 C7 111.3(4) . .
C6 C7 C17 109.3(4) . .
C6 C7 C11 112.3(4) . .
C17 C7 C11 113.4(4) . .
C6 C7 C8 100.6(4) . .
C17 C7 C8 112.2(4) . .
C11 C7 C8 108.3(4) . .
C10 C8 C9 120.8(4) . .
C10 C8 C7 128.6(4) . .
C9 C8 C7 110.6(4) . .
C10 C9 C8 120.9(4) 2_566 .
C10 C9 C1 130.2(5) 2_566 .
C8 C9 C1 108.9(4) . .
C8 C10 C9 118.3(5) . 2_566
C12 C11 C16 117.1(5) . .
C12 C11 C7 122.0(5) . .
C16 C11 C7 120.8(5) . .
C11 C12 C13 121.0(5) . .
C14 C13 C12 122.7(6) . .
C13 C14 C15 115.8(5) . .
C13 C14 C23 120.0(6) . .
C15 C14 C23 124.2(6) . .
C14 C15 C16 122.7(6) . .
C15 C16 C11 120.7(5) . .
C22 C17 C18 117.3(5) . .
C22 C17 C7 121.9(5) . .
C18 C17 C7 120.7(4) . .
C19 C18 C17 121.1(5) . .
C20 C19 C18 122.4(6) . .
C19 C20 C21 115.8(5) . .
C19 C20 C27 121.9(6) . .
C21 C20 C27 122.4(5) . .
C22 C21 C20 122.3(5) . .
C21 C22 C17 121.0(5) . .
C24 C23 C14 112.1(8) . .
C26' C23 C14 112.8(19) . .
C24 C23 C26 109.9(10) . .
C14 C23 C26 109.7(7) . .
C14 C23 C24' 104.4(13) . .
C24 C23 C25 111.1(9) . .
C14 C23 C25 110.8(7) . .
C26 C23 C25 102.8(9) . .
C14 C23 C25' 107.6(14) . .
C24' C23 C25' 101.0(18) . .
C28' C27 C29' 123.5(19) . .
C29 C27 C28 101.8(10) . .
C28' C27 C20 116.6(15) . .
C29 C27 C20 110.6(7) . .
C29' C27 C20 114.2(13) . .
C28 C27 C20 112.0(7) . .
C20 C27 C30' 109.0(13) . .
C29 C27 C30 108.3(10) . .
C28 C27 C30 117.5(12) . .
C20 C27 C30 106.5(9) . .
C35 C31 C34 123.6(16) . .
C35 C31 C32 54.4(11) . .
C34 C31 C32 173.6(11) . .
C33 C32 C31 121.5(15) . .
C32 C33 C34 128.2(13) . 2_656
C32 C33 C35 61.7(12) . .
C34 C33 C35 66.5(12) 2_656 .
C33 C34 C35 59.7(10) 2_656 2_656
C33 C34 C31 111.7(12) 2_656 .
C35 C34 C31 52.0(10) 2_656 .
C31 C35 C31 118.6(15) . 2_656
C31 C35 C33 122(2) . .
C31 C35 C33 119(2) 2_656 .
loop_
_geom_bond_atom_site_label_1
_geom_bond_atom_site_label_2
_geom_bond_distance
_geom_bond_site_symmetry_2
C1 C2 1.379(7) .
C1 C6 1.396(7) .
C1 C9 1.463(7) .
C2 C3 1.378(7) .
C3 C4 1.384(8) .
C4 C5 1.372(8) .
C5 C6 1.380(7) .
C6 C7 1.528(7) .
C7 C17 1.536(7) .
C7 C11 1.537(7) .
C7 C8 1.540(6) .
C8 C10 1.373(7) .
C8 C9 1.400(7) .
C9 C10 1.391(6) 2_566
C10 C9 1.391(6) 2_566
C11 C12 1.372(7) .
C11 C16 1.387(7) .
C12 C13 1.378(7) .
C13 C14 1.372(8) .
C14 C15 1.373(8) .
C14 C23 1.534(8) .
C15 C16 1.378(7) .
C17 C22 1.373(7) .
C17 C18 1.375(7) .
C18 C19 1.374(8) .
C19 C20 1.366(8) .
C20 C21 1.390(8) .
C20 C27 1.525(8) .
C21 C22 1.367(7) .
C23 C24 1.491(12) .
C23 C26' 1.502(19) .
C23 C26 1.543(12) .
C23 C24' 1.546(17) .
C23 C25 1.560(13) .
C23 C25' 1.575(19) .
C27 C28' 1.469(19) .
C27 C29 1.501(12) .
C27 C29' 1.519(18) .
C27 C28 1.520(12) .
C27 C30' 1.547(19) .
C27 C30 1.554(14) .
C31 C35 1.42(3) .
C31 C34 1.70(2) .
C31 C32 1.73(2) .
C32 C33 1.247(17) .
C33 C34 1.459(19) 2_656
C33 C35 1.562(19) .
C34 C33 1.459(19) 2_656
C34 C35 1.66(3) 2_656
C35 C31 1.47(3) 2_656
loop_
_geom_torsion_atom_site_label_1
_geom_torsion_atom_site_label_2
_geom_torsion_atom_site_label_3
_geom_torsion_atom_site_label_4
_geom_torsion
_geom_torsion_site_symmetry_1
_geom_torsion_site_symmetry_4
C6 C1 C2 C3 0.7(8) . .
C9 C1 C2 C3 -179.1(5) . .
C1 C2 C3 C4 -1.0(9) . .
C2 C3 C4 C5 0.1(10) . .
C3 C4 C5 C6 1.1(9) . .
C4 C5 C6 C1 -1.5(8) . .
C4 C5 C6 C7 177.1(5) . .
C2 C1 C6 C5 0.6(8) . .
C9 C1 C6 C5 -179.6(5) . .
C2 C1 C6 C7 -178.2(5) . .
C9 C1 C6 C7 1.6(6) . .
C5 C6 C7 C17 61.6(7) . .
C1 C6 C7 C17 -119.8(4) . .
C5 C6 C7 C11 -65.2(7) . .
C1 C6 C7 C11 113.5(4) . .
C5 C6 C7 C8 179.8(5) . .
C1 C6 C7 C8 -1.5(5) . .
C6 C7 C8 C10 -178.9(5) . .
C17 C7 C8 C10 -62.8(7) . .
C11 C7 C8 C10 63.2(6) . .
C6 C7 C8 C9 0.9(5) . .
C17 C7 C8 C9 117.1(5) . .
C11 C7 C8 C9 -117.0(5) . .
C10 C8 C9 C10 0.5(8) . 2_566
C7 C8 C9 C10 -179.3(4) . 2_566
C10 C8 C9 C1 179.8(4) . .
C7 C8 C9 C1 -0.1(5) . .
C2 C1 C9 C10 -2.0(9) . 2_566
C6 C1 C9 C10 178.2(5) . 2_566
C2 C1 C9 C8 178.9(5) . .
C6 C1 C9 C8 -0.9(5) . .
C9 C8 C10 C9 -0.5(8) . 2_566
C7 C8 C10 C9 179.3(5) . 2_566
C6 C7 C11 C12 -16.9(6) . .
C17 C7 C11 C12 -141.4(5) . .
C8 C7 C11 C12 93.4(5) . .
C6 C7 C11 C16 167.6(4) . .
C17 C7 C11 C16 43.0(6) . .
C8 C7 C11 C16 -82.2(5) . .
C16 C11 C12 C13 0.8(7) . .
C7 C11 C12 C13 -174.9(5) . .
C11 C12 C13 C14 0.0(9) . .
C12 C13 C14 C15 -0.9(9) . .
C12 C13 C14 C23 179.4(5) . .
C13 C14 C15 C16 1.0(8) . .
C23 C14 C15 C16 -179.3(5) . .
C14 C15 C16 C11 -0.2(8) . .
C12 C11 C16 C15 -0.7(7) . .
C7 C11 C16 C15 175.1(4) . .
C6 C7 C17 C22 -88.3(6) . .
C11 C7 C17 C22 37.9(7) . .
C8 C7 C17 C22 161.0(5) . .
C6 C7 C17 C18 87.6(6) . .
C11 C7 C17 C18 -146.3(5) . .
C8 C7 C17 C18 -23.1(7) . .
C22 C17 C18 C19 1.5(9) . .
C7 C17 C18 C19 -174.5(6) . .
C17 C18 C19 C20 -1.4(11) . .
C18 C19 C20 C21 0.7(10) . .
C18 C19 C20 C27 -179.2(6) . .
C19 C20 C21 C22 -0.2(9) . .
C27 C20 C21 C22 179.8(6) . .
C20 C21 C22 C17 0.3(10) . .
C18 C17 C22 C21 -1.0(9) . .
C7 C17 C22 C21 175.0(5) . .
C13 C14 C23 C24 78.7(11) . .
C15 C14 C23 C24 -101.0(11) . .
C13 C14 C23 C26' -71(2) . .
C15 C14 C23 C26' 110(2) . .
C13 C14 C23 C26 -43.7(10) . .
C15 C14 C23 C26 136.6(9) . .
C13 C14 C23 C24' 54.3(16) . .
C15 C14 C23 C24' -125.4(15) . .
C13 C14 C23 C25 -156.5(10) . .
C15 C14 C23 C25 23.8(12) . .
C13 C14 C23 C25' 161(2) . .
C15 C14 C23 C25' -19(2) . .
C19 C20 C27 C28' 37(2) . .
C21 C20 C27 C28' -143(2) . .
C19 C20 C27 C29 -123.1(10) . .
C21 C20 C27 C29 57.0(11) . .
C19 C20 C27 C29' -168.6(18) . .
C21 C20 C27 C29' 11.5(19) . .
C19 C20 C27 C28 -10.3(11) . .
C21 C20 C27 C28 169.7(8) . .
C19 C20 C27 C30' 84.2(18) . .
C21 C20 C27 C30' -95.8(17) . .
C19 C20 C27 C30 119.4(11) . .
C21 C20 C27 C30 -60.5(11) . .
C35 C31 C32 C33 -5.7(14) . .
C31 C32 C33 C34 5(2) . 2_656
C31 C32 C33 C35 4.8(12) . .
C35 C31 C34 C33 7.9(19) . 2_656
C35 C31 C34 C35 5(2) . 2_656
C34 C31 C35 C31 -5(2) . 2_656
C32 C31 C35 C31 -178(2) . 2_656
C34 C31 C35 C33 177.2(12) . .
C32 C31 C35 C33 4.6(11) . .
C32 C33 C35 C31 -5.9(14) . .
C34 C33 C35 C31 174.6(19) 2_656 .
C32 C33 C35 C31 177(2) . 2_656
C34 C33 C35 C31 -2.9(13) 2_656 2_656
