#------------------------------------------------------------------------------
#$Date: 2017-10-07 08:35:01 +0300 (Sat, 07 Oct 2017) $
#$Revision: 201850 $
#$URL: file:///home/coder/svn-repositories/cod/cif/7/22/92/7229298.cif $
#------------------------------------------------------------------------------
#
# This file is available in the Crystallography Open Database (COD),
# http://www.crystallography.net/
#
# All data on this site have been placed in the public domain by the
# contributors.
#
data_7229298
loop_
_publ_author_name
'Hempe, M.'
'Reggelin, M.'
_publ_section_title
;
 Molecular packing and morphological stability of
 dihydro-indeno[1,2-b]fluorenes in the context of their substitution
 pattern
;
_journal_issue                   75
_journal_name_full               'RSC Adv.'
_journal_page_first              47183
_journal_paper_doi               10.1039/C7RA09401A
_journal_volume                  7
_journal_year                    2017
_chemical_formula_moiety         'C52 H78'
_chemical_formula_sum            'C52 H78'
_chemical_formula_weight         703.14
_space_group_crystal_system      triclinic
_space_group_IT_number           2
_space_group_name_Hall           '-P 1'
_space_group_name_H-M_alt        'P -1'
_symmetry_space_group_name_Hall  '-P 1'
_symmetry_space_group_name_H-M   'P -1'
_atom_sites_solution_hydrogens   geom
_audit_creation_method           SHELXL-2014/6
_audit_update_record
;
2017-08-14 deposited with the CCDC.
2017-10-06 downloaded from the CCDC.
;
_cell_angle_alpha                82.38(2)
_cell_angle_beta                 73.88(2)
_cell_angle_gamma                75.30(2)
_cell_formula_units_Z            1
_cell_length_a                   8.502(1)
_cell_length_b                   10.722(2)
_cell_length_c                   14.069(2)
_cell_measurement_reflns_used    1203
_cell_measurement_temperature    293(2)
_cell_measurement_theta_max      27.79
_cell_measurement_theta_min      2.55
_cell_volume                     1189.1(3)
_computing_cell_refinement
;
CrysAlis RED (Oxford Diffraction Ltd., 2009)
;
_computing_data_collection
;
CrysAlis CCD (Oxford Diffraction Ltd., 2009)
;
_computing_data_reduction
;
CrysAlis RED (Oxford Diffraction Ltd., 2009)
;
_computing_molecular_graphics    'PLATON (Spek, 2003)'
_computing_publication_material  'SHELXL-2014/6 (Sheldrick, 2014)'
_computing_structure_refinement  'SHELXL-2014/6 (Sheldrick, 2014)'
_computing_structure_solution    'SHELXL-2014 (Sheldrick, 2014)'
_diffrn_ambient_temperature      293(2)
_diffrn_measured_fraction_theta_full 0.954
_diffrn_measured_fraction_theta_max 0.961
_diffrn_measurement_device_type
;  
Oxford Diffraction Xcalibur (TM) Single Crystal X-ray Diffractometer 
with Sapphire CCD Detector.
;
_diffrn_measurement_method
;
Rotation method data acquisition using omega scans.
;
_diffrn_radiation_type           MoK\a
_diffrn_radiation_wavelength     0.71073
_diffrn_reflns_av_R_equivalents  0.0474
_diffrn_reflns_av_unetI/netI     0.1086
_diffrn_reflns_Laue_measured_fraction_full 0.954
_diffrn_reflns_Laue_measured_fraction_max 0.961
_diffrn_reflns_limit_h_max       7
_diffrn_reflns_limit_h_min       -10
_diffrn_reflns_limit_k_max       12
_diffrn_reflns_limit_k_min       -12
_diffrn_reflns_limit_l_max       15
_diffrn_reflns_limit_l_min       -16
_diffrn_reflns_number            7498
_diffrn_reflns_point_group_measured_fraction_full 0.954
_diffrn_reflns_point_group_measured_fraction_max 0.961
_diffrn_reflns_theta_full        25.242
_diffrn_reflns_theta_max         25.184
_diffrn_reflns_theta_min         2.560
_diffrn_source                   'Enhance (Mo) X-ray Source'
_exptl_absorpt_coefficient_mu    0.054
_exptl_absorpt_correction_T_max  0.998
_exptl_absorpt_correction_T_min  0.981
_exptl_absorpt_correction_type   multi-scan
_exptl_absorpt_process_details
;
CrysAlis RED, Oxford Diffraction Ltd., 2009
Empirical absorption correction using spherical harmonics,
implemented in SCALE3 ABSPACK scaling algorithm.
;
_exptl_crystal_colour            'light orange'
_exptl_crystal_density_diffrn    0.982
_exptl_crystal_description       needle
_exptl_crystal_F_000             390
_exptl_crystal_size_max          0.360
_exptl_crystal_size_mid          0.080
_exptl_crystal_size_min          0.040
_refine_diff_density_max         0.234
_refine_diff_density_min         -0.218
_refine_diff_density_rms         0.044
_refine_ls_extinction_method     none
_refine_ls_goodness_of_fit_ref   1.273
_refine_ls_hydrogen_treatment    constr
_refine_ls_matrix_type           full
_refine_ls_number_parameters     237
_refine_ls_number_reflns         4106
_refine_ls_number_restraints     0
_refine_ls_restrained_S_all      1.273
_refine_ls_R_factor_all          0.2632
_refine_ls_R_factor_gt           0.1538
_refine_ls_shift/su_max          0.000
_refine_ls_shift/su_mean         0.000
_refine_ls_structure_factor_coef Fsqd
_refine_ls_weighting_details
'w=1/[\s^2^(Fo^2^)+2.6227P] where P=(Fo^2^+2Fc^2^)/3'
_refine_ls_weighting_scheme      calc
_refine_ls_wR_factor_gt          0.2016
_refine_ls_wR_factor_ref         0.2368
_reflns_Friedel_coverage         0.000
_reflns_number_gt                2032
_reflns_number_total             4106
_reflns_threshold_expression     'I > 2\s(I)'
_cod_data_source_file            c7ra09401a2.cif
_cod_data_source_block           1330m
_cod_original_cell_volume        1189.1(4)
_cod_database_code               7229298
_shelx_space_group_comment
;
The symmetry employed for this shelxl refinement is uniquely defined
by the following loop, which should always be used as a source of
symmetry information in preference to the above space-group names.
They are only intended as comments.
;
_shelx_estimated_absorpt_t_min   0.981
_shelx_estimated_absorpt_t_max   0.998
_shelxl_version_number           2014/6
_shelx_res_file
;
TITL 1330 (MAH-379) IN P-1
CELL  0.71073  8.50200 10.72200 14.06900 82.38000 73.88000 75.30000
ZERR 1  0.00100  0.00200  0.00200  0.02000  0.02000  0.02000
LATT 1
SFAC C H
UNIT 52 78
PLAN 30
FMAP 2
SHEL 15 0.835
SIZE 0.36 0.08 0.04
L.S. 14
BOND $H
CONF
ACTA
WGHT    0.000000    2.622700
FVAR       1.44077
C1    1    0.548654    0.588767    0.045598    11.00000    0.04290    0.03360 =
         0.04076   -0.00413   -0.00941   -0.01660
AFIX  43
H1    2    0.581867    0.647064    0.075021    11.00000   -1.20000
AFIX   0
C2    1    0.405679    0.625167    0.012102    11.00000    0.03728    0.03081 =
         0.03533   -0.00075   -0.00240   -0.00888
C3    1    0.356776    0.538130   -0.034420    11.00000    0.03731    0.03834 =
         0.03270    0.00325   -0.00386   -0.01030
C4    1    0.200884    0.604650   -0.063110    11.00000    0.04211    0.04333 =
         0.03743    0.00307   -0.00674   -0.01430
C5    1    0.102640    0.562489   -0.109934    11.00000    0.04729    0.04949 =
         0.05168   -0.00155   -0.01101   -0.01454
AFIX  43
H5    2    0.133244    0.478367   -0.129601    11.00000   -1.20000
AFIX   0
C6    1   -0.041615    0.646156   -0.127418    11.00000    0.05263    0.06808 =
         0.06586    0.01063   -0.02574   -0.01935
AFIX  43
H6    2   -0.107336    0.618237   -0.159422    11.00000   -1.20000
AFIX   0
C7    1   -0.088091    0.770314   -0.097668    11.00000    0.04514    0.06656 =
         0.10388    0.00346   -0.03252   -0.00371
AFIX  43
H7    2   -0.186466    0.825209   -0.108331    11.00000   -1.20000
AFIX   0
C8    1    0.010522    0.814118   -0.051976    11.00000    0.05423    0.04481 =
         0.08908    0.00187   -0.02079   -0.00060
AFIX  43
H8    2   -0.019864    0.898872   -0.033664    11.00000   -1.20000
AFIX   0
C9    1    0.153903    0.731714   -0.033705    11.00000    0.03953    0.04418 =
         0.04162    0.00307   -0.00384   -0.00697
C10   1    0.279836    0.756640    0.016601    11.00000    0.04174    0.03471 =
         0.04925   -0.00503   -0.00595   -0.00409
C11   1    0.364109    0.867185   -0.037959    11.00000    0.04738    0.03687 =
         0.06303   -0.00156   -0.01187   -0.01084
AFIX  23
H11A  2    0.279900    0.947890   -0.029718    11.00000   -1.20000
H11B  2    0.449388    0.872606   -0.005982    11.00000   -1.20000
AFIX   0
C12   1    0.445021    0.854842   -0.147551    11.00000    0.06358    0.05997 =
         0.06504   -0.00234   -0.01330   -0.02201
AFIX  23
H12A  2    0.365774    0.836046   -0.178590    11.00000   -1.20000
H12B  2    0.542206    0.782677   -0.156141    11.00000   -1.20000
AFIX   0
C13   1    0.500392    0.977073   -0.199837    11.00000    0.08226    0.06424 =
         0.06648    0.01910   -0.01474   -0.03715
AFIX  23
H10   2    0.403216    1.049229   -0.189731    11.00000   -1.20000
H23   2    0.580483    0.994852   -0.168955    11.00000   -1.20000
AFIX   0
C14   1    0.578825    0.969454   -0.309095    11.00000    0.12213    0.09293 =
         0.06773    0.01223   -0.01066   -0.06257
AFIX  23
H14A  2    0.498334    0.951936   -0.339788    11.00000   -1.20000
H14B  2    0.675331    0.896758   -0.318986    11.00000   -1.20000
AFIX   0
C15   1    0.635038    1.088352   -0.361767    11.00000    0.12800    0.09457 =
         0.07773    0.01916   -0.01844   -0.05789
AFIX  23
H15A  2    0.715524    1.106607   -0.331438    11.00000   -1.20000
H15B  2    0.538789    1.161266   -0.353192    11.00000   -1.20000
AFIX   0
C16   1    0.715336    1.074813   -0.472548    11.00000    0.14664    0.11703 =
         0.07990    0.02428   -0.02263   -0.06969
AFIX  23
H16A  2    0.804579    0.996987   -0.480702    11.00000   -1.20000
H16B  2    0.631307    1.063646   -0.503311    11.00000   -1.20000
AFIX   0
C17   1    0.784297    1.182360   -0.524786    11.00000    0.16186    0.14242 =
         0.10168    0.02619   -0.01910   -0.06783
AFIX  23
H17A  2    0.868414    1.193674   -0.494156    11.00000   -1.20000
H17B  2    0.695149    1.260253   -0.516934    11.00000   -1.20000
AFIX   0
C18   1    0.863462    1.167550   -0.634144    11.00000    0.16305    0.20979 =
         0.09027    0.03136    0.00317   -0.06083
AFIX 137
H18A  2    0.909189    1.241176   -0.662878    11.00000   -1.50000
H18B  2    0.779753    1.161516   -0.666101    11.00000   -1.50000
H18C  2    0.951766    1.090544   -0.642968    11.00000   -1.50000
AFIX   0
C19   1    0.193484    0.789629    0.126152    11.00000    0.04759    0.04050 =
         0.06415   -0.01146   -0.00348   -0.00919
AFIX  23
H19A  2    0.279596    0.793337    0.158048    11.00000   -1.20000
H19B  2    0.119652    0.875043    0.126211    11.00000   -1.20000
AFIX   0
C20   1    0.092070    0.695884    0.187682    11.00000    0.06845    0.06834 =
         0.05499   -0.01280    0.00652   -0.02935
AFIX  23
H20A  2    0.166350    0.610958    0.190058    11.00000   -1.20000
H20B  2    0.007934    0.689843    0.155024    11.00000   -1.20000
AFIX   0
C21   1    0.004832    0.733298    0.292907    11.00000    0.07608    0.07552 =
         0.05984   -0.01448    0.01076   -0.02603
AFIX  23
H21A  2    0.089324    0.735061    0.326677    11.00000   -1.20000
H21B  2   -0.065251    0.819945    0.290634    11.00000   -1.20000
AFIX   0
C22   1   -0.103087    0.642911    0.352454    11.00000    0.09295    0.09760 =
         0.06170   -0.01664    0.01136   -0.04394
AFIX  23
H22A  2   -0.191588    0.645505    0.320611    11.00000   -1.20000
H22B  2   -0.034310    0.555499    0.350632    11.00000   -1.20000
AFIX   0
C23   1   -0.182967    0.672827    0.459682    11.00000    0.09759    0.09543 =
         0.07408   -0.02470    0.01043   -0.03957
AFIX  23
H23A  2   -0.094842    0.671590    0.491465    11.00000   -1.20000
H23B  2   -0.253694    0.759559    0.461717    11.00000   -1.20000
AFIX   0
C24   1   -0.287708    0.580171    0.518337    11.00000    0.09655    0.10363 =
         0.06591   -0.00934    0.00941   -0.04228
AFIX  23
H24A  2   -0.378234    0.584014    0.487831    11.00000   -1.20000
H24B  2   -0.217948    0.493116    0.513802    11.00000   -1.20000
AFIX   0
C25   1   -0.362060    0.605081    0.625241    11.00000    0.11897    0.12382 =
         0.06665   -0.01363    0.01504   -0.04495
AFIX  23
H25A  2   -0.428581    0.693161    0.630001    11.00000   -1.20000
H25B  2   -0.271518    0.597765    0.656531    11.00000   -1.20000
AFIX   0
C26   1   -0.471446    0.515017    0.681806    11.00000    0.13723    0.16323 =
         0.06714    0.00374    0.01875   -0.05486
AFIX 137
H26A  2   -0.565316    0.525089    0.653909    11.00000   -1.50000
H26B  2   -0.511642    0.535195    0.750082    11.00000   -1.50000
H26C  2   -0.407052    0.427401    0.677456    11.00000   -1.50000
AFIX   0
HKLF 4

REM  1330 (MAH-379) IN P-1
REM R1 =  0.1538 for    2032 Fo > 4sig(Fo)  and  0.2632 for all    4106 data
REM    237 parameters refined using      0 restraints

END

WGHT      0.0000      2.6231

REM Highest difference peak  0.234,  deepest hole -0.218,  1-sigma level  0.044
Q1    1   0.1704  0.6649 -0.0046  11.00000  0.05    0.23
Q2    1   0.2712  0.7803  0.0669  11.00000  0.05    0.22
Q3    1  -0.1652  0.7577  0.4901  11.00000  0.05    0.21
Q4    1  -0.1220  0.5599  0.3213  11.00000  0.05    0.21
Q5    1   0.5766  1.1846 -0.3179  11.00000  0.05    0.20
Q6    1   0.4450  1.0424 -0.2674  11.00000  0.05    0.20
Q7    1   0.1887  0.6855 -0.0845  11.00000  0.05    0.19
Q8    1   0.3383  0.5819  0.0135  11.00000  0.05    0.19
Q9    1   0.3759  0.7075  0.0004  11.00000  0.05    0.18
Q10   1   0.2572  0.5561 -0.0057  11.00000  0.05    0.17
Q11   1   0.2203  0.8588  0.1426  11.00000  0.05    0.16
Q12   1   0.2733  0.8316 -0.0066  11.00000  0.05    0.16
Q13   1  -0.4957  0.6223  0.8265  11.00000  0.05    0.16
Q14   1   0.2077  0.5679 -0.1027  11.00000  0.05    0.16
Q15   1  -0.2176  0.6901  0.6420  11.00000  0.05    0.15
Q16   1   0.3644  0.4607 -0.0002  11.00000  0.05    0.15
Q17   1  -0.2184  0.5390  0.3348  11.00000  0.05    0.15
Q18   1   0.3763  0.9818 -0.2207  11.00000  0.05    0.15
Q19   1   0.4779  0.6062 -0.0256  11.00000  0.05    0.15
Q20   1  -0.0744  0.8151  0.1436  11.00000  0.05    0.15
Q21   1  -0.3489  0.6597  0.7425  11.00000  0.05    0.14
Q22   1   0.0193  0.7332 -0.0281  11.00000  0.05    0.14
Q23   1   0.6738  0.6572 -0.0434  11.00000  0.05    0.14
Q24   1   0.1679  0.5735 -0.1659  11.00000  0.05    0.14
Q25   1   0.3539  0.9970 -0.2975  11.00000  0.05    0.14
Q26   1   0.8840  1.0632 -0.4611  11.00000  0.05    0.14
Q27   1   0.0014  0.8782  0.2633  11.00000  0.05    0.14
Q28   1   0.1492  0.4844 -0.1721  11.00000  0.05    0.14
Q29   1   1.0654  1.1754 -0.4948  11.00000  0.05    0.14
Q30   1  -0.3525  0.7872  0.4372  11.00000  0.05    0.13
;
_shelx_res_checksum              73457
_shelx_hkl_file
;
   0   0  -2 10083.9 35.6410   5
   0   0  -3 2066.62 21.2564   5
   0   0  -4 42.4547 7.32433   7
   0   0  -4 52.4349 12.2387   5
   0   0  -5 805.132 9.22711   2
   0   0  -5 786.203 18.3210   5
   0   0  -5 785.440 14.2721   7
   0   0  -6 5360.83 36.3596   7
   0   0  -6 5475.03 23.3475   2
   0   0  -6 5533.02 46.7103   5
   0   0  -6 5463.43 23.6931   0
   0   0  -7 216.910 10.8241   7
   0   0  -7 247.415 6.47222   2
   0   0  -7 235.845 6.26058   0
   0   0  -7 260.942 16.0997   5
   0   0  -8 16.6640 8.02588   7
   0   0  -8 12.8001 14.7452   5
   0   0   8 7.83183 12.8188   3
   0   0  -9 14.7304 14.9479   5
   0   0   9 16.0731 13.4112   3
   0   0  -9 17.8740 8.92093   7
   0   0 -10 20.8102 16.2686   5
   0   0  10 32.7328 14.0284   3
   0   0  11 53.4446 14.6073   3
   0   0 -11 70.0420 18.6656   5
   0   0 -12 298.829 24.2960   5
   0   0  12 323.880 21.2567   3
   0   0 -13 26.0856 18.9716   5
   0   0  13 74.2445 19.0416   3
   0   0 -14 26.2933 18.1677   5
   0   0  14-11.9061 18.5062   3
   0   0 -16 80.9065 20.9599   5
   0   1 -16 72.2566 18.7325   5
   0  -1  15 56.0041 18.4450   3
   0  -1  14-20.1054 19.8998   3
   0   1 -14-8.86683 19.1722   5
   0   1 -13-67.1355 17.2746   5
   0  -1  13-30.1267 18.1749   3
   0   1 -12 38.7323 18.5761   5
   0  -1  12 85.6506 18.1321   3
   0  -1  11-14.4033 14.8606   3
   0   1 -11 1.26019 16.0336   5
   0   1 -10-14.3283 13.8840   5
   0   1  -9 42.3223 15.4911   5
   0   1  -8-7.66361 12.3953   5
   0   1  -8 3.67396 7.32273   7
   0   1  -8 9.77090 6.00760   0
   0   1  -7 44.7552 6.80801   0
   0   1  -7 52.6867 8.15029   7
   0   1  -7 41.0230 12.6290   5
   0   1  -6 493.352 17.5593   5
   0   1  -6 474.399 11.7814   7
   0   1  -6 509.267 11.7511   0
   0   1  -5 306.531 9.41660   7
   0   1  -5 296.766 9.72737   0
   0   1  -5 297.463 14.1992   5
   0   1  -4 667.486 12.3254   0
   0   1  -4 663.444 17.0538   5
   0   1  -4 662.663 10.6653   7
   0  -1   3 780.289 15.1328   4
   0   1  -3 790.984 16.4540   5
   0  -1   2 1.12024 7.18840   4
   0   1  -2 6.29591 7.12554   5
   0   1  -1 802.895 10.9607   0
   0  -1  -2 6726.92 32.0930   5
   0   1   3 6586.71 30.7205   3
   0  -1  -3 6504.33 37.4252   5
   0   1   4 604.690 13.5497   3
   0  -1  -4 625.391 17.4078   5
   0  -1  -5-11.6790 12.4690   5
   0   1   5 5.35661 9.34951   3
   0  -1  -6 155.569 14.8881   5
   0   1   6 133.391 11.8596   3
   0  -1  -7 195.237 11.9091   7
   0  -1  -7 189.466 16.9709   5
   0   1   7 209.564 13.8656   3
   0   1   8 50.4995 11.8077   3
   0  -1  -8 47.2859 15.6249   5
   0  -1  -8 44.7044 9.38440   7
   0   1   9 22.2736 11.8616   3
   0  -1  -9 31.8335 9.87832   7
   0  -1  -9 16.4677 15.8617   5
   0  -1 -10-12.9817 16.7027   5
   0   1  10 6.40916 12.3803   3
   0   1  11 49.6452 15.0496   3
   0  -1 -11 3.05308 17.5752   5
   0   1  12 55.1268 16.6240   3
   0  -1 -12 97.9552 19.8590   5
   0   1  13 10.8943 14.8790   3
   0  -1 -13 5.73183 17.0009   5
   0  -1 -14 39.1809 21.5887   5
   0  -1 -15 194.158 24.3161   5
   0  -1 -16 6.22518 17.0527   5
   0   2 -16 21.4099 19.5947   5
   0  -2  16-26.5653 21.5753   3
   0  -2  15 10.9907 19.0191   3
   0  -2  14 33.1143 22.0137   3
   0   2 -14-36.3463 19.1152   5
   0  -2  13-17.3238 17.3597   3
   0   2 -13 37.0698 17.2441   5
   0   2 -12-1.92105 15.0605   5
   0   2 -11 81.0152 17.3924   5
   0   2 -10 36.1099 16.0140   5
   0   2  -9 1.16811 14.2221   5
   0   2  -8 11.4124 7.33575   0
   0   2  -8-1.29468 12.9674   5
   0   2  -7 174.126 14.9542   5
   0   2  -7 188.025 10.5226   0
   0   2  -6 482.922 17.7834   5
   0   2  -6 455.531 14.1472   0
   0   2  -5 83.0196 13.0573   5
   0  -2   5 74.3647 11.3940   4
   0   2  -5 71.8979 9.44021   0
   0   2  -4 96.0392 9.79802   0
   0  -2   4 98.0836 11.4813   4
   0   2  -4 102.981 11.7033   5
   0   2  -3 1.69713 8.85392   0
   0   2  -3-0.82257 10.2283   5
   0  -2   3 0.90836 9.06247   4
   0  -2   2 597.205 14.0168   4
   0   2  -2 600.923 15.2607   0
   0   2  -2 565.253 13.6638   5
   0   2  -1 396.350 12.4923   5
   0   2  -1 399.539 13.7285   0
   0  -2   1 402.956 12.2048   4
   0  -2   0 638.772 12.4002   4
   0  -2   0 623.669 14.9640   0
   0   2   0 661.268 12.1743   3
   0   2   0 615.386 14.3136   0
   0   2   1 3278.20 20.1946   3
   0   2   1 3249.62 23.8117   0
   0  -2  -1 3265.77 24.2809   4
   0  -2  -1 3254.86 24.1195   0
   0  -2  -2 587.545 12.0300   0
   0   2   2 624.034 11.7328   0
   0  -2  -2 611.279 14.0229   4
   0   2   2 612.293 11.1473   3
   0  -2  -3 286.214 12.4860   4
   0  -2  -3 309.046 9.02254   0
   0   2   3 295.105 9.87582   3
   0  -2  -3 281.693 13.3014   5
   0   2   4 6.18895 7.88757   3
   0  -2  -4 0.08975 11.1341   5
   0  -2  -4 0.95362 5.30430   0
   0   2   5 292.328 6.20948   1
   0   2   5 293.887 12.0141   3
   0  -2  -5 326.389 16.1952   5
   0  -2  -5 303.097 6.46273   0
   0   2   6 331.216 13.5132   3
   0  -2  -6 343.306 17.3456   5
   0  -2  -7 2540.13 36.7661   5
   0   2   7 2591.82 31.0903   3
   0   2   8 308.024 15.5690   3
   0  -2  -8 297.253 19.3864   5
   0  -2  -9-6.78686 16.0116   5
   0   2   9 12.9540 11.5668   3
   0  -2 -10 14.2782 16.8536   5
   0  -2 -10 20.8493 11.5840   7
   0   2  10 6.33532 11.6822   3
   0  -2 -11 18.7539 17.2983   5
   0   2  11 30.5817 12.6874   3
   0  -2 -12 21.4153 19.3286   5
   0  -2 -13 62.0210 18.9856   5
   0  -2 -14 140.200 23.3563   5
   0  -2 -15-6.83802 20.2976   5
   0  -2 -16 38.0053 21.6006   5
   0  -3  16-67.8462 21.7274   3
   0   3 -16 52.1894 22.7007   5
   0   3 -15-12.5944 16.2340   5
   0  -3  15 141.657 26.2118   3
   0   3 -14-44.8250 15.6844   5
   0   3 -13 24.4987 15.3953   5
   0   3 -12 11.7638 15.1082   5
   0   3 -11 218.871 20.0813   5
   0   3 -10 164.569 17.8047   5
   0   3  -9-31.3196 12.5639   5
   0   3  -8-8.60407 12.8531   5
   0   3  -8 10.8871 8.84693   0
   0   3  -7-7.67130 13.0049   5
   0  -3   7-6.89734 12.1503   4
   0   3  -7 2.72218 9.18742   0
   0   3  -6 92.6058 10.7237   0
   0  -3   6 66.2720 13.1645   4
   0   3  -6 78.5511 13.9646   5
   0   3  -5 100.448 11.2968   0
   0  -3   5 97.0332 12.7858   4
   0   3  -5 108.244 13.7030   5
   0  -3   4 229.253 14.1996   4
   0   3  -4 234.167 13.4746   0
   0   3  -4 227.104 14.7062   5
   0   3  -3 199.418 12.3134   0
   0   3  -3 207.774 13.7365   5
   0  -3   3 197.566 12.4698   4
   0   3  -2 19.3988 10.5299   0
   0   3  -2 21.0706 11.0583   5
   0  -3   2 12.2781 9.90571   4
   0  -3   1 221.607 12.6247   4
   0   3  -1 205.873 13.2468   0
   0  -3   0 42.1903 9.83124   4
   0   3   0 50.9151 11.3214   0
   0   3   0 53.6213 8.74747   3
   0   3   1 3520.82 30.3746   0
   0  -3  -1 3513.67 31.0810   0
   0   3   1 3498.00 26.3984   3
   0  -3  -1 3488.22 30.3908   4
   0  -3  -2 1660.84 22.3405   4
   0  -3  -2 1701.64 21.8034   0
   0   3   2 1718.95 20.7491   0
   0   3   2 1762.54 18.8905   3
   0   3   3 38.0038 7.95733   0
   0  -3  -3 22.2245 8.77148   0
   0  -3  -3 28.5591 9.57005   4
   0   3   3 36.6535 7.99975   3
   0   3   4 68.6575 8.93566   3
   0  -3  -4 62.9760 7.90258   0
   0  -3  -4 69.1132 12.6904   5
   0  -3  -4 74.0010 10.8568   4
   0   3   5 603.495 14.8435   3
   0  -3  -5 602.631 17.4752   4
   0  -3  -5 595.294 19.8918   5
   0   3   6 442.224 14.5472   3
   0  -3  -6 488.792 20.0055   5
   0  -3  -6 477.635 17.2447   4
   0   3   7 35.8641 10.6434   3
   0  -3  -7 40.5929 15.5977   5
   0   3   7 42.9544 4.31230   1
   0   3   8 226.494 13.9842   3
   0  -3  -8 246.260 18.9346   5
   0   3   9 84.4418 12.7071   3
   0  -3  -9 49.0166 18.2863   5
   0  -3 -10 9.62813 17.7524   5
   0   3  10 20.0187 12.1963   3
   0  -3 -11 15.1032 20.2954   5
   0  -3 -12-6.85551 21.7059   5
   0  -3 -13-13.3249 21.6163   5
   0  -3 -14-51.6395 19.5432   5
   0  -3 -15-0.89821 24.9233   5
   0  -3 -16 51.5139 30.5666   5
   0  -4  16 100.359 29.5138   3
   0   4 -15-59.1014 19.2907   5
   0   4 -13 48.1108 17.2967   5
   0   4 -12 21.3277 14.4727   5
   0   4 -11 27.8232 16.2730   5
   0   4 -10 762.023 29.1883   5
   0   4  -9 5.35176 13.7588   5
   0  -4   8 19.1876 15.2831   4
   0   4  -8-6.59826 8.89598   0
   0   4  -8-3.36895 14.8980   5
   0  -4   7-9.72409 13.9813   4
   0   4  -7 12.0139 10.2162   0
   0   4  -7-3.75122 14.2380   5
   0   4  -6 9.50543 14.1738   5
   0   4  -6-0.85750 11.2007   0
   0  -4   6 8.70683 12.5522   4
   0  -4   5 214.252 15.9667   4
   0   4  -5 240.994 16.7170   5
   0   4  -5 229.690 15.0949   0
   0   4  -4 488.291 18.8755   5
   0  -4   4 476.333 18.2989   4
   0   4  -4 500.585 17.9834   0
   0   4  -3 1076.23 22.6696   5
   0  -4   3 1102.31 22.8311   4
   0   4  -3 1065.91 23.8462   0
   0  -4   2 370.785 15.7330   4
   0   4  -2 385.260 16.1416   0
   0   4  -2 422.703 16.7600   5
   0   4  -1 574.479 18.3817   0
   0  -4   1 575.294 16.8347   4
   0  -4   0 314.235 14.1948   4
   0   4   0 283.253 15.5821   0
   0   4   1 1055.82 18.4756   3
   0  -4  -1 1079.51 20.7154   4
   0   4   1 1091.79 21.7357   0
   0   4   2 990.329 17.0964   3
   0  -4  -2 1071.90 21.0085   4
   0   4   2 1044.35 20.4017   0
   0  -4  -3 680.084 18.5856   4
   0   4   3 656.050 14.5120   3
   0   4   3 702.682 16.6414   0
   0  -4  -4 203.809 14.2858   4
   0   4   4 187.648 10.4232   3
   0  -4  -5 5.05835 11.5632   4
   0   4   5 1.22431 7.86298   3
   0  -4  -6 3.87808 13.9397   5
   0   4   6-3.75150 8.94206   3
   0  -4  -6 5.79059 11.0725   4
   0  -4  -7 579.808 24.2930   5
   0  -4  -7 582.454 20.9084   4
   0   4   7 613.188 17.3008   3
   0   4   8 531.069 18.0580   3
   0  -4  -8 566.869 22.1168   4
   0  -4  -8 512.220 24.4228   5
   0  -4  -9 140.487 15.4986   4
   0  -4  -9 108.119 19.0934   5
   0  -4 -10 21.8467 14.2686   4
   0  -4 -10-6.11409 18.3623   5
   0  -4 -11 30.5163 19.1238   5
   0  -4 -11 14.1175 12.9864   4
   0  -4 -12 44.7732 24.7705   5
   0  -4 -12 22.5482 13.5269   4
   0  -4 -13 25.9908 13.7253   4
   0  -4 -13 33.4099 26.2382   5
   0  -4 -14 93.1744 27.9098   5
   0  -4 -14 13.9952 15.4945   4
   0  -4 -15 58.9807 27.5830   5
   0  -4 -15 25.0478 14.7096   4
   0  -4 -16 106.075 30.1420   5
   0   5 -14 3.85269 18.0875   5
   0   5 -13 59.3213 15.3930   5
   0   5 -12 64.3103 15.8748   5
   0   5 -11 32.2246 14.6230   5
   0   5 -10 69.2714 17.9903   5
   0   5  -9 98.3843 18.9285   5
   0  -5   9 115.561 18.7713   4
   0   5  -8 19.7566 15.5798   5
   0  -5   8 6.38188 15.1473   4
   0  -5   7 26.4500 15.1493   4
   0   5  -7-3.65807 15.2618   5
   0  -5   6 9.12497 13.6380   4
   0   5  -6 18.8155 14.4658   5
   0   5  -5 10.9110 13.0333   5
   0   5  -5 11.0434 11.9647   0
   0  -5   5-1.99587 12.8793   4
   0  -5   4-14.9001 13.2906   4
   0   5  -4-14.4924 13.6691   5
   0   5  -4-2.46629 11.0490   0
   0   5  -3 34.5125 13.0355   5
   0  -5   3 33.3578 4.96384   6
   0   5  -3 20.2328 10.0658   0
   0  -5   3 55.3170 13.9355   4
   0   5  -2 110.431 14.2080   5
   0  -5   2 133.392 15.3894   4
   0   5  -2 124.773 15.0239   0
   0   5  -1 586.920 18.9518   0
   0  -5   1 572.432 19.7731   4
   0   5   0 899.039 22.7289   0
   0  -5   0 936.845 22.6220   4
   0  -5  -1 516.418 18.3624   4
   0   5   1 480.247 15.2480   3
   0   5   1 490.439 17.7209   0
   0   5   2 570.187 18.3042   0
   0   5   2 528.217 15.2426   3
   0  -5  -2 552.151 18.5999   4
   0  -5  -3-1.85591 11.6916   4
   0   5   3 12.3515 9.48714   0
   0   5   3 16.5356 9.12440   3
   0   5   4 149.178 10.6031   3
   0  -5  -4 152.015 14.7544   4
   0  -5  -5 165.193 14.4912   4
   0   5   5 171.625 10.9418   3
   0  -5  -6 127.936 15.3493   4
   0   5   6 128.101 11.0990   3
   0  -5  -7 99.0257 13.9995   4
   0   5   7 90.9521 11.0966   3
   0  -5  -8 301.986 18.4354   4
   0  -5  -8 306.687 22.6566   5
   0  -5  -9 4.78066 14.0007   4
   0  -5  -9-2.53907 18.1641   5
   0  -5 -10 5.84774 15.7111   4
   0  -5 -10 14.8794 19.8778   5
   0  -5 -11 46.2784 15.8314   4
   0  -5 -11 64.7530 21.4841   5
   0  -5 -12 6.35400 23.3475   5
   0  -5 -12 53.0685 16.6117   4
   0  -5 -13-21.2930 22.5620   5
   0  -5 -13 21.2913 15.6259   4
   0  -5 -14-41.3422 23.3729   5
   0  -5 -14 20.9390 14.9625   4
   0  -5 -15-30.9502 22.7814   5
   0  -5 -15 39.5109 14.4674   4
   0   6 -14 113.247 20.2534   5
   0   6 -13 11.1051 15.9559   5
   0   6 -12 50.4196 14.4143   5
   0   6 -11 4.65192 13.5332   5
   0   6 -10 97.4519 19.5069   5
   0   6  -9 157.206 20.3469   5
   0  -6   9 142.281 19.5182   4
   0  -6   8 186.804 21.1377   4
   0   6  -8 246.854 21.1887   5
   0  -6   7-1.34505 15.6965   4
   0   6  -7 0.96211 15.1368   5
   0  -6   6 15.4191 15.7281   4
   0   6  -6 6.07181 14.1558   5
   0  -6   5-6.59066 14.4545   4
   0   6  -5-5.82041 14.8190   5
   0  -6   4 252.647 18.0205   4
   0   6  -4 281.974 19.2863   5
   0   6  -3 700.928 23.9489   5
   0  -6   3 673.912 23.3612   4
   0   6  -2 653.096 22.5386   5
   0  -6   2 681.261 23.1103   4
   0  -6   1 25.2221 13.7277   4
   0   6   0 136.994 15.4760   0
   0  -6   0 103.221 15.3734   4
   0   6   1 287.316 15.1952   0
   0  -6  -1 257.024 15.8820   4
   0  -6  -2 175.016 15.9162   4
   0   6   2 142.841 12.9654   0
   0   6   2 170.354 12.4334   3
   0   6   3 24.2592 10.0704   3
   0   6   3 13.1717 11.1163   0
   0  -6  -3 12.3610 12.7394   4
   0  -6  -4-13.4474 13.3583   4
   0   6   4 0.44597 9.08568   3
   0   6   5 38.3399 9.11866   3
   0  -6  -5 35.5761 12.9153   4
   0  -6  -6 64.9022 15.3169   4
   0  -6  -7 48.9492 14.2360   4
   0  -6  -8 29.1555 14.9690   4
   0  -6  -9 466.744 23.1113   4
   0  -6 -10 94.5482 14.6351   4
   0  -6 -11 38.0897 13.7362   4
   0  -6 -12 63.3293 25.8662   5
   0  -6 -12 70.9124 17.6585   4
   0  -6 -13 68.5050 24.4727   5
   0  -6 -13 60.1951 17.6619   4
   0  -6 -14 55.6443 16.7511   4
   0  -6 -14 1.63528 25.2673   5
   0  -6 -15-24.7028 25.0286   5
   0  -6 -15 110.724 18.4910   4
   0   7 -10 16.4115 18.8106   5
   0  -7   8-12.5469 18.5784   4
   0   7  -8 67.8031 18.3169   5
   0  -7   7 40.4468 18.4335   4
   0   7  -7 85.1819 19.3342   5
   0   7  -6 17.4645 16.1557   5
   0  -7   6-16.0937 16.4802   4
   0  -7   5 61.1552 18.1179   4
   0   7  -5 44.3272 17.3345   5
   0   7  -4 197.449 19.8503   5
   0  -7   4 236.420 19.6602   4
   0  -7   3 2.18438 16.2738   4
   0   7  -3 23.6410 16.9188   5
   0   7  -2 10.9814 15.0727   5
   0  -7   2 29.9869 16.7198   4
   0  -7   1 203.315 18.4127   4
   0  -7   0 9.81861 15.7744   4
   0  -7  -1-0.75297 12.9103   4
   0   7   2 13.7782 11.0490   3
   0  -7  -2 8.39922 13.4895   4
   0   7   3-1.18412 9.90516   3
   0  -7  -3 25.5597 14.7706   4
   0  -7  -4 3.49849 14.5584   4
   0   7   4 15.8301 10.2307   3
   0  -7  -5 3.93245 13.9622   4
   0  -7  -6 44.2837 16.1587   4
   0  -7  -7 70.3541 16.0425   4
   0  -7  -8 290.708 20.6621   4
   0  -7  -9 145.770 18.5706   4
   0  -7 -10 73.1273 15.4879   4
   0  -7 -11 55.3498 15.2984   4
   0  -7 -12 21.6526 15.3897   4
   0  -7 -13 2.75682 15.6168   4
   0  -7 -14 57.4716 17.4168   4
   0  -7 -15 98.8821 20.3014   4
   0   8 -12 95.6056 18.2255   5
   0   8 -11 52.7717 20.6674   5
   0   8 -10 54.1553 17.2491   5
   0   8  -9 77.2647 21.7673   5
   0   8  -8 20.8649 18.8854   5
   0  -8   8 31.9048 19.7431   4
   0   8  -7 62.4023 17.9497   5
   0  -8   7 39.0716 20.8755   4
   0   8  -6 83.8768 18.2991   5
   0  -8   6 56.3544 20.2247   4
   0  -8   5 14.6765 17.7263   4
   0   8  -5-0.82161 17.4391   5
   0   8  -4 9.10721 17.7326   5
   0  -8   4 19.2472 17.4844   4
   0  -8   3 322.942 23.6939   4
   0   8  -3 393.132 24.3087   5
   0  -8   2 6.80983 16.1948   4
   0   8  -2-18.6619 17.1761   5
   0  -8   1 402.028 23.8078   4
   0  -8   0-11.5336 17.2145   4
   0  -8  -1 15.8463 16.4121   4
   0  -8  -2 41.5718 15.9975   4
   0   8   3 82.9002 11.9608   3
   0  -8  -3 105.563 16.3882   4
   0  -8  -4 113.411 18.4909   4
   0  -8  -5 149.962 18.5528   4
   0  -8  -6 40.7350 16.4855   4
   0  -8  -7 2.48694 15.0967   4
   0  -8  -8 86.0234 18.4843   4
   0  -8  -9-4.65002 14.0224   4
   0  -8 -10-4.06937 17.6830   4
   0  -8 -11 43.1192 18.1188   4
   0   9  -9 46.2201 18.4064   5
   0   9  -8 60.4902 17.5106   5
   0  -9   7 59.7927 23.9864   4
   0   9  -7 65.5838 19.2083   5
   0   9  -6 33.3249 19.5818   5
   0  -9   6 6.41134 23.6749   4
   0  -9   5-11.8178 19.8287   4
   0   9  -5-2.08077 20.2431   5
   0   9  -4 64.0287 19.8419   5
   0  -9   4 72.2489 19.5599   4
   0  -9   3 34.4938 19.5072   4
   0   9  -3 49.5369 18.5614   5
   0   9  -2 33.4313 19.0401   5
   0  -9   2 17.3758 17.8993   4
   0  -9   1 98.8057 21.3017   4
   0  -9   0 14.9675 18.7581   4
   0  -9  -1 65.2069 20.6875   4
   0  -9  -2 91.8224 17.9173   4
   0  -9  -3 141.996 19.6346   4
   0  -9  -4 51.3380 16.3739   4
   0  -9  -5 24.5472 15.8238   4
   0  -9  -6 4.07919 16.6646   4
   0  -9  -7 6.07524 14.8994   4
   0  -9  -8 14.9069 15.5779   4
   0  -9  -9 31.2338 17.8930   4
   0  -9 -10 5.79534 12.9301   4
   0  -9 -11 77.1576 16.0067   4
   0  -9 -12-7.99809 14.2048   4
   0  -9 -13-25.6066 19.9875   4
   0  10  -9 177.156 21.4096   5
   0  10  -8 238.505 25.2995   5
   0  10  -7 120.284 20.7525   5
   0  10  -6 59.7095 18.9560   5
   0 -10   6 29.4843 21.6987   4
   0 -10   5-26.9111 24.4401   4
   0  10  -4-2.45275 18.6386   5
   0 -10   4-0.32269 23.3818   4
   0  10  -3 63.2177 21.4236   5
   0 -10   3 86.3989 19.5537   4
   0 -10   2 38.6424 22.9856   4
   0  10  -2 66.8052 20.6268   5
   0 -10   1-4.65230 19.1652   4
   0  10  -1-2.66826 19.3036   5
   0 -10   0-11.7712 18.0555   4
   0 -10  -1-12.5597 17.8876   4
   0 -10  -3-66.8566 15.0395   4
   0 -10  -4 28.3500 15.8789   4
   0 -10  -5 50.6946 17.5837   4
   0 -10  -6-46.9015 16.2532   4
   0 -10  -7 62.8137 14.5358   4
   0 -10  -8 14.7876 15.2573   4
   0 -10  -9 6.54962 17.3822   4
   0 -10 -10-51.1663 13.5126   4
   0 -10 -11 54.3415 16.3913   4
   0  11  -8 206.028 23.4457   5
   0  11  -7 119.359 19.6424   5
   0  11  -6 104.605 21.0521   5
   0 -11   6 47.2744 27.3568   4
   0 -11   5 1.90123 26.4484   4
   0  11  -5 32.9672 21.1146   5
   0 -11   4-13.2548 28.2246   4
   0  11  -3-35.9047 22.2460   5
   0 -11   3-4.35058 22.4609   4
   0 -11   2 33.3649 21.2727   4
   0  11  -2 6.95673 21.1359   5
   0  11  -1 14.0258 19.2218   5
   0 -11   1 48.5000 21.8293   4
   0 -11   0 76.8078 22.0021   4
   0 -11  -1-29.2060 23.4551   4
   0 -11  -4-63.5377 12.6366   4
   0 -11  -5 52.7495 16.7474   4
   0 -11  -6-19.2690 13.9494   4
   0 -11  -7 5.31745 15.1255   4
   0 -11  -8 20.2021 15.3435   4
   0 -11  -9 95.4856 18.9799   4
   0  12  -5 97.9985 28.4378   5
   0 -12   5 49.5020 32.1389   4
   0 -12   4 78.7807 31.3966   4
   0  12  -4-23.7987 24.3153   5
   0 -12   3-36.6653 27.9091   4
   0  12  -3 27.7049 22.6217   5
   0  12  -2 41.6791 21.1877   5
   0 -12   2 8.09781 26.7384   4
   0 -12   1 34.1766 23.2183   4
   0  12  -1 10.2719 22.3544   5
   0 -12   0 60.8148 28.9984   4
   0  12   0-62.0694 20.6648   5
   0 -12  -1 89.9189 23.5855   4
   0 -12  -2 18.8743 23.1826   4
   0 -12  -5 53.8728 19.3793   4
   0 -12  -6 4.31358 20.1337   4
   0 -12  -7 37.1755 19.2611   4
   0 -13   3 156.832 29.8161   4
   0 -13   2 181.347 35.0474   4
   0 -13   1 79.1678 25.9663   4
   0  13   0-47.0109 25.4737   5
   0 -13   0-58.5020 31.0945   4
   0 -13  -2 37.5929 30.2135   4
   1 -13   1 11.3407 26.8571   4
   1 -12  -5 121.337 20.6174   4
   1 -12  -4 12.9073 15.8891   4
   1 -12   0 85.6985 24.8909   4
   1 -12   1 61.5226 29.3062   4
   1 -12   2 92.3363 27.0501   4
   1 -12   3 76.0744 23.3746   4
  -1  12  -4-49.6211 25.9808   5
   1 -11  -7 126.888 18.1211   4
   1 -11  -5 70.6796 15.6015   4
   1 -11  -4 22.1246 16.5808   4
   1 -11  -2-50.3635 23.1397   4
   1 -11   0 1.60304 21.4956   4
   1 -11   1 104.598 24.1554   4
  -1  11  -1 98.6310 22.3468   5
  -1  11  -2 58.4801 21.6970   5
   1 -11   2 74.7681 23.2892   4
   1 -11   3 36.9340 25.0448   4
  -1  11  -3 76.7491 22.5207   5
   1 -11   4-77.0675 25.4589   4
  -1  11  -4 64.3076 22.3211   5
  -1  11  -5 53.9072 22.2566   5
  -1  11  -6 34.7084 22.1177   5
  -1  11  -7 74.5014 16.4897   5
   1 -10 -10-1.27737 17.8556   4
   1 -10  -9 102.551 18.6319   4
   1 -10  -8-35.5032 13.7762   4
   1 -10  -7 22.9853 15.0471   4
   1 -10  -6-41.3555 13.8161   4
   1 -10  -5 48.6215 17.3144   4
   1 -10  -4 24.7300 17.2789   4
   1 -10  -3-4.89366 16.3447   4
   1 -10  -2 19.9887 15.3984   4
   1 -10  -1-36.3323 20.4502   4
   1 -10   1-24.9044 19.4107   4
  -1  10  -2-24.3461 23.0215   5
   1 -10   2-7.32827 19.5499   4
  -1  10  -3-7.77904 23.6600   5
   1 -10   3 58.3939 23.9379   4
   1 -10   4 102.998 25.0036   4
  -1  10  -4 122.851 25.2917   5
  -1  10  -5 61.3860 23.6693   5
  -1  10  -6 56.0799 23.4485   5
  -1  10  -7 59.4764 19.2578   5
  -1  10  -8-17.7703 17.5277   5
  -1  10  -9 71.5013 20.8742   5
   1  -9 -12 24.8049 19.6207   4
   1  -9 -11-37.6912 14.8274   4
   1  -9 -10-52.2823 12.3752   4
   1  -9  -9 39.8427 17.3109   4
   1  -9  -8 44.2329 19.2574   4
   1  -9  -7-31.2752 16.0354   4
   1  -9  -6-23.4054 17.0086   4
   1  -9  -5 66.9788 15.9634   4
   1  -9  -4 21.1141 14.3564   4
   1  -9  -3 8.49734 14.4484   4
  -1   9   3 52.2314 13.8051   3
  -1   9   2 38.9012 15.4289   3
   1  -9  -2-16.4460 16.1967   4
   1  -9  -1-51.4726 15.3799   4
   1  -9   1 143.242 21.1481   4
  -1   9  -2 223.964 23.2476   5
   1  -9   2 240.780 22.5346   4
  -1   9  -3 251.406 24.0234   5
   1  -9   3 252.677 23.3323   4
  -1   9  -4 493.990 29.4362   5
   1  -9   4 575.344 29.6095   4
   1  -9   5 187.717 25.7381   4
  -1   9  -5 205.365 24.3994   5
  -1   9  -6 156.873 26.5461   5
  -1   9  -7 63.3785 20.6597   5
  -1   9  -8 29.2566 20.3912   5
  -1   9  -9 67.3081 22.8757   5
  -1   9 -10 30.7974 22.8928   5
  -1   9 -11 97.3332 20.0520   5
   1  -8 -13-58.6220 18.3647   4
   1  -8 -12 55.2692 15.3180   4
   1  -8 -11 15.5320 18.7332   4
   1  -8 -10-17.1138 18.4697   4
   1  -8  -9 10.8113 16.8189   4
   1  -8  -8 57.1793 18.1814   4
   1  -8  -7-5.78121 13.1285   4
   1  -8  -6 119.912 17.0732   4
   1  -8  -5 132.152 18.1840   4
   1  -8  -4 39.8300 14.7208   4
  -1   8   4 28.8450 12.4579   3
  -1   8   3 20.8670 12.5781   3
   1  -8  -3 5.39131 14.5281   4
  -1   8   2 22.9540 13.5900   3
   1  -8  -2 3.43058 14.8419   4
   1  -8  -1 19.1693 13.5720   4
  -1   8   1 51.3121 14.8317   3
   1  -8   0 109.508 15.8599   4
   1  -8   1 208.069 20.1119   4
  -1   8  -2 61.8731 19.8004   5
   1  -8   2 36.8760 16.7449   4
   1  -8   3 55.2235 18.5384   4
  -1   8  -3 13.6986 17.5781   5
   1  -8   4 0.14165 17.4681   4
  -1   8  -4 27.3011 19.6153   5
  -1   8  -5 39.7873 19.8607   5
   1  -8   5 55.6153 18.3625   4
   1  -8   6 53.5523 20.3891   4
  -1   8  -6 47.8875 21.2587   5
  -1   8  -7 39.8655 17.8762   5
  -1   8  -8 101.990 22.9127   5
  -1   8  -9 130.106 23.9082   5
  -1   8 -10-34.5382 20.5964   5
   1  -7 -13-45.5396 16.4144   4
   1  -7 -12-17.1629 17.3951   4
   1  -7 -11 7.67098 14.9108   4
   1  -7 -10 18.5074 16.8756   4
   1  -7  -9 12.8169 15.5115   4
   1  -7  -8 30.7270 16.3589   4
   1  -7  -7 200.046 19.3516   4
   1  -7  -6 49.1715 16.3507   4
  -1   7   5 42.6640 12.0217   3
   1  -7  -5 3.36726 13.5280   4
  -1   7   4 27.4690 12.6136   3
   1  -7  -4 9.10359 13.2238   4
  -1   7   3 3.87084 11.6380   3
   1  -7  -3 4.63016 13.5810   4
  -1   7   2 9.35540 12.3423   3
   1  -7  -2 14.4032 13.1107   4
  -1   7   1 19.5579 12.8193   3
   1  -7  -1 6.18774 13.4780   4
  -1   7   0 9.67513 12.3709   3
   1  -7   0 8.64093 13.2115   4
   1  -7   2 106.024 16.8667   4
  -1   7  -2 87.3764 18.7769   5
  -1   7  -3 524.929 25.5287   5
   1  -7   3 588.414 23.6580   4
  -1   7  -4 277.017 21.8556   5
   1  -7   4 271.834 19.4928   4
  -1   7  -5 19.7489 17.6156   5
   1  -7   5 8.33187 14.8158   4
  -1   7  -6-21.9652 18.6508   5
   1  -7   6 42.8349 17.7654   4
  -1   7  -7 18.4709 16.4756   5
  -1   7  -8-3.63559 17.7089   5
  -1   7  -9 96.4933 20.4629   5
  -1   7 -10-19.0542 19.8208   5
  -1   7 -11 21.8069 21.6515   5
  -1   7 -12 7.18539 16.9715   5
  -1   7 -13-46.4725 20.0039   5
   1  -6 -14 15.5091 16.0679   4
   1  -6 -13 56.6336 17.4963   4
   1  -6 -12-1.19293 15.3895   4
   1  -6 -11 2.39808 14.3290   4
   1  -6 -10 12.3649 15.9131   4
   1  -6  -9 241.025 21.8890   4
   1  -6  -8 27.8032 15.5518   4
   1  -6  -7 498.198 24.1496   4
  -1   6   7 546.048 20.8717   3
   1  -6  -6 12.3942 14.7119   4
  -1   6   6 8.81984 11.4648   3
   1  -6  -5 19.5587 14.0532   4
  -1   6   5 15.3938 12.5851   3
   1  -6  -4 12.9110 13.7597   4
  -1   6   4 3.78489 10.8776   3
   1  -6  -4-3.01287 10.3169   0
   1  -6  -3 38.7753 12.3194   0
   1  -6  -3 27.4194 13.5867   4
  -1   6   3 14.8513 11.3947   3
  -1   6   2 64.4506 12.5726   3
   1  -6  -2 41.8871 12.8818   4
   1  -6  -1 133.092 14.8759   4
  -1   6   1 132.940 14.4390   3
  -1   6   0 78.6308 13.6755   3
   1  -6   0 68.1424 12.9847   4
   1  -6   1 99.7116 13.5137   4
  -1   6  -2 90.0404 16.8657   5
   1  -6   2 89.3146 13.7369   4
  -1   6  -3 515.803 22.9851   5
   1  -6   3 534.505 20.8704   4
   1  -6   4 0.33774 13.7149   4
  -1   6  -4 8.33182 16.6869   5
  -1   6  -5 185.001 20.0199   5
   1  -6   5 199.090 17.0661   4
  -1   6  -6 21.4569 16.4754   5
   1  -6   6-21.6300 14.5243   4
  -1   6  -7 1.03151 16.9246   5
   1  -6   7-18.8583 15.3686   4
  -1   6  -8 51.1206 18.9795   5
  -1   6  -9 33.9170 19.2212   5
  -1   6 -10 54.0868 18.4753   5
  -1   6 -12-37.4381 15.2717   5
  -1   6 -13 16.7650 14.6625   5
  -1   6 -14 21.1789 19.0495   5
   1  -5 -16-24.5880 21.6393   4
   1  -5 -15 74.8919 19.4574   4
   1  -5 -15 36.3317 25.4194   5
   1  -5 -14 132.810 18.9648   4
   1  -5 -14 28.4532 23.0369   5
   1  -5 -13-7.83943 24.9740   5
   1  -5 -13 95.5961 19.1366   4
   1  -5 -12 63.6743 17.6833   4
   1  -5 -12-14.3644 19.9783   5
   1  -5 -11 1.32465 20.9647   5
   1  -5 -11 104.532 18.1188   4
   1  -5 -10 52.1182 19.3537   5
   1  -5 -10 48.6579 17.0924   4
   1  -5  -9 18.2983 15.4480   4
  -1   5   8 58.1510 13.9078   3
   1  -5  -8 60.0141 16.1900   4
   1  -5  -7 11.0797 14.4728   4
  -1   5   7 22.0320 11.7032   3
   1  -5  -6 287.538 14.0331   0
   1  -5  -6 315.498 19.4672   4
  -1   5   6 331.987 17.1290   3
   1  -5  -5 192.025 16.1120   4
   1  -5  -5 222.929 13.7149   0
  -1   5   5 230.507 14.8564   3
   1  -5  -4 159.637 13.1215   0
   1  -5  -4 144.607 14.6170   4
  -1   5   4 145.305 12.6776   3
   1  -5  -3 163.129 15.2781   4
   1  -5  -3 170.736 13.8029   0
  -1   5   3 162.472 13.3415   3
  -1   5   2 30.0481 11.4217   3
   1  -5  -2 52.7272 12.6898   4
   1  -5  -2 47.2796 10.8154   0
  -1   5   1 10.5694 11.3663   3
   1  -5  -1-8.23324 10.6187   0
   1  -5  -1 8.71962 11.9996   4
  -1   5   0 292.839 15.8262   3
   1  -5   0 296.886 15.7423   4
   1  -5   0 288.179 16.6934   0
  -1   5  -1 122.340 13.2423   3
   1  -5   1 140.680 15.7329   0
   1  -5   1 127.635 12.3223   4
   1  -5   2 5.46563 11.9913   4
  -1   5  -2 7.77350 14.3541   5
   1  -5   3-4.83027 11.2546   0
   1  -5   3 19.6279 11.7368   4
  -1   5  -3 28.2273 13.8633   5
  -1   5  -4 271.198 18.0178   5
   1  -5   4 302.128 16.5081   4
   1  -5   5 218.051 16.3016   4
  -1   5  -5 267.928 19.1922   5
  -1   5  -6 25.9437 14.6748   5
   1  -5   6 7.99580 12.4326   4
  -1   5  -7 77.5929 16.6192   5
   1  -5   7 38.4147 14.0478   4
   1  -5   8 54.8177 14.5476   4
  -1   5  -8 76.4844 18.4341   5
  -1   5  -9 17.0274 17.1991   5
  -1   5 -10 197.687 21.0873   5
  -1   5 -11 121.527 18.1509   5
  -1   5 -12 78.2806 16.4774   5
  -1   5 -13 85.7017 18.1936   5
  -1   5 -14 87.7827 15.5513   5
  -1   5 -15-0.41099 17.4459   5
   1  -4 -16 81.3883 17.1039   4
   1  -4 -15 133.606 17.3966   4
   1  -4 -15 83.0692 28.6766   5
   1  -4 -14 99.9365 18.7351   4
   1  -4 -14 55.2182 24.6748   5
   1  -4 -13 28.2640 21.9956   5
   1  -4 -12 61.8241 23.1503   5
   1  -4 -11 38.7973 21.2754   5
   1  -4 -10 33.6954 20.3167   5
   1  -4  -9 151.536 20.8476   5
  -1   4   9 144.456 16.6620   3
   1  -4  -8 10.1347 17.1693   5
  -1   4   8-8.83364 12.4442   3
   1  -4  -8 19.8805 14.4836   4
   1  -4  -7 541.085 24.5257   5
   1  -4  -7 525.901 21.6235   4
  -1   4   7 504.849 19.3296   3
   1  -4  -6 1.86178 13.1673   4
  -1   4   6-5.05809 11.5422   3
   1  -4  -6 10.6123 8.05908   0
  -1   4   5 38.1124 11.6661   3
   1  -4  -5 44.2991 9.24404   0
   1  -4  -5 54.1682 12.2157   4
  -1   4   4 245.877 13.7434   3
   1  -4  -4 263.434 15.8785   4
   1  -4  -4 246.168 12.9162   0
   1  -4  -3 515.530 18.3344   4
   1  -4  -3 527.493 16.5385   0
  -1   4   3 546.964 16.8702   3
   1  -4  -2 1856.59 28.0187   0
   1  -4  -2 1897.36 28.0739   4
  -1   4   2 1784.56 26.0393   3
  -1   4   1 3035.69 32.8044   3
   1  -4  -1 3115.97 34.0147   4
   1  -4  -1 3081.15 35.9560   0
   1  -4   0 872.782 21.3404   0
   1  -4   0 882.588 19.6963   4
  -1   4   0 896.100 20.2192   3
   1  -4   1 54.9674 10.0144   4
  -1   4  -1 75.2661 12.8477   3
   1  -4   1 84.0935 12.9585   0
   1  -4   2 29.9165 12.9425   0
  -1   4  -2 32.0075 12.6921   5
   1  -4   2 21.7740 10.5837   4
  -1   4  -3 7.91043 12.0646   5
   1  -4   3 4.70457 12.2273   0
   1  -4   3 10.7145 10.0718   4
   1  -4   4 329.763 16.6763   0
  -1   4  -4 332.237 17.0402   5
  -1   4  -4 307.916 16.0297   0
   1  -4   4 348.225 15.0106   4
  -1   4  -5 246.217 16.6857   5
  -1   4  -5 216.819 14.4189   0
   1  -4   5 200.755 13.7953   4
   1  -4   6 51.5934 12.2641   4
  -1   4  -6 68.9732 15.8914   5
  -1   4  -7 17.5445 15.5159   5
   1  -4   7 28.2741 12.3996   4
  -1   4  -8 142.662 18.4310   5
   1  -4   8 154.641 15.4333   4
  -1   4  -9 164.725 19.5360   5
  -1   4 -10 20.5530 16.0670   5
  -1   4 -11 40.4518 16.4000   5
  -1   4 -12 38.5681 15.8914   5
  -1   4 -13 25.6016 16.4087   5
  -1   4 -14 10.7869 15.3996   5
   1  -3 -16 5.41097 18.6064   5
   1  -3 -15-64.3711 26.1074   5
   1  -3 -13-33.2891 23.7788   5
   1  -3 -12-62.7202 21.5126   5
  -1   3  11 25.3695 14.4017   3
   1  -3 -11-21.9853 20.4953   5
   1  -3 -10-18.1297 17.7375   5
  -1   3  10 17.3708 15.0407   3
  -1   3   9-5.24509 13.1220   3
   1  -3  -9 7.73424 17.3588   5
  -1   3   8 103.864 15.0512   3
   1  -3  -8 109.484 17.8211   5
  -1   3   7 306.975 16.3062   3
   1  -3  -7 343.429 20.7369   5
  -1   3   6 2201.15 31.9837   3
   1  -3  -6 2140.57 35.2159   5
   1  -3  -6 2178.53 23.4812   0
  -1   3   6 2110.15 23.1148   1
  -1   3   5 3.30558 10.5058   3
  -1   3   5 12.4154 6.81823   1
   1  -3  -5 4.28351 13.0511   5
   1  -3  -5 19.3876 7.67295   0
   1  -3  -4 17.4624 8.12225   0
   1  -3  -4 7.19083 11.5910   4
  -1   3   4 8.56449 9.95753   3
   1  -3  -3 83.0158 12.2206   4
  -1   3   3 56.3657 10.3421   3
   1  -3  -3 64.1752 9.90287   0
   1  -3  -2 382.568 14.2292   4
   1  -3  -2 388.028 14.2539   0
  -1   3   2 382.400 13.7211   3
   1  -3  -1 81.4424 10.7398   4
  -1   3   1 77.1898 11.3934   3
   1  -3  -1 89.2273 10.8677   0
  -1   3   0 174.816 12.4942   3
   1  -3   0 183.476 11.8677   4
   1  -3   0 159.543 13.2692   0
  -1   3  -1 230.661 13.0789   3
   1  -3   1 219.013 13.7631   4
   1  -3   1 219.769 13.6796   0
   1  -3   2 44.6929 9.30827   4
  -1   3  -2 32.9339 12.1919   5
   1  -3   2 47.6848 12.5256   0
   1  -3   3 45.6429 9.47331   4
   1  -3   3 46.8000 11.1478   0
  -1   3  -3 36.9006 11.0574   5
   1  -3   4 3.12293 9.45903   4
   1  -3   4 7.38976 10.0882   0
  -1   3  -4-0.67877 10.6794   5
  -1   3  -5 11.5375 13.3162   5
   1  -3   5-10.5243 10.0703   0
   1  -3   5 6.39381 9.28672   4
   1  -3   6 60.3319 10.9416   4
  -1   3  -6 62.0770 13.8572   5
  -1   3  -7 10.6387 14.5504   5
   1  -3   7 27.6601 11.4046   4
  -1   3  -8-0.77533 14.4752   5
   1  -3   8 9.42917 11.3496   4
  -1   3  -9 43.8127 15.2953   5
  -1   3 -10 64.0879 16.4960   5
  -1   3 -11 148.303 18.2294   5
  -1   3 -12 26.4313 16.0161   5
  -1   3 -13 78.0018 16.8960   5
  -1   3 -14-64.3788 14.0317   5
  -1   3 -15-3.30625 17.9848   5
  -1   3 -16 156.299 18.8658   5
   1  -2 -14 117.814 25.5141   5
   1  -2 -13 96.7899 19.5641   5
  -1   2  12 59.0522 18.4986   3
   1  -2 -12 58.9109 20.6002   5
   1  -2 -11 14.9859 17.9683   5
  -1   2  11 35.3554 16.0881   3
  -1   2  10 77.6688 15.2109   3
   1  -2 -10 97.8099 17.8651   5
  -1   2   9 96.7343 15.8578   3
   1  -2  -9 122.007 18.0483   5
  -1   2   8 56.1014 13.5763   3
   1  -2  -8 75.4267 16.1970   5
  -1   2   7 612.016 19.9767   3
  -1   2   7 557.224 11.2448   2
   1  -2  -7 585.086 23.0214   5
   1  -2  -6 2479.26 35.5061   5
  -1   2   6 2507.11 32.8933   3
  -1   2   5 1054.06 21.4901   3
   1  -2  -5 1112.16 23.8733   5
  -1   2   5 1086.36 15.5834   1
   1  -2  -4 12.1571 12.2667   5
  -1   2   4 17.7521 7.04679   1
  -1   2   4 13.1615 9.98612   3
   1  -2  -3 120.297 11.6631   5
  -1   2   3 119.775 12.2150   3
  -1   2   2 6.23702 10.9239   3
   1  -2  -1 2186.89 22.3795   4
  -1   2   1 2187.94 23.2222   3
   1  -2   0 29428.5 279.348   4
  -1   2   0 29123.0 76.9496   3
  -1   2  -1 3864.57 30.1429   3
   1  -2   1 3754.01 25.6246   4
   1  -2   1 3776.42 31.3755   0
  -1   2  -2 371.532 13.6025   3
   1  -2   2 373.429 10.3993   4
   1  -2   2 354.282 14.1022   0
  -1   2  -2 364.114 14.3484   5
   1  -2   3 141.904 9.29632   4
   1  -2   3 145.450 11.8590   0
  -1   2  -3 135.913 11.1174   5
   1  -2   4 51.4621 9.76711   0
   1  -2   4 50.3253 8.58648   4
  -1   2  -4 40.0703 12.2914   5
   1  -2   5-9.43818 8.74953   0
  -1   2  -5 7.89452 10.5876   5
   1  -2   5 4.32954 8.46759   4
   1  -2   6 153.005 11.2163   4
  -1   2  -6 143.935 14.0728   5
  -1   2  -7 3.02412 12.9118   5
  -1   2  -8 27.1185 14.9195   5
  -1   2  -9 10.6046 15.3397   5
  -1   2 -10 14.8307 16.1047   5
  -1   2 -11-10.8712 14.7355   5
  -1   2 -12 461.272 25.8810   5
  -1   2 -13 74.7695 18.5045   5
  -1   2 -14-0.92762 19.3455   5
  -1   2 -16-28.9998 18.1373   5
   1  -1 -16 69.6783 21.3148   5
   1  -1 -15 333.298 27.7570   5
   1  -1 -14 121.356 23.0988   5
  -1   1  13-44.1498 17.1672   3
   1  -1 -13-4.81458 18.1730   5
   1  -1 -12 59.0101 19.5525   5
  -1   1  12 49.2880 18.6401   3
   1  -1 -11 43.2732 18.9499   5
  -1   1  11 8.68709 15.9774   3
  -1   1  10 29.4463 14.5736   3
   1  -1 -10 61.4655 17.6006   5
  -1   1   9 44.7197 14.6363   3
   1  -1  -9 103.858 17.2353   5
  -1   1   8 3.09055 12.9833   3
   1  -1  -8 30.9521 14.8497   5
   1  -1  -7 33.5144 13.6380   5
  -1   1   7 7.31193 11.7590   3
   1  -1  -6 1675.05 29.0062   5
   1  -1  -6 1672.04 16.9543   1
  -1   1   6 1703.42 27.7677   3
  -1   1   6 1707.18 17.3022   2
   1  -1  -5 686.917 11.7410   1
  -1   1   5 675.935 11.7816   2
  -1   1   5 668.911 18.5524   3
   1  -1  -5 709.564 19.6393   5
   1  -1  -4 15.8676 11.1975   5
  -1   1   4 14.7168 10.2366   3
   1  -1  -4 25.5369 6.27082   1
  -1   1   3 58.1953 7.39816   1
   1  -1  -3 45.5310 9.94148   5
  -1   1   3 57.5284 11.3103   3
  -1   1   2 83.7696 9.31719   1
  -1   1   2 98.0760 10.6253   3
   1  -1  -2 84.2262 9.75749   5
  -1   1   1 543.165 12.2872   1
  -1   1   1 441.727 13.2113   3
  -1   1   0 10373.3 39.3357   3
  -1   1  -1 9114.80 37.4696   3
  -1   1  -2 501.995 11.6585   3
  -1   1  -2 485.420 12.4954   5
  -1   1  -3 2987.81 26.7257   5
   1  -1   3 2984.14 23.7926   0
  -1   1  -4 300.508 13.3882   5
   1  -1   4 331.661 10.5417   0
   1  -1   4 323.812 9.69506   4
   1  -1   5 0.64084 7.43885   0
  -1   1  -5-3.33508 11.8517   5
  -1   1  -6 76.6900 13.5389   5
  -1   1  -7 433.213 18.5938   5
  -1   1  -7 378.691 13.8646   7
  -1   1  -8 13.6771 13.3259   5
  -1   1  -8 23.5889 9.92815   7
  -1   1  -9 4.00789 14.3234   5
  -1   1  -9 12.2929 9.69637   7
  -1   1 -10-8.06069 15.6787   5
  -1   1 -11 1.69023 16.3229   5
  -1   1 -12 35.2855 16.6348   5
  -1   1 -13-11.6820 17.5287   5
   1  -1  14-61.9237 15.7808   3
  -1   1 -14 15.8077 20.0939   5
  -1   1 -16 23.4134 18.7266   5
   1   0 -16 171.623 24.5827   5
  -1   0  15-9.23192 22.2038   3
   1   0 -15 131.919 22.2882   5
  -1   0  14 23.7401 16.9954   3
   1   0 -14 23.2776 18.2594   5
   1   0 -13 11.0513 16.6404   5
  -1   0  13 23.5427 20.1769   3
  -1   0  12-56.0267 16.0904   3
   1   0 -11 184.310 20.6223   5
  -1   0  11 190.633 19.6911   3
  -1   0  10 7.52293 15.9006   3
   1   0 -10 4.07186 15.6503   5
   1   0  -9-11.5856 14.6276   5
  -1   0   9-4.95282 14.6690   3
   1   0  -8-14.1535 13.5967   5
  -1   0   8-7.76820 12.5367   3
  -1   0   7 225.737 16.1056   3
   1   0  -7 225.625 16.2808   5
   1   0  -7 196.902 9.57635   7
  -1   0   6 2077.17 30.7220   3
   1   0  -6 2087.05 31.7320   5
  -1   0   5 5240.49 43.1040   3
   1   0  -5 5276.93 43.5021   5
   1   0  -4 3609.06 32.7356   5
  -1   0   4 3527.04 32.9792   3
  -1   0   4 3616.91 24.3855   2
  -1   0   3 3951.49 24.3244   2
   1   0  -3 3954.27 30.3524   5
  -1   0   3 3941.81 32.1093   3
   1   0  -2 145.954 9.53742   5
  -1   0   2 143.696 8.19575   2
  -1   0   2 137.248 11.8331   3
  -1   0   1 601.291 11.8354   3
   1   0   0 23.5024 6.31466   1
  -1   0  -1 116.290 7.42176   1
   1   0   1 116.364 6.79792   1
  -1   0  -2 98.1196 7.10602   5
  -1   0  -2 94.4882 6.79270   1
  -1   0  -2 101.199 7.25939   7
  -1   0  -3 215.005 10.0565   7
  -1   0  -3 225.654 11.2413   5
  -1   0  -4 160.734 10.4308   7
  -1   0  -4 193.320 12.9211   5
   1   0   5 4.46949 4.94774   0
  -1   0  -5 6.99265 9.31436   7
  -1   0  -5 1.22516 10.5691   5
  -1   0  -6 36.7214 9.95189   7
  -1   0  -6 26.2830 11.1829   5
  -1   0  -7 192.492 12.7405   7
  -1   0  -7 168.144 15.0620   5
  -1   0  -8 214.931 13.3786   7
  -1   0  -8 184.193 15.0903   5
  -1   0  -9 51.6518 13.0609   7
  -1   0  -9 68.8455 15.2746   5
  -1   0 -10 6.98037 10.8289   7
  -1   0 -10 8.89818 16.0415   5
  -1   0 -11-5.15583 17.0746   5
   1   0  12-12.8578 14.2063   3
  -1   0 -12 7.81653 17.4471   5
   1   0  13 112.035 17.8544   3
  -1   0 -13 70.9755 20.1569   5
  -1   0 -14-33.6726 20.1386   5
  -1   0 -15-45.7126 20.9176   5
  -1   0 -16 9.41063 18.4130   5
  -1  -1  16 127.055 26.4384   3
   1   1 -16 83.9460 20.5064   5
  -1  -1  14 100.871 20.8532   3
   1   1 -14 12.5017 18.9969   5
  -1  -1  13-20.7909 20.6235   3
   1   1 -12 0.45290 16.7164   5
  -1  -1  12 17.3773 19.6215   3
   1   1 -11 31.9362 16.2131   5
  -1  -1  11 48.3449 17.1582   3
   1   1 -10 40.3226 15.6025   5
  -1  -1  10 42.8689 16.7507   3
  -1  -1   9 3.35820 14.2184   3
   1   1  -9-13.2221 15.1932   5
   1   1  -8 23.7291 13.2069   5
  -1  -1   8-2.59786 14.5395   3
  -1  -1   7 9.73654 13.0039   3
   1   1  -7-1.22039 7.22812   2
   1   1  -7 8.23042 5.35657   7
   1   1  -7-11.2948 12.4485   5
   1   1  -6 411.361 16.9882   5
  -1  -1   6 404.994 17.8133   3
   1   1  -6 379.578 8.35478   7
   1   1  -6 378.790 11.8171   2
   1   1  -5 2719.24 25.3556   2
  -1  -1   5 2754.14 33.2751   3
   1   1  -5 2664.90 31.4574   5
   1   1  -4 8095.29 47.6344   5
   1   1  -4 8349.71 41.2134   2
   1   1  -3 15291.0 53.4576   2
   1   1  -3 15435.9 56.1050   5
   1   1  -2 13321.1 47.2088   2
   1   1  -2 13313.6 43.6393   5
  -1  -1   2 13256.5 50.9782   3
  -1  -1   2 13343.5 54.1535   4
   1   1  -1 2237.54 19.9146   2
  -1  -1   1 2317.08 19.4944   3
  -1  -1   1 2285.07 21.3113   4
  -1  -1   0 2029.68 17.3947   2
   1   1   0 1981.71 17.4798   2
   1   1   1 5277.98 24.5117   2
  -1  -1  -1 5289.70 26.5277   6
  -1  -1  -1 5206.22 24.6386   2
  -1  -1  -2 1595.53 13.5065   2
  -1  -1  -2 1637.75 17.9956   7
  -1  -1  -2 1684.65 17.4567   6
   1   1   2 1649.50 13.4906   2
  -1  -1  -2 1674.30 17.2340   8
  -1  -1  -3 17.4092 5.07276   2
  -1  -1  -3 9.97415 10.1473   7
  -1  -1  -3 12.3274 9.65377   5
  -1  -1  -3 15.7390 7.87902   8
  -1  -1  -3 15.2945 5.78704   4
  -1  -1  -4 94.6369 12.0672   5
  -1  -1  -4 90.9579 11.5218   7
  -1  -1  -5 66.9193 11.5244   5
  -1  -1  -5 98.8269 10.8520   7
  -1  -1  -6-3.30173 10.2622   7
  -1  -1  -6-3.87556 11.0643   5
  -1  -1  -7 150.433 12.5704   7
  -1  -1  -7 106.206 14.7837   5
  -1  -1  -8 222.128 13.9663   7
  -1  -1  -8 217.468 17.5644   5
   1   1   9 246.043 14.6985   3
  -1  -1  -9 247.424 14.8635   7
  -1  -1  -9 237.577 17.1110   5
  -1  -1 -10 184.547 20.0827   5
  -1  -1 -10 185.196 14.8472   7
   1   1  10 183.931 15.1936   3
  -1  -1 -11 11.7604 17.2210   5
   1   1  11 61.0083 13.5869   3
  -1  -1 -11 51.0909 12.5497   7
  -1  -1 -12 5.57637 17.3088   5
   1   1  12 4.24974 13.9271   3
  -1  -1 -13-52.3037 19.2847   5
  -1  -1 -15 19.7985 19.1084   5
  -1  -1 -16 29.6273 22.2241   5
  -1  -1 -17 190.304 29.4951   5
   1   2 -16 62.4655 19.3370   5
  -1  -2  16 181.657 23.8376   3
   1   2 -14-67.4637 17.6645   5
  -1  -2  14 58.5669 18.0980   3
  -1  -2  13-24.4014 18.2080   3
   1   2 -13-13.0077 18.1523   5
  -1  -2  12 17.2322 17.7440   3
  -1  -2  11-3.75689 16.1688   3
   1   2 -11 49.6224 14.6316   5
  -1  -2  10 1161.62 32.8775   3
   1   2 -10 1196.30 31.6945   5
   1   2  -9 30.7338 13.6673   5
   1   2  -8 21.1865 13.9904   5
   1   2  -7 77.0901 13.4445   5
   1   2  -6 161.506 13.4728   5
   1   2  -5 9.47258 10.7777   5
   1   2  -4 1434.19 22.8079   5
  -1  -2   4 1447.29 25.7236   4
   1   2  -3 2747.32 26.9148   5
  -1  -2   3 2761.04 31.3864   4
  -1  -2   2 8081.11 46.8567   4
   1   2  -2 8058.89 38.9527   5
   1   2  -1 6052.34 29.3289   5
  -1  -2   1 6034.35 37.2602   4
  -1  -2   0 2154.91 22.2211   4
  -1  -2   0 2151.53 19.5655   6
  -1  -2  -1 7691.52 35.6948   4
  -1  -2  -1 7661.44 35.0654   6
  -1  -2  -2 35874.1 300.876   4
  -1  -2  -2 36013.7 297.525   5
  -1  -2  -3 904.199 16.0123   5
  -1  -2  -3 882.051 14.4749   8
  -1  -2  -3 867.793 14.9355   4
  -1  -2  -4 5.59042 7.45247   4
  -1  -2  -4 9.40601 7.77718   8
  -1  -2  -4 10.9007 11.1321   5
   1   2   5 6.87464 3.40071   2
   1   2   5 1.66216 6.16485   3
  -1  -2  -5 16.0268 8.12175   4
  -1  -2  -5 5.22783 11.5926   5
  -1  -2  -5 9.44132 8.15554   8
   1   2   6 8.22124 7.43960   3
  -1  -2  -6 11.5106 8.43368   8
  -1  -2  -6 11.5134 11.5823   5
  -1  -2  -7 376.853 13.3007   8
   1   2   7 338.808 12.2743   3
  -1  -2  -7 377.882 16.3140   7
  -1  -2  -7 369.999 18.1045   5
  -1  -2  -8 4296.39 44.5595   7
  -1  -2  -8 4232.56 48.9677   5
   1   2   8 4315.97 37.7010   3
  -1  -2  -9-6.00674 11.1811   7
  -1  -2  -9 6.14723 15.3690   5
   1   2   9-2.71217 9.91704   3
  -1  -2 -10 165.516 15.2965   7
   1   2  10 195.408 14.5829   3
  -1  -2 -10 167.300 19.0868   5
  -1  -2 -11 80.4000 14.1533   7
  -1  -2 -11 86.8730 18.7170   5
  -1  -2 -12 58.0086 19.5264   5
  -1  -2 -13 60.9059 21.1649   5
  -1  -2 -14 53.9883 20.1873   5
  -1  -2 -15-7.53036 20.4078   5
  -1  -2 -16 127.010 24.3304   5
  -1  -2 -17 243.685 28.1687   5
  -1  -3  16 158.642 32.3262   3
  -1  -3  14 55.0582 23.7335   3
  -1  -3  13-26.7477 17.5721   3
   1   3 -13 57.5701 14.0389   5
   1   3 -12-27.5530 16.2513   5
  -1  -3  12 11.3934 16.9959   3
   1   3 -11 2.03161 14.4341   5
   1   3 -10 206.133 18.3234   5
   1   3  -9 13.6696 14.2413   5
   1   3  -8 14.5054 12.0632   5
   1   3  -7 41.2732 13.4560   5
   1   3  -6 10.1757 11.3335   5
  -1  -3   6 11.8534 12.8579   4
   1   3  -5 104.344 12.6840   5
  -1  -3   5 103.078 15.4785   4
   1   3  -4 294.715 14.8030   5
  -1  -3   4 267.341 16.3738   4
  -1  -3   3 101.606 12.7320   4
   1   3  -3 92.3500 11.0673   5
   1   3  -2 32.5299 10.1110   5
  -1  -3   2 27.4178 11.7885   4
   1   3  -1 535.942 13.8064   5
  -1  -3   1 498.182 16.2163   4
  -1  -3   0 32.1064 12.1580   4
  -1  -3   0 36.1962 8.42947   6
  -1  -3  -1 49.7262 9.03873   6
  -1  -3  -1 42.8035 10.0558   4
  -1  -3  -2 131.310 11.9207   4
  -1  -3  -3 15.7457 8.49000   4
  -1  -3  -4 109.691 11.7547   5
  -1  -3  -4 121.088 10.8967   4
  -1  -3  -5 63.1922 9.37115   4
  -1  -3  -5 78.3545 7.63359   8
  -1  -3  -5 72.5766 11.9569   5
   1   3   5 64.6914 6.12605   3
   1   3   5 72.5435 6.52963   0
  -1  -3  -6 16.8286 6.96610   8
  -1  -3  -6 8.48021 9.48311   4
  -1  -3  -6 18.4305 12.0482   5
   1   3   6 21.2505 4.62930   0
   1   3   6 14.1959 6.78888   3
   1   3   7-1.40863 7.20410   3
   1   3   7 1.32841 2.99162   2
  -1  -3  -7 12.6824 9.86729   4
  -1  -3  -7 8.94257 14.0921   5
  -1  -3  -7 7.29277 7.63203   8
  -1  -3  -8 435.423 16.7166   4
  -1  -3  -8 462.768 21.5964   5
  -1  -3  -8 466.059 14.2268   8
   1   3   8 438.856 14.0720   3
  -1  -3  -9 24.4481 11.2202   4
  -1  -3  -9 37.8069 15.1101   5
  -1  -3  -9-0.30808 12.7341   7
  -1  -3 -10 102.570 15.3186   7
  -1  -3 -10 164.260 14.2696   4
  -1  -3 -10 102.829 18.3552   5
  -1  -3 -11 76.9054 18.2690   5
  -1  -3 -11 27.6952 14.4100   7
  -1  -3 -12 6.27920 13.7792   7
  -1  -3 -12-16.9918 19.3142   5
  -1  -3 -13 3.25222 19.1634   5
  -1  -3 -13 2.00482 12.6510   4
  -1  -3 -14 12.8747 18.3001   5
  -1  -3 -15 120.341 23.6377   5
  -1  -3 -16 182.890 27.1539   5
  -1  -3 -17 6.05731 29.6749   5
  -1  -4  15-59.9368 27.2722   3
   1   4 -14-60.1048 17.2874   5
  -1  -4  14 129.989 26.4135   3
   1   4 -13 51.5175 14.6388   5
   1   4 -12 33.5494 13.9908   5
   1   4 -11-64.9465 11.7939   5
   1   4 -10-34.5822 15.2091   5
   1   4  -9-2.62353 14.3357   5
   1   4  -8 89.1203 12.3755   0
   1   4  -8 125.115 16.2174   5
  -1  -4   8 176.175 19.2317   4
   1   4  -7 5.76036 9.63362   0
   1   4  -7-4.48440 13.4120   5
  -1  -4   7 10.6780 15.1711   4
   1   4  -6 30.3128 12.7867   5
  -1  -4   6 19.0763 15.4001   4
   1   4  -5 17.9604 12.2619   5
  -1  -4   5 18.1452 13.2666   4
   1   4  -4 330.334 16.2976   5
  -1  -4   4 348.617 18.5405   4
  -1  -4   3 162.091 15.7399   4
   1   4  -3 158.639 13.5263   5
   1   4  -2 878.559 19.0626   5
  -1  -4   2 869.790 22.5490   4
  -1  -4   1 3.63601 12.1106   4
   1   4  -1 17.2559 10.9430   5
  -1  -4   1 4.15361 7.67186   6
  -1  -4   0 28.0331 13.1107   4
  -1  -4   0 21.0076 7.31361   6
  -1  -4  -1 195.905 10.0281   6
  -1  -4  -1 185.836 12.5003   4
  -1  -4  -2 228.242 13.5177   4
  -1  -4  -3 68.3414 11.3087   4
   1   4   3 76.5890 6.20643   3
  -1  -4  -4 229.841 13.4371   4
   1   4   4 241.890 7.91042   3
   1   4   4 216.986 11.1385   0
  -1  -4  -5 344.426 17.0140   5
   1   4   5 351.966 11.9945   0
  -1  -4  -5 340.360 15.3965   4
   1   4   5 373.544 9.44477   3
   1   4   6 101.044 7.77655   0
  -1  -4  -6 112.480 11.9476   4
   1   4   6 104.000 7.62150   3
  -1  -4  -6 105.586 15.2813   5
  -1  -4  -7 29.5968 11.2955   4
  -1  -4  -7 18.5616 14.1528   5
   1   4   7 19.7425 7.49905   3
  -1  -4  -8-4.93758 11.5262   4
  -1  -4  -8 19.4013 16.2054   5
  -1  -4  -9 379.400 21.9913   5
  -1  -4  -9 381.973 18.2579   4
  -1  -4 -10-3.49895 12.7229   4
  -1  -4 -10-9.09186 18.2353   5
  -1  -4 -11 76.7819 15.0693   7
  -1  -4 -11 98.2172 14.8959   4
  -1  -4 -11 105.167 21.0213   5
  -1  -4 -12 43.7974 22.4447   5
  -1  -4 -12 16.7641 14.3091   7
  -1  -4 -12 30.1692 13.2904   4
  -1  -4 -13-19.0273 15.3973   7
  -1  -4 -13 8.05895 12.8938   4
  -1  -4 -13 24.1431 22.8521   5
  -1  -4 -14 12.2938 24.8310   5
  -1  -4 -15 63.0965 25.1157   5
  -1  -4 -16-57.5466 28.5626   5
  -1  -5  14-55.7744 24.4711   3
   1   5 -14-10.4416 18.7940   5
   1   5 -13 245.730 16.4546   5
   1   5 -12 63.1367 14.8247   5
   1   5 -11-8.97763 12.4106   5
   1   5 -10-6.25957 14.4015   5
  -1  -5   9 271.136 22.3078   4
   1   5  -9 255.914 19.5451   5
   1   5  -8 191.166 19.0945   5
  -1  -5   8 206.138 20.0903   4
  -1  -5   7 39.9267 16.3091   4
   1   5  -7 50.8813 14.7653   5
  -1  -5   6 49.9478 16.7196   4
   1   5  -6 42.0955 14.5370   5
  -1  -5   5 183.422 18.7427   4
   1   5  -5 148.197 15.2147   0
   1   5  -5 182.718 15.8114   5
   1   5  -4 316.061 16.8056   5
  -1  -5   4 256.303 18.0181   4
   1   5  -3 873.322 22.3910   5
  -1  -5   3 844.084 24.6731   4
  -1  -5   2 1368.19 27.9607   4
   1   5  -2 1346.74 25.2609   5
  -1  -5   2 1309.07 19.0933   6
  -1  -5   1 1.76395 6.78594   6
  -1  -5   1 2.35016 12.9966   4
  -1  -5   0 123.315 8.81082   6
  -1  -5   0 117.653 15.5205   4
  -1  -5  -1 140.130 13.4799   4
  -1  -5  -1 164.013 9.55454   6
  -1  -5  -2 4.73825 11.9719   4
   1   5   2-7.92134 11.6382   0
   1   5   3 55.4835 7.32953   3
   1   5   3 38.2645 10.3561   0
  -1  -5  -3 51.6659 11.7638   4
   1   5   4 48.6328 7.20647   3
   1   5   4 45.1556 10.5163   0
  -1  -5  -4 35.6182 12.2650   4
   1   5   5 72.1107 10.0672   0
   1   5   5 85.6140 7.00763   3
  -1  -5  -5 84.6384 12.9487   4
  -1  -5  -6 20.9720 12.4098   4
   1   5   6 28.9660 7.89524   0
  -1  -5  -7 19.7826 12.5320   4
  -1  -5  -7 11.3161 15.7917   5
  -1  -5  -8 58.6349 13.0875   4
  -1  -5  -8 42.0163 16.7240   5
  -1  -5  -9 53.7541 19.0619   5
  -1  -5  -9 30.4359 11.9174   4
  -1  -5 -10 199.473 21.6119   5
  -1  -5 -10 198.852 17.0476   4
  -1  -5 -11 60.5947 14.0359   4
  -1  -5 -11 50.6117 20.8641   5
  -1  -5 -12 38.0869 14.9525   4
  -1  -5 -12 58.2705 21.3223   5
  -1  -5 -13 40.5056 14.7998   7
  -1  -5 -13 46.4672 23.0878   5
  -1  -5 -13 42.7614 13.1415   4
  -1  -5 -14-7.37238 21.3189   5
  -1  -5 -14-37.5808 11.5204   4
  -1  -5 -15-44.6892 23.5061   5
  -1  -5 -16 11.4367 29.5165   5
   1   6 -14 183.079 20.7523   5
   1   6 -13 35.2904 16.4100   5
   1   6 -12 10.6341 14.2058   5
   1   6 -11-40.6333 15.6236   5
  -1  -6  10 0.69327 19.5066   4
   1   6 -10-52.8838 12.7130   5
   1   6  -9-11.7206 16.1758   5
  -1  -6   9 12.7074 19.3675   4
   1   6  -8 480.982 24.8788   5
  -1  -6   8 424.590 25.6143   4
   1   6  -7 18.3305 14.5591   5
  -1  -6   7 16.0932 18.3469   4
  -1  -6   6 19.3608 16.7023   4
   1   6  -6 26.3194 14.9772   5
   1   6  -5 148.936 15.4007   5
  -1  -6   5 168.774 19.5323   4
   1   6  -4 351.402 19.4947   5
  -1  -6   4 313.467 21.9144   4
  -1  -6   3 19.1711 15.1199   4
   1   6  -3-2.68665 13.6975   5
   1   6  -2 2358.58 35.4915   5
  -1  -6   2 2219.21 24.8962   6
  -1  -6   2 2342.31 38.6421   4
  -1  -6   1 175.960 9.13929   6
  -1  -6   1 190.603 17.1818   4
  -1  -6   0 78.6612 16.3058   4
  -1  -6   0 71.8734 7.93304   6
   1   6   0 43.5462 13.3230   0
  -1  -6  -1 189.876 16.9090   4
   1   6   1 162.287 16.2150   0
  -1  -6  -2 220.467 16.0982   4
   1   6   2 243.192 14.4406   0
  -1  -6  -3 128.847 15.5977   4
   1   6   3 101.649 12.3331   0
   1   6   4 146.035 9.34313   3
   1   6   4 145.488 11.9015   0
  -1  -6  -4 126.964 15.3843   4
   1   6   5 73.1270 10.9932   0
  -1  -6  -5 67.3829 13.1254   4
  -1  -6  -6 37.2437 12.9686   4
   1   6   6 38.3001 9.29215   0
  -1  -6  -7 82.0545 14.0082   4
  -1  -6  -8 113.003 16.1021   4
  -1  -6  -9 39.2978 14.1172   4
  -1  -6 -10 119.559 21.8178   5
  -1  -6 -10 108.492 17.5662   4
  -1  -6 -11 27.2591 14.5036   4
  -1  -6 -11 36.8514 19.5680   5
  -1  -6 -12 17.4141 16.0972   4
  -1  -6 -12 2.11765 20.9252   5
  -1  -6 -13 53.3602 14.8960   4
  -1  -6 -13 22.9323 19.8136   5
  -1  -6 -14 68.1996 16.3778   4
  -1  -6 -14 91.5264 17.9394   7
  -1  -6 -14 103.128 28.5849   5
  -1  -6 -15 152.253 30.8847   5
   1   7 -11-49.3939 15.7433   5
  -1  -7  10 56.6340 20.9729   4
  -1  -7   9 58.4981 23.6323   4
  -1  -7   8-15.1064 20.1741   4
  -1  -7   7 103.673 21.2064   4
   1   7  -7 176.785 19.2883   5
  -1  -7   6 77.4722 20.4217   4
   1   7  -6 91.6378 16.5118   5
  -1  -7   5-4.95404 17.1040   4
   1   7  -5 65.2443 16.8321   5
   1   7  -4 69.4771 16.2980   5
  -1  -7   4 104.147 18.7764   4
   1   7  -3 305.679 19.6847   5
  -1  -7   3 251.059 21.4991   4
   1   7  -2 733.820 24.5515   5
  -1  -7   2 756.083 27.5615   4
  -1  -7   1 994.630 29.0295   4
  -1  -7   0 273.677 20.8612   4
  -1  -7  -1-27.3400 16.5540   4
  -1  -7  -2 80.9999 16.7264   4
  -1  -7  -3 94.3963 16.5881   4
  -1  -7  -4 54.6291 14.3872   4
  -1  -7  -5 20.1245 13.8006   4
   1   7   5 50.0417 10.7651   0
  -1  -7  -6 31.9490 14.0602   4
  -1  -7  -7 71.4121 16.7225   4
  -1  -7  -8 105.284 15.6634   4
  -1  -7  -9 52.3239 14.4223   4
  -1  -7 -10 460.158 24.4108   4
  -1  -7 -11 77.7317 16.1531   4
  -1  -7 -12-11.6226 13.6506   4
  -1  -7 -14 13.0932 13.4224   4
   1   8 -12 195.109 19.7146   5
   1   8 -11 100.977 16.2263   5
   1   8 -10 69.5093 17.6151   5
  -1  -8   9 17.9640 21.3510   4
   1   8  -9 2.80629 16.2566   5
   1   8  -8 7.40620 16.6209   5
  -1  -8   8 38.7028 20.9938   4
   1   8  -7-11.3469 15.9862   5
  -1  -8   7-20.9246 19.7640   4
  -1  -8   6 6.66977 18.8025   4
   1   8  -6 24.5128 15.2679   5
  -1  -8   5 43.9343 19.0478   4
   1   8  -5-33.3935 12.0832   5
  -1  -8   4-0.78213 17.6804   4
   1   8  -4 19.6124 16.4408   5
   1   8  -3 17.8080 15.3013   5
  -1  -8   3 26.0644 19.1950   4
  -1  -8   2 80.6386 19.4208   4
   1   8  -2 65.9886 17.5334   5
  -1  -8   1 182.834 20.7295   4
   1   8  -1 213.600 18.9383   5
  -1  -8   0 147.506 19.9798   4
  -1  -8  -1 6.43602 17.5037   4
  -1  -8  -2-14.4172 17.8180   4
  -1  -8  -3 12.2899 15.5363   4
  -1  -8  -4 51.6119 16.6439   4
  -1  -8  -5 211.972 18.6379   4
  -1  -8  -6 165.785 20.1505   4
  -1  -8  -7 56.3795 16.1557   4
  -1  -8  -8 67.6380 17.1745   4
  -1  -8  -9 85.0494 18.1969   4
  -1  -8 -10 107.212 18.6415   4
  -1  -8 -11 30.4609 16.5462   4
  -1  -8 -12-33.2342 13.6087   4
  -1  -8 -14-58.5869 14.7323   4
  -1  -8 -15-44.6525 19.3233   7
  -1  -8 -15 47.3905 19.0508   4
   1   9  -8 44.1962 19.2547   5
   1   9  -7 97.8609 18.3993   5
  -1  -9   7-8.28589 23.6854   4
   1   9  -6-2.32570 16.7457   5
  -1  -9   6 30.6549 21.8335   4
  -1  -9   5-9.39649 19.6969   4
   1   9  -5-24.3880 16.9164   5
   1   9  -4 25.2738 17.6682   5
  -1  -9   4-7.47645 20.7687   4
  -1  -9   3 53.7112 20.8402   4
   1   9  -3 22.6479 18.5112   5
  -1  -9   2 277.285 24.7785   4
   1   9  -2 214.745 18.8083   5
  -1  -9   1 9.76371 18.2526   4
   1   9  -1 31.0138 17.6066   5
  -1  -9   0-4.88160 20.3069   4
  -1  -9  -1 226.243 22.6616   4
  -1  -9  -2 1.60472 18.1096   4
  -1  -9  -3 20.9732 17.1877   4
  -1  -9  -4 123.609 18.6049   4
  -1  -9  -5 62.0933 15.6666   4
  -1  -9  -6 61.4030 17.3142   4
  -1  -9  -7 174.615 20.7376   4
  -1  -9  -8 58.6720 16.7606   4
  -1  -9  -9 27.7024 17.0499   4
  -1  -9 -10 5.95525 14.9361   4
  -1  -9 -11 47.0631 17.8180   4
  -1  -9 -12-48.1102 16.4770   4
  -1  -9 -14-39.2330 16.3108   4
   1  10  -9-7.61832 20.4571   5
  -1 -10   8 78.9959 25.7597   4
   1  10  -8 247.721 25.4695   5
  -1 -10   7 86.0505 26.9774   4
   1  10  -7 158.499 20.7854   5
  -1 -10   6 51.6933 23.4526   4
   1  10  -6 9.11822 16.0289   5
   1  10  -5-20.0226 20.0104   5
  -1 -10   5-25.9378 24.7649   4
  -1 -10   4-47.5974 19.7185   4
   1  10  -4 47.9145 20.3921   5
   1  10  -3 20.0503 17.9398   5
  -1 -10   3-10.3698 21.8265   4
  -1 -10   2 63.3002 22.8973   4
   1  10  -2 2.67766 18.2353   5
  -1 -10   1 67.3292 21.6857   4
   1  10  -1 48.9965 18.7123   5
  -1 -10   0 32.8008 19.9964   4
  -1 -10  -1 52.0194 20.2298   4
  -1 -10  -2 0.29978 19.8470   4
  -1 -10  -3 5.32997 20.6971   4
  -1 -10  -4 13.5419 18.5100   4
  -1 -10  -5 65.6551 18.8412   4
  -1 -10  -6-60.8022 16.6579   4
  -1 -10  -7 92.2846 18.9860   4
  -1 -10  -8-31.6462 14.2023   4
  -1 -10  -9 15.5073 17.3517   4
  -1 -10 -10-32.0585 18.8882   4
  -1 -10 -11 88.9648 16.3325   4
  -1 -10 -12 0.39250 17.4563   4
   1  11  -8 163.760 21.2053   5
   1  11  -7 85.3784 18.6430   5
  -1 -11   7 85.4814 30.6218   4
   1  11  -6 0.20372 17.7050   5
  -1 -11   6 15.9124 23.0584   4
  -1 -11   5 4.72244 26.5692   4
   1  11  -4 8.91159 18.5477   5
  -1 -11   3-36.8837 25.7627   4
   1  11  -3 85.5426 23.2763   5
  -1 -11   2-12.9921 23.6023   4
   1  11  -2 74.5501 22.6260   5
  -1 -11   1-9.46018 23.9590   4
   1  11  -1 8.20005 20.7485   5
  -1 -11   0 116.307 26.0996   4
   1  11   0 45.5823 20.5878   5
  -1 -11  -1 67.2956 20.1752   4
  -1 -11  -2 21.8528 24.4089   4
  -1 -11  -5 71.6171 21.6055   4
  -1 -11  -6-13.4222 16.5240   4
  -1 -11  -7 27.9934 16.8961   4
  -1 -11  -8 12.7213 18.5253   4
  -1 -11  -9 54.1916 17.8126   4
  -1 -11 -10-45.6219 16.7624   4
  -1 -11 -11 48.5735 16.5315   4
  -1 -12   6 30.4969 29.4444   4
  -1 -12   5 5.46720 28.5873   4
  -1 -12   4 22.3584 27.6179   4
  -1 -12   3 20.9867 30.3135   4
   1  12  -3 31.6694 21.9824   5
  -1 -12   2 58.6041 27.7869   4
   1  12  -2 47.5065 24.3667   5
  -1 -12   1 49.4943 22.8816   4
   1  12  -1 109.607 25.2465   5
  -1 -12   0 38.0509 28.1445   4
   1  12   0 94.8136 24.3775   5
  -1 -12  -1 57.5526 22.6128   4
  -1 -12  -2 102.609 27.4133   4
  -1 -12  -3 32.1542 24.3523   4
  -1 -12  -6-35.3457 22.2005   4
  -1 -12  -7-64.6442 17.8244   4
  -1 -12  -8 79.3763 17.8037   4
  -1 -13   3 200.884 40.7731   4
  -1 -13   2 153.250 29.3361   4
  -1 -13   1 103.463 34.2764   4
  -1 -13   0 43.1751 28.9658   4
   1  13   0-54.0311 26.6700   5
  -1 -13  -1-11.9632 24.6042   4
  -1 -13  -2 5.08443 23.9788   4
  -1 -13  -3 125.651 31.4653   4
  -1 -13  -4 17.7712 29.8770   4
   2 -12   0 12.6516 22.3853   4
   2 -12   1 226.307 33.4296   4
   2 -11  -6 149.348 18.5995   4
   2 -11  -4 98.7612 19.8525   4
   2 -11  -3 29.9669 17.3456   4
   2 -11   1 42.2028 24.8751   4
  -2  11  -1 91.6596 26.6879   5
  -2  11  -2 95.0516 28.8135   5
   2 -11   2 43.9497 26.6879   4
  -2  11  -3 88.1793 28.1444   5
  -2  11  -4 71.7672 26.8843   5
  -2  11  -5 89.6767 24.4964   5
  -2  11  -6 107.259 24.6796   5
   2 -10  -8 8.02696 18.7663   4
   2 -10  -7 48.4111 16.5944   4
   2 -10  -6-20.7606 12.9285   4
   2 -10  -5-4.32843 15.2800   4
   2 -10  -4 111.498 19.1473   4
   2 -10  -3-1.37299 15.4320   4
   2 -10  -2-69.4565 15.7210   4
  -2  10   2 28.6673 17.3095   3
   2 -10  -1-52.2200 11.6302   4
   2 -10   2 21.5122 17.1711   4
  -2  10  -2 9.70203 21.7184   5
   2 -10   3 82.8807 22.7506   4
  -2  10  -3-13.9546 21.8468   5
  -2  10  -4 21.9387 21.7837   5
  -2  10  -5-16.6678 24.5983   5
  -2  10  -6 9.41245 25.6379   5
  -2  10  -7 108.325 26.4016   5
  -2  10  -8 80.7984 23.2308   5
   2  -9 -10 68.9871 16.1609   4
   2  -9  -9-22.5880 12.9406   4
   2  -9  -7 47.9714 15.9359   4
   2  -9  -6-57.0302 14.8319   4
   2  -9  -5 83.1753 16.3149   4
   2  -9  -4 34.9655 17.9624   4
   2  -9  -3-11.3547 15.5495   4
  -2   9   3 12.5480 15.0726   3
  -2   9   2 12.6442 14.0659   3
   2  -9  -2 7.27290 14.9041   4
  -2   9   1 50.5716 17.7850   3
   2  -9  -1 34.4468 15.4046   4
   2  -9   0 65.1617 14.6597   4
   2  -9   1 71.2861 18.1540   4
   2  -9   2 19.1484 19.7360   4
  -2   9  -2 77.4946 23.0268   5
   2  -9   3 39.5313 21.6643   4
  -2   9  -3 15.2500 20.1915   5
  -2   9  -4 40.8074 22.9880   5
  -2   9  -5-6.75414 20.0496   5
  -2   9  -6 6.29450 22.2930   5
  -2   9  -7 105.300 24.2002   5
  -2   9  -8 66.9128 21.5390   5
  -2   9  -9 108.188 23.9828   5
  -2   9 -10 90.0699 24.3909   5
   2  -8 -10-4.87681 16.4286   4
   2  -8  -9 86.9260 18.3787   4
   2  -8  -8-61.5950 15.1428   4
   2  -8  -7 3.91253 14.5993   4
   2  -8  -6 46.1095 15.5237   4
  -2   8   5-30.6648 15.1141   3
   2  -8  -5 19.7817 15.2161   4
   2  -8  -4-17.7333 13.7400   4
  -2   8   3-7.10883 14.5187   3
   2  -8  -3-4.22047 13.3860   4
   2  -8  -2 16.5645 13.5047   4
  -2   8   2 18.3069 14.9640   3
  -2   8   1 31.2501 16.1913   3
   2  -8  -1 4.77821 13.7187   4
  -2   8   0 132.551 17.8370   3
   2  -8   0 127.150 16.8910   4
   2  -8   1 262.286 19.1634   4
  -2   8  -2 247.805 23.7971   5
   2  -8   2 195.714 19.1441   4
   2  -8   3 589.389 27.4219   4
  -2   8  -3 572.053 28.4930   5
   2  -8   4 97.2338 18.6402   4
  -2   8  -4 86.4485 20.4791   5
  -2   8  -5 34.6215 19.8203   5
  -2   8  -6 87.5705 22.6895   5
  -2   8  -7 168.638 23.3904   5
  -2   8  -8 89.7991 20.7384   5
  -2   8  -9 19.1620 19.7095   5
  -2   8 -10-7.01070 21.4303   5
  -2   8 -12-61.1211 17.3460   5
   2  -7 -13 41.8232 18.8111   4
   2  -7 -12 33.9177 15.8361   4
   2  -7 -11 31.3589 14.4922   4
   2  -7 -10-25.6095 17.7550   4
   2  -7  -9-23.1990 17.0245   4
   2  -7  -8 19.8695 17.6432   4
   2  -7  -7 35.4641 14.7465   4
  -2   7   6 59.5233 15.8595   3
   2  -7  -6 43.6473 14.3728   4
   2  -7  -5-16.2487 13.9719   4
  -2   7   5 25.4268 14.4035   3
  -2   7   4 69.3396 15.1264   3
   2  -7  -4 33.0790 15.8103   4
  -2   7   3 69.0464 15.1246   3
   2  -7  -3 81.1425 14.6787   4
  -2   7   2 73.2761 15.3500   3
   2  -7  -2 82.3230 15.1887   4
  -2   7   1 23.5080 14.0557   3
   2  -7  -1 31.2538 12.5282   4
   2  -7   0 1.62086 12.3104   4
  -2   7   0 28.6763 14.7680   3
  -2   7  -1 38.1113 14.7588   3
   2  -7   1 87.3154 14.7314   4
   2  -7   2 55.2165 14.8698   4
   2  -7   3 14.7928 14.6555   4
  -2   7  -3 32.1192 19.0993   5
  -2   7  -4 74.5934 18.7394   5
   2  -7   4 96.1205 16.7882   4
   2  -7   5 18.9588 15.2711   4
  -2   7  -5 6.82488 17.9316   5
  -2   7  -6 43.7741 18.8231   5
  -2   7  -7 51.0406 18.4435   5
  -2   7  -8 78.8835 21.2274   5
  -2   7  -9 205.654 24.0289   5
  -2   7 -10 36.7483 19.6028   5
  -2   7 -11 14.1724 19.0834   5
  -2   7 -12 68.8856 24.0996   5
  -2   7 -13 154.125 18.2938   5
   2  -6 -14 85.2664 18.9186   4
   2  -6 -13 37.2891 14.6054   4
   2  -6 -12 86.8078 17.5444   4
   2  -6 -11 15.3226 16.2374   4
   2  -6 -10 51.0279 19.4038   4
   2  -6  -9 85.3403 18.2250   4
  -2   6   8 11.2815 15.9100   3
   2  -6  -8 16.3825 15.1372   4
  -2   6   7 48.9168 16.2082   3
   2  -6  -7 27.9080 16.5565   4
   2  -6  -6 190.777 18.0571   4
  -2   6   6 215.887 18.2387   3
  -2   6   5 37.1982 14.1076   3
   2  -6  -5 50.9782 15.0545   4
  -2   6   4 19.6906 13.5104   3
   2  -6  -4-13.7015 13.7412   4
  -2   6   3-8.59305 12.5840   3
   2  -6  -3-16.7172 13.5001   4
  -2   6   2 0.94399 13.0137   3
   2  -6  -2-4.17309 12.2683   4
   2  -6  -1 22.2003 11.8942   4
  -2   6   1 18.0030 13.3496   3
  -2   6   0 140.194 15.9813   3
   2  -6   0 132.695 14.6453   4
   2  -6   1 138.232 14.4790   4
  -2   6  -1 121.804 15.9191   3
  -2   6  -2 22.7851 13.9524   3
   2  -6   2 13.7704 11.3693   4
   2  -6   3 39.3344 12.4633   4
  -2   6  -3 69.9717 17.3992   5
  -2   6  -4-3.75666 16.1811   5
   2  -6   4 11.3091 12.8909   4
  -2   6  -5 17.6343 16.5351   5
   2  -6   5 24.8787 13.3673   4
  -2   6  -6 7.80009 17.8991   5
  -2   6  -7-0.69672 16.9360   5
  -2   6  -8 35.5681 18.1671   5
  -2   6  -9 14.4400 18.4310   5
  -2   6 -10 10.9805 17.2498   5
  -2   6 -11-2.10822 18.9684   5
   2  -5 -14 65.7219 16.1637   4
   2  -5 -14-20.8751 27.2944   5
   2  -5 -13 48.6346 16.2381   4
   2  -5 -12 18.2238 15.5453   4
   2  -5 -11-3.04796 14.3488   4
   2  -5 -10 4.21009 14.8559   4
   2  -5  -9 1.38706 16.7208   4
  -2   5   9-4.07626 16.2261   3
   2  -5  -8 18.3944 16.1871   4
  -2   5   8-8.00503 15.5890   3
   2  -5  -7 150.798 18.3853   4
  -2   5   7 123.246 17.1287   3
   2  -5  -6 374.189 21.2915   4
  -2   5   6 430.238 20.8000   3
   2  -5  -5 114.925 14.7465   4
   2  -5  -5 89.9787 11.1118   0
  -2   5   5 111.751 15.9864   3
  -2   5   4 26.2963 12.3126   3
   2  -5  -4 27.4276 9.44864   0
   2  -5  -4 48.1765 13.2996   4
   2  -5  -3 42.8361 10.7471   0
  -2   5   3 40.4000 13.0923   3
   2  -5  -3 42.8478 12.8943   4
  -2   5   2 48.6241 13.6032   3
   2  -5  -2 38.4708 11.8626   0
   2  -5  -2 41.7942 12.1182   4
  -2   5   1 12.9829 11.5731   3
   2  -5  -1 10.0616 10.8999   4
   2  -5   0 295.010 15.6474   4
  -2   5   0 286.715 16.7998   3
  -2   5  -1 1.26495 11.9798   3
   2  -5   1 25.1294 11.4433   4
   2  -5   2 12.3810 10.3260   4
  -2   5  -2 10.6939 12.6706   3
  -2   5  -3 12.1332 14.5695   5
   2  -5   3-4.35811 10.9181   4
   2  -5   4 27.6703 11.7127   4
  -2   5  -4 41.3360 15.6609   5
   2  -5   5 152.392 13.3915   4
  -2   5  -5 111.157 16.9902   5
   2  -5   6-1.56256 11.6848   4
  -2   5  -6 30.0284 16.3227   5
  -2   5  -7 12.1444 15.8003   5
  -2   5  -8 79.0868 18.1355   5
  -2   5  -9 27.6644 18.1593   5
  -2   5 -10-22.0718 18.2759   5
  -2   5 -11 1.64622 18.6800   5
  -2   5 -12-31.7343 16.8610   5
  -2   5 -13 27.2531 14.3029   5
  -2   5 -14-5.84298 17.0248   5
  -2   5 -15 139.537 19.8638   5
   2  -4 -15 135.005 30.9455   5
   2  -4 -14 95.3816 27.4597   5
   2  -4 -13 91.6880 23.6967   5
   2  -4 -12 55.4466 23.8719   5
   2  -4 -11 20.2435 20.9792   5
   2  -4 -10-60.9128 18.8621   5
  -2   4  10-22.2452 15.2333   3
   2  -4  -9-1.10626 18.3171   5
  -2   4   9 28.6855 16.5137   3
  -2   4   8 42.1293 15.8174   3
  -2   4   7 722.952 24.6339   3
  -2   4   6 52.8014 13.9879   3
   2  -4  -6 69.5891 14.5568   4
   2  -4  -5 1339.75 29.6838   4
  -2   4   5 1281.04 24.5291   1
  -2   4   5 1300.28 28.9371   3
  -2   4   4 38.4564 14.0257   3
   2  -4  -4 67.2046 13.6334   4
   2  -4  -3 22.2915 12.3159   4
  -2   4   3 17.7307 12.0711   3
   2  -4  -2 145.601 13.0682   4
  -2   4   2 133.118 13.3439   3
   2  -4  -1 981.148 21.6207   4
   2  -4  -1 993.101 24.3232   0
  -2   4   1 968.757 23.7640   3
  -2   4   0 41.9649 13.9075   3
   2  -4   0 42.2915 10.9767   0
   2  -4   0 46.5941 9.96431   4
   2  -4   1 2065.53 27.7371   4
   2  -4   1 2004.27 32.3407   0
  -2   4  -1 2082.88 32.2488   3
   2  -4   2 88.4450 9.73507   4
   2  -4   2 75.9656 13.0196   0
  -2   4  -2 74.1012 14.0409   3
  -2   4  -3 130.395 14.4561   5
   2  -4   3 125.384 11.0548   4
   2  -4   3 128.416 13.9826   0
  -2   4  -3 139.039 15.3103   3
   2  -4   4 329.451 14.2745   4
  -2   4  -4 302.232 17.8404   5
   2  -4   4 357.319 18.0725   0
  -2   4  -5 52.3181 15.2701   5
   2  -4   5 92.4516 12.5024   0
   2  -4   5 68.3365 10.2170   4
  -2   4  -6 192.688 16.8371   5
   2  -4   6 210.152 15.2371   0
   2  -4   6 191.837 12.8621   4
  -2   4  -7-0.82763 15.2383   5
  -2   4  -8-2.36280 16.0215   5
  -2   4  -9 15.2354 16.8473   5
  -2   4 -10 15.9668 16.7455   5
  -2   4 -11 80.1712 17.6629   5
  -2   4 -12 70.3444 18.9869   5
  -2   4 -13 37.9331 16.5430   5
  -2   4 -14 28.4972 18.6406   5
  -2   4 -15 60.9339 19.1623   5
   2  -3 -15-26.1504 25.6451   5
   2  -3 -13-4.93611 25.2744   5
  -2   3  12 54.6808 19.4561   3
   2  -3 -12-5.37781 20.3766   5
  -2   3  11-0.69349 17.3446   3
   2  -3 -11-23.4891 18.7387   5
   2  -3 -10 27.8498 18.4351   5
  -2   3  10-8.06406 16.8868   3
   2  -3  -9 4.94752 17.2984   5
  -2   3   9-17.5569 15.6803   3
   2  -3  -8 0.42499 16.6508   5
  -2   3   8 22.2626 15.3150   3
   2  -3  -7 31.5821 17.1578   5
  -2   3   7 4.26155 13.9047   3
   2  -3  -6 807.889 25.4897   5
  -2   3   6 776.335 23.7484   3
  -2   3   6 810.132 18.7374   1
  -2   3   5 588.758 16.4709   1
  -2   3   5 620.453 21.8330   3
  -2   3   4 37.2777 9.45507   1
  -2   3   4 16.2148 12.1658   3
  -2   3   3 81.1545 10.3700   1
  -2   3   3 76.8674 14.0163   3
   2  -3  -2 58.2839 11.3365   4
  -2   3   2 79.8218 6.53073   8
  -2   3   2 76.0440 12.6572   3
  -2   3   1 9.68077 12.0752   3
   2  -3  -1 8.35858 10.2266   4
   2  -3   0 321.251 13.0875   4
  -2   3   0 306.079 15.3651   3
  -2   3  -1 351.828 16.3516   3
   2  -3   1 349.888 12.2743   4
  -2   3  -2 274.332 15.2820   3
   2  -3   2 290.055 11.3610   4
  -2   3  -3 96.7269 12.9261   5
   2  -3   3 75.7164 8.61798   4
  -2   3  -3 91.7389 12.5378   3
   2  -3   3 106.864 13.0900   0
  -2   3  -4 94.7194 13.4774   5
   2  -3   4 96.2378 8.89818   4
   2  -3   4 102.176 11.5632   0
  -2   3  -5 517.753 18.5384   5
   2  -3   5 518.195 17.3475   0
   2  -3   5 494.710 13.8694   4
  -2   3  -6 238.832 16.5320   5
   2  -3   6 261.104 12.0959   4
   2  -3   6 268.311 14.1040   0
  -2   3  -7 321.473 19.2695   5
   2  -3   7 345.619 15.4126   0
   2  -3   7 347.205 13.8078   4
  -2   3  -8 191.912 18.7163   5
   2  -3   8 81.3962 9.46328   0
  -2   3  -9 38.9697 16.5919   5
  -2   3 -10-0.96859 13.6985   5
  -2   3 -11 28.4243 15.8846   5
  -2   3 -12 22.0833 17.0709   5
  -2   3 -13 43.9428 17.7632   5
  -2   3 -14 50.6502 14.9832   5
  -2   3 -16-35.4951 19.8868   5
   2  -2 -14 31.3187 24.2655   5
  -2   2  13-42.7298 18.5918   3
   2  -2 -13 53.9133 22.1912   5
  -2   2  12-26.2677 18.5474   3
   2  -2 -12 49.0331 20.2180   5
  -2   2  11-13.7609 16.7339   3
   2  -2 -11 11.4202 18.0327   5
   2  -2 -10 43.1820 18.8803   5
  -2   2  10-2.82263 15.5877   3
  -2   2   9 19.6655 16.7705   3
   2  -2  -9 38.4559 17.1500   5
  -2   2   8 13.9471 15.4223   3
   2  -2  -8-12.0364 15.0201   5
  -2   2   7 34.6055 13.9203   3
   2  -2  -7 37.5145 15.9098   5
   2  -2  -6 11.8140 13.3854   5
  -2   2   6 35.7506 14.4343   3
   2  -2  -5 566.638 20.3457   5
  -2   2   5 601.280 21.1119   3
  -2   2   4 154.386 15.1113   3
   2  -2  -4 132.661 13.6447   5
  -2   2   4 130.102 10.3765   1
  -2   2   3 248.733 12.0716   1
  -2   2   3 257.536 14.3997   3
  -2   2   2 570.452 15.9041   1
  -2   2   2 502.285 9.89310   8
  -2   2   2 533.935 17.7743   3
  -2   2   1 314.273 9.91750   8
  -2   2   1 316.749 13.9778   1
  -2   2   1 304.621 13.7658   3
   2  -2   0 1025.60 16.8423   4
  -2   2   0 1003.57 20.9790   3
   2  -2   1 4659.84 29.8433   4
  -2   2  -1 4557.71 37.8584   3
   2  -2   2 1444.09 16.2877   4
  -2   2  -2 1430.45 23.4470   3
  -2   2  -2 1391.82 14.9272   6
  -2   2  -2 1407.95 21.3771   5
  -2   2  -3 324.083 8.46812   6
  -2   2  -3 330.834 13.7559   5
  -2   2  -3 329.223 15.0705   3
   2  -2   3 301.426 8.86681   4
  -2   2  -4 115.063 12.7924   5
   2  -2   4 109.962 7.44308   4
   2  -2   5 18.2219 10.3364   0
  -2   2  -5 15.3794 12.0907   5
   2  -2   5 7.00274 6.67273   4
   2  -2   6 43.4552 7.84585   4
  -2   2  -6 57.1075 12.8245   5
   2  -2   6 45.0571 9.83606   0
   2  -2   7 133.031 10.8665   0
  -2   2  -7 102.019 14.7586   5
  -2   2  -8 189.944 16.9349   5
   2  -2   8 217.105 11.5433   0
  -2   2  -9 146.064 16.8031   5
  -2   2 -10 55.8140 15.2303   5
  -2   2 -11 17.3627 15.5608   5
  -2   2 -12 73.7796 17.5397   5
  -2   2 -13 41.9087 16.2064   5
  -2   2 -14 79.6674 19.2692   5
  -2   2 -16 61.7117 16.9318   5
   2  -1 -15 166.351 28.0771   5
  -2   1  14 79.5080 22.2115   3
   2  -1 -14 225.675 23.1858   5
   2  -1 -13 31.0884 16.3775   5
  -2   1  13 51.7259 20.2249   3
  -2   1  12 19.0530 19.2931   3
   2  -1 -12-3.03730 17.8975   5
  -2   1  11 12.2278 16.5284   3
   2  -1 -11 22.6401 15.6962   5
   2  -1 -10 97.2070 18.6790   5
  -2   1  10 78.4815 17.5884   3
  -2   1   9-15.0868 15.1277   3
   2  -1  -9 5.81257 15.7712   5
  -2   1   8 9.83096 14.7510   3
   2  -1  -8 14.2604 14.2944   5
   2  -1  -7 9.73868 12.9039   5
  -2   1   7 6.18203 14.4342   3
   2  -1  -6 45.4332 8.20830   1
  -2   1   6 41.9971 14.7014   3
  -2   1   6 30.3779 8.43622   2
   2  -1  -6 52.4932 14.0583   5
   2  -1  -5 160.895 13.8453   5
   2  -1  -5 150.870 9.94635   1
  -2   1   5 154.668 14.0398   3
   2  -1  -4 664.178 18.5771   5
   2  -1  -4 625.224 15.1494   1
  -2   1   4 671.695 20.4464   3
   2  -1  -3 63.6434 9.08144   1
   2  -1  -3 82.0257 11.6486   5
  -2   1   3 87.5212 11.8799   3
  -2   1   2 21.4461 9.26625   1
  -2   1   2 25.4808 12.6636   3
   2  -1  -2 21.6566 8.23769   1
  -2   1   1 91.6688 8.08271   8
  -2   1   1 108.341 11.0309   1
  -2   1   1 102.941 11.8831   3
  -2   1   0-8.45900 10.6307   1
  -2   1   0 8.31557 9.01584   8
  -2   1   0 5.44824 12.0262   3
  -2   1  -1 246.906 11.5227   8
  -2   1  -1 235.301 11.5514   1
  -2   1  -1 247.336 13.3376   3
  -2   1  -2 674.031 15.9074   3
  -2   1  -2 667.775 13.1277   6
  -2   1  -2 631.276 14.3115   5
  -2   1  -2 658.874 16.1365   1
  -2   1  -3 6.90880 8.75430   3
  -2   1  -3 1.79892 9.23957   5
  -2   1  -3 6.42464 7.34376   6
  -2   1  -4 9.38785 10.0262   5
  -2   1  -5-4.39832 11.1759   5
  -2   1  -6-5.57865 12.1872   5
   2  -1   6-4.29762 8.22700   0
  -2   1  -7 31.6324 12.4196   5
   2  -1   7 28.8528 7.77852   0
   2  -1   8 8.90321 6.92847   0
  -2   1  -8-0.86136 13.2071   5
  -2   1  -9 87.0888 14.3541   5
  -2   1 -10 36.0417 15.0657   5
  -2   1 -11 32.2986 16.2250   5
  -2   1 -12 11.8437 16.2341   5
  -2   1 -13-13.8137 16.1005   5
  -2   1 -14 47.4834 19.6433   5
  -2   1 -17 2.68599 19.7325   5
   2   0 -16 167.207 24.0120   5
  -2   0  15 123.546 23.2469   3
   2   0 -15 278.959 24.2650   5
  -2   0  14 32.9157 20.8588   3
   2   0 -14 67.3418 19.9183   5
   2   0 -13 65.7843 19.6508   5
   2   0 -12 89.1989 20.6775   5
  -2   0  12 13.0514 19.7162   3
  -2   0  11 67.6433 18.7287   3
   2   0 -11 92.0200 19.3098   5
   2   0 -10 114.002 18.1728   5
  -2   0  10 151.728 19.1377   3
   2   0  -9 126.772 16.9814   5
  -2   0   9 87.7877 16.9839   3
   2   0  -8 22.0629 13.8017   5
  -2   0   8 8.35998 16.9940   3
   2   0  -7 46.0441 8.04782   1
  -2   0   7 25.4258 14.5715   3
   2   0  -7 48.9251 13.9004   5
  -2   0   6 1.98969 8.31360   2
   2   0  -6-0.49182 11.5408   5
  -2   0   6 7.48176 14.8974   3
   2   0  -6 0.31508 6.97240   1
   2   0  -5 142.315 13.0996   5
  -2   0   5 150.281 10.3419   2
   2   0  -5 124.706 9.57685   1
  -2   0   5 138.917 15.0498   3
   2   0  -4 2274.21 27.8582   5
  -2   0   4 2184.91 30.4389   3
  -2   0   4 2233.70 25.3436   2
  -2   0   3 81.3753 9.29475   2
   2   0  -3 97.4702 9.50325   1
   2   0  -3 114.189 10.0143   5
  -2   0   3 99.6461 13.3061   3
   2   0  -2 303.800 10.5256   5
   2   0  -2 294.421 11.7588   1
  -2   0   2 323.927 15.6802   3
   2   0  -1 539.296 10.3299   5
   2   0  -1 531.716 14.7827   1
  -2   0   1 508.228 14.4544   3
  -2   0   0 716.334 15.2356   8
   2   0   0 733.951 15.9874   1
  -2   0   0 738.638 15.1504   3
  -2   0  -1 5877.92 33.9396   3
  -2   0  -1 5874.66 36.0675   8
   2   0   1 5958.72 36.2344   1
  -2   0  -1 5835.98 36.8113   1
  -2   0  -2 32066.5 80.1214   6
  -2   0  -2 32538.6 245.296   5
  -2   0  -2 32075.9 87.6386   8
   2   0   2 32452.8 325.404   1
  -2   0  -2 32058.5 294.945   3
  -2   0  -2 32016.6 82.8923   1
  -2   0  -3 1720.66 19.4909   3
  -2   0  -3 1729.76 21.0536   6
  -2   0  -3 1692.04 18.9712   5
  -2   0  -3 1743.26 20.7512   1
  -2   0  -4 179.153 13.5919   7
  -2   0  -4 171.377 10.6883   5
  -2   0  -4 183.900 9.71298   1
  -2   0  -5 105.104 11.5972   5
  -2   0  -5 99.4706 11.5128   7
  -2   0  -5 100.555 8.43691   1
  -2   0  -6-0.17764 11.2605   7
  -2   0  -6 18.1849 6.90966   1
  -2   0  -6 14.0220 11.1138   5
  -2   0  -7 147.204 13.6490   5
  -2   0  -7 147.353 13.8534   7
   2   0   7 140.947 7.56483   0
  -2   0  -7 131.407 7.88375   1
  -2   0  -8 1218.76 27.2419   5
  -2   0  -8 1181.52 25.6054   7
  -2   0  -8 1167.53 16.2921   1
   2   0   8 1183.15 16.4049   0
  -2   0  -9 77.0548 13.1087   7
  -2   0  -9 67.0447 14.7439   5
  -2   0 -10 3.63067 12.4689   7
  -2   0 -10 27.4846 15.0750   5
  -2   0 -11 6.03887 13.0263   7
  -2   0 -11-3.60420 13.9435   5
  -2   0 -12-2.60252 16.3791   5
  -2   0 -13-2.75261 18.4909   5
  -2   0 -14-6.20419 19.7278   5
  -2   0 -15 8.41439 19.5915   5
  -2   0 -17 30.1824 24.6074   5
  -2  -1  16 24.5055 26.6674   3
   2   1 -16 321.977 25.2600   5
   2   1 -15 218.870 25.5357   5
  -2  -1  15 113.891 26.2538   3
   2   1 -14 7.29414 15.5432   5
  -2  -1  13 18.2261 22.0368   3
   2   1 -13 77.0194 20.8281   5
  -2  -1  12 8.74503 22.1384   3
   2   1 -11-0.79711 17.4552   5
  -2  -1  11-21.1463 18.1169   3
  -2  -1  10 132.940 19.5943   3
   2   1 -10 80.5358 16.6648   5
   2   1  -9 15.6065 14.3834   5
  -2  -1   9 61.6628 18.4151   3
   2   1  -8 302.512 19.2734   5
  -2  -1   8 313.630 20.8348   3
   2   1  -7 937.452 25.1420   5
  -2  -1   7 977.324 27.3945   3
   2   1  -6 587.275 19.3437   5
  -2  -1   6 591.598 21.4420   3
  -2  -1   5 8.98964 13.8371   3
   2   1  -5 15.4144 10.5913   5
  -2  -1   4 221.468 15.2816   3
   2   1  -4 220.670 12.1421   5
   2   1  -4 223.859 11.8269   2
  -2  -1   3 280.939 13.3105   3
  -2  -1   3 293.431 13.1123   2
   2   1  -3 300.824 11.3879   5
   2   1  -3 289.723 12.7671   2
  -2  -1   2 704.094 16.5143   2
  -2  -1   2 669.552 16.7538   3
   2   1  -2 688.544 16.2380   2
   2   1  -2 660.335 12.5147   5
  -2  -1   1 41.4075 8.81894   2
  -2  -1   1 32.0778 11.5326   3
  -2  -1   0 13.3180 9.34909   4
  -2  -1   0 16.1594 10.4525   2
  -2  -1   0 12.5926 9.26039   3
  -2  -1  -1 166.999 11.2558   7
  -2  -1  -1 165.483 11.5895   6
  -2  -1  -1 155.172 10.7136   2
  -2  -1  -1 146.066 12.9195   8
  -2  -1  -1 164.998 9.14942   4
  -2  -1  -1 178.966 9.39011   3
  -2  -1  -2 6365.81 38.6486   7
  -2  -1  -2 6357.78 38.8579   6
  -2  -1  -2 6422.39 27.9767   3
  -2  -1  -2 6437.59 40.1186   8
   2   1   3 4076.07 27.9380   1
  -2  -1  -3 4036.07 34.1350   8
  -2  -1  -3 4012.50 25.0070   5
  -2  -1  -3 3984.33 32.7058   6
  -2  -1  -3 3920.96 34.2923   7
  -2  -1  -3 3969.09 21.9876   3
  -2  -1  -4 235.661 13.6398   8
  -2  -1  -4 214.831 14.1146   7
  -2  -1  -4 234.963 11.0896   5
   2   1   4 212.630 8.87975   1
  -2  -1  -5 884.989 20.5765   7
  -2  -1  -5 876.211 11.1020   4
  -2  -1  -5 894.565 18.2054   5
  -2  -1  -5 890.896 19.1964   8
   2   1   5 878.662 13.1740   1
  -2  -1  -6 170.582 7.32536   4
  -2  -1  -6 177.896 13.3535   7
  -2  -1  -6 148.805 12.0374   5
  -2  -1  -7 11.3445 11.8600   7
  -2  -1  -7 3.88390 11.6634   5
  -2  -1  -8 144.495 14.2706   7
  -2  -1  -8 129.245 15.2912   5
   2   1   8 152.725 5.55151   0
  -2  -1  -9 798.378 23.8134   7
  -2  -1  -9 862.029 25.9985   5
  -2  -1 -10 55.0925 14.6284   7
  -2  -1 -10 41.8368 16.1588   5
  -2  -1 -11 11.6402 13.4125   7
  -2  -1 -11 2.32173 16.4534   5
  -2  -1 -12 35.2651 18.6233   5
  -2  -1 -12 23.0453 14.5649   7
  -2  -1 -13-5.84517 17.3459   5
  -2  -1 -14 2.56166 19.7902   5
  -2  -1 -15-8.44889 20.2543   5
  -2  -1 -17 102.095 25.6568   5
  -2  -2  15 194.862 28.0965   3
   2   2 -14 46.4113 19.7080   5
  -2  -2  13 29.6265 22.8588   3
  -2  -2  12-11.6508 18.1396   3
   2   2 -12 14.8560 16.2207   5
  -2  -2  11-6.02403 19.4158   3
  -2  -2  10 14.9456 17.0970   3
   2   2 -10 15.9849 15.8811   5
  -2  -2   9 1519.73 36.7905   3
   2   2  -9 1446.18 33.8566   5
  -2  -2   8 468.994 24.0563   3
   2   2  -8 508.162 21.0781   5
  -2  -2   7 1659.47 34.4334   3
   2   2  -7 1583.65 30.2981   5
   2   2  -7 1520.31 26.4194   2
  -2  -2   6 2956.24 40.9130   3
   2   2  -6 2937.80 34.3684   2
   2   2  -6 2920.47 36.9048   5
  -2  -2   5 1879.86 31.1316   3
   2   2  -5 1935.83 27.9244   5
   2   2  -5 1793.50 27.1087   2
   2   2  -4 567.098 16.5722   2
  -2  -2   4 587.160 19.2938   3
   2   2  -4 610.372 16.2563   5
  -2  -2   3 1300.07 22.9398   3
   2   2  -3 1397.37 22.9791   2
   2   2  -3 1358.79 19.2849   5
  -2  -2   3 1337.21 25.8657   4
  -2  -2   2 68.6143 14.0867   4
  -2  -2   2 79.1905 9.91764   3
   2   2  -2 78.2070 7.80949   5
   2   2  -2 85.6091 12.1354   2
   2   2  -1 490.390 9.61814   5
  -2  -2   1 510.117 9.74472   7
   2   2  -1 500.906 16.4354   2
  -2  -2   1 494.388 14.5734   3
  -2  -2   1 496.761 17.3533   4
  -2  -2   0 12.1409 11.5927   4
  -2  -2   0 27.3823 7.85827   7
   2   2   0 31.1264 12.1295   2
  -2  -2   0 20.1635 8.08137   3
  -2  -2  -1 42.6070 10.1606   4
  -2  -2  -1 31.6412 8.76821   7
  -2  -2  -1 41.0537 7.05541   3
   2   2   1 34.9376 11.6304   2
  -2  -2  -1 46.5769 12.7849   6
   2   2   2 141.074 10.3191   2
  -2  -2  -2 145.919 9.73958   4
  -2  -2  -2 147.248 10.1669   2
  -2  -2  -2 133.547 13.2759   6
  -2  -2  -2 151.193 11.1991   8
  -2  -2  -2 147.363 12.6717   7
  -2  -2  -3 13.8728 8.75264   2
  -2  -2  -3 17.7113 7.49648   5
   2   2   3 8.19101 8.39014   2
  -2  -2  -3 14.5392 11.4601   6
  -2  -2  -3 6.86599 12.1683   7
  -2  -2  -3 3.59161 7.11661   4
  -2  -2  -3 6.16416 10.3817   8
  -2  -2  -4 152.707 12.2030   8
  -2  -2  -4 146.939 8.18326   4
  -2  -2  -4 165.826 10.5554   5
  -2  -2  -4 138.571 8.83727   2
  -2  -2  -4 147.772 13.5522   7
  -2  -2  -5 1088.13 15.2298   4
  -2  -2  -5 1067.72 22.7472   7
  -2  -2  -5 1117.32 20.1111   5
  -2  -2  -5 1053.17 20.2374   8
  -2  -2  -6 794.809 14.5300   4
  -2  -2  -6 790.345 21.8011   7
  -2  -2  -6 780.141 19.1113   8
  -2  -2  -6 776.952 19.7808   5
   2   2   6 779.183 11.7233   1
  -2  -2  -7 344.645 17.0002   7
  -2  -2  -7 351.244 11.6001   4
  -2  -2  -7 374.956 15.9468   8
  -2  -2  -7 293.957 16.1997   5
   2   2   7 319.442 7.13104   1
  -2  -2  -8 199.056 15.9335   7
  -2  -2  -8 217.591 16.2598   5
  -2  -2  -8 202.816 10.7396   4
  -2  -2  -8 230.510 14.7351   8
  -2  -2  -9 83.3439 13.6653   8
  -2  -2  -9 72.0594 15.8930   5
  -2  -2  -9 80.4237 13.9684   7
   2   2   9 69.1160 9.63542   3
  -2  -2  -9 86.3384 9.81522   4
  -2  -2 -10 32.0333 12.6888   8
  -2  -2 -10 17.8902 16.1047   5
  -2  -2 -10 41.6826 9.86056   4
  -2  -2 -10 23.7632 12.6359   7
  -2  -2 -11 19.6210 13.6627   7
  -2  -2 -11-11.6628 17.1002   5
  -2  -2 -11 11.2451 12.6700   8
  -2  -2 -12 31.8401 13.5416   7
  -2  -2 -12 12.1232 17.0107   5
  -2  -2 -13 18.9094 18.8542   5
  -2  -2 -14 16.8539 19.3856   5
  -2  -2 -15 44.6583 22.6104   5
  -2  -2 -16 140.500 25.4844   5
  -2  -2 -17-7.57399 17.8934   5
  -2  -3  15 157.222 28.3210   3
   2   3 -14 50.2121 18.0997   5
  -2  -3  13 52.6119 25.1427   3
  -2  -3  12-12.8422 18.7420   3
   2   3 -11 53.8757 14.7622   5
  -2  -3  11 30.8794 19.3507   3
   2   3 -10 4.36409 12.4491   5
  -2  -3  10 13.2847 19.1690   3
   2   3  -9 190.590 17.4612   5
  -2  -3   9 179.032 21.0289   3
  -2  -3   8 131.051 20.2688   3
   2   3  -8 117.389 15.8359   5
  -2  -3   7 244.191 19.1439   3
   2   3  -7 273.657 16.3481   5
   2   3  -7 278.961 15.7564   2
   2   3  -6 986.818 23.6580   5
   2   3  -6 1005.74 24.1960   2
   2   3  -5 1550.18 26.4333   5
   2   3  -5 1563.30 28.1418   2
  -2  -3   5 1494.33 31.7329   4
   2   3  -4 1495.82 24.1005   5
  -2  -3   4 1461.84 30.2457   4
   2   3  -3 5583.64 39.5193   5
  -2  -3   3 5523.55 50.7136   4
  -2  -3   2 1288.99 26.0786   4
   2   3  -2 1278.46 18.2558   5
  -2  -3   1 5.33803 11.1990   4
  -2  -3   1 12.8528 6.55606   7
   2   3  -1 7.25906 7.38121   5
  -2  -3   0 0.39977 10.7482   4
  -2  -3   0 2.12811 10.1186   6
   2   3   0 5.75805 6.36704   5
  -2  -3  -1 96.0919 12.7041   6
  -2  -3  -1 95.0270 11.6292   4
  -2  -3  -2-1.71946 11.2746   6
  -2  -3  -2 4.87594 10.2776   4
  -2  -3  -3 364.998 14.1392   6
   2   3   3 376.343 13.1921   2
  -2  -3  -3 378.968 12.8908   4
   2   3   4 519.450 13.6953   2
  -2  -3  -4 514.595 17.9475   7
  -2  -3  -4 514.706 13.7831   4
  -2  -3  -4 512.859 14.6679   5
  -2  -3  -4 503.705 15.0959   8
  -2  -3  -5 188.021 10.5722   4
  -2  -3  -5 191.946 14.9515   7
   2   3   5 171.081 9.45557   2
  -2  -3  -5 160.441 11.4650   8
  -2  -3  -5 162.096 13.1298   5
   2   3   6 181.699 8.38543   2
  -2  -3  -6 183.349 10.6436   4
  -2  -3  -6 205.395 12.0128   8
  -2  -3  -6 194.960 13.9932   5
  -2  -3  -6 160.452 15.2161   7
  -2  -3  -7 149.145 14.9672   7
   2   3   7 150.421 7.15553   3
  -2  -3  -7 154.471 12.2850   8
  -2  -3  -7 158.146 10.7659   4
  -2  -3  -7 167.125 14.4886   5
  -2  -3  -8 280.210 13.0368   4
  -2  -3  -8 253.028 14.1694   8
  -2  -3  -8 274.259 17.5048   7
  -2  -3  -8 295.381 17.6846   5
  -2  -3  -9 709.087 20.4256   8
  -2  -3  -9 755.949 24.8438   7
  -2  -3  -9 758.067 25.0614   5
  -2  -3  -9 709.680 18.9995   4
  -2  -3 -10 632.387 19.2463   4
  -2  -3 -10 623.874 24.6399   7
  -2  -3 -10 685.827 25.8939   5
  -2  -3 -11 11.5334 15.1924   7
  -2  -3 -11-3.67588 16.4536   5
  -2  -3 -11-0.30369 9.92525   4
  -2  -3 -12-1.06182 14.9525   7
  -2  -3 -12 9.87408 17.6712   5
  -2  -3 -13-25.0116 15.8436   7
  -2  -3 -13 13.2837 19.5341   5
  -2  -3 -14 40.4202 19.8694   5
  -2  -3 -15 59.4875 19.9889   5
  -2  -3 -16 23.0674 21.9304   5
  -2  -3 -17 47.0159 20.9766   5
   2   4 -14 44.0784 19.9593   5
  -2  -4  14 22.1614 27.5246   3
   2   4 -13 84.8830 15.6485   5
  -2  -4  13 16.0189 25.7162   3
   2   4 -12-68.8374 13.1716   5
  -2  -4  12-6.42159 23.3082   3
   2   4 -11-4.79386 14.2647   5
  -2  -4  11-7.92109 20.9917   3
   2   4 -10 65.9311 15.6160   5
  -2  -4  10 22.1689 20.5599   3
   2   4  -9 4.06627 13.6125   5
   2   4  -8 2402.26 41.2847   5
   2   4  -7-6.32661 12.3527   5
  -2  -4   7 12.7906 16.6382   4
  -2  -4   6 3.64176 17.0403   4
   2   4  -6 11.1234 11.6781   5
  -2  -4   5 24.3549 15.9367   4
   2   4  -5 30.8463 11.5443   5
  -2  -4   4 38.9321 15.8388   4
   2   4  -4 37.0218 10.7605   5
   2   4  -3 537.603 16.5337   5
  -2  -4   3 488.219 21.1451   4
   2   4  -2 8217.12 48.3082   5
  -2  -4   2 8305.37 61.8074   4
  -2  -4   1 23.8324 14.4580   4
   2   4  -1 7.34320 8.83633   5
  -2  -4   0 190.013 13.1296   6
  -2  -4   0 213.219 14.9867   4
  -2  -4  -1 57.5060 11.2416   6
  -2  -4  -1 72.2623 12.9051   4
  -2  -4  -2-5.45928 10.1983   6
  -2  -4  -2 7.17080 10.9429   4
  -2  -4  -3 84.0046 11.6042   4
  -2  -4  -3 87.5456 11.7980   6
  -2  -4  -4 586.006 17.2050   4
  -2  -4  -5 72.5446 10.7857   4
  -2  -4  -5 62.0128 12.3212   5
   2   4   6 98.9403 8.51744   2
  -2  -4  -6 79.3833 10.8711   4
  -2  -4  -6 82.9255 13.0686   5
  -2  -4  -6 91.8708 10.4342   8
  -2  -4  -7 33.6441 8.99882   8
   2   4   7 42.7593 7.36554   2
  -2  -4  -7 59.5963 11.3250   4
  -2  -4  -7 45.4289 14.1685   5
  -2  -4  -8 37.4946 9.09204   8
  -2  -4  -8 20.0745 14.3917   5
  -2  -4  -8 29.9261 13.8942   7
  -2  -4  -8 41.4499 10.9686   4
  -2  -4  -9 256.863 15.0065   4
  -2  -4  -9 265.101 18.9778   7
  -2  -4  -9 262.222 19.0334   5
  -2  -4 -10 621.604 20.9481   4
  -2  -4 -10 661.344 26.4091   5
  -2  -4 -10 670.345 26.2991   7
  -2  -4 -11-13.4078 14.6285   7
  -2  -4 -11-8.73442 18.0870   5
  -2  -4 -11 9.99916 11.3919   4
  -2  -4 -12 10.4520 15.7163   7
  -2  -4 -12-12.9344 18.6470   5
  -2  -4 -13-24.3744 21.4498   5
  -2  -4 -13 28.3736 12.7822   7
  -2  -4 -14-60.5762 16.1443   7
  -2  -4 -14-18.9427 19.3574   5
  -2  -4 -15-14.6159 22.9870   5
  -2  -4 -16-13.7168 24.2391   5
  -2  -4 -17 71.8873 33.1799   5
  -2  -5  14 71.3572 27.0527   3
   2   5 -14 66.4674 20.9807   5
   2   5 -13 51.4954 15.4689   5
  -2  -5  12 58.0324 25.1353   3
   2   5 -11-5.97094 12.0180   5
  -2  -5  11-35.3937 23.1786   3
   2   5 -10 6.14855 14.2854   5
   2   5  -9 23.0373 13.8487   5
   2   5  -8 176.663 16.1477   5
  -2  -5   8 168.069 21.5017   4
  -2  -5   7 1.19997 16.9229   4
   2   5  -7 16.1892 14.1365   5
   2   5  -6-13.0474 12.7557   5
  -2  -5   6 2.94974 16.0536   4
  -2  -5   5 15.7537 16.2758   4
   2   5  -5 5.77600 11.5750   5
   2   5  -4 8.51134 11.3941   5
  -2  -5   4-7.08739 16.3712   4
  -2  -5   3 38.4592 15.0075   4
   2   5  -3 56.0134 11.4328   5
  -2  -5   2-8.34565 14.9812   4
   2   5  -2 7.50186 10.3253   5
  -2  -5   1 200.666 13.0445   6
   2   5  -1 224.138 12.9333   5
  -2  -5   1 212.003 16.1495   4
  -2  -5   0 725.769 18.2307   6
  -2  -5   0 681.865 21.7508   4
  -2  -5  -1 662.679 17.6222   6
  -2  -5  -1 630.924 20.1780   4
  -2  -5  -2 211.880 14.9026   4
  -2  -5  -2 196.517 12.7188   6
  -2  -5  -3 76.5080 12.4297   4
  -2  -5  -4 48.8305 11.8041   4
  -2  -5  -5 50.9363 11.3214   4
  -2  -5  -6 107.686 12.5759   4
  -2  -5  -7 151.745 16.1844   5
  -2  -5  -7 153.363 13.7782   4
  -2  -5  -8 110.910 18.1040   5
  -2  -5  -8 70.4059 11.2904   4
  -2  -5  -9 51.3388 17.0949   5
  -2  -5  -9 39.0286 12.0653   4
  -2  -5 -10 117.074 20.7467   5
  -2  -5 -10 115.171 14.2287   4
  -2  -5 -10 96.0818 17.8195   7
  -2  -5 -11 5.77418 16.1273   7
  -2  -5 -11 9.06031 18.3545   5
  -2  -5 -11 3.20471 11.8199   4
  -2  -5 -12 121.040 18.6695   7
  -2  -5 -12 63.6219 12.6830   4
  -2  -5 -12 101.239 21.2078   5
  -2  -5 -13 0.75430 16.8566   7
  -2  -5 -13 47.1550 21.7003   5
  -2  -5 -14-46.9145 16.6570   7
  -2  -5 -14 45.2178 22.2734   5
  -2  -5 -15 61.1353 32.6423   5
  -2  -5 -16 48.8857 25.4938   5
   2   6 -14 202.632 23.2487   5
  -2  -6  13 91.9910 30.3097   3
  -2  -6  12-27.6952 25.7681   3
   2   6 -11-2.35720 14.4902   5
   2   6 -10 17.2023 13.4024   5
   2   6  -9 23.0278 12.1728   5
  -2  -6   9 6.05393 20.2950   4
  -2  -6   8-13.7545 17.3061   4
   2   6  -8-18.9273 13.7182   5
  -2  -6   7-6.78010 19.9394   4
   2   6  -7-67.4931 13.6546   5
   2   6  -6 102.436 14.9239   5
  -2  -6   6 126.693 21.3398   4
  -2  -6   5 14.5983 17.5988   4
   2   6  -5 18.3087 13.1414   5
  -2  -6   4-20.0558 17.3674   4
   2   6  -4 2.60222 11.6913   5
  -2  -6   3 75.7875 17.0019   4
   2   6  -3 70.8303 13.9724   5
  -2  -6   2 580.529 17.8994   6
   2   6  -2 617.176 19.8379   5
  -2  -6   2 604.569 24.5323   4
  -2  -6   1 565.169 17.1676   6
   2   6  -1 584.142 18.6733   5
  -2  -6   1 628.530 24.1137   4
  -2  -6   0 610.116 17.3954   6
  -2  -6   0 606.694 22.9590   4
  -2  -6  -1 96.7300 15.3578   4
  -2  -6  -1 95.3713 11.1651   6
  -2  -6  -2 97.4453 11.7049   6
  -2  -6  -2 105.059 14.8155   4
  -2  -6  -3-16.7408 13.9900   4
  -2  -6  -4 6.30456 12.1499   4
  -2  -6  -5 54.0188 11.5456   4
   2   6   6-67.8422 9.52998   0
  -2  -6  -6 0.30126 12.3850   4
  -2  -6  -7 15.8553 11.8381   4
  -2  -6  -8 62.5374 13.3811   4
  -2  -6  -9 109.956 19.8534   5
  -2  -6  -9 138.503 14.8162   4
  -2  -6 -10 132.383 15.4272   4
  -2  -6 -10 105.320 21.7065   5
  -2  -6 -11 444.350 26.6088   5
  -2  -6 -11 402.511 20.8142   4
  -2  -6 -12 88.1279 22.5186   5
  -2  -6 -12 30.0232 13.6440   4
  -2  -6 -12 70.7982 18.2348   7
  -2  -6 -13 20.2612 17.3539   7
  -2  -6 -13-0.12969 20.6090   5
  -2  -6 -14-68.4770 17.5838   7
  -2  -6 -14-68.1490 26.4164   5
  -2  -6 -15-47.6941 26.6125   5
  -2  -6 -15 48.4452 15.8322   7
   2   7 -12-0.28018 19.3404   5
   2   7 -11 63.7796 14.9237   5
   2   7 -10 105.091 14.5617   5
  -2  -7  10 44.6151 21.9153   4
  -2  -7   9 58.2335 20.3163   4
   2   7  -9-7.25070 13.1940   5
  -2  -7   8 43.9502 21.1077   4
   2   7  -8 21.3975 15.6987   5
   2   7  -7 250.893 19.5828   5
  -2  -7   7 288.787 26.1479   4
   2   7  -6 394.882 21.1396   5
  -2  -7   6 319.922 26.2803   4
  -2  -7   5 34.0934 19.7158   4
   2   7  -5 54.7905 14.4850   5
  -2  -7   4 26.5402 18.1716   4
   2   7  -4 46.6351 13.9321   5
  -2  -7   3-7.55461 18.6324   4
   2   7  -3 15.6760 13.2126   5
   2   7  -2 216.150 16.8355   5
  -2  -7   2 317.049 20.4608   4
  -2  -7   1 145.598 11.5984   6
   2   7  -1 162.505 15.8135   5
  -2  -7   1 163.807 18.9006   4
  -2  -7   0 119.966 19.2557   4
  -2  -7   0 118.162 10.7607   6
  -2  -7  -1 183.275 18.7554   4
  -2  -7  -1 213.081 12.5157   6
  -2  -7  -2 38.4261 15.0024   4
  -2  -7  -3 47.8222 14.3454   4
  -2  -7  -4 124.944 15.9555   4
  -2  -7  -5 58.8409 13.9139   4
   2   7   5-72.8607 11.7255   0
   2   7   6 63.8135 12.0290   0
  -2  -7  -6 48.8874 13.1879   4
  -2  -7  -7 92.3983 15.7848   4
  -2  -7  -8 38.4260 14.6940   4
  -2  -7  -9 14.8446 12.1364   4
  -2  -7 -10 105.052 15.8205   4
  -2  -7 -11 88.8756 15.8596   4
  -2  -7 -12 19.2724 12.2136   4
  -2  -7 -13 31.6818 21.9400   5
  -2  -7 -13 71.3201 20.3232   7
  -2  -7 -13 9.53710 12.6268   4
  -2  -7 -14 74.6523 23.2177   5
  -2  -7 -14-43.5407 18.2729   7
  -2  -7 -15-72.9334 16.9389   7
  -2  -7 -15 68.7993 30.3514   5
   2   8 -12 180.909 17.8944   5
   2   8 -11 131.947 19.7180   5
  -2  -8  10-8.65673 26.1408   4
   2   8 -10 79.5969 14.5010   5
  -2  -8   9 62.2725 24.4733   4
   2   8  -9 3.86542 13.7053   5
  -2  -8   8 42.3533 20.7980   4
   2   8  -8-13.8621 15.3391   5
  -2  -8   7 132.521 24.7259   4
   2   8  -7 91.3294 18.4729   5
  -2  -8   6-13.7491 20.4901   4
   2   8  -6-18.8284 16.1537   5
  -2  -8   5 75.9474 22.8148   4
   2   8  -5 130.515 17.9361   5
  -2  -8   4 65.9718 21.9195   4
   2   8  -4 36.7966 14.9756   5
  -2  -8   3 29.7602 18.9673   4
   2   8  -3 26.0144 14.0826   5
  -2  -8   2 3.42547 17.8208   4
   2   8  -2-0.56210 14.3939   5
  -2  -8   1 132.366 20.1598   4
   2   8  -1 141.592 16.9991   5
  -2  -8   0 593.663 28.1767   4
  -2  -8  -1 21.1723 18.8810   4
  -2  -8  -2 33.8169 17.6079   4
  -2  -8  -3 47.6391 17.8089   4
  -2  -8  -4 68.9596 17.3464   4
  -2  -8  -5 10.1338 15.1318   4
  -2  -8  -6 159.363 17.1568   4
  -2  -8  -7 1.61620 13.4693   4
  -2  -8  -8 54.9082 17.0319   4
  -2  -8  -9 29.9404 15.4851   4
  -2  -8 -10-3.37622 11.1450   4
  -2  -8 -11 49.2895 15.5805   4
  -2  -8 -12 24.4285 11.5245   4
  -2  -8 -14 63.6288 17.7218   7
  -2  -8 -15-61.6423 20.7517   7
  -2  -9  10-59.0351 28.6152   4
  -2  -9   7-53.7684 22.0895   4
   2   9  -7 97.0071 18.0164   5
   2   9  -6 61.5449 16.1007   5
  -2  -9   6-18.3242 23.7637   4
  -2  -9   5 35.8118 21.1832   4
   2   9  -5-5.05483 14.1014   5
  -2  -9   4 20.0399 21.9909   4
   2   9  -4 15.7136 15.7218   5
  -2  -9   3 9.10223 20.3606   4
   2   9  -3 13.9159 17.4643   5
  -2  -9   2-1.67244 20.5363   4
   2   9  -2-8.97224 15.9911   5
  -2  -9   1 37.1952 20.1499   4
   2   9  -1 65.7101 17.4665   5
  -2  -9   0 412.557 27.3091   4
  -2  -9  -1 524.265 28.7638   4
  -2  -9  -2 275.695 24.0650   4
  -2  -9  -3 76.1156 19.9644   4
  -2  -9  -4 43.6386 18.8325   4
  -2  -9  -5 83.5796 17.7298   4
  -2  -9  -6 240.033 20.4116   4
  -2  -9  -7 150.318 18.6689   4
  -2  -9  -8 79.4268 18.2380   4
  -2  -9  -9 8.40887 12.0284   4
  -2  -9 -10 0.18264 13.7657   4
  -2  -9 -11 27.2055 15.8342   4
  -2  -9 -12 34.0077 15.4631   4
  -2  -9 -13-66.7471 17.6626   4
  -2  -9 -14-13.2148 16.5091   4
  -2  -9 -14-68.3705 21.3962   7
  -2 -10  10-21.5222 27.0764   4
  -2 -10   9 45.2960 27.3200   4
  -2 -10   8 55.9313 29.1185   4
  -2 -10   7 88.5393 30.5062   4
   2  10  -7 142.121 19.5221   5
  -2 -10   6 72.8334 27.1590   4
   2  10  -6 21.8383 15.1639   5
  -2 -10   5 47.2233 25.8255   4
   2  10  -5 15.0002 14.9963   5
  -2 -10   4-6.92769 19.4056   4
   2  10  -4 67.9820 21.3187   5
  -2 -10   3 2.93733 21.9333   4
   2  10  -3 11.9786 18.8829   5
  -2 -10   2-7.08800 23.0003   4
   2  10  -2 5.66192 18.0229   5
  -2 -10   1 33.5158 23.5406   4
   2  10  -1 104.397 19.4213   5
  -2 -10   0-5.90789 21.6319   4
   2  10   0-0.97318 16.2626   5
  -2 -10  -1-18.5314 21.3538   4
  -2 -10  -2-1.21868 21.1961   4
  -2 -10  -3 102.414 21.7847   4
  -2 -10  -4 22.9822 20.5979   4
  -2 -10  -5 75.4099 21.2734   4
  -2 -10  -6 87.0806 18.6984   4
  -2 -10  -7 10.9977 15.9092   4
  -2 -10  -8-1.54286 15.9454   4
  -2 -10  -9 47.9790 17.8829   4
  -2 -10 -10-37.8896 13.2862   4
  -2 -10 -11 34.5654 16.8843   4
  -2 -10 -12 113.649 17.5116   4
  -2 -11   9 149.572 33.5437   4
   2  11  -9 41.1424 23.0363   5
   2  11  -8 33.9305 21.2585   5
  -2 -11   8 103.146 29.0746   4
  -2 -11   7 141.896 29.0012   4
   2  11  -7 127.099 19.9395   5
  -2 -11   6 56.3766 26.7873   4
   2  11  -6 58.4515 19.8426   5
  -2 -11   5 16.7459 23.9940   4
   2  11  -5 48.9018 15.9230   5
  -2 -11   4 23.9114 23.2954   4
   2  11  -4 136.107 23.4955   5
   2  11  -3 176.066 22.1545   5
  -2 -11   3 61.1097 23.3758   4
   2  11  -2-9.59838 20.0449   5
  -2 -11   2 4.90287 21.9550   4
  -2 -11   1-3.01645 21.6642   4
   2  11  -1-49.9237 20.0982   5
  -2 -11   0 18.7800 24.8946   4
   2  11   0 51.7850 22.4510   5
  -2 -11  -1 2.03529 19.9129   4
  -2 -11  -2 23.8505 25.0425   4
  -2 -11  -3 48.3336 22.8097   4
  -2 -11  -4-20.3106 19.9220   4
  -2 -11  -7 14.3278 14.1567   4
  -2 -11  -8-28.9127 17.8215   4
  -2 -11  -9 95.3987 17.1882   4
  -2 -11 -11 84.9555 18.4512   4
  -2 -11 -12-32.2939 23.0228   4
   2  12  -7 40.2818 19.4650   5
  -2 -12   6 13.7364 31.0769   4
   2  12  -6 12.8519 18.8522   5
  -2 -12   5 40.0680 26.0270   4
   2  12  -5-25.0078 16.7040   5
  -2 -12   4 0.97812 27.0925   4
   2  12  -4 76.1143 23.7523   5
  -2 -12   3 14.9715 31.5421   4
   2  12  -3 115.208 25.3699   5
  -2 -12   2 59.9444 26.4192   4
   2  12  -2 128.345 23.0006   5
  -2 -12   1 85.8076 29.6038   4
   2  12  -1 61.1924 20.1824   5
  -2 -12   0 101.765 27.2189   4
  -2 -12  -1 135.259 28.8308   4
  -2 -12  -2 44.9183 23.9554   4
  -2 -12  -3-31.7428 24.0105   4
  -2 -12  -4 6.07209 26.4927   4
  -2 -12  -5-11.2426 24.7118   4
  -2 -12  -7-26.5378 23.4377   4
  -2 -12  -8-2.71719 20.7202   4
  -2 -12  -9-43.8811 15.4878   4
   2  13  -4-43.5113 22.9773   5
   2  13  -3-49.6676 26.8512   5
   2  13  -2 41.2767 26.1250   5
  -2 -13   2 109.279 32.3041   4
  -2 -13   1 21.3507 33.5372   4
   2  13  -1 64.1207 27.7816   5
   2  13   0 109.730 27.0781   5
  -2 -13  -1-59.2337 23.2109   4
   2  13   1 115.450 27.8043   5
  -2 -13  -2 24.8540 26.2533   4
  -2 -13  -3 100.309 28.8442   4
  -2 -13  -4 62.0910 29.7946   4
  -2 -13  -5-56.9059 21.9756   4
   3 -11  -3 103.835 16.8616   4
   3 -11  -2 38.2494 18.1966   4
  -3  11  -1 74.9517 24.6975   5
  -3  11  -2 71.1713 28.2629   5
  -3  11  -3 79.1611 28.6866   5
  -3  11  -4 44.8880 23.6194   5
   3 -10  -7-48.4247 19.5195   4
   3 -10  -6 98.6423 17.3399   4
   3 -10  -5-11.3197 14.4148   4
   3 -10  -4-28.3427 16.8763   4
  -3  10   3 43.5527 15.1956   3
   3 -10  -3 95.3546 14.6541   4
  -3  10   2 3.17887 16.7628   3
   3 -10  -2 36.8372 14.5443   4
   3 -10  -1-8.73214 14.0530   4
  -3  10   0-38.5096 16.7201   3
  -3  10  -2-53.7935 21.2234   5
  -3  10  -3-35.0568 21.7840   5
   3  -9  -9 34.3749 19.0708   4
   3  -9  -8 57.5404 18.4692   4
   3  -9  -6 32.0476 17.9076   4
   3  -9  -5-56.8392 15.7734   4
   3  -9  -4 39.1896 13.8511   4
  -3   9   4 69.5136 19.9571   3
   3  -9  -3 12.4974 14.1680   4
  -3   9   3 24.4545 16.9430   3
  -3   9   2-28.0433 17.7475   3
   3  -9  -2-59.5498 13.7795   4
   3  -9  -1-27.8778 11.7208   4
  -3   9   0-28.5246 15.7974   3
   3  -9   0-45.3415 11.3917   4
   3  -9   1-33.4991 11.5685   4
  -3   9  -1 20.3033 15.5261   3
  -3   9  -2 68.6852 22.6242   5
  -3   9  -3 30.5937 22.2846   5
  -3   9  -4 0.83108 19.7924   5
  -3   9  -5-54.2788 19.6302   5
  -3   9  -8 3.09818 20.7206   5
  -3   9  -9 119.043 25.6109   5
  -3   9 -10 93.9040 21.8983   5
   3  -8 -10-4.54760 14.3856   4
   3  -8  -8 28.7487 14.1939   4
   3  -8  -7-53.9737 14.6482   4
  -3   8   6 17.2495 18.4053   3
   3  -8  -6-64.2586 15.4049   4
  -3   8   5 74.6103 18.6141   3
   3  -8  -5-9.73261 15.4372   4
  -3   8   4 35.0904 16.3964   3
   3  -8  -4 60.2692 15.0705   4
  -3   8   3 43.3547 17.6134   3
   3  -8  -3 83.6361 15.2941   4
   3  -8  -2 54.2184 14.2017   4
  -3   8   2 45.9447 18.6121   3
  -3   8   1 0.41290 15.2552   3
   3  -8  -1-12.4284 13.6464   4
  -3   8   0 5.06348 16.9632   3
   3  -8   0-41.2926 12.2788   4
   3  -8   1 101.087 14.6549   4
  -3   8  -1 86.9318 19.6451   3
   3  -8   2 79.9461 15.7561   4
  -3   8  -2 92.9998 17.7877   3
  -3   8  -2 83.0675 19.6871   5
  -3   8  -3 11.5581 19.9436   5
  -3   8  -4 29.4964 20.1981   5
  -3   8  -5-6.64908 19.5992   5
  -3   8  -6-67.4937 20.4462   5
  -3   8  -7 10.1140 21.5072   5
  -3   8  -8 18.3316 18.1255   5
  -3   8  -9 90.3981 19.6324   5
  -3   8 -10 98.8186 21.9107   5
  -3   8 -11-38.7808 23.3916   5
   3  -7 -11 58.1103 17.8147   4
   3  -7 -10 44.7665 17.6823   4
   3  -7  -9 2.49304 15.2472   4
   3  -7  -8-34.2517 15.5115   4
  -3   7   7 32.7948 16.4486   3
   3  -7  -7-12.8712 14.6792   4
  -3   7   6-26.8858 17.1819   3
   3  -7  -6 13.2643 16.4294   4
   3  -7  -5 247.202 21.3619   4
  -3   7   5 235.755 20.2659   3
  -3   7   4 87.5372 18.2294   3
   3  -7  -4 75.6083 16.1796   4
   3  -7  -3 142.695 17.1454   4
  -3   7   3 158.386 17.6342   3
   3  -7  -2 262.553 17.8927   4
  -3   7   2 276.336 22.0986   3
   3  -7  -1 253.094 18.6666   4
  -3   7   1 226.473 21.8424   3
  -3   7   0 59.3653 17.9770   3
   3  -7   0 79.7966 15.2645   4
   3  -7   1 23.2962 12.7689   4
  -3   7  -1 42.8369 17.6792   3
  -3   7  -2 9.10409 16.3115   3
   3  -7   2 25.3530 12.4260   4
   3  -7   3 159.625 16.6879   4
  -3   7  -3 197.848 21.2603   5
  -3   7  -4 225.187 22.2698   5
  -3   7  -5 27.6024 17.9188   5
  -3   7  -6 11.8677 18.8432   5
  -3   7  -7 125.156 21.7286   5
  -3   7  -8 96.4684 20.6582   5
  -3   7  -9 87.6712 20.4544   5
  -3   7 -10 53.3955 20.3466   5
   3  -6 -12-18.1358 14.0349   4
   3  -6 -11-14.6488 13.3927   4
   3  -6 -10-5.00028 16.5726   4
   3  -6  -9 18.2917 16.2883   4
  -3   6   8-5.80619 15.3465   3
   3  -6  -8 18.6775 18.5436   4
  -3   6   7 61.7818 17.7721   3
   3  -6  -7 22.8485 16.4735   4
  -3   6   6 15.4613 15.4786   3
   3  -6  -6 6.92040 13.3837   4
  -3   6   5 51.6401 15.6731   3
   3  -6  -5 76.7920 16.2501   4
   3  -6  -4 93.6076 15.7063   4
  -3   6   4 94.6761 17.5851   3
   3  -6  -3-14.0023 12.8459   4
  -3   6   3-5.53119 14.4561   3
  -3   6   2 52.5378 15.6280   3
   3  -6  -2 45.0171 14.1209   4
   3  -6  -1 417.658 19.7289   4
  -3   6   1 461.016 24.0770   3
   3  -6   0 352.474 17.9638   4
  -3   6   0 366.364 21.2896   3
   3  -6   1 688.259 22.2305   4
  -3   6  -1 730.490 27.4191   3
  -3   6  -2 37.7714 16.5701   3
   3  -6   2 44.6020 11.6182   4
  -3   6  -3-12.9078 14.8676   3
   3  -6   3 8.17402 10.6570   4
  -3   6  -3-3.90267 16.7831   5
  -3   6  -4 64.4973 17.6783   5
  -3   6  -5 337.673 23.5558   5
  -3   6  -6 155.815 20.5051   5
  -3   6  -7 236.694 21.5029   5
  -3   6  -8 51.7036 19.2448   5
  -3   6  -9 87.6174 19.4342   5
  -3   6 -10 128.367 21.0405   5
  -3   6 -11 223.373 23.4762   5
  -3   6 -12 52.1792 21.8773   5
  -3   6 -13 214.046 21.4601   5
  -3   6 -14 125.691 19.6228   5
   3  -5 -13 36.5780 18.4071   4
   3  -5 -11 107.654 17.2054   4
  -3   5  10 64.6703 17.1435   3
   3  -5 -10 37.9366 15.2229   4
  -3   5   9-5.90807 18.1053   3
   3  -5  -9 37.8313 16.0031   4
  -3   5   8 29.3623 17.5097   3
   3  -5  -8 9.41376 14.5925   4
  -3   5   7 51.1468 18.4482   3
   3  -5  -7 108.706 17.2955   4
   3  -5  -6 102.014 16.1264   4
  -3   5   6 80.3902 17.0190   3
   3  -5  -5 224.579 18.8961   4
  -3   5   5 218.622 19.7393   3
   3  -5  -4 324.471 19.4365   4
  -3   5   4 337.381 20.7450   3
  -3   5   3 110.709 16.5170   3
   3  -5  -3 77.8349 15.0894   4
  -3   5   2 59.1339 15.2764   3
   3  -5  -2 39.7820 12.1053   4
  -3   5   1 51.6782 14.4067   3
   3  -5  -1 91.1680 12.9518   4
  -3   5   0-3.36880 13.7122   3
   3  -5   0-3.10104 10.6701   4
   3  -5   1 25.3358 10.9051   4
  -3   5  -1 11.5963 14.9144   3
  -3   5  -2 55.8155 16.6447   3
   3  -5   2 75.6498 11.2162   4
  -3   5  -3 13.6464 14.8929   3
   3  -5   3 14.7130 9.16298   4
  -3   5  -3 14.7178 15.2047   5
   3  -5   4-1.54374 9.76669   4
  -3   5  -4 17.0945 14.7407   3
  -3   5  -4 10.3379 13.9155   5
  -3   5  -5 7.82130 15.3944   5
  -3   5  -6 49.7783 16.9938   5
  -3   5  -7 31.4561 15.8015   5
  -3   5  -8 5.51833 17.4424   5
  -3   5  -9-5.65684 15.9311   5
  -3   5 -10-26.1957 18.3729   5
  -3   5 -11 9.96931 20.1423   5
  -3   5 -12-4.23045 18.7177   5
  -3   5 -13-37.3143 15.2195   5
  -3   5 -14-58.8660 15.4261   5
   3  -4 -14 132.332 27.0143   5
   3  -4 -13 85.5794 25.6907   5
   3  -4 -12-27.7239 23.3943   5
  -3   4  11 69.5743 22.6198   3
  -3   4  10 8.17668 17.8288   3
  -3   4   9-42.4544 18.8038   3
  -3   4   8 35.7429 17.0438   3
  -3   4   7 71.8389 17.1759   3
  -3   4   6 17.4944 16.1308   3
  -3   4   5 58.4220 15.8884   3
  -3   4   5 59.8106 12.8978   1
   3  -4  -4 149.574 15.8847   4
  -3   4   4 147.299 12.9195   1
  -3   4   4 156.416 18.3253   3
  -3   4   3 29.5759 10.1878   1
  -3   4   3 67.9111 14.9449   3
   3  -4  -3 54.1345 13.0902   4
  -3   4   2 11.3764 14.2087   3
  -3   4   2 36.7252 12.8110   1
   3  -4  -2 37.0576 12.3615   4
  -3   4   1 33.8769 13.9143   3
  -3   4   1 43.8052 9.42861   8
   3  -4  -1 56.7914 11.3729   4
  -3   4   0 28.5264 15.0385   3
   3  -4   0 25.8332 10.3492   4
   3  -4   1 241.750 12.8187   4
  -3   4  -1 256.726 17.9041   3
  -3   4  -2 3.35132 14.6924   3
   3  -4   2-21.0487 8.15338   4
  -3   4  -3 11.6746 14.1816   3
   3  -4   3 8.14417 8.21945   4
  -3   4  -3 2.23248 13.4284   5
  -3   4  -4 81.3643 15.8906   3
   3  -4   4 65.6640 9.57902   4
  -3   4  -4 80.2588 14.9074   5
  -3   4  -5 198.328 17.2709   5
  -3   4  -6 102.408 15.5631   5
  -3   4  -7 23.6096 14.4522   5
  -3   4  -8 28.5627 15.9942   5
  -3   4  -9-16.0728 16.4823   5
  -3   4 -10-22.7376 17.1112   5
  -3   4 -12 10.0991 15.4441   5
  -3   4 -13-5.66366 17.1684   5
  -3   4 -14 15.0194 13.8599   5
  -3   4 -15 26.5362 16.1291   5
   3  -3 -14 43.1873 28.3333   5
   3  -3 -13 28.1368 22.6514   5
   3  -3 -12 50.4732 23.7745   5
  -3   3  12-30.2693 21.4370   3
   3  -3 -11 53.5198 20.2291   5
  -3   3  11-14.0908 18.0441   3
   3  -3 -10 46.6621 20.6989   5
  -3   3  10-30.6995 18.6183   3
   3  -3  -9 34.2260 17.9775   5
  -3   3   9 51.9570 19.5617   3
   3  -3  -8 51.5747 19.3168   5
  -3   3   8 35.5035 17.2534   3
  -3   3   7-5.27144 15.9057   3
  -3   3   6 82.8855 15.9269   3
  -3   3   5 418.334 16.7580   1
  -3   3   5 458.213 21.5586   3
  -3   3   4 816.526 21.3259   1
  -3   3   4 893.080 26.5758   3
  -3   3   3-6.95332 10.4018   1
  -3   3   3 12.4365 13.5760   3
  -3   3   2 45.1872 11.8831   1
  -3   3   2 33.9262 13.1076   3
  -3   3   2 45.7494 7.93127   8
  -3   3   1 109.676 9.80693   8
  -3   3   1 127.458 13.0405   1
  -3   3   1 113.846 14.8594   3
   3  -3  -1 122.566 11.9222   4
  -3   3   0 358.337 14.0658   8
   3  -3   0 325.595 13.8809   4
  -3   3   0 325.259 17.2854   3
   3  -3   1 1749.53 24.5120   4
  -3   3  -1 1795.87 31.2145   3
  -3   3  -2 2384.06 23.4251   6
   3  -3   2 2366.71 26.3834   4
  -3   3  -2 2404.04 35.0632   3
  -3   3  -3 234.076 8.90177   6
  -3   3  -3 197.693 15.0571   5
   3  -3   3 251.663 10.4516   4
  -3   3  -3 250.788 15.6882   3
  -3   3  -4 63.5503 13.1120   3
   3  -3   4 49.2598 7.47468   4
  -3   3  -4 60.3140 13.6136   5
   3  -3   5 27.9003 9.70820   0
  -3   3  -5 0.60165 11.6163   5
   3  -3   6 104.202 11.9186   0
  -3   3  -6 65.3546 13.8648   5
   3  -3   7 112.114 12.0517   0
  -3   3  -7 77.3164 15.3905   5
  -3   3  -8-8.44196 14.4797   5
  -3   3  -9-14.5360 16.1690   5
  -3   3 -10-17.2104 16.1478   5
  -3   3 -11-13.2660 15.5188   5
  -3   3 -12-19.0977 14.7289   5
  -3   3 -13 45.6905 16.9982   5
  -3   3 -14 5.94309 16.2993   5
  -3   3 -15 91.4872 21.0583   5
  -3   3 -16-38.0312 18.3917   5
  -3   2  14 114.838 24.4770   3
  -3   2  13-25.4047 23.0226   3
  -3   2  12-5.82416 22.4150   3
   3  -2 -12-56.6712 19.5264   5
   3  -2 -11 7.62304 18.3485   5
  -3   2  11-3.26794 20.0177   3
   3  -2 -10-11.0389 19.4512   5
  -3   2  10 38.3591 17.5617   3
   3  -2  -9 268.211 22.1033   5
  -3   2   9 287.646 22.9568   3
   3  -2  -8 127.793 18.1749   5
  -3   2   8 72.1806 17.9406   3
   3  -2  -7 71.8264 16.2358   5
  -3   2   7 71.7827 16.8738   3
   3  -2  -6 52.6151 14.2793   5
  -3   2   6 76.3093 16.7893   3
   3  -2  -5 170.718 16.0629   5
  -3   2   5 192.448 17.4398   3
  -3   2   4 91.0197 11.2001   1
  -3   2   4 72.2514 15.6930   3
  -3   2   3 490.077 20.9890   3
  -3   2   3 428.898 16.5657   1
  -3   2   2 24.0183 10.8662   1
  -3   2   2 45.5249 14.6530   3
  -3   2   2 36.4125 7.17486   8
  -3   2   1 20.6425 11.3417   1
  -3   2   1 19.9476 13.6156   3
  -3   2   1 15.2931 8.37362   8
  -3   2   0 18.8187 9.29614   8
  -3   2   0 13.1205 10.3044   1
  -3   2   0 7.26764 12.6741   3
  -3   2  -1 493.744 16.0715   8
   3  -2   1 479.335 13.0608   4
  -3   2  -1 516.372 17.5797   1
  -3   2  -1 467.060 18.9046   3
   3  -2   2 3404.98 26.8381   4
  -3   2  -2 3475.89 30.1965   6
  -3   2  -2 3461.45 33.4553   5
  -3   2  -2 3422.63 38.9408   1
  -3   2  -2 3466.04 38.0887   3
  -3   2  -3 29.7540 8.28645   6
  -3   2  -3 37.7850 12.9086   3
   3  -2   3 43.0713 5.98857   4
  -3   2  -3 27.8471 11.0168   5
   3  -2   4 920.038 12.7394   4
  -3   2  -4 891.183 15.8849   6
  -3   2  -4 912.340 21.0929   5
  -3   2  -4 898.681 22.5255   3
  -3   2  -5 504.213 17.7287   5
  -3   2  -5 491.288 18.7442   3
   3  -2   5 458.471 9.23746   4
  -3   2  -6 71.8286 13.0354   5
   3  -2   7 1.22218 7.37811   0
  -3   2  -7 4.98177 13.3894   5
   3  -2   8 129.422 11.5078   0
  -3   2  -8 94.1161 16.1922   5
  -3   2  -9 9.14163 13.5944   5
  -3   2 -10 85.9466 16.2592   5
  -3   2 -11 34.2842 16.5155   5
  -3   2 -12 7.86433 16.5074   5
  -3   2 -14 9.00788 16.3377   5
  -3   2 -15 62.4226 16.5069   5
  -3   1  15-33.1825 24.8913   3
   3  -1 -14 152.734 28.5827   5
  -3   1  13-4.07041 24.2602   3
   3  -1 -13 103.468 22.4610   5
  -3   1  12 10.1127 17.6559   3
   3  -1 -12 80.3079 23.2545   5
   3  -1 -11 22.4897 21.0519   5
  -3   1  11 45.2640 21.4150   3
  -3   1  10 60.7145 20.2112   3
   3  -1 -10 63.5194 21.5536   5
  -3   1   9 10.7718 15.9625   3
   3  -1  -9 38.5533 16.9872   5
   3  -1  -8 21.6246 16.5121   5
  -3   1   8-7.40675 17.2791   3
  -3   1   7 33.2812 16.2729   3
   3  -1  -7 31.5523 13.6572   5
  -3   1   6 118.567 11.6953   2
   3  -1  -6 91.5488 9.98603   1
   3  -1  -6 131.565 15.4088   5
  -3   1   6 162.369 18.6370   3
   3  -1  -5 352.211 17.0168   5
   3  -1  -5 311.166 14.1006   1
  -3   1   5 339.090 20.0365   3
   3  -1  -4 107.422 12.7496   5
   3  -1  -4 84.1820 11.1079   1
  -3   1   4 85.9340 16.0549   3
   3  -1  -3 74.9901 10.9396   1
  -3   1   3 69.7305 14.8731   3
   3  -1  -2-3.99421 9.84008   1
  -3   1   2-0.42043 14.7220   3
  -3   1   1 132.619 10.1233   8
  -3   1   1 123.572 13.5237   1
   3  -1  -1 125.817 12.4881   1
  -3   1   1 110.386 15.0000   3
  -3   1   0 224.204 12.5740   8
  -3   1   0 228.948 14.6790   1
  -3   1   0 220.538 13.8174   3
  -3   1  -1 17.1456 10.6341   8
  -3   1  -1 27.8546 11.1542   3
  -3   1  -1 27.5445 11.8859   1
  -3   1  -2 1295.43 23.5582   8
  -3   1  -2 1325.81 21.1538   6
  -3   1  -2 1330.01 18.7927   5
  -3   1  -2 1362.18 25.0197   1
  -3   1  -2 1398.49 24.0923   3
   3  -1   3 649.431 9.05806   4
  -3   1  -3 625.285 15.2201   6
  -3   1  -3 620.436 14.8477   5
  -3   1  -3 634.801 18.5114   1
  -3   1  -3 630.870 17.7128   3
  -3   1  -4 600.420 15.1590   6
  -3   1  -4 637.493 15.9209   5
  -3   1  -4 597.177 18.0829   1
  -3   1  -4 607.063 17.0983   3
  -3   1  -5 851.458 19.8203   5
  -3   1  -5 849.277 19.9397   1
  -3   1  -5 818.907 19.8684   3
  -3   1  -6 270.637 13.4915   1
  -3   1  -6 275.880 14.8756   5
  -3   1  -7 111.220 13.8234   5
  -3   1  -7 109.561 10.5711   1
   3  -1   8 39.8500 8.01431   0
  -3   1  -8 6.59544 13.0216   5
  -3   1  -8 25.3502 8.54714   1
  -3   1  -9 0.32809 13.1004   5
  -3   1 -10 15.9860 14.3712   5
  -3   1 -11 10.1540 15.3125   5
  -3   1 -12 45.3493 17.7631   5
  -3   1 -13-12.7285 16.1932   5
  -3   1 -14 25.9062 16.9097   5
  -3   1 -15 47.7533 18.9847   5
   3   0 -15 128.735 25.6661   5
   3   0 -14 225.112 21.6108   5
  -3   0  14 68.2182 24.4353   3
  -3   0  13 81.8480 24.0788   3
   3   0 -13 49.5538 15.4888   5
   3   0 -12 4.51803 15.4188   5
  -3   0  12 41.0836 23.1775   3
  -3   0  11-29.4811 19.7448   3
   3   0 -11 18.8258 16.6302   5
  -3   0  10-20.8891 18.3047   3
   3   0 -10 26.8048 15.5865   5
   3   0  -9 573.806 22.9405   5
  -3   0   9 438.804 25.0970   3
  -3   0   8 1.49968 16.0824   3
   3   0  -8 27.1497 14.6606   5
  -3   0   7 4.49862 17.0138   3
   3   0  -7 15.9777 12.8281   5
  -3   0   6 13.8099 15.7852   3
   3   0  -6 13.3813 9.20934   1
  -3   0   6 19.2707 11.2707   2
   3   0  -6 1.52708 11.7495   5
  -3   0   5-2.67052 14.3397   3
  -3   0   5-0.73548 9.32487   2
   3   0  -5-9.73208 8.65185   1
   3   0  -5 16.1866 11.5102   5
  -3   0   4 86.6412 11.0864   2
   3   0  -4 116.071 11.5804   5
   3   0  -4 81.8246 10.7557   1
  -3   0   4 107.749 16.2863   3
   3   0  -3 88.1660 10.3081   5
   3   0  -3 88.3238 10.2787   1
  -3   0   3 101.851 14.8569   3
   3   0  -2 26.6525 9.58690   1
   3   0  -2 15.0112 8.36980   5
  -3   0   2 30.1501 12.9871   3
   3   0  -1 25.1002 10.7873   1
  -3   0   1 28.5535 11.2015   3
   3   0   0 76.2001 12.0806   1
  -3   0   0 102.827 12.5929   3
  -3   0   0 88.2512 10.5659   8
  -3   0  -1 38.8013 10.1838   8
   3   0   1 40.1321 9.61491   1
  -3   0  -1 53.4251 11.6499   3
  -3   0  -2 742.877 19.5861   8
  -3   0  -2 770.699 18.2915   6
  -3   0  -2 729.213 18.0927   1
  -3   0  -2 781.353 12.1847   5
   3   0   2 771.674 18.7686   1
  -3   0  -2 764.424 17.1330   3
  -3   0  -3 2083.38 26.4028   6
  -3   0  -3 2058.08 27.9895   1
  -3   0  -3 2048.59 29.8188   8
  -3   0  -3 2033.36 20.3739   5
   3   0   3 2130.39 27.4420   1
  -3   0  -3 2093.45 25.1675   3
  -3   0  -4 608.281 17.0462   6
  -3   0  -4 613.327 19.5438   8
  -3   0  -4 642.698 14.6342   5
  -3   0  -4 602.200 15.3493   3
  -3   0  -4 642.972 17.4554   1
  -3   0  -5 264.541 13.4026   6
  -3   0  -5 304.724 17.8014   8
  -3   0  -5 267.107 12.6855   5
  -3   0  -5 254.832 11.9402   3
  -3   0  -5 275.258 13.4057   1
  -3   0  -6 177.856 13.1804   5
  -3   0  -6 169.471 11.2962   1
  -3   0  -7 120.894 14.1250   7
  -3   0  -7 122.056 13.0150   5
  -3   0  -7 123.987 10.1098   1
  -3   0  -8 274.237 17.8350   7
  -3   0  -8 271.708 16.1636   5
  -3   0  -8 254.749 11.7601   1
  -3   0  -9 132.099 16.2504   7
  -3   0  -9 142.998 15.4297   5
  -3   0 -10 19.9657 14.5706   5
  -3   0 -10 58.5932 15.0157   7
  -3   0 -11 4.81862 14.6214   7
  -3   0 -11 21.5726 15.0608   5
  -3   0 -12 7.06267 15.5887   7
  -3   0 -12-40.4075 15.3075   5
  -3   0 -13-0.44912 16.9075   5
  -3   0 -14-47.8256 19.1328   5
  -3   0 -15-12.2628 20.4797   5
  -3   0 -16 6.21300 18.4645   5
   3   1 -15 478.803 28.8603   5
   3   1 -14 184.717 23.8852   5
  -3  -1  14 204.652 28.0679   3
  -3  -1  13 33.2210 22.3463   3
   3   1 -13 10.3647 15.8857   5
  -3  -1  12-70.9072 20.4023   3
   3   1 -12 129.562 18.7152   5
  -3  -1  11-18.0528 16.7593   3
   3   1 -11 29.2473 17.1146   5
   3   1 -10 8.69455 15.1051   5
  -3  -1  10 19.2237 20.1676   3
   3   1  -9 12.4089 14.5082   5
  -3  -1   9 32.7124 17.5904   3
  -3  -1   8 533.068 26.3534   3
   3   1  -8 523.683 22.2468   5
  -3  -1   7 32.7821 16.8927   3
   3   1  -7 1.33557 12.3191   5
  -3  -1   6-2.93699 15.9562   3
   3   1  -6 3.78001 11.0397   5
  -3  -1   5 34.7587 14.9512   3
  -3  -1   5 37.5072 10.1718   2
   3   1  -5 43.7600 10.5926   5
  -3  -1   4 182.052 13.8814   2
  -3  -1   4 181.764 16.2511   3
   3   1  -4 176.537 11.4337   5
  -3  -1   3 783.075 19.5281   2
   3   1  -3 783.849 15.7237   5
  -3  -1   3 785.182 21.5229   3
  -3  -1   2 2.38262 12.7329   3
  -3  -1   2 0.04497 9.11232   2
   3   1  -2 13.4596 6.45188   5
  -3  -1   1 1.40066 11.5343   3
   3   1  -1 5.17757 5.16596   5
  -3  -1   1 1.61079 11.7215   2
  -3  -1   0 7.27616 9.87485   2
  -3  -1   0 7.15634 10.6304   3
  -3  -1  -1 9.50149 11.3681   8
  -3  -1  -1 23.4336 10.4512   3
  -3  -1  -2 6.78353 12.1123   6
   3   1   2 9.16960 9.57852   1
  -3  -1  -2 12.9520 8.96685   3
  -3  -1  -2 5.93362 7.03739   4
  -3  -1  -2 7.01062 12.5957   8
  -3  -1  -3 2.36902 5.51998   4
  -3  -1  -3-1.30866 12.2815   7
  -3  -1  -3-1.00535 12.9807   8
  -3  -1  -3 5.11324 10.3252   6
  -3  -1  -3-0.38116 7.62840   3
   3   1   3-1.54865 9.62088   1
  -3  -1  -3 3.60347 5.64545   5
  -3  -1  -4 13.9293 11.5380   6
  -3  -1  -4 4.91178 13.9820   8
  -3  -1  -4 8.80392 7.09265   5
  -3  -1  -4 6.56192 12.9836   7
  -3  -1  -4 10.1922 7.33239   3
   3   1   4 3.93861 9.02513   1
  -3  -1  -5 14.4451 13.1954   7
   3   1   5 5.02359 7.90101   1
  -3  -1  -5 20.1845 8.83491   5
  -3  -1  -5 12.3808 14.1649   8
  -3  -1  -5 16.7174 7.11428   3
  -3  -1  -5 11.2782 11.6515   6
  -3  -1  -6 36.1552 13.2777   7
   3   1   6 33.2719 7.65323   1
  -3  -1  -6 35.3488 10.0591   5
  -3  -1  -6 44.6399 12.9176   8
  -3  -1  -7 10.8925 14.7878   8
  -3  -1  -7 2.80390 3.28969   4
  -3  -1  -7 11.0845 10.1534   5
  -3  -1  -7 3.88816 14.2435   7
  -3  -1  -8 22.7282 14.2554   8
  -3  -1  -8 22.1376 14.4164   7
  -3  -1  -8 25.6234 12.9776   5
  -3  -1  -9 51.1951 14.8970   7
  -3  -1  -9 69.9219 13.9439   5
  -3  -1 -10 165.008 18.0011   7
  -3  -1 -10 175.476 17.4346   5
  -3  -1 -11 8.57130 14.9323   7
  -3  -1 -11-9.03393 16.4021   5
  -3  -1 -12 9.75174 15.6096   7
  -3  -1 -12-18.8671 16.8889   5
  -3  -1 -13 8.11474 17.3208   7
  -3  -1 -13-2.46041 18.7709   5
  -3  -1 -14 29.4880 16.8914   5
  -3  -1 -15-70.4275 18.6715   5
  -3  -1 -16-14.4577 20.9559   5
  -3  -2  15-54.2174 29.3199   3
   3   2 -15 501.367 29.1795   5
  -3  -2  14 93.3159 25.9273   3
   3   2 -14 49.3939 19.8245   5
  -3  -2  13 7.02316 24.3969   3
   3   2 -13 74.6261 17.2033   5
  -3  -2  12 47.7906 22.2928   3
  -3  -2  11 167.442 22.7521   3
   3   2 -11 100.428 18.1653   5
  -3  -2  10 85.1604 20.9740   3
   3   2 -10 60.7111 16.8223   5
  -3  -2   9 305.722 24.6352   3
   3   2  -9 267.830 19.4892   5
   3   2  -8 713.027 25.0267   5
  -3  -2   8 650.561 28.5905   3
  -3  -2   7 157.827 20.3341   3
   3   2  -7 128.029 14.1838   5
  -3  -2   6 33.4595 16.6877   3
   3   2  -6 32.5696 11.4115   5
   3   2  -5 137.245 12.2307   5
  -3  -2   5 112.487 15.8829   3
   3   2  -5 130.935 13.5069   2
   3   2  -4 11.4101 10.7137   2
  -3  -2   4 6.39448 13.5092   3
   3   2  -4 12.1189 8.64990   5
   3   2  -3 29.7918 12.4794   2
  -3  -2   3 48.0001 11.9180   3
   3   2  -3 30.7361 7.40315   5
   3   2  -2 833.078 21.5292   2
  -3  -2   2 852.947 20.8899   2
  -3  -2   2 867.372 21.3694   3
   3   2  -2 826.894 13.3757   5
  -3  -2   2 857.753 23.0933   4
  -3  -2   1 409.758 14.7786   3
   3   2  -1 418.613 15.1351   2
   3   2  -1 415.912 8.16897   5
  -3  -2   1 427.967 16.6992   2
  -3  -2   1 404.773 16.7119   4
  -3  -2   0 99.6887 13.9224   2
  -3  -2   0 117.263 9.96679   7
  -3  -2   0 107.657 12.9653   4
  -3  -2   0 122.725 11.3826   3
   3   2   0 95.8318 12.0509   2
  -3  -2  -1 303.576 15.7091   6
  -3  -2  -1 328.561 14.4959   2
  -3  -2  -1 341.964 13.2849   7
  -3  -2  -1 317.185 13.3407   4
  -3  -2  -1 340.233 12.0074   3
  -3  -2  -2 256.167 13.8154   2
  -3  -2  -2 228.637 14.2692   7
  -3  -2  -2 219.292 14.3917   6
  -3  -2  -2 223.464 9.40050   3
  -3  -2  -2 238.629 11.0405   4
  -3  -2  -2 221.654 15.3963   8
  -3  -2  -3 980.880 21.5114   6
  -3  -2  -3 952.942 19.8225   2
  -3  -2  -3 967.509 12.0644   5
  -3  -2  -3 948.381 22.5309   8
  -3  -2  -3 994.107 22.0896   7
  -3  -2  -3 917.983 13.2722   3
  -3  -2  -3 932.190 15.4080   4
  -3  -2  -4 6421.96 50.5262   7
  -3  -2  -4 6412.93 49.3315   6
  -3  -2  -4 6320.59 44.0280   2
  -3  -2  -4 6421.87 50.5245   8
  -3  -2  -4 6303.98 35.7279   5
  -3  -2  -4 6370.24 29.3624   3
  -3  -2  -4 6358.74 33.0564   4
  -3  -2  -5 18.6262 13.3749   7
  -3  -2  -5 5.41085 13.3084   8
  -3  -2  -5 0.96163 8.46433   2
  -3  -2  -5-3.78343 5.69004   4
  -3  -2  -5-1.49569 8.89463   5
  -3  -2  -5-1.36012 12.7121   6
  -3  -2  -6 306.153 16.3709   8
  -3  -2  -6 314.770 11.9320   2
  -3  -2  -6 306.086 8.94782   4
  -3  -2  -6 334.390 14.2813   5
  -3  -2  -6 303.666 16.9226   7
   3   2   6 311.009 11.4946   1
  -3  -2  -7 308.431 18.0658   8
  -3  -2  -7 332.647 11.7263   2
  -3  -2  -7 338.282 18.0354   7
  -3  -2  -7 329.366 9.34926   4
  -3  -2  -7 325.462 15.5356   5
   3   2   7 328.137 10.6317   1
  -3  -2  -8 149.267 7.98989   4
  -3  -2  -8 145.950 16.5167   7
  -3  -2  -8 144.597 8.53080   2
  -3  -2  -8 160.878 15.1144   5
  -3  -2  -8 127.477 14.8487   8
  -3  -2  -9 16.7965 13.4729   8
  -3  -2  -9 5.41161 14.1785   7
  -3  -2  -9-10.1080 13.2572   5
  -3  -2 -10 1442.27 32.2919   8
  -3  -2 -10 1367.22 33.7045   7
  -3  -2 -10 1367.63 32.8720   5
  -3  -2 -11-0.43701 16.3917   7
  -3  -2 -11-10.9932 13.7956   8
  -3  -2 -11-6.81313 16.2927   5
  -3  -2 -12 7.22990 15.6746   7
  -3  -2 -12 22.3113 18.2805   5
  -3  -2 -12-8.86435 16.2537   8
  -3  -2 -13-9.18337 18.2502   7
  -3  -2 -13-5.19410 18.3960   5
  -3  -2 -15 33.4952 19.6307   5
  -3  -2 -16 62.9285 22.9008   5
  -3  -2 -17 133.296 22.2542   5
  -3  -3  14 185.718 30.2989   3
  -3  -3  13 6.78794 22.3121   3
   3   3 -13-55.2648 18.6703   5
  -3  -3  12 47.7079 23.8762   3
   3   3 -12-13.0221 16.7874   5
  -3  -3  11 183.295 23.0709   3
   3   3 -11 83.0690 18.4598   5
   3   3 -10 223.564 19.7698   5
  -3  -3  10 239.897 23.8522   3
  -3  -3   9 335.457 24.7714   3
   3   3  -9 372.658 20.9772   5
  -3  -3   8 2446.83 46.9212   3
   3   3  -8 2519.03 40.9073   5
   3   3  -7 920.505 24.5564   5
   3   3  -7 932.738 25.9484   2
  -3  -3   7 954.269 30.7561   3
  -3  -3   6 227.983 19.5436   3
   3   3  -6 221.617 14.8215   5
   3   3  -6 202.168 16.6298   2
   3   3  -5 29.0037 14.0864   2
  -3  -3   5 42.0122 14.9860   3
   3   3  -5 57.1197 10.9883   5
  -3  -3   4 90.9811 17.2938   4
   3   3  -4 98.1778 10.0083   5
  -3  -3   4 86.4970 14.6916   3
   3   3  -4 106.136 14.4466   2
  -3  -3   3 5.91125 13.1945   4
   3   3  -3 1.19089 12.6351   2
  -3  -3   3 16.3808 12.2889   3
   3   3  -3 14.7218 7.81804   5
  -3  -3   2 321.819 15.3322   3
   3   3  -2 288.297 15.1750   2
   3   3  -2 305.667 9.93088   5
  -3  -3   2 317.130 18.3131   4
  -3  -3   1 819.568 19.0027   3
   3   3  -1 774.538 20.3168   2
  -3  -3   1 804.566 14.3976   7
   3   3  -1 792.907 12.1988   5
  -3  -3   1 829.053 21.9342   4
   3   3   0 10.7458 13.0586   2
  -3  -3   0 1.24771 12.1830   4
  -3  -3   0-2.39990 9.26973   3
  -3  -3   0 3.56845 8.02553   7
   3   3   0 4.90758 4.36197   5
  -3  -3  -1 570.470 19.5742   6
   3   3   1 614.864 19.3354   2
  -3  -3  -1 569.189 13.5349   3
  -3  -3  -1 573.636 15.4924   7
  -3  -3  -1 579.516 17.7463   4
   3   3   2 735.758 20.2487   2
  -3  -3  -2 756.008 18.3411   7
  -3  -3  -2 728.743 21.1255   6
  -3  -3  -2 693.069 12.5310   3
  -3  -3  -2 737.557 17.9419   4
   3   3   3 936.246 20.0693   2
  -3  -3  -3 909.248 22.6479   6
  -3  -3  -3 960.258 21.8100   7
  -3  -3  -3 891.539 11.4911   3
  -3  -3  -3 894.577 17.7685   4
   3   3   4 2370.27 28.7343   2
  -3  -3  -4 2363.49 32.7505   7
  -3  -3  -4 2337.54 32.6164   8
  -3  -3  -4 2286.84 25.5602   4
  -3  -3  -4 2255.84 32.3563   6
  -3  -3  -4 2274.91 23.4935   5
  -3  -3  -5 1142.26 18.1780   4
  -3  -3  -5 1141.49 19.8170   5
  -3  -3  -5 1085.74 24.2944   6
  -3  -3  -5 1213.43 26.6595   7
  -3  -3  -5 1113.12 24.0870   8
  -3  -3  -6 13.4809 11.1981   8
  -3  -3  -6 11.0968 12.3879   7
  -3  -3  -6 9.92070 7.18452   4
  -3  -3  -6 41.2128 9.46465   5
  -3  -3  -7 50.6408 12.2921   8
  -3  -3  -7 25.5224 14.7078   7
  -3  -3  -7 37.7916 11.3780   5
  -3  -3  -7 40.2865 6.85911   4
  -3  -3  -8 75.2462 13.6560   8
  -3  -3  -8 61.2469 15.9452   7
  -3  -3  -8 71.3088 8.08458   4
  -3  -3  -8 92.8397 13.7016   5
  -3  -3  -9 50.4131 8.92004   4
  -3  -3  -9 87.1177 15.1934   5
  -3  -3  -9 37.9963 15.2241   7
  -3  -3  -9 25.5443 13.3048   8
  -3  -3 -10-22.9234 14.6243   7
  -3  -3 -10 33.0319 16.3373   5
  -3  -3 -10 19.1983 14.2453   8
  -3  -3 -11 94.4541 17.9725   7
  -3  -3 -11 132.316 18.7418   5
  -3  -3 -11 73.1020 15.2905   8
  -3  -3 -12 66.1933 19.6592   5
  -3  -3 -12 2.32038 15.3911   7
  -3  -3 -13 39.8418 17.1318   7
  -3  -3 -13 41.6971 18.2298   5
  -3  -3 -14-21.3127 17.5189   7
  -3  -3 -14 19.4581 19.2978   5
  -3  -3 -15 17.2185 18.9688   5
  -3  -3 -16 84.6304 24.3583   5
  -3  -3 -17 296.605 28.1844   5
  -3  -4  14 30.2818 24.5948   3
  -3  -4  13 62.6609 27.0453   3
   3   4 -12 46.5400 14.4468   5
  -3  -4  11 62.5063 24.4292   3
   3   4 -11-50.4867 14.5992   5
   3   4 -10 63.5111 13.4002   5
  -3  -4  10 58.4718 21.3781   3
   3   4  -9 246.158 18.4010   5
  -3  -4   9 188.801 21.7784   3
  -3  -4   8 484.283 26.2929   3
   3   4  -8 407.817 20.7993   5
   3   4  -7-22.2752 12.6314   5
  -3  -4   7 5.82631 18.2329   3
  -3  -4   6 673.371 25.9291   3
   3   4  -6 622.643 20.3878   5
  -3  -4   6 676.924 28.4884   4
   3   4  -5 51.8991 10.4932   5
  -3  -4   5 72.5081 16.5540   3
  -3  -4   5 83.5450 19.6095   4
   3   4  -4 15.0030 14.2424   2
   3   4  -4-0.06784 8.77070   5
  -3  -4   4 4.96953 16.6223   4
  -3  -4   4 8.49893 13.6357   3
  -3  -4   3 19.1744 16.1478   4
   3   4  -3 29.6485 14.6388   2
   3   4  -3 16.7405 8.63897   5
  -3  -4   3 23.9590 12.6495   3
  -3  -4   2 162.371 13.2645   3
  -3  -4   2 159.201 7.89958   7
   3   4  -2 112.188 14.1203   2
   3   4  -2 147.767 10.0015   5
  -3  -4   2 109.706 17.4907   4
  -3  -4   1 137.351 12.4759   3
  -3  -4   1 130.671 8.75243   7
   3   4  -1 145.589 8.84112   5
   3   4  -1 125.012 16.3516   2
  -3  -4   1 152.941 15.4604   4
  -3  -4   0 288.986 13.0302   3
  -3  -4   0 282.016 16.7738   6
  -3  -4   0 313.416 12.2701   7
   3   4   0 310.207 17.7233   2
   3   4   0 301.187 9.67593   5
  -3  -4   0 309.791 17.8814   4
  -3  -4  -1 1.63833 9.41400   7
  -3  -4  -1-0.67709 10.9781   4
  -3  -4  -1 16.4813 13.1004   6
   3   4   1 5.62320 13.1796   2
  -3  -4  -1-0.99570 7.49443   3
  -3  -4  -2 135.372 8.24946   3
  -3  -4  -2 108.199 14.1178   6
  -3  -4  -2 148.702 13.1002   7
   3   4   2 175.838 16.0795   2
  -3  -4  -2 128.721 13.3251   4
   3   4   3 203.752 14.4596   2
  -3  -4  -3 210.111 15.3807   6
  -3  -4  -3 203.389 14.1147   7
  -3  -4  -3 188.845 6.35656   3
  -3  -4  -3 198.195 13.1697   4
  -3  -4  -4 381.252 17.2830   7
   3   4   4 389.526 14.9663   2
  -3  -4  -4 358.451 17.2010   6
  -3  -4  -4 360.179 14.6747   4
  -3  -4  -5 608.318 16.8255   4
  -3  -4  -5 660.804 22.0187   7
  -3  -4  -5 588.228 16.9120   5
   3   4   5 644.445 17.7496   2
   3   4   6 336.109 13.5351   2
  -3  -4  -6 309.395 18.7651   7
  -3  -4  -6 313.889 13.3706   4
  -3  -4  -6 300.612 14.8741   5
  -3  -4  -6 318.942 16.4105   8
  -3  -4  -7 39.4348 11.8089   8
  -3  -4  -7 33.1167 14.7173   7
  -3  -4  -7 47.9746 9.43800   4
  -3  -4  -7 42.0600 12.6598   5
   3   4   7 29.9726 8.58487   2
  -3  -4  -8 14.7090 11.1252   8
  -3  -4  -8 20.3374 14.9315   7
  -3  -4  -8 3.43667 8.31436   4
  -3  -4  -8 18.7509 13.6186   5
  -3  -4  -9-11.5307 15.1157   7
  -3  -4  -9-8.80303 14.2316   5
  -3  -4  -9 12.5319 8.75947   4
  -3  -4  -9 0.00000 11.0315   8
  -3  -4 -10 14.1851 11.5123   8
  -3  -4 -10 14.5736 16.6855   7
  -3  -4 -10 35.5247 16.2145   5
  -3  -4 -11 228.044 21.1588   7
  -3  -4 -11 232.114 20.1562   5
  -3  -4 -12 75.1897 18.2411   7
  -3  -4 -12 139.207 20.4408   5
  -3  -4 -13-22.1725 17.1998   7
  -3  -4 -13 49.9528 19.8503   5
  -3  -4 -14 46.6889 17.7462   7
  -3  -4 -14 74.6434 20.3818   5
  -3  -4 -15 55.1852 16.0798   7
  -3  -4 -15 97.5235 24.1893   5
  -3  -4 -16 40.2055 22.3720   5
  -3  -4 -17 10.9940 28.9091   5
  -3  -5  13 104.740 25.4724   3
   3   5 -12 92.2294 16.4197   5
  -3  -5  12-3.68322 22.2136   3
   3   5 -11 42.0591 12.9661   5
  -3  -5  11 12.9913 23.0604   3
  -3  -5  10 22.5650 18.3517   3
   3   5  -9 10.5702 10.2164   5
  -3  -5   9-4.46726 20.4048   3
   3   5  -8 62.5540 13.9198   5
  -3  -5   8 51.7587 18.2971   3
   3   5  -7 56.9584 13.1952   5
  -3  -5   7 71.8346 18.5484   3
  -3  -5   7 58.0339 20.7987   4
   3   5  -6 59.2479 12.3560   5
  -3  -5   6 54.1738 21.4746   4
  -3  -5   6 63.4857 18.0230   3
  -3  -5   5-14.3520 18.8818   4
   3   5  -5-49.5902 10.6319   5
  -3  -5   4 23.7866 18.0093   4
   3   5  -4 36.7916 11.0361   5
  -3  -5   3 8.04715 16.4336   4
   3   5  -3 27.9313 10.0099   5
  -3  -5   2 1.28523 15.2348   4
  -3  -5   2 11.8875 6.82528   7
   3   5  -2 16.6438 9.35526   5
  -3  -5   1 1983.71 24.5760   7
  -3  -5   1 2001.10 32.2890   6
   3   5  -1 1969.93 24.8712   5
  -3  -5   1 1970.85 35.6812   4
  -3  -5   0 833.552 22.4695   6
   3   5   0 833.926 16.9687   5
  -3  -5   0 833.444 25.2992   4
  -3  -5  -1 14.3384 13.7914   4
  -3  -5  -1 15.3420 12.9820   6
  -3  -5  -2 26.5338 11.8596   6
  -3  -5  -2 34.9073 12.4729   4
  -3  -5  -3 39.5312 5.37956   3
  -3  -5  -3 53.6096 13.5445   4
  -3  -5  -3 39.6755 11.7757   6
  -3  -5  -4 60.4530 13.7040   6
   3   5   4 78.0960 13.1648   2
  -3  -5  -4 45.1631 12.0449   4
  -3  -5  -5 47.2387 15.4298   7
   3   5   5 43.9066 11.0698   2
  -3  -5  -5 43.8456 11.2152   4
  -3  -5  -6 8.52544 15.3906   7
   3   5   6-9.31142 10.0770   2
  -3  -5  -6 8.29353 10.1687   4
  -3  -5  -7-0.89168 14.5029   7
   3   5   7-13.2098 9.38950   2
  -3  -5  -7-4.31710 9.54831   4
  -3  -5  -7-2.23892 12.9148   5
  -3  -5  -8-3.46537 9.99915   4
  -3  -5  -8-2.55315 15.4885   7
  -3  -5  -8 0.44526 13.3411   5
  -3  -5  -9 6.86720 15.6453   7
  -3  -5  -9 9.91645 15.9228   5
  -3  -5  -9 3.80027 9.66235   4
  -3  -5 -10-18.8075 14.8709   7
  -3  -5 -10 8.31178 17.1798   5
  -3  -5 -10-7.40301 9.47871   4
  -3  -5 -11 76.5279 17.6027   7
  -3  -5 -11 92.3559 19.5938   5
  -3  -5 -12 39.4845 16.7097   7
  -3  -5 -12 57.2144 21.0324   5
  -3  -5 -13 12.1097 16.9271   7
  -3  -5 -13 13.8330 19.5629   5
  -3  -5 -14 18.0471 18.0225   7
  -3  -5 -14 19.1772 22.2248   5
  -3  -5 -15-26.0244 19.8021   7
  -3  -5 -16-39.3789 25.0468   5
  -3  -5 -17-72.2994 27.8743   5
  -3  -6  12 118.454 29.0783   3
   3   6 -11 45.0557 13.2378   5
  -3  -6  11-31.0175 20.4944   3
   3   6 -10-18.8251 12.5568   5
  -3  -6  10 12.9958 22.7075   3
   3   6  -9-54.5984 12.1791   5
  -3  -6   9 6.65228 20.0728   3
  -3  -6   8-9.05943 21.7284   4
   3   6  -8-39.4081 11.1004   5
  -3  -6   7-5.95398 21.1678   4
   3   6  -7-0.36808 11.1764   5
   3   6  -6 730.673 24.3601   5
  -3  -6   6 714.789 31.6626   4
  -3  -6   5 11.4201 18.4971   4
   3   6  -5 31.3883 12.5633   5
   3   6  -4 128.575 14.0000   5
  -3  -6   4 103.880 20.3897   4
  -3  -6   3 130.166 21.0955   4
   3   6  -3 132.963 13.1088   5
  -3  -6   2 91.6454 18.4998   4
   3   6  -2 79.7293 12.1055   5
  -3  -6   2 104.210 14.7920   6
  -3  -6   1 603.928 21.4177   6
   3   6  -1 642.329 17.8954   5
  -3  -6   1 603.743 25.6608   4
  -3  -6   0 2517.80 36.6342   6
   3   6   0 2555.18 31.1282   5
  -3  -6   0 2477.39 41.1228   4
  -3  -6  -1 156.127 14.3185   6
  -3  -6  -1 169.971 18.3251   4
  -3  -6  -2 75.0904 12.8747   6
  -3  -6  -2 62.7429 14.1767   4
  -3  -6  -3 117.423 14.0197   6
  -3  -6  -3 92.0287 15.3188   4
  -3  -6  -4 128.023 14.6332   4
  -3  -6  -4 128.166 14.7849   6
  -3  -6  -5 225.510 15.8695   4
  -3  -6  -6 1.10355 11.0945   4
  -3  -6  -7 5.80431 11.4886   4
  -3  -6  -8 23.1132 16.1478   7
  -3  -6  -8 10.8279 10.6935   4
  -3  -6  -9 77.9135 18.7517   7
  -3  -6  -9 72.2650 17.3563   5
  -3  -6  -9 57.4033 12.5867   4
  -3  -6 -10 54.6232 17.7883   7
  -3  -6 -10 69.8305 18.6193   5
  -3  -6 -10 48.8178 13.4883   4
  -3  -6 -11 183.085 16.2130   4
  -3  -6 -11 188.401 20.8800   7
  -3  -6 -11 181.200 23.0471   5
  -3  -6 -12 20.7476 16.1846   7
  -3  -6 -12 22.7270 20.4486   5
  -3  -6 -13 29.8079 17.1810   7
  -3  -6 -13-5.56659 23.0458   5
  -3  -6 -14 41.6935 24.1278   5
  -3  -6 -14 26.6503 18.1343   7
  -3  -6 -15 115.116 31.0051   5
  -3  -6 -16 82.8818 30.3003   5
  -3  -6 -16 110.570 17.3126   7
  -3  -7  11 92.2670 23.5115   3
  -3  -7  10-60.6378 22.9240   3
   3   7  -9-44.1279 12.9448   5
  -3  -7   9 20.1886 22.8774   4
  -3  -7   8 38.7180 20.8235   4
   3   7  -8-23.6021 11.3901   5
  -3  -7   7 25.4885 20.5651   4
  -3  -7   6 9.52799 20.2029   4
   3   7  -6 15.5042 13.3695   5
  -3  -7   5 1.76283 21.1872   4
   3   7  -5 17.3595 12.3907   5
  -3  -7   4-2.86805 19.5009   4
   3   7  -4 29.5737 11.9394   5
  -3  -7   3 37.6575 20.8374   4
  -3  -7   3 22.3752 13.4773   6
   3   7  -3 6.93734 12.1397   5
  -3  -7   2 15.7109 18.0520   4
  -3  -7   2 13.5052 13.1802   6
   3   7  -2 6.23151 11.9221   5
  -3  -7   1-0.63697 17.5524   4
  -3  -7   1 3.41194 12.3408   6
   3   7  -1-7.39602 11.1849   5
  -3  -7   0 7.12321 16.6917   4
  -3  -7   0-6.43913 11.8062   6
   3   7   0 2.29289 11.5019   5
  -3  -7  -1 45.1878 16.4406   4
  -3  -7  -1 32.1965 11.5774   6
  -3  -7  -2 96.0570 13.2617   6
  -3  -7  -2 79.8640 16.4640   4
  -3  -7  -3-0.25681 11.6641   6
  -3  -7  -3-5.86340 14.9345   4
  -3  -7  -4 44.3784 16.4269   4
  -3  -7  -5 96.5977 15.1309   4
  -3  -7  -6 109.924 14.2884   4
  -3  -7  -7 126.992 14.5433   4
  -3  -7  -8 42.1595 13.4976   4
  -3  -7  -9 24.4435 9.53573   4
  -3  -7 -10 5.83994 17.4451   7
  -3  -7 -10-7.12880 12.3601   4
  -3  -7 -11 28.0977 18.8231   7
  -3  -7 -11 28.5687 12.7886   4
  -3  -7 -12 22.9100 17.1738   7
  -3  -7 -12-14.5712 20.0486   5
  -3  -7 -13-43.0165 16.5858   7
  -3  -7 -13 48.4118 25.1695   5
  -3  -7 -14 63.5160 21.2105   7
  -3  -7 -16 39.1594 19.3722   7
  -3  -8  10 40.9858 25.8935   4
  -3  -8   9 40.7856 23.2963   4
  -3  -8   8 76.2971 24.7773   4
  -3  -8   7 33.3694 24.3658   4
  -3  -8   6 31.3916 23.1981   4
   3   8  -6-16.9845 14.3579   5
   3   8  -5 50.2278 14.7255   5
  -3  -8   5 21.9784 21.1125   4
  -3  -8   4-1.95214 19.7207   4
   3   8  -4 19.9626 13.8523   5
  -3  -8   3 10.1141 20.7935   4
   3   8  -3 27.9939 14.1869   5
   3   8  -2 65.5350 13.6713   5
  -3  -8   2 40.5306 20.1012   4
  -3  -8   1 40.4057 19.6644   4
   3   8  -1 48.8638 14.0270   5
  -3  -8   0 30.8810 18.3204   4
   3   8   0 14.0712 12.9598   5
  -3  -8  -1 60.0562 12.2309   6
  -3  -8  -1 68.7824 19.4838   4
  -3  -8  -2 10.3429 11.3689   6
  -3  -8  -2 12.7438 16.9123   4
  -3  -8  -3 179.461 20.5979   4
  -3  -8  -4 123.510 19.2452   4
  -3  -8  -5-12.5497 16.7194   4
  -3  -8  -6 16.2535 16.6865   4
  -3  -8  -7 297.384 20.9665   4
  -3  -8  -8 239.118 19.8967   4
  -3  -8  -9 83.9855 16.4797   4
  -3  -8 -10 50.6574 14.3351   4
  -3  -8 -11 10.6808 19.4528   7
  -3  -8 -11 47.3723 15.4869   4
  -3  -8 -12 38.9972 21.5610   7
  -3  -8 -12-26.0458 12.2769   4
  -3  -8 -13-11.8445 21.3820   7
  -3  -8 -14 1.90148 18.9293   7
  -3  -8 -15 37.0156 17.4386   7
  -3  -9   8-59.7374 25.1872   4
  -3  -9   7-63.8446 25.3503   4
  -3  -9   6-39.7961 24.3829   4
  -3  -9   5-15.0631 21.9859   4
   3   9  -5 70.2308 16.2568   5
  -3  -9   4 10.3018 21.0240   4
   3   9  -4 5.38352 13.5594   5
  -3  -9   3 39.0837 20.7753   4
   3   9  -3 51.6626 16.1846   5
  -3  -9   2 70.3707 23.3604   4
   3   9  -2 69.1029 15.8075   5
  -3  -9   1 117.413 21.9096   4
   3   9  -1 73.5494 16.1944   5
  -3  -9   0 15.2857 20.5905   4
   3   9   0-18.2178 14.3457   5
  -3  -9  -1 361.428 26.0709   4
  -3  -9  -2 355.403 25.4867   4
  -3  -9  -3 37.1194 19.5789   4
  -3  -9  -4 104.745 21.8705   4
  -3  -9  -5 56.4476 17.8603   4
  -3  -9  -6 1.16225 18.2182   4
  -3  -9  -7-13.8422 16.6043   4
  -3  -9  -8-31.1261 12.7798   4
  -3  -9  -9 69.5769 18.2550   4
  -3  -9 -10 35.2820 15.1517   4
  -3  -9 -11 7.84083 15.3667   4
  -3  -9 -12-47.9678 20.8555   7
  -3  -9 -12-54.2149 12.8927   4
  -3  -9 -13 73.5222 22.4348   7
  -3  -9 -14-57.7312 18.8057   7
  -3 -10   9 134.291 34.3615   4
  -3 -10   8 33.9788 31.5266   4
  -3 -10   7 37.6095 26.8808   4
  -3 -10   6 40.3838 23.9537   4
  -3 -10   5 31.7299 21.6267   4
  -3 -10   4 38.9577 23.0877   4
  -3 -10   3 49.7029 22.9020   4
  -3 -10   2 94.9638 25.3181   4
   3  10  -2 11.0053 15.3204   5
  -3 -10   1 106.860 24.6847   4
   3  10  -1 86.9950 18.5084   5
  -3 -10   0 107.539 25.0951   4
   3  10   0 50.7373 15.8888   5
  -3 -10  -1 383.005 29.4799   4
  -3 -10  -2 52.1098 21.4882   4
  -3 -10  -3 310.888 27.9244   4
  -3 -10  -4 70.4944 20.3307   4
  -3 -10  -5 15.6101 20.7666   4
  -3 -10  -7 85.3420 19.3877   4
  -3 -10  -8 44.3688 19.6701   4
  -3 -10  -9-49.3585 14.6765   4
  -3 -10 -10 66.8124 18.9870   4
  -3 -10 -12 40.1840 16.2217   4
  -3 -10 -13 58.2002 18.8793   7
  -3 -11   8 222.715 41.5707   4
  -3 -11   7 142.824 33.3169   4
  -3 -11   6 89.2295 29.1853   4
  -3 -11   5 102.368 31.0896   4
  -3 -11   4 126.594 32.0590   4
  -3 -11   3 135.211 27.0816   4
  -3 -11   2 88.2879 26.5712   4
  -3 -11   1 72.4922 27.4556   4
  -3 -11   0 94.1139 27.6572   4
   3  11   0 69.8333 19.4859   5
  -3 -11  -1 91.1004 25.6505   4
   3  11   1 17.8846 18.5213   5
  -3 -11  -2 18.1528 21.7380   4
  -3 -11  -3-7.29593 22.5867   4
  -3 -11  -4-19.1357 23.7422   4
  -3 -11  -5 46.0515 24.0132   4
  -3 -11  -6 14.1308 20.9234   4
  -3 -11  -8 23.0415 20.6574   4
  -3 -11  -9 44.8290 19.6978   4
  -3 -11 -10 23.6652 15.1472   4
  -3 -11 -11-31.8175 19.5763   4
  -3 -11 -12 95.3547 18.8495   4
  -3 -12   5 65.2336 28.2222   4
  -3 -12   4 94.8160 35.1400   4
  -3 -12   3 78.0648 27.5453   4
  -3 -12   2 122.561 31.0416   4
  -3 -12   1 80.7478 25.7621   4
  -3 -12   0-14.6972 30.2984   4
  -3 -12  -1 0.08051 26.6986   4
  -3 -12  -2 2.88083 23.2381   4
  -3 -12  -3-3.34253 21.8761   4
  -3 -12  -4 69.9099 25.4025   4
  -3 -12  -5 39.9110 27.7271   4
  -3 -12  -6-20.7345 20.3182   4
  -3 -12  -7-25.2095 27.7199   4
  -3 -13   1-76.5285 31.0771   4
  -3 -13   0-49.3802 32.2957   4
  -3 -13  -1 10.7907 30.5387   4
  -3 -13  -2 69.9873 29.6746   4
  -3 -13  -3 31.5872 28.3950   4
  -3 -13  -4-66.2031 22.6567   4
  -3 -13  -5 14.9733 29.4805   4
  -3 -13  -6 114.588 27.6310   4
  -4  11   2 78.0180 22.9640   3
  -4  11   1 49.0520 19.0289   3
   4 -10  -5 18.7795 21.7750   4
   4 -10  -4 107.557 20.3039   4
   4 -10  -2 25.8814 16.3003   4
  -4  10   2 118.396 23.8565   3
  -4  10   1-0.92676 18.0594   3
   4 -10  -1 105.779 14.0856   4
  -4  10  -1-3.88140 18.6925   3
  -4  10  -2 5.21997 27.0103   5
  -4  10  -3-6.89467 24.8399   5
  -4  10  -4 2.14848 23.6543   5
  -4  10  -5 36.8190 26.0404   5
   4  -9  -7 65.8625 19.0576   4
   4  -9  -5 160.727 14.7515   4
  -4   9   5 165.988 22.3374   3
   4  -9  -4-59.6400 14.4175   4
  -4   9   3 14.9371 17.1586   3
   4  -9  -3-19.1589 16.2943   4
  -4   9   2 58.9979 18.1443   3
   4  -9  -2 113.865 15.9744   4
  -4   9   1-47.1721 16.3050   3
   4  -9  -1 94.2796 15.3160   4
  -4   9   0-56.0657 19.6518   3
  -4   9  -1-7.98915 17.3062   3
  -4   9  -2 63.9489 19.3151   3
  -4   9  -2 27.0237 19.9893   5
  -4   9  -3 2.62402 19.6918   5
  -4   9  -4-8.59891 19.9198   5
  -4   9  -5-17.8540 20.3463   5
  -4   9  -6-41.2005 19.6326   5
  -4   9  -7-27.9907 22.1800   5
  -4   9  -8 21.5740 20.7364   5
  -4   9  -9 31.5378 23.0436   5
   4  -8  -7 124.773 14.5639   4
  -4   8   6 111.272 18.8807   3
  -4   8   5-32.5506 19.2909   3
   4  -8  -5 40.6503 13.5094   4
  -4   8   4-16.9779 19.4806   3
   4  -8  -4-16.7458 13.5100   4
  -4   8   3 57.8787 19.6803   3
   4  -8  -3 42.7082 13.5407   4
   4  -8  -2-26.2385 12.4619   4
  -4   8   2-16.7996 17.6827   3
  -4   8   1-34.3960 18.9683   3
   4  -8  -1-19.4252 10.5690   4
  -4   8   0-62.7951 18.9984   3
   4  -8   0 2.98858 10.8146   4
  -4   8  -1 5.25733 15.6701   3
  -4   8  -2 30.5178 21.1112   3
  -4   8  -2 58.9416 23.2043   5
  -4   8  -3 53.6779 19.0869   3
  -4   8  -3 73.7503 20.3869   5
  -4   8  -4 39.6629 20.8990   5
  -4   8  -5 2.83455 22.1521   5
  -4   8  -6-21.3912 19.1629   5
  -4   8  -7-57.3723 19.9342   5
  -4   8  -8 7.21356 18.8885   5
  -4   8  -9 82.1110 21.6306   5
  -4   8 -10 91.5035 20.9812   5
  -4   8 -11-2.75887 22.6616   5
   4  -7 -10 41.6986 19.2979   4
   4  -7  -9 51.4870 16.0181   4
   4  -7  -8 58.2613 15.7647   4
  -4   7   7 53.7175 17.7835   3
  -4   7   6-62.0537 15.6906   3
   4  -7  -6-11.5939 15.0411   4
  -4   7   5 40.0425 20.1086   3
   4  -7  -5-11.6604 13.8382   4
  -4   7   4 75.2333 20.4238   3
   4  -7  -4 36.5250 14.4645   4
  -4   7   3-11.3292 17.4316   3
   4  -7  -3-13.9294 15.3308   4
  -4   7   2 23.4847 18.9089   3
   4  -7  -2-30.0255 13.4433   4
  -4   7   1 37.8488 18.6229   3
   4  -7  -1 73.0056 14.2833   4
  -4   7   0 85.2115 18.9958   3
   4  -7   0 41.6243 12.3563   4
  -4   7  -1 51.9622 17.0417   3
   4  -7   1 35.9573 12.0633   4
  -4   7  -2 25.7159 16.2276   3
  -4   7  -2 5.52327 18.7577   5
  -4   7  -3-7.27955 17.7251   3
  -4   7  -3-3.02710 17.0067   5
  -4   7  -4-10.6919 18.0465   3
  -4   7  -4 29.8728 19.0600   5
  -4   7  -5 7.61367 20.2904   5
  -4   7  -6-10.3033 18.1276   5
  -4   7  -7-2.86339 20.1223   5
  -4   7  -8 53.4988 18.8819   5
  -4   7  -9 49.3586 19.2246   5
  -4   7 -10 71.2475 19.7885   5
  -4   7 -11-45.6527 19.5654   5
   4  -6 -11 13.4216 18.3464   4
   4  -6 -10 75.2629 16.4658   4
  -4   6   9-71.6843 22.1759   3
   4  -6  -9-8.13124 13.9376   4
  -4   6   8 73.8959 19.7202   3
   4  -6  -8 24.7183 14.1681   4
  -4   6   7 89.3976 19.1558   3
   4  -6  -7 151.634 20.7378   4
   4  -6  -6 217.024 21.5438   4
  -4   6   6 263.810 24.0525   3
  -4   6   5 224.295 22.0440   3
   4  -6  -5 220.712 20.7517   4
   4  -6  -4 582.333 25.6274   4
  -4   6   4 577.401 28.0724   3
   4  -6  -3 158.607 17.7162   4
  -4   6   3 141.917 19.8909   3
  -4   6   2 22.7719 16.7185   3
   4  -6  -2 23.9670 13.1471   4
  -4   6   1 26.8730 16.7278   3
   4  -6  -1 12.7295 13.9537   4
   4  -6   0 100.836 14.3746   4
  -4   6   0 108.910 20.1313   3
   4  -6   1 156.354 15.1603   4
  -4   6  -1 169.055 19.9297   3
  -4   6  -2 48.3428 17.0869   3
  -4   6  -3 21.9900 18.6293   3
  -4   6  -3 44.0888 17.9205   5
  -4   6  -4 51.0762 15.1579   3
  -4   6  -4 72.7468 18.7062   5
  -4   6  -5 154.921 20.0977   5
  -4   6  -6 132.908 20.0538   5
  -4   6  -7 148.395 20.4411   5
  -4   6  -8 123.057 20.0540   5
  -4   6  -9 74.0050 19.5838   5
  -4   6 -10 15.7007 18.3322   5
  -4   6 -11 17.3405 20.7985   5
  -4   6 -12-22.3710 19.4445   5
  -4   5  11-20.3936 22.9688   3
   4  -5 -11 92.4374 18.5359   4
  -4   5  10-62.0978 22.0718   3
   4  -5 -10 96.9161 21.4440   4
  -4   5   9 75.3010 24.1874   3
   4  -5  -9 46.8501 17.0298   4
  -4   5   8-10.0919 18.1836   3
   4  -5  -8 52.8456 16.2283   4
  -4   5   7 20.9485 17.3448   3
   4  -5  -7-0.66302 14.8671   4
  -4   5   6-26.3648 17.6749   3
   4  -5  -6 1.54003 14.3772   4
   4  -5  -5 135.629 17.6417   4
  -4   5   5 176.140 22.5118   3
   4  -5  -4 328.036 20.4680   4
  -4   5   4 340.699 23.2653   3
  -4   5   3 24.7619 16.2092   3
   4  -5  -3 13.5532 13.1822   4
   4  -5  -2 121.589 15.0580   4
  -4   5   2 121.807 18.8353   3
  -4   5   1 27.4678 16.5022   3
   4  -5  -1 31.4471 11.7656   4
  -4   5   0 15.5272 15.4167   3
   4  -5   0-3.79731 11.0285   4
  -4   5  -1 22.9172 17.6478   3
   4  -5   1-2.35655 10.1203   4
  -4   5  -2-2.60839 16.0216   3
   4  -5   2-1.83390 8.95027   4
  -4   5  -3 237.782 19.5434   5
  -4   5  -3 230.921 20.3677   3
  -4   5  -4 129.599 17.5468   5
  -4   5  -4 144.756 18.4588   3
  -4   5  -5 88.9040 17.8949   3
  -4   5  -5 53.1090 15.9983   5
  -4   5  -6 105.926 19.5090   5
  -4   5  -7 211.065 20.5021   5
  -4   5  -8 193.712 21.2343   5
  -4   5  -9 138.574 20.9273   5
  -4   5 -10 11.6270 19.4598   5
  -4   5 -11-35.2716 18.0815   5
  -4   5 -12-64.2046 19.8283   5
  -4   5 -13-62.4137 15.3353   5
  -4   5 -14 34.0329 18.9232   5
  -4   4  11 20.3071 21.5595   3
  -4   4  10 61.7915 22.7467   3
  -4   4   9 0.92367 21.3502   3
  -4   4   8 4.21340 17.6586   3
  -4   4   7 34.0404 20.2135   3
  -4   4   6 21.1879 18.2138   3
  -4   4   5 273.234 23.1742   3
  -4   4   4 74.4011 19.5046   3
   4  -4  -4 69.0880 14.6917   4
   4  -4  -3 126.877 14.9321   4
  -4   4   3 111.525 18.4556   3
  -4   4   2 78.8185 17.5408   3
   4  -4  -2 73.9022 13.3681   4
  -4   4   1 26.9037 15.5037   3
   4  -4  -1 42.8703 12.3470   4
  -4   4   0-17.6016 15.5274   3
   4  -4   0 7.42844 10.2431   4
  -4   4   0-7.83193 10.7960   8
  -4   4  -1 434.843 18.1186   8
   4  -4   1 490.693 17.0579   4
  -4   4  -1 464.345 23.1803   3
   4  -4   2 101.009 10.4390   4
  -4   4  -2 106.371 17.4095   3
  -4   4  -3 771.477 24.2871   5
  -4   4  -3 743.316 26.6818   3
  -4   4  -4 6.13114 13.8634   5
  -4   4  -4 34.6429 14.9800   3
  -4   4  -5-5.78700 14.8869   3
  -4   4  -5 11.8854 13.6141   5
  -4   4  -6 0.95171 14.8565   5
  -4   4  -7 8.09871 14.2713   5
  -4   4  -8 5.76305 15.3256   5
  -4   4  -9 15.0332 17.0574   5
  -4   4 -10 9.97731 16.2086   5
  -4   4 -11 0.85701 17.8594   5
  -4   4 -12 62.5018 19.7702   5
  -4   4 -13 164.148 19.8571   5
  -4   4 -14 48.3889 19.5753   5
  -4   4 -15 38.5244 18.7541   5
   4  -3 -14 113.910 28.0822   5
   4  -3 -13 115.396 25.4004   5
  -4   3  13-24.6327 27.0676   3
   4  -3 -12 32.6430 23.0890   5
  -4   3  12-11.8272 24.6006   3
  -4   3  11-29.2608 20.7509   3
  -4   3  10-32.7984 20.9943   3
  -4   3   9-17.3667 20.5902   3
  -4   3   8 35.2677 19.7565   3
  -4   3   7-20.3596 18.3968   3
  -4   3   6 40.9606 18.8731   3
  -4   3   5 76.9567 18.7691   3
  -4   3   4-7.01947 16.5894   3
  -4   3   3 11.2066 15.9285   3
  -4   3   2 47.3786 16.7767   3
  -4   3   1-6.95780 9.59409   8
  -4   3   1-3.27570 14.8757   3
  -4   3   0 21.0374 15.3566   3
   4  -3   0 18.9230 9.71055   4
  -4   3   0 4.88975 10.4570   8
  -4   3  -1-4.18741 10.8083   8
  -4   3  -1-8.18592 14.7103   3
   4  -3   1-3.67219 8.40779   4
  -4   3  -2 181.032 14.9533   8
  -4   3  -2 161.609 11.4392   6
   4  -3   2 187.563 10.7617   4
  -4   3  -2 166.426 17.7309   3
  -4   3  -3 194.170 14.8215   5
   4  -3   3 209.734 10.3030   4
  -4   3  -3 196.880 18.2975   3
  -4   3  -4 5.22593 13.8698   3
  -4   3  -4 16.5671 12.5897   5
  -4   3  -5 6.01486 13.2089   3
  -4   3  -5 7.87584 12.8069   5
  -4   3  -6 6.60570 13.3414   5
  -4   3  -7 4.83421 13.3542   5
  -4   3  -8 13.5251 13.5565   5
  -4   3  -9 14.2582 16.4177   5
  -4   3 -10 2.99497 16.7314   5
  -4   3 -11 39.1687 16.8490   5
  -4   3 -12 50.5137 16.4388   5
  -4   3 -13 74.2881 18.0932   5
  -4   3 -14 106.805 19.1791   5
  -4   3 -15-4.07224 18.1147   5
  -4   3 -16-20.3853 20.8090   5
  -4   2  14 207.957 35.7036   3
   4  -2 -13-13.7763 25.6750   5
  -4   2  13 100.260 27.8154   3
   4  -2 -12 55.7979 25.6555   5
  -4   2  12 67.7111 25.2586   3
   4  -2 -11 105.655 23.4769   5
  -4   2  11 83.5588 24.5331   3
   4  -2 -10 66.2894 21.6236   5
  -4   2  10 61.0685 24.1413   3
   4  -2  -9-7.57202 19.7322   5
  -4   2   9 34.7143 20.3489   3
   4  -2  -8 77.7836 17.7681   5
  -4   2   8 62.8346 19.9636   3
  -4   2   7 52.7491 19.8806   3
  -4   2   6 2.34943 18.3835   3
  -4   2   5 5.85329 15.9833   3
  -4   2   4 67.9130 17.0597   3
  -4   2   3 388.470 22.2786   3
  -4   2   2 179.638 15.5970   1
  -4   2   2 155.693 10.8286   8
  -4   2   2 165.137 18.3236   3
  -4   2   1 192.257 12.3574   8
  -4   2   1 211.996 17.4916   3
  -4   2   1 234.605 16.9787   1
  -4   2   0 51.7929 11.6989   8
  -4   2   0 52.3483 14.1555   1
  -4   2   0 44.7170 15.3864   3
  -4   2  -1-4.00131 11.0128   8
  -4   2  -1 12.8243 9.84640   1
  -4   2  -1 7.06729 13.9572   3
  -4   2  -2 52.5038 13.0839   1
  -4   2  -2 44.3492 14.0968   3
  -4   2  -2 54.1892 10.6697   6
  -4   2  -2 50.7322 12.4487   8
   4  -2   2 52.3345 7.64455   4
  -4   2  -2 41.4129 10.0410   5
  -4   2  -3 204.895 17.0174   8
   4  -2   3 193.276 8.40507   4
  -4   2  -3 222.186 13.2178   6
  -4   2  -3 218.332 13.3775   5
  -4   2  -3 207.173 13.8607   1
  -4   2  -3 207.570 16.0625   3
  -4   2  -4 6.69129 12.8289   1
  -4   2  -4 10.5484 8.65507   6
  -4   2  -4 0.95337 13.5602   3
  -4   2  -4-2.64616 10.3633   5
  -4   2  -5 41.3876 13.9647   3
  -4   2  -5 44.4984 13.0249   1
  -4   2  -5 42.1219 8.41107   6
  -4   2  -5 36.8664 11.5971   5
  -4   2  -6 13.9800 12.5953   5
  -4   2  -6 17.3915 13.7657   3
  -4   2  -7 9.68947 12.6810   5
  -4   2  -8 21.2109 13.2865   5
  -4   2  -9-13.2127 14.9948   5
  -4   2 -10 21.5964 15.5346   5
  -4   2 -11 53.7190 15.5141   5
  -4   2 -12 44.9361 17.1448   5
  -4   2 -13 40.9828 17.8942   5
  -4   2 -14 17.3938 16.7311   5
  -4   2 -16 87.5277 18.1333   5
  -4   1  14 58.6766 25.9155   3
  -4   1  11-6.76857 19.9421   3
  -4   1  10 3.84157 18.7999   3
   4  -1 -10-6.03383 19.6848   5
  -4   1   9 10.3462 21.0813   3
   4  -1  -9 28.3336 18.3297   5
   4  -1  -8 402.714 23.7612   5
  -4   1   8 350.666 25.6707   3
   4  -1  -7-10.5456 14.1621   5
  -4   1   7 21.5516 19.8293   3
   4  -1  -6 18.4953 9.88174   1
   4  -1  -6 18.8473 14.6873   5
  -4   1   6-9.00641 17.2719   3
   4  -1  -5-6.96662 8.16632   1
   4  -1  -5 11.1740 12.4526   5
  -4   1   5 15.5567 17.0264   3
   4  -1  -4-2.75120 9.73100   1
  -4   1   4 6.59454 16.6872   3
   4  -1  -3 58.1287 12.2958   1
  -4   1   3 69.7728 16.0391   3
   4  -1  -2 12.4916 12.0970   1
  -4   1   2 9.74029 14.6847   3
   4  -1  -1 439.013 18.1119   1
  -4   1   1 426.804 19.8484   3
  -4   1   1 396.124 15.5560   8
  -4   1   0 668.903 19.3762   8
  -4   1   0 714.266 22.2365   1
   4  -1   0 695.010 20.5962   1
  -4   1   0 702.730 23.3186   3
  -4   1  -1 541.566 19.3936   8
  -4   1  -1 607.543 21.4470   1
  -4   1  -1 548.757 19.4015   3
  -4   1  -2 224.416 16.0320   8
  -4   1  -2 247.984 14.6324   6
  -4   1  -2 237.737 11.0931   5
  -4   1  -2 263.612 16.5510   3
  -4   1  -2 275.254 17.1326   1
  -4   1  -3 67.9077 13.0373   3
  -4   1  -3 68.5782 11.5637   6
  -4   1  -3 53.7731 13.7799   1
  -4   1  -3 62.1261 13.2344   8
  -4   1  -3 76.2954 9.81977   5
   4  -1   3 83.8655 6.33736   4
  -4   1  -4 247.487 17.2364   8
  -4   1  -4 247.997 13.3328   6
  -4   1  -4 244.459 12.4350   5
  -4   1  -4 236.823 15.6132   3
  -4   1  -4 237.216 13.8533   1
  -4   1  -5-12.4327 8.67745   6
  -4   1  -5-3.32571 11.1647   3
  -4   1  -5 16.1545 9.30044   1
  -4   1  -5-1.61138 14.7937   8
  -4   1  -5 2.64377 9.77036   5
  -4   1  -6 8.11391 11.1212   3
  -4   1  -6 24.4016 11.6215   1
  -4   1  -6 18.9958 10.4612   5
  -4   1  -7 69.0023 10.9801   1
  -4   1  -7 59.8040 12.9599   5
  -4   1  -8 66.4065 13.6073   5
  -4   1  -8 80.3427 11.8081   1
  -4   1  -9 13.8048 12.8847   5
  -4   1 -10 12.7733 13.9859   5
  -4   1 -11 47.8206 16.1442   5
  -4   1 -12 92.9605 17.9509   5
  -4   1 -13 79.8641 16.8270   5
  -4   1 -14 76.8641 16.5354   5
  -4   1 -16 58.5596 18.2249   5
  -4   1 -17 37.0851 19.1758   5
  -4   0  13-61.9003 26.0008   3
  -4   0  12 1.69416 23.0230   3
  -4   0  11 19.4881 22.7825   3
   4   0 -11 77.2249 20.0769   5
  -4   0  10 57.8310 22.3661   3
   4   0 -10 60.4694 20.3647   5
  -4   0   9 8.49395 19.1895   3
   4   0  -9 28.3158 16.8181   5
  -4   0   8 71.6117 19.2682   3
   4   0  -8 96.5217 17.7131   5
   4   0  -7 221.820 17.7980   5
  -4   0   7 195.740 21.0823   3
  -4   0   6 3.05907 16.8770   3
   4   0  -6 18.9198 11.0180   1
  -4   0   6-9.88064 11.3227   2
   4   0  -6 1.16193 12.0920   5
  -4   0   5-3.99748 16.0283   3
  -4   0   5 4.70077 11.7901   2
   4   0  -5 10.8032 10.6979   1
   4   0  -5-12.0966 11.9117   5
  -4   0   4 57.3707 11.7855   2
   4   0  -4 48.7705 10.8455   1
   4   0  -4 42.3747 11.5551   5
  -4   0   4 45.0982 16.2828   3
   4   0  -3 4.74061 10.3800   1
  -4   0   3-5.86145 13.9686   3
  -4   0   3 13.5577 11.8359   2
   4   0  -2 51.1834 11.9640   1
  -4   0   2 25.1970 12.7967   3
   4   0  -1 13.8889 11.8876   1
  -4   0   1 4.83261 14.3557   3
   4   0   0 157.943 11.7558   1
  -4   0   0 165.806 15.6570   3
  -4   0   0 183.117 13.6569   8
   4   0   1 434.187 16.5849   1
  -4   0  -1 455.946 18.6157   3
  -4   0  -1 411.986 17.4419   8
  -4   0  -2 556.378 20.5291   8
  -4   0  -2 557.925 19.8850   6
  -4   0  -2 561.578 11.3236   5
   4   0   2 569.459 18.8786   1
  -4   0  -2 575.630 18.2384   3
  -4   0  -3 1782.65 29.2418   6
  -4   0  -3 1703.06 31.5938   8
  -4   0  -3 1714.09 19.5483   5
   4   0   3 1741.12 29.0821   1
  -4   0  -3 1770.43 27.0320   3
  -4   0  -4 591.533 21.3762   8
  -4   0  -4 632.367 20.1401   1
  -4   0  -4 581.887 18.7685   6
  -4   0  -4 616.323 14.6889   5
   4   0   4 627.513 19.0392   1
  -4   0  -4 588.870 17.6676   3
  -4   0  -5 763.910 24.2158   8
  -4   0  -5 800.583 21.6550   1
  -4   0  -5 811.312 20.8139   6
  -4   0  -5 761.064 17.5534   5
  -4   0  -5 806.815 19.5553   3
  -4   0  -6 12.1487 14.7850   8
  -4   0  -6 19.1924 10.3820   3
  -4   0  -6 10.9869 10.1910   1
  -4   0  -6 23.9773 9.57686   5
  -4   0  -6 15.1015 10.9028   6
  -4   0  -7 30.4715 15.2752   8
  -4   0  -7 34.6651 10.7798   1
  -4   0  -7 59.6865 11.0492   5
  -4   0  -8 118.528 17.9496   8
  -4   0  -8 91.7422 10.7790   1
  -4   0  -8 99.1685 13.0943   5
  -4   0  -9 128.467 14.7729   5
  -4   0 -10 108.412 15.3542   5
  -4   0 -11-0.44537 14.0745   5
  -4   0 -12 55.8814 16.4767   5
  -4   0 -13 12.0166 15.6477   5
  -4   0 -14 76.0828 18.3388   5
  -4   0 -15 44.8593 18.5588   5
  -4   0 -17 28.3718 21.5877   5
  -4  -1  13 31.9340 26.6403   3
  -4  -1  12 91.6188 26.4641   3
  -4  -1  11 56.3945 20.5177   3
   4   1 -10 53.7602 16.9793   5
  -4  -1  10 17.2081 20.4477   3
  -4  -1   9 3.48691 20.6081   3
   4   1  -9 39.3389 13.8175   5
   4   1  -8 215.442 16.8348   5
  -4  -1   8 202.515 22.5461   3
  -4  -1   7 22.5409 18.5375   3
   4   1  -7 10.3710 13.2014   5
  -4  -1   6 16.4673 16.8706   3
  -4  -1   6 1.36231 11.1574   2
   4   1  -6-0.79451 8.51331   1
   4   1  -6 3.50931 11.0866   5
  -4  -1   5 10.5611 15.0851   3
  -4  -1   5 14.7501 12.1402   2
   4   1  -5 31.1203 9.90194   1
   4   1  -5 27.3281 10.6080   5
  -4  -1   4 16.6746 14.0565   3
  -4  -1   4-14.5331 12.2072   2
   4   1  -4 3.92622 9.61403   5
  -4  -1   3 60.4219 15.2862   3
  -4  -1   3 70.5798 12.3801   2
   4   1  -3 91.7133 9.66678   5
  -4  -1   2 7.61339 12.5737   2
  -4  -1   2-4.90860 13.4777   3
   4   1  -2 7.70682 7.29325   5
  -4  -1   1 39.9970 14.5383   2
   4   1  -1 24.6107 12.1777   1
  -4  -1   1 24.1388 12.2691   3
   4   1   0-7.49270 11.4927   1
  -4  -1   0 6.77875 12.4768   3
  -4  -1   0-0.11375 13.1309   2
   4   1   1 93.2290 13.5349   1
  -4  -1  -1 107.525 13.3254   8
  -4  -1  -1 99.7260 12.0300   3
  -4  -1  -2 150.707 15.6875   6
  -4  -1  -2 153.924 12.4108   3
   4   1   2 122.306 12.9081   1
  -4  -1  -2 142.952 14.9393   8
  -4  -1  -3 144.741 15.1077   8
  -4  -1  -3 162.327 14.7461   6
  -4  -1  -3 154.691 6.38954   5
   4   1   3 134.398 13.0849   1
  -4  -1  -3 145.769 11.2337   3
  -4  -1  -4 1886.83 32.9796   8
  -4  -1  -4 2024.46 31.3723   6
  -4  -1  -4 1937.58 20.0555   5
   4   1   4 1980.32 29.5709   1
  -4  -1  -4 1977.57 25.7405   3
  -4  -1  -5 1816.63 34.2505   8
  -4  -1  -5 1782.27 30.2335   6
  -4  -1  -5 1762.04 22.3408   5
  -4  -1  -5 1824.62 32.6276   7
   4   1   5 1756.66 27.5955   1
  -4  -1  -5 1763.56 24.1788   3
  -4  -1  -6 39.4120 8.79682   3
  -4  -1  -6 69.7613 15.7244   7
   4   1   6 30.6759 8.83986   1
  -4  -1  -6 47.8842 12.1960   6
  -4  -1  -6 45.0544 13.3939   8
  -4  -1  -6 46.5301 9.15360   5
  -4  -1  -7 1.64531 14.3994   7
  -4  -1  -7-13.2759 16.0817   8
  -4  -1  -7 19.8985 9.84282   5
  -4  -1  -8-11.9779 15.4636   7
  -4  -1  -8 16.4519 16.5975   8
  -4  -1  -8-10.8189 10.9574   5
  -4  -1  -9-7.63448 15.7574   8
  -4  -1  -9 4.08577 15.4562   7
  -4  -1  -9 9.99783 12.5550   5
  -4  -1 -10 48.4752 17.7463   7
  -4  -1 -10 64.1132 18.8653   8
  -4  -1 -10 57.3101 14.0242   5
  -4  -1 -11 144.702 19.6525   7
  -4  -1 -11 196.631 19.9483   8
  -4  -1 -11 140.809 18.0275   5
  -4  -1 -12 10.3366 17.3045   7
  -4  -1 -12-16.6718 17.1743   5
  -4  -1 -13 50.8144 20.7648   8
  -4  -1 -13 48.4108 19.4534   7
  -4  -1 -13 31.3149 18.0658   5
  -4  -1 -14 69.9730 20.1608   8
  -4  -1 -14 64.9585 21.1462   7
  -4  -1 -14-8.08817 17.3569   5
  -4  -1 -15 64.0424 20.5829   5
  -4  -1 -17-35.4067 22.9873   5
  -4  -2  13 118.422 27.9544   3
  -4  -2  12 122.531 25.6364   3
  -4  -2  11 24.3802 22.7239   3
  -4  -2  10-16.5165 18.8856   3
  -4  -2   8-27.3809 20.0073   3
   4   2  -8 14.6060 11.9881   5
   4   2  -7 852.455 25.0443   5
  -4  -2   7 875.471 32.9352   3
  -4  -2   6 27.1335 16.4143   3
   4   2  -6 34.8746 11.3487   5
  -4  -2   5 8.76066 16.0591   3
   4   2  -5 18.8596 9.65774   5
  -4  -2   4-0.39614 13.5368   3
  -4  -2   4 20.3252 13.4818   2
   4   2  -4-3.26538 8.23103   5
  -4  -2   3-4.24394 13.9795   3
  -4  -2   3-4.61207 11.3297   2
   4   2  -3 15.0912 7.41591   5
  -4  -2   2 1.55465 13.7779   3
  -4  -2   2-1.08725 10.3124   2
   4   2  -2 4.76506 5.87373   5
  -4  -2   1 504.806 20.3891   2
   4   2  -1 474.779 8.50757   5
  -4  -2   1 501.727 18.5788   3
  -4  -2   0-11.9006 11.0869   3
  -4  -2   0 6.81588 11.8163   2
  -4  -2  -1 9.28867 13.2350   2
  -4  -2  -1 33.2046 15.4329   6
  -4  -2  -1 10.0049 10.6503   4
  -4  -2  -1 21.1355 10.1454   3
  -4  -2  -2-5.50423 13.2521   8
  -4  -2  -2 5.51966 11.1008   7
  -4  -2  -2 2.35259 9.32243   4
  -4  -2  -2-2.04164 10.7817   2
  -4  -2  -2 3.61414 12.6119   6
  -4  -2  -2-1.66238 9.08313   3
  -4  -2  -3 9.38801 13.2928   8
  -4  -2  -3 10.3204 8.31803   4
  -4  -2  -3 1.66438 12.6894   2
  -4  -2  -3-1.70876 12.7634   6
  -4  -2  -3 8.17005 8.55215   3
  -4  -2  -3 8.34752 13.0374   7
   4   2   4 150.927 12.7098   1
  -4  -2  -4 142.522 15.5165   7
  -4  -2  -4 130.898 13.9247   2
  -4  -2  -4 138.980 15.4346   6
  -4  -2  -4 129.707 7.26025   5
  -4  -2  -4 130.746 9.15315   3
  -4  -2  -4 133.441 8.82728   4
  -4  -2  -4 126.091 14.7032   8
   4   2   5 119.283 11.6630   1
  -4  -2  -5 113.452 11.9431   2
  -4  -2  -5 114.208 15.9124   8
  -4  -2  -5 113.974 16.1014   7
  -4  -2  -5 134.916 14.4111   6
  -4  -2  -5 93.7533 8.22205   5
  -4  -2  -5 104.395 8.66546   3
  -4  -2  -5 119.917 7.52721   4
  -4  -2  -6-1.66470 15.8501   8
  -4  -2  -6-7.66866 14.9197   7
  -4  -2  -6 3.61034 5.00211   4
  -4  -2  -6 27.8274 13.7117   6
  -4  -2  -6 1.12800 9.79400   2
   4   2   6-8.67900 7.37761   1
  -4  -2  -6 1.18837 8.39823   5
  -4  -2  -6 6.69403 6.72267   3
  -4  -2  -7-2.92431 13.7551   8
   4   2   7 27.3334 7.92002   1
  -4  -2  -7 3.36519 9.74226   2
  -4  -2  -7 8.65195 14.7436   7
  -4  -2  -7 11.4234 9.48187   5
  -4  -2  -8 29.2735 17.0225   8
   4   2   8 8.85067 7.07916   1
  -4  -2  -8 10.5766 16.0855   7
  -4  -2  -8 37.6562 9.88594   2
  -4  -2  -8 1.97434 11.1052   5
  -4  -2  -9-11.0226 16.0364   8
  -4  -2  -9 4.77674 16.7311   7
  -4  -2  -9-16.9987 12.3685   5
  -4  -2 -10 77.3564 18.1051   7
  -4  -2 -10 110.516 15.1570   5
  -4  -2 -10 110.537 18.2429   8
  -4  -2 -11 72.6232 19.3351   7
  -4  -2 -11 66.7786 18.8532   8
  -4  -2 -11 77.3766 16.6534   5
  -4  -2 -12 55.0533 19.8220   8
  -4  -2 -12 96.7810 20.8574   7
  -4  -2 -12 57.0786 17.4909   5
  -4  -2 -13 129.312 23.0452   7
  -4  -2 -13 47.6702 18.8028   8
  -4  -2 -13 62.8671 18.8400   5
  -4  -2 -14 33.7813 19.7682   7
  -4  -2 -14 60.1450 19.6364   5
  -4  -2 -15 103.369 24.4243   7
  -4  -2 -15-3.13202 20.3182   5
  -4  -2 -16 55.4011 22.2971   5
  -4  -2 -17 26.8204 20.8586   5
  -4  -3  13 66.9297 25.6131   3
  -4  -3  12 96.8398 26.1616   3
  -4  -3  11 6.22660 22.1166   3
  -4  -3  10-22.8299 18.7583   3
  -4  -3   9-12.5237 19.6962   3
  -4  -3   8-2.38189 18.5487   3
  -4  -3   7 41.4489 19.4546   3
  -4  -3   6 220.691 21.8259   3
  -4  -3   5 0.64072 15.7553   3
   4   3  -5-6.74092 9.45677   5
  -4  -3   4-7.63338 15.3414   3
   4   3  -4-0.33462 7.96571   5
  -4  -3   3 15.2471 14.4596   3
   4   3  -3 0.24866 7.28752   5
  -4  -3   2 48.8259 15.9757   4
  -4  -3   2 70.6684 14.0599   3
   4   3  -2 57.7899 6.83958   5
   4   3  -2 57.5491 13.0280   2
   4   3  -1 821.174 11.0961   5
  -4  -3   1 826.403 24.9502   4
  -4  -3   1 900.166 22.7732   3
   4   3  -1 836.080 22.8796   2
  -4  -3   0 1.88734 9.31921   7
  -4  -3   0 0.14080 12.8239   4
   4   3   0-3.37137 14.0498   2
  -4  -3   0 18.9547 13.6779   2
  -4  -3   0 1.87477 10.2813   3
  -4  -3  -1-2.65225 9.45346   3
  -4  -3  -1 4.31940 12.1771   4
  -4  -3  -1-0.87723 10.1908   7
  -4  -3  -1 7.36559 14.0544   6
  -4  -3  -1 0.50781 10.5057   2
   4   3   1 15.1104 13.4190   2
  -4  -3  -2 93.5634 12.6386   7
  -4  -3  -2 89.2357 14.9179   6
  -4  -3  -2 74.5367 11.4214   4
  -4  -3  -2 83.6783 14.8139   2
  -4  -3  -2 91.3189 9.67408   3
  -4  -3  -3 245.567 16.7413   2
  -4  -3  -3 229.797 15.4953   7
  -4  -3  -3 240.272 16.6586   6
  -4  -3  -3 240.289 10.1707   3
  -4  -3  -3 250.388 12.9954   4
  -4  -3  -4 330.664 14.7468   2
  -4  -3  -4 329.396 17.6860   7
  -4  -3  -4 328.529 17.9645   6
  -4  -3  -4 317.911 9.54562   5
  -4  -3  -4 270.997 9.28583   3
  -4  -3  -4 316.485 12.9282   4
  -4  -3  -4 341.770 18.0845   8
  -4  -3  -5 369.149 19.0460   7
  -4  -3  -5 356.153 15.4753   2
  -4  -3  -5 346.577 18.2035   6
  -4  -3  -5 356.087 11.8105   5
  -4  -3  -5 361.050 9.20089   3
  -4  -3  -5 361.335 12.4400   4
  -4  -3  -5 365.042 18.9293   8
  -4  -3  -6 282.074 18.7267   7
  -4  -3  -6 288.863 17.6856   6
  -4  -3  -6 267.370 12.3917   5
  -4  -3  -6 288.211 14.9560   2
  -4  -3  -6 265.323 10.9670   4
  -4  -3  -6 268.455 17.1527   8
  -4  -3  -7 13.3963 15.0500   7
  -4  -3  -7 27.1330 13.9041   8
  -4  -3  -7 33.0071 10.0784   2
   4   3   7 7.60287 7.88825   1
  -4  -3  -7 33.8371 10.6179   5
  -4  -3  -8 4.97747 15.2882   8
  -4  -3  -8 10.5999 16.1421   7
  -4  -3  -8-4.71005 8.77269   2
  -4  -3  -8-12.8352 10.7998   5
  -4  -3  -9-18.2350 16.1596   8
  -4  -3  -9-9.87914 16.9690   7
  -4  -3  -9-4.24723 12.4668   5
  -4  -3 -10 15.4285 17.0795   8
  -4  -3 -10-6.38419 16.8883   7
  -4  -3 -10 12.2541 13.4757   5
  -4  -3 -11 104.255 17.1101   8
  -4  -3 -11 143.379 19.7426   7
  -4  -3 -11 118.962 17.1842   5
  -4  -3 -12 237.552 21.6713   8
  -4  -3 -12 271.345 24.3847   7
  -4  -3 -12 298.303 22.7373   5
  -4  -3 -13 14.7176 20.2446   7
  -4  -3 -13 75.1636 19.0096   5
  -4  -3 -14 52.3680 20.9035   7
  -4  -3 -14 132.835 20.0970   5
  -4  -3 -15 14.8269 21.9773   7
  -4  -3 -15 140.941 21.7510   5
  -4  -3 -16 72.6320 19.8357   5
  -4  -3 -17 57.2076 20.8011   5
  -4  -4  12 328.320 31.5940   3
  -4  -4  11 148.270 28.3305   3
  -4  -4  10 7.13955 21.8471   3
  -4  -4   9 35.1587 21.0787   3
  -4  -4   8 30.4899 20.5344   3
  -4  -4   7 93.7958 20.0179   3
  -4  -4   6 1213.65 34.1174   3
  -4  -4   5 66.7490 18.3848   3
  -4  -4   4-7.20425 17.2075   4
  -4  -4   4-0.49138 15.1108   3
  -4  -4   3-7.40714 16.0044   4
  -4  -4   3 10.4742 14.4276   3
  -4  -4   2 27.8611 15.5669   4
  -4  -4   2 53.8532 13.7811   3
  -4  -4   1 654.414 20.5730   3
  -4  -4   1 663.221 15.6466   7
  -4  -4   1 655.072 24.7083   4
  -4  -4   0 1461.35 25.3957   3
  -4  -4   0 1493.20 23.8538   7
  -4  -4   0 1530.94 31.3500   6
   4   4   0 1447.98 31.6522   2
  -4  -4   0 1441.31 30.4320   4
  -4  -4  -1 808.140 20.1105   7
   4   4   1 808.029 23.4575   2
  -4  -4  -1 836.150 24.7802   6
  -4  -4  -1 810.293 22.9058   4
  -4  -4  -1 824.103 18.4153   3
   4   4   2 117.142 15.6533   2
  -4  -4  -2 80.5480 12.3721   7
  -4  -4  -2 88.4685 13.3166   4
  -4  -4  -2 90.9275 16.1205   6
  -4  -4  -2 89.1643 8.90012   3
  -4  -4  -3 0.00000 11.3970   7
  -4  -4  -3 2.18151 10.9185   4
   4   4   3-14.4402 10.6791   2
  -4  -4  -3-1.39999 13.5356   6
  -4  -4  -3-0.44792 6.33885   3
  -4  -4  -4 25.4227 11.0118   4
  -4  -4  -4 22.7755 13.1164   7
   4   4   4 48.9781 12.9502   2
  -4  -4  -4 32.2756 14.7255   6
  -4  -4  -4 22.3322 5.04885   3
  -4  -4  -5 136.608 15.3968   7
  -4  -4  -5 126.962 16.8477   6
  -4  -4  -5 138.591 10.3246   5
   4   4   5 148.315 14.2114   2
  -4  -4  -5 132.743 11.4862   4
  -4  -4  -6 70.1083 13.9104   8
  -4  -4  -6 71.3094 15.0505   6
  -4  -4  -6 80.4641 15.4671   7
  -4  -4  -6 66.8196 10.2891   4
  -4  -4  -6 55.9270 10.0836   5
  -4  -4  -7 58.0033 14.5682   8
  -4  -4  -7 53.9369 15.5073   7
  -4  -4  -7 46.4170 9.09967   4
  -4  -4  -7 31.7169 10.4045   5
  -4  -4  -8 19.3502 13.1818   8
  -4  -4  -8 11.5782 16.0611   7
  -4  -4  -8 31.9147 12.2317   5
  -4  -4  -9-10.3094 16.8091   7
  -4  -4  -9-8.36434 10.6168   8
  -4  -4  -9 31.3078 13.2871   5
  -4  -4 -10 6.28660 12.9580   8
  -4  -4 -10-5.37022 16.7377   7
  -4  -4 -10 1.79268 13.5847   5
  -4  -4 -11 19.9477 13.9697   8
  -4  -4 -11 37.1869 17.4742   7
  -4  -4 -11 15.5154 14.6757   5
  -4  -4 -12 426.088 25.3586   7
  -4  -4 -12 367.009 23.2079   5
  -4  -4 -13 49.3599 19.9006   7
  -4  -4 -13 22.5105 16.1322   5
  -4  -4 -14-37.5095 19.9991   7
  -4  -4 -14 2.28956 18.4582   5
  -4  -4 -15 48.9311 23.3166   7
  -4  -4 -15 22.2404 20.0092   5
  -4  -4 -16-76.1627 24.7701   7
  -4  -4 -16 150.604 24.3706   5
  -4  -4 -17 231.532 28.1414   5
  -4  -5  12 61.0422 27.5887   3
  -4  -5  11 169.615 26.8504   3
  -4  -5  10 91.9706 22.2306   3
  -4  -5   9 26.2755 19.9540   3
  -4  -5   8 56.4406 19.3086   3
  -4  -5   7 24.3876 17.2078   3
  -4  -5   6 351.912 24.6443   3
  -4  -5   6 385.852 28.1282   4
  -4  -5   5 94.8376 20.0568   4
  -4  -5   5 68.1031 16.0135   3
  -4  -5   4 14.5966 18.0154   4
  -4  -5   4-13.8272 14.8002   3
  -4  -5   3 24.1412 18.2193   4
  -4  -5   3 16.0262 12.9643   3
  -4  -5   2 19.4551 17.1616   4
  -4  -5   2-2.74031 13.6724   3
  -4  -5   1 24.0320 17.1072   4
  -4  -5   1 42.5546 8.50051   7
  -4  -5   1 34.0927 13.2741   3
  -4  -5   0 987.528 22.4904   3
  -4  -5   0 990.637 28.1283   6
  -4  -5   0 951.608 20.3070   7
  -4  -5   0 1010.86 28.1916   4
  -4  -5  -1 1424.92 23.3837   3
  -4  -5  -1 1420.38 25.6312   7
  -4  -5  -1 1481.69 31.8232   6
  -4  -5  -1 1474.10 31.4658   4
  -4  -5  -2 373.179 17.3125   7
  -4  -5  -2 337.206 19.3180   6
  -4  -5  -2 349.419 19.4206   4
  -4  -5  -2 324.374 12.1893   3
  -4  -5  -3 117.881 14.4280   7
  -4  -5  -3 88.5779 14.7332   6
   4   5   3 77.9715 15.6934   2
  -4  -5  -3 117.453 7.98666   3
  -4  -5  -3 110.428 14.0716   4
   4   5   4 95.8148 15.1750   2
  -4  -5  -4 84.9318 15.0020   7
  -4  -5  -4 73.9371 14.4511   6
  -4  -5  -4 80.2418 13.0670   4
  -4  -5  -5-2.95601 14.3928   7
  -4  -5  -5 29.6579 14.9182   6
  -4  -5  -5 24.1543 11.1900   4
   4   5   5-2.39027 11.8197   2
  -4  -5  -6-6.95879 15.1149   7
  -4  -5  -6 9.70258 14.2087   6
  -4  -5  -6 6.07018 11.0317   4
   4   5   6-5.77828 7.63720   2
   4   5   7-10.6211 10.0201   2
  -4  -5  -7-4.18272 10.2496   4
  -4  -5  -7-1.59717 11.1198   5
  -4  -5  -7 4.76497 16.5895   7
  -4  -5  -8 18.3230 16.4981   7
  -4  -5  -8 19.3386 10.3257   4
  -4  -5  -8-3.32626 12.8389   5
  -4  -5  -8-3.70090 12.8243   8
  -4  -5  -9 21.9020 13.4847   8
  -4  -5  -9 9.69973 17.0329   7
  -4  -5  -9 5.21188 13.8783   5
  -4  -5 -10-8.35885 13.8933   8
  -4  -5 -10-7.34185 17.4418   7
  -4  -5 -11 15.7737 18.5702   7
  -4  -5 -11-7.63853 16.3633   5
  -4  -5 -12 21.5039 16.4934   7
  -4  -5 -12 2.30731 17.3816   5
  -4  -5 -13-15.9018 20.0803   7
  -4  -5 -13 15.2808 20.5763   5
  -4  -5 -14 38.6327 19.3343   7
  -4  -5 -14 46.1935 21.7626   5
  -4  -5 -15 94.6521 22.2198   7
  -4  -5 -15 85.5740 25.9041   5
  -4  -5 -16-55.2932 26.2576   7
  -4  -5 -16 13.5383 23.6343   5
  -4  -6  12 11.1973 22.5155   3
  -4  -6  11-40.1663 26.9510   3
  -4  -6  10 62.2883 24.3857   3
  -4  -6   9-1.90825 18.9037   3
  -4  -6   8-22.6120 21.2587   3
  -4  -6   7 23.1866 18.8159   3
  -4  -6   7 24.6681 20.9115   4
  -4  -6   6 27.7318 22.5468   4
  -4  -6   6 6.93975 16.9886   3
  -4  -6   5 18.6384 21.7725   4
  -4  -6   5-11.8359 15.9552   3
  -4  -6   4 132.655 21.1400   4
  -4  -6   4 83.5279 17.5938   3
  -4  -6   3 7.90574 18.5102   4
  -4  -6   3-5.81344 14.9251   3
  -4  -6   2-2.00219 18.2424   4
  -4  -6   2-8.80814 12.3849   3
  -4  -6   1 0.04344 16.0800   4
  -4  -6   1 18.7408 14.3285   6
  -4  -6   1 12.1909 11.6251   3
  -4  -6   0 220.736 14.1988   3
  -4  -6   0 215.782 12.6501   7
  -4  -6   0 173.091 17.7977   6
  -4  -6   0 218.372 20.7116   4
  -4  -6  -1 72.1934 12.2645   7
  -4  -6  -1 113.346 18.2394   4
  -4  -6  -1 96.1189 16.5666   6
  -4  -6  -1 67.9017 10.4634   3
  -4  -6  -2 422.120 18.2598   7
  -4  -6  -2 409.536 20.9202   6
  -4  -6  -2 467.713 22.0768   4
  -4  -6  -3 24.3537 12.3701   7
  -4  -6  -3 8.46058 14.3052   4
  -4  -6  -3 2.23115 13.4914   6
  -4  -6  -4 12.9989 13.4461   7
  -4  -6  -4-0.29501 13.3951   6
  -4  -6  -4 18.5407 14.1088   4
  -4  -6  -5 15.1528 13.3912   7
  -4  -6  -5 7.32101 13.9593   6
  -4  -6  -5 7.57510 13.4587   4
  -4  -6  -6-10.0315 15.1987   7
  -4  -6  -6-6.91448 12.5039   4
  -4  -6  -7-9.06452 15.5728   7
   4   6   7-38.2373 10.9174   2
  -4  -6  -7-10.4459 12.1113   4
  -4  -6  -8 14.0429 16.8005   7
  -4  -6  -8 13.5453 12.3317   4
  -4  -6  -9 70.9180 20.0459   7
  -4  -6  -9 52.6334 16.4764   5
  -4  -6  -9 40.6509 11.6061   4
  -4  -6 -10 52.7608 18.9633   7
  -4  -6 -10 78.9810 16.9879   5
  -4  -6 -11 13.7619 17.5656   5
  -4  -6 -11 74.6525 21.1448   7
  -4  -6 -12 23.2643 17.9948   7
  -4  -6 -12 5.24381 18.6598   5
  -4  -6 -13 0.20134 18.7850   7
  -4  -6 -13 60.1854 21.5531   5
  -4  -6 -14 55.1294 20.7952   7
  -4  -6 -14 35.8162 22.3156   5
  -4  -6 -15 17.6156 26.1079   5
  -4  -6 -16 34.2990 21.1089   7
  -4  -6 -16-17.8063 27.1249   5
  -4  -6 -17 364.834 26.4108   7
  -4  -6 -17 2.55791 30.0231   5
  -4  -7  11 19.0481 26.3072   3
  -4  -7  10-28.2430 30.1050   3
  -4  -7   9 74.6672 25.6684   3
  -4  -7   8-3.21089 22.5218   3
  -4  -7   8 30.8624 24.4794   4
  -4  -7   7 57.8877 24.0950   4
  -4  -7   7 20.5510 19.1783   3
  -4  -7   6 61.5588 21.3638   4
  -4  -7   6 66.6482 18.6710   3
  -4  -7   5 56.9553 22.3924   4
  -4  -7   5 3.16625 17.0261   3
  -4  -7   4 24.3267 21.8600   4
  -4  -7   4-9.50273 17.0897   3
  -4  -7   3 30.6395 20.8083   4
  -4  -7   3 3.48323 15.6218   3
  -4  -7   2 12.4724 18.9947   4
  -4  -7   2 19.4381 15.4525   6
  -4  -7   2 18.9113 13.4411   3
  -4  -7   1 41.6595 18.0274   4
  -4  -7   1 44.6660 15.2998   6
  -4  -7   1 59.3807 13.1392   3
  -4  -7   0 51.8920 18.8325   4
  -4  -7   0 102.067 17.3508   6
  -4  -7   0 89.6115 13.0678   3
  -4  -7  -1 195.030 14.8633   7
  -4  -7  -1 146.037 16.7425   6
  -4  -7  -1 181.209 19.7739   4
  -4  -7  -2 91.5783 14.4437   7
  -4  -7  -2 110.489 15.9843   6
  -4  -7  -2 98.5890 17.8939   4
  -4  -7  -3 43.0983 14.0942   7
  -4  -7  -3 14.4886 13.5930   6
  -4  -7  -3 45.9917 16.5022   4
  -4  -7  -4 2.50074 13.9647   7
  -4  -7  -4 15.9920 13.9287   6
  -4  -7  -4 11.8106 15.9150   4
  -4  -7  -5 3.55344 12.5877   6
  -4  -7  -5 26.8157 14.7265   7
  -4  -7  -5 11.2932 14.1850   4
  -4  -7  -6 109.971 17.0883   7
  -4  -7  -6 77.1789 15.5103   4
  -4  -7  -7 208.905 17.7675   4
  -4  -7  -7 242.650 20.7181   7
  -4  -7  -8 154.949 19.5447   7
  -4  -7  -8 112.559 15.5932   4
  -4  -7  -9 23.7450 16.5246   7
  -4  -7  -9 8.34010 12.3596   4
  -4  -7 -10-12.7353 18.5998   7
  -4  -7 -11 39.6579 17.9190   7
  -4  -7 -12 2.99108 20.4289   7
  -4  -7 -12 14.7820 18.4948   5
  -4  -7 -13 56.5135 21.0633   7
  -4  -7 -13 4.39564 23.9436   5
  -4  -7 -14-21.0587 22.9012   5
  -4  -7 -14 38.8113 18.1251   7
  -4  -7 -15 4.75926 17.7467   7
  -4  -7 -15-62.5270 23.6360   5
  -4  -7 -16 89.2360 28.8857   5
  -4  -8  10 130.211 27.0354   3
  -4  -8   9-17.3523 23.5266   3
  -4  -8   9 77.2279 25.5799   4
  -4  -8   8-18.1570 26.4566   4
  -4  -8   8 50.7425 23.2046   3
  -4  -8   7-18.8063 22.0145   4
  -4  -8   7 2.84297 18.1771   3
  -4  -8   6-9.36684 22.8871   4
  -4  -8   6 7.53976 19.9501   3
  -4  -8   5-0.41065 24.4873   4
  -4  -8   4 47.4693 23.9298   4
  -4  -8   3-25.0391 21.1660   4
  -4  -8   2 12.9682 21.7558   4
  -4  -8   2-6.31100 14.8866   6
  -4  -8   1 4.33927 20.2901   4
  -4  -8   1 18.3987 14.6931   6
  -4  -8   0 9.91020 20.2966   4
  -4  -8   0-17.6043 14.4713   6
  -4  -8  -1 17.9724 19.3844   4
  -4  -8  -1 14.2328 14.1000   6
  -4  -8  -2 1190.32 30.3454   6
  -4  -8  -2 1172.36 34.5025   4
  -4  -8  -3 45.3094 14.8431   6
  -4  -8  -3 70.7944 18.0605   4
  -4  -8  -4 117.270 16.5781   6
  -4  -8  -4 122.200 18.5224   4
  -4  -8  -5 50.9141 16.7430   4
  -4  -8  -6 2.03766 16.7440   4
  -4  -8  -7 86.1184 17.0818   7
  -4  -8  -7 65.5681 16.2944   4
  -4  -8  -8 40.7915 17.8042   7
  -4  -8  -8 7.46142 16.9778   4
  -4  -8  -9 48.5430 18.1160   7
  -4  -8  -9 46.4633 14.9935   4
  -4  -8 -10 3.70090 17.4891   7
  -4  -8 -10-3.26903 12.9508   4
  -4  -8 -11 30.8487 19.7180   7
  -4  -8 -12-14.1728 16.9508   7
  -4  -8 -13 99.3703 23.4935   7
  -4  -8 -14-77.3207 22.1126   7
  -4  -8 -15 94.5643 26.1574   7
  -4  -9   9 96.6679 24.3619   3
  -4  -9   8-71.3920 26.1090   4
  -4  -9   8 8.65821 22.5582   3
  -4  -9   7 64.6511 29.1237   4
  -4  -9   7-28.7245 23.8294   3
  -4  -9   6-0.23695 20.8039   4
  -4  -9   5 36.8869 26.5106   4
  -4  -9   4 39.7459 23.5536   4
  -4  -9   3 15.2375 21.1868   4
  -4  -9   2 35.0885 21.1499   4
  -4  -9   1 62.3837 21.1543   4
  -4  -9   0 63.7423 21.5748   4
  -4  -9  -1 7.89875 20.6417   4
  -4  -9  -2 17.6662 20.0030   4
  -4  -9  -2 4.45479 11.9187   6
  -4  -9  -3 130.248 16.6237   6
  -4  -9  -3 96.7273 21.1551   4
  -4  -9  -4 260.261 23.2608   4
  -4  -9  -5 138.883 22.5252   4
  -4  -9  -6 148.080 21.7394   4
  -4  -9  -7 76.0391 18.6006   4
  -4  -9  -8 90.7221 19.7378   4
  -4  -9  -9 30.7617 15.5402   7
  -4  -9  -9-9.07505 18.2444   4
  -4  -9 -10 70.6454 17.5874   7
  -4  -9 -10 48.1678 18.3209   4
  -4  -9 -12 56.2695 20.1842   7
  -4  -9 -14 51.5627 22.9157   7
  -4 -10   8 37.9997 33.4016   4
  -4 -10   8-31.2078 28.6760   3
  -4 -10   7-2.44287 21.7927   4
  -4 -10   6-20.3819 31.3626   4
  -4 -10   5-20.1474 21.1181   4
  -4 -10   4-16.4584 25.7299   4
  -4 -10   3-33.0653 25.4133   4
  -4 -10   2-1.96681 20.9105   4
  -4 -10   1 33.4342 25.0102   4
  -4 -10   0 47.6875 24.1754   4
  -4 -10  -1 66.4096 21.7660   4
  -4 -10  -2 172.258 25.3436   4
  -4 -10  -3 186.208 23.2985   4
  -4 -10  -4 117.572 23.6648   4
  -4 -10  -5 80.0209 23.2973   4
  -4 -10  -6 44.2473 23.1057   4
  -4 -10  -7 55.5624 23.9202   4
  -4 -10  -8-14.2801 18.3033   4
  -4 -10  -9-15.4097 22.1933   4
  -4 -10 -10-13.0989 16.8824   7
  -4 -10 -11 82.2112 22.6715   7
  -4 -10 -11-4.48904 17.3520   4
  -4 -10 -12-72.2931 18.8306   7
  -4 -10 -13 77.8168 17.6980   7
  -4 -11   6 134.522 35.3423   4
  -4 -11   5 75.6844 29.8773   4
  -4 -11   4 47.2594 30.4408   4
  -4 -11   3 58.2980 29.0476   4
  -4 -11   2 11.3992 27.0957   4
  -4 -11   1-17.1728 24.6011   4
  -4 -11   0-32.0505 24.4126   4
  -4 -11  -1 10.8806 21.5850   4
  -4 -11  -2 95.4353 24.1379   4
  -4 -11  -3 34.7542 24.2860   4
  -4 -11  -4 49.8241 25.2117   4
  -4 -11  -5-8.62478 24.0387   4
  -4 -11  -6-17.1072 22.3967   4
  -4 -11  -7 46.6781 24.4019   4
  -4 -11  -8 39.9210 22.3095   4
  -4 -11 -11 94.3079 21.3696   7
  -4 -12   4 94.3886 30.9471   4
  -4 -12   3 114.448 34.6549   4
  -4 -12   1 10.9410 25.0446   4
  -4 -12   0 22.2586 30.0977   4
  -4 -12  -1 35.9680 29.8293   4
  -4 -12  -2 51.8771 29.0805   4
  -4 -12  -3 82.5893 29.9557   4
  -4 -12  -4-51.4176 26.2347   4
  -4 -12  -5 34.5376 22.6397   4
  -4 -12  -6 124.028 29.5031   4
  -4 -12  -7-9.02570 21.0055   4
  -4 -12  -8 74.7379 26.2806   4
  -4 -12  -9 121.560 30.1575   4
  -4 -13   0 16.4560 32.3409   4
  -4 -13  -1 79.1616 33.2220   4
  -4 -13  -2 33.8294 29.0474   4
  -4 -13  -4 33.8954 25.3327   4
  -4 -13  -5 170.543 34.9540   4
  -4 -13  -6-46.8016 22.9537   4
  -4 -13  -7 163.663 30.9276   4
  -5  10   2-67.7794 23.0822   3
  -5  10   1-52.0322 17.6690   3
  -5  10   0 213.108 24.8840   3
  -5  10  -1-20.4763 19.6544   3
  -5  10  -1 125.682 29.9421   5
  -5  10  -2 104.230 27.3687   5
  -5  10  -3 139.536 29.8885   5
  -5   9   5 106.620 22.8370   3
   5  -9  -5 121.608 19.6007   4
  -5   9   3 157.137 22.5442   3
   5  -9  -3 127.759 19.0406   4
  -5   9   1 26.1129 16.8207   3
  -5   9   0 140.122 25.4810   3
  -5   9  -1 3.80585 22.2969   3
  -5   9  -1-49.5220 25.4389   5
  -5   9  -2-10.3558 23.6117   5
  -5   9  -3 37.9404 20.2766   3
  -5   9  -4-68.3224 22.3612   5
   5  -8  -7-35.4850 20.8096   4
  -5   8   6 119.667 26.3999   3
   5  -8  -6 59.7877 18.5479   4
  -5   8   4 67.4866 20.1290   3
   5  -8  -4 92.3611 15.9880   4
  -5   8   3 12.5598 20.9030   3
   5  -8  -3-57.0444 15.9234   4
  -5   8   1 15.4695 21.5139   3
  -5   8   0 49.3981 18.8309   3
  -5   8  -1-26.6944 19.5135   3
  -5   8  -2-15.8019 15.7150   3
  -5   8  -2 19.0779 20.4422   5
  -5   8  -3-7.90015 19.8854   5
  -5   8  -4-21.5880 25.3277   3
  -5   8  -4-54.0991 19.2049   5
  -5   8  -8-3.36678 18.9347   5
  -5   8  -9 84.0946 19.7479   5
  -5   8 -10 109.137 25.7351   5
  -5   7   8-58.9740 20.8898   3
   5  -7  -8 94.4936 19.7496   4
  -5   7   7 24.4557 21.3351   3
   5  -7  -7-40.4465 18.1798   4
  -5   7   6-27.0551 21.8264   3
  -5   7   5 11.9526 20.5475   3
   5  -7  -5 42.1445 13.3307   4
  -5   7   4 36.2641 17.3949   3
   5  -7  -4-52.8784 11.6762   4
  -5   7   3-16.3986 20.2650   3
   5  -7  -3-50.7023 12.5653   4
  -5   7   2-7.99639 19.9701   3
   5  -7  -2 27.4746 12.0437   4
  -5   7   1 69.8971 21.3932   3
   5  -7  -1 29.3901 11.5250   4
  -5   7   0 56.9972 21.2429   3
  -5   7  -1-11.6862 18.1515   3
  -5   7  -2-11.0029 19.5291   3
  -5   7  -2 25.9592 20.2444   5
  -5   7  -3-23.6033 18.6010   3
  -5   7  -3 35.8470 18.1101   5
  -5   7  -4 9.84590 20.8927   5
  -5   7  -5-20.7428 18.1757   5
  -5   7  -6-23.0500 21.9184   5
  -5   7  -7-12.7385 20.5431   5
  -5   7  -8 22.4956 17.1731   5
  -5   7  -9 143.377 22.9470   5
  -5   7 -10 185.437 27.4962   5
  -5   7 -11-60.2083 21.9370   5
  -5   6  10-60.0010 23.3770   3
  -5   6   9 112.360 26.2590   3
   5  -6  -9-31.1236 15.5686   4
  -5   6   8-7.19179 26.0287   3
   5  -6  -8 39.1566 17.0646   4
  -5   6   7-35.6113 19.8715   3
   5  -6  -7 51.4965 16.5906   4
  -5   6   6 10.3119 18.4729   3
   5  -6  -6 15.1419 15.8923   4
  -5   6   5 75.2086 21.4536   3
   5  -6  -5-37.0852 14.2761   4
   5  -6  -4 118.342 18.0038   4
  -5   6   4-7.45452 19.3756   3
  -5   6   3 65.4616 20.0018   3
   5  -6  -3-41.1479 13.9790   4
  -5   6   2 48.9454 21.6896   3
   5  -6  -2 3.50662 11.5719   4
  -5   6   1 33.7313 18.5866   3
   5  -6  -1-66.5879 11.3710   4
  -5   6   0 5.25643 17.0242   3
  -5   6  -1-67.1882 19.1020   3
  -5   6  -2-1.25874 19.3279   3
  -5   6  -2-16.0864 18.1177   5
  -5   6  -3 42.0353 19.6979   3
  -5   6  -3 101.975 20.9583   5
  -5   6  -4-14.3124 20.6454   3
  -5   6  -4 33.6485 20.0532   5
  -5   6  -5 19.8744 19.0325   3
  -5   6  -5-8.89211 18.7778   5
  -5   6  -6 12.1186 16.8942   5
  -5   6  -7 56.5696 20.3165   5
  -5   6  -8 31.0007 16.4749   5
  -5   6  -9 7.42715 17.2009   5
  -5   6 -10-29.2206 15.9995   5
  -5   5  11 248.289 29.0557   3
   5  -5 -10 179.417 16.6270   4
  -5   5  10 48.9424 21.6339   3
   5  -5  -9 158.054 18.6500   4
  -5   5   9-20.5315 21.0619   3
   5  -5  -8 123.094 17.9905   4
  -5   5   8 137.845 24.5934   3
  -5   5   7 45.4542 21.3521   3
   5  -5  -7 92.5272 16.7707   4
  -5   5   6 70.9724 22.5885   3
   5  -5  -6 46.0081 16.8603   4
   5  -5  -5 116.324 16.2942   4
  -5   5   5 5.38558 18.6733   3
  -5   5   4 61.1828 21.7186   3
   5  -5  -4 4.04216 14.4773   4
  -5   5   3 13.1314 18.7262   3
   5  -5  -3 10.7710 14.6193   4
  -5   5   2-2.19288 18.7005   3
   5  -5  -2 0.12938 11.3486   4
   5  -5  -1 118.215 13.9322   4
  -5   5   1 114.465 19.5300   3
  -5   5   0 89.5901 20.2442   3
   5  -5   0 57.8260 12.1085   4
  -5   5  -1-2.96346 19.4980   3
  -5   5  -2 7.21462 14.5397   8
  -5   5  -2-22.2511 17.5086   3
  -5   5  -3 9.67400 16.7659   3
  -5   5  -3 33.6308 16.5697   5
  -5   5  -4 14.2915 18.0165   3
  -5   5  -4 26.9501 14.9113   5
  -5   5  -5 131.314 18.8499   5
  -5   5  -5 114.977 19.4035   3
  -5   5  -6 60.6525 18.4199   3
  -5   5  -6 108.490 20.4063   5
  -5   5  -7 122.280 17.5849   5
  -5   5  -8 52.6097 17.1932   5
  -5   5  -9 33.0156 17.2880   5
  -5   5 -10 8.64727 17.8723   5
  -5   5 -11 12.1658 15.7133   5
  -5   5 -12 3.16812 19.6518   5
  -5   5 -13 75.8558 17.5880   5
  -5   5 -14 139.449 21.5840   5
  -5   4  11-28.5223 24.5557   3
  -5   4  10 151.065 29.2060   3
  -5   4   9 131.138 27.8016   3
  -5   4   8 47.0334 23.6379   3
  -5   4   7 122.672 24.6131   3
  -5   4   6 81.0036 21.2248   3
  -5   4   5 47.9775 21.2382   3
  -5   4   4-14.9084 18.3510   3
  -5   4   3-0.37052 17.8659   3
   5  -4  -3 44.2499 14.6021   4
   5  -4  -2 191.038 16.0401   4
  -5   4   2 180.843 20.4157   3
   5  -4  -1 156.743 14.1883   4
  -5   4   1 206.553 22.2536   3
  -5   4   0 125.924 20.3310   3
   5  -4   0 115.604 13.2431   4
  -5   4  -1 235.889 17.4536   8
   5  -4   1 241.542 14.4372   4
  -5   4  -1 207.159 20.5398   3
  -5   4  -2 138.607 19.7134   3
  -5   4  -2 161.910 17.8820   8
  -5   4  -3 56.6230 17.1307   8
  -5   4  -3 66.1395 17.8162   3
  -5   4  -3 53.9428 14.0295   5
  -5   4  -4 236.989 18.6318   5
  -5   4  -4 230.902 20.6643   3
  -5   4  -5 274.044 19.3584   5
  -5   4  -5 237.082 20.4578   3
  -5   4  -6 149.595 18.2700   5
  -5   4  -6 149.842 18.5911   3
  -5   4  -7 80.4981 16.2368   5
  -5   4  -8 45.1863 17.4433   5
  -5   4  -9 10.4708 15.9911   5
  -5   4 -10-16.1551 16.4088   5
  -5   4 -11 3.12498 16.9614   5
  -5   4 -12 4.63473 17.9565   5
  -5   4 -13-16.3581 14.3077   5
  -5   4 -14-61.9146 17.5965   5
  -5   3  12 21.8967 27.0039   3
  -5   3   9-44.7825 18.8459   3
  -5   3   8 67.7984 22.5834   3
  -5   3   7-0.37095 19.9300   3
  -5   3   6 10.0926 21.0429   3
  -5   3   5 2.70111 19.8985   3
  -5   3   4 34.3078 18.1822   3
  -5   3   3 48.6852 18.4007   3
  -5   3   2 119.613 20.7296   3
  -5   3   1 8.10069 16.9644   3
  -5   3   0 28.5142 12.5228   8
  -5   3   0 44.2512 16.9080   3
   5  -3   0 32.2770 10.0939   4
  -5   3  -1 19.4363 14.0018   8
  -5   3  -1 24.4220 15.6711   3
   5  -3   1 15.3088 8.76635   4
  -5   3  -2-1.43202 14.7881   3
  -5   3  -2 5.11680 14.3742   8
  -5   3  -2 11.3464 11.9323   5
  -5   3  -3 212.035 18.7535   8
  -5   3  -3 163.200 14.9817   5
  -5   3  -3 185.778 18.9677   3
  -5   3  -4 256.780 20.0983   8
  -5   3  -4 268.813 17.0651   5
  -5   3  -4 302.054 21.3385   3
  -5   3  -5 25.4552 17.3385   8
  -5   3  -5-12.5423 15.1719   3
  -5   3  -5 13.8954 12.7679   5
  -5   3  -6 25.0425 15.2901   3
  -5   3  -6 20.5490 12.9036   5
  -5   3  -7 23.2101 13.7470   5
  -5   3  -8 1.88795 14.4478   5
  -5   3  -9-15.4442 14.9725   5
  -5   3 -10-17.4821 16.5420   5
  -5   3 -11 8.06506 14.9005   5
  -5   3 -12-41.1539 15.2916   5
  -5   3 -13-27.0667 13.9828   5
  -5   3 -15-34.1574 20.5702   5
  -5   3 -16 113.321 20.5992   5
  -5   2  12 181.323 31.4108   3
  -5   2  11 108.018 28.0363   3
  -5   2  10 46.8265 21.9968   3
  -5   2   9-13.6957 22.2534   3
  -5   2   8-20.3832 20.8893   3
  -5   2   7 119.684 19.2307   3
  -5   2   6-15.7495 20.5450   3
  -5   2   5 4.87398 20.0950   3
  -5   2   4 0.64744 17.9190   3
  -5   2   3 40.7176 18.0900   3
  -5   2   2 21.6424 17.6905   3
  -5   2   1 29.3822 10.7587   8
  -5   2   1 41.2711 17.7577   3
  -5   2   0 108.840 13.8392   8
  -5   2   0 101.659 17.2550   3
  -5   2  -1 48.9187 13.0119   8
  -5   2  -1 52.6294 16.0520   3
  -5   2  -2 15.2583 15.0629   8
  -5   2  -2 21.8938 15.0254   3
  -5   2  -2-7.16484 11.9456   6
   5  -2   2 1.18992 7.60474   4
  -5   2  -2 0.23944 10.6532   5
  -5   2  -3 435.796 17.6471   6
  -5   2  -3 426.109 20.6738   8
  -5   2  -3 413.190 16.3801   5
  -5   2  -3 381.887 20.4714   3
  -5   2  -4 15.5273 16.5634   8
  -5   2  -4 16.2928 14.0617   3
  -5   2  -4 6.91406 11.1653   5
  -5   2  -5 410.743 23.3918   8
  -5   2  -5 379.221 15.7057   6
  -5   2  -5 414.084 16.9675   5
  -5   2  -5 373.176 20.6134   3
  -5   2  -6-27.7677 14.4087   3
  -5   2  -6-12.9615 16.3331   8
  -5   2  -6 22.7208 12.2975   5
  -5   2  -7 31.1452 18.3047   8
  -5   2  -7 3.85138 11.7668   5
  -5   2  -7 15.8357 13.6703   3
  -5   2  -8-1.24753 13.5735   5
  -5   2  -9 63.2532 15.5458   5
  -5   2 -10 82.1966 14.6045   5
  -5   2 -11 258.415 19.0551   5
  -5   2 -12 119.470 17.3800   5
  -5   2 -13 59.2197 15.7815   5
  -5   2 -15 45.3062 15.6162   5
  -5   2 -16 52.1454 20.5539   5
  -5   1  12 53.6799 26.2413   3
  -5   1  11-23.3956 24.9091   3
  -5   1  10 28.7692 20.0104   3
  -5   1   9 61.0548 25.4302   3
  -5   1   8 27.7400 21.0500   3
  -5   1   7 84.5345 21.0863   3
  -5   1   6 124.265 21.8508   3
  -5   1   5 73.6055 20.6995   3
  -5   1   4 65.9994 18.6112   3
  -5   1   3-4.94399 16.8625   3
  -5   1   2-3.61470 15.7352   3
  -5   1   1 0.63265 13.9959   3
  -5   1   1 8.82470 11.3485   8
  -5   1   0 73.5744 12.5965   8
  -5   1   0 81.2653 15.7902   3
  -5   1  -1 61.0738 12.8388   8
  -5   1  -1 71.9714 15.2962   3
  -5   1  -2 30.9860 14.7540   8
  -5   1  -2 15.2890 12.6329   6
  -5   1  -2 23.4089 13.5419   3
  -5   1  -2 27.4165 8.61736   5
  -5   1  -3 35.2369 15.8095   8
  -5   1  -3 47.6982 14.7176   3
  -5   1  -3 53.5588 13.3262   6
  -5   1  -3 42.1983 8.30807   5
  -5   1  -4 119.811 17.7065   8
  -5   1  -4 95.1427 14.5471   3
  -5   1  -4 104.112 13.6688   6
  -5   1  -4 107.207 10.9752   5
  -5   1  -5 89.0545 16.4642   8
  -5   1  -5 88.0321 12.4558   6
  -5   1  -5 137.700 12.2513   5
  -5   1  -5 112.662 14.7824   3
  -5   1  -6 78.6603 14.6179   3
  -5   1  -6 74.4999 12.5344   6
  -5   1  -6 72.8416 18.8719   8
  -5   1  -6 69.8425 12.2618   5
  -5   1  -7 83.0299 14.3940   3
  -5   1  -7 96.4229 18.8559   8
  -5   1  -7 79.4653 12.5558   5
  -5   1  -8 74.8588 20.1326   8
  -5   1  -8 69.1707 13.6863   5
  -5   1  -9 53.0384 20.3041   8
  -5   1  -9 36.9224 12.6724   5
  -5   1 -10 17.6150 22.2040   8
  -5   1 -10-65.8936 13.8201   5
  -5   1 -11 169.175 22.6424   8
  -5   1 -11 85.9786 14.9043   5
  -5   1 -12 77.6095 17.0383   5
  -5   1 -13 100.262 16.1415   5
  -5   1 -14 152.880 27.1248   8
  -5   1 -14-7.69452 16.7227   5
  -5   1 -15 102.092 26.2899   8
  -5   1 -15 80.5007 17.5887   5
  -5   1 -16 3.93003 28.3271   8
  -5   1 -16 55.6054 20.1404   5
  -5   0  11-40.7759 22.7741   3
  -5   0   9-30.0174 22.5647   3
  -5   0   8-2.05769 18.9385   3
  -5   0   7 307.344 25.8748   3
  -5   0   6 1.15337 18.6814   3
  -5   0   5 16.4595 18.8250   3
  -5   0   4 134.800 20.4070   3
  -5   0   3 292.094 21.6551   3
  -5   0   2 227.547 20.4703   3
  -5   0   1 180.759 18.4748   3
  -5   0   0 40.1208 13.1873   8
  -5   0   0 55.5205 15.4482   3
  -5   0  -1 20.9271 13.4532   8
  -5   0  -1 8.23833 13.2836   3
  -5   0  -2 34.2068 13.4193   8
  -5   0  -2 26.7258 14.5484   6
  -5   0  -2 49.6916 13.4423   3
  -5   0  -3 102.771 16.6069   8
  -5   0  -3 126.463 15.8709   6
  -5   0  -3 97.9363 7.60382   5
  -5   0  -3 106.932 14.1172   3
  -5   0  -4-1.06976 15.1462   8
  -5   0  -4 17.3415 11.6127   3
  -5   0  -4 2.35831 12.4554   6
  -5   0  -4 13.3221 8.07305   5
  -5   0  -5 126.438 18.9191   8
  -5   0  -5 133.918 14.3288   6
  -5   0  -5 142.211 10.8886   5
  -5   0  -5 129.937 13.3350   3
  -5   0  -6 11.7162 17.2654   8
  -5   0  -6 2.69946 12.0205   6
  -5   0  -6 7.36119 11.6905   3
  -5   0  -6-0.91880 8.83822   5
  -5   0  -7-11.7360 11.5568   3
  -5   0  -7 7.11641 11.1133   6
  -5   0  -7 4.53466 17.7382   8
  -5   0  -7-3.07793 8.51014   5
  -5   0  -8 85.2412 20.6386   8
  -5   0  -8 78.7343 11.8134   5
  -5   0  -9 171.872 20.7432   8
  -5   0  -9 194.165 14.5724   5
  -5   0 -10 389.758 26.8526   8
  -5   0 -10 378.356 18.9736   5
  -5   0 -11 347.202 25.1129   8
  -5   0 -11 353.302 20.5510   5
  -5   0 -12 109.158 23.3683   8
  -5   0 -12 19.1925 17.0183   5
  -5   0 -13 43.6418 22.4737   8
  -5   0 -13 28.0707 14.7937   5
  -5   0 -14 3.83761 16.7712   5
  -5   0 -14 81.6278 24.2712   8
  -5   0 -15 79.2973 24.2081   8
  -5   0 -16 25.7836 27.9724   8
  -5   0 -16 61.9503 20.5187   5
  -5  -1  11-32.6525 25.0308   3
  -5  -1  10-28.7476 24.1889   3
  -5  -1   9-25.7755 23.3364   3
  -5  -1   8-8.00298 19.1623   3
  -5  -1   7 59.6442 21.1291   3
  -5  -1   6 597.829 29.2707   3
  -5  -1   5-0.19027 18.0533   3
  -5  -1   4-8.32884 17.9724   3
  -5  -1   3 51.8305 16.5874   3
  -5  -1   2 235.976 19.0320   3
  -5  -1   1 440.940 21.1252   3
  -5  -1   0 75.5436 15.4068   3
  -5  -1  -1 105.574 14.3749   3
  -5  -1  -1 111.391 15.9632   8
  -5  -1  -2 58.0010 15.2758   8
  -5  -1  -2 64.4940 15.5992   6
  -5  -1  -2 47.6660 12.2360   3
  -5  -1  -3 65.1713 16.2031   8
  -5  -1  -3 84.7149 16.1270   6
  -5  -1  -3 52.9211 12.4096   3
  -5  -1  -4 151.843 16.5589   8
  -5  -1  -4 149.842 15.9595   6
  -5  -1  -4 142.339 12.8819   3
  -5  -1  -5 455.039 22.5887   8
  -5  -1  -5 475.983 19.6472   6
  -5  -1  -5 468.885 12.5986   5
   5   1   5 430.124 18.2199   1
  -5  -1  -5 477.576 16.9111   3
  -5  -1  -6 444.388 24.5106   8
  -5  -1  -6 418.356 19.3359   6
  -5  -1  -6 386.935 13.0115   5
   5   1   6 333.878 14.9101   1
  -5  -1  -6 391.847 15.8310   3
  -5  -1  -7 95.5638 17.7369   8
  -5  -1  -7 61.2563 10.8208   3
  -5  -1  -7 79.9226 13.6342   6
  -5  -1  -7 72.5483 9.59481   5
  -5  -1  -8 10.8083 18.6410   8
  -5  -1  -8 31.0425 10.4223   5
  -5  -1  -9 41.1836 17.8105   8
  -5  -1  -9 1.73988 10.5175   5
  -5  -1 -10 39.0523 19.8311   8
  -5  -1 -10 77.6736 13.3473   5
  -5  -1 -11 69.6094 14.6783   5
  -5  -1 -11 68.6296 21.1041   8
  -5  -1 -12 108.645 21.0077   8
  -5  -1 -12 79.9935 15.4646   5
  -5  -1 -13 75.3720 21.4526   8
  -5  -1 -13 23.0369 15.4303   5
  -5  -1 -14 78.4964 22.0998   8
  -5  -1 -14-30.0244 18.0080   5
  -5  -1 -15 69.0833 22.9092   8
  -5  -2  11-21.8393 24.2767   3
  -5  -2  10 31.4769 23.2208   3
  -5  -2   9 31.6802 19.7047   3
  -5  -2   8 30.8573 19.0773   3
  -5  -2   7 72.2399 21.7452   3
  -5  -2   6 156.860 21.1123   3
  -5  -2   5 156.669 19.5641   3
  -5  -2   4 25.1714 18.0504   3
  -5  -2   3-7.70434 16.6085   3
  -5  -2   2 18.1726 14.1044   3
  -5  -2   1 136.478 16.6243   3
  -5  -2   0-1.13859 12.3721   3
  -5  -2  -1 545.893 19.7529   3
  -5  -2  -2 51.5209 15.1992   6
  -5  -2  -2 77.5566 12.4390   3
  -5  -2  -2 84.3512 15.4174   8
  -5  -2  -3 15.4701 15.4606   8
  -5  -2  -3 23.5491 10.6160   2
  -5  -2  -3 17.2378 15.0158   6
  -5  -2  -3 19.3796 10.1655   3
  -5  -2  -4 4.86427 14.4599   8
  -5  -2  -4 17.2255 10.1485   2
  -5  -2  -4-0.52701 15.2906   6
  -5  -2  -4 3.15250 9.13478   3
   5   2   4 4.37033 8.45343   1
  -5  -2  -5 52.8280 14.9397   8
  -5  -2  -5 59.2195 16.3202   7
  -5  -2  -5 56.2071 9.89249   3
  -5  -2  -5 69.9604 13.6665   2
  -5  -2  -5 62.1767 15.3284   6
   5   2   5 86.1657 10.0477   1
  -5  -2  -6 587.468 25.5748   8
  -5  -2  -6 532.321 18.9317   2
  -5  -2  -6 598.211 25.5333   7
  -5  -2  -6 569.814 22.3729   6
  -5  -2  -6 534.558 15.2201   3
   5   2   6 591.439 19.1164   1
  -5  -2  -7 15.9516 18.6797   8
  -5  -2  -7 23.0486 17.2899   7
   5   2   7 29.1072 9.48552   1
  -5  -2  -7 37.7820 12.4205   2
  -5  -2  -7 48.7804 15.3097   6
  -5  -2  -7 25.5262 9.37633   5
  -5  -2  -8 22.7612 17.2578   8
  -5  -2  -8-9.41349 17.3298   7
  -5  -2  -8 3.53668 11.3103   2
  -5  -2  -8-1.76722 10.7913   5
  -5  -2  -9 6.32725 17.7274   8
  -5  -2  -9 16.1173 17.2363   7
  -5  -2  -9 14.2029 11.3791   5
  -5  -2 -10 59.1136 18.4384   7
  -5  -2 -10 15.7179 12.8507   5
  -5  -2 -10 64.2387 19.9516   8
  -5  -2 -11 84.2932 19.8677   8
  -5  -2 -11 142.331 22.2672   7
  -5  -2 -11 90.6208 15.3039   5
  -5  -2 -12 73.5175 20.2954   7
  -5  -2 -12 52.8973 20.8325   8
  -5  -2 -12 79.3891 15.7808   5
  -5  -2 -13 16.8178 20.2937   7
  -5  -2 -13-6.39327 16.6216   5
  -5  -2 -13 13.5683 20.0994   8
  -5  -2 -14-23.2768 21.3928   8
  -5  -2 -14 38.8328 22.3604   7
  -5  -2 -14-13.7274 18.6090   5
  -5  -2 -15 111.139 25.7581   7
  -5  -2 -15 29.0231 16.2924   5
  -5  -2 -16-31.7788 21.4330   7
  -5  -2 -17 24.6874 18.4948   5
  -5  -3  11-61.5920 22.5700   3
  -5  -3  10 59.0128 24.6830   3
  -5  -3   9 19.7265 18.1230   3
  -5  -3   8 40.1276 21.7153   3
  -5  -3   7 24.0567 19.6994   3
  -5  -3   6 329.782 23.1771   3
  -5  -3   5 106.503 18.9867   3
  -5  -3   4-0.43400 15.3385   3
  -5  -3   3 24.0046 16.6270   3
  -5  -3   2 10.1945 14.5569   3
  -5  -3   1-6.20437 13.6208   3
  -5  -3   0 119.518 15.7321   4
  -5  -3   0 111.976 14.4183   3
  -5  -3  -1 298.678 20.3867   6
  -5  -3  -1 287.229 17.7624   4
  -5  -3  -1 313.528 15.8001   3
  -5  -3  -2 60.5539 12.4129   4
  -5  -3  -2 59.3401 13.6120   7
  -5  -3  -2 63.2159 16.6527   6
  -5  -3  -2 50.6460 10.7330   3
  -5  -3  -3 38.8479 13.6774   7
  -5  -3  -3 37.0146 16.4685   6
  -5  -3  -3 39.6650 10.9367   4
  -5  -3  -3 42.2427 9.53447   3
  -5  -3  -4 61.2187 10.6670   4
  -5  -3  -4 39.6423 14.9214   7
  -5  -3  -4 35.4990 16.2161   8
  -5  -3  -4 52.9320 15.2835   6
  -5  -3  -4 46.3772 12.0645   2
  -5  -3  -4 60.3425 8.89989   3
  -5  -3  -5 2.16076 15.1383   8
  -5  -3  -5 20.0064 15.7265   7
  -5  -3  -5 11.3858 8.35917   4
  -5  -3  -5 9.51987 7.60561   3
  -5  -3  -5 5.47364 14.5371   6
  -5  -3  -5-4.54061 13.9819   2
   5   3   6 243.832 12.8763   1
  -5  -3  -6 262.550 20.7687   7
  -5  -3  -6 267.875 17.9361   2
  -5  -3  -6 272.376 18.8733   6
  -5  -3  -6 290.796 21.4181   8
  -5  -3  -7 350.722 21.9639   8
  -5  -3  -7 355.155 16.2906   2
  -5  -3  -7 375.890 23.7077   7
  -5  -3  -7 411.822 21.5020   6
   5   3   7 329.709 14.6619   1
  -5  -3  -8 66.8845 18.1214   7
  -5  -3  -8 87.8744 17.6159   8
  -5  -3  -8 73.8872 11.8328   2
  -5  -3  -8 87.3005 11.3489   5
   5   3   8 83.8971 9.55380   1
  -5  -3  -9 71.3614 19.1463   8
  -5  -3  -9 78.0771 19.5303   7
  -5  -3  -9 100.105 13.3245   5
  -5  -3 -10 114.465 20.6464   7
  -5  -3 -10 120.121 20.8509   8
  -5  -3 -10 114.706 15.0778   5
  -5  -3 -11 122.496 22.6020   7
  -5  -3 -11 105.676 19.5694   8
  -5  -3 -11 122.075 16.1441   5
  -5  -3 -12 263.260 23.6052   8
  -5  -3 -12 276.090 25.1690   7
  -5  -3 -12 293.255 22.7722   5
  -5  -3 -13 335.966 27.8172   8
  -5  -3 -13 313.988 26.4863   7
  -5  -3 -13 332.210 23.1313   5
  -5  -3 -14 43.6731 20.4709   7
  -5  -3 -14 26.6063 15.3724   5
  -5  -3 -15-26.8128 24.5801   7
  -5  -3 -15 109.860 20.2094   5
  -5  -3 -16 90.1898 26.1651   7
  -5  -3 -16 149.015 20.5507   5
  -5  -3 -17 43.5982 18.9653   5
  -5  -4  10-13.9315 23.4655   3
  -5  -4   9 53.8912 22.4314   3
  -5  -4   8 24.2105 21.6514   3
  -5  -4   7 2.33120 20.1971   3
  -5  -4   6 32.8981 19.4049   3
  -5  -4   5 307.329 22.5701   3
  -5  -4   4 29.4841 16.5893   3
  -5  -4   3-4.66114 14.6770   3
  -5  -4   2 10.3336 14.4084   3
  -5  -4   2-20.5878 16.7956   4
  -5  -4   1-3.12630 14.7379   4
  -5  -4   1 1.60328 12.6587   3
  -5  -4   0 96.5761 11.7167   7
  -5  -4   0 81.0298 17.0434   4
  -5  -4   0 109.564 17.8134   6
  -5  -4   0 118.479 14.0699   3
  -5  -4  -1 1051.24 24.3296   7
  -5  -4  -1 999.703 29.7391   6
  -5  -4  -1 1030.34 27.3245   4
  -5  -4  -1 1087.21 24.0066   3
  -5  -4  -2 165.304 14.7501   7
  -5  -4  -2 152.203 18.4847   6
  -5  -4  -2 144.927 12.1969   3
  -5  -4  -2 145.526 15.6193   4
  -5  -4  -3 66.9669 14.2922   7
  -5  -4  -3 61.5759 17.7435   6
  -5  -4  -3 53.7840 12.2614   4
  -5  -4  -3 76.0651 9.98846   3
  -5  -4  -4 9.75308 10.5259   4
  -5  -4  -4-6.08708 14.7966   7
  -5  -4  -4 6.64765 15.1333   6
  -5  -4  -5 8.09510 14.9983   7
  -5  -4  -5 13.9333 9.98963   4
  -5  -4  -5 6.62705 15.6374   6
  -5  -4  -5 11.2930 13.8131   2
  -5  -4  -6 2.01483 14.5546   8
  -5  -4  -6 11.5851 17.3652   7
  -5  -4  -6 24.3039 15.8229   6
  -5  -4  -6 10.9679 11.1098   2
  -5  -4  -7-3.47667 15.2455   8
  -5  -4  -7-10.4819 17.4822   7
  -5  -4  -7 7.55847 15.2893   6
  -5  -4  -8 12.4191 14.1215   8
  -5  -4  -8 22.3817 17.7969   7
  -5  -4  -9 52.9410 17.1760   8
  -5  -4  -9 34.6989 17.1147   7
  -5  -4 -10 34.4466 16.2617   8
  -5  -4 -10 65.7882 20.4676   7
  -5  -4 -10 65.9473 13.8975   5
  -5  -4 -11 109.307 16.2278   8
  -5  -4 -11 113.599 21.4900   7
  -5  -4 -11 103.909 16.9102   5
  -5  -4 -12 65.1466 16.4949   8
  -5  -4 -12 68.5351 21.5254   7
  -5  -4 -12 92.4021 16.8103   5
  -5  -4 -13 45.2760 20.7213   7
  -5  -4 -13 96.7213 18.8880   5
  -5  -4 -14 45.5894 22.5277   7
  -5  -4 -14 77.6101 18.5497   5
  -5  -4 -15-20.9986 24.6106   7
  -5  -4 -15 21.5755 17.5448   5
  -5  -4 -16 62.9464 19.8781   5
  -5  -4 -16-6.11714 18.9393   7
  -5  -4 -17 113.280 31.1340   7
  -5  -4 -17 222.779 22.0253   5
  -5  -5  11-69.8284 26.3186   3
  -5  -5  10-18.8795 25.3316   3
  -5  -5   9 1.23952 20.5447   3
  -5  -5   8 24.5001 21.1682   3
  -5  -5   7 29.4084 19.2773   3
  -5  -5   6 17.2121 18.5056   3
  -5  -5   5 44.9490 18.9814   3
  -5  -5   4 66.4374 21.0601   4
  -5  -5   4 65.8595 16.9897   3
  -5  -5   3 86.1542 19.2535   4
  -5  -5   3 106.766 17.2864   3
  -5  -5   2 103.401 20.8308   4
  -5  -5   2 73.5177 14.8693   3
  -5  -5   1 67.2686 17.1587   4
  -5  -5   1 73.8643 13.9554   3
  -5  -5   0 16.7943 15.4195   4
  -5  -5   0 0.75884 10.9797   7
  -5  -5   0-3.74444 12.2345   3
  -5  -5   0 11.7180 16.2059   6
  -5  -5  -1 454.413 19.0067   7
  -5  -5  -1 453.861 23.9233   6
  -5  -5  -1 444.458 22.1106   4
  -5  -5  -1 469.542 17.6378   3
  -5  -5  -2 193.650 15.6965   7
  -5  -5  -2 188.839 19.8710   6
  -5  -5  -2 209.084 16.8328   4
  -5  -5  -2 200.078 12.9090   3
  -5  -5  -3 149.282 16.0821   7
  -5  -5  -3 99.2015 17.9355   6
  -5  -5  -3 125.159 15.7188   4
  -5  -5  -4 89.8852 14.5863   7
  -5  -5  -4 76.4453 13.9394   4
  -5  -5  -4 97.5444 17.1296   6
  -5  -5  -5 17.8843 14.1411   7
  -5  -5  -5 25.1819 12.2490   4
  -5  -5  -5 11.3814 15.4105   6
  -5  -5  -6 8.25315 14.5806   7
  -5  -5  -6 15.0389 15.6374   6
  -5  -5  -6 18.3685 10.6923   4
  -5  -5  -7 12.2605 15.9239   7
  -5  -5  -7 7.55774 15.6283   6
  -5  -5  -8-16.3047 14.5206   8
  -5  -5  -8-0.29184 16.4474   7
  -5  -5  -9 6.08311 12.8377   8
  -5  -5  -9 12.3655 17.5291   7
  -5  -5 -10-6.54352 13.4399   8
  -5  -5 -10 20.8744 18.2902   7
  -5  -5 -11 20.4428 14.0131   8
  -5  -5 -11 23.6861 18.3638   7
  -5  -5 -12 61.1743 20.0216   7
  -5  -5 -13-12.5171 22.6601   7
  -5  -5 -13 42.5654 18.7821   5
  -5  -5 -14 22.1781 24.3961   7
  -5  -5 -14 62.3429 21.4140   5
  -5  -5 -15 35.1378 24.5207   7
  -5  -5 -15 56.9607 22.3833   5
  -5  -5 -16 81.8246 24.4861   5
  -5  -5 -17 83.0725 33.5142   7
  -5  -5 -17 53.4338 29.3035   5
  -5  -6  11 126.375 26.2230   3
  -5  -6  10 9.10174 22.4685   3
  -5  -6   8 0.53407 20.9299   3
  -5  -6   7 28.4774 22.2645   3
  -5  -6   6 26.3934 19.2281   3
  -5  -6   5 24.2765 16.2100   3
  -5  -6   5-28.2124 21.3462   4
  -5  -6   4 573.034 25.9990   3
  -5  -6   4 474.927 28.2868   4
  -5  -6   3 58.9431 21.3424   4
  -5  -6   3 119.004 17.7774   3
  -5  -6   2 128.398 15.2558   3
  -5  -6   2 114.560 20.3399   4
  -5  -6   1 100.265 19.4917   4
  -5  -6   1 110.490 18.3629   6
  -5  -6   1 111.010 15.3455   3
  -5  -6   0 132.988 14.4327   3
  -5  -6   0 112.618 19.4478   4
  -5  -6   0 115.333 17.9932   6
  -5  -6  -1 16.5151 10.6570   7
  -5  -6  -1-9.17115 16.0163   4
  -5  -6  -1 14.7470 10.8191   3
  -5  -6  -1 7.59738 16.3753   6
  -5  -6  -2 1931.23 34.0257   7
  -5  -6  -2 2004.41 40.2311   6
  -5  -6  -2 1864.98 38.6641   4
  -5  -6  -3-8.30159 11.9160   7
  -5  -6  -3-9.28162 15.0722   4
  -5  -6  -3 3.85745 15.8158   6
  -5  -6  -4 4.35639 14.6250   4
  -5  -6  -4 8.61304 14.6882   6
  -5  -6  -4 32.2859 14.0542   7
  -5  -6  -5 7.92362 15.2871   7
  -5  -6  -5 6.01545 12.8707   4
  -5  -6  -5 3.92488 16.2178   6
  -5  -6  -6 0.44971 15.2279   7
  -5  -6  -6 0.27205 15.1466   6
  -5  -6  -6 22.3786 13.3682   4
  -5  -6  -7-0.28883 14.7875   7
  -5  -6  -7 0.20274 12.9913   4
  -5  -6  -8 64.5685 19.0905   7
  -5  -6  -9 17.7849 16.5068   7
  -5  -6 -10 1.34801 17.2909   7
  -5  -6 -11-15.9477 18.6020   7
  -5  -6 -12 3.12909 17.9317   7
  -5  -6 -13 46.2985 20.4417   7
  -5  -6 -14 90.7708 21.7865   7
  -5  -6 -15 122.715 25.0243   7
  -5  -6 -17 124.193 29.6744   7
  -5  -7  10 92.8667 30.7955   3
  -5  -7   9 10.7770 25.1883   3
  -5  -7   8-57.3480 23.7453   3
  -5  -7   7-33.1399 21.3438   3
  -5  -7   6 8.82982 19.7714   3
  -5  -7   5-22.0487 23.3151   4
  -5  -7   5 17.5039 19.6683   3
  -5  -7   4-8.18885 21.8933   4
  -5  -7   4 61.7644 19.3685   3
  -5  -7   3 9.14128 21.5893   4
  -5  -7   3 37.0819 18.2705   3
  -5  -7   2 27.0788 18.9704   4
  -5  -7   2 38.2835 17.5668   6
  -5  -7   2 48.5286 15.2025   3
  -5  -7   1 42.1492 20.6626   4
  -5  -7   1 17.4588 18.0765   6
  -5  -7   1 4.66035 13.5382   3
  -5  -7   0 13.1176 18.8433   4
  -5  -7   0 28.9419 16.9595   6
  -5  -7  -1 16.2172 18.0093   4
  -5  -7  -1 1.30580 16.3682   6
  -5  -7  -2 109.623 15.1723   7
  -5  -7  -2 89.3087 19.1614   4
  -5  -7  -2 63.3420 17.8215   6
  -5  -7  -3 140.264 16.2456   7
  -5  -7  -3 95.6000 19.0306   4
  -5  -7  -3 106.004 17.2384   6
  -5  -7  -4-2.73217 16.6969   4
  -5  -7  -4 0.91282 14.5397   6
  -5  -7  -4 1.15367 13.8494   7
  -5  -7  -5 18.0897 14.9080   7
  -5  -7  -5 48.7958 16.1909   6
  -5  -7  -5 10.7137 16.1667   4
  -5  -7  -6 44.2547 15.6259   7
  -5  -7  -6 63.2701 16.8220   6
  -5  -7  -6 38.4093 15.8739   4
  -5  -7  -7 64.1926 17.9659   7
  -5  -7  -7 87.8439 16.3682   4
  -5  -7  -8 89.8837 20.0548   7
  -5  -7  -9 53.0658 19.6134   7
  -5  -7 -10 33.1670 16.9240   7
  -5  -7 -11-15.1711 19.8450   7
  -5  -7 -12 24.3400 21.1452   7
  -5  -7 -13-11.0617 17.4023   7
  -5  -7 -14-57.5722 21.2101   7
  -5  -7 -15 60.3016 17.1153   7
  -5  -7 -16 115.387 22.6301   7
  -5  -8   9-29.9217 28.4682   3
  -5  -8   8 106.469 27.7404   3
  -5  -8   7 23.1642 21.3547   3
  -5  -8   6 0.46850 25.1036   4
  -5  -8   6-36.2263 18.7194   3
  -5  -8   5 18.1109 23.6648   4
  -5  -8   5-9.34129 18.8855   3
  -5  -8   4 32.7391 25.0269   4
  -5  -8   4 71.9164 21.6171   6
  -5  -8   4 40.4709 19.3545   3
  -5  -8   3 28.7454 21.2866   4
  -5  -8   3 21.0458 17.7428   6
  -5  -8   3-0.76337 17.1107   3
  -5  -8   2 42.7990 21.8737   4
  -5  -8   2 32.7417 17.5465   6
  -5  -8   2 16.0476 16.2454   3
  -5  -8   1 64.2042 22.3619   4
  -5  -8   1 75.9070 18.9107   6
  -5  -8   0 46.1820 19.7281   4
  -5  -8   0 42.1713 18.4844   6
  -5  -8  -1 13.1938 18.7774   4
  -5  -8  -2 120.402 15.6509   7
  -5  -8  -2 138.195 21.7363   4
  -5  -8  -2 76.0905 17.3401   6
  -5  -8  -3 239.380 18.6330   7
  -5  -8  -3 220.418 21.4834   6
  -5  -8  -3 271.699 24.6002   4
  -5  -8  -4 399.982 21.7911   7
  -5  -8  -4 364.385 22.8471   6
  -5  -8  -4 406.717 24.4242   4
  -5  -8  -5 35.9375 16.6004   7
  -5  -8  -5 36.9096 16.7538   6
  -5  -8  -5 71.7274 19.1603   4
  -5  -8  -6-11.0068 16.3951   7
  -5  -8  -6 16.7943 17.8529   4
  -5  -8  -7 10.1701 16.0830   7
  -5  -8  -7 24.7801 16.6732   4
  -5  -8  -8 56.2532 20.1230   7
  -5  -8  -8 6.39525 14.6201   4
  -5  -8  -9 4.23448 14.5136   7
  -5  -8 -10-34.5043 19.3155   7
  -5  -8 -11 7.65021 24.9816   7
  -5  -8 -12-0.22614 19.7765   7
  -5  -8 -13-55.3977 18.0201   7
  -5  -8 -14 24.0027 21.1817   7
  -5  -8 -15-67.7253 19.5414   7
  -5  -9   8-51.4611 30.2186   4
  -5  -9   8-48.4324 23.6912   3
  -5  -9   7 97.0853 26.2881   4
  -5  -9   7 15.2439 23.6126   3
  -5  -9   6 74.2747 27.7365   4
  -5  -9   6 48.9733 20.6723   3
  -5  -9   5 56.2851 28.0406   4
  -5  -9   5 13.8100 19.1573   3
  -5  -9   4 32.4404 21.5478   4
  -5  -9   4-18.3805 19.6031   3
  -5  -9   3-7.52632 25.0502   4
  -5  -9   3-13.4694 15.9333   3
  -5  -9   2-10.6932 22.1511   4
  -5  -9   1 33.8089 23.4206   4
  -5  -9   0 52.7732 20.3407   4
  -5  -9   0 17.7786 17.4180   6
  -5  -9  -1 61.8504 23.0229   4
  -5  -9  -1 63.2350 16.2791   6
  -5  -9  -2 6.21656 19.7223   4
  -5  -9  -2 15.3761 14.4694   6
  -5  -9  -3 215.853 18.1143   7
  -5  -9  -3 193.702 19.9195   6
  -5  -9  -3 183.375 24.8280   4
  -5  -9  -4 70.6873 17.0458   7
  -5  -9  -4 29.5342 15.5411   6
  -5  -9  -4 60.5246 19.3329   4
  -5  -9  -5 55.5725 18.3069   7
  -5  -9  -5 59.3555 17.4576   6
  -5  -9  -5 64.5778 20.6791   4
  -5  -9  -6 78.8493 18.2154   7
  -5  -9  -6 59.4940 20.8605   4
  -5  -9  -7 52.7006 17.8300   7
  -5  -9  -7 31.0448 19.4714   4
  -5  -9  -8-7.52977 15.7400   7
  -5  -9  -8 0.43900 19.8270   4
  -5  -9  -9 45.7115 17.7675   7
  -5  -9 -10 93.7171 20.1404   7
  -5  -9 -11 27.2784 16.7165   7
  -5  -9 -13 78.0381 21.5169   7
  -5  -9 -14-70.7695 22.6782   7
  -5 -10   7 99.9306 31.3246   3
  -5 -10   6-25.2863 26.6445   3
  -5 -10   5 41.3506 28.4469   4
  -5 -10   5-45.5838 24.8284   3
  -5 -10   4 39.5198 30.7062   4
  -5 -10   3 77.2039 25.2073   4
  -5 -10   2 38.8372 26.6303   4
  -5 -10   1 2.37603 23.6035   4
  -5 -10   0 36.7945 22.0289   4
  -5 -10  -1 33.4401 25.1452   4
  -5 -10  -2 69.7769 21.7156   4
  -5 -10  -3 178.181 24.0100   4
  -5 -10  -4-36.2198 14.4689   7
  -5 -10  -4-7.78066 13.2961   6
  -5 -10  -4 14.4126 21.4766   4
  -5 -10  -5 20.8901 17.5691   7
  -5 -10  -5 114.529 24.3326   4
  -5 -10  -6-42.6566 16.3466   7
  -5 -10  -6 60.7586 23.8512   4
  -5 -10  -7-12.8881 16.7661   7
  -5 -10  -7-6.59937 18.5236   4
  -5 -10  -8 22.5040 16.3286   7
  -5 -10  -8-9.00587 18.8697   4
  -5 -10  -9 174.950 24.6727   4
  -5 -10  -9 135.510 21.6752   7
  -5 -10 -10-40.5876 16.5867   7
  -5 -10 -11-28.9139 18.6603   7
  -5 -10 -12 54.9207 20.7311   7
  -5 -10 -13-64.7591 17.7760   7
  -5 -11   5-62.1360 29.8700   4
  -5 -11   3-76.7833 24.3333   4
  -5 -11   2 43.8433 28.6411   4
  -5 -11   1 41.6090 29.3343   4
  -5 -11   0 55.7379 27.1127   4
  -5 -11  -1 4.33909 21.6708   4
  -5 -11  -2-28.2777 21.0368   4
  -5 -11  -3-18.0359 21.1910   4
  -5 -11  -4 34.6438 13.4855   7
  -5 -11  -4 10.3051 21.3071   4
  -5 -11  -5 50.7074 14.5305   7
  -5 -11  -5 51.1788 22.4210   4
  -5 -11  -6 115.432 18.1198   7
  -5 -11  -6 11.8772 24.4430   4
  -5 -11  -7 27.1445 17.2042   7
  -5 -11  -7 11.8208 24.4034   4
  -5 -11  -8-54.6808 16.4931   7
  -5 -11  -8 104.798 27.2049   4
  -5 -11  -9-36.7837 19.5956   7
  -5 -11  -9-15.5560 20.4426   4
  -5 -11 -10 102.087 23.8591   7
  -5 -11 -11-16.8996 19.9993   7
  -5 -12   2-12.2165 27.3639   4
  -5 -12   1 129.618 30.2574   4
  -5 -12   0 123.850 27.1664   4
  -5 -12  -1-23.8421 29.2868   4
  -5 -12  -3-2.26359 25.5844   4
  -5 -12  -4 63.2189 29.6942   4
  -5 -12  -5 26.9057 16.7330   7
  -5 -12  -5 21.6307 26.1384   4
  -5 -12  -6 62.8673 19.3992   7
  -5 -12  -6-21.0485 25.7715   4
  -5 -12  -7 112.728 18.4150   7
  -5 -12  -7 107.084 26.8244   4
  -5 -12  -8 54.4254 19.7498   7
  -5 -12  -8-28.7031 27.5829   4
  -5 -12  -9 81.3195 29.5806   4
  -5 -12 -10 7.28649 26.9774   4
  -5 -13  -3 69.6257 31.4013   4
  -5 -13  -4 64.8567 28.2468   4
  -5 -13  -5-52.3252 27.4620   4
  -5 -13  -6-11.1020 19.6798   7
  -5 -13  -6 125.285 33.9297   4
  -5 -13  -7 113.225 24.2339   7
  -5 -13  -7 13.8391 24.9061   4
  -6   9  -1 203.233 31.9037   5
  -6   9  -2 81.5018 22.7746   5
  -6   9  -3 178.779 31.3554   5
  -6   9  -4 160.634 28.3212   5
  -6   9  -5 27.1156 22.8075   5
  -6   8   4 2.84352 19.0397   3
   6  -8  -4 162.074 17.0530   4
  -6   8   3 54.2814 19.9766   3
  -6   8   2-1.29855 23.3918   3
  -6   8   1 98.8891 22.9887   3
  -6   8  -1-41.6388 23.7746   3
  -6   8  -2 105.481 23.9830   3
  -6   8  -3 77.8882 25.5362   3
  -6   8  -3-64.9982 25.7390   5
  -6   8  -4-17.5791 24.5322   3
  -6   8  -4-58.8161 24.8540   5
  -6   8  -5-16.4016 24.2971   5
  -6   8  -6-5.92750 26.1451   5
  -6   8  -7-30.5137 22.2642   5
  -6   8  -8 115.863 20.6886   5
  -6   7   6 168.510 25.2655   3
   6  -7  -5 79.5417 15.5467   4
  -6   7   4 117.878 25.3040   3
   6  -7  -3 31.5871 14.7564   4
  -6   7   2-8.01278 16.3961   3
  -6   7   1 72.8000 20.7499   3
  -6   7  -1 20.3387 24.7919   3
  -6   7  -2 37.9919 21.5288   3
  -6   7  -2-15.9450 21.5665   5
  -6   7  -3 82.1825 19.8834   3
  -6   7  -3-53.5254 19.7831   5
  -6   7  -4 64.7029 23.0209   3
  -6   7  -4-51.5273 18.4216   5
  -6   7  -5 38.1273 18.8067   3
  -6   7  -5-4.39500 19.3902   5
  -6   7  -6-7.50177 22.5822   5
  -6   7  -7 78.6450 23.7498   5
  -6   7  -8 129.767 21.8644   5
  -6   7  -9 225.337 21.5543   5
  -6   7 -10 262.531 26.3426   5
  -6   6   7 74.3474 19.9799   3
   6  -6  -7 96.6755 19.6706   4
   6  -6  -6-45.2982 18.1832   4
  -6   6   5 116.097 25.0022   3
  -6   6   4 0.36647 22.2428   3
   6  -6  -4 102.292 14.4113   4
  -6   6   3-5.90485 17.9333   3
  -6   6   2 105.368 23.7009   3
  -6   6   1-0.61321 20.3888   3
  -6   6   0-67.7462 20.3366   3
  -6   6  -1-62.6151 19.7556   3
  -6   6  -2 14.1807 17.4742   3
  -6   6  -2 12.8397 18.1667   5
  -6   6  -3 53.6310 22.1597   3
  -6   6  -3-20.6631 18.2500   5
  -6   6  -4 53.0516 20.0474   3
  -6   6  -4-20.0590 17.2950   5
  -6   6  -5 30.2649 19.0500   3
  -6   6  -5 23.7317 18.6340   8
  -6   6  -5 27.6689 20.1336   5
  -6   6  -6 30.9747 21.0397   3
  -6   6  -6 50.0592 18.0289   5
  -6   6  -7 127.083 19.4495   5
  -6   6  -8 41.1087 17.5569   5
  -6   6  -9-0.97359 18.7297   5
  -6   6 -10-31.3870 16.6771   5
  -6   5   9 110.542 30.8703   3
   6  -5  -8-29.3239 14.8741   4
  -6   5   7 75.9895 22.8013   3
   6  -5  -7 9.45970 17.0301   4
  -6   5   6 1.86919 25.2162   3
   6  -5  -6 93.3490 14.7032   4
  -6   5   5-20.4414 22.5181   3
   6  -5  -5 142.663 15.5265   4
  -6   5   4-12.0067 20.1868   3
   6  -5  -4 51.1056 13.5741   4
  -6   5   3 41.2454 18.4288   3
   6  -5  -3 32.3142 11.5935   4
  -6   5   2 1.16151 19.1448   3
   6  -5  -2-57.4575 11.2238   4
  -6   5   1-38.3649 19.2623   3
  -6   5   0-46.6075 17.9124   3
  -6   5  -1 4.86773 20.2199   3
  -6   5  -2 22.1759 17.1099   3
  -6   5  -3 11.6421 16.6140   3
  -6   5  -3-10.8395 15.4894   5
  -6   5  -4-9.88459 17.1549   3
  -6   5  -4-4.98197 16.8163   8
  -6   5  -4-16.7708 16.3108   5
  -6   5  -5 38.0926 24.1247   8
  -6   5  -5 30.8722 16.3520   3
  -6   5  -5 81.6351 18.4321   5
  -6   5  -6 25.4618 19.7460   8
  -6   5  -6 23.5196 17.5144   5
  -6   5  -6 3.13989 18.5827   3
  -6   5  -7 12.1425 15.9612   5
  -6   5  -8 66.3774 16.6216   5
  -6   5  -9 87.5317 18.7345   5
  -6   5 -10 15.8933 15.3678   5
  -6   5 -11 12.8826 17.8067   5
  -6   5 -12-5.33886 19.0767   5
  -6   5 -13 73.3480 18.8438   5
  -6   4   9 166.952 29.7221   3
  -6   4   8 74.6827 28.7107   3
  -6   4   7-13.1274 20.0989   3
  -6   4   6 93.6178 25.3940   3
  -6   4   5 25.5168 21.9305   3
   6  -4  -4 154.234 18.1293   4
  -6   4   4 173.077 25.7126   3
  -6   4   3-23.8780 18.9855   3
   6  -4  -3 67.4861 14.8118   4
  -6   4   2-64.7819 17.7232   3
   6  -4  -2 31.6913 11.3658   4
  -6   4   1 1.34491 17.8538   3
   6  -4  -1 26.2895 11.3745   4
  -6   4   0 144.814 22.3257   3
  -6   4  -1 148.659 21.5509   3
  -6   4  -2 126.623 20.0834   3
  -6   4  -3 33.2796 15.4657   8
  -6   4  -3 6.91811 18.3543   3
  -6   4  -4 29.5360 19.0352   8
  -6   4  -4-4.70594 18.6957   3
  -6   4  -5 12.6921 16.6760   3
  -6   4  -5 19.3419 17.3657   8
  -6   4  -5 26.4454 15.3865   5
  -6   4  -6 6.61075 17.7797   3
  -6   4  -6 6.03847 17.1621   8
  -6   4  -6 5.31664 14.5045   5
  -6   4  -7 40.0946 18.3995   3
  -6   4  -7 35.5248 21.6421   8
  -6   4  -7 26.6216 15.1293   5
  -6   4  -8 22.2995 16.4843   5
  -6   4  -9-0.26427 16.2094   5
  -6   4 -10-55.5974 15.6367   5
  -6   4 -11-44.5779 18.1271   5
  -6   4 -12-62.3582 15.5789   5
  -6   3  10-42.7345 24.7406   3
  -6   3   9-35.0809 27.2341   3
  -6   3   8 127.326 29.6450   3
  -6   3   7 67.3350 21.8704   3
  -6   3   6-41.6449 22.6504   3
  -6   3   5 84.0471 22.7524   3
  -6   3   4 44.2045 23.7128   3
  -6   3   3 195.925 23.2843   3
  -6   3   2 234.083 23.1148   3
  -6   3   1 178.146 19.6832   3
  -6   3   0 156.351 20.7369   3
  -6   3  -1 119.266 17.0675   8
  -6   3  -1 132.996 20.6772   3
  -6   3  -2 145.405 18.1158   8
  -6   3  -2 133.736 19.7127   3
  -6   3  -3 359.618 22.8093   8
  -6   3  -3 335.122 24.1008   3
  -6   3  -4 280.278 21.9837   8
  -6   3  -4 242.371 20.9731   3
  -6   3  -5 175.196 20.3889   8
  -6   3  -5 150.282 19.5002   3
  -6   3  -6 59.2754 20.3551   8
  -6   3  -6 158.882 19.9040   3
  -6   3  -7-9.85867 17.9241   3
  -6   3  -7 17.7085 19.4251   8
  -6   3  -8-18.6896 20.7109   8
  -6   3  -8 29.7565 14.7223   5
  -6   3  -9-2.80742 20.8584   8
  -6   3  -9-51.3793 13.3920   5
  -6   3 -10 61.5530 26.4595   8
  -6   3 -10-14.8356 14.4365   5
  -6   3 -12-68.4912 15.1440   5
  -6   3 -14-4.30795 17.4305   5
  -6   3 -15 121.134 21.2482   5
  -6   2  10 25.8798 22.1087   3
  -6   2   7 36.5658 21.7451   3
  -6   2   6 82.5434 23.6484   3
  -6   2   5 15.7436 19.5058   3
  -6   2   4 14.1378 19.2755   3
  -6   2   3 20.1281 19.5031   3
  -6   2   2 5.31655 19.0884   3
  -6   2   1 9.11819 16.9925   3
  -6   2   0 0.15884 13.3880   8
  -6   2   0-10.4960 17.1456   3
  -6   2  -1-3.70539 13.5799   8
  -6   2  -1 4.82739 15.4629   3
  -6   2  -2 37.2846 17.3824   8
  -6   2  -2 11.0187 17.5031   3
  -6   2  -2-4.08329 14.9909   6
  -6   2  -3 6.72381 16.9500   8
  -6   2  -3 15.8452 16.8902   3
  -6   2  -3-5.09649 13.4690   6
  -6   2  -4 26.1859 18.5858   8
  -6   2  -4 6.26129 16.5080   3
  -6   2  -5 50.5641 19.2351   8
  -6   2  -5 63.6395 15.5617   3
  -6   2  -6 2.76585 16.0601   8
  -6   2  -6-5.63026 15.8919   3
  -6   2  -7 53.4105 17.1867   3
  -6   2  -7 32.4095 18.4299   8
  -6   2  -8 42.3765 21.5560   8
  -6   2  -9 34.9843 19.2203   8
  -6   2 -10-4.29518 21.1849   8
  -6   2 -10 19.6547 15.6099   5
  -6   2 -11-15.9366 25.6645   8
  -6   2 -11 3.37998 13.4349   5
  -6   2 -12-24.6063 22.4641   8
  -6   2 -12-18.6489 13.8572   5
  -6   2 -13-36.8566 22.9158   8
  -6   2 -14-60.9788 24.3090   8
  -6   2 -14-46.0906 18.2557   5
  -6   2 -15-60.7231 32.2125   8
  -6   2 -15 104.352 19.8376   5
  -6   1  11 154.060 30.3845   3
  -6   1  10 124.632 30.4768   3
  -6   1   9 63.3423 22.7971   3
  -6   1   8-32.4343 22.8236   3
  -6   1   7-18.1672 21.8164   3
  -6   1   6 167.831 23.5016   3
  -6   1   5-29.0442 20.9697   3
  -6   1   4 80.3952 19.8661   3
  -6   1   3 50.7653 19.9190   3
  -6   1   2 21.8796 17.2855   3
  -6   1   1 6.07489 18.0959   3
  -6   1   0-4.78065 12.7884   8
  -6   1   0 8.48564 17.6791   3
  -6   1  -1-19.9379 13.9150   8
  -6   1  -1-2.80992 15.7727   3
  -6   1  -2 0.72796 14.1782   8
  -6   1  -2-15.8839 14.3500   6
  -6   1  -2 0.00000 14.6093   3
  -6   1  -3-1.59847 17.4649   8
  -6   1  -3 10.5425 14.3365   3
  -6   1  -3-13.4868 13.7567   6
  -6   1  -4 14.2022 16.7019   8
  -6   1  -4-11.4742 12.8792   3
  -6   1  -4-4.58911 13.6272   6
  -6   1  -5 212.352 22.7172   8
  -6   1  -5 210.785 16.0483   6
  -6   1  -5 246.465 18.5531   3
  -6   1  -6 400.004 24.7057   8
  -6   1  -6 371.054 18.4925   6
  -6   1  -6 371.367 21.3755   3
  -6   1  -7 185.137 23.1295   8
  -6   1  -7 191.806 15.5030   6
  -6   1  -7 176.717 18.7815   3
  -6   1  -8 202.600 23.1641   8
  -6   1  -8 259.371 19.3308   3
  -6   1  -9 198.638 26.1158   8
  -6   1 -10 101.832 24.9436   8
  -6   1 -11 43.1710 24.0152   8
  -6   1 -12 4.34786 19.6563   8
  -6   1 -13 11.1075 22.2928   8
  -6   1 -13-4.26444 12.1852   5
  -6   1 -14-30.0352 21.5263   8
  -6   1 -14-66.1600 16.3131   5
  -6   1 -15-4.41292 24.4232   8
  -6   1 -15 103.304 19.0009   5
  -6   0  11 90.3126 25.6294   3
  -6   0  10 32.3478 24.9041   3
  -6   0   9 115.053 27.8861   3
  -6   0   8 85.4732 22.7574   3
  -6   0   7 65.3923 23.5705   3
  -6   0   6 4.63443 19.6229   3
  -6   0   5 201.242 25.1154   3
  -6   0   4 8.82524 18.8864   3
  -6   0   3 41.8662 18.2766   3
  -6   0   2 28.0421 18.5260   3
  -6   0   1 28.1538 16.2467   3
  -6   0   0 4.27271 15.1303   3
  -6   0  -1 40.0960 13.7096   8
  -6   0  -1 61.4110 16.6717   3
  -6   0  -2-11.6878 15.1025   8
  -6   0  -2 8.10382 14.3973   6
  -6   0  -2-4.59094 14.1985   3
  -6   0  -3-0.93149 14.1728   8
  -6   0  -3-12.0264 15.0380   6
  -6   0  -3 33.3435 15.4591   3
  -6   0  -4 61.0269 16.8093   8
  -6   0  -4 66.3920 13.6520   3
  -6   0  -4 70.8975 15.9409   6
  -6   0  -5 498.586 26.4661   8
  -6   0  -5 495.687 21.9114   6
  -6   0  -5 500.060 21.3771   3
  -6   0  -6 17.6017 18.8217   8
  -6   0  -6 42.0310 13.7991   3
  -6   0  -6 23.0396 13.6511   6
  -6   0  -7 129.860 21.3708   8
  -6   0  -7 129.628 15.4365   6
  -6   0  -7 125.590 14.7419   3
  -6   0  -8 63.5669 13.3873   3
  -6   0  -8 57.2225 19.1949   8
  -6   0  -8 69.3734 14.3392   6
  -6   0  -9 228.931 25.8423   8
  -6   0 -10 158.572 24.0617   8
  -6   0 -11 20.0059 21.2952   8
  -6   0 -12 117.076 26.6212   8
  -6   0 -13 49.5533 24.0214   8
  -6   0 -14 44.4694 23.2494   8
  -6   0 -15 77.5160 27.8147   8
  -6   0 -16 27.5203 27.7599   8
  -6  -1  11 23.5159 23.1528   3
  -6  -1  10 34.0839 21.0095   3
  -6  -1   9 28.9330 21.5224   3
  -6  -1   8 59.0918 25.1279   3
  -6  -1   7 42.6285 19.8141   3
  -6  -1   6 109.213 21.0709   3
  -6  -1   5 25.9929 20.5109   3
  -6  -1   4 18.6177 18.0549   3
  -6  -1   3 2.56952 18.4081   3
  -6  -1   2 13.2692 16.2143   3
  -6  -1   1 29.7489 16.4991   3
  -6  -1   0 36.1232 15.2133   3
  -6  -1  -1 47.8118 14.5501   3
  -6  -1  -2 48.3595 14.9514   8
  -6  -1  -2 54.9992 17.2164   6
  -6  -1  -2 61.8857 15.6020   3
  -6  -1  -3 25.4537 16.5140   8
  -6  -1  -3 16.0538 15.0258   6
  -6  -1  -3 6.52599 13.5373   3
  -6  -1  -4-4.73645 17.2621   8
  -6  -1  -4 2.70404 15.3170   6
  -6  -1  -4-15.9564 13.0328   3
  -6  -1  -5 61.0163 18.1283   8
  -6  -1  -5 34.8099 12.1357   3
  -6  -1  -5 49.6921 15.1792   6
  -6  -1  -6 661.061 29.7935   8
  -6  -1  -6 651.752 24.9461   6
  -6  -1  -6 619.420 21.0677   3
  -6  -1  -7 652.102 29.6022   8
  -6  -1  -7 689.123 24.8925   6
  -6  -1  -7 737.227 21.9439   3
  -6  -1  -8 133.838 22.7120   8
  -6  -1  -8 99.6077 14.4471   6
  -6  -1  -9 25.3176 20.5793   8
  -6  -1 -10-6.30486 22.2267   8
  -6  -1 -11 5.83055 21.4174   8
  -6  -1 -12-5.22177 22.6485   8
  -6  -1 -13 51.8491 20.0865   8
  -6  -1 -14 34.5571 27.3226   8
  -6  -1 -15 39.1033 26.1090   8
  -6  -1 -16 53.5958 23.5920   8
  -6  -1 -17-18.8705 30.8357   8
  -6  -2  11 25.5613 26.0917   3
  -6  -2  10-4.19814 22.1904   3
  -6  -2   9 11.5138 18.6134   3
  -6  -2   8-1.64918 20.7714   3
  -6  -2   7 56.6279 23.4643   3
  -6  -2   6 41.5241 20.9474   3
  -6  -2   5 111.752 22.3751   3
  -6  -2   4 124.170 19.9277   3
  -6  -2   3 59.2251 17.8845   3
  -6  -2   2 98.7627 18.7573   3
  -6  -2   1 33.8634 16.9786   3
  -6  -2   0 22.3067 15.7996   3
  -6  -2  -1 38.3065 17.7419   6
  -6  -2  -1 19.1095 13.4617   3
  -6  -2  -2 49.1926 18.0977   6
  -6  -2  -2 62.2064 14.1560   3
  -6  -2  -3 128.972 19.8484   6
  -6  -2  -3 96.2543 13.9731   3
  -6  -2  -3 65.0559 17.8192   8
  -6  -2  -4 33.3887 15.5870   8
  -6  -2  -4 24.7263 17.2862   6
  -6  -2  -4 38.1456 11.8388   3
  -6  -2  -5-12.7982 17.4578   8
  -6  -2  -5-6.80258 10.0131   3
  -6  -2  -5-7.49971 13.8277   6
  -6  -2  -6-9.58300 16.3636   8
  -6  -2  -6 16.4916 14.6874   6
  -6  -2  -7 10.3264 18.5342   8
  -6  -2  -7-11.4983 15.4633   6
  -6  -2  -8 120.497 21.2372   8
  -6  -2  -8 66.1374 16.2138   6
  -6  -2  -9 109.403 21.6766   8
  -6  -2 -10 121.016 23.5656   8
  -6  -2 -11 28.6327 19.1545   8
  -6  -2 -12-20.4875 20.0558   8
  -6  -2 -13 3.73929 23.7699   8
  -6  -2 -14-4.82825 21.8273   8
  -6  -2 -15 27.8992 22.5383   8
  -6  -2 -16 8.81279 24.4426   8
  -6  -3  10-3.36391 25.2727   3
  -6  -3   9-6.77946 19.6250   3
  -6  -3   8-18.4808 20.7917   3
  -6  -3   7-4.68959 20.9733   3
  -6  -3   6 23.2516 18.4138   3
  -6  -3   5 91.5105 20.2657   3
  -6  -3   4 382.165 23.6119   3
  -6  -3   3 80.6236 18.9380   3
  -6  -3   2 46.0282 16.0825   3
  -6  -3   1 67.3055 15.7675   3
  -6  -3   0 28.1887 14.6753   3
  -6  -3  -1-9.43133 17.9953   6
  -6  -3  -1-9.74905 12.8572   3
  -6  -3  -2 157.964 20.3836   6
  -6  -3  -2 135.822 15.3399   3
  -6  -3  -3-11.8496 17.2837   6
  -6  -3  -3-14.5044 11.6156   3
  -6  -3  -4-7.93628 15.7507   8
  -6  -3  -4-13.1279 17.0356   6
  -6  -3  -4-6.15583 10.3309   3
  -6  -3  -5 7.04892 17.7103   8
  -6  -3  -5 12.8143 16.1588   7
  -6  -3  -5-10.7771 14.8476   6
  -6  -3  -6 52.1108 17.3781   7
  -6  -3  -6 37.0815 15.4995   6
  -6  -3  -6 56.8456 16.4945   8
  -6  -3  -7 92.5838 17.8856   8
  -6  -3  -7 98.0482 19.7828   7
  -6  -3  -7 116.352 16.6576   6
  -6  -3  -8 82.7022 19.3467   8
  -6  -3  -8 81.9242 20.4936   7
  -6  -3  -8 90.2494 17.5489   6
  -6  -3  -9 112.192 20.7706   8
  -6  -3  -9 93.5561 21.1922   7
  -6  -3 -10 38.3374 18.3695   8
  -6  -3 -10 62.6581 21.0773   7
  -6  -3 -11 33.8859 20.5584   8
  -6  -3 -11 35.7629 20.4856   7
  -6  -3 -12 12.1421 20.9180   8
  -6  -3 -12 43.9165 22.6799   7
  -6  -3 -13-24.7588 22.6155   8
  -6  -3 -13-17.2223 21.8765   7
  -6  -3 -14-82.8967 20.7992   8
  -6  -3 -14-31.9825 21.0555   7
  -6  -3 -15 34.8700 23.2377   7
  -6  -3 -16 128.277 26.2649   7
  -6  -3 -17-32.6302 27.9675   7
  -6  -4  10 64.9920 24.6560   3
  -6  -4   9 5.38155 23.7764   3
  -6  -4   8 8.57959 21.8490   3
  -6  -4   7-16.6795 21.8364   3
  -6  -4   6 14.6416 19.6877   3
  -6  -4   5 82.7588 22.4842   3
  -6  -4   4 171.838 22.3318   3
  -6  -4   3 23.4005 16.4071   3
  -6  -4   2 5.02148 16.7254   3
  -6  -4   1 12.5582 14.9274   3
  -6  -4   0 46.2495 20.0376   6
  -6  -4   0 36.3399 16.0881   4
  -6  -4   0 15.0614 14.5960   3
  -6  -4  -1 25.3631 14.8043   4
  -6  -4  -1 15.5370 18.7770   6
  -6  -4  -1 3.37921 11.8001   3
  -6  -4  -2 581.132 27.0693   6
  -6  -4  -2 543.200 19.5399   3
  -6  -4  -2 559.836 22.5676   4
  -6  -4  -3 71.8301 14.2808   4
  -6  -4  -3 111.727 15.5958   7
  -6  -4  -3 124.669 20.6509   6
  -6  -4  -4 24.6372 12.4306   4
  -6  -4  -4 35.4196 16.1549   7
  -6  -4  -4-18.3547 18.5220   6
  -6  -4  -5 45.6134 16.8182   7
  -6  -4  -5 62.0134 17.2025   6
  -6  -4  -6 94.3787 19.3418   8
  -6  -4  -6 125.384 19.5851   7
  -6  -4  -6 83.7844 17.2361   6
  -6  -4  -7 141.482 20.3841   7
  -6  -4  -7 183.976 19.6691   6
  -6  -4  -7 135.053 20.0300   8
  -6  -4  -8 272.051 24.5442   7
  -6  -4  -8 249.788 20.1212   6
  -6  -4  -8 283.768 22.4048   8
  -6  -4  -9 137.800 20.7827   8
  -6  -4  -9 118.169 21.9404   7
  -6  -4 -10 77.8423 19.0493   8
  -6  -4 -10 52.9443 22.0382   7
  -6  -4 -11-1.82036 15.8894   8
  -6  -4 -11 16.8790 20.2271   7
  -6  -4 -12-79.8595 16.1543   8
  -6  -4 -12 50.3520 21.8697   7
  -6  -4 -13 21.4208 13.2893   8
  -6  -4 -13 44.3271 25.0627   7
  -6  -4 -14 97.5379 19.7548   8
  -6  -4 -14 56.7918 23.5629   7
  -6  -4 -15-24.2996 26.6085   7
  -6  -4 -16 59.3809 29.5082   7
  -6  -4 -17-18.3380 29.2777   7
  -6  -5  10 96.0789 26.7001   3
  -6  -5   9 148.014 28.2989   3
  -6  -5   8 35.7046 19.0890   3
  -6  -5   7 35.6971 19.7111   3
  -6  -5   6 22.3335 18.2400   3
  -6  -5   5 40.9575 20.8639   3
  -6  -5   4 211.524 21.8063   3
  -6  -5   3 209.066 20.7604   3
  -6  -5   2 63.2274 16.3365   3
  -6  -5   2 53.0470 20.5058   4
  -6  -5   1 24.9348 18.3045   4
  -6  -5   1 22.8119 14.2050   3
  -6  -5   0 6.52262 12.9045   3
  -6  -5   0 27.5698 17.6404   4
  -6  -5   0 18.7867 21.1826   6
  -6  -5  -1-0.32552 11.8190   3
  -6  -5  -1-12.8224 16.7907   4
  -6  -5  -1 21.1734 12.3010   7
  -6  -5  -1 23.7400 19.6693   6
  -6  -5  -2 243.918 18.2023   7
  -6  -5  -2 212.898 22.6673   6
  -6  -5  -2 213.320 18.7018   4
  -6  -5  -3 367.482 20.5360   7
  -6  -5  -3 308.931 24.5349   6
  -6  -5  -3 316.087 19.3899   4
  -6  -5  -4 8.63278 13.4179   7
  -6  -5  -4 9.98578 13.3148   4
  -6  -5  -4 23.2498 18.1032   6
  -6  -5  -5 35.6985 17.9997   7
  -6  -5  -5 2.13870 15.8976   6
  -6  -5  -6 44.8305 18.2905   7
  -6  -5  -6 91.8608 19.5077   6
  -6  -5  -7 71.5874 20.5653   7
  -6  -5  -7 109.065 18.8630   6
  -6  -5  -8 50.7635 19.0821   7
  -6  -5  -8 61.9970 16.6769   6
  -6  -5  -8 93.3279 18.8253   8
  -6  -5  -9 118.932 18.2192   8
  -6  -5  -9 122.768 24.1168   7
  -6  -5 -10 73.5217 16.1142   8
  -6  -5 -10 77.0125 21.9011   7
  -6  -5 -11 32.1480 16.6196   8
  -6  -5 -11 33.9789 22.1219   7
  -6  -5 -12 62.1057 17.1351   8
  -6  -5 -12-15.1799 19.8732   7
  -6  -5 -13-49.8638 13.8723   8
  -6  -5 -13 12.8387 20.2426   7
  -6  -5 -14 67.1861 24.1777   7
  -6  -5 -15-4.64517 23.3019   7
  -6  -5 -16 15.7403 30.0687   7
  -6  -5 -17 40.8011 31.0286   7
  -6  -6   9 51.1597 28.2941   3
  -6  -6   8 67.7011 22.4956   3
  -6  -6   7 61.9716 21.8425   3
  -6  -6   6 65.3851 22.0574   3
  -6  -6   5 50.9859 20.4331   3
  -6  -6   4 72.3850 20.3850   3
  -6  -6   4 50.9561 23.2884   4
  -6  -6   3 14.7256 20.3116   4
  -6  -6   3 41.6012 16.6207   3
  -6  -6   2 4.91963 21.0146   4
  -6  -6   2 11.5638 15.8466   3
  -6  -6   1 17.1874 19.3388   4
  -6  -6   1 40.2099 13.5934   3
  -6  -6   1 18.5654 18.1136   6
  -6  -6   0 60.3192 19.9756   4
  -6  -6   0 60.1366 14.1918   3
  -6  -6   0 49.4901 18.4761   6
  -6  -6  -1 52.5642 17.8556   4
  -6  -6  -1 53.6087 19.9667   6
  -6  -6  -2 46.0639 15.9367   7
  -6  -6  -2-0.95606 17.0168   4
  -6  -6  -2 38.8532 19.2699   6
  -6  -6  -3 55.1177 15.3400   7
  -6  -6  -3 60.0386 16.2164   4
  -6  -6  -3 29.3157 16.6912   6
  -6  -6  -4 25.4971 17.3460   7
  -6  -6  -4 9.30191 15.0602   4
  -6  -6  -4 3.93630 16.5050   6
  -6  -6  -5-6.31499 16.5723   7
  -6  -6  -5 3.12236 14.0724   4
  -6  -6  -5 17.1982 17.5399   6
  -6  -6  -6-2.59925 16.4116   7
  -6  -6  -6 9.29663 16.4913   6
  -6  -6  -7 47.2293 20.4521   7
  -6  -6  -7-2.92195 17.7488   6
  -6  -6  -8 82.3113 20.4475   7
  -6  -6  -9 58.2642 21.1770   7
  -6  -6 -10 30.6960 21.1393   7
  -6  -6 -11-8.61958 22.4681   7
  -6  -6 -11 54.4078 16.0330   8
  -6  -6 -12-31.1787 21.0992   7
  -6  -6 -13 6.28121 21.3620   7
  -6  -6 -14 69.0856 24.3707   7
  -6  -6 -16-37.3146 31.2478   7
  -6  -7   8-63.1909 25.4615   3
  -6  -7   7 10.5352 19.6583   3
  -6  -7   6 35.6824 21.9494   3
  -6  -7   5 82.6642 22.0386   3
  -6  -7   5 40.6442 22.0120   4
  -6  -7   4 32.4440 17.4113   3
  -6  -7   4 54.7852 21.7159   4
  -6  -7   3 0.20048 21.5172   4
  -6  -7   3-1.95887 16.6513   3
  -6  -7   2 10.5761 21.7298   4
  -6  -7   2 30.6588 16.6196   3
  -6  -7   2 32.7532 21.2691   6
  -6  -7   1-4.01950 20.0558   4
  -6  -7   1-12.5677 20.6255   6
  -6  -7   0 4.60490 19.6617   4
  -6  -7   0 0.05591 18.1398   6
  -6  -7  -1 19.9194 18.9216   4
  -6  -7  -1 10.5819 17.9440   6
  -6  -7  -2 11.7160 19.2732   4
  -6  -7  -2 16.8820 19.4253   6
  -6  -7  -3 248.011 18.3578   7
  -6  -7  -3 203.094 20.7250   6
  -6  -7  -3 231.914 20.4346   4
  -6  -7  -4 163.316 17.8442   7
  -6  -7  -4 106.944 18.7588   6
  -6  -7  -4 151.504 19.5433   4
  -6  -7  -5 27.4406 15.7456   7
  -6  -7  -5 30.7020 15.6136   4
  -6  -7  -5 2.24568 15.4921   6
  -6  -7  -6 18.0841 17.7215   7
  -6  -7  -6 43.7463 19.2669   6
  -6  -7  -7 16.4336 17.6893   7
  -6  -7  -7 12.3706 16.4766   6
  -6  -7  -8 21.1715 19.1688   7
  -6  -7  -9 83.3892 20.8283   7
  -6  -7 -10 93.3335 19.1625   7
  -6  -7 -11 19.4354 20.2085   7
  -6  -7 -12 19.2673 20.4491   7
  -6  -7 -13 157.064 23.7125   7
  -6  -7 -14 104.626 26.0402   7
  -6  -8   8 144.813 33.1411   3
  -6  -8   7-67.4408 23.9238   3
  -6  -8   6-20.4412 22.3793   3
  -6  -8   6 20.0559 22.9005   4
  -6  -8   5 37.1720 22.6796   4
  -6  -8   5-7.81657 19.0749   3
  -6  -8   4-8.65760 21.1552   4
  -6  -8   4-41.8285 17.4215   3
  -6  -8   3-22.2433 21.9559   4
  -6  -8   3 31.9917 21.6139   6
  -6  -8   3-17.9244 19.1554   3
  -6  -8   2 7.42558 22.7483   4
  -6  -8   2-11.4353 18.8521   6
  -6  -8   1 26.8883 24.0017   4
  -6  -8   1-13.7882 20.1074   6
  -6  -8   0 19.3665 22.5365   4
  -6  -8   0 6.49821 19.8844   6
  -6  -8  -1 7.01700 18.9271   4
  -6  -8  -1-10.6843 19.4540   6
  -6  -8  -2 2.38759 19.2784   4
  -6  -8  -2-2.95310 16.9904   6
  -6  -8  -3 26.6970 14.6179   7
  -6  -8  -3 47.8022 20.1719   4
  -6  -8  -3 75.3084 19.0344   6
  -6  -8  -4 230.587 18.9590   7
  -6  -8  -4 219.999 20.4731   6
  -6  -8  -4 214.873 22.0373   4
  -6  -8  -5 46.4965 16.5790   7
  -6  -8  -5 14.4243 18.5624   4
  -6  -8  -5 15.7849 17.8153   6
  -6  -8  -6 29.9644 15.6508   7
  -6  -8  -6 7.15993 16.0659   6
  -6  -8  -7 56.1648 16.7042   7
  -6  -8  -7 61.5718 19.8929   6
  -6  -8  -8 21.3309 16.2838   7
  -6  -8  -9 65.1687 17.8560   7
  -6  -8 -10 35.8817 20.0632   7
  -6  -8 -12-70.2898 20.0271   7
  -6  -8 -13 84.8974 23.0578   7
  -6  -8 -14 55.6267 22.0891   7
  -6  -9   7 67.6251 26.9543   3
  -6  -9   7 85.5520 34.7946   4
  -6  -9   6 31.9489 26.6866   4
  -6  -9   6 118.037 28.1272   3
  -6  -9   5-37.7772 28.7715   4
  -6  -9   5 95.2162 22.4819   3
  -6  -9   4-8.60400 27.3010   4
  -6  -9   3 81.1991 26.7974   4
  -6  -9   2 42.9676 25.6267   4
  -6  -9   2 6.50040 21.0021   6
  -6  -9   1 32.8683 21.9808   4
  -6  -9   1 38.1047 21.5116   6
  -6  -9   0-0.69170 21.0703   4
  -6  -9   0 37.0132 17.9903   6
  -6  -9  -1 14.4922 22.6383   4
  -6  -9  -1 9.62018 18.2828   6
  -6  -9  -2-5.63538 22.3085   4
  -6  -9  -2 22.3850 15.9489   6
  -6  -9  -3 47.0877 23.1278   4
  -6  -9  -3 29.7976 16.1726   6
  -6  -9  -4 6.02665 13.1439   7
  -6  -9  -4 53.4406 22.1003   4
  -6  -9  -4 43.7612 16.2723   6
  -6  -9  -5 21.0986 17.5249   7
  -6  -9  -5 56.4106 18.6793   4
  -6  -9  -5 49.2252 19.5040   6
  -6  -9  -6 9.42076 15.4688   7
  -6  -9  -6 35.4650 17.7528   6
  -6  -9  -6-12.2637 17.8791   4
  -6  -9  -7 28.4056 17.4563   7
  -6  -9  -8 5.91565 17.3085   7
  -6  -9 -11 3.93896 14.1412   7
  -6  -9 -12 80.3981 20.1694   7
  -6  -9 -13-45.5147 18.7825   7
  -6 -10   7-22.2757 31.8683   3
  -6 -10   5 72.4555 32.7928   4
  -6 -10   4 61.9762 32.2826   4
  -6 -10   3-15.9031 29.4941   4
  -6 -10   2-22.8451 28.9462   4
  -6 -10   1-6.14980 24.3047   4
  -6 -10   0 28.7471 26.0451   4
  -6 -10  -1 40.4860 24.9097   4
  -6 -10  -2 13.7943 21.9212   4
  -6 -10  -2 81.1772 15.5920   6
  -6 -10  -3-26.2808 21.5983   4
  -6 -10  -3 42.5972 13.9906   6
  -6 -10  -4 10.5275 21.9626   4
  -6 -10  -4 35.1744 15.8569   6
  -6 -10  -5-2.03460 15.0430   7
  -6 -10  -5 65.4012 21.6673   4
  -6 -10  -5 89.2987 17.4859   6
  -6 -10  -6 63.3321 21.7690   4
  -6 -10  -7-68.3912 16.0024   7
  -6 -10  -7-11.3663 21.3629   4
  -6 -10  -8-52.3173 15.7089   7
  -6 -10  -9 0.00000 19.2568   7
  -6 -10 -10 38.9919 19.3236   7
  -6 -10 -11 43.4188 17.5019   7
  -6 -11   3 86.2987 29.9779   4
  -6 -11   2 32.8243 26.9170   4
  -6 -11   1 97.8836 27.6705   4
  -6 -11   0 69.4663 26.3974   4
  -6 -11  -1 52.2777 25.2499   4
  -6 -11  -2 68.0806 29.0984   4
  -6 -11  -3-19.9343 27.1278   4
  -6 -11  -5 45.4816 23.0094   4
  -6 -11  -6 69.0657 15.6567   7
  -6 -11  -6 45.1513 25.6095   4
  -6 -11  -7 48.8148 15.9748   7
  -6 -11  -7-68.4259 23.4316   4
  -6 -11  -8 14.8089 17.9710   7
  -6 -11  -9-48.3569 17.8553   7
  -6 -11 -11 105.852 23.7252   7
  -6 -12   1 41.2120 32.6162   4
  -6 -12   0-65.3976 30.6829   4
  -6 -12  -1 25.6026 30.4159   4
  -6 -12  -2 79.5689 28.0522   4
  -6 -12  -3 18.4309 26.4780   4
  -6 -12  -4-21.0925 30.3354   4
  -6 -12  -5 65.2383 24.6371   4
  -6 -12  -6-28.9440 20.1158   7
  -6 -12  -6 5.69688 29.0379   4
  -6 -12  -7-21.6841 20.6333   7
  -6 -12  -7-37.4386 27.3406   4
  -6 -12  -8 127.981 18.9503   7
  -6 -12  -8 143.326 26.7618   4
  -6 -12  -9 174.961 23.6150   7
  -7   7   1 158.336 25.8027   3
  -7   7  -1 63.2525 19.1847   3
  -7   7  -2 124.340 23.4870   3
  -7   7  -3-19.6894 20.4271   3
  -7   7  -6-49.5752 22.3078   3
  -7   7  -8-37.9926 30.8269   8
   7  -6  -5 6.17109 21.0478   4
  -7   6   4 128.069 26.1976   3
  -7   6   2 34.9038 20.7162   3
  -7   6   1 48.0850 23.5433   3
  -7   6  -2 43.4815 23.4019   3
  -7   6  -3 37.3847 21.2391   3
  -7   6  -4-9.08563 19.8230   3
  -7   6  -6-15.2479 25.4342   8
  -7   6  -6-68.7854 19.9240   3
  -7   6  -7 47.1638 26.2055   8
  -7   6  -8 80.9448 29.4779   8
  -7   6  -9-44.6174 29.6701   8
  -7   6 -10-32.6653 25.8976   8
  -7   5   6 53.8085 24.9647   3
   7  -5  -6 253.948 17.7569   4
   7  -5  -5 175.274 15.2344   4
  -7   5   5 1.91448 24.6816   3
  -7   5   4 28.9149 23.6627   3
   7  -5  -4 8.35176 15.4968   4
  -7   5   2 81.6963 23.6452   3
  -7   5   1-23.0657 21.7940   3
  -7   5   0-68.1121 21.0090   3
  -7   5  -1 21.2640 19.2486   3
  -7   5  -2 21.4555 21.2856   3
  -7   5  -3 51.2826 19.3843   3
  -7   5  -4 37.1732 22.4515   3
  -7   5  -5 16.7945 20.9286   8
  -7   5  -5 40.2388 20.0637   3
  -7   5  -6 103.616 21.4760   8
  -7   5  -6 42.9644 22.0283   3
  -7   5  -7 19.4664 17.7193   3
  -7   5  -7-23.5171 22.0643   8
  -7   5  -8 5.77829 24.6348   8
  -7   5  -9 90.2668 28.6036   8
  -7   5 -10 0.68307 23.6696   8
  -7   5 -11-48.9699 28.2004   8
  -7   4   7 11.3946 27.2943   3
  -7   4   6-60.2144 23.0461   3
  -7   4   5 54.4357 24.9039   3
   7  -4  -5 76.6590 16.7257   4
   7  -4  -4 163.825 16.0632   4
  -7   4   4-20.9493 22.3575   3
  -7   4   3 70.8892 20.3701   3
   7  -4  -3 52.5426 12.5186   4
  -7   4   2 5.88721 21.5565   3
  -7   4   1-28.2473 17.6756   3
  -7   4   0-14.1174 17.5251   3
  -7   4  -1 13.4009 20.1478   3
  -7   4  -2 30.4525 19.2626   3
  -7   4  -3 85.9399 24.3519   3
  -7   4  -4 44.3977 19.1873   8
  -7   4  -4 73.0412 22.4084   3
  -7   4  -5 12.6467 20.0925   8
  -7   4  -5 49.8880 21.7273   3
  -7   4  -6 35.5731 20.6323   3
  -7   4  -6-11.8351 18.4530   8
  -7   4  -7-11.3653 17.9980   3
  -7   4  -7 53.9890 19.4948   8
  -7   4  -8-15.5960 24.9359   8
  -7   4  -9-2.08410 24.9341   8
  -7   4 -10 56.5360 26.0650   8
  -7   4 -11 81.6576 29.7825   8
  -7   4 -12 39.6000 31.3304   8
  -7   3   8 29.4037 21.6527   3
  -7   3   7 116.048 23.6644   3
  -7   3   6-22.8885 27.5383   3
  -7   3   5 24.9445 22.2884   3
  -7   3   4 19.2207 20.7693   3
  -7   3   3 124.522 26.3606   3
  -7   3   2 88.3544 23.2156   3
  -7   3   1 46.8373 22.3323   3
  -7   3   0 70.5357 21.6977   3
  -7   3  -1 45.0426 19.6796   3
  -7   3  -2 16.0906 18.5291   3
  -7   3  -3-21.9083 16.8584   8
  -7   3  -3 7.61204 18.5240   3
  -7   3  -4 10.2292 18.2396   8
  -7   3  -4 5.18445 18.1580   3
  -7   3  -5 58.3106 19.8297   8
  -7   3  -5 37.8378 18.7724   3
  -7   3  -6 21.6922 21.7560   8
  -7   3  -6 27.2083 17.7598   3
  -7   3  -7-17.2125 21.7072   8
  -7   3  -7 3.39102 19.3920   3
  -7   3  -8 33.1624 18.2496   3
  -7   3  -8-14.3652 22.8031   8
  -7   3  -9 37.3565 23.8014   8
  -7   3 -10-11.7215 24.9122   8
  -7   3 -11-56.4883 27.1051   8
  -7   3 -12 11.0505 21.8624   8
  -7   3 -13 2.00370 22.0778   8
  -7   2   8-34.2391 28.6229   3
  -7   2   7 102.878 26.3900   3
  -7   2   6 49.6099 26.2744   3
  -7   2   5-46.3402 24.5750   3
  -7   2   4 123.889 25.9218   3
  -7   2   3 102.420 24.6807   3
  -7   2   2 54.6931 20.0050   3
  -7   2   1 220.190 23.5093   3
  -7   2   0 196.774 21.9696   3
  -7   2  -1 115.261 20.6495   3
  -7   2  -2 14.8752 15.2671   8
  -7   2  -2 53.8925 19.9647   3
  -7   2  -3 7.55712 17.2861   8
  -7   2  -3 9.85680 16.4889   3
  -7   2  -4-10.9307 17.4969   8
  -7   2  -4-11.8041 17.4459   3
  -7   2  -5 59.9561 19.7454   8
  -7   2  -5 25.2783 17.4391   3
  -7   2  -6 37.0994 22.3380   8
  -7   2  -6 22.9690 16.9005   3
  -7   2  -7 2.45501 20.2133   8
  -7   2  -7 46.8105 18.1741   3
  -7   2  -8-27.7530 17.9637   3
  -7   2  -8 36.9973 22.1821   8
  -7   2  -9-20.1603 19.6579   8
  -7   2 -10-14.3089 22.3119   8
  -7   2 -11 30.1460 23.2523   8
  -7   2 -12 31.7545 27.2194   8
  -7   2 -13 68.5639 25.9513   8
  -7   2 -14 34.5994 23.6851   8
  -7   1   9-24.6974 28.2691   3
  -7   1   7-17.3960 21.1819   3
  -7   1   6 108.726 26.1888   3
  -7   1   5 95.0804 25.1176   3
  -7   1   4 89.8999 25.2130   3
  -7   1   3-1.96819 20.3146   3
  -7   1   2 32.1896 21.0253   3
  -7   1   1 20.8895 20.0255   3
  -7   1   0 6.90946 18.8088   3
  -7   1  -1 9.13121 15.9241   8
  -7   1  -1 7.93252 18.7258   3
  -7   1  -2 24.0166 18.4671   3
  -7   1  -2 53.0513 17.7473   6
  -7   1  -2-18.2823 16.1405   8
  -7   1  -3-26.0494 17.1669   8
  -7   1  -3 12.3437 15.4960   3
  -7   1  -3-8.23618 15.6908   6
  -7   1  -4 16.3318 17.7551   8
  -7   1  -4-8.52520 15.6083   3
  -7   1  -4 9.19033 15.8743   6
  -7   1  -5 77.6856 21.8688   8
  -7   1  -5 83.7659 17.4242   3
  -7   1  -6 43.3166 19.8880   8
  -7   1  -6 55.0934 17.1206   3
  -7   1  -7 7.11484 21.4876   8
  -7   1  -7-18.6081 14.0661   3
  -7   1  -8 8.99492 22.2144   8
  -7   1  -8 26.6944 15.2686   3
  -7   1  -9-15.8547 19.0683   8
  -7   1 -10 13.7655 23.3415   8
  -7   1 -11 22.7023 26.4255   8
  -7   1 -12-29.1108 22.3240   8
  -7   1 -14-59.5571 27.6617   8
  -7   0   9 47.4719 24.2927   3
  -7   0   8-12.5117 26.1864   3
  -7   0   7-29.3233 23.4981   3
  -7   0   6 37.8773 23.5055   3
  -7   0   5 67.1494 21.1592   3
  -7   0   4 30.1134 20.4346   3
  -7   0   3 29.0193 19.4417   3
  -7   0   2-2.31776 20.4382   3
  -7   0   1 3.23915 20.2121   3
  -7   0   0-14.6795 16.9308   3
  -7   0  -1-21.5523 17.2608   3
  -7   0  -1 8.22063 14.1749   8
  -7   0  -2 28.9432 15.4276   8
  -7   0  -2 43.4276 17.2809   6
  -7   0  -2 4.41472 16.0006   3
  -7   0  -3 62.8933 17.2175   8
  -7   0  -3 46.2179 17.4940   6
  -7   0  -3 111.411 17.1571   3
  -7   0  -4 90.6639 17.8199   8
  -7   0  -4 165.804 20.4625   6
  -7   0  -4 116.754 16.6639   3
  -7   0  -5 143.459 22.2900   8
  -7   0  -5 104.382 17.9355   6
  -7   0  -5 157.553 17.2663   3
  -7   0  -6 259.767 26.1518   8
  -7   0  -6 239.272 18.2493   6
  -7   0  -6 237.399 18.8362   3
  -7   0  -7 263.888 25.6359   8
  -7   0  -7 303.344 19.7373   6
  -7   0  -7 316.945 19.8299   3
  -7   0  -8 13.3542 20.3359   8
  -7   0  -8 18.4312 12.8729   6
  -7   0  -9-9.02778 23.0774   8
  -7   0 -10 56.3356 23.4499   8
  -7   0 -11-13.3849 21.4745   8
  -7   0 -12-72.5694 24.9381   8
  -7   0 -13-12.1269 31.6061   8
  -7   0 -14 47.1860 28.7780   8
  -7   0 -15 112.093 30.5456   8
  -7  -1   9 85.7350 26.9800   3
  -7  -1   8-23.6402 25.9433   3
  -7  -1   6-22.8132 23.9395   3
  -7  -1   5 40.6701 23.0320   3
  -7  -1   4 99.5454 20.7103   3
  -7  -1   3 27.1383 20.2866   3
  -7  -1   2-14.4912 19.6347   3
  -7  -1   1 10.8446 19.1035   3
  -7  -1   0 13.4880 15.7231   3
  -7  -1  -1 62.2438 19.8129   6
  -7  -1  -1 36.9567 15.7981   3
  -7  -1  -2 18.8440 18.8108   6
  -7  -1  -2-8.81386 17.3113   3
  -7  -1  -2 16.0718 17.4187   8
  -7  -1  -3 17.7813 18.4473   8
  -7  -1  -3 32.3819 16.8445   6
  -7  -1  -3 53.7705 16.1985   3
  -7  -1  -4 2.67261 17.6124   8
  -7  -1  -4 27.5904 18.4432   6
  -7  -1  -4 7.87039 13.5576   3
  -7  -1  -5 105.019 18.9513   8
  -7  -1  -5 31.7128 17.8017   6
  -7  -1  -5 112.400 16.2342   3
  -7  -1  -6 160.773 20.7750   8
  -7  -1  -6 132.832 17.7837   6
  -7  -1  -6 138.712 15.7027   3
  -7  -1  -7 46.7220 21.3251   8
  -7  -1  -7 67.5816 16.2421   6
  -7  -1  -8 34.3338 22.0053   8
  -7  -1  -8 18.4980 13.9770   6
  -7  -1  -9-7.11786 24.5710   8
  -7  -1 -10 28.5106 21.8121   8
  -7  -1 -11-18.5256 23.7778   8
  -7  -1 -12-29.2682 25.2599   8
  -7  -1 -13 22.8214 24.4578   8
  -7  -1 -14 1.51721 28.5829   8
  -7  -1 -15 80.5554 34.1844   8
  -7  -1 -16 182.224 39.7983   8
  -7  -2   9 33.4707 28.9326   3
  -7  -2   8-5.95317 24.2481   3
  -7  -2   7-25.4217 23.7440   3
  -7  -2   6-10.6384 20.1253   3
  -7  -2   5 53.6164 21.4355   3
  -7  -2   4-12.5536 21.0313   3
  -7  -2   3 38.6442 21.3376   3
  -7  -2   2 7.56647 17.8542   3
  -7  -2   1 67.4152 19.3476   3
  -7  -2   0 10.3693 16.7030   3
  -7  -2  -1 33.9784 18.6809   6
  -7  -2  -1 59.9734 16.1314   3
  -7  -2  -2 36.8816 18.6229   6
  -7  -2  -2 56.9614 16.4997   3
  -7  -2  -3 644.242 28.3619   6
  -7  -2  -3 595.622 23.7755   3
  -7  -2  -4 274.502 23.2305   6
  -7  -2  -4 271.734 18.1229   3
  -7  -2  -4 307.555 23.9665   8
  -7  -2  -5 123.927 20.3664   8
  -7  -2  -5 125.152 18.1590   6
  -7  -2  -6-2.97207 17.1324   8
  -7  -2  -6 16.1302 15.6569   6
  -7  -2  -7 39.1492 18.1609   8
  -7  -2  -7 46.7668 16.5899   6
  -7  -2  -8 31.3585 18.0443   8
  -7  -2  -8 5.27059 16.3778   6
  -7  -2  -9 76.4504 19.5384   8
  -7  -2  -9 33.8186 15.3221   6
  -7  -2 -10 11.6539 23.4080   8
  -7  -2 -11-2.75735 21.0064   8
  -7  -2 -13-20.0141 21.4708   8
  -7  -2 -14 53.2372 29.1272   8
  -7  -2 -15 127.879 31.9499   8
  -7  -2 -16 68.6939 31.3181   8
  -7  -3   9 11.1587 26.1156   3
  -7  -3   8 20.3052 22.6520   3
  -7  -3   7 20.0723 24.0179   3
  -7  -3   6 1.79359 19.0103   3
  -7  -3   5 68.1392 20.7097   3
  -7  -3   4 22.7634 21.4653   3
  -7  -3   3 1.79634 18.0721   3
  -7  -3   2 69.1224 18.3276   3
  -7  -3   1 66.9727 18.9214   3
  -7  -3   0 32.6996 15.4021   3
  -7  -3  -1 34.8994 20.0534   6
  -7  -3  -1 1.33527 14.9255   3
  -7  -3  -2 89.4504 21.4369   6
  -7  -3  -2 56.8673 15.5948   3
  -7  -3  -3 183.736 22.5788   6
  -7  -3  -3 142.115 15.7443   3
  -7  -3  -4 98.5708 20.9392   6
  -7  -3  -5 206.219 22.7083   6
  -7  -3  -5 160.229 21.0370   8
  -7  -3  -6 175.365 20.0649   6
  -7  -3  -6 180.787 20.8354   8
  -7  -3  -7 140.761 21.3088   8
  -7  -3  -7 156.350 21.0140   6
  -7  -3  -8-43.5956 18.2506   8
  -7  -3  -8-10.6665 15.2336   6
  -7  -3  -9 20.5522 18.7071   8
  -7  -3  -9-1.36937 14.9957   6
  -7  -3 -10-34.7559 16.3873   8
  -7  -3 -11 32.2442 20.7987   8
  -7  -3 -12 28.0607 18.9364   8
  -7  -3 -13-24.4696 23.6305   8
  -7  -3 -14-40.9531 23.1715   8
  -7  -3 -15 26.9678 30.3336   8
  -7  -3 -16 22.7510 31.4183   8
  -7  -4   9-59.8337 28.7082   3
  -7  -4   8-50.9895 27.6400   3
  -7  -4   7-52.0181 21.2813   3
  -7  -4   6-18.7171 22.1521   3
  -7  -4   5 5.18291 20.1689   3
  -7  -4   4 69.8016 19.1183   3
  -7  -4   3 265.376 25.2106   3
  -7  -4   2 35.6795 19.7405   3
  -7  -4   1-12.1204 17.0099   3
  -7  -4   0 10.7687 20.9581   6
  -7  -4   0-56.4166 14.3459   3
  -7  -4  -1 6.96718 19.8866   6
  -7  -4  -1-6.15622 14.4140   3
  -7  -4  -2-5.34084 20.3642   6
  -7  -4  -2-0.26813 13.2058   3
  -7  -4  -3 169.981 23.5142   6
  -7  -4  -4-11.6083 17.8003   6
  -7  -4  -5 9.25683 16.4642   6
  -7  -4  -6 68.0978 21.4444   7
  -7  -4  -6 61.4580 16.8051   6
  -7  -4  -7 0.78474 19.6023   8
  -7  -4  -7 50.2329 19.2052   7
  -7  -4  -7 67.4562 16.4606   6
  -7  -4  -8 32.1363 18.3395   8
  -7  -4  -8 16.5315 19.9100   7
  -7  -4  -8 44.1416 16.7843   6
  -7  -4  -9 14.3813 16.9142   8
  -7  -4  -9-10.7434 22.2886   7
  -7  -4  -9 20.6631 16.9577   6
  -7  -4 -10 7.04535 16.5774   8
  -7  -4 -10 1.66000 22.0185   7
  -7  -4 -11-70.1967 17.7375   8
  -7  -4 -11 25.1239 21.0077   7
  -7  -4 -12 35.2648 20.5558   8
  -7  -4 -12-7.50081 22.9849   7
  -7  -4 -13 8.21434 18.3630   8
  -7  -4 -13-44.8316 25.0895   7
  -7  -4 -14-17.1528 25.4536   7
  -7  -4 -15 33.0544 25.1999   7
  -7  -4 -16 131.125 29.7076   7
  -7  -5   6-14.9768 22.5268   3
  -7  -5   5-12.1581 22.5836   3
  -7  -5   4 49.6275 20.7982   3
  -7  -5   3-3.32716 20.6358   3
  -7  -5   2 29.1268 18.3921   3
  -7  -5   1-23.0815 17.6426   3
  -7  -5   1 34.8139 22.3558   6
  -7  -5   0 13.5611 20.6183   6
  -7  -5   0 10.5428 16.5007   3
  -7  -5  -1-1.94390 16.8633   4
  -7  -5  -1 25.6010 20.8902   6
  -7  -5  -2 72.3730 18.4266   4
  -7  -5  -2 102.733 22.4120   6
  -7  -5  -3 47.0718 16.6247   7
  -7  -5  -3 68.9450 22.0126   6
  -7  -5  -4 246.357 21.0362   7
  -7  -5  -4 211.700 23.5643   6
  -7  -5  -5 163.642 21.3460   7
  -7  -5  -5 127.531 20.5501   6
  -7  -5  -6 114.461 21.6116   7
  -7  -5  -6 151.747 21.3174   6
  -7  -5  -7 50.4566 18.7271   7
  -7  -5  -7 52.2790 17.1879   6
  -7  -5  -8 38.1352 20.7084   7
  -7  -5  -8-3.99497 15.6915   6
  -7  -5  -9-18.2431 18.4459   8
  -7  -5  -9 28.7029 22.9699   7
  -7  -5  -9 71.4549 17.2223   6
  -7  -5 -10 15.3618 17.7083   8
  -7  -5 -10 21.3766 24.2350   7
  -7  -5 -11-12.8242 14.8170   8
  -7  -5 -11 24.4373 24.7571   7
  -7  -5 -12 14.8096 23.1852   7
  -7  -5 -13 10.3647 18.4129   8
  -7  -5 -13 8.34067 25.4727   7
  -7  -5 -14 49.9890 17.9260   8
  -7  -5 -14-65.4006 20.4002   7
  -7  -5 -15-23.8069 21.5650   7
  -7  -6   8 65.4203 26.8573   3
  -7  -6   7 4.75057 26.1820   3
  -7  -6   6-1.13781 23.3291   3
  -7  -6   5 32.8231 19.9019   3
  -7  -6   4 51.3779 22.7368   3
  -7  -6   3-16.5331 18.8957   3
  -7  -6   2 63.7223 18.4447   3
  -7  -6   2 74.2597 22.7164   6
  -7  -6   1-5.66426 21.1533   4
  -7  -6   1 0.42717 16.1866   3
  -7  -6   1-5.36417 21.9396   6
  -7  -6   0 47.8637 19.0258   4
  -7  -6   0 3.61257 19.6267   6
  -7  -6  -1 17.3002 19.7429   4
  -7  -6  -1 3.33120 19.5730   6
  -7  -6  -2 23.7819 18.5507   4
  -7  -6  -2 23.6617 20.7290   6
  -7  -6  -3 15.7424 16.4214   4
  -7  -6  -3 71.0298 16.6436   7
  -7  -6  -3 37.3001 21.8290   6
  -7  -6  -4 879.645 31.7186   7
  -7  -6  -4 911.975 34.7122   6
  -7  -6  -5 108.293 20.2516   7
  -7  -6  -5 82.6418 21.2888   6
  -7  -6  -6 108.917 21.6485   7
  -7  -6  -6 124.290 20.2365   6
  -7  -6  -7 93.9422 23.3113   7
  -7  -6  -7 118.379 21.8771   6
  -7  -6  -8 79.1955 22.6767   7
  -7  -6  -8 75.8701 18.9602   6
  -7  -6  -9 59.0851 24.5714   7
  -7  -6 -10 89.1890 26.4380   7
  -7  -6 -11 47.9791 26.5002   7
  -7  -6 -12 40.9368 21.6589   7
  -7  -6 -12 73.0971 17.1189   8
  -7  -6 -13-68.6132 16.3283   8
  -7  -6 -13-24.5347 26.1961   7
  -7  -6 -14-68.3942 27.7826   7
  -7  -6 -15-26.2357 29.4036   7
  -7  -7   7 101.574 25.8405   3
  -7  -7   6 90.7592 23.7260   3
  -7  -7   5 69.0697 20.9149   3
  -7  -7   4-4.24553 21.6623   3
  -7  -7   3-11.0433 21.4530   3
  -7  -7   3 21.5646 20.8637   4
  -7  -7   2 50.4367 23.6358   4
  -7  -7   2-1.82080 23.7814   6
  -7  -7   1-30.3606 21.6934   4
  -7  -7   1-5.61084 20.9068   6
  -7  -7   0-0.81172 24.1893   4
  -7  -7   0-21.1952 20.6224   6
  -7  -7  -1 44.6151 19.9904   4
  -7  -7  -1-20.6115 19.5779   6
  -7  -7  -2 20.1608 17.6574   4
  -7  -7  -2-4.43731 18.4138   6
  -7  -7  -3-22.6033 18.2826   4
  -7  -7  -4 110.470 20.7153   7
  -7  -7  -4 72.3136 19.3725   6
  -7  -7  -5 81.0752 20.7466   7
  -7  -7  -5 106.018 21.0124   6
  -7  -7  -6 0.34153 18.7688   7
  -7  -7  -6 35.7279 16.1933   6
  -7  -7  -7 35.1903 21.9285   7
  -7  -7  -7 49.0799 20.4447   6
  -7  -7  -8 43.6846 21.7484   7
  -7  -7  -8 12.0574 18.3192   6
  -7  -7  -9 46.8560 25.3575   7
  -7  -7 -10 64.1428 25.3134   7
  -7  -7 -11 86.1328 26.2010   7
  -7  -7 -12 38.9972 27.8101   7
  -7  -7 -13-25.0661 24.9016   7
  -7  -7 -14-71.5739 19.6474   7
  -7  -8   7 29.1670 28.4393   3
  -7  -8   4-12.0614 28.0384   4
  -7  -8   4-30.8098 18.3602   3
  -7  -8   3 29.1183 26.4504   4
  -7  -8   3 63.6375 22.1314   6
  -7  -8   2-4.37616 21.0918   4
  -7  -8   2 12.3539 17.4813   6
  -7  -8   1-21.3010 21.9643   4
  -7  -8   1-19.8475 20.5681   6
  -7  -8   0 3.08762 23.2049   4
  -7  -8   0 17.8974 22.6589   6
  -7  -8  -1 42.7329 23.7972   4
  -7  -8  -1 5.64689 21.2714   6
  -7  -8  -2-12.1207 21.7162   4
  -7  -8  -3-14.8560 22.5904   4
  -7  -8  -3-40.4556 17.4753   6
  -7  -8  -4 21.2641 17.1279   4
  -7  -8  -4-26.3816 16.4064   6
  -7  -8  -5-33.6888 19.0651   7
  -7  -8  -5-22.3488 17.3181   6
  -7  -8  -6 33.6267 20.5561   7
  -7  -8  -6 15.5261 18.6298   6
  -7  -8  -7 55.8986 22.0252   7
  -7  -8  -7-13.4779 19.9773   6
  -7  -8  -8 69.3126 20.1890   7
  -7  -8  -8 59.0647 21.0534   6
  -7  -8  -9 100.256 23.3797   7
  -7  -8 -10 120.985 25.3315   7
  -7  -8 -11 31.3790 23.7331   7
  -7  -8 -12-12.3752 28.1925   7
  -7  -9   6 58.5143 28.5187   3
  -7  -9   5-0.84588 30.8775   4
  -7  -9   4 37.2938 28.6371   4
  -7  -9   4 15.6530 24.5687   6
  -7  -9   3-30.5372 22.9584   4
  -7  -9   3 78.3302 23.0961   6
  -7  -9   2-24.7001 25.9509   4
  -7  -9   2-15.0172 21.3812   6
  -7  -9   1 78.4656 27.8335   4
  -7  -9   1-0.36281 22.1257   6
  -7  -9   0 36.4463 28.4383   4
  -7  -9   0-8.89174 21.7450   6
  -7  -9  -1 5.70713 22.5624   4
  -7  -9  -1-79.5728 21.1878   6
  -7  -9  -2 33.3689 20.5745   4
  -7  -9  -2-6.32220 18.6127   6
  -7  -9  -3 60.5244 23.0083   4
  -7  -9  -3 26.3524 15.8971   6
  -7  -9  -4 59.8620 23.8023   4
  -7  -9  -4 17.6886 15.0038   6
  -7  -9  -5-18.0634 21.9370   4
  -7  -9  -5-4.56998 15.6218   6
  -7  -9  -6 14.2557 16.1430   7
  -7  -9  -6 15.9554 16.3911   6
  -7  -9  -7 34.2394 18.3839   7
  -7  -9  -7-17.5454 16.6022   6
  -7  -9  -8 44.0003 19.2664   7
  -7  -9  -9 84.1809 22.3757   7
  -7  -9 -10 22.4685 17.6600   7
  -7  -9 -11 21.0465 20.4031   7
  -7  -9 -12 185.321 21.6844   7
  -7 -10   3 31.9197 27.0715   4
  -7 -10   2 44.7374 28.6031   4
  -7 -10   1-18.4816 27.7466   4
  -7 -10   0 8.79519 27.8504   4
  -7 -10  -1 57.9014 25.9995   4
  -7 -10  -2 56.8627 22.5934   4
  -7 -10  -2 23.5650 15.1722   6
  -7 -10  -3-22.8045 25.1242   4
  -7 -10  -3 48.4038 16.4081   6
  -7 -10  -4-15.0940 25.6033   4
  -7 -10  -4 31.6942 19.2102   6
  -7 -10  -5 47.4847 21.5879   4
  -7 -10  -5 71.1729 17.9090   6
  -7 -10  -6 20.7269 16.9911   7
  -7 -10  -6 142.341 20.5549   6
  -7 -10 -11-24.1592 17.3326   7
  -7 -11   1 89.9752 28.0940   4
  -7 -11   0 34.8039 27.0333   4
  -7 -11  -2 19.1710 30.3047   4
  -7 -11  -3 64.4195 25.8112   4
  -7 -11  -4 167.463 18.3129   6
  -7 -11  -5 0.86791 23.0760   4
  -7 -11  -5 155.023 19.5005   6
  -7 -11  -6 78.0085 18.2628   6
  -7 -11  -7 97.7343 18.2516   7
  -7 -11  -8 109.058 18.1772   7
  -7 -11  -9 100.525 21.4857   7
  -7 -11 -10 165.405 23.7560   7
  -7 -12  -1-10.5934 33.0844   4
  -7 -12  -2-25.9796 27.0605   4
  -7 -12  -3 77.3935 32.1735   4
  -7 -12  -4-16.9370 25.2401   4
  -7 -12  -6 119.378 31.1407   4
  -8   5   1 64.3632 27.1492   3
  -8   5   0-15.6121 20.4208   3
  -8   5  -1-42.3240 22.1564   3
  -8   5  -2 63.3975 25.9141   3
  -8   5  -3 55.4442 22.1664   3
  -8   5  -4 3.97758 19.4916   3
  -8   5  -5 4.96634 24.7411   3
  -8   5  -7-64.4219 22.2498   3
  -8   5  -8 79.2741 27.4259   8
  -8   4   3-50.2279 21.0232   3
  -8   4   2-35.2605 18.0412   3
  -8   4   1 45.7971 24.6641   3
  -8   4   0-28.6596 18.9480   3
  -8   4  -1-39.7977 17.1530   3
  -8   4  -2 12.6056 19.1386   3
  -8   4  -3 62.8382 24.6924   3
  -8   4  -4 42.3918 20.6779   3
  -8   4  -5 5.10747 22.5574   3
  -8   4  -6-25.7908 25.9371   8
  -8   4  -6 92.6103 20.2923   3
  -8   4  -7 27.4395 28.4172   8
  -8   4  -7 41.1579 21.8526   3
  -8   4  -8 71.8422 22.1936   3
  -8   4  -8-8.37252 27.6426   8
  -8   4  -9 102.486 26.0903   8
  -8   4 -10-32.0300 27.1214   8
  -8   3   5-55.4885 22.2735   3
  -8   3   4 50.7423 30.3409   3
  -8   3   2 28.7296 20.9072   3
  -8   3   1 32.9122 24.5297   3
  -8   3   0-22.0162 17.7291   3
  -8   3  -1-64.9845 17.7847   3
  -8   3  -2 33.5153 21.7071   3
  -8   3  -3 0.95878 17.9070   3
  -8   3  -4-18.9924 18.7934   8
  -8   3  -4 33.6988 21.2327   3
  -8   3  -5-32.2327 20.1666   8
  -8   3  -5 67.1616 22.6047   3
  -8   3  -6 27.9054 24.6096   8
  -8   3  -6 50.7843 22.2539   3
  -8   3  -7 7.50813 24.7019   8
  -8   3  -7 8.07670 20.6040   3
  -8   3  -8 102.687 28.3878   8
  -8   3  -8 3.96362 18.3519   3
  -8   3  -9-26.0640 21.9616   8
  -8   3 -10 90.5134 25.6082   8
  -8   3 -11 148.143 28.6381   8
  -8   2   5-25.1032 26.4211   3
  -8   2   4 64.1166 28.0802   3
  -8   2   3-22.5271 24.9032   3
  -8   2   2 69.3722 26.1374   3
  -8   2   1-3.64385 21.0812   3
  -8   2   0-6.89333 17.1398   3
  -8   2  -1-10.1357 19.7851   3
  -8   2  -2 23.1318 22.4687   3
  -8   2  -3 14.6252 18.4521   8
  -8   2  -3 14.8662 19.4020   3
  -8   2  -4 17.4883 15.9017   8
  -8   2  -4 0.93448 19.6497   3
  -8   2  -5-12.0925 20.5393   8
  -8   2  -5-11.0027 18.5804   3
  -8   2  -6-0.35481 21.4569   8
  -8   2  -6-37.2793 16.9148   3
  -8   2  -7 45.9615 21.0105   8
  -8   2  -7-22.3777 19.0604   3
  -8   2  -8-61.6452 20.5714   8
  -8   2  -8 80.2315 17.1252   3
  -8   2  -9 43.7517 30.0419   8
  -8   2  -9 50.1121 15.9960   3
  -8   2 -10-8.45098 24.8985   8
  -8   2 -12-15.6861 29.4650   8
  -8   1   6 136.887 28.1431   3
  -8   1   5-3.60360 25.2646   3
  -8   1   4 67.5563 24.7054   3
  -8   1   3 163.953 25.1586   3
  -8   1   2 96.6867 25.9636   3
  -8   1   1-9.03272 18.3279   3
  -8   1   0 2.80512 18.8640   3
  -8   1  -1-5.51103 19.2803   6
  -8   1  -1-3.13632 18.6906   3
  -8   1  -2 41.0941 18.1165   8
  -8   1  -2 5.02581 18.5756   3
  -8   1  -2 1.78994 18.6749   6
  -8   1  -3 22.0106 18.0134   8
  -8   1  -3-14.1617 18.0853   3
  -8   1  -4 10.8828 15.8663   8
  -8   1  -4-12.2071 16.5164   3
  -8   1  -5 13.8339 16.5192   8
  -8   1  -5-12.8335 17.7936   3
  -8   1  -6-7.15408 19.4525   8
  -8   1  -6 1.12161 18.4287   3
  -8   1  -7 13.3153 20.5411   8
  -8   1  -7 75.7517 19.0871   3
  -8   1  -8-14.7027 22.9755   8
  -8   1  -9-9.83112 22.7361   8
  -8   1 -10-18.9673 25.5022   8
  -8   1 -11 68.4946 29.0203   8
  -8   1 -12 95.3491 25.1945   8
  -8   1 -13-15.0868 29.0038   8
  -8   0   7-14.6530 23.2372   3
  -8   0   6 65.4799 22.4744   3
  -8   0   5 36.7458 28.3830   3
  -8   0   4 22.5019 21.2503   3
  -8   0   3 102.548 23.0757   3
  -8   0   2 14.1151 21.8462   3
  -8   0   1-13.1358 19.9818   3
  -8   0   0-11.2106 19.9215   3
  -8   0  -1 1.83370 18.9007   6
  -8   0  -1 33.3085 19.6688   3
  -8   0  -2-20.9410 19.1259   6
  -8   0  -2 19.7167 17.6242   3
  -8   0  -2 25.5682 17.7009   8
  -8   0  -3 4.20708 16.7675   8
  -8   0  -3-4.70634 15.3225   3
  -8   0  -4 18.4243 19.2451   8
  -8   0  -4-23.5283 17.9114   3
  -8   0  -4 45.1056 19.8496   6
  -8   0  -5 14.6551 20.4112   8
  -8   0  -5 19.1939 17.7729   3
  -8   0  -6-14.1195 20.2062   8
  -8   0  -6 44.4581 17.2047   3
  -8   0  -6 69.4405 15.1724   6
  -8   0  -7 34.1248 20.0277   8
  -8   0  -8 43.6475 20.4058   8
  -8   0  -9-22.4068 24.2575   8
  -8   0 -10 7.14438 23.4895   8
  -8   0 -11 50.9884 28.2245   8
  -8  -1   7 8.28816 25.7725   3
  -8  -1   6 77.3839 23.9130   3
  -8  -1   5 31.6661 24.3813   3
  -8  -1   4 5.99318 20.9283   3
  -8  -1   3 46.9601 23.7134   3
  -8  -1   2 18.1587 19.4835   3
  -8  -1   1 9.85033 19.8259   3
  -8  -1   0 60.6182 21.4701   3
  -8  -1  -1 76.3022 19.8827   6
  -8  -1  -1 112.565 19.6473   3
  -8  -1  -2 151.186 21.7456   6
  -8  -1  -2 187.681 20.9617   3
  -8  -1  -3 220.882 23.3545   6
  -8  -1  -3 157.320 19.3648   3
  -8  -1  -3 181.869 20.9984   8
  -8  -1  -4 128.977 22.6368   8
  -8  -1  -4 145.206 22.9552   6
  -8  -1  -4 95.4620 17.0318   3
  -8  -1  -5 25.1015 19.4498   8
  -8  -1  -5 36.2122 16.6299   3
  -8  -1  -6-14.9699 20.0132   8
  -8  -1  -6 51.5580 14.2371   6
  -8  -1  -7 21.4681 17.1810   8
  -8  -1  -7 23.7891 14.7483   6
  -8  -1  -8 19.1762 21.9460   8
  -8  -1  -8 2.20236 13.3826   6
  -8  -1  -9-24.7325 20.7031   8
  -8  -1  -9 30.1678 15.0007   6
  -8  -1 -10 42.1079 26.7895   8
  -8  -1 -11 42.4320 23.9146   8
  -8  -1 -12-66.3280 22.3408   8
  -8  -1 -14 10.8212 30.9616   8
  -8  -2   7-29.6169 27.8363   3
  -8  -2   6 55.7208 28.2652   3
  -8  -2   5 11.2555 24.0945   3
  -8  -2   4-40.9994 22.0931   3
  -8  -2   3 119.979 25.4842   3
  -8  -2   2 7.07373 21.4448   3
  -8  -2   1 47.2677 19.8941   3
  -8  -2   0 32.7702 20.1302   3
  -8  -2  -1 7.37389 20.3059   6
  -8  -2  -1 22.1783 18.4075   3
  -8  -2  -2 127.060 21.8378   6
  -8  -2  -2 131.324 20.0887   3
  -8  -2  -3 428.385 29.6397   6
  -8  -2  -3 465.186 25.4666   3
  -8  -2  -4 185.003 22.6236   6
  -8  -2  -4 241.460 25.4311   8
  -8  -2  -5 146.319 23.5604   8
  -8  -2  -5 70.5341 19.1838   6
  -8  -2  -6-0.06754 19.3072   8
  -8  -2  -6 54.6486 15.1713   6
  -8  -2  -7-8.24479 17.6309   8
  -8  -2  -7 12.8762 15.1576   6
  -8  -2  -8 28.7456 21.1672   8
  -8  -2  -8-32.4290 13.5917   6
  -8  -2  -9-81.5850 19.7894   8
  -8  -2  -9 110.582 17.5421   6
  -8  -2 -10 3.33665 17.3355   8
  -8  -2 -11 37.1202 21.5966   8
  -8  -2 -12 56.3132 26.9994   8
  -8  -2 -13-42.8402 27.9333   8
  -8  -2 -14 38.3123 25.2892   8
  -8  -2 -15 161.489 35.1177   8
  -8  -3   7 26.1223 23.2941   3
  -8  -3   6 78.2673 28.2271   3
  -8  -3   5-1.26706 24.7625   3
  -8  -3   3 82.4661 25.1515   3
  -8  -3   2 120.706 22.5069   3
  -8  -3   1 84.8154 19.3557   3
  -8  -3   0 173.771 26.1211   6
  -8  -3   0 141.803 20.3383   3
  -8  -3  -1 192.397 24.7276   6
  -8  -3  -1 150.164 20.4836   3
  -8  -3  -2 145.720 22.8708   6
  -8  -3  -2 149.559 20.1590   3
  -8  -3  -3 54.9668 22.9622   6
  -8  -3  -4 30.6358 19.0988   6
  -8  -3  -5-25.7647 19.8397   6
  -8  -3  -6-6.28998 18.3715   8
  -8  -3  -6 51.5862 19.2309   6
  -8  -3  -7 16.9173 20.8983   8
  -8  -3  -7 6.24512 16.0330   6
  -8  -3  -8-7.54655 16.2299   8
  -8  -3  -8-8.98698 15.2006   6
  -8  -3  -9-65.9637 17.3831   8
  -8  -3  -9 46.1156 16.5531   6
  -8  -3 -10 5.96034 18.1082   8
  -8  -3 -11 28.7038 17.3061   8
  -8  -3 -13-65.4651 19.8222   8
  -8  -3 -14 57.9438 17.5558   8
  -8  -3 -15 130.247 26.6371   8
  -8  -4   7 88.2346 29.3750   3
  -8  -4   6 65.6248 24.3573   3
  -8  -4   5-13.2120 20.6830   3
  -8  -4   4-28.3210 21.9655   3
  -8  -4   3 146.600 25.8017   3
  -8  -4   2-33.0896 21.0738   3
  -8  -4   1 33.7683 18.1554   3
  -8  -4   0 16.8334 22.3000   6
  -8  -4   0 79.7420 19.1609   3
  -8  -4  -1 103.239 22.5490   6
  -8  -4  -1 114.434 19.6181   3
  -8  -4  -2 156.299 23.6810   6
  -8  -4  -3 61.3921 21.8181   6
  -8  -4  -4 183.726 23.0547   6
  -8  -4  -5-11.7578 21.2631   6
  -8  -4  -6 6.33588 16.3655   6
  -8  -4  -7-70.3553 15.3880   6
  -8  -4  -7 45.2055 19.2198   8
  -8  -4  -8-29.5692 20.1595   8
  -8  -4  -8-24.4485 17.5661   6
  -8  -4  -9 29.3998 20.4370   8
  -8  -4  -9 41.4100 16.6235   6
  -8  -4 -11 46.9497 21.8920   8
  -8  -4 -12-78.5570 15.4481   8
  -8  -4 -15 118.516 25.3422   8
  -8  -5   7 96.6840 29.4154   3
  -8  -5   6 3.32918 22.9708   3
  -8  -5   5-31.9553 25.7657   3
  -8  -5   4 0.55432 22.6789   3
  -8  -5   3 30.4697 18.0155   3
  -8  -5   2-6.62394 19.4407   3
  -8  -5   1 4.87088 20.9424   6
  -8  -5   1 45.3502 19.2210   3
  -8  -5   0 27.0911 23.0846   6
  -8  -5  -1 59.6004 22.4350   6
  -8  -5  -2 102.960 25.2166   6
  -8  -5  -3 85.0095 25.2283   6
  -8  -5  -5-10.7595 16.6567   6
  -8  -5  -6-20.9392 18.8460   6
  -8  -5  -7 6.17712 19.9187   7
  -8  -5  -7-6.94413 16.2258   6
  -8  -5  -8 37.7390 21.1385   7
  -8  -5  -8 31.7794 18.3277   6
  -8  -5  -9 102.912 24.0979   7
  -8  -5  -9 101.434 19.8514   6
  -8  -5 -10-19.2801 20.8037   8
  -8  -5 -10 15.2083 23.1211   7
  -8  -5 -11-25.2217 15.8559   8
  -8  -5 -11 6.66704 26.1633   7
  -8  -5 -12 36.1725 19.8772   8
  -8  -5 -12-11.9782 26.0441   7
  -8  -5 -13 27.5501 25.3704   7
  -8  -5 -14 67.4361 27.3136   7
  -8  -6   6-63.8125 22.2299   3
  -8  -6   5-61.5370 24.4374   3
  -8  -6   4 17.2517 24.4441   3
  -8  -6   3 0.25873 22.5976   3
  -8  -6   2 3.72734 20.4576   3
  -8  -6   2 16.9991 24.8154   6
  -8  -6   1 145.887 26.9229   6
  -8  -6   0 108.485 25.5856   6
  -8  -6  -1 66.8508 22.9264   6
  -8  -6  -2 76.8495 22.7971   6
  -8  -6  -3 67.6692 22.7955   6
  -8  -6  -4 85.0523 22.3822   6
  -8  -6  -5 302.509 25.7996   7
  -8  -6  -5 267.499 23.0709   6
  -8  -6  -6-4.02920 19.9370   7
  -8  -6  -6 76.4223 17.3569   6
  -8  -6  -7 0.68890 20.1389   7
  -8  -6  -7 60.7749 18.0576   6
  -8  -6  -8 48.0897 21.8615   7
  -8  -6  -8 29.5531 17.0934   6
  -8  -6  -9 18.3844 22.6549   7
  -8  -6  -9-14.0669 17.6386   6
  -8  -6 -10 4.05465 22.2716   7
  -8  -6 -11-10.4168 25.1362   7
  -8  -6 -12 5.90128 26.7489   7
  -8  -6 -13 2.93759 24.2013   7
  -8  -6 -13 147.257 22.1386   8
  -8  -6 -14 118.998 32.4550   7
  -8  -6 -14-5.25984 23.8729   8
  -8  -7   6 41.0251 28.7177   3
  -8  -7   5 81.0870 24.9898   3
  -8  -7   4 101.220 26.7576   3
  -8  -7   3-16.9058 21.7114   6
  -8  -7   2 82.0314 27.5738   6
  -8  -7   1 36.8845 26.9764   6
  -8  -7   0 13.4933 21.2820   4
  -8  -7   0 3.80825 25.7376   6
  -8  -7  -1 121.486 26.0267   4
  -8  -7  -1 49.8737 23.5832   6
  -8  -7  -2 64.8776 24.7170   6
  -8  -7  -3-1.64891 20.3264   6
  -8  -7  -4 35.2983 21.1321   6
  -8  -7  -5 89.4092 24.4473   7
  -8  -7  -5 38.6701 21.3554   6
  -8  -7  -6-10.7990 18.6959   7
  -8  -7  -6-13.0350 19.2156   6
  -8  -7  -7 22.1850 21.0678   7
  -8  -7  -7-12.7213 17.6144   6
  -8  -7  -8 35.3652 21.4664   7
  -8  -7  -8-12.9308 17.1319   6
  -8  -7  -9 28.1813 26.1667   7
  -8  -7  -9-7.48451 16.9205   6
  -8  -7 -10-6.22079 24.1461   7
  -8  -7 -11-19.6769 25.6915   7
  -8  -7 -12-25.6924 29.3017   7
  -8  -7 -13 72.2755 30.7632   7
  -8  -8   5 160.554 31.0286   6
  -8  -8   4-31.3336 24.9889   6
  -8  -8   3 66.9244 28.6822   6
  -8  -8   2 91.5972 27.2272   6
  -8  -8   2 40.9941 22.5518   4
  -8  -8   1-2.80401 26.9939   4
  -8  -8   1-35.5077 25.0008   6
  -8  -8   0 11.4621 24.4978   4
  -8  -8   0 47.3317 25.3304   6
  -8  -8  -1 82.7456 25.9802   4
  -8  -8  -1 76.8382 25.7534   6
  -8  -8  -2-28.2143 23.4216   4
  -8  -8  -2 4.22980 21.3348   6
  -8  -8  -3 39.8201 23.0288   6
  -8  -8  -4 45.9694 19.9241   6
  -8  -8  -5 40.7676 18.6770   6
  -8  -8  -6 11.4740 22.8471   7
  -8  -8  -6 128.055 21.9946   6
  -8  -8  -7 24.3392 22.1620   7
  -8  -8  -7 63.6841 20.1415   6
  -8  -8  -8 65.8934 26.0055   7
  -8  -8  -8 81.8494 19.6489   6
  -8  -8  -9 67.3752 25.3402   7
  -8  -8 -10 49.9256 24.0107   7
  -8  -8 -11 55.8326 26.9287   7
  -8  -8 -12 197.893 34.3279   7
  -8  -9   3 205.545 32.8086   6
  -8  -9   3 14.0648 30.2911   4
  -8  -9   2-18.2999 28.8400   4
  -8  -9   2 32.0070 22.7561   6
  -8  -9   1-39.6017 27.9050   4
  -8  -9   1 7.28629 25.3013   6
  -8  -9   0 72.8922 28.2380   4
  -8  -9   0 74.4651 26.7515   6
  -8  -9  -1 37.6292 27.9300   4
  -8  -9  -1-13.9145 25.4566   6
  -8  -9  -2-30.4751 24.6086   4
  -8  -9  -2-17.1154 20.1859   6
  -8  -9  -3 69.6416 23.5178   4
  -8  -9  -3 4.50997 18.2108   6
  -8  -9  -4-57.2853 15.9485   6
  -8  -9  -5-54.9602 16.9878   6
  -8  -9  -6-7.31267 16.2211   6
  -8  -9  -7-17.8098 17.4065   6
  -8  -9  -8 45.8387 28.8574   7
  -8  -9  -8-60.9237 20.1560   6
  -8  -9  -9 54.0690 28.7352   7
  -8  -9 -10 88.5790 29.2519   7
  -8  -9 -11 73.6190 33.0757   7
  -8 -10   1 95.5565 36.4869   4
  -8 -10   1 2.68646 26.9512   6
  -8 -10   0-0.71083 26.1933   4
  -8 -10  -1-35.8045 29.2328   4
  -8 -10  -1-55.6369 20.0674   6
  -8 -10  -2 118.625 26.9742   4
  -8 -10  -2-58.7062 18.5519   6
  -8 -10  -3-26.0070 28.7156   4
  -8 -10  -5-52.9796 18.4066   6
  -8 -10  -6 51.3778 17.8323   6
  -8 -10  -7-27.0667 26.6041   7
  -8 -10  -7 56.2612 18.1238   6
  -8 -11  -1 18.6851 32.8534   4
  -8 -11  -3 47.4072 27.6305   4
  -8 -11  -4-3.12403 18.5600   6
  -8 -11  -5 65.7753 21.9883   6
  -8 -11  -6 242.771 22.8281   6
  -8 -11  -7 185.119 19.9649   6
  -8 -11  -8 285.381 23.1532   7
  -8 -11  -9 394.419 24.8268   7
  -8 -12  -4 65.5203 35.2028   4
  -9   4  -3 14.2315 21.0276   3
  -9   4  -4 80.2588 20.6759   3
  -9   4  -5 29.6865 24.4927   3
  -9   4  -6-26.2689 19.6846   3
  -9   4  -7-1.23177 22.7812   3
  -9   4  -8-43.3032 20.4893   3
  -9   4  -8 99.6954 34.3976   8
  -9   3   0 88.0793 21.7403   3
  -9   3  -1 25.6015 24.0540   3
  -9   3  -3-33.9151 21.9282   3
  -9   3  -4 25.9529 19.5469   3
  -9   3  -5 79.0824 25.4423   3
  -9   3  -6 2.30420 25.1697   8
  -9   3  -6 143.357 23.9739   3
  -9   3  -7 46.5367 28.8900   8
  -9   3  -7 145.375 25.5504   3
  -9   3  -8 3.42984 30.1241   8
  -9   3  -8 102.454 20.8901   3
  -9   3  -9 85.3892 32.3507   8
  -9   2   2-35.3159 25.3116   3
  -9   2   1-2.82256 24.9572   3
  -9   2   0 75.1035 23.2020   3
  -9   2  -1 11.0321 18.6663   3
  -9   2  -2-45.7473 15.8423   3
  -9   2  -5 46.1827 20.3862   8
  -9   2  -6 44.9545 18.4622   8
  -9   2  -6-14.2799 21.5420   3
  -9   2  -7-2.33918 23.2519   8
  -9   2  -7-52.4828 18.9009   3
  -9   2  -8 100.553 31.6660   8
  -9   2 -10 25.6684 30.8997   8
  -9   1   3 91.8798 29.2901   3
  -9   1   2-7.64944 26.2382   3
  -9   1   1-5.07155 23.1519   3
  -9   1   0 66.1425 24.4227   3
  -9   1  -1 7.20428 21.3447   3
  -9   1  -2-8.39256 20.6949   3
  -9   1  -3 12.8547 20.2948   8
  -9   1  -3-35.1926 17.2248   3
  -9   1  -6-40.5925 18.1430   8
  -9   1  -6-63.4758 16.0667   3
  -9   1  -7 16.3513 17.5190   8
  -9   1  -8-7.91379 17.7934   8
  -9   1  -9 43.8198 27.9937   8
  -9   1 -10-4.25123 28.6949   8
  -9   0   4 45.2576 22.3707   3
  -9   0   3 12.3081 26.3570   3
  -9   0   2 65.8315 26.3767   3
  -9   0   1-4.88261 19.1207   3
  -9   0   0 130.488 25.4872   6
  -9   0   0 74.5637 26.7320   3
  -9   0  -1 149.138 23.9866   6
  -9   0  -1 16.9905 22.5425   3
  -9   0  -2 51.9595 23.2791   6
  -9   0  -2 2.54765 18.0445   3
  -9   0  -3-4.14298 20.1746   3
  -9   0  -3 49.1699 19.9211   6
  -9   0  -3 67.5631 21.8356   8
  -9   0  -4 14.5195 18.9496   8
  -9   0  -4 16.4216 19.8180   3
  -9   0  -5-34.6740 14.6729   8
  -9   0  -5 15.6915 17.6509   3
  -9   0  -7 15.6939 17.0458   8
  -9   0  -8-51.2090 19.4093   8
  -9   0  -9 13.7277 17.3352   8
  -9   0 -10 1.25964 25.5455   8
  -9   0 -11 28.6315 25.8392   8
  -9  -1   4-12.1448 25.0744   3
  -9  -1   3 16.4334 22.8856   3
  -9  -1   2 31.1294 21.1247   3
  -9  -1   1-14.1755 22.5074   3
  -9  -1   0 38.6218 25.2511   6
  -9  -1   0 60.7569 21.5495   3
  -9  -1  -1 48.1451 22.2620   6
  -9  -1  -1 18.7878 19.9678   3
  -9  -1  -2 40.1301 19.8305   6
  -9  -1  -2-21.2666 20.9392   3
  -9  -1  -3 31.5588 20.6923   6
  -9  -1  -3 2.00817 18.4198   3
  -9  -1  -4 32.5014 19.2514   3
  -9  -1  -4-17.2468 21.4849   6
  -9  -1  -4 51.0467 19.8109   8
  -9  -1  -5 42.0512 23.1321   8
  -9  -1  -6-81.9311 21.4204   8
  -9  -1  -6 1.49499 15.7214   6
  -9  -1  -7-7.02767 17.6263   8
  -9  -1  -7 42.8294 16.7548   6
  -9  -1  -8-5.26939 18.9318   8
  -9  -1  -9-41.9897 17.9716   8
  -9  -1 -10-64.1436 19.4458   8
  -9  -1 -11 59.4343 20.3354   8
  -9  -1 -12 33.5515 18.0503   8
  -9  -2   4 54.5988 26.0308   3
  -9  -2   3 86.1284 23.0701   3
  -9  -2   2 119.410 28.1244   3
  -9  -2   1 147.886 27.3602   3
  -9  -2   0 24.5414 24.9164   6
  -9  -2   0 114.878 22.5851   3
  -9  -2  -1-7.18486 19.5483   6
  -9  -2  -1 77.7535 23.8332   3
  -9  -2  -2-13.0895 21.4782   6
  -9  -2  -2 13.8077 19.6320   3
  -9  -2  -3 10.1799 22.1171   6
  -9  -2  -4-15.2780 22.2320   6
  -9  -2  -5 33.7852 19.6699   8
  -9  -2  -6-23.4028 18.5523   8
  -9  -2  -6-22.4488 15.8127   6
  -9  -2  -7-46.1133 20.1253   8
  -9  -2  -7 52.6491 14.5305   6
  -9  -2  -8 24.6665 22.9370   8
  -9  -2  -8 84.6044 16.0758   6
  -9  -2  -9-72.4142 19.7365   8
  -9  -2 -10 16.7885 20.1063   8
  -9  -2 -10-30.5678 15.2493   6
  -9  -2 -11-15.2858 21.0402   8
  -9  -3   5-55.3107 25.0292   3
  -9  -3   4 81.1738 23.9568   3
  -9  -3   3-8.06095 25.3729   3
  -9  -3   2 29.0890 24.6608   3
  -9  -3   1 103.403 26.9495   6
  -9  -3   1-6.87042 20.2476   3
  -9  -3   0 67.5136 24.0156   6
  -9  -3   0 126.051 24.2892   3
  -9  -3  -1 69.4095 22.2105   6
  -9  -3  -1 151.674 24.6361   3
  -9  -3  -2 34.4283 24.2846   6
  -9  -3  -3-31.2269 22.8136   6
  -9  -3  -4-66.0647 21.9646   6
  -9  -3  -6 42.9315 16.4016   6
  -9  -3  -7-48.1851 21.2588   8
  -9  -3  -7 65.3349 16.1226   6
  -9  -3  -8 31.4130 20.2278   8
  -9  -3  -8 11.1743 17.8758   6
  -9  -3  -9-70.2675 20.3740   8
  -9  -3  -9-9.46282 14.6456   6
  -9  -3 -10 20.1420 22.9562   8
  -9  -3 -11-17.9584 17.8013   8
  -9  -3 -13 61.2378 19.9258   8
  -9  -4   5 3.40601 27.9280   3
  -9  -4   4 134.211 28.6700   3
  -9  -4   3-9.32667 22.8874   3
  -9  -4   2 105.679 22.6848   3
  -9  -4   1 73.9507 23.9088   6
  -9  -4   1 61.8758 22.6006   3
  -9  -4   0 60.1784 23.6277   6
  -9  -4  -1 92.3572 28.0139   6
  -9  -4  -2 66.4905 24.8253   6
  -9  -4  -3 87.7093 26.4476   6
  -9  -4  -4 32.8845 21.2541   6
  -9  -4  -5 31.6251 22.9918   6
  -9  -4  -6 90.8544 20.0983   6
  -9  -4  -7 15.7560 19.1091   6
  -9  -4  -8 7.61926 17.7853   6
  -9  -4  -9-17.6513 21.5461   8
  -9  -4  -9-70.0023 17.6804   6
  -9  -4 -10-8.65091 20.6895   8
  -9  -4 -11 18.8002 16.9462   8
  -9  -4 -13 74.8643 23.8040   8
  -9  -5   5 135.166 34.6683   3
  -9  -5   4-21.4968 27.4553   3
  -9  -5   3-57.9488 20.0683   3
  -9  -5   2 116.003 28.0257   6
  -9  -5   2 99.6535 24.8389   3
  -9  -5   1 58.8823 24.9936   6
  -9  -5   0-15.6594 21.9104   6
  -9  -5  -1 12.4021 21.2905   6
  -9  -5  -2 17.2819 23.9066   6
  -9  -5  -3 12.6385 24.3363   6
  -9  -5  -5-35.2334 19.9549   6
  -9  -5  -6 18.7201 18.4713   6
  -9  -5  -8-48.8638 16.8967   6
  -9  -5 -10-60.4694 16.3358   6
  -9  -5 -11 106.383 21.9197   8
  -9  -5 -13-4.42638 22.4908   8
  -9  -6   5-17.3970 24.9443   3
  -9  -6   3 128.334 31.7629   6
  -9  -6   2-1.82018 27.4101   6
  -9  -6   1 15.8999 24.8884   6
  -9  -6   0 76.5891 24.7821   6
  -9  -6  -1 82.6940 24.5161   6
  -9  -6  -2 21.4891 26.8158   6
  -9  -6  -3-13.1791 24.3766   6
  -9  -6  -5-64.0701 14.6702   6
  -9  -6  -6-76.9939 16.3432   6
  -9  -6  -7-69.4754 17.4423   6
  -9  -6  -8-31.4873 17.3944   6
  -9  -6  -9-46.0529 26.0109   7
  -9  -6  -9-4.04129 18.0589   6
  -9  -6 -10-0.40190 23.7105   7
  -9  -6 -10 122.401 20.0892   6
  -9  -6 -11 33.2989 30.2886   7
  -9  -6 -12 90.3019 31.2061   7
  -9  -7   2-7.08913 24.2823   6
  -9  -7   1 133.121 32.8060   6
  -9  -7   0 51.6699 29.9718   6
  -9  -7  -1-5.58570 46.3053   6
  -9  -7  -2-24.1166 26.7035   6
  -9  -7  -4 6.11520 19.9667   6
  -9  -7  -5 51.0202 20.9952   6
  -9  -7  -6-25.2057 25.2688   7
  -9  -7  -6 80.3628 20.9286   6
  -9  -7  -7 115.338 25.1271   7
  -9  -7  -7 76.9561 19.6409   6
  -9  -7  -8 38.5664 24.2231   7
  -9  -7  -8 80.5833 19.7005   6
  -9  -7  -9-57.2717 22.9680   7
  -9  -7  -9 75.9284 21.6666   6
  -9  -7 -10-34.9200 27.3688   7
  -9  -8   2 107.491 29.4279   6
  -9  -8   1 38.8436 31.6529   6
  -9  -8   0 25.2156 25.9173   6
  -9  -8  -1 105.214 31.0174   6
  -9  -8  -2-48.0719 25.6074   6
  -9  -8  -3-43.1756 19.1213   6
  -9  -8  -4-18.4106 17.1237   6
  -9  -8  -7 126.679 30.8992   7
  -9  -8  -7-4.02437 20.6943   6
  -9  -8  -8 120.968 29.6073   7
  -9  -8  -9 30.8820 26.5205   7
  -9  -8  -9-69.3291 15.9808   6
  -9  -9   1 34.9489 29.9883   4
  -9  -9   0 92.6276 31.1806   6
  -9  -9  -1-13.6882 28.1060   6
  -9  -9  -4-64.5337 19.8088   6
  -9  -9  -5 19.6453 17.4649   6
  -9  -9  -6 82.8438 22.5700   6
  -9  -9  -7 114.662 21.8474   6
  -9  -9  -8 126.946 30.4569   7
  -9  -9  -8 154.054 19.8840   6
  -9  -9  -9 129.362 28.9508   7
  -9  -9 -10 56.8588 30.9921   7
  -9 -10  -1-53.9897 26.1569   4
  -9 -10  -3 9.57339 22.2182   6
  -9 -10  -4 118.568 22.3348   6
  -9 -10  -5 118.910 22.6301   6
  -9 -10  -6-14.7378 20.6218   6
  -9 -10  -9-17.1946 31.2503   7
 -10   2  -3 85.5818 22.6923   3
 -10   2  -4-13.9844 21.4433   3
 -10   2  -7 34.6736 24.9119   8
 -10   1  -2-4.78457 23.8654   3
 -10   1  -3 156.328 26.7271   3
 -10   1  -4 129.197 21.7025   3
 -10   1  -5 20.6809 18.3105   8
 -10   1  -5 150.012 24.6551   3
 -10   1  -6 62.5655 24.7298   8
 -10   1  -8 62.6956 19.6958   8
 -10   0   1 75.8991 28.6963   6
 -10   0   0 207.974 31.6029   6
 -10   0   0-27.1665 23.7206   3
 -10   0  -2-72.7893 21.2690   3
 -10   0  -3 37.9009 20.8384   3
 -10   0  -4 57.5733 18.1685   3
 -10   0  -6-55.9363 19.8066   8
 -10   0  -7 81.3332 25.4425   8
 -10  -1   1 79.9330 26.4055   6
 -10  -1   1 21.9925 21.9598   3
 -10  -1   0 260.008 33.6253   6
 -10  -1   0 98.1807 29.9776   3
 -10  -1  -1 104.986 26.6952   6
 -10  -1  -1-43.3698 20.2733   3
 -10  -1  -2 0.24684 23.7313   6
 -10  -1  -3 38.6567 23.3582   6
 -10  -1  -4-66.0253 22.6860   6
 -10  -1  -7 12.9356 20.5163   8
 -10  -1  -8-7.28997 20.4400   8
 -10  -1  -9 35.6801 22.0373   8
 -10  -2   2 111.099 33.5357   3
 -10  -2   1-24.3933 27.6631   6
 -10  -2   1-32.3249 27.5377   3
 -10  -2   0 94.0350 27.9743   6
 -10  -2   0 122.173 23.4184   3
 -10  -2  -1 141.314 29.2647   6
 -10  -2  -1 16.2140 25.1008   3
 -10  -2  -2 87.9487 28.6466   6
 -10  -2  -3 45.6197 23.1874   6
 -10  -2  -4-6.44602 26.2674   6
 -10  -2  -6 28.7980 20.1161   6
 -10  -2  -7-17.7157 20.2813   8
 -10  -2  -7 65.6185 19.0680   6
 -10  -2  -8 30.2154 19.7589   8
 -10  -2  -8 123.972 17.0044   6
 -10  -3   2 173.279 26.9948   3
 -10  -3   1-27.6058 27.4940   6
 -10  -3  -1 54.9142 24.4438   6
 -10  -3  -2 105.565 27.7814   6
 -10  -3  -3 126.600 28.2750   6
 -10  -3  -4-6.95266 21.1081   6
 -10  -3  -6 62.7244 18.7758   6
 -10  -3  -7 120.778 19.0993   6
 -10  -3  -8 150.824 17.4711   6
 -10  -3  -8 233.743 27.6630   8
 -10  -3  -9 128.703 18.1507   6
 -10  -3 -10 98.7664 20.5956   6
 -10  -4   2 110.454 22.1867   3
 -10  -4   0 45.6701 30.9749   6
 -10  -4  -1-56.2524 28.2945   6
 -10  -4  -2 3.70829 24.5403   6
 -10  -4  -3 104.017 30.0846   6
 -10  -4  -4-71.5732 20.7973   6
 -10  -4  -5 4.14797 25.7519   6
 -10  -4  -6 117.136 18.6974   6
 -10  -4  -7 130.706 17.5104   6
 -10  -4  -8 114.739 16.9892   6
 -10  -4  -9 158.993 17.7764   6
 -10  -4 -10 83.6556 18.7691   6
 -10  -5   0 121.002 29.7267   6
 -10  -5  -1 152.173 31.3208   6
 -10  -5  -2-13.6340 27.5712   6
 -10  -5  -3-34.3280 25.9141   6
 -10  -5  -6-11.6255 17.3012   6
 -10  -5  -7 50.7571 20.3747   6
 -10  -5  -8 122.233 21.2017   6
 -10  -5  -9 92.1328 21.3855   6
 -10  -5 -10 10.9742 22.4639   6
 -10  -6  -1 17.4199 27.1677   6
 -10  -6  -2 113.421 26.8134   6
 -10  -6  -3-20.9326 26.7886   6
 -10  -6  -6-49.2730 20.1795   6
 -10  -6  -7-39.3412 18.8190   6
 -10  -6  -8-9.59987 20.9233   6
 -10  -6  -9-69.3225 18.5168   6
 -10  -7  -4-25.3500 22.3949   6
 -10  -7  -5 109.270 20.8527   6
 -10  -7  -6 55.2759 21.1966   6
 -10  -7  -7 14.4765 17.6707   6
;
_shelx_hkl_checksum              4255
loop_
_space_group_symop_operation_xyz
'x, y, z'
'-x, -y, -z'
loop_
_atom_site_label
_atom_site_type_symbol
_atom_site_fract_x
_atom_site_fract_y
_atom_site_fract_z
_atom_site_U_iso_or_equiv
_atom_site_adp_type
_atom_site_occupancy
_atom_site_site_symmetry_order
_atom_site_calc_flag
_atom_site_refinement_flags_posn
_atom_site_refinement_flags_adp
C1 C 0.5487(7) 0.5888(5) 0.0456(4) 0.0377(14) Uani 1 1 d . .
H1 H 0.5819 0.6471 0.0750 0.045 Uiso 1 1 calc R U
C2 C 0.4057(7) 0.6252(5) 0.0121(4) 0.0358(13) Uani 1 1 d . .
C3 C 0.3568(7) 0.5381(5) -0.0344(4) 0.0374(14) Uani 1 1 d . .
C4 C 0.2009(7) 0.6046(5) -0.0631(4) 0.0414(15) Uani 1 1 d . .
C5 C 0.1026(7) 0.5625(6) -0.1099(4) 0.0493(17) Uani 1 1 d . .
H5 H 0.1332 0.4784 -0.1296 0.059 Uiso 1 1 calc R U
C6 C -0.0416(8) 0.6462(7) -0.1274(5) 0.0604(19) Uani 1 1 d . .
H6 H -0.1073 0.6182 -0.1594 0.072 Uiso 1 1 calc R U
C7 C -0.0881(8) 0.7703(7) -0.0977(6) 0.072(2) Uani 1 1 d . .
H7 H -0.1865 0.8252 -0.1083 0.086 Uiso 1 1 calc R U
C8 C 0.0105(8) 0.8141(6) -0.0520(5) 0.065(2) Uani 1 1 d . .
H8 H -0.0199 0.8989 -0.0337 0.078 Uiso 1 1 calc R U
C9 C 0.1539(7) 0.7317(5) -0.0337(4) 0.0442(15) Uani 1 1 d . .
C10 C 0.2798(7) 0.7566(5) 0.0166(4) 0.0437(15) Uani 1 1 d . .
C11 C 0.3641(7) 0.8672(5) -0.0380(5) 0.0495(16) Uani 1 1 d . .
H11A H 0.2799 0.9479 -0.0297 0.059 Uiso 1 1 calc R U
H11B H 0.4494 0.8726 -0.0060 0.059 Uiso 1 1 calc R U
C12 C 0.4450(8) 0.8548(6) -0.1476(5) 0.0622(19) Uani 1 1 d . .
H12A H 0.3658 0.8360 -0.1786 0.075 Uiso 1 1 calc R U
H12B H 0.5422 0.7827 -0.1561 0.075 Uiso 1 1 calc R U
C13 C 0.5004(9) 0.9771(6) -0.1998(5) 0.070(2) Uani 1 1 d . .
H10 H 0.4032 1.0492 -0.1897 0.084 Uiso 1 1 calc R U
H23 H 0.5805 0.9949 -0.1690 0.084 Uiso 1 1 calc R U
C14 C 0.5788(11) 0.9695(8) -0.3091(6) 0.092(3) Uani 1 1 d . .
H14A H 0.4983 0.9519 -0.3398 0.110 Uiso 1 1 calc R U
H14B H 0.6753 0.8968 -0.3190 0.110 Uiso 1 1 calc R U
C15 C 0.6350(12) 1.0884(8) -0.3618(6) 0.098(3) Uani 1 1 d . .
H15A H 0.7155 1.1066 -0.3314 0.118 Uiso 1 1 calc R U
H15B H 0.5388 1.1613 -0.3532 0.118 Uiso 1 1 calc R U
C16 C 0.7153(12) 1.0748(9) -0.4725(6) 0.111(3) Uani 1 1 d . .
H16A H 0.8046 0.9970 -0.4807 0.134 Uiso 1 1 calc R U
H16B H 0.6313 1.0636 -0.5033 0.134 Uiso 1 1 calc R U
C17 C 0.7843(14) 1.1824(10) -0.5248(7) 0.135(4) Uani 1 1 d . .
H17A H 0.8684 1.1937 -0.4942 0.162 Uiso 1 1 calc R U
H17B H 0.6951 1.2603 -0.5169 0.162 Uiso 1 1 calc R U
C18 C 0.8635(14) 1.1675(11) -0.6341(7) 0.162(5) Uani 1 1 d . .
H18A H 0.9092 1.2412 -0.6629 0.243 Uiso 1 1 calc R U
H18B H 0.7798 1.1615 -0.6661 0.243 Uiso 1 1 calc R U
H18C H 0.9518 1.0905 -0.6430 0.243 Uiso 1 1 calc R U
C19 C 0.1935(8) 0.7896(6) 0.1262(4) 0.0524(17) Uani 1 1 d . .
H19A H 0.2796 0.7933 0.1580 0.063 Uiso 1 1 calc R U
H19B H 0.1197 0.8750 0.1262 0.063 Uiso 1 1 calc R U
C20 C 0.0921(9) 0.6959(6) 0.1877(5) 0.065(2) Uani 1 1 d . .
H20A H 0.1664 0.6110 0.1901 0.078 Uiso 1 1 calc R U
H20B H 0.0079 0.6898 0.1550 0.078 Uiso 1 1 calc R U
C21 C 0.0048(9) 0.7333(7) 0.2929(5) 0.074(2) Uani 1 1 d . .
H21A H 0.0893 0.7351 0.3267 0.088 Uiso 1 1 calc R U
H21B H -0.0653 0.8199 0.2906 0.088 Uiso 1 1 calc R U
C22 C -0.1031(10) 0.6429(8) 0.3525(5) 0.085(2) Uani 1 1 d . .
H22A H -0.1916 0.6455 0.3206 0.102 Uiso 1 1 calc R U
H22B H -0.0343 0.5555 0.3506 0.102 Uiso 1 1 calc R U
C23 C -0.1830(10) 0.6728(8) 0.4597(6) 0.091(3) Uani 1 1 d . .
H23A H -0.0948 0.6716 0.4915 0.109 Uiso 1 1 calc R U
H23B H -0.2537 0.7596 0.4617 0.109 Uiso 1 1 calc R U
C24 C -0.2877(10) 0.5802(8) 0.5183(6) 0.091(3) Uani 1 1 d . .
H24A H -0.3782 0.5840 0.4878 0.109 Uiso 1 1 calc R U
H24B H -0.2179 0.4931 0.5138 0.109 Uiso 1 1 calc R U
C25 C -0.3621(12) 0.6051(9) 0.6252(6) 0.107(3) Uani 1 1 d . .
H25A H -0.4286 0.6932 0.6300 0.129 Uiso 1 1 calc R U
H25B H -0.2715 0.5978 0.6565 0.129 Uiso 1 1 calc R U
C26 C -0.4714(12) 0.5150(10) 0.6818(6) 0.129(4) Uani 1 1 d . .
H26A H -0.5653 0.5251 0.6539 0.194 Uiso 1 1 calc R U
H26B H -0.5116 0.5352 0.7501 0.194 Uiso 1 1 calc R U
H26C H -0.4071 0.4274 0.6775 0.194 Uiso 1 1 calc R U
loop_
_atom_site_aniso_label
_atom_site_aniso_U_11
_atom_site_aniso_U_22
_atom_site_aniso_U_33
_atom_site_aniso_U_23
_atom_site_aniso_U_13
_atom_site_aniso_U_12
C1 0.043(4) 0.034(3) 0.041(4) -0.004(3) -0.009(3) -0.017(3)
C2 0.037(3) 0.031(3) 0.035(3) -0.001(3) -0.002(3) -0.009(3)
C3 0.037(3) 0.038(3) 0.033(3) 0.003(3) -0.004(3) -0.010(3)
C4 0.042(4) 0.043(4) 0.037(4) 0.003(3) -0.007(3) -0.014(3)
C5 0.047(4) 0.049(4) 0.052(4) -0.002(3) -0.011(3) -0.015(3)
C6 0.053(5) 0.068(5) 0.066(5) 0.011(4) -0.026(4) -0.019(4)
C7 0.045(4) 0.067(5) 0.104(6) 0.003(4) -0.033(4) -0.004(4)
C8 0.054(5) 0.045(4) 0.089(6) 0.002(4) -0.021(4) -0.001(4)
C9 0.040(4) 0.044(4) 0.042(4) 0.003(3) -0.004(3) -0.007(3)
C10 0.042(4) 0.035(3) 0.049(4) -0.005(3) -0.006(3) -0.004(3)
C11 0.047(4) 0.037(4) 0.063(5) -0.002(3) -0.012(3) -0.011(3)
C12 0.064(5) 0.060(5) 0.065(5) -0.002(4) -0.013(4) -0.022(4)
C13 0.082(5) 0.064(5) 0.066(5) 0.019(4) -0.015(4) -0.037(4)
C14 0.122(7) 0.093(6) 0.068(6) 0.012(5) -0.011(5) -0.063(6)
C15 0.128(8) 0.095(7) 0.078(6) 0.019(5) -0.018(6) -0.058(6)
C16 0.147(9) 0.117(8) 0.080(7) 0.024(6) -0.023(6) -0.070(7)
C17 0.162(11) 0.142(10) 0.102(9) 0.026(7) -0.019(8) -0.068(8)
C18 0.163(11) 0.210(13) 0.090(9) 0.031(8) 0.003(8) -0.061(10)
C19 0.048(4) 0.041(4) 0.064(5) -0.011(3) -0.003(3) -0.009(3)
C20 0.068(5) 0.068(5) 0.055(5) -0.013(4) 0.007(4) -0.029(4)
C21 0.076(5) 0.076(5) 0.060(5) -0.014(4) 0.011(4) -0.026(4)
C22 0.093(6) 0.098(6) 0.062(5) -0.017(5) 0.011(5) -0.044(5)
C23 0.098(7) 0.095(6) 0.074(6) -0.025(5) 0.010(5) -0.040(5)
C24 0.097(7) 0.104(7) 0.066(6) -0.009(5) 0.009(5) -0.042(5)
C25 0.119(8) 0.124(8) 0.067(6) -0.014(5) 0.015(5) -0.045(6)
C26 0.137(9) 0.163(10) 0.067(6) 0.004(6) 0.019(6) -0.055(8)
loop_
_atom_type_symbol
_atom_type_description
_atom_type_scat_dispersion_real
_atom_type_scat_dispersion_imag
_atom_type_scat_source
C C 0.0033 0.0016 'International Tables Vol C Tables 4.2.6.8 and 6.1.1.4'
H H 0.0000 0.0000 'International Tables Vol C Tables 4.2.6.8 and 6.1.1.4'
loop_
_geom_angle_atom_site_label_1
_geom_angle_atom_site_label_2
_geom_angle_atom_site_label_3
_geom_angle
_geom_angle_site_symmetry_1
_geom_angle_site_symmetry_3
C2 C1 C3 118.3(5) . 2_665
C2 C1 H1 120.8 . .
C3 C1 H1 120.8 2_665 .
C1 C2 C3 121.1(5) . .
C1 C2 C10 128.6(5) . .
C3 C2 C10 110.3(5) . .
C1 C3 C2 120.6(5) 2_665 .
C1 C3 C4 130.7(5) 2_665 .
C2 C3 C4 108.7(5) . .
C5 C4 C9 119.8(6) . .
C5 C4 C3 131.5(5) . .
C9 C4 C3 108.7(5) . .
C4 C5 C6 119.7(6) . .
C4 C5 H5 120.2 . .
C6 C5 H5 120.2 . .
C7 C6 C5 120.3(6) . .
C7 C6 H6 119.8 . .
C5 C6 H6 119.8 . .
C6 C7 C8 120.5(6) . .
C6 C7 H7 119.8 . .
C8 C7 H7 119.8 . .
C9 C8 C7 119.8(6) . .
C9 C8 H8 120.1 . .
C7 C8 H8 120.1 . .
C8 C9 C4 119.9(6) . .
C8 C9 C10 129.4(6) . .
C4 C9 C10 110.7(5) . .
C9 C10 C2 101.6(4) . .
C9 C10 C11 112.6(5) . .
C2 C10 C11 112.2(5) . .
C9 C10 C19 110.9(5) . .
C2 C10 C19 110.7(5) . .
C11 C10 C19 108.8(5) . .
C12 C11 C10 115.9(5) . .
C12 C11 H11A 108.3 . .
C10 C11 H11A 108.3 . .
C12 C11 H11B 108.3 . .
C10 C11 H11B 108.3 . .
H11A C11 H11B 107.4 . .
C11 C12 C13 112.9(5) . .
C11 C12 H12A 109.0 . .
C13 C12 H12A 109.0 . .
C11 C12 H12B 109.0 . .
C13 C12 H12B 109.0 . .
H12A C12 H12B 107.8 . .
C14 C13 C12 114.5(6) . .
C14 C13 H10 108.6 . .
C12 C13 H10 108.6 . .
C14 C13 H23 108.6 . .
C12 C13 H23 108.6 . .
H10 C13 H23 107.6 . .
C13 C14 C15 115.3(7) . .
C13 C14 H14A 108.4 . .
C15 C14 H14A 108.4 . .
C13 C14 H14B 108.4 . .
C15 C14 H14B 108.4 . .
H14A C14 H14B 107.5 . .
C14 C15 C16 113.1(7) . .
C14 C15 H15A 109.0 . .
C16 C15 H15A 109.0 . .
C14 C15 H15B 109.0 . .
C16 C15 H15B 109.0 . .
H15A C15 H15B 107.8 . .
C17 C16 C15 115.1(8) . .
C17 C16 H16A 108.5 . .
C15 C16 H16A 108.5 . .
C17 C16 H16B 108.5 . .
C15 C16 H16B 108.5 . .
H16A C16 H16B 107.5 . .
C16 C17 C18 114.6(10) . .
C16 C17 H17A 108.6 . .
C18 C17 H17A 108.6 . .
C16 C17 H17B 108.6 . .
C18 C17 H17B 108.6 . .
H17A C17 H17B 107.6 . .
C17 C18 H18A 109.5 . .
C17 C18 H18B 109.5 . .
H18A C18 H18B 109.5 . .
C17 C18 H18C 109.5 . .
H18A C18 H18C 109.5 . .
H18B C18 H18C 109.5 . .
C20 C19 C10 115.4(5) . .
C20 C19 H19A 108.4 . .
C10 C19 H19A 108.4 . .
C20 C19 H19B 108.4 . .
C10 C19 H19B 108.4 . .
H19A C19 H19B 107.5 . .
C19 C20 C21 114.0(5) . .
C19 C20 H20A 108.8 . .
C21 C20 H20A 108.8 . .
C19 C20 H20B 108.8 . .
C21 C20 H20B 108.8 . .
H20A C20 H20B 107.6 . .
C22 C21 C20 113.8(6) . .
C22 C21 H21A 108.8 . .
C20 C21 H21A 108.8 . .
C22 C21 H21B 108.8 . .
C20 C21 H21B 108.8 . .
H21A C21 H21B 107.7 . .
C23 C22 C21 115.0(6) . .
C23 C22 H22A 108.5 . .
C21 C22 H22A 108.5 . .
C23 C22 H22B 108.5 . .
C21 C22 H22B 108.5 . .
H22A C22 H22B 107.5 . .
C24 C23 C22 114.2(7) . .
C24 C23 H23A 108.7 . .
C22 C23 H23A 108.7 . .
C24 C23 H23B 108.7 . .
C22 C23 H23B 108.7 . .
H23A C23 H23B 107.6 . .
C25 C24 C23 115.0(7) . .
C25 C24 H24A 108.5 . .
C23 C24 H24A 108.5 . .
C25 C24 H24B 108.5 . .
C23 C24 H24B 108.5 . .
H24A C24 H24B 107.5 . .
C24 C25 C26 114.3(7) . .
C24 C25 H25A 108.7 . .
C26 C25 H25A 108.7 . .
C24 C25 H25B 108.7 . .
C26 C25 H25B 108.7 . .
H25A C25 H25B 107.6 . .
C25 C26 H26A 109.5 . .
C25 C26 H26B 109.5 . .
H26A C26 H26B 109.5 . .
C25 C26 H26C 109.5 . .
H26A C26 H26C 109.5 . .
H26B C26 H26C 109.5 . .
loop_
_geom_bond_atom_site_label_1
_geom_bond_atom_site_label_2
_geom_bond_distance
_geom_bond_site_symmetry_2
C1 C2 1.371(7) .
C1 C3 1.398(7) 2_665
C1 H1 0.9300 .
C2 C3 1.408(7) .
C2 C10 1.535(7) .
C3 C1 1.398(7) 2_665
C3 C4 1.473(7) .
C4 C5 1.383(8) .
C4 C9 1.403(7) .
C5 C6 1.386(8) .
C5 H5 0.9300 .
C6 C7 1.376(9) .
C6 H6 0.9300 .
C7 C8 1.384(9) .
C7 H7 0.9300 .
C8 C9 1.378(8) .
C8 H8 0.9300 .
C9 C10 1.528(8) .
C10 C11 1.547(8) .
C10 C19 1.557(8) .
C11 C12 1.512(8) .
C11 H11A 0.9700 .
C11 H11B 0.9700 .
C12 C13 1.531(8) .
C12 H12A 0.9700 .
C12 H12B 0.9700 .
C13 C14 1.500(9) .
C13 H10 0.9700 .
C13 H23 0.9700 .
C14 C15 1.505(9) .
C14 H14A 0.9700 .
C14 H14B 0.9700 .
C15 C16 1.528(10) .
C15 H15A 0.9700 .
C15 H15B 0.9700 .
C16 C17 1.447(11) .
C16 H16A 0.9700 .
C16 H16B 0.9700 .
C17 C18 1.510(12) .
C17 H17A 0.9700 .
C17 H17B 0.9700 .
C18 H18A 0.9600 .
C18 H18B 0.9600 .
C18 H18C 0.9600 .
C19 C20 1.516(8) .
C19 H19A 0.9700 .
C19 H19B 0.9700 .
C20 C21 1.516(8) .
C20 H20A 0.9700 .
C20 H20B 0.9700 .
C21 C22 1.514(9) .
C21 H21A 0.9700 .
C21 H21B 0.9700 .
C22 C23 1.513(9) .
C22 H22A 0.9700 .
C22 H22B 0.9700 .
C23 C24 1.511(9) .
C23 H23A 0.9700 .
C23 H23B 0.9700 .
C24 C25 1.492(9) .
C24 H24A 0.9700 .
C24 H24B 0.9700 .
C25 C26 1.507(10) .
C25 H25A 0.9700 .
C25 H25B 0.9700 .
C26 H26A 0.9600 .
C26 H26B 0.9600 .
C26 H26C 0.9600 .
loop_
_geom_torsion_atom_site_label_1
_geom_torsion_atom_site_label_2
_geom_torsion_atom_site_label_3
_geom_torsion_atom_site_label_4
_geom_torsion
_geom_torsion_site_symmetry_1
_geom_torsion_site_symmetry_4
C3 C1 C2 C3 -1.4(9) 2_665 .
C3 C1 C2 C10 179.1(5) 2_665 .
C1 C2 C3 C1 1.4(9) . 2_665
C10 C2 C3 C1 -179.0(5) . 2_665
C1 C2 C3 C4 -179.3(5) . .
C10 C2 C3 C4 0.2(6) . .
C1 C3 C4 C5 -0.6(10) 2_665 .
C2 C3 C4 C5 -179.7(6) . .
C1 C3 C4 C9 178.8(6) 2_665 .
C2 C3 C4 C9 -0.4(6) . .
C9 C4 C5 C6 0.0(9) . .
C3 C4 C5 C6 179.3(6) . .
C4 C5 C6 C7 -0.6(10) . .
C5 C6 C7 C8 1.5(11) . .
C6 C7 C8 C9 -1.8(11) . .
C7 C8 C9 C4 1.2(10) . .
C7 C8 C9 C10 -178.9(6) . .
C5 C4 C9 C8 -0.3(9) . .
C3 C4 C9 C8 -179.7(6) . .
C5 C4 C9 C10 179.8(5) . .
C3 C4 C9 C10 0.3(6) . .
C8 C9 C10 C2 179.9(6) . .
C4 C9 C10 C2 -0.2(6) . .
C8 C9 C10 C11 -59.9(9) . .
C4 C9 C10 C11 120.0(5) . .
C8 C9 C10 C19 62.3(8) . .
C4 C9 C10 C19 -117.8(5) . .
C1 C2 C10 C9 179.5(6) . .
C3 C2 C10 C9 0.0(6) . .
C1 C2 C10 C11 59.0(8) . .
C3 C2 C10 C11 -120.5(5) . .
C1 C2 C10 C19 -62.8(8) . .
C3 C2 C10 C19 117.7(5) . .
C9 C10 C11 C12 -52.9(7) . .
C2 C10 C11 C12 60.9(7) . .
C19 C10 C11 C12 -176.3(5) . .
C10 C11 C12 C13 170.7(6) . .
C11 C12 C13 C14 -179.1(7) . .
C12 C13 C14 C15 -179.7(7) . .
C13 C14 C15 C16 179.5(8) . .
C14 C15 C16 C17 -175.0(9) . .
C15 C16 C17 C18 179.9(9) . .
C9 C10 C19 C20 50.6(7) . .
C2 C10 C19 C20 -61.3(7) . .
C11 C10 C19 C20 175.0(6) . .
C10 C19 C20 C21 -178.0(6) . .
C19 C20 C21 C22 177.2(7) . .
C20 C21 C22 C23 176.3(7) . .
C21 C22 C23 C24 -179.0(8) . .
C22 C23 C24 C25 177.7(8) . .
C23 C24 C25 C26 177.8(8) . .
