#------------------------------------------------------------------------------
#$Date: 2017-10-07 08:35:01 +0300 (Sat, 07 Oct 2017) $
#$Revision: 201850 $
#$URL: file:///home/coder/svn-repositories/cod/cif/7/22/92/7229296.cif $
#------------------------------------------------------------------------------
#
# This file is available in the Crystallography Open Database (COD),
# http://www.crystallography.net/
#
# All data on this site have been placed in the public domain by the
# contributors.
#
data_7229296
loop_
_publ_author_name
'Hempe, M.'
'Reggelin, M.'
_publ_section_title
;
 Molecular packing and morphological stability of
 dihydro-indeno[1,2-b]fluorenes in the context of their substitution
 pattern
;
_journal_issue                   75
_journal_name_full               'RSC Adv.'
_journal_page_first              47183
_journal_paper_doi               10.1039/C7RA09401A
_journal_volume                  7
_journal_year                    2017
_chemical_formula_moiety         'C42 H42'
_chemical_formula_sum            'C42 H42'
_chemical_formula_weight         546.75
_space_group_crystal_system      monoclinic
_space_group_IT_number           9
_space_group_name_Hall           'C -2yc'
_space_group_name_H-M_alt        'C 1 c 1'
_symmetry_space_group_name_Hall  'C -2yc'
_symmetry_space_group_name_H-M   'C 1 c 1'
_atom_sites_solution_hydrogens   geom
_audit_creation_method           SHELXL-2014/6
_audit_update_record
;
2017-08-14 deposited with the CCDC.
2017-10-06 downloaded from the CCDC.
;
_cell_angle_alpha                90
_cell_angle_beta                 118.63(2)
_cell_angle_gamma                90
_cell_formula_units_Z            4
_cell_length_a                   15.416(2)
_cell_length_b                   20.078(2)
_cell_length_c                   12.162(2)
_cell_measurement_reflns_used    2075
_cell_measurement_temperature    293(2)
_cell_measurement_theta_max      27.51
_cell_measurement_theta_min      2.69
_cell_volume                     3304.1(10)
_computing_cell_refinement
;
CrysAlis RED (Oxford Diffraction Ltd., 2009)
;
_computing_data_collection
;
CrysAlis CCD (Oxford Diffraction Ltd., 2009)
;
_computing_data_reduction
;
CrysAlis RED (Oxford Diffraction Ltd., 2009)
;
_computing_molecular_graphics    'PLATON (Spek, 2003)'
_computing_publication_material  'SHELXL-2014/6 (Sheldrick, 2014)'
_computing_structure_refinement  'SHELXL-2014/6 (Sheldrick, 2014)'
_computing_structure_solution    'SHELXL-2014 (Sheldrick, 2014)'
_diffrn_ambient_temperature      293(2)
_diffrn_measured_fraction_theta_full 0.990
_diffrn_measured_fraction_theta_max 0.997
_diffrn_measurement_device_type
;  
Oxford Diffraction Xcalibur (TM) Single Crystal X-ray Diffractometer 
with Sapphire CCD Detector.
;
_diffrn_measurement_method
;
Rotation method data acquisition using omega scans.
;
_diffrn_radiation_type           MoK\a
_diffrn_radiation_wavelength     0.71073
_diffrn_reflns_av_R_equivalents  0.0322
_diffrn_reflns_av_unetI/netI     0.0418
_diffrn_reflns_Laue_measured_fraction_full 0.990
_diffrn_reflns_Laue_measured_fraction_max 0.997
_diffrn_reflns_limit_h_max       18
_diffrn_reflns_limit_h_min       -17
_diffrn_reflns_limit_k_max       24
_diffrn_reflns_limit_k_min       -15
_diffrn_reflns_limit_l_max       14
_diffrn_reflns_limit_l_min       -13
_diffrn_reflns_number            6266
_diffrn_reflns_point_group_measured_fraction_full 0.990
_diffrn_reflns_point_group_measured_fraction_max 0.997
_diffrn_reflns_theta_full        25.242
_diffrn_reflns_theta_max         25.185
_diffrn_reflns_theta_min         2.785
_diffrn_source                   'Enhance (Mo) X-ray Source'
_exptl_absorpt_coefficient_mu    0.062
_exptl_absorpt_correction_T_max  0.990
_exptl_absorpt_correction_T_min  0.979
_exptl_absorpt_correction_type   multi-scan
_exptl_absorpt_process_details
;
CrysAlis RED, Oxford Diffraction Ltd., 2009
Empirical absorption correction using spherical harmonics,
implemented in SCALE3 ABSPACK scaling algorithm.
;
_exptl_crystal_colour            yellow
_exptl_crystal_density_diffrn    1.099
_exptl_crystal_description       prism
_exptl_crystal_F_000             1176
_exptl_crystal_size_max          0.340
_exptl_crystal_size_mid          0.200
_exptl_crystal_size_min          0.160
_refine_diff_density_max         0.134
_refine_diff_density_min         -0.156
_refine_diff_density_rms         0.039
_refine_ls_abs_structure_details
;
 Flack x determined using 521 quotients [(I+)-(I-)]/[(I+)+(I-)]
 (Parsons, Flack and Wagner, Acta Cryst. B69 (2013) 249-259).
;
_refine_ls_abs_structure_Flack   -6.3(10)
_refine_ls_extinction_method     none
_refine_ls_goodness_of_fit_ref   1.085
_refine_ls_hydrogen_treatment    constr
_refine_ls_matrix_type           full
_refine_ls_number_parameters     379
_refine_ls_number_reflns         3703
_refine_ls_number_restraints     2
_refine_ls_restrained_S_all      1.085
_refine_ls_R_factor_all          0.0766
_refine_ls_R_factor_gt           0.0478
_refine_ls_shift/su_max          0.000
_refine_ls_shift/su_mean         0.000
_refine_ls_structure_factor_coef Fsqd
_refine_ls_weighting_details
'w=1/[\s^2^(Fo^2^)+(0.0467P)^2^+0.8436P] where P=(Fo^2^+2Fc^2^)/3'
_refine_ls_weighting_scheme      calc
_refine_ls_wR_factor_gt          0.0957
_refine_ls_wR_factor_ref         0.1092
_reflns_Friedel_coverage         0.246
_reflns_Friedel_fraction_full    0.245
_reflns_Friedel_fraction_max     0.247
_reflns_number_gt                2729
_reflns_number_total             3703
_reflns_threshold_expression     'I > 2\s(I)'
_cod_data_source_file            c7ra09401a2.cif
_cod_data_source_block           1326m
_cod_original_cell_volume        3304.1(9)
_cod_database_code               7229296
_shelx_space_group_comment
;
The symmetry employed for this shelxl refinement is uniquely defined
by the following loop, which should always be used as a source of
symmetry information in preference to the above space-group names.
They are only intended as comments.
;
_shelx_estimated_absorpt_t_min   0.979
_shelx_estimated_absorpt_t_max   0.990
_shelxl_version_number           2014/6
_shelx_res_file
;
TITL 1326 (MAH-351) CC
CELL  0.71073 15.41600 20.07800 12.16200 90.00000 118.63000 90.00000
ZERR 4  0.00200  0.00200  0.00200  0.00000  0.02000  0.00000
LATT -7
SYMM X, -Y, Z+ 0.50000
SFAC C H
UNIT 168 168
PLAN 30
FMAP 2
SHEL 21 0.835
SIZE 0.34 0.20 0.16
L.S. 14
BOND $H
CONF
ACTA
WGHT    0.046700    0.843600
FVAR       1.30898
C1    1    0.260440    0.267450    0.619649    11.00000    0.04176    0.04742 =
         0.04278    0.00153    0.01580   -0.00361
C2    1    0.163619    0.266201    0.628518    11.00000    0.03856    0.06649 =
         0.04314   -0.00282    0.01469   -0.00602
C3    1    0.089390    0.312847    0.586810    11.00000    0.04868    0.08454 =
         0.06636    0.00314    0.02396    0.00494
AFIX  43
H3    2    0.093726    0.351927    0.548679    11.00000   -1.20000
AFIX   0
C4    1    0.008039    0.300164    0.603017    11.00000    0.05202    0.11470 =
         0.08272   -0.00423    0.03175    0.00310
AFIX  43
H4    2   -0.043058    0.331076    0.575326    11.00000   -1.20000
AFIX   0
C5    1    0.001811    0.242412    0.659567    11.00000    0.05122    0.13136 =
         0.07121   -0.01423    0.03418   -0.01487
AFIX  43
H5    2   -0.053692    0.234830    0.669187    11.00000   -1.20000
AFIX   0
C6    1    0.075636    0.195867    0.701978    11.00000    0.05745    0.09348 =
         0.05677   -0.00564    0.03027   -0.01723
AFIX  43
H6    2    0.070922    0.157021    0.740434    11.00000   -1.20000
AFIX   0
C7    1    0.157863    0.207932    0.686306    11.00000    0.04514    0.07256 =
         0.04023   -0.00555    0.01850   -0.01316
C8    1    0.246432    0.167686    0.720264    11.00000    0.05551    0.05432 =
         0.03902   -0.00003    0.01996   -0.01205
C9    1    0.272598    0.105030    0.775784    11.00000    0.06295    0.06762 =
         0.04687    0.00575    0.02205   -0.02061
AFIX  43
H9    2    0.231778    0.082379    0.799843    11.00000   -1.20000
AFIX   0
C10   1    0.360642    0.077315    0.794275    11.00000    0.06488    0.05102 =
         0.03826    0.00436    0.01408   -0.01306
C11   1    0.422047    0.111919    0.759075    11.00000    0.05478    0.04318 =
         0.03823    0.00137    0.01303   -0.00806
C12   1    0.395830    0.174356    0.702961    11.00000    0.04811    0.04926 =
         0.04406    0.00292    0.01823   -0.00943
AFIX  43
H12   2    0.436702    0.197175    0.679201    11.00000   -1.20000
AFIX   0
C13   1    0.307147    0.201426    0.683617    11.00000    0.04379    0.04602 =
         0.04257    0.00090    0.01765   -0.00725
C14   1    0.509295    0.070521    0.789347    11.00000    0.05738    0.04525 =
         0.04298    0.00130    0.00933   -0.00336
C15   1    0.590679    0.082528    0.773494    11.00000    0.05847    0.05344 =
         0.06612    0.00066    0.01118    0.00096
AFIX  43
H15   2    0.598459    0.123265    0.742869    11.00000   -1.20000
AFIX   0
C16   1    0.660341    0.032852    0.804009    11.00000    0.05715    0.07487 =
         0.09346    0.00269    0.01775    0.00825
AFIX  43
H16   2    0.714983    0.039783    0.792245    11.00000   -1.20000
AFIX   0
C17   1    0.649591   -0.026923    0.851759    11.00000    0.08342    0.06724 =
         0.12266    0.02052    0.01953    0.02318
AFIX  43
H17   2    0.697275   -0.059914    0.872570    11.00000   -1.20000
AFIX   0
C18   1    0.568483   -0.038239    0.868972    11.00000    0.09008    0.06060 =
         0.11192    0.02976    0.02140    0.00912
AFIX  43
H18   2    0.561415   -0.078736    0.900951    11.00000   -1.20000
AFIX   0
C19   1    0.498374    0.010670    0.838577    11.00000    0.07350    0.04993 =
         0.05350    0.01006    0.00635    0.00052
C20   1    0.403462    0.009603    0.848024    11.00000    0.08431    0.05592 =
         0.05888    0.01582    0.02276   -0.01046
C21   1    0.334521   -0.046424    0.767898    11.00000    0.10245    0.05656 =
         0.10422    0.00751    0.02642   -0.01888
AFIX  33
H21A  2    0.363107   -0.088741    0.803668    11.00000   -1.50000
H21B  2    0.271645   -0.041989    0.765533    11.00000   -1.50000
H21C  2    0.325659   -0.043614    0.684336    11.00000   -1.50000
AFIX   0
C22   1    0.424492    0.002430    0.985259    11.00000    0.13776    0.10534 =
         0.07163    0.03947    0.03692   -0.00032
AFIX  33
H22A  2    0.451457   -0.040923    1.016076    11.00000   -1.50000
H22B  2    0.471002    0.035886    1.035924    11.00000   -1.50000
H22C  2    0.364070    0.007874    0.988944    11.00000   -1.50000
AFIX   0
C23   1    0.239856    0.264422    0.483467    11.00000    0.03378    0.04606 =
         0.04219    0.00535    0.01188    0.00275
C24   1    0.156366    0.233263    0.391781    11.00000    0.04923    0.06624 =
         0.05543   -0.00465    0.02019   -0.02393
AFIX  43
H24   2    0.111340    0.214891    0.413606    11.00000   -1.20000
AFIX   0
C25   1    0.137585    0.228498    0.269076    11.00000    0.04954    0.06302 =
         0.04471   -0.00862    0.00980   -0.01548
AFIX  43
H25   2    0.081067    0.206231    0.211468    11.00000   -1.20000
AFIX   0
C26   1    0.199723    0.255607    0.229121    11.00000    0.03836    0.04358 =
         0.04948   -0.00058    0.01616    0.00204
C27   1    0.285283    0.284278    0.321862    11.00000    0.04147    0.07783 =
         0.05854   -0.00054    0.02603   -0.00614
AFIX  43
H27   2    0.331525    0.301145    0.300702    11.00000   -1.20000
AFIX   0
C28   1    0.304258    0.288669    0.444799    11.00000    0.03784    0.07254 =
         0.04841   -0.00646    0.01584   -0.01123
AFIX  43
H28   2    0.362607    0.308717    0.503422    11.00000   -1.20000
AFIX   0
C29   1    0.321277    0.328248    0.691382    11.00000    0.03930    0.04900 =
         0.04437    0.00344    0.01669    0.00068
C30   1    0.395083    0.324222    0.813996    11.00000    0.05930    0.04980 =
         0.04257    0.00779    0.01084    0.00199
AFIX  43
H30   2    0.409944    0.283177    0.854364    11.00000   -1.20000
AFIX   0
C31   1    0.447686    0.380215    0.878452    11.00000    0.05517    0.06153 =
         0.04174   -0.00144    0.00659   -0.00444
AFIX  43
H31   2    0.497031    0.375577    0.961097    11.00000   -1.20000
AFIX   0
C32   1    0.429294    0.442271    0.824237    11.00000    0.04831    0.05331 =
         0.04497   -0.00527    0.02383   -0.00157
C33   1    0.352180    0.446442    0.701602    11.00000    0.06489    0.04413 =
         0.05647    0.00708    0.02706    0.00073
AFIX  43
H33   2    0.335349    0.487828    0.662594    11.00000   -1.20000
AFIX   0
C34   1    0.300127    0.390903    0.636469    11.00000    0.05399    0.05322 =
         0.04117    0.00445    0.00955    0.00313
AFIX  43
H34   2    0.249971    0.395557    0.554292    11.00000   -1.20000
AFIX   0
C35   1    0.176208    0.253108    0.091342    11.00000    0.05615    0.05973 =
         0.04639    0.00026    0.02072    0.00896
C36   1    0.064888    0.255835    0.004139    11.00000    0.06156    0.17979 =
         0.04808   -0.00182    0.01232    0.00524
AFIX  33
H36A  2    0.038531    0.295766    0.020146    11.00000   -1.50000
H36B  2    0.051958    0.255706   -0.081326    11.00000   -1.50000
H36C  2    0.034145    0.217747    0.018739    11.00000   -1.50000
AFIX   0
C37   1    0.220178    0.190131    0.068034    11.00000    0.12364    0.08030 =
         0.07992   -0.00582    0.05411    0.02364
AFIX  33
H37A  2    0.290128    0.189281    0.123634    11.00000   -1.50000
H37B  2    0.190144    0.151743    0.082925    11.00000   -1.50000
H37C  2    0.207958    0.189702   -0.017140    11.00000   -1.50000
AFIX   0
C38   1    0.220413    0.312865    0.056649    11.00000    0.09396    0.08675 =
         0.06553    0.02262    0.03321    0.01317
AFIX  33
H38A  2    0.193993    0.353401    0.070408    11.00000   -1.50000
H38B  2    0.290965    0.312704    0.107826    11.00000   -1.50000
H38C  2    0.203922    0.309852   -0.029978    11.00000   -1.50000
AFIX   0
C39   1    0.493310    0.501927    0.895865    11.00000    0.06516    0.06124 =
         0.05791   -0.01433    0.03011   -0.01078
C40   1    0.497804    0.508147    1.022341    11.00000    0.20614    0.11527 =
         0.09002   -0.04893    0.08894   -0.07119
AFIX  33
H40A  2    0.432276    0.514249    1.011076    11.00000   -1.50000
H40B  2    0.526021    0.468386    1.070080    11.00000   -1.50000
H40C  2    0.537968    0.545756    1.066201    11.00000   -1.50000
AFIX   0
C41   1    0.451654    0.566829    0.823530    11.00000    0.11286    0.05484 =
         0.11877   -0.01141    0.04473   -0.02363
AFIX  33
H41A  2    0.448330    0.563661    0.742838    11.00000   -1.50000
H41B  2    0.386598    0.574293    0.813000    11.00000   -1.50000
H41C  2    0.493910    0.603238    0.869388    11.00000   -1.50000
AFIX   0
C42   1    0.595745    0.492211    0.910138    11.00000    0.06826    0.11462 =
         0.13271   -0.04305    0.03807   -0.03173
AFIX  33
H42A  2    0.591132    0.488389    0.828822    11.00000   -1.50000
H42B  2    0.636451    0.529732    0.953375    11.00000   -1.50000
H42C  2    0.624504    0.452362    0.957254    11.00000   -1.50000
AFIX   0
HKLF 4

REM  1326 (MAH-351) CC
REM R1 =  0.0478 for    2729 Fo > 4sig(Fo)  and  0.0766 for all    3703 data
REM    379 parameters refined using      2 restraints

END

WGHT      0.0447      0.9065

REM Highest difference peak  0.134,  deepest hole -0.156,  1-sigma level  0.039
Q1    1   0.3650  0.3421  0.5433  11.00000  0.05    0.13
Q2    1   0.4849  0.1216  0.9018  11.00000  0.05    0.12
Q3    1   0.0899  0.3299  0.0714  11.00000  0.05    0.12
Q4    1   0.3544  0.3577  0.4796  11.00000  0.05    0.12
Q5    1   0.4769 -0.1087  1.1194  11.00000  0.05    0.12
Q6    1   0.4617  0.6298  1.0009  11.00000  0.05    0.12
Q7    1   0.4969 -0.1220  1.0586  11.00000  0.05    0.12
Q8    1  -0.0084  0.3726  0.7142  11.00000  0.05    0.12
Q9    1   0.6640  0.4051  1.0326  11.00000  0.05    0.11
Q10   1   0.0756  0.1213  0.7201  11.00000  0.05    0.11
Q11   1   0.6101  0.6201  0.8971  11.00000  0.05    0.11
Q12   1   0.2171  0.3720  0.1874  11.00000  0.05    0.11
Q13   1   0.4992 -0.1131  0.9000  11.00000  0.05    0.11
Q14   1   0.2025  0.3462  0.4148  11.00000  0.05    0.11
Q15   1   0.5398  0.3616  0.9631  11.00000  0.05    0.11
Q16   1   0.2623  0.3540  0.4459  11.00000  0.05    0.11
Q17   1   0.1414  0.3629  0.1324  11.00000  0.05    0.11
Q18   1   0.3191  0.3711 -0.0238  11.00000  0.05    0.11
Q19   1   0.0542  0.1492  0.0360  11.00000  0.05    0.11
Q20   1   0.0396  0.3633 -0.0066  11.00000  0.05    0.11
Q21   1   0.5598  0.6652  0.9274  11.00000  0.05    0.11
Q22   1   0.2066  0.3936  0.5598  11.00000  0.05    0.10
Q23   1   0.1990  0.1292  0.8603  11.00000  0.05    0.10
Q24   1   0.0617  0.3351 -0.0584  11.00000  0.05    0.10
Q25   1   0.0034  0.3073  0.0202  11.00000  0.05    0.10
Q26   1  -0.1124  0.3927  0.5357  11.00000  0.05    0.10
Q27   1   0.1132  0.3588  0.4650  11.00000  0.05    0.10
Q28   1   0.4246 -0.0864  0.9972  11.00000  0.05    0.10
Q29   1   0.2501 -0.1058  0.8177  11.00000  0.05    0.10
Q30   1   0.2074  0.0931  0.8240  11.00000  0.05    0.10
;
_shelx_res_checksum              38679
_shelx_hkl_file
;
   0   0   2 46275.7 389.342   1
   0   0   2 55923.2 469.263   3
   0   0   3 9.91447 12.3664   1
   0   0   3 0.36005 15.1367   3
   0   0   4 5320.49 46.4148   1
   0   0   4 5263.58 53.9356   3
   0   0   5 6.99067 14.2617   1
   0   0   5 8.26348 16.5909   3
   0   0   6 751.955 25.4342   1
   0   0   6 743.425 31.9754   3
   0   0   7 4.15688 16.1580   1
   0   0   7-11.7536 24.6474   3
   0   0   8 213.411 23.7794   1
   0   0   8 289.235 32.2938   3
   0   0   9 108.659 28.0921   3
   0   0   9-12.3677 23.2260   1
   0   0  10 973.757 49.1101   3
   0   0  11 6.62673 31.5353   3
   0   0  12 138.948 37.0694   3
   0   0  13-22.1407 34.1681   3
   0  -1   2 11.0630 10.3099   1
   0   1   2 21.0689 11.0836   1
   0   1   2 23.3068 12.3602   3
   0  -1   2 29.7794 11.0084   3
   0  -1   3-11.1732 17.5934   3
   0  -1   3-15.0069 12.1035   1
   0   1   3-7.14379 11.7994   1
   0   1   3 0.66704 17.0688   3
   0   1   4-2.87098 14.9646   3
   0  -1   4-25.2228 19.4272   3
   0  -1   4-13.2431 14.3151   1
   0   1   4-8.01935 14.4104   1
   0  -1   5-20.7747 15.7309   1
   0  -1   5-4.28324 21.6796   3
   0   1   5-3.96629 17.9097   3
   0   1   5 0.09519 15.0243   1
   0  -1   6 6.76806 23.2503   3
   0  -1   6-20.4604 15.9749   1
   0   1   6-9.68257 14.7035   1
   0   1   6 23.6038 21.7046   3
   0   1   7-2.89659 23.1648   3
   0  -1   7 22.7002 24.0088   3
   0  -1   7-10.5571 18.4971   1
   0   1   7 13.9546 16.8806   1
   0  -1   8 0.15212 20.4087   1
   0   1   8-24.6701 18.2780   1
   0  -1   8-8.30659 27.2024   3
   0   1   8 3.84059 27.4691   3
   0   1   9 12.9635 20.8840   1
   0  -1   9-17.7773 29.7212   3
   0   1   9 11.1379 31.0145   3
   0   1  10 41.8010 32.8147   3
   0  -1  10 6.66917 31.2482   3
   0  -1  11 6.76175 31.7911   3
   0   1  11-15.4181 30.9429   3
   0  -1  12-5.81354 33.1213   3
   0   1  12 21.5450 35.4524   3
   0   1  13 90.9841 43.1602   3
   0  -1  13-81.2409 35.6090   3
   0   2   1 9212.36 34.8758   0
   0  -2   2 112430. 688.584   3
   0   2   2 110750. 637.995   1
   0  -2   3 30153.0 110.909   3
   0   2   3 30006.9 98.3215   1
   0   2   3 29295.9 109.536   3
   0  -2   3 29542.8 94.0293   1
   0  -2   4 11359.4 78.6743   3
   0   2   4 11047.3 78.6668   3
   0  -2   4 11195.1 67.0791   1
   0   2   4 11105.2 68.8044   1
   0   2   5 4147.91 48.5892   1
   0   2   5 4013.50 55.1607   3
   0  -2   5 4057.10 46.9241   1
   0  -2   5 4033.43 55.7902   3
   0   2   6 786.128 27.1798   1
   0   2   6 789.733 32.3308   3
   0  -2   6 823.569 34.1971   3
   0  -2   6 821.377 27.3697   1
   0  -2   7 406.064 24.6906   1
   0   2   7 425.266 29.8937   3
   0  -2   7 423.347 31.2699   3
   0   2   7 432.457 24.8357   1
   0  -2   8 610.357 29.6294   1
   0   2   8 643.047 28.8926   1
   0  -2   8 622.622 38.1796   3
   0   2   8 546.518 35.6702   3
   0   2   9 172.256 23.8856   1
   0   2   9 138.091 33.6558   3
   0  -2   9 236.326 33.4683   3
   0   2  10 214.780 36.4878   3
   0  -2  10 179.114 36.8426   3
   0   2  11 70.2425 35.9266   3
   0  -2  11 20.6039 30.8043   3
   0  -2  12-29.5722 35.5531   3
   0   2  12-26.5402 36.2934   3
   0   2  13 75.7282 37.9888   3
   0  -2  13 221.934 46.1597   3
   0   3   1 15.3738 10.3083   1
   0   3   1 16.4664 9.72642   3
   0   3   1 1.79525 8.61020   0
   0  -3  -1 9.32502 9.10065   0
   0   3   2 6.75447 14.2354   3
   0   3   2 6.27875 11.5554   1
   0  -3   2-2.22841 14.1782   3
   0  -3   3 7.43826 14.0661   3
   0   3   3 13.2229 16.6881   3
   0   3   3-3.13454 15.0760   1
   0  -3   4 13.8892 18.6071   3
   0   3   4 11.3530 18.4311   3
   0  -3   4 2.56382 14.4750   1
   0   3   4 14.9949 13.8987   1
   0   3   4-2.08670 8.42967   4
   0   3   5-16.1394 10.9193   4
   0   3   5 12.4124 17.7581   1
   0  -3   5-13.4892 16.0971   1
   0   3   5-7.69236 20.8957   3
   0  -3   5 24.3792 22.4446   3
   0   3   6 21.5942 20.2758   3
   0  -3   6 0.46357 22.3427   3
   0  -3   6-8.71487 16.8661   1
   0   3   6 5.17256 15.7793   1
   0   3   7-12.4974 25.1039   3
   0  -3   7 15.6558 18.1201   1
   0   3   7-0.38334 17.5727   1
   0  -3   7 13.8712 25.7789   3
   0   3   8 17.9620 28.0502   3
   0   3   8 27.0696 20.1256   1
   0  -3   8-13.5881 19.8771   1
   0  -3   8 30.0608 28.0184   3
   0   3   9-12.9316 22.3947   1
   0  -3   9-27.5580 30.0890   3
   0   3   9-32.3710 29.6631   3
   0   3  10-23.4779 29.4442   3
   0  -3  10-7.99061 32.6375   3
   0  -3  11-17.2558 30.9322   3
   0   3  11 17.9085 35.8581   3
   0  -3  12 33.9318 36.7740   3
   0   3  12-32.1541 31.6541   3
   0  -3  13 24.6947 39.9965   3
   0   3  13-9.84428 42.2446   3
   0   4   0 48446.7 414.439   3
   0   4   0 92948.8 561.506   1
   0   4   1 298.520 14.7345   1
   0  -4  -1 300.040 11.6702   0
   0   4   1 303.395 13.0420   3
   0   4   2 11284.7 54.5946   0
   0   4   2 11041.1 60.0709   3
   0   4   2 11162.2 62.4949   1
   0   4   3 11989.8 69.7888   1
   0   4   3 11651.0 72.2427   3
   0  -4   3 12062.1 73.5632   3
   0   4   4 2573.18 41.7380   3
   0   4   4 2559.20 38.3829   1
   0   4   4 2501.87 23.2427   4
   0  -4   4 2674.10 41.7016   3
   0   4   5 14793.8 61.0708   4
   0  -4   5 14761.9 102.479   3
   0   4   5 15235.5 94.7711   1
   0   4   5 15128.0 104.795   3
   0   4   6 1579.92 24.3027   4
   0   4   6 1613.96 37.3517   1
   0   4   6 1611.06 43.0953   3
   0  -4   6 1622.35 41.9532   3
   0  -4   7 3682.37 63.9275   3
   0  -4   7 3752.65 54.3245   1
   0   4   7 3921.59 58.1302   1
   0   4   7 3722.90 65.6847   3
   0  -4   8 500.373 37.1017   3
   0   4   8 491.619 28.5141   1
   0   4   8 456.816 35.9249   3
   0  -4   8 563.472 29.2068   1
   0   4   9 367.097 37.2332   3
   0   4   9 398.716 29.8246   1
   0  -4   9 379.498 36.2193   3
   0  -4  10 186.802 34.0174   3
   0   4  10 163.820 34.1733   3
   0   4  11 7.54215 31.3796   3
   0  -4  11 45.8726 34.9314   3
   0   4  12 188.689 40.9234   3
   0  -4  12 78.0436 36.7389   3
   0  -4  13-43.2418 40.8845   3
   0   4  13-30.8764 34.5740   3
   0   5   0-4.86977 10.8405   1
   0   5   0 6.87166 11.4617   3
   0   5   1 23.4130 15.4986   1
   0  -5  -1 4.11782 9.57381   0
   0   5   1-2.80087 10.9244   3
   0   5   2-2.03721 10.7770   0
   0   5   2-2.24101 15.1308   1
   0   5   2-3.80900 13.5513   3
   0   5   3 1.88888 12.0153   0
   0   5   3 1.98491 15.7216   1
   0   5   3-0.34074 12.9443   3
   0   5   4-2.73738 16.5202   1
   0   5   4 0.21513 15.5930   3
   0  -5   4 10.7524 17.4364   3
   0   5   5 7.26881 20.0049   3
   0  -5   5 15.7101 20.9275   3
   0   5   5-4.24162 18.9038   1
   0  -5   6 21.4158 22.7359   3
   0   5   6 2.93047 23.2087   3
   0   5   6-5.01041 19.2174   1
   0   5   7 26.9552 25.8907   3
   0  -5   7 19.3087 26.3569   3
   0   5   7 32.3088 20.7474   1
   0   5   8 11.9577 22.5469   1
   0  -5   8 53.4371 29.0992   3
   0   5   8-19.1568 26.5136   3
   0   5   9 9.42049 31.5417   3
   0  -5   9-9.61370 27.8350   3
   0   5   9-27.2897 21.2086   1
   0  -5  10-6.44676 31.2499   3
   0   5  10-20.4833 32.0348   3
   0   5  11-52.8310 36.3235   3
   0  -5  11-41.6924 36.5775   3
   0   5  12 22.5098 34.5753   3
   0  -5  12-51.8162 32.0127   3
   0  -5  13 76.6615 44.3276   3
   0   5  13-29.4008 37.4715   3
   0   6   0 341.517 16.8928   1
   0   6   0 424.748 15.7337   3
   0   6   1 1321.16 22.3044   3
   0   6   1 1303.87 26.6900   1
   0  -6  -1 1310.07 20.4530   0
   0   6   2 6776.87 56.9012   1
   0  -6  -2 6776.27 46.1252   0
   0   6   2 6819.68 51.5057   3
   0   6   2 6835.48 46.1088   0
   0   6   3 1818.51 33.9625   1
   0   6   3 1782.46 28.8377   0
   0   6   3 1780.28 32.5051   3
   0   6   4 1622.06 31.4968   0
   0   6   4 1608.56 34.7596   1
   0   6   4 1602.97 34.6559   3
   0   6   5 1343.48 34.9174   1
   0   6   5 1316.16 36.1758   3
   0   6   6 7991.26 80.4525   1
   0  -6   6 7708.44 83.6635   3
   0   6   6 7849.51 85.7079   3
   0  -6   7 2743.98 57.9313   3
   0   6   7 2755.41 52.5237   1
   0   6   7 2794.91 59.2405   3
   0  -6   8 2332.02 59.3785   3
   0   6   8 2218.79 58.9050   3
   0   6   8 2248.17 50.5090   1
   0   6   9 103.057 23.8258   1
   0  -6   9 61.3287 32.6220   3
   0   6   9 58.3734 30.3478   3
   0   6  10 78.1591 30.1728   3
   0  -6  10 57.7838 31.7850   3
   0   6  10 77.3776 24.4495   1
   0  -6  11 49.1196 30.3062   3
   0   6  11 15.9787 29.7475   3
   0   6  12 11.9225 33.0927   3
   0   6  13 158.991 46.8549   3
   0   7   0-6.35681 11.1626   3
   0   7   0-6.20459 14.4170   1
   0   7   1 17.3629 12.0099   3
   0   7   1 0.26281 17.1243   1
   0  -7  -1 1.50203 10.2497   0
   0   7   2 12.7832 16.0145   1
   0  -7  -2-0.74844 10.5997   0
   0   7   2 5.92579 12.4118   3
   0   7   3-4.89345 16.5237   1
   0   7   3-4.01827 15.4557   3
   0   7   3-8.84451 12.4186   0
   0   7   4 7.75951 15.1179   0
   0   7   4-12.8780 18.8785   1
   0   7   4-0.50810 15.9152   3
   0   7   5 7.28080 18.5271   3
   0   7   5 0.00000 19.5364   1
   0   7   5-5.55231 16.3737   0
   0   7   6 13.2426 19.8013   1
   0   7   6-5.12615 21.5073   3
   0   7   7 4.31097 22.6700   1
   0   7   7-13.1254 26.8015   3
   0   7   8 28.4324 25.0981   1
   0   7   8 80.3247 31.9871   3
   0   7   9-8.60516 22.1545   1
   0   7   9-20.6396 28.0352   3
   0   7  10 21.3751 35.1646   3
   0   7  10-29.0036 23.8978   1
   0   7  11-30.5618 33.4837   3
   0   7  12-40.7608 39.6935   3
   0   8   0 446.228 21.4040   1
   0   8   0 433.439 17.3054   3
   0   8   1 6307.46 59.5831   1
   0   8   1 6448.85 50.8848   3
   0  -8  -1 6278.56 45.0569   0
   0  -8  -2 11687.1 65.0946   0
   0   8   2 11915.5 84.0520   1
   0   8   2 11736.8 72.7723   3
   0   8   3 3204.80 47.8269   1
   0   8   3 3181.17 38.8130   0
   0   8   3 3325.09 44.4444   3
   0   8   4 2423.01 38.0143   0
   0   8   4 2374.26 43.8514   1
   0   8   4 2342.27 42.2888   3
   0   8   5 542.205 23.9002   0
   0   8   5 526.094 27.9533   1
   0   8   5 469.252 26.4505   3
   0   8   6 153.289 23.0408   3
   0   8   6 154.911 20.3366   0
   0   8   6 182.830 23.6844   1
   0   8   7 1739.69 50.0109   3
   0   8   7 1633.79 45.7655   1
   0   8   8 5477.40 87.8901   3
   0   8   8 5650.99 80.8947   1
   0   8   9 327.363 37.4655   3
   0   8   9 284.524 29.0318   1
   0   8  10 229.759 36.2761   3
   0   8  10 312.635 30.4133   1
   0   8  11 178.860 40.0052   3
   0   8  12 41.7893 41.2447   3
   0   9   0 10.9212 17.6472   1
   0   9   0 8.38871 12.6393   3
   0  -9  -1 3.70363 11.0387   0
   0   9   1-7.52800 12.7685   3
   0   9   1-5.06368 16.7087   1
   0  -9  -2-7.92539 10.9239   0
   0   9   2-0.81181 12.9042   3
   0   9   2 4.29796 20.0312   1
   0   9   3-14.5694 12.7553   0
   0   9   3 0.46984 19.6746   1
   0   9   3 8.39007 15.3198   3
   0   9   4 1.29280 16.2059   3
   0   9   4 13.5168 19.3711   1
   0   9   4 18.1446 15.0671   0
   0   9   5 19.8059 14.2552   0
   0   9   5 8.58951 21.1934   1
   0   9   5 2.01695 19.0649   3
   0   9   6 29.1949 23.1497   3
   0   9   6-11.4586 20.4868   1
   0   9   7 13.8658 26.5866   3
   0   9   7-9.49713 23.8748   1
   0   9   8-16.4598 29.7843   3
   0   9   8 38.4949 25.5958   1
   0   9   9 32.1698 33.0111   3
   0   9   9 2.10059 25.1443   1
   0   9  10-10.0235 25.1680   1
   0   9  10-33.4386 28.0940   3
   0   9  11 49.0122 31.6296   3
   0   9  12-33.5574 38.7178   3
   0  10   0 2226.95 34.4231   3
   0  10   0 2151.03 41.4856   1
   0  10   1 1523.18 29.8664   3
   0 -10  -1 1641.52 27.1635   0
   0  10   1 1575.33 37.2496   1
   0  10   2 637.039 28.0037   1
   0 -10  -2 628.362 19.7912   0
   0  10   2 611.205 22.0901   3
   0  10   3 182.818 18.4131   3
   0  10   3 160.367 23.1134   1
   0  10   4 172.650 19.7359   3
   0  10   4 161.945 24.3641   1
   0  10   4 141.179 17.1626   0
   0  10   5 154.007 21.3897   3
   0  10   5 121.920 21.9226   1
   0  10   5 125.137 16.3442   0
   0  10   6 41.4039 21.0554   3
   0  10   6 37.3426 20.9301   1
   0  10   7 1630.11 49.9375   3
   0  10   7 1796.33 51.0595   1
   0  10   8 439.397 33.4009   1
   0  10   8 407.856 35.5201   3
   0  10   9 62.7742 25.1812   1
   0  10   9 123.098 32.8626   3
   0  10  10 169.316 29.4074   1
   0  10  10 104.737 32.7533   3
   0  10  11 281.587 39.4986   3
   0  10  12 0.90907 35.8527   3
   0  11   0-6.76472 13.5138   3
   0  11   0-10.2137 19.6799   1
   0  11   1-9.27004 20.3625   1
   0  11   1-11.8220 13.3798   3
   0 -11  -1-0.95252 11.2631   0
   0  11  -1-9.46768 16.9700   1
   0 -11  -2 2.18726 10.9654   0
   0  11   2-16.3991 14.0113   3
   0  11   2-7.42679 20.2360   1
   0  11   3-9.95160 22.4169   1
   0  11   3-13.7165 15.8387   3
   0  11   4-9.40191 21.2767   1
   0  11   4-5.06350 16.4848   3
   0  11   5-4.62681 19.1563   3
   0  11   5-15.5120 23.3850   1
   0  11   5-37.9052 16.5339   0
   0  11   6-8.40536 24.1059   1
   0  11   6-8.41552 22.3775   3
   0  11   7-21.5572 24.4471   1
   0  11   7-15.3688 26.3730   3
   0  11   8 32.0135 25.9944   3
   0  11   8-20.7212 25.0247   1
   0  11   9 4.69332 28.0524   3
   0  11   9-13.2949 23.8174   1
   0  11  10 16.8489 29.9403   3
   0  11  10 56.4906 26.8308   1
   0  11  11-23.1532 30.4523   3
   0  11  12-24.7999 36.6388   3
   0  12   0 1161.61 28.6998   3
   0  12   0 1187.07 36.9199   1
   0  12  -1 601.012 27.3504   1
   0 -12  -1 670.927 20.9660   0
   0  12   1 659.157 30.9723   1
   0  12   1 668.437 23.9805   3
   0  12  -1 675.383 24.8826   3
   0  12   2-0.11602 14.1422   3
   0 -12  -2 11.4035 12.0738   0
   0  12   2-0.36677 20.9761   1
   0  12   3 714.750 32.7985   1
   0  12   3 683.911 26.5844   3
   0  12   4 298.840 28.5574   1
   0  12   4 292.029 22.9725   3
   0  12   5 171.263 23.4266   3
   0  12   5 209.081 28.2763   1
   0  12   6 22.2612 24.9233   1
   0  12   6-22.7340 23.4329   3
   0  12   7 118.309 28.2548   1
   0  12   7 207.119 30.1129   3
   0  12   8 25.9900 27.8556   1
   0  12   8 89.2366 29.6384   3
   0  12   9 75.4884 30.2971   1
   0  12   9-6.86020 29.4492   3
   0  12  10 155.419 31.1933   3
   0  12  10 138.196 26.9353   1
   0  12  11-26.1590 34.6415   3
   0  12  12 32.2434 31.7461   3
   0  13   0 20.0377 14.5199   3
   0  13   0 13.7212 22.4538   1
   0 -13  -1 1.13423 12.3793   0
   0  13   1 20.7751 14.6069   3
   0  13  -1 10.0663 20.6931   1
   0  13   1 22.3895 23.2330   1
   0  13  -1 16.3740 14.7477   3
   0  13   2-11.3502 22.2198   1
   0 -13  -2 14.5335 13.1263   0
   0  13   2-10.0320 14.4144   3
   0  13   3 7.77961 16.2600   3
   0  13   3-69.8530 21.3665   1
   0  13   4-9.34934 17.9503   3
   0  13   4-18.4327 24.1988   1
   0  13   5 14.3123 26.0489   1
   0  13   5-15.3277 18.9081   3
   0  13   6 25.1156 26.4592   1
   0  13   6-18.7242 23.6713   3
   0  13   7 7.36615 26.5054   3
   0  13   7-25.0134 26.4441   1
   0  13   8 23.2494 24.6273   1
   0  13   8-12.0923 24.1793   3
   0  13   9-38.0643 30.6665   3
   0  13   9 3.00786 25.1787   1
   0  13  10 40.2537 30.8059   3
   0  13  11-112.597 31.0476   3
   0  14   0 538.246 23.3299   3
   0  14   0 552.990 32.3426   1
   0  14  -1 489.985 23.7011   3
   0  14   1 491.222 31.4919   1
   0  14  -1 505.373 30.4521   1
   0  14   1 496.932 23.4262   3
   0  14   2 1778.20 48.7836   1
   0  14   2 1788.47 39.0550   3
   0  14   3 336.447 30.1451   1
   0  14   3 294.946 21.9903   3
   0  14   4 31.5775 26.2989   1
   0  14   4 4.22780 19.1197   3
   0  14   5 393.454 34.6459   1
   0  14   5 334.026 26.6406   3
   0  14   6 435.879 33.5413   1
   0  14   6 382.029 30.8936   3
   0  14   7 515.241 36.2856   1
   0  14   7 512.265 33.9595   3
   0  14   8 193.552 31.7356   3
   0  14   8 270.178 31.9268   1
   0  14   9-2.56967 29.6544   3
   0  14   9-42.6571 30.2077   1
   0  14  10 89.4440 33.9657   3
   0  14  10-109.379 27.6285   1
   0  14  11 70.1219 30.0132   1
   0  15   0 46.1312 25.2662   1
   0  15   0 0.56373 14.9671   3
   0  15   1 52.9451 16.4141   3
   0  15   1 28.9114 25.2900   1
   0  15  -1 22.0841 25.8214   1
   0  15  -1 36.5845 17.1959   3
   0  15  -2-14.6783 20.3951   1
   0  15  -2-13.5071 17.6245   3
   0  15   2-4.07741 26.0817   1
   0  15   2-13.2353 16.9874   3
   0  15   3-26.3959 26.2858   1
   0  15   3 0.52576 16.8786   3
   0  15   4 0.51541 25.9938   1
   0  15   4-0.52734 18.7506   3
   0  15   5-33.7647 21.9480   3
   0  15   5 36.7949 28.1255   1
   0  15   6 0.33087 28.6524   1
   0  15   6 10.3657 24.1223   3
   0  15   7 42.4017 26.5106   3
   0  15   7 13.3257 27.0724   1
   0  15   8 12.4925 25.5180   1
   0  15   8-26.7120 25.4277   3
   0  15   9-11.8795 28.7712   3
   0  15  10 57.5565 31.9816   1
   0  15  10 28.6081 27.4687   3
   0  15  11 39.4952 31.0168   1
   0  15  11-79.0149 28.8839   3
   0  16   0 1426.04 47.7411   1
   0  16  -1 2491.42 57.7642   1
   0  16   1 2610.92 59.9913   1
   0  16  -2 81.7536 27.0576   1
   0  16   2 95.5914 27.8863   1
   0  16   3 179.748 21.4394   3
   0  16   3 121.727 28.7385   1
   0  16   4 63.8512 28.3275   1
   0  16   4 53.1564 19.8320   3
   0  16   5 914.834 44.5297   1
   0  16   5 829.357 37.0182   3
   0  16   6 157.576 25.8980   3
   0  16   6 128.442 32.0768   1
   0  16   7 247.456 35.9881   1
   0  16   7 143.685 27.1629   3
   0  16   8 42.9569 28.1726   3
   0  16   8 66.9412 27.8994   1
   0  16   9 227.789 32.5890   3
   0  16   9 7.44217 31.7907   1
   0  16  10 72.0291 32.5745   1
   0  16  10 0.84472 34.2825   3
   0  16  11-60.5873 32.5420   1
   0  16  11-67.7027 27.7945   3
   0  17   0 21.1835 25.5693   1
   0  17  -1 30.9058 29.7276   1
   0  17   1 47.1630 30.6561   1
   0  17   2 15.7304 27.6155   1
   0  17  -2 8.95898 26.7063   1
   0  17  -3-18.1603 24.3769   1
   0  17   3-16.6558 26.9300   1
   0  17   4 12.6380 28.1984   1
   0  17   5 39.5966 31.3394   1
   0  17   6-23.2592 31.1485   1
   0  17   7-17.5465 27.4253   1
   0  17   8-57.8756 33.2444   1
   0  17   9-13.0267 24.5845   1
   0  17  10 147.936 35.9892   1
   0  18   0 483.347 36.6241   1
   0  18   1 127.607 31.4480   1
   0  18  -1 108.123 29.4793   1
   0  18  -2 270.525 32.3212   1
   0  18   2 347.244 35.7229   1
   0  18  -3 243.023 31.4836   1
   0  18   3 199.156 34.7524   1
   0  18   4 50.3513 27.8981   1
   0  18   5 126.322 35.6634   1
   0  18   6-56.3884 26.6692   1
   0  18   7 276.593 37.9483   1
   0  18   8-38.7741 28.6287   1
   0  18   9 76.9181 36.8264   1
   0  19   0 0.51492 30.3647   1
   0  19  -1-18.7045 29.3682   1
   0  19   1-5.40584 28.8240   1
   0  19  -2-14.5763 28.5552   1
   0  19   2 28.2813 33.1601   1
   0  19   3-25.6931 29.8724   1
   0  19  -3 1.33887 23.6805   1
   0  19   4-43.8835 27.8557   1
   0  19  -4 0.48330 24.2707   1
   0  19   5 44.3830 34.4429   1
   0  19   6-19.8534 28.0326   1
   0  19   7 34.4254 31.6461   1
   0  19   8-43.4058 33.2522   1
   0  19   9 37.7997 29.5273   1
   0  20   0 31.9530 31.6928   1
   0  20  -1 191.871 33.7463   1
   0  20   1 207.180 33.1883   1
   0  20  -2 185.807 30.7446   1
   0  20   2 174.244 34.0382   1
   0  20  -3 58.0562 27.6494   1
   0  20   3 62.5892 33.3057   1
   0  20   4 57.0001 34.1246   1
   0  20  -4 89.0827 27.1036   1
   0  20   5 74.0944 36.1344   1
   0  20  -5-0.75932 25.3258   1
   0  20   6 32.9285 27.3187   1
   0  20   7 46.2139 30.0722   1
   0  21   0 18.1351 32.9764   1
   0  21  -1-23.0096 26.5383   1
   0  21   1-16.6905 29.4554   1
   0  21   2-3.96065 27.4279   1
   0  21  -2 21.7872 30.3263   1
   0  21  -3-4.14029 29.1986   1
   0  21   3-14.4504 30.6236   1
   0  21  -4-9.63245 26.4071   1
   0  21   4-12.6417 29.6836   1
   0  21  -5 144.730 27.0883   1
   0  21   5 33.5805 29.6355   1
   0  21   7 80.0940 30.4161   1
   0  22   0 22.0676 34.7352   1
   0  22  -1 110.374 34.0064   1
   0  22   1 96.5258 31.3729   1
   0  22   2 24.3883 33.9133   1
   0  22  -2 29.9396 29.3367   1
   0  22  -3 42.9452 30.9220   1
   0  22   3 39.1958 36.0091   1
   0  22   4 14.3450 33.8191   1
   0  22  -4-39.6849 29.8385   1
   0  22   5 163.500 39.7731   1
   0  23   0-32.0403 32.1831   1
   0  23   1 44.0986 29.7586   1
   0  23  -1 42.4700 34.5929   1
   0  23   2-12.1634 36.7014   1
   0  23  -2-11.7878 34.1774   1
   0  23  -3 40.9509 29.5300   1
   0  23   3 20.5349 31.5375   1
   0  23   4-33.1157 33.7575   1
   0  23  -4 87.2756 35.1597   1
   0  23   5 61.4032 38.1219   1
   0  24   0-5.62027 29.6967   1
   0  24  -1 103.855 33.1992   1
   0  24   1 151.413 34.6470   1
   0  24   2 17.8583 37.9086   1
   0  24  -2 103.502 34.6247   1
   0  24  -3 183.730 38.9309   1
   0  24   3 259.805 41.1471   1
   0  24  -4 117.646 33.9712   1
   0  25   0 16.9183 28.7272   1
   0  25  -1-39.5175 31.2305   1
   0  25   1 21.0344 33.5533   1
   0  25  -2 127.915 37.0901   1
   0  25  -3-78.7882 28.1797   1
   0  25  -4-8.16686 26.5866   1
  -1   0  13-34.8926 40.0289   3
  -1   0  12-22.6702 34.1608   3
  -1   0  11 23.0391 32.5171   3
  -1   0  10 37.3614 30.8672   3
  -1   0  10 0.82169 23.0977   1
  -1   0   9-21.4267 22.4241   1
  -1   0   9-22.4171 27.7792   3
  -1   0   8-18.2137 19.8060   1
  -1   0   8-5.21599 26.0078   3
  -1   0   7 2.93097 17.1969   1
  -1   0   7-2.84988 24.2190   3
  -1   0   6-18.1641 17.4926   1
  -1   0   6-0.66888 23.1732   3
  -1   0   5 2.80686 17.7354   1
  -1   0   5 9.17049 20.6399   3
  -1   0   4 7.60998 15.3235   1
  -1   0   4 12.2945 17.5689   3
  -1   0   3 52.2408 20.5705   3
  -1   0   3-10.8331 16.9544   1
  -1   0   2 6.85845 12.4255   1
  -1   0   2 4.86554 12.1899   3
   1   0   2 6.11427 15.1804   3
   1   0   3 7.39825 10.3866   1
   1   0   3-7.56282 16.1015   3
   1   0   4 8.62918 17.8784   3
   1   0   4-7.21438 11.1260   1
   1   0   5 0.66711 19.6006   3
   1   0   5 27.1377 13.2656   1
   1   0   6-22.0989 12.6720   1
   1   0   6 3.59423 22.1913   3
   1   0   7 7.27326 16.2858   1
   1   0   7-1.40552 22.3039   3
   1   0   8-13.2622 27.5000   3
   1   0   9 17.8398 30.5146   3
   1   0  10 10.5201 30.9106   3
   1   0  11-20.3483 36.0930   3
   1   0  12 24.3903 41.2160   3
  -1  -1  13 262.915 46.4116   3
  -1   1  13 188.614 37.5097   3
  -1   1  12 112.561 35.3653   3
  -1  -1  12 83.5633 37.8092   3
  -1   1  11 225.030 33.7176   3
  -1  -1  11 204.015 35.8400   3
  -1   1  10 98.4401 24.3123   1
  -1  -1  10 211.867 36.7797   3
  -1   1  10 145.837 31.2795   3
  -1   1   9 63.5991 28.0262   3
  -1   1   9 92.4631 23.3075   1
  -1  -1   9 92.2872 24.5107   1
  -1  -1   9 87.1898 29.8814   3
  -1   1   8-8.26410 18.7458   1
  -1  -1   8 19.1750 26.8524   3
  -1   1   8 29.8442 27.0916   3
  -1  -1   8-1.62088 19.9160   1
  -1   1   7 30.1807 18.5629   1
  -1  -1   7 14.6589 23.4564   3
  -1   1   7-10.6464 24.2198   3
  -1  -1   7 2.94200 19.1777   1
  -1  -1   6 4525.79 62.4067   3
  -1   1   6 4690.86 56.0007   1
  -1   1   6 4602.97 63.5092   3
  -1  -1   6 4585.65 55.8534   1
  -1  -1   5 18927.1 98.5305   1
  -1   1   5 18653.3 99.3855   1
  -1   1   5 18426.6 106.933   3
  -1  -1   5 18473.1 108.199   3
  -1   1   4 22750.3 98.4922   1
  -1  -1   4 21956.3 104.219   3
  -1   1   4 22692.3 104.424   3
   1  -1  -4 22062.4 64.9656   2
  -1  -1   4 22379.1 95.9074   1
  -1  -1   3 65700.6 569.933   1
  -1   1   3 64391.4 586.313   3
  -1  -1   3 62771.8 599.081   3
  -1   1   3 65439.2 567.671   1
  -1   1   2 7220.81 40.1807   3
  -1  -1   2 7159.75 40.8703   1
  -1  -1   2 7123.24 42.1183   3
  -1   1   2 7400.84 41.4468   1
   1   1   1 2386.00 24.4936   3
   1  -1   2 5474.27 42.8927   3
   1   1   2 5586.83 44.1076   3
   1   1   2 5411.46 33.6200   1
   1   1   3 1936.35 33.8278   3
   1   1   3 1907.96 25.2920   1
   1  -1   3 1935.87 32.1845   3
   1  -1   3 1856.70 24.3097   1
   1   1   4 495.662 18.0146   1
   1  -1   4 508.200 24.0862   3
   1   1   4 430.723 23.1218   3
   1  -1   4 440.325 17.3035   1
   1  -1   5 3323.45 41.0106   1
   1   1   5 3480.29 53.5459   3
   1   1   5 3409.78 42.5867   1
   1  -1   5 3426.32 52.3292   3
   1  -1   6 140.777 23.8075   3
   1  -1   6 115.789 16.9182   1
   1   1   6 127.567 15.5007   1
   1   1   6 124.758 23.3265   3
   1  -1   7 377.531 31.1716   3
   1  -1   7 361.196 22.4939   1
   1   1   7 423.320 31.5032   3
   1   1   7 468.233 23.2460   1
   1   1   8 297.438 22.4078   1
   1   1   8 322.149 32.2213   3
   1  -1   8 351.808 33.8884   3
   1   1   9 267.634 37.7981   3
   1  -1   9 331.531 35.8255   3
   1  -1  10 346.575 39.4810   3
   1   1  10 441.085 40.8077   3
   1   1  11 219.224 40.1228   3
   1  -1  11 377.038 43.2105   3
   1   1  12 23.4849 34.8985   3
   1  -1  12 83.7162 42.5112   3
  -1  -2  13 12.6645 33.9469   3
  -1   2  13 68.7381 42.4955   3
  -1  -2  12 110.315 40.5175   3
  -1   2  12 2.44091 33.7595   3
  -1  -2  11-6.08883 30.6481   3
  -1   2  11-6.77242 29.1922   3
  -1   2  10 5.29888 28.7652   3
  -1   2  10 11.2824 23.5078   1
  -1  -2  10-24.0861 28.9370   3
  -1  -2   9 23.6338 29.2394   3
  -1   2   9-0.68224 21.3724   1
  -1  -2   9-3.87833 21.9148   1
  -1   2   9 27.9199 27.9014   3
  -1   2   8 3.37019 19.8633   1
  -1  -2   8-23.0468 20.9438   1
  -1  -2   8-6.88938 27.2225   3
  -1   2   8-16.5708 26.1859   3
  -1  -2   7-2.59283 19.0576   1
  -1   2   7-15.1606 23.5370   3
  -1   2   7 5.81297 16.9945   1
  -1  -2   7 32.0335 23.7679   3
  -1   2   6-11.0701 19.0885   1
  -1  -2   6-5.33939 19.2339   1
  -1   2   6 6.84029 21.8709   3
  -1  -2   6 11.3399 21.7381   3
  -1  -2   5 19.2439 22.6365   3
  -1  -2   5-9.86406 18.4807   1
  -1   2   5 10.2514 17.0344   1
  -1   2   5 3.44066 16.9191   3
   1  -2  -5-52.8824 8.80547   2
  -1   2   4 3.32035 16.2331   1
  -1  -2   4-15.7941 17.7642   3
   1  -2  -4-7.25674 8.36177   2
  -1   2   4-1.70654 16.6799   3
  -1  -2   4-8.49675 15.1828   1
  -1  -2   3-2.96736 14.6703   1
  -1  -2   3 13.8961 18.0439   3
  -1   2   3-4.22287 15.7007   1
  -1   2   3 23.5308 15.9083   3
  -1   2   2 0.76033 10.5979   3
  -1   2   2-3.22404 11.7021   0
  -1   2   2 6.51492 12.4047   1
   1  -2  -1-1.38981 8.23488   0
   1   2   1 7.04635 12.3768   3
   1  -2   2-6.95282 13.9090   3
   1   2   2 5.02156 10.6540   1
   1   2   2-1.99204 10.7668   4
   1   2   2-0.27334 15.0447   3
   1  -2   3-3.62353 14.1169   3
   1   2   3-4.75983 11.6320   1
   1   2   3 6.86364 17.3956   3
   1  -2   3 7.58444 11.1025   1
   1  -2   4 3.14338 11.9241   1
   1   2   4-13.0616 12.5003   1
   1   2   4 4.41345 19.2852   3
   1  -2   4-24.5824 18.1567   3
   1   2   5-7.15771 19.7958   3
   1  -2   5-1.11689 19.9483   3
   1  -2   5-8.15875 14.3105   1
   1   2   5-11.4200 14.2226   1
   1  -2   6 3.95225 23.4134   3
   1   2   6-17.3617 14.4352   1
   1   2   6 15.0599 21.9547   3
   1  -2   6-10.5867 15.5109   1
   1  -2   7 12.1044 24.0320   3
   1   2   7-22.9644 24.5524   3
   1   2   7 0.94447 15.4379   1
   1  -2   7-29.4543 16.6867   1
   1   2   8 22.8725 17.6904   1
   1  -2   8-12.3072 28.3848   3
   1   2   8 40.3058 29.0343   3
   1   2   9-33.0079 30.5336   3
   1  -2   9-39.3063 31.3899   3
   1   2  10 6.98937 31.9110   3
   1  -2  10 47.6833 35.8463   3
   1   2  11 107.190 35.6025   3
   1  -2  11 25.7782 36.8872   3
   1   2  12-15.2934 36.4911   3
   1  -2  12-25.5919 38.0191   3
  -1  -3  13-21.2722 33.7611   3
  -1   3  13 98.1175 35.9766   3
  -1   3  12-19.3213 33.8841   3
  -1  -3  12 15.3862 37.7707   3
  -1   3  11 30.8372 33.0581   3
  -1  -3  11 119.481 33.3886   3
  -1   3  10 407.131 36.8048   3
  -1  -3  10 364.774 36.0821   3
  -1   3  10 383.001 30.8559   1
  -1   3   9 291.654 33.8400   3
  -1  -3   9 291.048 34.3941   3
  -1  -3   9 309.763 28.0780   1
  -1   3   9 273.908 26.2882   1
  -1   3   8 72.4713 22.4076   1
  -1  -3   8 72.3842 21.9771   1
  -1   3   8 13.2340 25.6031   3
  -1  -3   8 13.1223 28.1281   3
  -1  -3   7 519.942 26.9726   1
  -1   3   7 576.426 33.3329   3
  -1   3   7 519.044 27.2037   1
  -1  -3   7 530.330 33.0124   3
  -1   3   6 8969.79 85.1747   3
  -1  -3   6 9255.01 77.8576   1
  -1  -3   6 8953.49 85.7071   3
  -1   3   6 9140.74 79.8321   1
  -1   3   5 7621.31 66.5031   1
  -1   3   5 7606.82 71.0664   3
   1  -3  -5 7538.49 40.2743   2
  -1  -3   5 7855.84 72.7559   3
  -1  -3   5 7764.15 66.0362   1
  -1   3   4 1776.78 32.0495   1
  -1  -3   4 1768.11 31.4852   1
  -1  -3   4 1808.62 35.4019   3
  -1   3   4 1757.38 33.2411   3
  -1   3   3 6338.49 49.7398   1
  -1   3   3 6199.52 49.0868   3
  -1   3   2 2920.01 31.7364   1
  -1   3   2 2976.03 27.9056   3
  -1   3   2 2919.38 29.3334   0
   1  -3  -2 2943.28 29.5334   0
  -1   3   1 8981.20 44.4522   1
   1   3   0 2093.18 22.3020   3
   1   3   1 30833.6 85.3585   1
   1   3   1 31265.3 88.5508   3
   1   3   2 49075.9 133.073   3
   1  -3   2 49298.6 122.934   3
   1   3   2 49418.6 118.861   1
   1   3   3 6889.92 42.9398   4
   1  -3   3 7259.44 57.6382   3
   1   3   3 7231.49 60.5638   3
   1   3   3 7198.79 51.8794   1
   1  -3   4 1989.66 29.4880   1
   1  -3   4 2073.72 38.6159   3
   1   3   4 2027.74 32.4380   1
   1   3   4 2019.66 27.6988   4
   1   3   4 2049.00 40.1267   3
   1  -3   5-12.2835 22.0596   3
   1   3   5 9.51453 14.5301   1
   1  -3   5 18.1044 14.9237   1
   1   3   5 5.93296 12.4480   4
   1   3   5 20.9569 20.4615   3
   1   3   6 112.870 15.1768   4
   1   3   6 127.815 24.0987   3
   1   3   6 122.782 16.3736   1
   1  -3   6 107.693 17.1224   1
   1  -3   6 118.539 24.2686   3
   1  -3   7 424.045 33.2714   3
   1   3   7 447.148 24.0691   1
   1   3   7 472.556 32.5075   3
   1  -3   7 429.748 24.0296   1
   1   3   8 255.867 23.1205   1
   1  -3   8 220.223 32.7870   3
   1   3   8 290.891 33.0357   3
   1   3   9-4.96596 29.4419   3
   1  -3   9 55.4290 31.6887   3
   1  -3  10-6.46167 32.1822   3
   1   3  10 17.9447 32.8366   3
   1   3  11 21.6704 30.9535   3
   1  -3  11-19.2077 35.1945   3
   1   3  12 96.0057 38.6951   3
   1  -3  12 50.9389 36.1713   3
  -1  -4  13-32.0864 38.3849   3
  -1   4  13-11.7105 40.1304   3
  -1   4  12-11.5393 32.2397   3
  -1  -4  12-51.7788 37.9850   3
  -1   4  11 18.4869 35.7615   3
  -1  -4  11-37.5714 35.6588   3
  -1   4  10-4.10776 28.7084   3
  -1  -4  10 8.31594 32.8376   3
  -1  -4   9 9.10580 28.7563   3
  -1   4   9 21.8115 23.0771   1
  -1  -4   9 39.1895 23.8728   1
  -1   4   9-25.0396 30.0572   3
  -1  -4   8 27.4733 27.9682   3
  -1   4   8-12.5923 25.3544   3
  -1   4   8-21.8264 20.7504   1
  -1  -4   8 26.0764 21.0959   1
  -1  -4   7 19.1488 23.6807   3
  -1   4   7 2.20256 17.9315   1
  -1  -4   7 18.1370 19.2727   1
  -1   4   7-3.12089 22.0220   3
  -1   4   6 29.9035 18.4189   1
  -1   4   6-1.74041 19.7941   3
  -1  -4   6 12.5648 22.8336   3
  -1  -4   6 5.01322 18.3236   1
  -1  -4   5-11.1032 19.8574   3
  -1   4   5 0.03683 17.8786   1
  -1   4   5 4.69261 19.1431   3
  -1   4   4 16.0537 15.9752   3
  -1   4   4 1.42479 16.3365   1
  -1   4   3 15.5786 16.2644   1
  -1   4   3 11.6002 14.5683   3
  -1   4   3 13.4452 13.3318   0
   1  -4  -2 2.18787 11.2176   0
  -1   4   2-2.66594 10.5934   3
  -1   4   2 6.86803 15.5358   1
  -1   4   2 6.00031 12.5959   0
  -1   4   1 2.66787 12.4541   1
  -1   4   0 2.45759 11.6692   1
   1   4   0 10.7449 11.7759   3
   1   4   1 15.8481 8.89009   0
   1   4   1-5.46755 14.4123   1
   1   4   1 18.9040 14.6783   3
   1  -4   2 6.76200 13.0831   3
   1   4   2-1.08122 14.9261   3
   1   4   2 12.8044 13.7380   1
   1   4   3-7.18610 13.4946   1
   1   4   3 1.73439 10.6493   4
   1   4   3-13.2120 16.9538   3
   1  -4   3-5.15992 14.5182   3
   1  -4   4 17.9374 18.1977   3
   1   4   4-0.57194 11.3889   4
   1   4   4-7.97300 16.6913   3
   1   4   4 5.13984 14.9542   1
   1   4   5-6.72810 20.4226   3
   1   4   5-8.88733 12.5408   4
   1  -4   5 16.1836 19.9137   3
   1   4   5-0.17834 15.7757   1
   1  -4   6 3.33565 21.7902   3
   1   4   6-7.87795 12.3903   4
   1   4   6 9.99885 24.4086   3
   1   4   6 12.5051 16.8519   1
   1   4   7-18.1446 17.3356   1
   1   4   7 47.2705 27.1163   3
   1  -4   7 10.5662 26.9194   3
   1   4   8-17.2491 25.5692   3
   1  -4   8 7.32112 29.1314   3
   1   4   8-36.6738 19.3662   1
   1  -4   9-10.9701 28.6415   3
   1   4   9 15.4289 29.9703   3
   1  -4  10-30.2294 31.0350   3
   1   4  10-55.5324 31.3166   3
   1   4  11-14.3502 36.4185   3
   1  -4  11 45.8329 34.4122   3
   1   4  12 28.6119 37.4476   3
   1  -4  12 50.8327 38.5969   3
  -1   5  13 38.2112 34.8790   3
  -1   5  12 27.9184 37.4238   3
  -1  -5  12 76.5924 40.0529   3
  -1   5  11 46.7517 31.2378   3
  -1  -5  11 44.2063 33.2924   3
  -1   5  10 46.8648 31.5740   3
  -1   5  10 64.6399 25.4420   1
  -1  -5  10 33.3496 30.4545   3
  -1  -5   9 98.8370 31.7192   3
  -1   5   9 72.3766 31.3823   3
  -1   5   9 103.066 23.1604   1
  -1   5   8 1977.21 47.2722   1
  -1   5   8 1812.04 52.0666   3
  -1  -5   8 1805.02 52.2636   3
  -1   5   7 58.4613 24.3783   3
  -1  -5   7 60.3197 25.7257   3
  -1   5   7 84.0075 20.7957   1
  -1   5   6 576.104 29.0448   3
  -1   5   6 620.191 25.7420   1
  -1  -5   6 611.452 31.3037   3
  -1   5   5 2181.51 41.2305   3
  -1   5   5 2073.73 40.0600   1
  -1   5   4 153.238 18.6597   3
  -1   5   4 160.283 16.3759   0
  -1   5   4 122.704 19.0442   1
  -1   5   3 819.711 21.8073   0
  -1   5   3 822.924 25.2646   1
  -1   5   3 842.457 21.6709   3
  -1   5   2 146.878 14.2267   0
  -1   5   2 144.619 17.0466   1
   1  -5  -2 158.690 13.2232   0
  -1   5   2 152.738 12.4213   3
  -1   5   1 15360.5 71.4917   1
  -1   5   1 15158.9 52.8276   3
  -1   5   0 600.884 18.5901   1
   1   5   0 633.096 17.6855   3
   1   5   1 7501.47 51.9088   3
   1   5   1 7653.31 53.8486   1
   1   5   1 7531.37 36.5917   0
   1   5   2 10563.1 65.5533   1
   1   5   2 10369.9 53.1761   0
   1   5   2 10094.6 66.2089   3
   1  -5   3 10805.4 72.3835   3
   1   5   3 10857.3 77.0934   3
   1   5   3 10891.9 71.2856   1
   1   5   4 16363.3 70.2844   4
   1   5   4 16914.3 105.817   3
   1  -5   4 17129.2 100.548   3
   1   5   4 17148.5 96.1704   1
   1   5   5 5207.38 43.3921   4
   1   5   5 5460.44 60.5574   1
   1  -5   5 5260.88 64.4052   3
   1   5   5 5220.74 67.0392   3
   1  -5   6 5051.15 69.4588   3
   1   5   6 5113.67 62.4741   1
   1   5   6 5000.00 72.8052   3
   1   5   7 269.858 30.9148   3
   1   5   7 278.529 22.9679   1
   1  -5   7 240.613 27.7594   3
   1   5   8 1588.53 53.1638   3
   1   5   8 1694.09 43.8303   1
   1  -5   8 1630.96 52.1900   3
   1   5   9 128.383 31.4619   3
   1  -5   9 156.913 32.6910   3
   1   5  10 139.384 32.7981   3
   1  -5  10 205.405 38.6022   3
   1  -5  11 60.2667 32.8714   3
   1   5  11 31.8144 31.0453   3
   1   5  12 60.0765 37.5824   3
   1  -5  12-30.6977 37.1854   3
  -1   6  13 41.4622 31.2074   3
  -1   6  12 67.4171 38.0471   3
  -1   6  11-37.2227 34.2968   3
  -1   6  11-3.03659 24.4152   1
  -1   6  10-8.24526 22.2827   1
  -1   6  10-38.8944 30.3030   3
  -1   6   9 21.4400 23.4043   1
  -1   6   9-6.90148 27.9990   3
  -1   6   8 12.3796 20.8332   1
  -1   6   8-11.3181 27.2100   3
  -1   6   7 19.8428 23.7642   3
  -1   6   7-17.4923 21.7338   1
  -1   6   6 9.78592 19.3920   1
  -1   6   6-10.2958 21.6929   3
  -1   6   6 46.7223 20.1107   0
  -1   6   5 13.5111 19.1251   1
  -1   6   5-8.28589 18.1415   3
  -1   6   5 10.3223 16.9068   0
  -1   6   4 3.22415 17.8659   1
  -1   6   4-4.63614 14.8606   3
  -1   6   4-8.47353 14.0172   0
  -1   6   3 8.73225 16.8972   1
  -1   6   3-11.9431 13.2161   3
  -1   6   3 2.84320 13.1946   0
  -1   6   2-1.15610 10.6485   3
  -1   6   2 2.85237 15.2531   1
   1  -6  -2-6.20273 11.8190   0
  -1   6   1 9.63241 14.5424   1
  -1   6   1 7.22502 8.99445   3
  -1   6   0-11.4105 14.4896   1
   1   6   0 4.51472 12.1598   3
  -1  -6  -1-0.20790 8.13843   0
   1   6   1-3.26124 13.4237   1
   1   6   1-3.50378 12.9582   3
   1   6   2-0.47673 12.6801   3
   1   6   2 14.0386 14.4104   1
   1   6   2 0.67586 9.46795   0
   1   6   3 5.45532 15.1089   3
   1   6   3-0.32309 16.2272   1
   1   6   4 3.70610 16.7123   1
   1  -6   4 12.5536 17.5728   3
   1   6   4 7.44819 17.5512   3
   1  -6   5 27.3681 20.0782   3
   1   6   5 27.1700 22.0914   3
   1   6   5 2.61434 18.4537   1
   1  -6   6 9.05497 22.8351   3
   1   6   6-1.48689 19.7483   1
   1   6   6 16.5417 22.9791   3
   1   6   7-25.5977 21.0248   1
   1  -6   7 27.0719 26.5817   3
   1   6   7-2.79877 27.8192   3
   1  -6   8 26.3004 29.9487   3
   1   6   8 18.0644 32.0067   3
   1   6   8 18.2714 19.7561   1
   1   6   9 6.12171 26.6538   3
   1  -6   9 15.2334 30.9690   3
   1  -6  10 1.70933 30.8921   3
   1   6  10 52.4583 33.5907   3
   1  -6  11-42.3421 35.2865   3
   1   6  11-36.9025 35.3218   3
   1   6  12-62.6792 40.0593   3
   1  -6  12 0.63673 37.5375   3
  -1   7  13 165.891 43.1816   3
  -1   7  12 228.889 37.5985   3
  -1   7  11 449.897 41.8162   3
  -1   7  11 567.582 38.2731   1
  -1   7  10 828.793 46.6383   3
  -1   7  10 903.871 42.4659   1
  -1   7   9 700.827 41.8386   3
  -1   7   9 717.666 36.7197   1
  -1   7   8 636.683 37.4330   3
  -1   7   8 666.224 35.3259   1
  -1   7   7 324.481 28.7923   3
  -1   7   7 318.912 27.9644   1
  -1   7   6 4505.84 60.7670   0
  -1   7   6 4338.79 63.0959   3
  -1   7   6 4427.67 63.4160   1
  -1   7   5 1114.86 30.4266   0
  -1   7   5 1134.86 34.0910   1
  -1   7   5 1113.44 32.3300   3
  -1   7   4 349.030 20.1822   0
  -1   7   4 383.447 23.3482   1
  -1   7   4 353.304 20.7402   3
  -1   7   3 3340.04 40.4890   3
   1  -7  -3 3342.67 39.8205   0
  -1   7   3 3518.58 47.7123   1
  -1   7   3 3362.67 39.7212   0
   1  -7  -2 453.623 17.0355   0
  -1   7   2 410.272 20.8554   1
  -1   7   2 426.109 16.1946   3
  -1   7   1 5076.54 37.6055   3
  -1   7   1 4988.03 48.7502   1
  -1   7   0 2334.78 26.7109   3
  -1   7   0 2193.67 33.0960   1
   1   7   0 2285.57 31.8060   3
   1   7   1 1905.69 30.5934   3
   1   7   1 1961.83 34.4427   1
  -1  -7  -1 1909.33 22.2338   0
   1   7   2 5440.63 52.7764   3
   1   7   2 5407.77 55.2233   1
   1   7   2 5407.90 41.1800   0
   1   7   3 3412.48 38.7730   0
   1   7   3 3408.46 46.6619   1
   1   7   3 3371.07 47.3380   3
   1   7   4 134.070 20.5303   3
   1   7   4 167.006 17.1253   0
   1   7   4 122.580 18.6990   1
   1   7   5 6883.30 72.0676   1
   1   7   5 7030.00 78.2456   3
   1   7   6 286.498 28.3899   3
   1   7   6 331.873 25.4725   1
   1  -7   6 322.834 27.2939   3
   1   7   7 8121.59 99.3510   3
   1  -7   7 7679.63 93.1346   3
   1   7   7 7777.71 86.2205   1
   1   7   8 2260.88 53.0649   1
   1  -7   8 2289.59 59.6680   3
   1   7   8 2455.24 64.5842   3
   1   7   9 673.967 44.0737   3
   1   7   9 715.728 35.8810   1
   1  -7   9 727.444 42.8603   3
   1  -7  10 232.228 35.5712   3
   1   7  10 194.686 32.7158   3
   1   7  11 46.2806 33.2171   3
   1  -7  11 98.2475 36.8733   3
   1   7  12 15.6802 39.3741   3
  -1   8  13 45.0314 41.4599   3
  -1   8  12-44.6245 31.4425   3
  -1   8  11-42.1107 25.7981   1
  -1   8  11-39.9785 27.6265   3
  -1   8  10 20.8328 24.9778   1
  -1   8  10 21.1313 27.9452   3
  -1   8   9-9.75789 28.5419   3
  -1   8   9 9.60158 23.9748   1
  -1   8   8 17.0415 28.0140   3
  -1   8   8-40.6975 23.4694   1
  -1   8   7-9.47017 23.5332   3
  -1   8   7-7.07104 22.1187   1
  -1   8   6 1.99840 19.8723   3
  -1   8   6 3.79142 20.6991   1
  -1   8   6-33.8586 19.2573   0
  -1   8   5-6.29581 18.1627   3
  -1   8   5 3.60505 19.7413   1
  -1   8   5 24.4888 15.9385   0
  -1   8   4-17.3636 19.1359   1
  -1   8   4 14.3949 15.4886   0
  -1   8   4 27.8025 14.9429   3
   1  -8  -3-1.82608 13.6601   0
  -1   8   3-6.07245 19.4086   1
  -1   8   3-10.5035 14.1505   3
   1  -8  -2 9.53220 12.4739   0
  -1   8   2 11.5196 16.0810   1
  -1   8   2 9.51125 11.7801   3
  -1   8   1 1.28377 15.7768   1
  -1   8   1-3.56236 9.92332   3
  -1   8   0 10.8128 10.4483   3
   1   8   0-2.99923 15.9378   1
   1   8   0-7.64804 13.5990   3
  -1   8   0-9.74723 15.9846   1
   1   8   1 11.6943 13.6237   3
  -1  -8  -1 7.79208 8.94191   0
   1   8   1 6.95438 17.7959   1
   1   8   2 6.95402 14.7763   3
   1   8   2-4.46126 17.5797   1
   1   8   2-8.15590 10.5005   0
   1   8   3 4.54806 19.1558   1
   1   8   3 1.18233 12.4135   0
   1   8   3 6.65570 17.5107   3
   1   8   4-6.30719 17.9474   3
   1   8   4 35.6564 15.1236   0
   1   8   4 11.9558 18.3964   1
   1   8   5 0.52337 14.5643   0
   1   8   5 4.26757 18.9950   1
   1   8   5 19.1420 21.8982   3
   1   8   6 6.13004 22.6430   3
   1   8   6-6.99248 21.6850   1
   1   8   7 31.0177 29.5823   3
   1   8   7 21.1479 24.8505   1
   1   8   8-13.7173 28.4027   3
   1   8   8-27.0558 23.4423   1
   1   8   9 11.4658 24.5532   1
   1   8   9 21.2773 30.9603   3
   1   8  10-20.8826 32.0980   3
   1   8  11 57.8197 31.1071   3
   1   8  12-41.5851 34.8821   3
  -1   9  13 128.719 39.9858   3
  -1   9  12 33.6598 33.2554   3
  -1   9  11 195.963 30.0817   1
  -1   9  11 203.026 34.4610   3
  -1   9  10 478.352 35.5032   1
  -1   9  10 458.534 40.5424   3
  -1   9   9 41.1844 25.2806   1
  -1   9   9-1.35211 29.3294   3
  -1   9   8 2764.91 62.9578   3
  -1   9   8 2722.96 60.4203   1
  -1   9   7 239.116 28.5667   3
  -1   9   7 175.204 25.8590   1
  -1   9   6 193.069 25.1035   1
  -1   9   6 178.860 23.2843   3
  -1   9   5 504.912 28.5606   1
  -1   9   5 466.729 25.1413   3
  -1   9   5 541.929 25.8108   0
  -1   9   4 1446.87 31.9881   0
  -1   9   4 1540.27 38.5737   1
  -1   9   4 1395.02 32.5536   3
   1  -9  -3 6286.36 56.4767   0
  -1   9   3 6474.59 58.1181   3
  -1   9   3 6574.15 68.6450   1
  -1   9   2 1057.55 30.8202   1
  -1   9   2 1146.40 24.0556   3
   1  -9  -2 1102.04 25.3134   0
  -1   9   1 2917.75 33.8290   3
  -1   9   1 2924.28 44.1593   1
  -1   9   0 271.556 20.4659   1
  -1   9   0 298.050 15.0738   3
   1   9   0 273.628 18.0137   3
   1   9   0 266.577 19.6397   1
   1   9   1 1444.90 30.2026   3
  -1  -9  -1 1350.75 21.7940   0
   1   9   1 1399.11 33.8699   1
   1   9   2 5059.89 59.2933   1
   1   9   2 4950.86 54.3005   3
   1   9   3 1912.39 41.1400   1
   1   9   3 1925.69 30.8446   0
   1   9   3 1947.46 39.2492   3
   1   9   4 787.911 31.1587   1
   1   9   4 758.059 29.9766   3
   1   9   4 814.555 24.5802   0
   1   9   5 82.6827 21.6060   3
   1   9   5 91.8782 16.5241   0
   1   9   5 102.810 21.0155   1
   1   9   6 2213.75 53.2159   3
   1   9   6 2180.23 49.6803   1
   1   9   7 600.428 39.6594   3
   1   9   7 658.109 35.1048   1
   1   9   8 143.912 27.3719   1
   1   9   8 64.0148 30.4166   3
   1   9   9 887.317 40.4853   1
   1   9   9 856.406 47.1744   3
   1   9  10 520.562 46.6783   3
   1   9  11 11.3904 29.2240   3
   1   9  12 375.642 43.3246   3
  -1  10  12-19.0723 31.2494   3
  -1  10  11 59.0689 23.7857   1
  -1  10  11-14.4118 31.8146   3
  -1  10  10-31.5753 30.6530   3
  -1  10  10 7.18534 26.7464   1
  -1  10   9-39.1060 24.9665   1
  -1  10   9 25.8957 26.8294   3
  -1  10   8 18.6583 24.6580   1
  -1  10   8-3.07153 26.8698   3
  -1  10   7 10.3753 22.5662   3
  -1  10   7-2.90406 23.6159   1
  -1  10   6-3.09006 20.3279   3
  -1  10   6-10.8831 22.3333   1
  -1  10   5-3.83971 17.4246   3
  -1  10   5-2.56353 20.7903   1
  -1  10   4 9.88654 20.6372   1
  -1  10   4-1.16695 15.1391   3
  -1  10   3 10.7490 13.4568   3
   1 -10  -3 4.55619 13.7579   0
  -1  10   3 3.59451 19.9857   1
  -1  10   2 1.50031 19.0441   1
   1 -10  -2-0.52885 12.4057   0
  -1  10   2-7.40533 10.9558   3
  -1  10   1 9.75442 18.2801   1
   1  10  -1-10.1694 14.7422   3
  -1  10   1-4.73507 10.8787   3
   1  10   0-1.85759 18.9388   1
  -1  10   0 0.85053 16.2763   1
   1  10   0-3.63963 14.1169   3
  -1  10   0 0.54822 11.2036   3
   1  10   1 4.21151 14.6570   3
   1  10   1-1.84190 19.7942   1
  -1 -10  -1-7.69185 8.84248   0
  -1  10  -1-5.54544 15.7801   1
   1  10   2-0.26562 14.4779   3
   1  10   2-4.38304 19.9075   1
   1  10   3-11.5863 18.0661   1
   1  10   3-6.75277 17.9540   3
   1  10   3-4.96378 11.5560   0
   1  10   4 13.9361 19.5634   3
   1  10   4-20.2752 20.0511   1
   1  10   4 5.21360 14.3811   0
   1  10   5-17.3035 21.4372   3
   1  10   5 25.8332 15.9113   0
   1  10   5-9.13114 20.9483   1
   1  10   6 30.0047 22.8121   1
   1  10   6-21.4342 20.7815   3
   1  10   7 12.8297 25.3028   1
   1  10   7-7.66776 28.0308   3
   1  10   8 24.6308 26.6429   1
   1  10   8 60.3179 33.1694   3
   1  10   9-35.7414 25.1019   1
   1  10   9-44.6858 31.9487   3
   1  10  10 39.9092 33.9148   3
   1  10  11-0.24697 29.8727   3
   1  10  12 3.15674 33.5724   3
  -1  11  12-25.7156 30.5446   3
  -1  11  11 52.3636 29.9338   3
  -1  11  11-100.899 21.8525   1
  -1  11  10 96.7203 32.4521   3
  -1  11  10 189.195 32.7711   1
  -1  11   9 303.820 32.7709   3
  -1  11   9 240.663 29.6850   1
  -1  11   8 306.889 30.5654   3
  -1  11   8 280.309 33.6134   1
  -1  11   7 552.231 36.6247   1
  -1  11   7 536.550 33.7271   3
  -1  11   6 167.681 23.9188   3
  -1  11   6 137.102 24.6736   1
  -1  11   5 180.245 26.3847   1
  -1  11   5 269.044 22.1245   3
  -1  11   5 273.286 20.2124   0
  -1  11   4 152.005 24.5462   1
  -1  11   4 152.212 18.3362   3
  -1  11   3 51.0757 22.5977   1
   1 -11  -3 29.2448 13.5056   0
  -1  11   3 37.1759 14.2108   3
   1 -11  -2 451.370 20.3227   0
  -1  11   2 420.153 18.8713   3
  -1  11   2 463.934 27.3713   1
   1  11  -1 973.150 29.3507   3
  -1  11   1 869.608 22.6094   3
  -1  11   1 879.138 31.0795   1
   1  11   0 3348.59 45.8514   3
  -1  11   0 3332.15 50.6924   1
   1  11   0 3359.00 52.9807   1
  -1  11   0 3299.39 39.7538   3
  -1 -11  -1 467.734 16.2148   0
   1  11   1 442.269 26.3900   1
  -1  11  -1 444.327 23.5003   1
   1  11   1 499.442 22.5675   3
   1  11   2 371.339 21.2711   3
   1  11   2 365.880 24.9942   1
   1  11   3 424.526 24.4014   3
   1  11   3 389.241 26.8590   1
   1  11   4 71.0582 21.5088   1
   1  11   4 63.0457 20.3985   3
   1  11   4 84.4104 15.4495   0
   1  11   5 197.695 26.4206   1
   1  11   5 186.709 23.7227   3
   1  11   6 416.564 31.2066   3
   1  11   6 411.293 32.5319   1
   1  11   7 172.584 29.9613   1
   1  11   7 180.329 29.1178   3
   1  11   8 763.797 45.0160   3
   1  11   8 728.035 39.4754   1
   1  11   9 861.045 49.9692   3
   1  11   9 853.111 42.1372   1
   1  11  10 288.110 40.4256   3
   1  11  11 208.531 35.7899   3
  -1  12  12-30.6056 28.3452   3
  -1  12  11 4.44378 26.2900   3
  -1  12  11-97.0913 30.7244   1
  -1  12  10-40.8786 30.7470   3
  -1  12  10 12.8179 24.9288   1
  -1  12   9 7.66673 21.5953   3
  -1  12   9 42.0434 28.6972   1
  -1  12   8-15.4835 27.0368   1
  -1  12   8-3.29263 23.6464   3
  -1  12   7-25.2547 23.8014   3
  -1  12   7-20.6202 25.6190   1
  -1  12   6 5.67586 24.1094   1
  -1  12   6 17.8123 20.9901   3
  -1  12   5-24.8932 24.3901   1
  -1  12   5 23.0023 18.1450   3
  -1  12   4-16.2975 23.1848   1
  -1  12   4-0.04461 15.8237   3
  -1  12   3 3.77728 21.1547   1
  -1  12   3-11.4835 14.3644   3
   1 -12  -3-3.46938 13.9586   0
  -1  12   2 20.0702 22.2374   1
   1 -12  -2 3.67451 13.7999   0
  -1  12   2-8.70769 12.9100   3
   1  12  -1-17.6058 17.2337   1
  -1  12   1 8.30004 11.6917   3
   1  12  -1-7.26454 16.1334   3
  -1  12   1 11.5023 21.1587   1
  -1  12   0 1.21472 11.9420   3
   1  12   0 2.37776 22.1955   1
  -1  12   0 16.9933 19.9706   1
   1  12   0 19.8115 15.7250   3
   1  12   1 21.6338 15.3324   3
   1  12   1-10.4910 22.3556   1
  -1  12  -1 9.67642 19.8548   1
  -1 -12  -1 2.48760 10.7019   0
   1  12   2 0.87760 16.8492   3
  -1 -12  -2 13.2293 11.6611   0
   1  12   2-0.05313 21.2430   1
   1  12   3-0.83629 18.0431   3
   1  12   3-10.7421 20.2516   1
   1  12   4-10.8697 20.1814   3
   1  12   4-3.43129 22.8993   1
   1  12   5 18.0373 24.3275   1
   1  12   5-22.6661 20.3891   3
   1  12   6 8.95716 23.0981   3
   1  12   6 15.9175 26.2803   1
   1  12   7 23.8415 25.8001   3
   1  12   7-20.7639 24.1126   1
   1  12   8-31.6763 25.4709   1
   1  12   8 9.07345 29.3098   3
   1  12   9-37.7950 27.5360   3
   1  12   9 69.5660 27.7573   1
   1  12  10 30.6334 32.3059   3
   1  12  11-88.2062 34.5809   3
  -1  13  12-41.0053 30.7536   3
  -1  13  11-18.1452 28.8738   3
  -1  13  11 77.8260 26.9972   1
  -1  13  10-58.5962 31.7205   1
  -1  13  10-3.01275 28.4458   3
  -1  13   9 20.0275 26.4410   1
  -1  13   9-5.54430 24.0412   3
  -1  13   8 255.628 34.1321   1
  -1  13   8 266.697 28.0507   3
  -1  13   7 223.214 28.2329   3
  -1  13   7 231.337 31.7189   1
  -1  13   6 242.908 31.4017   1
  -1  13   6 168.098 23.1806   3
  -1  13   5 46.3396 18.4385   3
  -1  13   5 30.6570 25.8641   1
  -1  13   4 143.681 27.0754   1
  -1  13   4 136.049 18.5955   3
  -1  13   3 206.014 27.2068   1
  -1  13   3 231.204 18.0689   3
   1 -13  -3 196.389 17.2762   0
  -1  13   2 849.532 35.6838   1
   1 -13  -2 805.137 25.6461   0
  -1  13   2 767.952 24.3582   3
   1  13  -1 347.870 21.8933   3
  -1  13   1 378.841 27.8875   1
   1  13  -1 312.980 24.3296   1
  -1  13   1 365.513 18.9886   3
  -1  13   0 169.957 22.8982   1
  -1  13   0 130.119 15.3962   3
   1  13   0 142.716 17.3850   3
   1  13   0 134.407 22.5451   1
  -1  13  -1 1785.99 34.5747   3
   1  13   1 1736.74 45.7531   1
   1  13   1 1799.20 38.8134   3
  -1  13  -1 1778.34 43.2856   1
   1  13   2 1213.30 40.5063   1
  -1  13  -2 956.245 31.5423   1
   1  13   2 1200.38 34.7522   3
   1  13   3 314.287 23.9462   3
   1  13   3 309.086 29.8492   1
   1  13   4 535.313 29.6339   3
   1  13   4 525.177 33.6834   1
   1  13   5 91.2689 28.6871   1
   1  13   5 53.2909 25.2721   3
   1  13   6 667.948 35.8931   3
   1  13   6 744.559 38.7323   1
   1  13   7 19.3863 28.1472   3
   1  13   7 3.48910 26.1080   1
   1  13   8 50.5168 23.9712   1
   1  13   8 0.86029 27.6657   3
   1  13   9 199.406 29.6649   1
   1  13   9 166.480 31.8407   3
   1  13  10 61.5887 31.0196   3
   1  13  11-59.2970 36.4320   3
  -1  14  12-9.34362 24.4915   3
  -1  14  12-71.1248 24.3513   1
  -1  14  11 42.5406 33.3926   1
  -1  14  11-104.149 29.9396   3
  -1  14  10-35.2204 30.2967   1
  -1  14  10 27.0966 24.9899   3
  -1  14   9 5.35430 26.4254   1
  -1  14   9-40.3447 28.3467   3
  -1  14   8 38.0902 26.8446   3
  -1  14   8 26.2328 29.6764   1
  -1  14   7-16.1525 29.7176   1
  -1  14   7 8.61733 22.7133   3
  -1  14   6 55.8133 27.4832   1
  -1  14   6-28.0368 20.0229   3
  -1  14   5-7.81177 17.1825   3
  -1  14   5 4.81630 26.8373   1
  -1  14   4-38.0747 27.1096   1
  -1  14   4-0.25166 16.0727   3
  -1  14   3-11.0459 14.4920   3
  -1  14   3-11.5544 23.9179   1
  -1  14   2 14.8173 25.4851   1
  -1  14   2 12.6761 13.5110   3
   1 -14  -2 11.9817 14.2021   0
   1  14  -2-7.63038 16.4618   3
  -1  14   1 11.1084 13.7128   3
  -1  14   1-2.21643 22.1892   1
   1  14  -1 42.1675 24.2908   1
   1  14  -1 20.3227 16.4789   3
  -1  14   0 5.66963 22.4264   1
   1  14   0-16.9720 15.2734   3
   1  14   0-4.61205 23.0151   1
  -1  14   0 14.5208 12.9741   3
  -1  14  -1-2.67595 14.7424   3
  -1  14  -1-23.4684 23.3100   1
   1  14   1-6.25767 25.4333   1
   1  14   1 20.7032 17.7102   3
   1  14   2-10.8160 18.3000   3
  -1  14  -2 4.22094 20.7968   1
   1  14   2-23.3681 23.2043   1
   1  14   3-1.54201 18.8316   3
   1  14   3 7.79750 25.2851   1
   1  14   4 43.7601 27.7896   1
   1  14   4 16.3632 22.0684   3
   1  14   5 8.12710 22.9793   3
   1  14   5 23.7891 26.4839   1
   1  14   6 9.75191 28.6911   1
   1  14   6 32.5251 27.3243   3
   1  14   7 25.3732 26.0494   3
   1  14   7-21.3925 25.9466   1
   1  14   8 32.1008 27.7870   1
   1  14   8-53.9983 27.6139   3
   1  14   9-93.3228 27.2413   1
   1  14   9 34.0324 32.6835   3
   1  14  10-49.4449 30.2692   1
   1  14  10-15.6816 30.5508   3
   1  14  11 15.0777 28.3705   3
  -1  15  11 41.8984 32.4228   1
  -1  15  10 18.2790 30.3803   1
  -1  15  10 54.0086 30.3641   3
  -1  15   9-37.7526 26.3941   3
  -1  15   8 54.9364 32.0938   1
  -1  15   8 42.3977 27.5140   3
  -1  15   7 253.527 35.6357   1
  -1  15   7 259.214 29.3354   3
  -1  15   6 72.7646 22.0970   3
  -1  15   6 92.5654 28.4245   1
  -1  15   5 252.828 24.4728   3
  -1  15   5 294.851 32.7159   1
  -1  15   4 133.319 27.5224   1
  -1  15   3 17.5618 25.3174   1
  -1  15   2 663.662 35.9359   1
   1  15  -2 713.355 30.5374   3
  -1  15   1 118.728 26.8754   1
   1  15  -1 110.746 17.6242   3
   1  15  -1 132.569 25.6056   1
  -1  15   0 796.593 36.9478   1
   1  15   0 767.495 36.9312   1
   1  15   0 782.955 29.1025   3
   1  15   1 450.699 25.7777   3
   1  15   1 386.552 33.0896   1
  -1  15  -1 394.908 29.6450   1
   1  15   2 333.861 24.5251   3
   1  15   2 356.653 31.4551   1
  -1  15  -2 343.400 27.7475   1
   1  15   3 269.753 30.7469   1
   1  15   3 304.514 24.7882   3
   1  15   4 557.089 35.5074   1
   1  15   4 546.599 30.5873   3
   1  15   5 51.8529 26.1708   3
   1  15   5 67.7969 31.0089   1
   1  15   6 1065.22 46.3365   1
   1  15   6 1102.65 43.4295   3
   1  15   7 115.573 28.1153   1
   1  15   7 71.0769 26.8701   3
   1  15   8 104.644 31.4958   3
   1  15   8 64.9474 27.2164   1
   1  15   9-12.8352 30.3088   1
   1  15   9 82.1170 30.0328   3
   1  15  10 12.8575 40.0017   1
   1  15  10-29.4826 29.1118   3
  -1  16  11-107.888 34.4679   1
  -1  16  10 61.6363 28.9939   1
  -1  16   9-26.0491 27.4991   1
  -1  16   8-16.8863 32.4290   1
  -1  16   7 14.2632 27.1408   1
  -1  16   6 35.6684 32.0172   1
  -1  16   5 13.5440 29.0797   1
  -1  16   4-22.1336 27.5336   1
  -1  16   3 0.14859 25.1541   1
   1  16  -2-9.94213 24.7583   1
  -1  16   2 51.0447 27.8941   1
   1  16  -2 18.3746 20.6973   3
   1  16  -1 8.54922 29.2272   1
  -1  16   1 10.6231 26.9192   1
   1  16  -1-22.1323 18.6563   3
   1  16   0 41.4875 28.8483   1
  -1  16   0-21.1623 27.7680   1
   1  16   0 35.3714 17.7941   3
  -1  16  -1 18.3941 24.6444   1
   1  16   1 16.5533 18.5453   3
   1  16   1 11.0244 29.2552   1
  -1  16  -2-24.0158 23.1005   1
   1  16   2 0.00000 26.5657   1
   1  16   2-29.2329 19.4452   3
   1  16   3 8.98320 19.3527   3
  -1  16  -3-5.25220 22.5567   1
   1  16   3-15.2033 26.9343   1
   1  16   4 25.7622 26.3999   1
   1  16   4 0.13523 21.0092   3
   1  16   5 1.86539 28.8681   1
   1  16   5 26.0647 22.5057   3
   1  16   6 39.5968 26.6144   3
   1  16   6-21.9008 27.6302   1
   1  16   7-14.2680 25.9896   3
   1  16   7-0.28554 27.0532   1
   1  16   8-17.2719 25.1766   1
   1  16   8 23.3016 29.5050   3
   1  16   9 101.905 34.0458   3
   1  16   9-74.1530 28.1338   1
   1  16  10-33.1283 33.1980   3
   1  16  10 109.089 35.8404   1
  -1  17  10 209.554 38.3139   1
  -1  17   9-30.9624 31.1368   1
  -1  17   8-32.5947 28.9525   1
  -1  17   7 154.950 34.8901   1
  -1  17   6 341.996 35.7122   1
  -1  17   5 81.2307 33.4228   1
  -1  17   4 38.1203 26.9470   1
  -1  17   3 411.177 36.1504   1
   1  17  -2 1433.81 49.1595   1
  -1  17   2 1563.49 51.6207   1
  -1  17   1 95.3294 27.0518   1
   1  17  -1 79.8942 27.2769   1
   1  17   0 598.555 29.8091   3
   1  17   0 610.314 39.9364   1
  -1  17   0 645.008 38.6082   1
  -1  17  -1 899.280 40.9539   1
   1  17   1 976.822 44.2541   1
   1  17   1 821.848 34.0148   3
   1  17   2 850.973 34.3232   3
   1  17   2 837.189 42.6624   1
  -1  17  -2 865.429 40.2421   1
   1  17   3 212.395 26.5047   3
  -1  17  -3 258.387 30.1646   1
   1  17   3 225.403 31.7399   1
   1  17   4 671.611 41.2089   1
   1  17   4 580.210 32.6241   3
  -1  17  -4 463.908 28.9898   1
   1  17   5 143.498 25.2117   3
   1  17   5 105.062 30.3316   1
   1  17   6 17.0191 27.4453   1
   1  17   6 52.3056 26.7908   3
   1  17   7 17.2352 25.3470   3
   1  17   7 48.1645 32.4048   1
   1  17   8 91.5524 33.4512   1
   1  17   8 147.791 27.0926   3
   1  17   9 79.7509 33.2924   3
   1  17   9-79.7833 26.4800   1
   1  17  10-58.6848 26.8022   3
   1  17  10 184.625 37.3075   1
  -1  18  10 18.4165 32.1271   1
  -1  18   9 19.5486 34.7780   1
  -1  18   7 7.62359 27.2494   1
  -1  18   6-13.8134 31.4443   1
  -1  18   5 49.7508 32.6283   1
  -1  18   4-16.3273 27.0178   1
  -1  18   3-45.4255 31.0879   1
   1  18  -3-28.5463 27.2496   1
   1  18  -2-0.23851 29.7431   1
  -1  18   2 25.7467 29.1328   1
   1  18  -1 17.7532 31.1766   1
  -1  18   1 9.91401 26.4112   1
  -1  18   0 38.2260 28.8930   1
   1  18   0-2.21044 29.7862   1
  -1  18  -1-10.9713 29.2008   1
   1  18   1 32.8849 29.9144   1
   1  18   2-1.18400 29.6122   1
  -1  18  -2 4.59342 24.8158   1
  -1  18  -3 15.5455 25.5418   1
   1  18   3-26.9744 32.6686   1
  -1  18  -4-30.4405 23.2189   1
   1  18   4 30.2881 30.6779   1
   1  18   5 24.4160 28.7512   1
   1  18   6-22.6720 31.6018   1
   1  18   7 64.8900 30.7833   1
   1  18   9 62.0701 33.5084   1
  -1  19   9 91.7945 32.2605   1
  -1  19   8 26.3719 28.6426   1
  -1  19   7 35.8698 32.2982   1
  -1  19   6 26.5816 34.1317   1
  -1  19   5 140.582 35.2763   1
  -1  19   4 60.0007 29.2154   1
   1  19  -4 32.3527 23.4358   1
   1  19  -3 197.055 31.7702   1
  -1  19   3 137.968 30.5980   1
  -1  19   2 32.5508 29.4730   1
   1  19  -2 16.4100 26.6599   1
  -1  19   1 1462.32 53.8939   1
   1  19  -1 1526.10 54.2917   1
   1  19   0 473.089 38.5534   1
  -1  19   0 548.128 37.8893   1
  -1  19  -1 238.462 32.1381   1
   1  19   1 266.427 32.6731   1
  -1  19  -2 85.7863 29.8072   1
   1  19   2 94.4587 33.2088   1
  -1  19  -3 14.9162 23.7183   1
   1  19   3 3.56769 27.8765   1
   1  19   4 88.6464 34.5016   1
  -1  19  -4 93.9741 25.4724   1
   1  19   5 25.8474 24.4675   1
   1  19   6-64.6751 33.7667   1
   1  19   7 109.683 29.8054   1
   1  19   8-74.3372 34.5306   1
  -1  20   7 36.3687 31.9524   1
  -1  20   6-23.5459 34.4118   1
  -1  20   5 79.4243 36.7298   1
   1  20  -4-3.52191 26.9366   1
  -1  20   4-48.2761 32.8870   1
   1  20  -3 14.2750 27.2544   1
  -1  20   3 10.2771 31.8833   1
   1  20  -2 37.6614 30.3681   1
  -1  20   2 49.4196 33.1231   1
   1  20  -1 32.9180 29.3329   1
  -1  20   1 17.2850 30.7737   1
   1  20   0 7.39683 27.7243   1
  -1  20   0 18.4575 27.6410   1
  -1  20  -1-16.6440 28.5532   1
   1  20   1-17.5654 26.4618   1
   1  20   2 28.0067 30.9535   1
  -1  20  -2 7.33525 26.1641   1
   1  20   3-48.4468 32.1424   1
  -1  20  -3-0.97026 24.9935   1
   1  20   4 21.1042 31.6611   1
  -1  20  -4 8.99965 24.5287   1
   1  20   5 4.01284 30.4695   1
   1  20   7 115.613 30.3853   1
   1  20   8-87.9816 32.2645   1
  -1  21   7 187.781 39.1906   1
  -1  21   6-8.49329 35.7976   1
   1  21  -5-17.2833 28.4154   1
  -1  21   5 53.7902 35.6281   1
  -1  21   4 48.7753 33.9126   1
   1  21  -4 111.604 30.0281   1
  -1  21   3 140.071 31.7577   1
   1  21  -3 81.7197 29.7682   1
   1  21  -2 278.154 35.5156   1
  -1  21   2 236.109 34.5066   1
   1  21  -1 3.27439 32.5894   1
  -1  21   1 24.6113 32.7366   1
   1  21   0 5.08139 29.6869   1
  -1  21   0-1.70239 27.6713   1
   1  21   1 12.8697 28.0297   1
  -1  21  -1 46.5038 31.9083   1
   1  21   2 92.9362 30.0981   1
  -1  21  -2 18.1549 26.6074   1
  -1  21  -3 124.238 31.0558   1
   1  21   3-7.99275 27.8962   1
   1  21   4 51.4466 32.9320   1
  -1  21  -4 7.89547 22.5931   1
   1  21   5 63.8271 35.4121   1
   1  21   6-33.5951 35.2078   1
   1  21   7 241.892 33.5650   1
   1  22  -6-57.9737 27.9493   1
  -1  22   6-17.0956 36.2653   1
  -1  22   5 40.5893 32.2683   1
   1  22  -5 81.6757 34.4559   1
  -1  22   4-20.0232 33.6958   1
   1  22  -4-4.97464 26.9819   1
  -1  22   3 45.0576 36.8873   1
   1  22  -3-10.2663 33.2741   1
   1  22  -2 30.7240 33.3382   1
  -1  22   2-26.1584 30.3387   1
  -1  22   1 14.7761 34.9106   1
   1  22  -1-23.2090 26.2515   1
   1  22   0 38.6420 33.8945   1
  -1  22   0-11.6126 26.6990   1
   1  22   1-27.1926 30.3292   1
  -1  22  -1 24.7040 29.6123   1
  -1  22  -2-59.2687 27.0937   1
   1  22   2-20.4358 33.2443   1
  -1  22  -3 37.8995 26.6741   1
   1  22   3 41.1396 35.5743   1
   1  22   4-39.8855 35.7623   1
   1  22   5 22.9341 34.8309   1
   1  23  -5 151.727 36.1407   1
  -1  23   5 192.805 40.2952   1
  -1  23   4 5.46770 36.2261   1
   1  23  -4-38.9157 32.3250   1
  -1  23   3 59.1219 31.0968   1
   1  23  -3 42.7334 36.8285   1
   1  23  -2 22.6661 32.0723   1
  -1  23   2 8.74509 34.0488   1
  -1  23   1 37.9965 33.8350   1
   1  23  -1 32.7892 32.2197   1
   1  23   0 8.67340 34.3102   1
  -1  23   0-23.4021 29.9563   1
  -1  23  -1 0.95871 29.0851   1
   1  23   1 24.7379 31.3395   1
  -1  23  -2 23.8892 29.6234   1
   1  23   2 7.69098 35.1932   1
  -1  23  -3-16.9213 31.8229   1
   1  23   3 54.2324 38.8198   1
   1  23   4-22.3810 35.5112   1
   1  24  -4 95.0190 36.2210   1
  -1  24   4-49.5399 37.5111   1
   1  24  -3 13.8774 29.9079   1
  -1  24   3 16.5464 36.0311   1
  -1  24   2-13.9918 37.8979   1
   1  24  -1 64.3471 37.1221   1
  -1  24   1 56.7062 37.5763   1
   1  24   0-25.0644 33.5317   1
  -1  24   0 11.7639 32.9115   1
   1  24   1 38.9899 30.1036   1
  -1  24  -1-18.5230 33.5074   1
   1  24   2-68.6461 33.8867   1
  -1  24  -2 66.6637 32.0550   1
  -1  24  -3-80.7534 30.9246   1
   1  24   3 97.8783 34.0400   1
   1  25  -4 68.0028 35.5750   1
   1  25  -3 2.02071 35.0234   1
   1  25  -2 100.517 37.2002   1
  -1  25   2 68.1391 40.3353   1
   1  25  -1 28.6326 27.3474   1
  -1  25   1-18.1898 34.8733   1
  -1  25   0 61.7813 37.0634   1
   1  25   0-32.0905 31.0573   1
   1  25   1 13.6944 32.0950   1
  -1  25  -1-25.8549 35.7250   1
  -1  25  -2 70.0810 32.5407   1
  -1  25  -3 60.0721 26.9269   1
  -2   0  14 23.8991 33.7276   3
  -2   0  13 74.3101 37.8448   3
  -2   0  12 83.3031 37.5005   3
  -2   0  11-17.2990 29.4165   3
  -2   0  11 46.2763 27.2774   1
  -2   0  10 25.5185 30.9958   3
  -2   0  10-15.2667 25.6857   1
  -2   0   9 31.0876 29.2415   3
  -2   0   9-26.8402 23.6382   1
  -2   0   8 784.925 38.3214   3
  -2   0   8 780.772 32.1918   1
  -2   0   7 1.25003 21.9673   3
  -2   0   7 14.2536 18.9049   1
  -2   0   6 17981.2 115.014   3
  -2   0   6 18244.7 107.351   1
  -2   0   5 0.03629 18.0262   3
  -2   0   5 3.57377 15.2477   1
   2   0  -4 7943.44 48.2502   2
  -2   0   4 7457.83 59.6179   3
  -2   0   4 7506.83 58.3011   1
  -2   0   3 11.5949 15.4162   3
  -2   0   3 8.11041 13.2094   1
   2   0  -3 0.50584 11.4261   2
   2   0  -2 85898.0 522.343   2
  -2   0   2 83877.6 521.631   0
  -2   0   2 85792.6 562.764   1
   2   0   0 248.290 11.6636   4
   2   0   1 8.44182 11.2478   3
   2   0   2 1535.34 27.2593   3
   2   0   3 10.0951 16.8727   3
   2   0   3-6.33615 8.75306   1
   2   0   4 1531.49 24.8599   1
   2   0   4 1617.59 36.8111   3
   2   0   5 17.9925 11.1622   1
   2   0   5 16.3569 19.0066   3
   2   0   6 1128.31 39.3385   3
   2   0   6 1097.64 26.4042   1
   2   0   7 12.2489 23.8799   3
   2   0   8 1139.31 47.2967   3
   2   0   9 12.6856 29.7852   3
   2   0  10 155.967 38.2878   3
   2   0  11-28.0941 31.5111   3
   2   0  12 149.637 47.3726   3
  -2  -1  14-58.3753 35.9325   3
  -2   1  14 97.6499 45.1674   3
  -2   1  13-51.3118 35.3728   3
  -2  -1  13 28.0315 33.1032   3
  -2   1  12-28.5726 31.0523   3
  -2  -1  12 53.4560 37.0481   3
  -2   1  11 27.4247 31.9211   3
  -2   1  11-20.5177 28.4833   1
  -2  -1  11-13.6906 26.5581   1
  -2  -1  11 11.7813 29.8043   3
  -2  -1  10-6.80118 26.4384   1
  -2   1  10 29.1353 31.9316   3
  -2  -1  10 5.78670 29.3869   3
  -2   1   9-7.06693 26.9068   3
  -2   1   9 9.69001 22.4486   1
  -2  -1   9 32.3722 23.9994   1
  -2  -1   9-14.5559 26.8096   3
  -2   1   8-13.7618 19.8676   1
  -2   1   8 5.88346 25.3342   3
  -2  -1   8 3.92199 24.9248   3
  -2  -1   8-18.1959 20.8200   1
  -2  -1   7-1.96350 20.8819   3
  -2   1   7-19.9256 22.6987   3
  -2  -1   7-18.5786 20.2274   1
  -2   1   7 11.2849 18.7054   1
  -2  -1   6 10.0326 23.2011   3
  -2  -1   6-11.9265 20.2180   1
  -2   1   6-6.68567 20.6876   3
  -2   1   6-1.55788 18.1578   1
  -2  -1   5-24.5654 17.9302   1
  -2   1   5-0.96438 16.2043   1
   2  -1  -5-11.8939 9.98459   2
  -2  -1   5 1.12925 18.8571   3
  -2   1   5 10.8613 19.4695   3
  -2  -1   4-6.94924 14.8815   1
   2  -1  -4 4.69545 10.9803   2
  -2   1   4 0.54906 15.9316   1
  -2   1   4-3.00085 16.6186   3
  -2  -1   4 5.35162 14.9511   3
   2  -1  -3 20.9270 11.7001   2
  -2   1   3 18.6133 15.4688   3
  -2  -1   3 12.5265 16.7550   1
  -2   1   3 2.65891 14.9249   1
  -2   1   2-5.30814 12.9436   1
  -2   1   2 7.06946 10.9928   0
   2  -1  -2 9.37609 12.3540   0
   2   1  -2-4.59003 12.9380   2
  -2  -1   2-0.34182 14.7621   1
   2   1  -1 5.60722 10.0573   2
  -2  -1   1 1.89076 6.46263   0
   2   1  -1 3.20664 6.09888   0
   2   1   0-1.50170 8.09134   3
   2   1   0 8.08315 11.0617   4
   2  -1   1 8.18256 10.0741   3
   2   1   1 10.5845 12.8696   4
   2   1   1 14.9093 12.1747   3
   2   1   2 0.48977 8.41766   1
   2   1   2-4.80219 13.1227   3
   2  -1   2 4.11833 13.1260   3
   2  -1   3-9.28209 9.15455   1
   2   1   3 16.3823 17.3623   3
   2   1   3-9.21930 9.61540   1
   2  -1   3 5.75960 15.5530   3
   2  -1   4 6.36576 15.9328   3
   2  -1   4-14.3619 10.7796   1
   2   1   4-3.68680 10.2109   1
   2   1   4 12.3561 16.6216   3
   2  -1   5-1.38571 18.2403   3
   2   1   5-1.89755 20.5121   3
   2   1   5-8.53212 10.7916   1
   2   1   6-47.1392 11.4013   1
   2  -1   6 14.2276 21.7176   3
   2  -1   6-13.2114 14.6701   1
   2   1   6 28.2422 23.0425   3
   2  -1   7-27.1198 25.0780   3
   2   1   7 0.00000 23.7556   3
   2  -1   8-12.0995 28.5726   3
   2   1   8 7.90612 27.0278   3
   2  -1   9 45.3836 31.4763   3
   2   1   9-16.5650 30.1295   3
   2   1  10-25.1910 35.7363   3
   2  -1  10-30.1722 33.9498   3
   2   1  11 25.6255 35.2891   3
   2  -1  11-13.8744 31.7261   3
   2  -1  12 84.9699 42.6341   3
   2   1  12-34.1928 39.7015   3
  -2   2  14 4.44952 35.8197   3
  -2  -2  13-6.10710 34.8081   3
  -2   2  13 47.4285 33.0240   3
  -2  -2  12 31.8252 34.6059   3
  -2   2  12 18.1398 33.6164   3
  -2  -2  11 65.9758 35.1013   3
  -2   2  11 75.2499 33.2874   3
  -2   2  11 12.4402 25.5399   1
  -2   2  10 221.975 26.2171   1
  -2  -2  10 269.707 35.8828   3
  -2   2  10 167.553 35.2674   3
  -2  -2  10 299.334 30.5636   1
  -2   2   9 89.8065 28.5449   3
  -2   2   9 87.7094 22.1109   1
  -2  -2   9 81.0357 29.2071   3
  -2  -2   9 63.5719 23.5045   1
  -2  -2   8 40.4561 21.3725   1
  -2   2   8 31.1939 20.0122   1
  -2   2   8 56.6624 24.2977   3
  -2  -2   8 50.7907 26.0398   3
  -2   2   7 1162.61 39.3235   3
  -2  -2   7 1149.76 34.7819   1
  -2   2   7 1202.12 35.1818   1
  -2  -2   7 1170.89 39.2537   3
  -2   2   6 12.7380 19.9639   1
   2  -2  -6-7.23817 9.95634   2
  -2  -2   6 10.6999 18.2805   1
  -2   2   6 19.1619 20.6002   3
  -2  -2   6 31.0541 22.6376   3
  -2  -2   5 1710.23 35.2405   1
  -2  -2   5 1629.93 37.2346   3
   2  -2  -5 1589.32 23.6922   2
  -2   2   5 1547.71 34.4441   3
  -2   2   5 1578.75 33.0631   1
  -2   2   4 6222.95 53.9029   3
  -2   2   4 6060.36 53.6084   1
  -2  -2   4 6075.65 54.7995   1
  -2  -2   4 6108.75 57.5232   3
  -2  -2   3 4660.01 43.8852   1
  -2   2   3 4523.18 41.9506   0
  -2   2   3 4572.22 42.0437   1
  -2   2   3 4557.33 39.4813   3
   2  -2  -2 8220.42 46.4683   0
  -2   2   2 8309.60 46.9363   0
  -2   2   2 8031.70 46.6465   1
   2   2   0 94714.0 574.327   3
   2   2   1 465.665 12.8329   1
   2   2   1 466.474 18.2746   3
   2   2   1 435.127 16.0137   4
   2  -2   1 475.699 14.2943   3
   2   2   2 15330.7 60.5635   1
   2   2   2 15729.3 81.2129   3
   2   2   2 14952.3 68.5071   4
   2  -2   2 15267.3 74.0052   3
   2   2   3 1528.39 24.1280   1
   2  -2   3 1509.02 20.7718   1
   2   2   3 1499.52 26.3470   4
   2   2   3 1654.79 33.4754   3
   2  -2   3 1567.57 31.3298   3
   2  -2   4 45.6987 17.9001   3
   2   2   4 19.1314 11.1131   1
   2  -2   4 46.1647 11.9770   1
   2   2   4 32.7025 17.8971   3
   2   2   5 305.133 26.4153   3
   2  -2   5 274.604 16.3609   1
   2   2   5 296.004 16.4946   1
   2  -2   5 279.245 23.2121   3
   2   2   6 349.623 30.2979   3
   2   2   6 308.985 17.5121   1
   2  -2   6 337.877 19.6280   1
   2  -2   6 335.116 29.6711   3
   2   2   7 30.8551 24.8550   3
   2   2   7 40.4351 15.4264   1
   2  -2   7 5.56600 27.3305   3
   2  -2   8 1273.39 50.4079   3
   2   2   8 1299.95 49.5022   3
   2  -2   9 35.8431 32.0934   3
   2   2   9 19.2540 28.1348   3
   2  -2  10-6.88606 33.3531   3
   2   2  10 5.36582 36.5696   3
   2  -2  11 87.0502 32.2858   3
   2   2  11 108.961 42.3638   3
   2  -2  12 106.863 34.3889   3
   2   2  12 88.1893 38.4019   3
  -2  -3  13-27.0906 36.5023   3
  -2   3  13 22.6478 38.4055   3
  -2   3  12 62.8889 35.5691   3
  -2  -3  12-62.2996 37.0935   3
  -2   3  11-50.2922 33.2873   3
  -2   3  11-20.2900 25.5095   1
  -2  -3  11-49.4370 36.6238   3
  -2   3  10-11.7723 29.9280   3
  -2  -3  10-21.1283 23.4745   1
  -2  -3  10-17.3070 32.0901   3
  -2   3  10 23.2930 23.7107   1
  -2  -3   9 14.3625 28.6660   3
  -2   3   9-10.0485 20.4908   1
  -2   3   9 0.45009 28.6554   3
  -2  -3   9 7.08076 23.4876   1
  -2  -3   8-5.14976 25.7509   3
  -2   3   8-8.68058 25.1755   3
  -2   3   8 22.2577 21.2714   1
  -2  -3   8 12.1375 22.0539   1
  -2   3   7 8.72043 22.3713   3
  -2  -3   7 1.42120 23.1101   3
  -2  -3   7 9.57587 18.5546   1
  -2   3   7-10.2796 19.3811   1
   2  -3  -6 5.67420 10.1688   2
  -2  -3   6 14.3990 20.4798   1
  -2  -3   6-14.3993 21.9230   3
  -2   3   6 10.4836 18.6066   1
  -2   3   6-2.35598 19.5674   3
  -2   3   5 1.22554 15.6690   1
  -2   3   5-2.18957 15.5790   3
  -2  -3   5-9.70000 16.9654   1
  -2  -3   5 13.7735 18.4077   3
  -2  -3   4 11.7899 18.6315   1
  -2   3   4 7.05779 14.5123   3
  -2   3   4-9.11178 15.2856   1
  -2   3   4 10.9880 15.1316   0
  -2   3   3 11.2979 14.8408   0
  -2   3   3-0.28059 15.4551   1
  -2   3   3-8.50892 13.0178   3
  -2   3   2 10.3364 12.7513   0
  -2   3   2 0.41574 14.4513   1
   2  -3  -2 4.96595 13.4492   0
  -2   3   1 0.61782 9.54513   1
   2   3   0 35.5584 13.6296   3
   2   3   1-10.7346 14.5486   3
   2   3   1-9.84223 10.5682   1
   2  -3   1-3.83363 10.1320   3
   2   3   1 8.02191 13.3838   4
   2   3   2 0.86682 11.5301   1
   2   3   2-4.20738 14.4325   3
   2   3   2-3.20203 11.9260   4
   2  -3   2-18.3971 13.3082   3
   2   3   3-0.10262 17.1844   3
   2   3   3 3.75756 11.5361   1
   2   3   3 0.60593 11.9324   4
   2  -3   3-11.5849 14.5681   3
   2   3   4 2.18611 18.6148   3
   2   3   4-6.62538 12.1972   1
   2   3   4-8.89034 12.9243   4
   2  -3   4-6.35315 17.5938   3
   2   3   5 11.7258 14.7782   4
   2  -3   5 10.0881 12.0679   1
   2   3   5-9.16236 13.8274   1
   2  -3   5-10.4958 20.8924   3
   2   3   5-9.27128 20.0594   3
   2  -3   6 25.7744 15.3628   1
   2   3   6-9.86631 22.5834   3
   2  -3   6 14.9894 22.7576   3
   2   3   6 16.7039 15.6707   4
   2  -3   7 15.0507 27.7623   3
   2   3   7-36.0673 14.6749   1
   2   3   7 22.5663 25.7744   3
   2  -3   8-9.06027 30.7476   3
   2   3   8-21.6001 28.2872   3
   2   3   9 9.05877 26.6878   3
   2  -3   9-20.9067 30.2746   3
   2  -3  10 21.2506 28.3017   3
   2   3  10-32.8254 29.4577   3
   2  -3  11-10.0828 31.3757   3
   2   3  11-77.5186 31.6716   3
   2  -3  12-32.2587 31.4842   3
   2   3  12 67.8321 42.4726   3
  -2   4  13 66.8593 34.9494   3
  -2  -4  12 75.6464 37.3822   3
  -2   4  12 31.8822 30.4766   3
  -2   4  11 18.0813 29.4344   3
  -2  -4  11 67.6799 34.0535   3
  -2   4  11 34.0145 26.9666   1
  -2   4  10 88.6223 33.2338   3
  -2  -4  10 62.4527 31.1504   3
  -2  -4  10 121.441 27.8995   1
  -2   4  10 32.9644 23.1553   1
  -2  -4   9 2.80351 27.3648   3
  -2   4   9 52.2353 24.4575   1
  -2   4   9 23.4942 27.1052   3
  -2  -4   9 73.9566 25.8056   1
  -2   4   8 223.255 25.2318   1
  -2  -4   8 245.903 25.9556   1
  -2   4   8 220.413 27.4227   3
  -2  -4   8 231.248 30.6269   3
  -2  -4   7 455.304 28.3366   1
  -2  -4   7 434.621 30.7220   3
  -2   4   7 444.722 26.8709   1
  -2   4   7 382.754 27.6396   3
  -2  -4   6 4557.27 58.5879   1
   2  -4  -6 4228.76 38.6181   2
  -2   4   6 4330.44 57.5561   1
  -2   4   6 4457.22 59.5243   3
  -2   4   5 1422.61 32.0961   3
  -2   4   5 1478.12 34.2778   1
  -2   4   5 1502.96 33.3109   0
  -2   4   4 1171.68 26.5422   3
  -2   4   4 1211.62 27.1652   0
  -2   4   4 1200.29 28.8750   1
   2  -4  -3 681.749 20.9662   0
  -2   4   3 675.161 23.5409   1
  -2   4   3 674.984 18.7770   3
  -2   4   3 705.074 22.2270   0
  -2   4   2 3404.15 35.3451   1
   2  -4  -2 3458.74 35.1205   0
  -2   4   1 3031.36 30.0390   1
   2   4   0 25664.4 89.3498   3
  -2   4   0 25721.5 73.8768   1
   2   4   1 13032.6 63.8286   1
   2  -4   1 13255.0 53.9182   3
   2   4   1 13000.9 70.2671   3
   2   4   2 3198.74 40.3806   3
   2   4   2 3388.33 34.2924   4
   2   4   2 3419.32 36.5735   1
   2  -4   2 3410.94 36.6324   3
   2   4   3 1153.32 24.7879   1
   2  -4   3 1134.65 28.0702   3
   2   4   3 1088.00 22.6737   4
   2   4   3 1121.48 29.8329   3
   2   4   4 389.071 25.5921   3
   2  -4   4 385.844 24.2657   3
   2   4   4 366.460 18.6374   1
   2   4   4 386.942 17.5448   4
   2   4   5 1870.88 32.2706   4
   2   4   5 1924.96 36.2600   1
   2  -4   5 1938.80 43.4620   3
   2   4   5 1950.23 46.1757   3
   2  -4   6 367.354 29.6248   3
   2   4   6 406.273 32.3055   3
   2   4   6 381.427 20.3785   4
   2   4   6 415.540 22.1931   1
   2  -4   7 195.767 28.3467   3
   2   4   7 215.337 20.0816   1
   2   4   7 207.312 30.6637   3
   2   4   8 1023.35 46.3723   3
   2  -4   8 1061.35 46.4202   3
   2   4   9-32.0886 26.1716   3
   2  -4   9 29.2716 32.3038   3
   2   4  10 141.475 31.9819   3
   2  -4  10 150.774 36.7253   3
   2  -4  11-107.903 32.5993   3
   2   4  11 0.72412 33.3484   3
   2  -4  12 117.331 35.0233   3
   2   4  12 84.4418 40.9868   3
  -2   5  13 36.8427 35.9946   3
  -2   5  12 6.53719 26.6237   1
  -2   5  12-50.4189 33.0643   3
  -2   5  11-1.49456 30.3734   3
  -2   5  11-5.55944 24.8435   1
  -2   5  10 4.19722 28.7487   3
  -2   5  10 25.5380 22.0313   1
  -2   5   9-20.6336 29.3195   3
  -2   5   9-19.3038 21.9624   1
  -2   5   8 11.1724 20.9434   1
  -2   5   8-6.86660 22.9853   3
  -2   5   7 0.05445 21.6856   3
  -2   5   7 0.41602 18.7376   1
  -2   5   6-10.6182 19.0086   1
  -2   5   6 28.0785 20.4382   0
  -2   5   6-10.9763 18.7430   3
  -2   5   5 16.2346 17.9586   0
  -2   5   5 9.43392 16.2374   3
  -2   5   5 2.42653 16.2410   1
  -2   5   4-3.35010 13.9567   3
  -2   5   4 8.80528 16.6368   1
  -2   5   4 1.75613 12.4280   0
   2  -5  -3 13.0945 12.7879   0
  -2   5   3-8.49332 12.2146   0
  -2   5   3-4.57668 11.6496   3
  -2   5   3 4.71962 14.8222   1
  -2   5   2 7.11208 8.71433   3
   2  -5  -2-0.10644 11.2278   0
  -2   5   2 19.6263 15.8422   1
  -2   5   1-3.09528 13.6608   1
   2   5   0 10.2722 12.7618   3
  -2   5   0-2.58288 11.4913   1
   2   5   1 2.52695 15.0717   3
   2   5   1 3.50667 13.5822   1
   2  -5   2 5.67172 12.2920   3
   2   5   2-2.58992 13.7863   3
   2   5   2 7.51137 14.1503   1
   2   5   3-6.97566 14.9969   1
   2  -5   3-3.26291 15.8979   3
   2   5   3 12.2539 15.9581   3
   2  -5   4 17.2084 18.1276   3
   2   5   4 0.42875 14.9823   1
   2   5   4-2.01985 12.5154   4
   2   5   4 8.98489 19.4791   3
   2  -5   5 11.7679 20.4374   3
   2   5   5 8.57365 15.8277   1
   2   5   5-0.60392 13.4419   4
   2   5   5 2.45661 20.1618   3
   2  -5   6 5.45566 23.6348   3
   2   5   6-20.7149 23.8608   3
   2   5   6 8.36474 17.5186   1
   2   5   7 44.6631 18.7571   1
   2  -5   7 22.7987 27.2916   3
   2   5   7-4.22079 26.9778   3
   2  -5   8-9.35442 29.1399   3
   2   5   8 21.7681 30.3371   3
   2   5   9-30.6406 28.6614   3
   2  -5   9-45.4994 30.6113   3
   2  -5  10-26.9345 27.2768   3
   2   5  10 22.7829 32.1513   3
   2  -5  11 120.435 39.2196   3
   2   5  11-65.6861 34.3511   3
   2  -5  12 9.44388 37.0305   3
   2   5  12-42.4097 38.2804   3
  -2   6  13-10.3495 40.7832   3
  -2   6  12-3.28429 30.9486   3
  -2   6  12 84.1219 27.7960   1
  -2   6  11 33.9626 25.1405   1
  -2   6  11 122.493 36.6756   3
  -2   6  10 257.015 29.0475   1
  -2   6  10 300.012 34.1661   3
  -2   6   9 629.882 34.9109   1
  -2   6   9 541.749 38.6377   3
  -2   6   8 1113.83 38.8820   1
  -2   6   8 1204.31 41.9175   3
  -2   6   7 858.537 33.8725   3
  -2   6   7 967.753 36.4422   1
  -2   6   6 240.560 24.9940   1
  -2   6   6 264.647 23.7499   0
  -2   6   6 234.273 23.3818   3
  -2   6   5 1663.74 34.3317   0
  -2   6   5 1665.97 35.6760   3
  -2   6   5 1770.77 38.4686   1
  -2   6   4 402.033 21.4907   1
  -2   6   4 427.561 20.4015   0
  -2   6   4 402.329 19.2111   3
   2  -6  -3 6201.55 52.8812   0
  -2   6   3 6355.29 47.4097   3
  -2   6   3 6373.44 58.0121   1
  -2   6   3 6478.93 53.8576   0
   2  -6  -2 1105.16 23.5578   0
  -2   6   2 1100.69 17.8638   3
  -2   6   2 1113.67 26.9236   1
  -2   6   1 2529.30 33.6339   1
  -2  -6   0 5464.76 22.8678   0
   2   6   0 5568.73 48.5811   3
  -2   6   0 5360.57 43.7050   1
   2   6   1 1669.71 18.1459   0
   2   6   1 1635.48 30.7717   3
   2   6   1 1661.09 29.8788   1
   2   6   2 3628.22 46.1922   3
   2   6   2 3555.19 43.1461   1
   2   6   3 8431.04 67.1832   1
   2   6   3 8339.30 75.2164   3
   2  -6   3 8288.29 66.5166   3
   2   6   4 2249.41 38.9732   1
   2  -6   4 2252.96 40.6663   3
   2   6   4 2168.30 44.8456   3
   2   6   5 127.047 18.5627   1
   2   6   5 152.615 16.3891   4
   2  -6   5 133.936 20.9589   3
   2   6   5 147.880 24.3395   3
   2  -6   6 468.272 30.4700   3
   2   6   6 424.648 31.6607   3
   2   6   6 453.199 25.3516   1
   2   6   7 473.236 27.7454   1
   2   6   7 510.006 37.2521   3
   2  -6   7 485.739 34.0763   3
   2  -6   8 470.138 37.0181   3
   2   6   8 481.589 38.6892   3
   2  -6   9 34.2938 31.8177   3
   2   6   9 51.8676 32.7807   3
   2  -6  10 50.5705 33.9990   3
   2   6  10-4.91516 28.9447   3
   2  -6  11 35.3022 31.8110   3
   2   6  11 64.7544 34.8188   3
   2   6  12 0.69115 41.9829   3
   2  -6  12-19.6347 39.3038   3
  -2   7  13-27.3911 38.3961   3
  -2   7  12 36.0222 31.2488   3
  -2   7  11 61.4525 28.6425   1
  -2   7  11-17.7595 32.1263   3
  -2   7  10-6.03572 25.5081   1
  -2   7  10 10.0311 30.4995   3
  -2   7   9-6.81526 26.3953   3
  -2   7   9-17.9590 22.5306   1
  -2   7   8-4.43571 22.9196   3
  -2   7   8 3.13621 21.5420   1
  -2   7   7 9.29741 20.5552   3
  -2   7   7-5.08453 20.9796   1
  -2   7   6-2.58806 18.8447   3
  -2   7   6-29.8823 19.6064   0
  -2   7   6-19.9715 20.5109   1
  -2   7   5-3.75116 16.9569   0
  -2   7   5 11.8881 19.9757   1
  -2   7   5 15.7862 17.7993   3
  -2   7   4 14.1814 18.8549   1
  -2   7   4-19.5405 15.7231   0
  -2   7   4 5.14882 14.1759   3
  -2   7   3 15.1208 11.5507   3
   2  -7  -3 4.76397 12.5651   0
  -2   7   3 3.68348 17.9284   1
  -2   7   2 9.80180 17.1379   1
  -2   7   2 15.1529 8.22747   3
   2  -7  -2 2.95225 11.8289   0
  -2   7   1 3.47177 7.18109   3
  -2   7   1-6.43196 14.5606   1
   2   7  -1-5.70135 13.7187   3
   2   7   0 10.9602 13.8185   3
  -2  -7   0-1.03371 5.41809   0
  -2   7   0 4.70811 13.5622   1
  -2   7  -1-7.41960 11.6866   1
   2   7   1 11.5437 15.1022   1
   2   7   1-4.59389 15.3211   3
   2   7   2 2.34282 9.75731   0
   2   7   2-9.25577 16.2839   1
   2   7   2 17.4635 17.1275   3
   2   7   3 5.55597 15.9345   1
   2   7   3-5.98124 18.9770   3
   2   7   4 10.4444 16.2193   1
   2  -7   4 1.96042 15.7362   3
   2   7   4-1.52093 19.4706   3
   2  -7   5-3.05021 20.6326   3
   2   7   5 14.8713 21.9433   3
   2   7   5 8.19457 17.8494   1
   2   7   6 2.83845 25.4598   3
   2   7   6 14.4564 19.2982   1
   2  -7   6 17.5449 23.7490   3
   2  -7   7 31.0699 25.7785   3
   2   7   7 36.2545 22.2854   1
   2   7   7 9.88440 27.6062   3
   2  -7   8 22.8133 30.8878   3
   2   7   8-0.61745 28.6805   3
   2  -7   9-6.37900 28.9975   3
   2   7   9 30.3899 30.1243   3
   2   7  10-32.8480 31.1573   3
   2  -7  10-29.9605 30.1995   3
   2   7  11 42.8358 32.4706   3
   2  -7  11-29.6191 34.9594   3
   2  -7  12 122.552 44.4640   3
   2   7  12-39.7515 37.6773   3
  -2   8  13 12.3121 38.2560   3
  -2   8  12 73.8078 25.0832   1
  -2   8  12 42.2695 36.6712   3
  -2   8  11 125.573 32.0878   3
  -2   8  11 98.0386 26.6851   1
  -2   8  10 856.032 40.6526   1
  -2   8  10 715.041 42.2066   3
  -2   8   9 188.981 29.0590   1
  -2   8   9 184.213 30.0355   3
  -2   8   8 994.884 39.9364   1
  -2   8   8 953.892 39.2570   3
  -2   8   7 237.844 25.9956   3
  -2   8   7 262.686 27.5123   1
  -2   8   6 2014.60 43.7890   3
  -2   8   6 1999.61 46.3487   1
  -2   8   5 1523.91 35.9536   0
  -2   8   5 1468.61 34.5473   3
  -2   8   5 1459.40 38.7877   1
  -2   8   4 1582.32 31.3094   3
   2  -8  -4 1597.27 33.7197   0
  -2   8   4 1621.93 37.1314   1
  -2   8   4 1618.16 33.2589   0
  -2   8   3 1819.13 37.0082   1
   2  -8  -3 1883.23 33.4263   0
  -2   8   3 1852.17 29.3227   3
  -2   8   2 1342.49 21.4662   3
  -2   8   2 1372.44 32.5483   1
   2  -8  -2 1315.97 26.9039   0
   2   8  -1 90.7576 17.1102   3
  -2   8   1 72.3940 15.6006   1
  -2   8   1 74.3029 8.50123   3
  -2  -8   0 4310.97 27.3661   0
  -2   8   0 4487.51 47.5665   1
   2   8   0 4464.81 48.4176   3
   2   8   1 6224.33 59.2925   3
  -2   8  -1 5513.09 49.6724   1
   2   8   1 6235.26 61.1033   1
   2   8   2 6116.46 43.8440   0
   2   8   2 6133.67 62.4431   3
   2   8   2 6142.93 62.2412   1
   2   8   3 529.937 24.8419   1
   2   8   3 527.029 26.8338   3
   2   8   3 550.852 19.2537   0
   2   8   4 466.156 25.3731   1
   2   8   4 428.262 27.6565   3
   2   8   5 777.676 34.1785   3
   2   8   5 798.005 31.0610   1
   2  -8   6 2231.72 51.5792   3
   2   8   6 2281.72 55.5125   3
   2   8   6 2147.72 48.2058   1
   2   8   7 1648.93 45.8521   1
   2  -8   7 1628.82 49.0194   3
   2   8   7 1562.82 54.0690   3
   2   8   8 71.6324 24.1238   1
   2  -8   8 118.110 29.5053   3
   2   8   8 91.3735 31.0658   3
   2   8   9 101.470 31.8456   3
   2  -8   9 71.4443 28.8126   3
   2  -8  10 300.191 39.3516   3
   2   8  10 197.886 37.0811   3
   2   8  11 66.5949 27.4970   3
  -2   9  13 60.9985 36.6984   3
  -2   9  12 5.39475 35.3041   3
  -2   9  12 36.1537 22.5021   1
  -2   9  11 11.6123 23.3456   1
  -2   9  11 14.6023 31.7441   3
  -2   9  10-33.4334 26.5652   1
  -2   9  10 17.0768 27.2582   3
  -2   9   9 43.8201 29.0047   1
  -2   9   9-13.2328 26.6321   3
  -2   9   8 11.4552 25.7800   3
  -2   9   8-24.2546 24.2035   1
  -2   9   7-8.21230 20.0870   3
  -2   9   7-18.3130 22.3636   1
  -2   9   6 24.9182 20.2633   3
  -2   9   6-7.90280 21.9436   1
  -2   9   5 10.3922 16.5580   3
  -2   9   5 9.24371 20.8580   1
  -2   9   5-21.8126 17.6523   0
  -2   9   4-11.8780 19.9299   1
  -2   9   4 3.23231 14.6707   3
   2  -9  -4 3.71822 15.1606   0
  -2   9   3-4.29426 17.9718   1
   2  -9  -3 6.07703 13.5252   0
  -2   9   3 5.84180 12.3060   3
  -2   9   2-8.90683 16.5139   1
  -2   9   2 0.71513 9.06289   3
   2  -9  -2-6.12093 14.0960   0
   2   9  -1 16.8233 17.2253   3
  -2   9   1-5.07055 16.1570   1
  -2   9   1-5.79300 7.94329   3
  -2  -9   0-20.6827 6.88878   0
  -2   9   0-3.06480 9.28499   3
   2   9   0 5.58905 15.7103   3
  -2   9   0 3.76462 14.8358   1
   2   9   0-17.3995 17.3774   1
  -2   9  -1 3.76993 15.6239   1
   2   9   1 20.3874 21.0775   1
   2   9   1 3.60706 15.8794   3
   2   9   2-8.28253 15.8389   3
   2   9   2 9.32459 18.6620   1
   2   9   2 7.96283 10.2827   0
   2   9   3 8.05155 11.1132   0
   2   9   3-4.59290 17.1506   1
   2   9   3-18.3545 17.4227   3
   2   9   4 4.60879 18.1234   1
   2   9   4 1.28737 19.1726   3
   2   9   4 20.8672 13.8416   0
   2   9   5-17.8689 14.5174   0
   2   9   5 2.19347 19.9472   1
   2   9   5 6.20785 21.7192   3
   2   9   6-15.6607 22.2551   1
   2   9   6 0.97991 23.0517   3
   2   9   7-6.74859 23.7190   1
   2   9   7-12.3806 28.0442   3
   2   9   8 15.4048 32.3547   3
   2   9   8 22.9243 22.8437   1
   2   9   9-21.8069 33.2381   3
   2   9  10 32.4556 35.9455   3
   2   9  11-7.96429 28.6249   3
  -2  10  13 313.584 44.9347   3
  -2  10  12-48.8820 22.5558   1
  -2  10  12-44.8355 37.6339   3
  -2  10  11 18.0061 31.6576   3
  -2  10  11 172.080 29.2561   1
  -2  10  10 103.509 28.4225   1
  -2  10  10 171.960 34.2691   3
  -2  10   9 10.9037 27.7763   1
  -2  10   9 34.0597 25.4072   3
  -2  10   8 661.503 38.4860   1
  -2  10   8 606.220 35.7999   3
  -2  10   7 197.683 27.1061   1
  -2  10   7 197.723 25.1560   3
  -2  10   6 285.032 24.2213   3
  -2  10   6 278.394 26.9427   1
  -2  10   5 206.035 19.7180   3
  -2  10   5 204.964 20.7335   0
  -2  10   5 228.462 26.3355   1
  -2  10   4 466.263 27.6184   1
  -2  10   4 465.379 21.0784   3
   2 -10  -4 443.192 23.0319   0
  -2  10   3 1152.11 25.6926   3
   2 -10  -3 1105.72 28.9496   0
  -2  10   3 1128.77 34.7653   1
  -2  10   2 541.755 16.6247   3
  -2  10   2 503.011 25.6869   1
   2 -10  -2 515.347 22.2859   0
  -2  10   1 1595.39 24.4190   3
   2  10  -1 1666.47 34.8916   3
  -2  10   1 1603.20 35.6548   1
  -2  10   0 1573.23 35.1918   1
   2  10   0 1600.02 34.0171   3
  -2  10   0 1668.75 26.0970   3
   2  10   0 1578.43 36.7433   1
  -2 -10   0 1647.65 20.9677   0
   2  10   1 4574.63 55.3317   3
  -2  10  -1 4364.87 52.6865   1
   2  10   1 4694.78 60.3731   1
   2  10   2 563.565 27.2580   1
   2  10   2 490.298 24.0555   3
   2  10   3 70.5351 19.3076   3
   2  10   3 49.3290 12.2852   0
   2  10   3 84.3671 20.3790   1
   2  10   4 106.212 22.8643   3
   2  10   4 132.181 15.5719   0
   2  10   4 82.1388 21.9410   1
   2  10   5 189.023 25.1023   3
   2  10   5 141.687 24.4181   1
   2  10   6 1017.80 39.1196   1
   2  10   6 1046.95 42.3503   3
   2  10   7 394.934 32.8379   1
   2  10   7 317.598 34.3573   3
   2  10   8 1286.06 46.1987   1
   2  10   8 1329.24 56.9120   3
   2  10   9 256.244 39.9236   3
   2  10  10 216.726 41.8911   3
   2  10  11 118.691 30.9056   3
  -2  11  13 71.6866 42.7059   3
  -2  11  12-18.3120 26.9239   1
  -2  11  12-27.7838 36.1625   3
  -2  11  11-85.2148 28.7495   3
  -2  11  11-38.4165 24.2949   1
  -2  11  10-13.3066 29.5460   3
  -2  11  10 30.2289 27.3225   1
  -2  11   9-112.686 28.8560   1
  -2  11   9-12.7723 25.0139   3
  -2  11   8 15.4351 25.0931   3
  -2  11   8-11.6469 24.5872   1
  -2  11   7 36.5227 26.3340   1
  -2  11   7 2.13643 21.4664   3
  -2  11   6 8.47340 23.8492   1
  -2  11   6-9.03380 18.1501   3
  -2  11   5 0.52308 22.1861   1
  -2  11   5-8.04378 15.2804   3
   2 -11  -4 7.65876 16.0832   0
  -2  11   4 4.51552 21.4829   1
  -2  11   4-18.6096 14.2807   3
  -2  11   3 13.4410 21.6150   1
  -2  11   3 4.53344 12.2030   3
   2 -11  -3-10.0947 15.0261   0
  -2  11   2 1.89768 20.3129   1
  -2  11   2 1.77401 9.31046   3
   2 -11  -2-4.03048 14.3907   0
  -2  11   1-7.93493 17.7467   1
  -2  11   1-15.1022 9.22923   3
   2  11  -1-12.9288 16.0656   3
   2  11   0 21.5712 20.0390   1
  -2  11   0-7.05247 9.85702   3
  -2 -11   0-1.50350 8.31238   0
   2  11   0 1.20228 15.7234   3
  -2  11   0-8.82267 17.2429   1
  -2 -11  -1 9.45017 9.03227   0
  -2  11  -1 2.12400 16.7796   1
   2  11   1 1.38750 15.8449   3
   2  11   1 2.53044 21.5700   1
   2  11   2-2.04949 19.8080   1
   2  11   2-7.63195 17.2988   3
   2  11   3-5.32207 21.1438   1
   2  11   3-8.13474 19.0598   3
   2  11   4-8.55718 22.3748   1
   2  11   4-2.12254 21.5312   3
   2  11   5-17.5550 21.6752   3
   2  11   5 1.03112 19.6516   1
   2  11   6 13.0092 25.5572   1
   2  11   6 14.9736 24.6110   3
   2  11   7 1.02575 26.0081   1
   2  11   7 20.7053 28.5254   3
   2  11   8-3.59500 25.0295   1
   2  11   8-15.1261 30.4832   3
   2  11   9-55.9173 32.2472   3
   2  11  10 93.4425 37.3474   3
   2  11  11-12.5281 32.5203   3
  -2  12  13 14.8801 32.9586   3
  -2  12  12-22.8853 30.1132   3
  -2  12  12 55.9628 30.2294   1
  -2  12  11 22.3517 28.8912   3
  -2  12  11-97.0148 28.1790   1
  -2  12  10 41.9278 29.0698   1
  -2  12  10 10.3181 28.9820   3
  -2  12   9 237.306 29.1820   3
  -2  12   9 210.301 30.8896   1
  -2  12   8 24.0533 28.9631   1
  -2  12   8 73.7896 27.0473   3
  -2  12   7 547.036 32.4608   3
  -2  12   7 593.745 37.0288   1
  -2  12   6 457.254 28.2168   3
  -2  12   6 514.169 32.9825   1
  -2  12   5 20.1556 15.9739   3
  -2  12   5 9.77839 23.3644   1
  -2  12   4 41.7904 24.4382   1
   2 -12  -4 42.7545 15.6736   0
  -2  12   4 27.4263 14.6154   3
  -2  12   3 64.2545 13.6165   3
   2 -12  -3 21.4138 16.2269   0
  -2  12   3 71.0083 22.2065   1
  -2  12   2 1499.59 27.7855   3
  -2  12   2 1425.98 39.1857   1
   2 -12  -2 1457.56 32.5791   0
  -2  12   1 677.109 19.6473   3
  -2  12   1 728.111 29.7979   1
   2  12  -1 758.663 28.6225   3
   2  12   0 469.909 28.8394   1
  -2  12   0 483.149 26.7243   1
   2  12   0 460.387 23.9566   3
  -2  12   0 514.459 17.8134   3
  -2 -12   0 484.690 15.0264   0
   2  12   1 407.503 24.2211   3
   2  12   1 390.509 27.3571   1
  -2  12  -1 363.476 24.3692   1
  -2  12  -2 235.363 20.8920   1
   2  12   2 272.445 25.8743   1
   2  12   2 252.201 22.3421   3
   2  12   3 126.703 21.7840   3
   2  12   3 113.716 23.6730   1
   2  12   4 208.545 27.5176   1
   2  12   4 171.298 23.7820   3
   2  12   5 144.625 26.9295   3
   2  12   5 178.347 27.3189   1
   2  12   6 1888.63 53.7655   3
   2  12   6 1836.52 51.0434   1
   2  12   7 934.731 41.9415   1
   2  12   7 992.035 44.9382   3
   2  12   8 1118.16 56.8725   3
   2  12   8 1025.04 46.5061   1
   2  12   9 48.4140 35.0158   3
   2  12  10 22.0487 34.8655   3
   2  12  11 182.996 38.7964   3
  -2  13  12 44.3805 26.0547   1
  -2  13  12-108.294 31.4176   3
  -2  13  11 45.4052 27.3633   3
  -2  13  11-4.16872 24.1619   1
  -2  13  10 7.09320 26.0448   3
  -2  13   9 43.5562 31.8973   1
  -2  13   9 46.8455 27.4033   3
  -2  13   8-10.2931 24.7068   3
  -2  13   8-12.3591 26.3033   1
  -2  13   7-31.2531 27.9356   1
  -2  13   7 20.0764 22.0501   3
  -2  13   6 6.21717 24.7808   1
  -2  13   6 17.5405 17.8409   3
  -2  13   5-17.3366 25.1539   1
  -2  13   5-5.09278 16.4605   3
  -2  13   4-14.9106 25.7311   1
   2 -13  -4 12.6857 17.7056   0
  -2  13   4 5.51545 14.2764   3
   2 -13  -3-13.7150 16.2974   0
  -2  13   3 9.23579 13.2189   3
  -2  13   3 7.70674 22.5710   1
  -2  13   2 27.4958 21.7849   1
  -2  13   2-13.3672 10.9293   3
   2  13  -2-26.4366 18.6131   3
   2 -13  -2 4.71434 15.3970   0
   2  13  -1-19.6043 20.2144   1
   2  13  -1 9.10914 16.4863   3
  -2  13   1-3.69696 19.8373   1
   2  13   0-5.23477 24.4043   1
  -2  13   0-16.3451 21.2108   1
   2  13   0 14.1679 16.5586   3
   2  13   1 4.06982 24.1886   1
   2  13   1 8.66057 18.6032   3
  -2  13  -1-2.94258 19.6374   1
   2  13   2 0.65232 24.1054   1
   2  13   2-6.48816 18.0287   3
  -2  13  -2 18.7923 19.8501   1
   2  13   3 7.82180 23.8033   1
   2  13   3 5.94008 18.7907   3
   2  13   4-2.18214 21.6114   3
   2  13   4 24.0042 23.2040   1
   2  13   5 21.9248 25.4217   1
   2  13   5 26.0106 25.5639   3
   2  13   6 35.8518 26.0603   1
   2  13   6 40.8882 25.8178   3
   2  13   7-33.1856 25.4960   1
   2  13   7-19.6493 27.9045   3
   2  13   8-21.6680 27.9615   3
   2  13   8 33.8696 26.2045   1
   2  13   9 45.2829 30.1284   3
   2  13  10 12.3501 30.3980   3
  -2  14  11 135.484 35.3714   1
  -2  14  10-18.0419 32.1664   1
  -2  14   9-4.44329 29.0933   1
  -2  14   9 62.4941 28.5007   3
  -2  14   8 314.286 34.7985   1
  -2  14   7 41.3340 29.1681   1
  -2  14   6 17.6935 27.9195   1
  -2  14   5 351.429 31.5899   1
  -2  14   4 151.204 27.8844   1
   2 -14  -3 782.825 29.4625   0
  -2  14   3 833.017 36.8959   1
   2 -14  -2 485.017 23.8175   0
   2  14  -2 555.495 29.6590   3
  -2  14   2 465.022 31.3228   1
   2  14  -1 445.275 25.1414   3
   2  14  -1 399.473 28.5369   1
  -2  14   1 470.728 30.3578   1
  -2  14   0 1757.35 44.9372   1
   2  14   0 1843.48 41.5163   3
   2  14   0 1849.90 49.1223   1
   2  14   1 1492.56 39.5904   3
  -2  14  -1 1518.13 42.2980   1
   2  14   1 1504.08 45.6393   1
  -2  14  -2 950.920 34.8776   1
   2  14   2 983.286 35.1902   3
   2  14   2 1142.15 41.7366   1
   2  14   3 236.584 29.7189   1
   2  14   3 244.824 24.5240   3
  -2  14  -3 155.338 21.3471   1
   2  14   4 1085.11 39.7769   3
   2  14   4 1164.21 44.1877   1
   2  14   5 935.168 40.2848   3
   2  14   5 1055.97 44.7803   1
   2  14   6 86.3316 28.1051   1
   2  14   6 107.996 29.1809   3
   2  14   7 29.8850 25.8075   1
   2  14   7-1.39071 28.7095   3
   2  14   8 161.920 29.3542   1
   2  14   8 109.939 32.4261   3
   2  14   9 75.1173 36.4213   3
   2  14  10 27.0808 39.1763   3
  -2  15  11 39.7652 33.1299   1
  -2  15  10-4.94701 30.8119   1
  -2  15   8 23.9498 28.6785   1
  -2  15   7-13.0301 31.2134   1
  -2  15   6 26.3798 26.9307   1
  -2  15   5-10.4133 28.4175   1
  -2  15   4-17.8948 26.8634   1
  -2  15   3 13.1771 25.9571   1
   2  15  -2-9.73772 18.7226   3
   2 -15  -2 15.3609 12.8469   0
  -2  15   2 13.1621 24.8263   1
   2  15  -1-9.73577 19.0696   3
  -2  15   1 2.58988 21.9309   1
   2  15  -1 36.6020 26.1810   1
   2  15   0 24.9280 18.6734   3
   2  15   0-3.92779 26.3388   1
  -2  15   0 26.7278 22.8186   1
   2  15   1 1.21679 20.1182   3
  -2  15  -1 16.0910 22.4195   1
   2  15   1-19.2173 27.5178   1
   2  15   2-9.73795 25.2957   1
   2  15   2-46.6114 21.1402   3
  -2  15  -2 1.66502 22.7712   1
   2  15   3-8.64597 26.5963   1
  -2  15  -3 18.5278 22.8901   1
   2  15   3 19.4415 21.5091   3
   2  15   4 7.76141 24.7176   3
   2  15   4 34.6604 29.1498   1
   2  15   5 30.2388 26.9903   3
   2  15   5 15.3274 27.7231   1
   2  15   6 9.09009 23.8531   3
   2  15   6-18.8330 28.7904   1
   2  15   7-8.52660 26.0416   3
   2  15   7 30.7532 26.7635   1
   2  15   8 32.8216 27.7675   3
   2  15   8 25.1166 25.8114   1
   2  15   9-17.6164 26.8865   1
   2  15   9 37.3119 26.4047   3
   2  15  10-104.003 29.0388   3
  -2  16  11 8.20024 31.9719   1
  -2  16  10 125.211 36.8773   1
  -2  16   9 24.3718 32.6888   1
  -2  16   8 86.6079 29.0348   1
  -2  16   7 949.765 48.2714   1
  -2  16   6 261.673 35.9457   1
  -2  16   5 18.3158 26.5697   1
  -2  16   4 79.4451 29.2633   1
   2  16  -3 395.730 29.1885   3
  -2  16   3 430.395 35.4093   1
   2  16  -2 1752.17 49.5969   1
   2  16  -2 1923.61 47.3654   3
  -2  16   2 1965.77 52.8531   1
   2  16  -1 1260.88 46.3177   1
  -2  16   1 1269.60 45.2384   1
   2  16  -1 1198.15 38.4223   3
  -2  16   0 1291.11 43.9599   1
   2  16   0 1182.92 37.8839   3
   2  16   0 1237.59 46.4554   1
   2  16   1 208.258 24.7968   3
   2  16   1 235.326 31.7877   1
  -2  16  -1 212.783 27.9663   1
   2  16   2 1004.26 43.6518   1
  -2  16  -2 934.549 38.8921   1
   2  16   2 939.494 36.4949   3
  -2  16  -3 631.464 34.4373   1
   2  16   3 686.602 38.4734   1
   2  16   3 715.895 35.0756   3
   2  16   4 72.8514 25.5487   3
   2  16   4 129.425 32.2335   1
  -2  16  -4 36.3633 20.9008   1
   2  16   5 369.001 34.5030   3
   2  16   5 420.438 36.6908   1
   2  16   6 397.908 34.6069   1
   2  16   6 486.229 36.0630   3
   2  16   7 32.4400 28.1791   1
   2  16   7-3.66639 26.6117   3
   2  16   8-3.67557 28.0943   1
   2  16   8 9.24093 30.6759   3
   2  16   9 38.8570 32.5147   1
   2  16   9 154.244 37.3223   3
  -2  17  10 42.2165 32.8768   1
  -2  17   9-36.7553 32.6165   1
  -2  17   8 2.57229 33.3175   1
  -2  17   7 22.6015 30.3983   1
  -2  17   6 65.5856 29.2370   1
  -2  17   5 10.5304 31.1878   1
  -2  17   4-19.8130 28.5591   1
   2  17  -3-1.50142 22.2211   3
  -2  17   3 2.50522 27.4732   1
   2  17  -2 16.8959 27.5528   1
   2  17  -2 21.6559 21.1651   3
  -2  17   2 29.6445 29.5447   1
   2  17  -1 34.1792 21.7033   3
   2  17  -1-9.00499 29.2050   1
  -2  17   1 7.53685 26.6693   1
   2  17   0-7.98856 21.8327   3
  -2  17   0 40.3903 25.1987   1
   2  17   0 68.0655 31.5574   1
  -2  17  -1-21.9940 25.4372   1
   2  17   1-19.8087 20.9403   3
   2  17   1 17.8982 30.4885   1
  -2  17  -2 16.3223 23.8274   1
   2  17   2-6.14687 29.0925   1
   2  17   2-24.3098 22.1744   3
   2  17   3 18.9909 22.1243   3
  -2  17  -3 0.06968 21.2667   1
   2  17   3-6.26646 30.8532   1
   2  17   4 28.4999 25.6407   3
   2  17   4 74.5816 32.0752   1
   2  17   5-22.3736 28.6369   1
   2  17   5 18.6292 25.4448   3
   2  17   6-48.4826 29.5063   1
   2  17   6 0.46674 26.0280   3
   2  17   7-86.2464 29.9026   3
   2  17   7 14.3721 30.6277   1
   2  17   8 24.8390 26.1306   3
   2  17   8 9.19914 29.8587   1
   2  17   9-36.2319 31.8520   1
   2  17   9-28.3566 33.0501   3
  -2  18  10 59.4346 29.8345   1
  -2  18   9 41.9963 30.9087   1
  -2  18   8 2.82380 30.7809   1
  -2  18   7 161.150 35.4760   1
  -2  18   6 162.681 34.5075   1
  -2  18   5 242.155 35.7606   1
  -2  18   4 135.402 34.3632   1
   2  18  -3 78.3661 25.6542   1
   2  18  -3 87.8370 23.9128   3
  -2  18   3 101.235 28.7869   1
   2  18  -2 799.698 35.2130   3
   2  18  -2 737.748 40.3399   1
  -2  18   2 844.063 42.3417   1
   2  18  -1 546.859 31.9417   3
  -2  18   1 580.477 39.3697   1
   2  18  -1 515.972 39.3500   1
   2  18   0 1438.26 44.2847   3
  -2  18   0 1456.39 50.0933   1
   2  18   0 1503.31 53.3710   1
  -2  18  -1 323.039 32.5103   1
   2  18   1 331.484 28.1274   3
   2  18   1 430.005 38.3350   1
   2  18   2 11.6466 21.1150   3
   2  18   2 5.59773 26.9641   1
  -2  18  -2 35.8587 24.6384   1
  -2  18  -3 3.90498 22.1960   1
   2  18   3 2.47415 22.3186   3
   2  18   3 18.6298 28.9464   1
   2  18   4 86.3279 31.8782   1
   2  18   4 57.8090 24.0581   3
   2  18   5 208.146 30.0699   3
   2  18   5 132.489 34.7180   1
   2  18   6-44.4424 31.9559   1
   2  18   6 38.5176 27.3663   3
   2  18   7 19.5553 31.4554   1
   2  18   7-31.1492 25.5996   3
   2  18   8 80.4400 26.7216   1
   2  18   8 204.302 34.0486   3
   2  18   9 3.59994 30.6720   1
   2  18   9 100.300 28.7249   3
  -2  19   9 1.51171 34.7486   1
  -2  19   8-61.5073 33.1649   1
  -2  19   7 27.0283 32.2405   1
  -2  19   6 26.3288 32.8060   1
  -2  19   5-2.34854 32.0575   1
  -2  19   4-26.6083 32.1473   1
   2  19  -3 6.92427 24.9527   1
  -2  19   3 16.3881 30.7570   1
   2  19  -2 11.3546 30.2156   1
  -2  19   2-24.5119 31.2817   1
   2  19  -1 24.9971 29.7144   1
  -2  19   1 29.8922 31.5614   1
  -2  19   0-9.49047 28.2106   1
   2  19   0 7.52712 27.8441   1
   2  19   1 29.6384 29.5641   1
  -2  19  -1 0.08149 24.6589   1
   2  19   2 4.33145 31.0087   1
  -2  19  -2-0.80746 24.6344   1
   2  19   3-20.7417 31.8371   1
  -2  19  -3 19.7880 27.4205   1
   2  19   4 82.0763 28.9258   1
   2  19   5 25.2966 31.2084   1
   2  19   7 89.6161 29.2453   1
  -2  20   8-82.6870 30.6446   1
  -2  20   7 42.8702 34.9939   1
  -2  20   6 76.9939 35.2840   1
  -2  20   5 292.561 39.5769   1
   2  20  -4 41.3968 26.3313   1
  -2  20   4 23.5850 34.2130   1
   2  20  -3 172.491 30.3907   1
  -2  20   3 146.583 33.0584   1
   2  20  -2 59.1969 30.5885   1
  -2  20   2 80.1298 29.1592   1
   2  20  -1 51.2191 28.9895   1
  -2  20   1 64.3913 32.4468   1
  -2  20   0-24.9668 29.3890   1
   2  20   0-23.7991 27.7412   1
  -2  20  -1 140.120 31.0569   1
   2  20   1 117.118 31.5614   1
  -2  20  -2-0.95656 24.7137   1
   2  20   2 49.3811 34.1606   1
  -2  20  -3 88.4656 26.7009   1
   2  20   3 45.0962 29.3242   1
   2  20   4 73.3306 34.7054   1
   2  20   5 83.0786 32.4239   1
   2  20   7 158.588 32.9721   1
  -2  21   7 19.9986 31.9524   1
  -2  21   6 16.8220 35.4605   1
  -2  21   5 52.3114 36.0924   1
  -2  21   4-16.3236 29.4852   1
   2  21  -4-11.9326 30.1224   1
  -2  21   3 11.6990 30.4753   1
   2  21  -3-10.8794 32.3847   1
  -2  21   2-1.38407 32.5247   1
   2  21  -2 3.20478 27.4455   1
   2  21  -1 13.5033 33.0739   1
  -2  21   1 1.25298 27.4008   1
   2  21   0-1.73300 30.6761   1
  -2  21   0 10.5906 30.2314   1
  -2  21  -1 21.2479 28.9261   1
   2  21   1-11.7823 29.1097   1
  -2  21  -2-58.9088 29.0217   1
   2  21   2 49.2045 33.6694   1
  -2  21  -3-9.24869 25.6152   1
   2  21   3-35.7484 35.1256   1
   2  21   4 33.3792 33.8945   1
   2  21   5 13.5319 29.6097   1
  -2  22   7 32.1475 36.7306   1
  -2  22   6 95.7309 40.1980   1
  -2  22   5 113.060 34.0573   1
   2  22  -5 104.586 28.5301   1
  -2  22   4 8.83573 33.7276   1
   2  22  -4 42.1998 33.9779   1
  -2  22   3 85.4091 35.8936   1
   2  22  -3 57.4577 33.7375   1
  -2  22   2-4.95136 31.6587   1
   2  22  -2 83.7654 34.7225   1
   2  22  -1-16.6134 27.0816   1
  -2  22   1 0.00000 26.4123   1
  -2  22   0 28.7445 31.4816   1
   2  22   0 52.2744 35.9796   1
  -2  22  -1 39.7456 31.2690   1
   2  22   1 18.0727 32.3968   1
  -2  22  -2 35.7271 21.9857   1
   2  22   2 30.5130 29.3145   1
   2  22   3 58.9445 31.3537   1
   2  22   4 100.196 39.1874   1
   2  22   5 178.366 40.2917   1
   2  23  -6-1.00416 28.6761   1
  -2  23   5-45.1025 34.8446   1
   2  23  -5 24.7469 28.9954   1
  -2  23   4-12.6845 31.7029   1
   2  23  -4-12.1698 34.4372   1
  -2  23   3 1.83986 33.1670   1
   2  23  -3-7.95777 29.1652   1
  -2  23   2-2.23613 28.3000   1
   2  23  -2 33.6840 29.3355   1
  -2  23   1-4.02743 30.8488   1
   2  23  -1-36.4438 32.7052   1
  -2  23   0 23.8745 31.6089   1
   2  23   0 22.9457 35.2812   1
   2  23   1-20.5126 33.0369   1
  -2  23  -1-55.6439 27.4996   1
  -2  23  -2 33.3626 32.0642   1
   2  23   2 1.42478 29.0682   1
   2  23   3-9.99396 33.8762   1
   2  23   4-36.4664 36.0082   1
   2  24  -6 47.7099 29.2343   1
   2  24  -5 14.0297 28.8589   1
  -2  24   4 76.1685 39.0046   1
   2  24  -4-28.3697 32.7375   1
  -2  24   3 78.0149 33.4509   1
   2  24  -3 168.076 37.2728   1
   2  24  -2 46.6172 37.4052   1
  -2  24   2 90.6739 37.3486   1
   2  24  -1 89.4921 33.2204   1
  -2  24   1-71.8027 33.2041   1
  -2  24   0 52.9957 32.4431   1
   2  24   0-0.60138 30.9260   1
   2  24   1 156.905 38.8474   1
  -2  24  -1 112.540 27.6911   1
  -2  24  -2 51.9340 34.5270   1
   2  24   2 7.54138 32.4142   1
   2  25  -3-0.38454 35.7498   1
   2  25  -2-4.25466 30.5390   1
  -2  25   2 106.166 40.1373   1
   2  25  -1 81.0977 32.6889   1
  -2  25   1-47.7304 34.5779   1
   2  25   0-14.8041 32.9672   1
  -2  25   0 13.1705 29.4210   1
  -2  25  -1 55.7719 34.7547   1
  -3   0  13-10.9009 36.3021   3
  -3   0  12 29.7241 28.0308   1
  -3   0  12 28.9655 30.3593   3
  -3   0  11 21.6323 32.8371   3
  -3   0  11 49.6472 29.1271   1
  -3   0  10 13.0086 28.0678   3
  -3   0  10-11.8208 25.0397   1
  -3   0   9-26.7041 24.8768   1
  -3   0   9-3.89026 26.0465   3
  -3   0   8-16.3735 25.0570   3
  -3   0   8-18.7914 23.4512   1
  -3   0   7-7.37473 22.0286   3
  -3   0   7 8.01737 20.5261   1
  -3   0   6 23.9797 20.1970   1
  -3   0   6 1.82761 20.7245   3
  -3   0   5-9.46515 17.8764   1
   3   0  -5-13.7398 12.7907   2
  -3   0   5 12.7927 16.6794   3
   3   0  -4-7.36635 13.8665   2
  -3   0   4 10.4874 15.9991   3
  -3   0   4 9.68885 17.5303   1
  -3   0   3 10.0252 15.2998   1
   3   0  -3 4.04311 13.8428   2
  -3   0   3 2.66378 14.0275   0
  -3   0   2 3.41114 14.2331   1
   3   0  -2 19.2842 13.1237   2
  -3   0   2 9.33495 11.5296   0
   3   0  -2 14.0455 11.1336   0
   3   0  -1 4.71631 9.86665   3
   3   0  -1-1.87135 12.5232   4
   3   0   0-8.61139 15.9112   4
   3   0   0 2.03283 9.54333   3
   3   0   1 7.06968 13.0038   3
   3   0   2 12.1615 15.1546   3
   3   0   3-5.57838 7.05773   1
   3   0   3-1.96540 15.9598   3
   3   0   4-40.6721 8.61858   1
   3   0   4 12.9929 18.9591   3
   3   0   5 7.36019 10.0754   1
   3   0   5-0.90519 20.3902   3
   3   0   6-12.2506 22.9931   3
   3   0   7 20.3248 25.8708   3
   3   0   8 0.58203 29.1128   3
   3   0   9-28.7370 32.8036   3
   3   0  10 39.7802 36.6150   3
   3   0  11 32.4438 32.1204   3
   3   0  12-76.3925 41.3588   3
  -3   1  14 90.8815 42.1906   3
  -3  -1  14 16.0570 40.7005   3
  -3   1  13 30.2084 39.2475   3
  -3  -1  13-10.1772 31.3790   3
  -3  -1  12 11.3573 29.3157   1
  -3  -1  12 20.7657 33.3686   3
  -3   1  12 4.65762 31.4156   3
  -3   1  12 27.2388 29.3000   1
  -3   1  11 45.2892 27.1192   1
  -3   1  11 34.3814 30.7224   3
  -3  -1  11 112.604 34.5889   3
  -3  -1  11 39.5515 26.8033   1
  -3  -1  10 36.2738 28.1611   3
  -3   1  10-50.0279 27.0716   1
  -3   1  10 0.32817 30.5441   3
  -3  -1  10 29.5041 26.0280   1
  -3  -1   9 1792.33 49.0781   1
  -3   1   9 1593.06 50.3317   3
  -3  -1   9 1622.64 52.0744   3
  -3   1   9 1756.52 47.3252   1
  -3  -1   8 224.386 25.4241   1
  -3   1   8 252.199 28.5555   3
  -3  -1   8 290.290 30.9517   3
  -3   1   8 252.097 24.4300   1
  -3   1   7 1765.64 41.3758   1
  -3   1   7 1699.92 43.5340   3
  -3  -1   7 1585.30 42.4539   3
  -3  -1   7 1671.84 41.3590   1
   3  -1  -6 122.309 14.2130   2
  -3   1   6 158.892 21.8552   1
  -3   1   6 182.137 21.3849   3
  -3  -1   6 98.8489 23.8535   3
  -3  -1   6 127.857 22.6802   1
  -3   1   5 2032.95 37.5920   3
  -3   1   5 2162.85 38.4892   1
   3  -1  -5 2026.50 29.8496   2
  -3  -1   5 2215.74 39.8299   1
  -3  -1   5 2099.45 39.9855   3
  -3  -1   4 3427.76 42.0033   1
   3  -1  -4 3226.60 35.5778   2
   3   1  -4 3273.01 36.7925   2
  -3   1   4 3309.18 40.5156   0
  -3   1   4 3434.79 42.0911   1
  -3   1   4 3200.83 38.3468   3
  -3   1   3 59.7975 14.9322   0
   3   1  -3 48.5560 15.7332   2
   3  -1  -3 60.2181 12.9366   0
  -3   1   3 48.1373 15.5366   1
  -3  -1   3 54.2881 16.7147   1
  -3  -1   2 26343.2 86.7354   1
  -3  -1   2 26073.4 73.1714   0
   3   1  -2 26395.1 86.7909   2
   3   1  -2 26220.5 72.5599   0
  -3   1   2 26421.5 82.5769   1
   3  -1  -2 26267.1 82.6323   0
   3  -1  -2 26409.0 67.2415   4
   3   1  -1 50978.0 440.837   3
   3   1  -1 48654.8 110.354   2
   3   1  -1 48299.5 424.899   4
   3  -1  -1 48496.7 106.309   4
   3  -1   0 3422.47 26.3726   3
   3   1   0 3643.10 29.7116   2
   3   1   0 3461.94 31.0931   3
   3   1   0 3365.09 33.8577   4
   3   1   1 5290.56 45.0250   4
   3  -1   1 5532.94 41.6945   3
   3   1   1 5499.87 44.7938   3
   3   1   2 2182.35 33.8277   3
   3  -1   2 2179.14 32.6018   3
   3   1   2 2091.24 20.7242   1
   3   1   3 3922.56 49.7117   3
   3  -1   3 3745.03 28.4905   1
   3   1   3 3841.37 32.6419   1
   3  -1   3 3937.74 48.8199   3
   3   1   4 3806.20 55.2186   3
   3  -1   4 3797.09 55.0883   3
   3  -1   4 3607.08 34.7859   1
   3   1   4 3555.75 36.0277   1
   3   1   5 194.258 13.6259   1
   3  -1   5 158.000 13.7768   1
   3  -1   5 186.978 22.4606   3
   3   1   5 169.004 23.4029   3
   3   1   6 32.1232 25.1407   3
   3  -1   6 10.3887 22.1346   3
   3   1   7 3036.27 63.7290   3
   3  -1   7 3172.25 64.8525   3
   3  -1   8 159.281 31.7134   3
   3   1   8 229.364 34.6683   3
   3  -1   9 86.4622 32.8007   3
   3   1   9 94.0693 33.0632   3
   3   1  10 2.31331 34.5819   3
   3  -1  10 111.506 37.6624   3
   3   1  11 45.4343 33.1985   3
   3  -1  11 0.36769 35.0873   3
   3   1  12 13.2636 36.2810   3
   3  -1  12 23.2492 41.0737   3
  -3   2  14 29.7195 37.9402   3
  -3   2  13 25.7905 29.4974   3
  -3  -2  13-8.58209 33.8156   3
  -3   2  12-32.9081 29.8483   1
  -3  -2  12 2.51243 35.3928   3
  -3   2  12-36.2212 33.9203   3
  -3   2  11 2.06228 28.4524   3
  -3   2  11-38.9230 27.3200   1
  -3  -2  11 23.6036 28.1812   1
  -3  -2  11-25.5087 29.7869   3
  -3  -2  10 0.43347 25.5958   1
  -3   2  10 31.7525 30.0395   3
  -3   2  10 4.42403 22.1223   1
  -3  -2  10-16.6073 30.7186   3
  -3  -2   9-0.44255 27.7600   3
  -3   2   9 11.7659 22.6567   1
  -3  -2   9-15.9242 23.5756   1
  -3   2   9 9.90003 25.8805   3
  -3  -2   8-10.6825 25.3307   3
  -3   2   8-17.4191 22.1853   3
  -3   2   8-4.30017 21.3086   1
  -3  -2   8-15.4994 21.5733   1
  -3   2   7-21.1578 18.8570   1
  -3  -2   7-13.2712 22.6627   3
  -3   2   7-19.3623 22.3275   3
  -3  -2   7 8.50374 22.1854   1
  -3   2   6-19.5707 19.4876   3
  -3  -2   6 2.53097 21.5972   1
  -3   2   6 15.4365 18.4138   1
  -3  -2   6-8.35556 23.3498   3
   3  -2  -6-3.81280 12.9361   2
  -3   2   5-2.81525 15.8833   3
   3  -2  -5 5.65347 12.1472   2
  -3  -2   5-2.10867 19.1107   1
  -3   2   5-18.6386 18.5503   1
  -3   2   4 8.79363 17.1512   1
  -3   2   4 7.69431 14.0605   0
  -3  -2   4-2.26987 17.9371   1
  -3   2   4 11.0142 14.5761   3
   3  -2  -3 4.35110 13.9316   0
  -3  -2   3 6.23332 16.9777   1
  -3   2   3-3.35054 15.8748   1
  -3   2   3-3.53391 15.0658   0
  -3   2   3 16.3514 12.3934   3
   3  -2  -2 2.06958 11.4973   0
  -3   2   2-9.69513 12.8051   1
  -3  -2   2 1.46277 9.03743   0
   3  -2  -2-2.20085 10.1394   4
   3   2  -2 4.52752 15.4855   2
   3   2  -1-20.8133 14.1734   2
   3   2  -1 17.7693 13.8063   3
   3   2   0 16.1652 14.7937   4
   3   2   0 8.26524 10.7116   2
   3   2   0-1.95849 11.1452   3
   3   2   1 15.4586 7.94307   2
   3   2   1 8.36432 12.3361   3
   3   2   1 0.68924 7.92898   1
   3   2   1 5.99242 13.2905   4
   3  -2   1 5.91383 10.8602   3
   3   2   2 4.87302 8.64884   1
   3   2   2-10.2076 15.5531   4
   3   2   2-6.84850 16.1958   3
   3  -2   2-4.67247 12.8780   3
   3   2   3 1.28188 9.73874   1
   3   2   3 22.6375 18.1534   3
   3  -2   3 8.59752 7.97232   1
   3   2   3 11.7944 16.6050   4
   3  -2   3 18.2004 16.7527   3
   3   2   4-5.99193 10.2536   1
   3  -2   4-4.47455 9.65483   1
   3  -2   4 1.29264 16.9091   3
   3   2   4 10.6853 18.2980   3
   3   2   4-9.41354 15.8497   4
   3   2   5-16.5134 17.0116   4
   3   2   5-32.1515 9.96628   1
   3   2   5 6.35298 21.3735   3
   3  -2   5-1.84178 19.1657   3
   3   2   6-19.1850 23.3567   3
   3  -2   6-5.94862 22.2957   3
   3  -2   7-4.45422 27.5210   3
   3   2   7 1.26986 26.7662   3
   3  -2   8 1.00122 30.2287   3
   3   2   8-30.4496 26.5457   3
   3  -2   9 41.6704 31.2830   3
   3   2   9 23.7620 31.3236   3
   3  -2  10-38.8115 33.1635   3
   3   2  10-29.4936 33.0724   3
   3  -2  11 18.3255 34.3724   3
   3   2  11-32.3274 39.4880   3
   3  -2  12 57.0263 35.5779   3
   3   2  12 68.5691 42.5298   3
  -3   3  14 111.076 40.0256   3
  -3   3  13 60.5620 37.3929   3
  -3   3  12-6.41076 32.9580   1
  -3   3  12 45.5154 33.6321   3
  -3  -3  12 106.928 37.8292   3
  -3   3  11 36.5393 26.3033   1
  -3   3  11 61.4137 30.9917   3
  -3  -3  11 36.0828 31.7887   3
  -3  -3  11 23.9553 29.3230   1
  -3   3  10 35.5583 30.1735   3
  -3  -3  10-12.0199 32.3491   3
  -3  -3  10 7.98038 25.3250   1
  -3   3  10 35.1613 25.0718   1
  -3   3   9 678.162 35.4977   1
  -3   3   9 675.371 37.0792   3
  -3  -3   9 667.941 39.4302   3
  -3  -3   9 725.241 36.7400   1
  -3   3   8 77.4261 25.3752   3
  -3   3   8 103.649 23.9298   1
  -3  -3   8 102.251 28.2547   3
  -3  -3   8 135.185 24.1253   1
  -3   3   7 499.496 28.5063   1
   3  -3  -7 434.802 17.2727   2
  -3  -3   7 508.162 28.5847   1
  -3   3   7 480.209 28.7667   3
  -3   3   6 158.070 22.5046   3
   3  -3  -6 167.488 14.4312   2
  -3  -3   6 170.063 22.7834   1
  -3   3   6 199.008 18.7973   0
  -3   3   6 167.074 20.9327   1
  -3   3   5 7873.34 69.5021   1
  -3  -3   5 7992.67 70.8251   1
  -3   3   5 7719.54 65.9343   3
  -3   3   5 8108.40 68.7947   0
  -3  -3   4 3209.97 43.1230   1
  -3   3   4 3142.07 37.7185   3
  -3   3   4 3228.27 42.3229   1
  -3   3   4 3223.85 40.5254   0
   3  -3  -3 2569.39 34.0263   0
  -3   3   3 2663.60 35.0106   0
  -3   3   3 2640.92 28.1343   3
  -3   3   3 2524.59 33.6530   1
  -3   3   2 8870.13 53.5059   1
   3  -3  -2 9098.82 55.1919   0
  -3   3   1 4409.02 32.3390   1
   3   3  -1 4853.25 42.3024   3
   3   3   0 14259.7 70.4640   3
   3   3   1 737.784 16.8801   1
   3   3   1 741.302 21.3653   4
   3   3   1 701.044 21.4248   3
   3  -3   1 772.798 17.2245   3
   3   3   2 658.967 24.5909   3
   3  -3   2 641.826 20.0356   3
   3   3   2 610.558 16.8021   1
   3   3   2 606.188 20.9169   4
   3   3   3 996.710 21.3070   1
   3   3   3 1005.89 25.7375   4
   3   3   3 986.816 30.4052   3
   3  -3   3 970.055 27.3593   3
   3  -3   4 824.870 29.3862   3
   3   3   4 825.353 25.5731   4
   3   3   4 770.519 21.5919   1
   3   3   4 828.727 31.3316   3
   3   3   5 767.489 26.4685   4
   3   3   5 720.778 22.4422   1
   3   3   5 781.137 33.9879   3
   3  -3   5 802.397 31.6861   3
   3   3   6 112.574 19.3342   4
   3  -3   6 104.630 24.0135   3
   3   3   6 172.644 26.5877   3
   3   3   6 88.5688 14.9980   1
   3   3   7 1607.30 51.7403   3
   3  -3   7 1547.75 49.9887   3
   3  -3   8 218.172 35.3788   3
   3   3   8 111.900 30.4497   3
   3   3   9 38.6644 30.5364   3
   3  -3   9 58.1035 31.3259   3
   3  -3  10 48.9033 32.7863   3
   3   3  10 37.4280 30.7082   3
   3   3  11 18.9495 35.7135   3
   3  -3  11 83.8894 37.0499   3
   3  -3  12-2.95788 32.0541   3
  -3   4  14-16.7539 33.2001   3
  -3   4  13 13.3909 31.0708   3
  -3   4  12 29.2779 33.2560   3
  -3   4  12 10.4015 25.4028   1
  -3  -4  11 32.2573 28.4991   1
  -3   4  11 5.31462 26.7391   1
  -3   4  11-13.2002 29.7296   3
  -3   4  10-24.1861 29.3979   3
  -3  -4  10 45.0656 28.6625   1
  -3   4  10-1.35629 23.5951   1
  -3   4   9 16.2206 26.3783   3
  -3  -4   9 6.24803 23.4226   1
  -3   4   9 8.37706 22.3555   1
  -3   4   8 20.5904 22.3832   3
  -3  -4   8 21.7065 23.7785   1
  -3   4   8-22.0922 21.9543   1
  -3   4   7 5.42882 18.8857   1
   3  -4  -7-4.14868 11.8125   2
  -3   4   7-1.63730 21.4774   3
  -3  -4   7 22.3267 22.6274   1
  -3   4   6-17.5521 19.0534   3
  -3   4   6-3.43933 18.4687   0
  -3   4   6-5.43662 18.7504   1
  -3  -4   6 1.86114 20.4696   1
  -3   4   5-6.27628 17.4687   0
  -3   4   5 1.90329 15.9491   3
  -3   4   5 11.3442 16.4140   1
  -3   4   4 0.89822 12.7850   3
  -3   4   4-7.14235 16.4045   0
  -3   4   4 19.8510 17.1068   1
   3  -4  -3 5.70898 14.7092   0
  -3   4   3-11.6725 10.2695   3
  -3   4   3 1.29194 13.0009   1
  -3   4   3-2.93638 15.5001   0
  -3   4   2-3.13689 13.3491   1
   3   4  -1 2.72753 16.0795   3
  -3   4   1-2.95596 11.1382   1
  -3   4   0-4.28476 9.12492   1
   3   4   0 3.01361 14.9846   3
   3   4   1 3.74631 14.4208   3
   3   4   1 2.91191 11.8421   1
   3  -4   1-10.6875 10.0460   3
   3  -4   2 0.09752 12.7653   3
   3   4   2-1.37550 13.8365   4
   3   4   2-2.17676 16.4098   3
   3   4   2 7.55788 11.2043   1
   3  -4   3-24.9648 16.2346   3
   3   4   3 2.31789 18.7910   3
   3   4   3 1.06972 14.6812   4
   3   4   3 1.20186 12.3955   1
   3  -4   4-12.8885 18.4397   3
   3   4   4-15.9137 12.0543   1
   3   4   4 5.76064 19.2722   3
   3   4   4 13.8449 15.2452   4
   3   4   5-11.5586 16.0992   4
   3   4   5 8.39400 13.0444   1
   3  -4   5 10.0694 19.9627   3
   3   4   5 13.0590 21.6178   3
   3  -4   6 16.2715 24.2172   3
   3   4   6 15.9105 15.8377   1
   3   4   6-14.9988 16.4781   4
   3   4   6-5.58828 23.6842   3
   3  -4   7 5.49677 28.3711   3
   3   4   7-8.66481 28.7043   3
   3  -4   8-32.2049 29.3806   3
   3   4   8 28.2785 30.8020   3
   3  -4   9 11.0072 30.9314   3
   3   4   9-14.1186 30.2956   3
   3  -4  10 35.3282 30.0747   3
   3   4  10 84.1253 30.8906   3
   3  -4  11-48.8344 31.4027   3
   3   4  11-38.1967 36.7672   3
   3  -4  12 12.1372 28.7363   3
  -3   5  14-5.37239 35.3555   3
  -3   5  13 156.526 33.4306   1
  -3   5  13 107.423 39.4119   3
  -3   5  12-12.6222 33.6501   3
  -3   5  12 12.1665 23.3307   1
  -3   5  11 210.567 31.6478   1
  -3   5  11 179.345 35.6712   3
  -3   5  10 57.1246 31.6617   3
  -3   5  10 48.5983 25.4810   1
  -3   5   9 188.210 28.8130   3
  -3   5   9 139.885 26.7685   1
  -3   5   8 566.782 31.6387   1
  -3   5   8 504.355 31.9990   3
  -3   5   7 80.4418 21.1935   3
  -3   5   7 73.5889 20.2531   1
  -3   5   6 77.8522 21.0205   0
  -3   5   6 89.7044 18.3639   3
  -3   5   6 94.6970 19.7363   1
  -3   5   5 17.0338 19.5985   1
  -3   5   5 63.8254 19.5042   0
  -3   5   5 46.4660 15.9438   3
  -3   5   4 1974.49 34.2412   0
   3  -5  -4 1954.31 34.8989   0
  -3   5   4 1948.01 29.8686   3
  -3   5   4 2002.79 37.4026   1
  -3   5   3 2315.10 36.2171   1
  -3   5   3 2170.99 25.1936   3
   3  -5  -3 2267.18 34.6787   0
  -3   5   2 6939.12 52.3793   1
   3   5  -1 8608.40 64.0454   3
  -3   5   1 7938.20 50.6619   1
   3   5   0 12119.8 72.3112   3
  -3   5   0 11845.9 56.0975   1
  -3   5  -1 1471.33 20.0899   1
   3   5   1 1598.41 31.4018   3
   3  -5   1 1607.19 22.1856   3
   3   5   1 1568.57 27.6931   1
   3   5   2 5428.97 58.1497   3
   3  -5   2 5331.58 47.0416   3
   3   5   2 5399.21 48.7217   1
   3   5   3 181.650 16.8204   4
   3   5   3 177.831 16.2836   1
   3   5   3 169.855 20.0572   3
   3  -5   3 168.419 17.6903   3
   3  -5   4 128.565 19.0942   3
   3   5   4 168.893 16.5695   1
   3   5   4 151.479 16.6234   4
   3   5   4 141.397 23.5263   3
   3   5   5 265.725 19.1328   4
   3   5   5 285.882 18.9680   1
   3   5   5 264.451 26.6940   3
   3  -5   5 252.181 24.8623   3
   3  -5   6 312.223 29.7167   3
   3   5   6 313.182 21.4246   1
   3   5   6 342.173 32.4549   3
   3   5   7 1795.26 55.2862   3
   3  -5   7 1722.54 51.3759   3
   3  -5   8 296.386 35.7846   3
   3   5   8 298.268 36.3892   3
   3  -5   9 103.133 33.7012   3
   3   5   9 43.8681 28.2252   3
   3  -5  10-26.2010 35.2846   3
   3   5  10 28.1365 31.3956   3
   3  -5  11 9.85896 37.4568   3
   3   5  11-26.4987 31.4457   3
   3  -5  12 190.076 40.9180   3
  -3   6  14-9.28161 39.3943   3
  -3   6  13-16.2852 22.1097   1
  -3   6  13 57.1535 38.2456   3
  -3   6  12-12.3594 33.3492   3
  -3   6  12 34.7513 29.3811   1
  -3   6  11 10.4203 25.2199   1
  -3   6  11 4.38101 27.8327   3
  -3   6  10-51.5017 24.5087   1
  -3   6  10 21.5241 28.7151   3
  -3   6   9-14.6235 25.2386   3
  -3   6   9 15.1805 24.2277   1
  -3   6   8 5.95631 23.6890   3
  -3   6   8-3.44871 22.4631   1
  -3   6   7 36.6278 23.1854   1
  -3   6   7-2.66662 19.5200   3
  -3   6   6 15.5161 17.2952   0
  -3   6   6-5.32539 19.5509   1
  -3   6   6 2.44204 16.7046   3
  -3   6   5-3.50585 13.7493   3
  -3   6   5-10.4275 18.3966   0
  -3   6   5-5.59593 20.1817   1
  -3   6   4 13.9690 15.8880   1
  -3   6   4 10.2004 12.8784   3
   3  -6  -4 6.41510 15.6242   0
  -3   6   4-1.64512 14.5548   0
   3  -6  -3-0.70876 14.4452   0
  -3   6   3-2.60273 15.3539   1
  -3   6   3-1.50754 9.30791   3
  -3   6   2 10.4843 15.2395   1
   3   6  -1 8.48901 16.9325   3
  -3   6   1 7.51565 13.4178   1
   3   6   0 4.72656 15.7527   3
  -3   6   0 1.57683 11.4828   1
  -3   6  -1-0.12885 9.58434   1
   3   6   1-4.04522 14.7083   1
   3   6   1-2.73181 15.0994   3
   3  -6   2 24.1018 12.9907   3
   3   6   2 10.2478 17.7175   3
   3   6   2-9.70716 14.5401   1
   3   6   3 1.59172 14.7616   1
   3  -6   3-7.57756 14.9568   3
   3   6   3-4.06920 19.6050   3
   3   6   4 23.0339 15.6644   4
   3   6   4-0.57559 20.2596   3
   3   6   4-19.3702 14.9169   1
   3  -6   4 14.0486 18.3965   3
   3  -6   5 19.7424 20.4273   3
   3   6   5 1.42972 15.1490   4
   3   6   5 16.9558 23.4592   3
   3   6   5-10.8092 14.8665   1
   3   6   6-17.0766 16.0276   1
   3   6   6-10.1401 25.1918   3
   3  -6   6 1.48147 24.1592   3
   3  -6   7 4.86454 25.8719   3
   3   6   7 52.0475 30.2183   3
   3  -6   8-17.8228 28.1267   3
   3   6   8-11.5031 29.3569   3
   3  -6   9-45.0724 31.4552   3
   3   6   9 63.1438 32.8918   3
   3  -6  10 25.1158 31.6043   3
   3   6  10-28.5182 31.1886   3
   3  -6  11 42.8732 37.9232   3
   3   6  11-2.84631 35.3001   3
   3  -6  12 5.23065 37.9496   3
  -3   7  14 106.893 41.2954   3
  -3   7  13 127.529 38.6534   3
  -3   7  13 200.675 36.7672   1
  -3   7  12 13.7856 30.4067   3
  -3   7  12-15.5707 25.1141   1
  -3   7  11 71.3559 30.7720   1
  -3   7  11 30.1778 33.3494   3
  -3   7  10-7.93171 30.3798   3
  -3   7  10-14.2809 25.7162   1
  -3   7   9 613.496 35.6421   1
  -3   7   9 572.438 35.2045   3
  -3   7   8 203.706 26.1393   1
  -3   7   8 153.176 25.3894   3
  -3   7   7 382.011 26.0507   3
  -3   7   7 335.792 28.4479   1
  -3   7   6 488.745 24.9360   3
  -3   7   6 507.063 26.3422   0
  -3   7   6 549.088 29.1581   1
  -3   7   5 425.649 24.0387   0
  -3   7   5 427.160 21.2118   3
  -3   7   5 380.609 24.7325   1
  -3   7   4 714.431 21.2376   3
  -3   7   4 743.066 28.7549   1
   3  -7  -4 773.945 27.0387   0
  -3   7   3 2384.62 27.7089   3
   3  -7  -3 2341.81 36.9890   0
  -3   7   3 2340.00 39.1727   1
  -3   7   2 650.036 22.5601   1
  -3   7   2 619.512 12.4124   3
  -3   7   1 14836.5 79.9608   1
   3   7  -1 15274.7 91.1639   3
   3   7   0 2617.65 39.9928   3
  -3   7   0 2679.00 34.0440   1
  -3   7  -1 3617.07 37.6120   1
   3   7   1 3714.70 46.3927   1
   3   7   1 3842.32 26.1466   0
   3   7   1 3649.14 48.1908   3
   3   7   2 3195.80 44.1481   1
   3   7   2 3086.94 48.2531   3
   3   7   3 1876.93 37.0266   1
   3   7   3 1860.15 41.6465   3
   3  -7   3 1826.60 34.9224   3
   3   7   4 559.723 29.8359   3
   3  -7   4 588.379 25.6676   3
   3   7   4 604.614 25.3570   1
   3   7   5 1249.56 33.9886   1
   3  -7   5 1212.10 36.8708   3
   3   7   5 1222.69 40.7485   3
   3   7   6 449.295 34.3912   3
   3   7   6 449.189 25.6158   1
   3  -7   6 463.576 30.8400   3
   3  -7   7 856.022 41.0156   3
   3   7   7 750.712 42.1454   3
   3  -7   8 88.0903 32.0322   3
   3   7   8 6.68117 29.2367   3
   3  -7   9 221.454 37.0994   3
   3   7   9 197.324 36.1891   3
   3  -7  10 135.113 40.4437   3
   3   7  10 105.204 33.3863   3
   3  -7  11-14.1661 33.6838   3
   3   7  11 85.1084 38.7618   3
   3  -7  12 103.994 43.9096   3
  -3   8  14 77.1310 44.4066   3
  -3   8  13-9.05620 36.2816   3
  -3   8  13-17.2560 27.2797   1
  -3   8  12 20.6586 33.1102   3
  -3   8  12 48.9419 28.2038   1
  -3   8  11 47.5755 31.2231   3
  -3   8  11-31.7920 24.9347   1
  -3   8  10-10.3093 26.3735   3
  -3   8  10 27.1065 27.9066   1
  -3   8   9 0.14982 24.8907   1
  -3   8   9-3.86252 24.7754   3
  -3   8   8-4.80854 22.0544   1
  -3   8   8 11.2837 23.3696   3
  -3   8   7 27.6913 23.4971   1
  -3   8   7-7.19484 19.4418   3
  -3   8   6 6.55298 17.9326   3
  -3   8   6-5.09587 21.1584   1
  -3   8   5-3.20782 19.7059   1
  -3   8   5-9.22787 14.8856   3
  -3   8   5 6.43903 16.8115   0
   3  -8  -4 3.45369 14.4529   0
  -3   8   4-2.16972 12.2248   3
  -3   8   4-8.92026 19.6944   1
  -3   8   3-8.14639 18.3722   1
   3  -8  -3-3.82496 12.6430   0
  -3   8   3-7.31309 9.99683   3
  -3   8   2-0.43583 16.9307   1
  -3   8   2-8.33294 6.96460   3
  -3   8   1 4.72380 14.7712   1
   3   8  -1-13.2729 17.5263   3
  -3   8   0 10.9195 14.2227   1
   3   8   0 4.56731 16.4832   3
   3   8   1-2.12092 6.90219   0
   3   8   1-3.25313 16.8045   3
   3   8   1-1.61644 16.3951   1
  -3   8  -1-11.0906 12.4359   1
   3   8   2 4.45436 9.42779   0
   3   8   2 2.21302 18.9578   3
   3   8   2 0.72592 16.4244   1
   3   8   3-19.7819 17.3294   1
   3   8   3-4.66382 19.5039   3
   3   8   4 22.5451 17.4602   1
   3  -8   4 6.00383 16.7895   3
   3   8   4 25.0078 22.3293   3
   3  -8   5-18.5612 19.0082   3
   3   8   5 24.6967 18.1545   1
   3   8   5-2.39533 22.9799   3
   3  -8   6-23.1415 23.4316   3
   3   8   6-35.1661 19.9310   1
   3   8   6-0.88345 25.3354   3
   3  -8   7 3.89124 25.3333   3
   3   8   7-13.3982 20.4635   1
   3   8   7-0.16858 29.9779   3
   3  -8   8-16.3530 29.5871   3
   3   8   8 44.9904 29.1530   3
   3   8   9-1.63416 30.0943   3
   3  -8   9-18.3968 31.2402   3
   3   8  10-9.47027 32.4754   3
   3  -8  10-5.47979 34.6542   3
   3  -8  11 63.3497 39.9282   3
   3   8  11-26.6018 31.7613   3
  -3   9  13 53.8740 29.1515   3
  -3   9  13 7.00590 29.0503   1
  -3   9  12 331.447 38.1948   1
  -3   9  12 309.541 43.0985   3
  -3   9  11-9.45815 27.6334   3
  -3   9  11 22.7405 24.9977   1
  -3   9  10 819.469 41.5574   1
  -3   9  10 831.685 44.5144   3
  -3   9   9 482.632 34.6318   1
  -3   9   9 475.376 33.4800   3
  -3   9   8 436.987 33.0835   1
  -3   9   8 391.240 29.3071   3
  -3   9   7 71.9899 24.7174   1
  -3   9   7 86.5766 21.6346   3
  -3   9   6 707.171 34.1487   1
  -3   9   6 655.441 28.2683   3
  -3   9   5 285.816 19.5911   3
  -3   9   5 262.245 26.3736   1
  -3   9   5 191.539 18.6677   0
   3  -9  -4 1093.75 30.8037   0
  -3   9   4 1103.91 25.4128   3
  -3   9   4 1087.69 33.3674   1
  -3   9   3 2570.59 30.8351   3
  -3   9   3 2579.26 44.7535   1
   3  -9  -3 2520.00 41.2969   0
  -3   9   2 2382.48 25.3231   3
  -3   9   2 2378.63 41.4558   1
  -3   9   1 2963.84 24.8705   3
   3   9  -1 2999.11 46.1724   3
  -3   9   1 2951.29 43.1973   1
  -3   9   0 10674.0 75.0500   1
   3   9   0 10455.8 80.6921   3
   3   9   1 2009.73 40.3751   3
  -3   9  -1 1940.74 34.1595   1
   3   9   1 1985.90 40.9216   1
   3   9   2 1113.18 20.1558   0
  -3   9  -2 917.134 22.4376   1
   3   9   2 1068.49 33.4165   3
   3   9   2 1195.06 34.0724   1
   3   9   3 32.7374 19.0466   3
   3   9   3 75.6990 12.7767   0
   3   9   3 42.8909 17.9825   1
   3   9   4 473.092 30.7161   3
   3   9   4 493.791 27.2665   1
   3   9   5 163.108 22.5783   1
   3   9   5 217.808 28.0082   3
   3   9   6 1199.26 45.7224   3
   3   9   6 1273.38 41.2082   1
   3   9   7 134.961 24.9982   1
   3   9   7 176.914 32.0349   3
   3   9   8 220.456 36.4134   3
   3   9   9 186.465 36.4749   3
   3   9  10 108.223 37.4243   3
   3   9  11-76.6890 31.8689   3
  -3  10  13-2.39620 33.3412   3
  -3  10  13 42.0159 32.5869   1
  -3  10  12 21.1253 35.7724   3
  -3  10  12-25.8737 26.0951   1
  -3  10  11-10.8634 26.6902   3
  -3  10  11 28.1992 25.9972   1
  -3  10  10-24.5429 24.4862   1
  -3  10  10-7.33593 26.4777   3
  -3  10   9 0.49123 25.0386   1
  -3  10   9 18.4763 26.1160   3
  -3  10   8 15.5639 27.3628   1
  -3  10   8-18.3999 21.1238   3
  -3  10   7 26.6462 19.7335   3
  -3  10   7-3.67487 23.5597   1
  -3  10   6 0.00000 16.9445   3
  -3  10   6-11.3411 23.6732   1
  -3  10   5 27.8591 22.4404   1
   3 -10  -5 26.3676 18.5654   0
  -3  10   5-3.12019 15.1044   3
  -3  10   4-2.85203 20.1918   1
  -3  10   4 3.53488 12.4946   3
   3 -10  -4-10.8980 16.8746   0
  -3  10   3-2.04452 21.0545   1
   3 -10  -3 4.03712 14.6279   0
  -3  10   3-10.4807 9.90375   3
  -3  10   2-2.59600 7.86221   3
  -3  10   2-3.60250 18.1546   1
  -3  10   1-7.92919 7.04664   3
   3  10  -1-5.91556 16.2766   3
  -3  10   1 12.3024 17.9111   1
   3  10   0-7.66328 18.8566   1
  -3  10   0-7.68153 8.04451   3
   3  10   0-1.50993 15.2514   3
  -3  10   0 5.85991 16.1757   1
  -3  10  -1-7.62543 15.2262   1
   3  10   1-2.17430 18.3426   1
   3  10   1 5.62710 17.5831   3
   3  10   2-12.6290 18.9427   3
  -3  10  -2 0.61958 13.8758   1
   3  10   2 11.3825 18.7965   1
   3  10   3-3.17187 18.5088   3
   3  10   3-0.24951 19.3881   1
   3  10   4-10.8149 19.1680   1
   3  10   4-20.2697 21.3154   3
   3  10   5-9.63176 25.5191   3
   3  10   5-14.5265 21.2586   1
   3  10   6 14.3024 21.1801   1
   3  10   6 16.5439 24.7414   3
   3  10   7 41.8997 24.7139   1
   3  10   7 12.9894 27.6203   3
   3  10   8-17.0184 32.4043   3
   3  10   9-11.9047 30.4729   3
   3  10  10 23.1184 36.6162   3
  -3  11  13 89.7555 39.9587   3
  -3  11  13 145.659 30.6661   1
  -3  11  12 41.3873 35.1009   3
  -3  11  12 42.7819 26.3823   1
  -3  11  11 24.7637 28.0654   1
  -3  11  11 53.0301 29.1575   3
  -3  11  10 55.0200 25.6526   3
  -3  11  10 74.9398 30.3325   1
  -3  11   9 48.4153 26.8089   1
  -3  11   9 56.4325 24.3055   3
  -3  11   8 344.025 29.3309   3
  -3  11   8 420.606 33.9051   1
  -3  11   7 13.3403 19.8782   3
  -3  11   7 28.2497 27.4961   1
  -3  11   6 398.359 24.4284   3
  -3  11   6 317.972 27.9303   1
  -3  11   5 440.066 22.2397   3
  -3  11   5 445.686 30.6505   1
   3 -11  -4 105.990 16.2889   0
  -3  11   4 107.580 13.2852   3
  -3  11   4 109.241 23.4953   1
   3 -11  -3 698.555 26.7661   0
  -3  11   3 751.396 19.6233   3
  -3  11   3 680.006 30.4323   1
   3  11  -2 542.766 26.7233   3
  -3  11   2 566.073 15.7163   3
  -3  11   2 540.845 27.5793   1
  -3  11   1 2396.70 27.3505   3
  -3  11   1 2364.93 43.5388   1
   3  11  -1 2479.36 44.9594   3
   3  11   0 15.8243 17.8710   3
  -3 -11   0 30.5050 6.12626   0
  -3  11   0 29.4755 9.15563   3
   3  11   0 43.5066 18.9836   1
  -3  11   0 59.4282 17.5815   1
   3  11   1 746.873 31.8250   1
   3  11   1 689.433 28.3275   3
  -3  11  -1 623.209 25.1891   1
   3  11   2 997.651 33.8873   3
   3  11   2 1122.76 36.3028   1
  -3  11  -2 988.370 29.2237   1
   3  11   3 391.080 27.4568   3
   3  11   3 436.188 27.7985   1
   3  11   4 854.790 35.0682   1
   3  11   4 817.347 36.4229   3
   3  11   5 353.218 32.4206   3
   3  11   5 344.033 27.2655   1
   3  11   6 1840.72 50.3784   1
   3  11   6 1835.79 54.4112   3
   3  11   7 828.446 40.5879   1
   3  11   7 795.043 44.6503   3
   3  11   8 2.07846 34.0309   3
   3  11   9 110.882 33.5457   3
   3  11  10 78.5771 36.1480   3
  -3  12  13 79.6945 38.1400   3
  -3  12  12-9.49488 30.3203   3
  -3  12  12 169.655 31.0129   1
  -3  12  11-55.1937 24.9356   3
  -3  12  10 55.3984 31.7328   1
  -3  12  10 39.9058 24.6115   3
  -3  12   9-15.4104 30.6845   1
  -3  12   9-28.8177 21.9120   3
  -3  12   8-23.2145 27.2239   1
  -3  12   8 42.8652 23.4976   3
  -3  12   7 9.25956 25.4029   1
  -3  12   7-11.5116 18.0449   3
  -3  12   6 0.40821 25.2423   1
  -3  12   6 5.67812 18.2344   3
  -3  12   5 13.3046 25.1808   1
  -3  12   5 0.70060 13.9792   3
  -3  12   4 11.4645 23.7761   1
   3 -12  -4 4.35571 17.7003   0
  -3  12   3-13.3449 20.9836   1
   3 -12  -3-7.12934 16.9487   0
  -3  12   2-10.6506 20.3613   1
   3  12  -2-9.79668 19.1031   3
   3  12  -1 11.9167 19.3034   3
  -3  12   1 13.1068 18.8049   1
  -3  12   0-1.71938 17.9875   1
   3  12   0 27.7199 22.7952   1
   3  12   0-0.94489 17.7295   3
  -3  12  -1 6.27207 17.0545   1
   3  12   1-0.05025 18.9823   3
   3  12   1 9.40818 23.6156   1
   3  12   2 31.4793 23.5937   1
   3  12   2-12.0826 18.1899   3
  -3  12  -2 13.7530 17.6000   1
  -3  12  -3-10.7075 13.3902   1
   3  12   3 11.1899 21.6498   3
   3  12   3 5.45694 23.8077   1
   3  12   4 18.7056 23.3650   1
   3  12   4-15.2350 24.8474   3
   3  12   5 42.4566 23.4615   1
   3  12   5-3.23941 25.8160   3
   3  12   6 35.4350 24.6952   1
   3  12   6 37.9146 29.5965   3
   3  12   7 30.9713 29.8667   3
   3  12   7-92.7615 26.2302   1
   3  12   8-20.5559 29.7531   3
   3  12   9-14.2868 29.0294   3
   3  12  10-13.6280 29.4374   3
  -3  13  12 117.603 28.2131   1
  -3  13  11 0.87757 27.4176   1
  -3  13  10 36.2398 28.5139   1
  -3  13   9 51.4110 28.5379   1
  -3  13   8 32.1582 28.1475   1
  -3  13   7 205.246 34.2867   1
  -3  13   6 116.930 27.6431   1
  -3  13   5 229.269 29.8651   1
  -3  13   4 125.642 27.7242   1
  -3  13   3 75.3714 23.8339   1
   3 -13  -3 67.3794 17.1512   0
   3  13  -2 150.223 22.6328   3
  -3  13   2 144.700 23.6699   1
   3  13  -1 768.786 30.7137   3
  -3  13   1 786.736 32.1640   1
   3  13   0 993.954 33.2297   3
  -3  13   0 1077.35 35.4530   1
   3  13   0 1032.24 38.8984   1
   3  13   1 931.185 33.6966   3
   3  13   1 932.556 36.7584   1
  -3  13  -1 878.728 31.6876   1
  -3  13  -2 2433.49 47.6163   1
   3  13   2 2553.79 51.8924   3
   3  13   2 2699.11 55.5117   1
  -3  13  -3 98.3668 19.0312   1
   3  13   3 137.641 26.0829   1
   3  13   3 146.879 25.3032   3
   3  13   4 772.527 36.5969   3
   3  13   4 797.210 38.0943   1
   3  13   5 87.0200 25.7788   1
   3  13   5 84.5976 26.2940   3
   3  13   6 31.8567 25.3610   1
   3  13   6 41.4782 29.5269   3
   3  13   7-39.9847 25.1476   1
   3  13   7 92.8504 38.0849   3
   3  13   8 89.3753 33.2438   3
   3  13   9 91.0042 37.9337   3
   3  13  10 61.1167 39.3006   3
  -3  14  12-105.788 29.1682   1
  -3  14  11 76.8627 30.7534   1
  -3  14  10-16.2870 26.8356   1
  -3  14   9 0.39066 28.0255   1
  -3  14   8-9.13993 30.4347   1
  -3  14   7-33.6835 30.7746   1
  -3  14   6 5.96060 26.8089   1
  -3  14   5-25.6046 26.3837   1
  -3  14   4 19.5299 24.2710   1
  -3  14   3 1.62023 22.8734   1
   3  14  -2-6.46554 19.6376   3
  -3  14   2-16.7476 21.7585   1
  -3  14   1 9.78314 21.2732   1
   3  14  -1-15.0762 22.4008   1
   3  14  -1 0.10881 18.4890   3
   3  14   0 6.81495 19.4850   3
  -3  14   0 25.0181 20.5224   1
   3  14   0-19.7064 25.0514   1
  -3  14  -1-8.33282 20.9794   1
   3  14   1 11.0462 20.2452   3
   3  14   1-7.12123 24.4893   1
   3  14   2-16.2253 20.4503   3
   3  14   2 24.0516 24.4939   1
  -3  14  -2-4.79883 19.7778   1
   3  14   3 15.4999 21.3731   3
  -3  14  -3 20.0353 18.5225   1
   3  14   3 30.5203 26.5560   1
   3  14   4 1.69104 25.0799   3
   3  14   4 14.0856 26.7807   1
   3  14   5 38.9155 28.5012   3
   3  14   5 24.2410 28.2844   1
   3  14   6 0.32290 26.6217   1
   3  14   6 4.86823 23.8998   3
   3  14   7 29.6914 25.0528   1
   3  14   7-9.66971 25.6778   3
   3  14   8-24.4121 35.5456   3
   3  14   9 30.1327 35.2768   3
   3  14  10-29.2012 30.9048   3
  -3  15  11 16.0935 30.3398   1
  -3  15  10-14.6916 31.4528   1
  -3  15   9 72.6570 31.4060   1
  -3  15   8 274.826 37.1373   1
  -3  15   7 604.224 42.8701   1
  -3  15   6 193.190 31.8164   1
  -3  15   5 394.299 33.8423   1
  -3  15   4 261.210 32.8621   1
   3  15  -3 226.102 25.7636   3
  -3  15   3 266.889 30.5154   1
   3  15  -2 196.881 24.9483   3
  -3  15   2 177.075 26.9063   1
   3  15  -1 1750.94 44.2435   3
  -3  15   1 1732.51 47.4406   1
   3  15  -1 1551.82 46.8457   1
   3  15   0 113.906 22.6219   3
  -3  15   0 106.187 22.1533   1
   3  15   0 77.1615 26.9195   1
  -3  15  -1 606.402 32.2082   1
   3  15   1 564.910 35.6012   1
   3  15   1 641.182 33.2144   3
   3  15   2 530.881 31.4359   3
  -3  15  -2 608.631 31.9772   1
   3  15   2 624.867 37.1026   1
   3  15   3 136.004 31.2453   1
  -3  15  -3 73.9891 21.8575   1
   3  15   3 105.934 24.2260   3
   3  15   4 115.989 27.8129   3
   3  15   4 80.3985 29.3981   1
   3  15   5 100.915 27.3532   1
   3  15   5 101.056 29.1565   3
   3  15   6 191.352 31.5155   1
   3  15   6 205.052 33.9548   3
   3  15   7 74.7861 26.7842   1
   3  15   7 38.3586 30.4650   3
   3  15   8 46.9727 29.3340   3
   3  15   9 153.419 42.3316   3
  -3  16  11-42.4432 29.6438   1
  -3  16  10 59.2753 31.9365   1
  -3  16   9-90.6689 30.2791   1
  -3  16   8 29.0549 29.8054   1
  -3  16   7 21.6001 31.7674   1
  -3  16   6 13.8205 30.5312   1
  -3  16   5-14.8044 28.4859   1
  -3  16   4 3.82545 26.2489   1
  -3  16   3 15.9431 27.4783   1
   3  16  -3-11.8524 22.1305   3
   3  16  -2 29.3805 22.9785   3
  -3  16   2-3.86952 26.0034   1
   3  16  -1 44.9022 28.6495   1
   3  16  -1 20.4174 21.2193   3
  -3  16   1 28.5292 26.4278   1
   3  16   0 4.88004 21.7274   3
  -3  16   0-4.27425 25.5877   1
   3  16   0-6.62911 28.8806   1
   3  16   1-22.3459 28.2888   1
  -3  16  -1-26.8603 24.3231   1
   3  16   1-11.3522 22.4498   3
   3  16   2-29.4561 22.2831   3
  -3  16  -2 37.2562 24.9790   1
   3  16   2-16.1030 25.7473   1
   3  16   3 23.8420 22.0055   3
   3  16   3 13.9243 28.6723   1
   3  16   4 35.0664 27.2022   3
   3  16   4 28.8441 28.2248   1
   3  16   5 5.94753 28.7852   1
   3  16   5 13.4647 24.9299   3
   3  16   6-25.9813 21.3972   1
   3  16   6-9.12707 28.1609   3
   3  16   7-13.9943 26.1632   3
   3  16   7 71.3971 30.0006   1
   3  16   8-5.51144 31.1986   1
   3  16   8 25.0822 32.2271   3
   3  16   9-20.4121 30.1722   3
  -3  17  10 200.453 35.0688   1
  -3  17   9-32.4920 30.3396   1
  -3  17   8 222.651 37.4130   1
  -3  17   7 166.395 31.2853   1
  -3  17   6 142.564 30.5651   1
  -3  17   5 85.0673 28.8433   1
  -3  17   4 206.694 32.4977   1
  -3  17   3 110.564 31.8470   1
   3  17  -3 130.599 26.3830   3
   3  17  -2 759.383 34.9426   3
   3  17  -2 632.350 38.0741   1
  -3  17   2 722.524 40.9439   1
   3  17  -1 250.023 27.4705   3
  -3  17   1 283.208 32.0663   1
   3  17  -1 290.965 33.7217   1
   3  17   0 304.285 36.2371   1
   3  17   0 261.881 26.2131   3
  -3  17   0 239.767 30.2902   1
   3  17   1 222.161 24.7556   3
  -3  17  -1 242.503 29.4008   1
   3  17   1 192.838 32.5479   1
   3  17   2 35.5447 27.7516   1
   3  17   2 51.2413 21.0012   3
  -3  17  -2 29.0087 23.8334   1
   3  17   3 64.0963 26.8252   3
   3  17   3 79.9139 28.4583   1
   3  17   4 71.9081 28.0929   3
   3  17   4 48.5179 30.5757   1
   3  17   5 117.386 33.6744   1
   3  17   5 126.114 28.6106   3
   3  17   6 5.23852 22.8534   3
   3  17   6-0.97179 31.1305   1
   3  17   7 20.3230 28.1753   1
   3  17   7-23.7863 26.5700   3
   3  17   8 19.0283 32.3973   1
   3  17   8 164.002 39.2671   3
   3  17   9 0.81710 31.6694   3
  -3  18  10 82.6388 37.8916   1
  -3  18   9-31.2167 34.1058   1
  -3  18   8 7.73613 32.8937   1
  -3  18   7 38.3744 32.6286   1
  -3  18   6 36.3896 30.8523   1
  -3  18   5 4.28265 29.0422   1
  -3  18   4-11.3426 29.1360   1
   3  18  -4-16.3388 23.5848   3
   3  18  -3-0.89215 24.3912   3
  -3  18   3-9.44230 28.9213   1
   3  18  -2 7.28611 28.0000   1
   3  18  -2-8.66130 21.5776   3
  -3  18   2-15.5685 29.0243   1
   3  18  -1-8.22542 20.6320   3
   3  18  -1-38.4172 31.8299   1
  -3  18   1 24.1893 27.2448   1
   3  18   0-4.27300 20.6032   3
   3  18   0 3.91802 29.5636   1
  -3  18   0-22.4044 24.8567   1
   3  18   1-5.36362 20.9921   3
  -3  18  -1 17.0875 25.5905   1
   3  18   1 36.9328 30.8549   1
  -3  18  -2-8.98533 22.0743   1
   3  18   2-34.2951 21.4177   3
   3  18   2-46.5205 31.7074   1
   3  18   3 2.77209 24.3390   3
   3  18   3-27.4972 32.0500   1
   3  18   4 40.8816 32.7079   1
   3  18   4 22.8002 27.2276   3
   3  18   5 39.2218 23.8836   3
   3  18   5-11.0451 31.0520   1
   3  18   6-40.0201 30.8207   1
   3  18   6-53.8258 23.8214   3
   3  18   7-46.6946 24.1026   3
   3  18   7 24.1437 31.3353   1
   3  18   8 70.8745 33.4080   3
  -3  19   9-3.53028 29.9093   1
  -3  19   8 92.3492 34.3046   1
  -3  19   7 69.4440 35.8347   1
  -3  19   6 261.868 39.1961   1
  -3  19   5 4.74437 32.0046   1
  -3  19   4 93.8204 30.3620   1
   3  19  -4 145.683 28.1107   3
  -3  19   3 197.211 31.6781   1
   3  19  -3 189.736 27.3897   3
   3  19  -3 150.414 28.5391   1
   3  19  -2 124.207 24.5943   3
   3  19  -2 86.0063 31.1049   1
  -3  19   2 77.5812 30.1536   1
   3  19  -1 11.3458 27.8004   1
   3  19  -1 33.5542 22.7188   3
  -3  19   1 21.9871 29.9912   1
  -3  19   0 126.771 27.0578   1
   3  19   0 178.526 24.3516   3
   3  19   0 135.913 30.1127   1
   3  19   1 189.536 26.0279   3
  -3  19  -1 170.360 29.8253   1
   3  19   1 206.517 36.4086   1
   3  19   2 128.481 33.1139   1
   3  19   2 143.748 25.3915   3
  -3  19  -2 155.797 28.1212   1
   3  19   3-14.0161 21.0176   3
   3  19   3-7.85096 26.3378   1
   3  19   4 14.6970 23.1605   3
   3  19   4 45.1158 32.9837   1
   3  19   5 67.9271 33.2021   1
   3  19   5 133.793 27.7638   3
   3  19   6-37.2926 24.6024   3
   3  19   7 104.731 31.3799   1
   3  19   7-69.5981 26.7759   3
   3  19   8 137.987 32.0621   3
  -3  20   8-29.1302 30.9757   1
  -3  20   7 25.5455 32.0776   1
  -3  20   6 92.1937 34.5696   1
  -3  20   5-1.64453 31.6915   1
  -3  20   4 2.67208 28.5901   1
  -3  20   3 18.2272 31.8880   1
   3  20  -3 30.0194 27.0363   1
   3  20  -2-15.6827 31.9345   1
  -3  20   2 2.55494 29.8463   1
   3  20  -1 0.86273 30.5037   1
  -3  20   1-0.44270 29.0550   1
   3  20   0-18.0048 31.1931   1
  -3  20   0-13.6270 27.1661   1
  -3  20  -1-26.9768 25.9152   1
   3  20   1 30.6060 33.8219   1
  -3  20  -2 63.7304 28.4849   1
   3  20   2-2.90791 27.8004   1
   3  20   3-19.1009 31.1256   1
   3  20   4 32.1593 30.1544   1
   3  20   5 19.3325 32.6776   1
   3  20   7 35.9354 28.3055   1
  -3  21   8-30.6539 39.7020   1
  -3  21   7 90.2867 31.4903   1
  -3  21   6 159.078 39.0108   1
  -3  21   5 21.3639 30.9030   1
   3  21  -4-25.1175 30.4000   1
  -3  21   4 22.3028 32.7767   1
   3  21  -3 272.803 37.9112   1
  -3  21   3 187.281 38.5840   1
   3  21  -2 30.9943 27.3439   1
  -3  21   2 72.6597 32.9405   1
  -3  21   1 62.4327 27.5699   1
   3  21  -1 117.622 34.1883   1
   3  21   0 95.4369 34.6432   1
  -3  21   0 158.322 31.3328   1
   3  21   1 21.6461 32.9053   1
  -3  21  -1-75.9861 27.2698   1
   3  21   2 129.285 34.9129   1
   3  21   3 18.1915 30.5660   1
   3  21   4 44.1333 37.1076   1
   3  21   5 19.4226 27.3992   1
  -3  22   7 30.4573 30.9074   1
  -3  22   6 73.6276 35.6106   1
  -3  22   5 11.4319 28.5372   1
   3  22  -5-15.2150 26.6033   1
   3  22  -4 69.0745 35.6608   1
  -3  22   4 31.4876 36.2995   1
  -3  22   3-28.3078 31.6811   1
   3  22  -3 20.7025 31.9661   1
   3  22  -2 53.7269 33.1247   1
  -3  22   2 30.5590 27.0396   1
  -3  22   1-23.9805 30.0420   1
   3  22  -1 0.21929 30.2341   1
   3  22   0 16.0038 31.7811   1
  -3  22   0 30.3448 32.3147   1
  -3  22  -1-98.5337 23.5984   1
   3  22   1-44.3340 33.4757   1
   3  22   2 85.3267 38.7227   1
   3  22   3-85.0264 36.3571   1
   3  22   4 9.62799 29.3780   1
   3  22   5 61.5504 40.4306   1
   3  23  -6-46.7570 30.6676   1
  -3  23   6 163.172 38.5408   1
   3  23  -5 61.2438 32.5285   1
  -3  23   5-1.34423 36.1595   1
  -3  23   4 105.595 34.7390   1
   3  23  -4 40.1831 35.8744   1
  -3  23   3-14.6296 33.0089   1
   3  23  -3-25.3754 32.9134   1
   3  23  -2 36.9442 31.6182   1
  -3  23   2 40.7581 34.9256   1
   3  23  -1-26.8075 35.8096   1
  -3  23   1-52.3786 33.7408   1
   3  23   0 32.3347 30.9490   1
  -3  23   0 51.6009 31.7452   1
   3  23   1 11.8032 35.5329   1
  -3  23  -1 44.6723 28.1550   1
   3  23   2 43.1831 39.8691   1
   3  23   3-34.5331 37.9979   1
   3  23   4-30.2063 38.1770   1
   3  24  -5 41.7104 34.6019   1
  -3  24   4 51.6039 39.7002   1
   3  24  -4-86.0297 29.4557   1
  -3  24   3-98.2448 36.7903   1
   3  24  -3 6.99092 32.0242   1
  -3  24   2 38.6138 36.1491   1
   3  24  -2-52.7745 33.0520   1
  -3  24   1 3.78229 34.7832   1
   3  24  -1 1.36277 30.7401   1
   3  24   0 22.1251 36.4743   1
  -3  24   0-1.67715 30.3932   1
   3  24   1 3.76097 36.5092   1
  -3  24  -1 27.8170 29.9718   1
   3  24   2-8.84097 38.4311   1
  -3  25   3-16.7546 27.8476   1
  -3  25   2 35.9975 31.0451   1
  -3  25   1 139.579 37.8783   1
  -3  25   0 3.69562 33.3129   1
  -4   0  14 15.0582 34.3690   3
  -4   0  13-24.4400 37.5069   3
  -4   0  13-27.2347 30.3520   1
  -4   0  12 534.323 43.4708   1
  -4   0  12 434.670 44.4091   3
  -4   0  11-4.88827 30.8034   3
  -4   0  11 10.3042 30.7422   1
  -4   0  10 229.801 31.6318   3
  -4   0  10 212.937 32.2333   1
  -4   0   9-4.22854 25.0546   3
  -4   0   9-7.55382 25.6976   1
  -4   0   8 2537.16 52.3177   1
  -4   0   8 2503.02 53.6853   3
  -4   0   7-1.21393 22.2106   3
  -4   0   7-4.03140 20.4746   1
   4   0  -6 578.168 22.3632   2
  -4   0   6 667.502 29.3005   3
  -4   0   6 653.331 28.6809   1
  -4   0   5 12.6767 18.4713   1
   4   0  -5-0.05603 14.6711   2
  -4   0   5 14.7943 15.5949   0
  -4   0   4 11942.1 77.5068   1
  -4   0   4 11889.7 71.9697   0
   4   0  -4 11834.3 71.7000   2
  -4   0   3-9.30442 15.4749   1
  -4   0   3 10.2228 13.7169   0
   4   0  -3 3.93667 16.3240   2
   4   0  -3 4.65882 13.4399   0
   4   0  -2 40104.4 103.802   0
   4   0  -2 40248.4 104.495   4
  -4   0   2 40152.2 108.054   1
   4   0  -1-7.19526 16.1647   4
   4   0  -1 5.22924 9.75256   3
  -4   0   1 6.75638 10.3832   1
   4   0   0 388.498 19.2914   4
   4   0   0 346.809 14.6170   3
   4   0   1 1.85622 13.2400   3
   4   0   2 2921.25 41.0037   3
   4   0   3 2.54575 18.3868   3
   4   0   3 5.21563 5.74306   1
   4   0   4 2104.79 25.8684   1
   4   0   4 2330.53 46.3554   3
   4   0   5-16.8259 21.5710   3
   4   0   6 256.981 29.3163   3
   4   0   7-25.6488 23.1586   3
   4   0   8 249.585 33.4325   3
   4   0   9-53.1536 30.6752   3
   4   0  10 81.9179 36.1077   3
   4   0  11 57.6247 34.8290   3
  -4   1  14-7.01484 35.2613   3
  -4  -1  13 30.5209 37.5397   3
  -4  -1  13 78.5849 32.1103   1
  -4   1  13-2.35540 30.2493   3
  -4   1  13 81.6575 33.5946   1
  -4  -1  12 23.6453 30.1183   1
  -4   1  12 24.0931 35.4179   3
  -4  -1  12-26.5286 36.1011   3
  -4   1  12 2.29360 33.7748   1
  -4   1  11 34.1019 31.0746   3
  -4  -1  11-16.0582 31.7835   3
  -4   1  11 0.82788 27.8402   1
  -4  -1  11-14.9778 26.2126   1
  -4   1  10 15.0280 26.4073   3
  -4  -1  10-10.6697 28.9116   3
  -4   1  10-30.0689 26.0096   1
  -4  -1  10 10.7983 27.8797   1
  -4   1   9 24.2539 25.1551   1
  -4  -1   9 32.0467 24.5577   1
  -4  -1   9-13.3031 28.2288   3
  -4   1   9 5.77089 26.7929   3
  -4  -1   8-6.56054 23.2612   3
  -4   1   8 6.09263 20.7927   1
  -4   1   8 6.38038 23.4251   3
  -4  -1   8 0.62721 24.4234   1
  -4  -1   7-10.9442 22.0158   3
  -4   1   7 0.59397 18.9448   1
  -4   1   7 3.30556 19.4164   3
  -4  -1   7 1.49341 20.7627   1
  -4   1   6 4.78554 18.0872   3
  -4   1   6 17.1895 21.4904   1
  -4  -1   6-3.77964 20.8908   1
   4  -1  -6-7.02418 15.1075   2
   4   1  -5-13.4404 14.4165   2
  -4   1   5-5.74676 17.2967   3
   4  -1  -5-3.43797 14.2641   2
  -4   1   5 14.5310 18.2198   1
  -4   1   5-5.26840 14.1832   0
  -4  -1   5 3.86638 20.3665   1
  -4   1   4 5.67991 15.7991   0
   4   1  -4 5.49581 16.0898   2
  -4  -1   4 16.5004 18.8261   1
  -4   1   4 18.3874 17.4771   1
  -4  -1   4-5.97289 13.8814   0
   4  -1  -4-4.73877 15.8837   2
  -4  -1   3-6.39309 16.9971   1
   4  -1  -3-1.93855 13.4238   0
  -4  -1   3-10.7717 13.0797   0
  -4   1   3 9.37230 13.2566   1
  -4   1   3 4.39920 14.4205   0
   4   1  -3 3.32213 16.1551   2
   4   1  -2 5.78895 10.0776   0
  -4  -1   2-2.30211 15.4491   1
  -4   1   2 2.22717 12.6639   1
   4   1  -2-1.11233 12.6672   2
   4  -1  -2-5.09736 13.6829   4
   4   1  -1 0.36369 14.5798   4
   4  -1  -1-11.0656 12.7932   4
   4   1  -1-4.51556 11.8317   3
   4   1  -1 8.86078 13.3197   2
  -4   1   1-12.4152 9.38442   1
   4  -1  -1-3.01135 8.28789   3
   4  -1   0 0.76628 9.69080   3
   4   1   0-3.78298 12.1377   2
   4   1   0-3.79861 17.3232   4
   4   1   0 12.4730 11.5532   3
   4   1   1-6.32510 14.3484   3
   4  -1   1-2.27684 11.4054   3
   4   1   1 4.72947 16.9850   4
   4   1   2-6.04361 17.3717   4
   4  -1   2-17.0850 14.6382   3
   4   1   2-3.00368 16.0322   3
   4   1   2-0.02306 6.07001   1
   4   1   3 2.74539 17.8160   3
   4   1   3-6.25901 7.16295   1
   4  -1   3-16.2332 15.8766   3
   4   1   4 19.8113 8.33284   1
   4   1   4 3.14280 21.2387   3
   4  -1   4-1.14575 17.6049   3
   4   1   5 8.05958 22.6853   3
   4  -1   5 12.3134 20.5449   3
   4  -1   6-34.1708 23.5281   3
   4   1   6-22.2489 22.3093   3
   4  -1   7 25.7742 27.2202   3
   4   1   7 30.4865 29.6582   3
   4   1   8 2.51568 26.7390   3
   4  -1   8-36.5763 28.6093   3
   4  -1   9-27.8409 32.1942   3
   4   1   9 15.2699 31.1276   3
   4   1  10-25.3035 37.4055   3
   4  -1  10 96.6048 40.0268   3
   4   1  11 54.6255 40.5059   3
   4  -1  11-32.5054 32.0305   3
  -4   2  14 49.5154 36.6167   3
  -4   2  13 71.4350 36.9740   3
  -4   2  13 31.0155 29.2985   1
  -4  -2  13 48.6807 29.5925   1
  -4  -2  12 367.999 36.3850   1
  -4   2  12 273.818 37.3048   1
  -4   2  12 319.196 36.3275   3
  -4   2  11 11.6455 29.0856   3
  -4  -2  11 59.4736 31.1937   1
  -4  -2  11 37.4412 30.9988   3
  -4   2  11-4.84065 28.5787   1
  -4  -2  10 14.7359 25.4335   1
  -4   2  10-0.38940 26.9554   3
  -4   2  10 27.3005 24.7377   1
  -4  -2  10 24.1745 29.1399   3
  -4  -2   9-15.1194 24.1787   1
  -4   2   9-9.80371 24.4784   3
  -4   2   9 12.6195 20.0776   1
  -4   2   8 470.556 30.0540   1
   4  -2  -8 366.587 19.8430   2
  -4  -2   8 405.293 31.0934   1
  -4   2   8 396.160 28.5776   3
  -4   2   7 3.54544 19.7429   3
  -4   2   7 3.76737 19.2598   1
   4  -2  -7 6.76438 13.3771   2
  -4  -2   7 6.89898 20.8156   1
  -4   2   6 11607.8 92.0451   1
  -4  -2   6 12093.5 93.9551   1
   4  -2  -6 11717.0 75.8721   2
  -4   2   6 11702.9 88.1198   0
  -4   2   6 11453.0 85.9805   3
  -4   2   5 341.366 21.1069   1
   4  -2  -5 334.220 18.4811   2
  -4   2   5 303.498 17.9631   0
  -4  -2   5 330.008 23.8453   1
  -4   2   5 318.234 19.7258   3
  -4   2   4 1139.93 26.7754   0
  -4   2   4 1158.50 28.1653   1
  -4  -2   4 1221.58 30.3953   1
   4  -2  -4 1234.02 27.1354   0
  -4   2   3 8538.39 59.6897   1
  -4  -2   3 8492.82 50.0246   0
   4   2  -3 8621.36 61.0133   2
  -4  -2   3 8698.10 62.2743   1
   4  -2  -3 8375.38 42.3022   4
   4  -2  -3 8495.17 58.6225   0
  -4   2   3 8329.93 58.1231   0
   4   2  -2 2166.81 22.4405   0
   4  -2  -2 2162.01 26.9347   4
   4   2  -2 2171.24 31.5559   2
  -4   2   2 2094.59 27.3878   1
   4   2  -1 11398.4 63.9124   4
   4   2  -1 10944.1 61.1364   2
   4   2  -1 11096.7 62.4943   3
  -4   2   1 10883.2 46.9196   1
   4   2   0 3381.12 33.2013   2
   4   2   0 3359.95 37.8160   3
   4   2   0 3287.92 37.4898   4
   4  -2   0 3384.47 29.0912   3
   4   2   1 378.357 13.2235   2
   4   2   1 354.266 19.4528   3
   4  -2   1 346.311 15.0978   3
   4   2   1 357.475 18.8890   4
   4   2   1 374.563 11.7518   1
   4   2   2 5737.47 58.7845   3
   4   2   2 5606.08 35.1509   2
   4  -2   2 5555.06 53.2691   3
   4   2   2 5469.95 37.7063   1
   4   2   2 5531.23 54.2439   4
   4   2   3 1104.96 20.2244   1
   4   2   3 1139.90 32.3634   3
   4  -2   3 1095.54 30.1223   3
   4   2   3 1104.76 30.0503   4
   4   2   4 37.6683 21.1755   3
   4   2   4 16.5383 9.61895   1
   4   2   4 35.3129 18.9870   4
   4  -2   4 44.0196 18.5283   3
   4   2   5 28.9636 19.9826   4
   4   2   5 19.6562 22.2557   3
   4  -2   5-5.87842 19.9903   3
   4   2   6 923.620 39.6515   3
   4  -2   6 917.064 37.7863   3
   4   2   6 889.423 32.6813   4
   4   2   7 266.718 34.4579   3
   4  -2   7 217.732 29.9329   3
   4   2   8 789.989 42.2695   3
   4  -2   8 775.944 44.7734   3
   4  -2   9 95.0264 31.6157   3
   4   2   9 52.7517 33.9739   3
   4  -2  10 90.8096 37.9638   3
   4   2  10 14.4907 32.5295   3
   4   2  11-5.68000 39.4813   3
   4  -2  11-33.6159 31.7263   3
  -4   3  14 114.506 42.3356   3
  -4   3  13 40.4015 34.5794   3
  -4   3  12-21.0094 32.2987   3
  -4   3  12-11.4284 33.2598   1
  -4  -3  12-22.1069 32.5973   1
  -4   3  11 9.79374 27.4856   3
  -4   3  11-17.0257 26.8612   1
  -4  -3  11-8.06094 26.0986   1
  -4   3  10 3.21734 27.9159   3
  -4  -3  10 13.8737 25.1317   1
  -4   3  10-4.80294 24.1905   1
  -4   3   9 7.72531 25.8865   3
  -4   3   9 2.00171 22.0906   1
  -4  -3   9 19.3738 25.4235   1
  -4   3   8-12.1864 22.2568   1
  -4   3   8 24.9314 22.1582   3
  -4  -3   8 3.57549 22.2756   1
   4  -3  -8 14.9259 14.6323   2
  -4   3   7 13.6003 19.9578   3
   4  -3  -7-10.9010 14.0709   2
  -4   3   7 13.7803 21.1724   1
  -4  -3   7 8.92401 21.5374   1
   4  -3  -6-7.54623 15.0569   2
  -4   3   6 20.9078 19.5116   3
  -4  -3   6-9.85783 22.9200   1
  -4   3   6 51.5471 20.7748   0
  -4   3   6-16.8429 18.8885   1
  -4   3   5 17.0579 16.3381   0
  -4   3   5 5.66576 15.1587   3
  -4  -3   5 1.16545 19.9604   1
  -4   3   5 3.94767 16.9502   1
  -4   3   4 1.04558 12.7545   3
  -4   3   4-1.36032 13.0348   0
   4  -3  -4 4.15835 16.1419   0
  -4   3   4-7.94318 16.4035   1
  -4  -3   4-2.69452 19.0251   1
   4  -3  -3 1.16901 12.9469   0
  -4  -3   3-2.76974 10.3738   0
   4  -3  -3-12.5014 8.99635   4
  -4   3   3 0.41855 14.2492   1
  -4   3   2-5.82346 11.9653   1
  -4  -3   2 1.44873 8.11534   0
  -4   3   1 0.01369 9.13445   1
   4   3  -1 10.4583 15.0235   3
   4   3   0 4.75068 13.6776   4
   4   3   0-1.40749 12.9404   3
   4  -3   0 3.45291 7.43460   3
   4   3   1 0.24159 15.6715   4
   4  -3   1-0.63853 10.6196   3
   4   3   1-0.48131 13.4832   3
   4   3   1 13.6683 9.57701   1
   4   3   2-4.56426 17.3943   4
   4   3   2 7.70839 15.4699   3
   4  -3   2-12.5410 13.4621   3
   4   3   2-2.68640 9.66527   1
   4   3   3-9.55545 19.4815   3
   4   3   3-2.34853 16.9141   4
   4   3   3 33.0306 10.2722   1
   4  -3   3 21.1680 15.4633   3
   4   3   4-4.02431 17.5041   4
   4   3   4-12.0674 20.1644   3
   4   3   4-9.26197 10.2018   1
   4  -3   4-8.93401 19.2977   3
   4   3   5-5.86861 17.6073   4
   4   3   5 19.0617 19.2572   3
   4  -3   5 23.0491 20.9351   3
   4   3   6 3.34340 20.1438   4
   4   3   6 3.15788 23.6491   3
   4  -3   6-3.31911 21.1144   3
   4  -3   7-24.2362 30.0271   3
   4   3   7-15.9330 27.7932   3
   4  -3   8 26.9224 27.1959   3
   4   3   8 45.4913 28.0935   3
   4  -3   9-6.88406 32.1735   3
   4   3   9-54.7027 32.9776   3
   4  -3  10-40.0362 36.2973   3
   4   3  10 13.6268 28.8837   3
   4   3  11-16.7475 34.4740   3
   4  -3  11 57.2917 33.2016   3
  -4   4  14 69.5909 35.3490   3
  -4   4  13 2.41184 34.6894   3
  -4   4  13 1.37732 35.3471   1
  -4   4  12 127.533 30.4957   1
  -4   4  12 154.557 34.4498   3
  -4  -4  12 213.274 31.9463   1
  -4   4  11 280.744 32.8365   1
  -4  -4  11 318.890 35.2578   1
  -4   4  11 221.988 33.9150   3
  -4  -4  10 146.587 28.5199   1
  -4   4  10 132.385 28.0335   1
  -4   4  10 141.389 29.7032   3
  -4   4   9-2.99071 25.6170   3
  -4   4   9-6.79206 22.5612   1
  -4  -4   9 50.9444 27.7798   1
  -4   4   8 103.900 24.8345   1
  -4   4   8 83.3288 23.3890   3
  -4  -4   8 145.357 26.8992   1
   4  -4  -7 305.380 18.3714   2
  -4  -4   7 408.232 29.4890   1
  -4   4   7 343.405 27.5677   1
  -4   4   7 351.203 24.4121   3
  -4   4   6 2069.64 40.1936   0
  -4   4   6 1997.35 38.9701   3
  -4  -4   6 2032.44 43.6454   1
  -4   4   6 2080.14 43.5720   1
  -4   4   5 1034.86 30.8092   0
  -4   4   5 942.481 25.5562   3
  -4   4   5 1010.68 30.0095   1
   4  -4  -4 26.1070 16.0784   0
  -4   4   4 26.8137 12.0002   3
  -4   4   4 10.2405 15.7979   1
  -4   4   4 28.5213 15.9686   0
   4  -4  -3 1615.49 30.9108   0
  -4   4   3 1571.86 29.2257   1
  -4   4   3 1630.50 20.6146   3
  -4  -4   2 523.814 11.0841   0
  -4   4   2 473.678 17.7618   1
   4   4  -1 2089.77 14.4202   0
  -4   4   1 2063.81 25.2239   1
   4   4  -1 2184.67 34.0301   3
   4   4   0 1603.34 30.1116   3
  -4   4   0 1542.25 18.3538   1
   4   4   1 4822.68 52.4953   3
   4   4   1 4656.73 41.1209   1
   4  -4   1 4721.48 39.6879   3
   4   4   1 4706.35 48.0142   4
   4   4   2 5538.48 54.4921   4
   4   4   2 5651.08 61.0063   3
   4   4   2 5586.36 46.7542   1
   4  -4   2 5541.32 50.8341   3
   4   4   3 471.797 23.2878   4
   4   4   3 482.340 25.8937   3
   4   4   3 484.348 18.6130   1
   4  -4   3 519.338 22.5467   3
   4   4   4 248.059 20.6930   4
   4   4   4 220.777 24.3105   3
   4   4   4 191.967 15.2198   1
   4  -4   4 213.720 20.2961   3
   4   4   5 312.934 28.5194   3
   4   4   5 253.979 22.1990   4
   4  -4   5 292.789 26.5329   3
   4   4   5 318.905 18.5708   1
   4  -4   6 0.84754 25.2107   3
   4   4   6 25.0149 19.8174   4
   4   4   6 16.1329 26.5559   3
   4  -4   7 134.892 32.9776   3
   4   4   7 111.795 29.8483   3
   4  -4   8 125.113 33.5963   3
   4   4   8 158.888 34.2649   3
   4  -4   9 68.2673 32.0898   3
   4   4   9 75.1573 30.7305   3
   4  -4  10 58.3381 32.4404   3
   4   4  10 73.5818 36.8840   3
   4  -4  11 64.6924 32.7117   3
   4   4  11-50.3866 31.7401   3
  -4   5  14-18.9445 35.9712   3
  -4   5  13 10.3453 29.6667   3
  -4   5  13 49.9992 26.0014   1
  -4   5  12 1.76598 30.2100   3
  -4   5  12-9.00772 25.6827   1
  -4   5  11 15.1599 31.7551   3
  -4   5  11 1.66046 26.5829   1
  -4   5  10 9.05810 25.6214   1
  -4   5  10-20.5755 25.8401   3
  -4   5   9 12.9452 25.9115   1
  -4   5   9-36.0426 25.1974   3
  -4   5   8 9.16093 21.4166   3
  -4   5   8-5.51897 21.3856   1
  -4   5   7 4.18876 20.3659   3
  -4   5   7-13.3575 21.3630   1
  -4   5   6 6.77321 16.9351   3
  -4   5   6 9.42254 19.3890   1
  -4   5   6 31.1782 20.2051   0
  -4   5   5 6.43484 14.6807   3
  -4   5   5 21.1367 16.9033   0
  -4   5   5-12.7427 17.8252   1
  -4   5   4-1.87414 11.2212   3
   4  -5  -4 2.02258 15.8397   0
  -4   5   4 4.82870 15.3988   1
  -4   5   4-16.0897 16.8090   0
   4  -5  -3-5.05320 15.8786   0
  -4   5   3 0.64282 8.13044   3
  -4   5   3-6.36717 13.9754   1
  -4   5   2-5.13175 12.9690   1
  -4  -5   2 1.49171 5.76670   0
  -4   5   1-5.21138 11.5908   1
   4   5  -1 7.97678 16.2292   3
  -4   5   0 2.31634 9.35531   1
   4   5   0 10.3598 15.6900   3
   4   5   1-11.1862 12.2033   1
   4   5   1 8.58539 17.2489   3
   4  -5   1-3.40472 10.1578   3
  -4   5  -1 3.70390 7.24172   1
   4  -5   2-15.5461 13.2187   3
   4   5   2-5.53212 16.9049   4
   4   5   2-5.34946 12.6455   1
  -4   5  -2-4.32849 6.17921   1
   4   5   2-12.6950 15.8355   3
   4  -5   3-9.43236 15.4484   3
   4   5   3-9.25440 13.2409   1
   4   5   3 4.13846 16.0975   4
   4   5   3-20.1405 20.5473   3
   4  -5   4-2.99041 17.3432   3
   4   5   4 6.18659 16.5002   4
   4   5   4 0.00000 21.0464   3
   4   5   4 9.42186 12.9356   1
   4  -5   5 25.9256 21.6207   3
   4   5   5 12.3042 12.2177   1
   4   5   5-10.8392 18.1892   4
   4   5   5-11.9115 23.2643   3
   4  -5   6-14.6866 22.8429   3
   4   5   6 7.19253 25.4151   3
   4   5   7 63.8896 32.0449   3
   4  -5   7-13.8444 25.8541   3
   4  -5   8 3.13209 29.1835   3
   4   5   8-13.3321 33.0929   3
   4  -5   9 76.3542 35.5004   3
   4   5   9 49.7288 34.5818   3
   4  -5  10-28.0709 36.7031   3
   4   5  10-38.8461 29.6089   3
   4  -5  11-93.2131 36.6521   3
   4   5  11 6.06906 34.0403   3
  -4   6  14 43.9994 38.2778   3
  -4   6  14 165.094 32.7725   1
  -4   6  13 28.0089 34.6492   3
  -4   6  13 28.6519 31.2841   1
  -4   6  12 11.4387 31.0675   3
  -4   6  12 27.2537 23.8577   1
  -4   6  11 148.828 30.0038   3
  -4   6  11 149.748 30.6796   1
  -4   6  10 21.4633 25.7057   1
  -4   6  10 9.30397 25.6984   3
  -4   6   9 44.2819 27.2368   3
  -4   6   9 14.6091 25.3373   1
  -4   6   8 205.813 25.7224   3
  -4   6   8 188.281 26.4543   1
  -4   6   7 477.989 27.4347   3
  -4   6   7 483.631 28.9630   1
  -4   6   6 3227.39 51.5004   0
  -4   6   6 3003.79 46.3614   3
  -4   6   6 3138.02 53.2791   1
  -4   6   5 126.481 18.1038   0
  -4   6   5 150.032 18.0216   1
  -4   6   5 123.638 16.0696   3
   4  -6  -5 133.209 17.3880   0
   4  -6  -4 3922.23 49.6657   0
  -4   6   4 3814.81 37.7892   3
  -4   6   4 3645.87 50.7763   1
   4  -6  -3 646.812 22.2903   0
  -4   6   3 685.115 23.6078   1
  -4   6   3 750.498 14.4690   3
  -4  -6   2 1681.03 14.8921   0
  -4   6   2 1660.68 29.4303   1
   4   6  -1 4794.19 51.9940   3
  -4   6   1 4623.31 42.3842   1
   4   6   0 253.433 18.0838   3
  -4   6   0 254.584 13.4815   1
  -4   6  -1 3631.64 32.7526   1
   4   6   1 3970.17 45.4709   1
   4  -6   1 3896.94 34.9133   3
   4   6   1 3929.40 51.8052   3
   4   6   2 1109.76 33.1470   3
  -4   6  -2 1007.84 17.5572   1
   4   6   2 1039.98 26.4112   1
   4  -6   2 1105.29 25.1413   3
   4  -6   3 305.303 20.3289   3
   4   6   3 343.593 26.5046   3
   4   6   3 357.178 20.0281   1
   4   6   4 649.119 25.5925   4
   4   6   4 677.156 33.5524   3
   4   6   4 651.449 23.6715   1
   4  -6   4 610.971 27.1995   3
   4  -6   5 24.1838 19.9033   3
   4   6   5-5.98710 13.6529   1
   4   6   5 45.6903 25.8254   3
   4   6   5 20.4679 17.7010   4
   4   6   6 1214.35 47.0672   3
   4  -6   6 1201.71 41.1250   3
   4   6   7 596.727 42.0759   3
   4  -6   7 691.555 38.0784   3
   4  -6   8 198.832 34.5462   3
   4   6   8 150.181 30.3033   3
   4  -6   9 156.131 31.5168   3
   4   6   9 269.631 35.8685   3
   4  -6  10 5.46153 32.9119   3
   4  -6  11 174.305 43.7164   3
   4   6  11 105.056 28.0217   3
  -4   7  14-11.1943 39.4225   3
  -4   7  14-78.9211 24.4169   1
  -4   7  13 25.6376 38.3225   3
  -4   7  13 45.7522 34.3335   1
  -4   7  12-44.1318 34.7647   3
  -4   7  12-73.4249 25.9474   1
  -4   7  11 69.4774 29.7506   1
  -4   7  11-32.4263 31.8187   3
  -4   7  10 26.6289 30.4091   3
  -4   7  10 18.4678 26.3402   1
  -4   7   9 28.3913 26.4676   3
  -4   7   9 40.0896 25.3360   1
  -4   7   8-16.2361 21.8278   3
  -4   7   8-9.11420 22.5878   1
  -4   7   7 3.45264 18.5493   3
  -4   7   7-5.83215 22.0656   1
  -4   7   6 4.84129 20.8077   1
  -4   7   6-1.98404 15.8954   3
   4  -7  -5-3.49658 15.4238   0
  -4   7   5 1.74554 18.3661   0
  -4   7   5-24.8981 19.9585   1
  -4   7   5 9.08701 13.4265   3
  -4   7   4 0.48104 18.6964   1
   4  -7  -4 6.62302 15.2475   0
  -4   7   4 16.8810 10.3806   3
  -4   7   3 4.74906 16.2885   1
  -4   7   3 4.28691 7.50353   3
   4  -7  -3 12.4346 12.9508   0
  -4   7   2-4.04641 13.6348   1
  -4   7   1-12.1097 13.1067   1
   4   7  -1 4.71276 16.4204   3
   4   7   0 6.40908 17.2310   3
  -4   7   0 4.54886 11.6573   1
   4   7   1-3.91230 14.8868   1
  -4   7  -1-9.09264 11.0016   1
   4   7   1 13.6685 18.6964   3
   4  -7   2 19.7079 13.0791   3
  -4   7  -2 12.9653 9.66227   1
   4   7   2-7.80595 19.5700   3
   4   7   2-5.49222 14.9570   1
   4  -7   3-14.6454 15.0628   3
   4   7   3 2.87072 20.3971   3
   4   7   3 3.96127 15.2700   1
   4   7   4 17.2798 15.9179   1
   4   7   4 24.7931 22.7402   3
   4  -7   4-6.89895 16.5649   3
   4  -7   5-2.94739 20.7513   3
   4   7   5 11.6606 15.9148   1
   4   7   5 7.50406 24.3983   3
   4  -7   6-20.6566 22.6973   3
   4   7   6-8.12762 28.4085   3
   4  -7   7-17.8477 27.8352   3
   4   7   7-6.13807 29.7552   3
   4  -7   8-35.9886 29.3682   3
   4   7   8 13.3543 32.9746   3
   4  -7   9 48.2235 27.7654   3
   4   7   9-24.2427 34.9852   3
   4  -7  10 87.6547 35.4977   3
   4   7  10 21.6278 32.1960   3
   4  -7  11-3.07219 31.0639   3
  -4   8  14 57.1365 39.6900   3
  -4   8  14 78.6285 28.8576   1
  -4   8  13 39.0077 31.1342   1
  -4   8  13 195.580 42.3163   3
  -4   8  12 177.065 35.2123   3
  -4   8  12 250.233 33.1478   1
  -4   8  11 148.263 31.2688   1
  -4   8  11 176.594 31.9179   3
  -4   8  10 1140.97 46.4180   3
  -4   8  10 1259.40 49.0167   1
  -4   8   9 772.143 38.1898   3
  -4   8   9 809.272 40.0961   1
  -4   8   8 455.154 33.5986   1
  -4   8   8 403.800 28.1204   3
  -4   8   7 398.088 24.4719   3
  -4   8   7 385.787 30.3073   1
  -4   8   6 721.136 26.4205   3
  -4   8   6 716.095 33.1663   1
  -4   8   5 11.6174 20.8689   1
   4  -8  -5 12.8520 17.9212   0
  -4   8   5-6.69436 13.1731   3
   4  -8  -4 2405.43 42.4731   0
  -4   8   4 2322.44 44.2599   1
  -4   8   4 2257.88 29.8858   3
   4  -8  -3 447.635 23.1945   0
  -4   8   3 417.326 22.4039   1
  -4   8   3 455.205 12.4973   3
   4   8  -2 2879.18 46.8676   3
  -4   8   2 2687.80 41.0928   1
   4   8  -1 1304.82 32.9555   3
  -4   8   1 1300.69 28.6591   1
  -4   8   0 6127.05 52.5668   1
   4   8   0 6334.44 65.4370   3
  -4   8  -1 6868.01 54.2705   1
   4   8   1 7271.68 73.2705   3
   4   8   1 6985.30 35.3378   0
   4   8   1 7089.55 67.9555   1
   4   8   2 980.764 32.6829   3
  -4   8  -2 923.316 21.5728   1
   4   8   2 985.353 30.0035   1
   4  -8   3 73.0776 15.3691   3
   4   8   3 85.4672 22.7328   3
   4   8   3 91.3468 18.2613   1
   4   8   4 548.165 32.9627   3
   4   8   4 518.283 25.7857   1
   4  -8   4 543.683 25.9130   3
   4   8   5 300.910 31.1818   3
   4   8   5 291.210 23.2206   1
   4  -8   5 272.593 25.1673   3
   4   8   6 944.831 43.4653   3
   4  -8   6 1122.55 40.4252   3
   4  -8   7 84.0473 27.1094   3
   4   8   7 35.7562 29.5217   3
   4   8   8 285.053 38.4324   3
   4  -8   8 282.065 35.0159   3
   4  -8   9-20.1508 29.2055   3
   4   8   9-47.8120 33.8822   3
   4  -8  10-9.24251 28.7349   3
   4   8  10 109.190 35.6677   3
   4  -8  11-10.2438 38.7813   3
  -4   9  14 73.0558 41.3741   3
  -4   9  14 94.1192 25.7910   1
  -4   9  13 1.43113 35.8390   3
  -4   9  13-56.3147 33.0740   1
  -4   9  12 24.7295 25.3789   1
  -4   9  12 6.21134 28.2664   3
  -4   9  11 38.2884 28.4155   3
  -4   9  11-17.9717 29.2454   1
  -4   9  10-0.65317 31.1086   3
  -4   9  10-1.14487 28.9695   1
  -4   9   9-14.5300 25.7807   3
  -4   9   9 15.9887 26.1696   1
  -4   9   8-14.5796 23.3130   1
  -4   9   8-0.88715 19.1426   3
  -4   9   7-0.70368 24.0981   1
  -4   9   7 31.8686 18.5282   3
  -4   9   6-20.2994 23.8829   1
  -4   9   6-17.7209 15.4720   3
   4  -9  -5 22.7661 19.6175   0
  -4   9   5-10.7355 20.3064   1
  -4   9   5 15.2190 13.6017   3
  -4   9   4-0.68485 18.3793   1
   4  -9  -4-20.6613 17.1699   0
  -4   9   4-49.5005 10.2844   3
  -4   9   3-19.9870 19.0837   1
   4  -9  -3 2.35574 12.7981   0
  -4   9   3-7.07728 7.47478   3
  -4   9   2 2.41931 16.7958   1
   4   9  -2-15.3959 17.6758   3
   4   9  -1 9.78675 18.7891   3
  -4   9   1-11.0912 15.6197   1
   4   9   0 21.4393 19.1186   3
  -4   9   0 4.03233 14.4955   1
   4   9   1-5.48776 17.0320   1
  -4   9  -1-10.2637 12.7055   1
   4   9   1-1.89324 5.57675   0
   4   9   1-8.86714 18.7435   3
  -4   9  -2-14.7174 12.4709   1
   4   9   2-4.05163 18.7055   3
   4   9   2 19.8214 18.2453   1
   4   9   3 0.57248 20.8720   3
   4   9   3-10.1460 17.1762   1
   4   9   4-19.5901 18.6229   1
   4   9   4-5.16899 22.9671   3
   4   9   5 10.3956 19.3834   1
   4  -9   5 11.6590 20.9243   3
   4   9   5-24.4641 25.6163   3
   4  -9   6-27.2009 22.5211   3
   4   9   6-28.7029 20.1157   1
   4   9   6-10.8898 26.7309   3
   4  -9   7-26.9648 26.5257   3
   4   9   7 36.1946 28.9267   3
   4  -9   8-30.1380 25.6833   3
   4   9   8-6.38504 29.5033   3
   4  -9   9-11.7808 30.6359   3
   4   9   9-38.8935 33.0682   3
   4   9  10 80.0588 34.9874   3
  -4  10  14 81.0607 42.7376   3
  -4  10  14-53.7848 31.2160   1
  -4  10  13-40.0160 35.5879   3
  -4  10  13 104.221 31.3896   1
  -4  10  12 54.4107 29.6274   3
  -4  10  12-18.7395 26.6186   1
  -4  10  11 114.384 32.9212   3
  -4  10  11 150.469 33.8787   1
  -4  10  10 124.952 30.9058   3
  -4  10  10 153.180 32.9877   1
  -4  10   9 336.759 32.6242   1
  -4  10   9 296.991 28.3428   3
  -4  10   8 609.602 31.6025   3
  -4  10   8 546.108 35.1607   1
  -4  10   7 108.755 26.4847   1
  -4  10   7 111.744 19.8945   3
  -4  10   6 1249.04 42.7744   1
  -4  10   6 1279.68 32.5239   3
  -4  10   5 828.040 34.4153   1
  -4  10   5 885.859 25.3742   3
   4 -10  -4 2392.38 44.1062   0
  -4  10   4 2491.64 48.0278   1
  -4  10   4 2412.76 33.0361   3
   4 -10  -3 560.618 25.1258   0
  -4  10   3 564.047 14.6027   3
  -4  10   3 551.018 27.5204   1
  -4  10   2 675.720 27.3259   1
   4  10  -2 784.714 31.4687   3
   4  10  -1 931.126 31.3508   3
  -4  10   1 972.644 28.9742   1
   4  10   0 1970.82 42.0587   3
   4  10   0 1764.35 38.0284   1
  -4  10   0 1803.30 34.9863   1
   4  10   1 774.865 31.1879   1
   4  10   1 773.116 30.1404   3
  -4  10  -1 741.884 24.5096   1
   4  10   2 494.938 28.7614   3
  -4  10  -2 491.312 20.8803   1
   4  10   2 564.962 28.0876   1
   4  10   3 407.321 26.0639   1
   4  10   3 400.367 29.2587   3
   4  10   4 71.1559 20.8555   1
   4  10   4 54.9342 24.3088   3
   4  10   5 559.645 35.9294   3
   4  10   5 612.167 31.2130   1
   4  10   6 74.0078 23.9331   1
   4  10   6 84.8678 29.3619   3
   4  10   7 128.089 34.3978   3
   4  10   8-7.47947 29.2461   3
   4  10   9 70.4580 34.2798   3
   4  10  10 87.1043 37.1365   3
  -4  11  14 24.6525 25.6652   3
  -4  11  13 75.1940 24.7043   1
  -4  11  13-111.047 36.5140   3
  -4  11  12 145.142 31.9021   3
  -4  11  12-12.1351 30.4452   1
  -4  11  11 0.76591 32.7417   3
  -4  11  11-34.8654 29.6435   1
  -4  11  10-20.3546 26.0783   3
  -4  11  10 23.7123 27.2487   1
  -4  11   9-27.0198 27.2522   1
  -4  11   9-42.6342 22.0796   3
  -4  11   8 24.9229 26.1462   1
  -4  11   8 1.47519 20.8342   3
  -4  11   7-18.7020 25.5978   1
  -4  11   7 1.59541 16.9287   3
  -4  11   6-3.25608 24.9447   1
  -4  11   6 19.4256 16.0661   3
  -4  11   5 0.63809 23.1334   1
   4 -11  -4-4.42229 18.0631   0
  -4  11   4-8.44803 20.9140   1
  -4  11   3 4.92089 18.9065   1
   4 -11  -3 8.64612 16.9297   0
  -4  11   2 12.4753 17.9616   1
   4  11  -2 3.56602 19.5731   3
   4  11  -1-10.0558 18.8762   3
  -4  11   1-1.75321 16.9469   1
   4  11   0 10.9571 18.8923   3
   4  11   0 10.5672 19.8900   1
  -4  11   0-3.74379 15.6603   1
  -4  11  -1-7.76646 15.6178   1
   4  11   1-9.16300 19.7859   3
   4  11   1 24.9887 21.5811   1
   4  11   2-3.21961 19.7892   3
   4  11   2 12.5598 19.5697   1
  -4  11  -2-3.59242 15.3554   1
   4  11   3-11.0426 22.8005   3
   4  11   3 25.9054 21.8622   1
   4  11   4 4.41431 19.6917   1
   4  11   4-12.2703 24.7934   3
   4  11   5 0.62513 20.6150   1
   4  11   5-8.19054 25.6614   3
   4  11   6 3.03631 21.7990   1
   4  11   6 59.4386 30.3995   3
   4  11   7 37.9703 31.1728   3
   4  11   8-19.2092 30.9557   3
   4  11   9 51.9773 38.0542   3
   4  11  10-30.6700 38.2547   3
  -4  12  12 34.0177 29.9823   1
  -4  12  11 47.7834 27.3860   1
  -4  12  10 122.042 33.0510   1
  -4  12   9-40.4858 31.3824   1
  -4  12   8 853.459 43.9418   1
  -4  12   7 238.935 31.5379   1
  -4  12   6 184.986 29.2040   1
  -4  12   5 397.631 31.3237   1
  -4  12   4 796.900 33.7697   1
  -4  12   3 303.543 25.8391   1
   4  12  -2 375.274 27.5400   3
  -4  12   2 364.916 25.6332   1
  -4  12   1 534.409 27.5523   1
   4  12  -1 533.612 28.4725   3
   4  12   0 760.425 33.0562   1
   4  12   0 740.132 31.7375   3
  -4  12   0 703.962 27.4392   1
  -4  12  -1 571.028 25.3774   1
   4  12   1 660.462 31.6490   1
   4  12   1 614.955 30.6351   3
  -4  12  -2 32.5888 16.2907   1
   4  12   2 5.72788 20.6808   3
   4  12   2 41.7933 21.8607   1
   4  12   3 463.172 31.9005   3
   4  12   3 547.850 31.2381   1
   4  12   4 61.3603 24.0938   1
   4  12   4 18.4816 25.0317   3
   4  12   5 65.1215 24.4108   1
   4  12   5 84.9328 30.8304   3
   4  12   6 65.3076 28.3258   1
   4  12   6 67.7001 28.1580   3
   4  12   7 54.5298 28.9088   3
   4  12   8 126.844 37.2775   3
   4  12   9 142.281 39.8980   3
   4  12  10-33.5977 42.1769   3
  -4  13  13-14.9886 29.3143   1
  -4  13  12-26.9512 33.4068   1
  -4  13  11 8.94996 32.2204   1
  -4  13  10-15.2146 28.6074   1
  -4  13   9-0.94448 29.1403   1
  -4  13   8-26.5826 27.5607   1
  -4  13   7 24.4722 27.3232   1
  -4  13   6 2.47555 25.5514   1
  -4  13   5 14.2262 25.8043   1
  -4  13   4-15.3506 22.8714   1
  -4  13   3-6.51745 21.4401   1
   4  13  -2-18.9691 19.5118   3
  -4  13   2 14.3561 21.0865   1
   4  13  -1 12.5029 20.2688   3
  -4  13   1-5.12156 20.1658   1
   4  13   0 6.55614 22.4980   1
   4  13   0-8.64565 19.2971   3
  -4  13   0-10.5412 18.4547   1
   4  13   1-7.16454 19.5906   3
   4  13   1 3.43836 24.0902   1
  -4  13  -1-6.23511 19.1664   1
  -4  13  -2 8.02321 17.2494   1
   4  13   2-31.2966 22.5360   3
   4  13   3-1.74339 24.5471   3
   4  13   3 28.1589 23.2424   1
   4  13   4 16.6971 25.0281   3
   4  13   4 11.4411 24.7042   1
   4  13   5 24.0948 23.4709   1
   4  13   5-4.24046 26.0828   3
   4  13   6 13.8803 26.9207   1
   4  13   6 0.28161 28.9464   3
   4  13   7-6.63846 27.6069   3
   4  13   8-39.1895 32.7331   3
   4  13   9 39.2270 31.0567   3
  -4  14  12-91.1618 28.0552   1
  -4  14  11 107.840 36.4722   1
  -4  14  10 125.057 36.2665   1
  -4  14   9 90.1069 33.5366   1
  -4  14   8 66.9579 31.6748   1
  -4  14   7 789.620 43.3345   1
  -4  14   6 484.600 37.0717   1
  -4  14   5 304.712 31.9253   1
  -4  14   4 17.1775 24.1441   1
  -4  14   3 105.674 26.1808   1
   4  14  -3 103.687 23.2700   3
   4  14  -2 159.427 24.1834   3
  -4  14   2 142.119 24.2506   1
   4  14  -1 150.814 26.4472   1
   4  14  -1 221.471 24.9148   3
  -4  14   1 164.649 23.0605   1
   4  14   0 284.727 31.8787   1
  -4  14   0 253.043 24.6367   1
   4  14   0 256.959 26.5494   3
   4  14   1 499.893 31.1645   3
   4  14   1 478.493 34.2317   1
  -4  14  -1 498.398 27.3022   1
   4  14   2 314.215 29.1265   3
  -4  14  -2 343.249 24.4621   1
   4  14   2 370.177 30.4923   1
   4  14   3 227.559 31.2178   3
   4  14   3 234.210 28.2958   1
   4  14   4 454.368 35.9986   3
   4  14   4 487.763 35.1618   1
   4  14   5 89.6052 29.1238   1
   4  14   5 96.9333 30.5639   3
   4  14   6 141.627 28.8386   1
   4  14   6 120.857 32.0515   3
   4  14   7-9.74304 31.5684   3
   4  14   8 115.512 35.0151   3
   4  14   9 72.7309 39.8994   3
  -4  15  12-71.6811 27.9685   1
  -4  15  11 41.5275 35.0475   1
  -4  15  10-30.9068 34.2680   1
  -4  15   9 0.10230 33.8232   1
  -4  15   8 7.48909 31.1515   1
  -4  15   7-19.7525 29.1657   1
  -4  15   6 21.7036 28.2647   1
  -4  15   5 9.21659 27.9423   1
  -4  15   4-16.1309 27.2059   1
  -4  15   3-7.87873 25.1864   1
   4  15  -3 14.8572 22.7262   3
   4  15  -2 16.6125 21.5138   3
  -4  15   2 18.6378 25.0960   1
   4  15  -1 5.85945 21.2532   3
   4  15  -1 4.60746 24.8395   1
  -4  15   1 0.18067 22.3856   1
   4  15   0-25.4948 26.9481   1
  -4  15   0-10.1157 20.1494   1
   4  15   0-25.6881 21.0204   3
   4  15   1-20.9507 22.1454   3
   4  15   1-15.3568 27.4004   1
  -4  15  -1 29.6805 20.1852   1
   4  15   2-7.27573 22.0672   3
   4  15   2 18.6510 27.2845   1
   4  15   3 9.72236 27.2923   3
   4  15   3 26.0915 26.6139   1
   4  15   4 21.3273 26.3147   3
   4  15   4 27.2445 27.1023   1
   4  15   5-5.16916 26.4369   1
   4  15   5 38.0255 26.2425   3
   4  15   6 0.00000 24.4027   1
   4  15   6-18.2536 30.8216   3
   4  15   7 18.8240 29.6747   3
   4  15   8 36.1765 34.1599   3
   4  15   9-3.84986 28.4505   3
  -4  16  11 132.312 35.9715   1
  -4  16  10 70.5124 36.5680   1
  -4  16   9 16.6659 33.3073   1
  -4  16   8 161.852 33.1415   1
  -4  16   7 10.1526 27.7862   1
  -4  16   6 13.6267 26.7023   1
  -4  16   5 551.204 37.7780   1
  -4  16   4 282.163 31.8612   1
  -4  16   3 1314.32 47.0015   1
   4  16  -3 1256.51 44.3879   3
  -4  16   2 440.051 33.2180   1
   4  16  -2 370.500 29.3436   3
   4  16  -1 1429.89 44.1235   3
   4  16  -1 1522.86 49.9385   1
  -4  16   1 1505.73 47.2887   1
   4  16   0 681.641 39.5296   1
   4  16   0 701.553 35.4838   3
  -4  16   0 689.026 35.6988   1
   4  16   1 433.285 36.2636   1
   4  16   1 501.797 31.9171   3
  -4  16  -1 496.909 31.2857   1
   4  16   2 100.500 26.3864   1
   4  16   2 88.2217 23.3928   3
   4  16   3 215.662 30.6137   3
   4  16   3 241.165 34.5782   1
   4  16   4 65.5951 28.2403   3
   4  16   4 123.857 29.6606   1
   4  16   5 54.8838 26.8695   1
   4  16   5 74.6398 26.7706   3
   4  16   6-35.0851 29.6031   1
   4  16   6-23.6230 27.3406   3
   4  16   7-47.4205 26.5633   3
   4  16   7 48.6271 27.5063   1
   4  16   8 105.415 39.9680   3
  -4  17  11-60.6161 37.8780   1
  -4  17  10 37.0167 38.7653   1
  -4  17   9-91.5879 27.8930   1
  -4  17   8 18.3132 29.5127   1
  -4  17   7-1.96738 31.3710   1
  -4  17   6 41.3772 32.1304   1
  -4  17   5-5.69478 29.6054   1
  -4  17   4 3.78426 28.7465   1
   4  17  -4-4.26622 26.0612   3
  -4  17   3-33.6024 28.9307   1
   4  17  -3-4.88078 23.5570   3
   4  17  -2-20.7280 23.8622   3
   4  17  -2-22.9811 27.1548   1
  -4  17   2 13.4575 26.5015   1
   4  17  -1 4.31428 30.2714   1
   4  17  -1-18.0679 22.6867   3
  -4  17   1-18.0673 25.7894   1
   4  17   0 1.65037 21.4819   3
   4  17   0 14.7225 29.8957   1
  -4  17   0-14.5682 24.1673   1
   4  17   1-15.0006 29.9022   1
  -4  17  -1-1.05776 24.4566   1
   4  17   1-3.72819 21.8118   3
   4  17   2-24.6264 24.3834   3
   4  17   2-40.9998 28.9927   1
   4  17   3-0.26092 27.4885   1
   4  17   3-2.61416 25.7847   3
   4  17   4-9.71760 27.1677   3
   4  17   4 52.2374 30.2175   1
   4  17   5 15.9187 29.5916   1
   4  17   5 24.1321 26.4072   3
   4  17   6-38.0611 25.9498   1
   4  17   6-34.2387 24.3143   3
   4  17   7-15.5571 29.9516   1
   4  17   7-33.0163 32.3876   3
   4  17   8 87.4077 33.8421   3
  -4  18  10 181.208 35.0834   1
  -4  18   8 22.2922 34.8336   1
  -4  18   7 49.2508 31.7049   1
  -4  18   6 9.78684 28.2971   1
  -4  18   5 70.8073 31.9814   1
   4  18  -4 256.035 30.1745   3
  -4  18   4 167.875 36.1070   1
  -4  18   3 7.22717 29.0203   1
   4  18  -3 81.7996 25.2066   3
   4  18  -2 362.667 29.4506   3
   4  18  -2 336.410 35.1694   1
  -4  18   2 371.633 34.1301   1
   4  18  -1 108.303 25.8000   3
   4  18  -1 96.7171 30.2315   1
  -4  18   1 86.2968 27.0914   1
  -4  18   0 36.2520 24.1116   1
   4  18   0 41.1984 22.7029   3
   4  18   0 43.3306 30.3448   1
   4  18   1 62.1776 30.7394   1
   4  18   1 99.7711 25.1444   3
  -4  18  -1 15.0957 25.2032   1
   4  18   2 158.898 27.5486   3
   4  18   2 130.659 30.9744   1
   4  18   3 135.288 27.0083   3
   4  18   3 124.771 32.1618   1
   4  18   4 55.1255 27.8514   3
   4  18   4 78.9613 32.1677   1
   4  18   5-3.12435 32.8869   1
   4  18   5 13.0630 25.9337   3
   4  18   6-25.7359 30.0044   1
   4  18   6-13.2525 26.3507   3
   4  18   7 30.3834 32.9363   1
   4  18   7 70.3145 30.8794   3
   4  18   8 77.6678 30.8890   3
  -4  19   9-47.2819 33.8536   1
  -4  19   8-23.2634 29.2554   1
  -4  19   7 11.5150 32.6682   1
  -4  19   6 27.2333 30.5222   1
  -4  19   5-2.01735 29.5970   1
   4  19  -5-33.6087 26.2215   3
  -4  19   4 42.6062 33.0622   1
   4  19  -4-18.8781 24.0335   3
  -4  19   3-8.43328 27.4542   1
   4  19  -3-19.4823 27.7207   1
   4  19  -3 39.0257 25.3487   3
   4  19  -2 14.8822 24.6027   3
   4  19  -2 33.1617 28.7611   1
  -4  19   2 45.7790 28.5788   1
   4  19  -1-16.1278 22.3660   3
   4  19  -1-36.6209 30.7530   1
  -4  19   1-11.5087 24.3209   1
  -4  19   0 16.2538 26.5951   1
   4  19   0 48.9453 24.3487   3
   4  19   0-22.6816 31.6785   1
   4  19   1 61.3723 28.6639   3
   4  19   1 7.75686 32.0284   1
  -4  19  -1-37.0678 22.7602   1
   4  19   2 10.4502 25.5116   3
   4  19   2-21.1954 27.2189   1
   4  19   3-45.8360 24.9540   3
   4  19   3 1.97694 28.6309   1
   4  19   4-11.0044 25.4158   3
   4  19   4 60.7768 31.7153   1
   4  19   5 22.4810 31.1847   1
   4  19   5 83.4127 24.6698   3
   4  19   6-78.3310 25.6857   3
   4  19   7 76.9613 32.6191   1
   4  19   7-84.6645 28.4880   3
  -4  20   9 48.6193 39.8794   1
  -4  20   8 63.0633 32.5171   1
  -4  20   7 40.8150 33.3207   1
  -4  20   6 43.3407 34.8381   1
  -4  20   5-27.5270 30.5581   1
   4  20  -5 9.04571 25.4289   3
  -4  20   4 122.047 33.6040   1
   4  20  -4 61.0430 22.6672   3
  -4  20   3 242.082 34.3392   1
   4  20  -3 228.004 29.8229   3
   4  20  -3 196.750 32.5565   1
   4  20  -2 60.5700 30.5731   1
   4  20  -2 63.8573 25.1466   3
  -4  20   2 110.819 30.6579   1
   4  20  -1 185.849 34.1695   1
   4  20  -1 105.120 25.8397   3
  -4  20   1 107.664 32.4940   1
   4  20   0 149.444 25.7872   3
  -4  20   0 189.860 32.1280   1
   4  20   0 150.268 32.5762   1
   4  20   1 28.1033 24.0242   3
   4  20   1 38.6145 32.3745   1
   4  20   2 42.5694 31.1250   1
   4  20   2 94.7194 25.9547   3
   4  20   3-6.29980 24.8509   3
   4  20   3-41.3589 31.4943   1
   4  20   4 82.3241 29.8595   1
   4  20   4 10.7481 25.5313   3
   4  20   5 82.5565 31.0880   1
   4  20   5 82.2371 30.1028   3
   4  20   6-37.8607 24.9821   3
   4  20   7 158.481 35.4609   1
   4  20   7-64.2445 29.0239   3
  -4  21   8-29.1790 37.5696   1
  -4  21   7-5.07911 28.2044   1
  -4  21   6 63.3504 35.6099   1
  -4  21   4 18.2206 30.3985   1
   4  21  -4-20.7397 27.4421   1
  -4  21   3-1.41254 32.9817   1
   4  21  -3 13.9885 28.3268   1
   4  21  -2-36.7426 32.1391   1
  -4  21   2 37.3524 30.1231   1
   4  21  -1 51.0966 31.6632   1
  -4  21   1-4.48965 26.6943   1
   4  21   0-19.6494 30.3827   1
  -4  21   0 22.2071 27.3262   1
   4  21   1 13.5780 30.7439   1
   4  21   2 57.2930 36.9419   1
   4  21   3 0.89855 28.1926   1
   4  21   4 80.9154 38.3994   1
   4  21   5 51.3691 29.8760   1
  -4  22   7-9.05067 28.3728   1
  -4  22   6 155.878 38.7563   1
  -4  22   5-36.5234 34.1535   1
  -4  22   4 30.3319 29.9122   1
   4  22  -4 15.8673 33.2004   1
  -4  22   3 32.2747 28.8646   1
   4  22  -3 24.7486 33.4313   1
  -4  22   2 149.029 31.8947   1
   4  22  -2 79.8220 31.1740   1
   4  22  -1 31.9046 33.5290   1
  -4  22   1 78.6754 30.5393   1
   4  22   0 87.6500 36.6691   1
  -4  22   0 50.4553 27.1691   1
   4  22   1 79.8487 35.4343   1
   4  22   2 316.159 45.8288   1
   4  22   3-71.6680 36.0695   1
   4  22   4 101.824 33.7930   1
  -4  23   6 78.6680 33.3765   1
  -4  23   5-104.848 36.8303   1
   4  23  -5-6.18624 29.3819   1
  -4  23   4 10.7191 38.8999   1
   4  23  -4 61.6581 36.3996   1
  -4  23   3-21.1140 35.0171   1
   4  23  -3-27.1940 35.7581   1
  -4  23   2-2.28698 35.1113   1
   4  23  -2 88.2476 38.1697   1
   4  23  -1-31.6650 31.8661   1
  -4  23   1 45.4242 32.7366   1
   4  23   0 105.121 39.4352   1
  -4  23   0-70.1049 21.2966   1
   4  23   1-92.1320 37.6403   1
   4  23   2 31.8787 38.6797   1
   4  23   3-29.2005 35.7775   1
   4  24  -5 164.163 37.7184   1
  -4  24   4 3.44528 27.3978   1
   4  24  -4 19.4156 36.1367   1
  -4  24   3 77.2431 30.9378   1
   4  24  -3 71.2585 33.3658   1
  -4  24   2-22.2164 31.9673   1
   4  24  -2 50.9398 30.6054   1
   4  24  -1-4.57135 36.9092   1
  -4  24   1 108.762 36.1351   1
   4  24   0 102.130 35.3572   1
  -4  25   3 68.0762 37.1938   1
  -4  25   2-25.1011 28.9435   1
  -4  25   1 61.5169 36.0571   1
  -5   0  14 78.8777 35.1456   1
  -5   0  13-40.1976 34.7036   1
  -5   0  12 34.0086 34.2008   3
  -5   0  12 45.9250 31.1962   1
  -5   0  11 18.4498 28.3002   3
  -5   0  11 20.3530 30.4593   1
  -5   0  10 13.7179 26.8582   3
  -5   0  10-1.12003 26.8116   1
  -5   0   9 27.9121 26.1831   3
  -5   0   9-8.40454 26.0928   1
  -5   0   8-30.8219 23.1865   1
   5   0  -7-25.8281 16.5064   2
  -5   0   7-18.4991 22.9426   1
  -5   0   6-10.6337 19.0572   0
   5   0  -6 5.22481 15.6904   2
  -5   0   6-8.58241 18.9638   1
   5   0  -5 18.2039 17.3597   2
  -5   0   5-15.4558 19.7488   1
  -5   0   5-5.67489 15.0536   0
  -5   0   4-3.77546 17.2322   1
  -5   0   4-5.52418 12.8063   0
   5   0  -4-2.92592 15.9204   2
   5   0  -4 8.50444 14.3549   0
   5   0  -3 2.76218 16.4192   2
   5   0  -3 4.90075 12.4021   0
  -5   0   3 1.40652 15.0114   1
   5   0  -2-7.67408 13.3301   4
  -5   0   2 3.54726 13.0229   1
   5   0  -1 10.0461 11.3847   3
   5   0  -1 3.26541 14.6102   4
   5   0   0 6.17682 18.2739   4
   5   0   0-4.69789 11.2502   3
   5   0   1-10.4386 19.5158   4
   5   0   1 0.58359 13.4224   3
   5   0   2-11.0481 15.4922   3
   5   0   3-5.49814 16.4424   3
   5   0   4-16.7865 20.6565   3
   5   0   5 4.34263 23.0025   3
   5   0   6 5.41298 26.1881   3
   5   0   7-20.8786 25.9348   3
   5   0   8 34.9360 29.8148   3
   5   0   9-45.1782 32.1235   3
   5   0  11 149.469 45.8421   3
  -5   1  14 112.492 42.2318   3
  -5  -1  14 126.057 38.4057   1
  -5   1  14-1.49300 32.9363   1
  -5  -1  13 55.4508 36.3296   1
  -5   1  13-28.2736 34.2795   3
  -5   1  13 98.4557 38.0313   1
  -5  -1  12-0.18772 32.3563   1
  -5   1  12-17.4509 30.5862   3
  -5   1  12-16.3338 31.6979   1
  -5   1  11 29.2331 26.5003   3
  -5   1  11 13.4901 29.8268   1
  -5  -1  11-1.17688 27.7750   1
  -5   1  10-10.0804 28.1910   3
  -5   1  10-23.9049 28.0186   1
  -5  -1  10 47.0644 29.7625   1
  -5  -1   9 756.509 38.6776   1
  -5   1   9 698.493 38.0136   1
  -5   1   9 534.777 33.8774   3
  -5   1   8 130.006 24.7892   3
  -5   1   8 155.111 24.0078   1
   5  -1  -8 95.2118 17.7993   2
  -5  -1   8 180.591 28.8952   1
  -5   1   7 696.928 30.7064   3
   5  -1  -7 636.929 25.0249   2
  -5   1   7 663.477 31.3361   1
  -5  -1   7 706.101 32.8090   1
   5  -1  -6 762.051 26.5825   2
  -5   1   6 750.661 30.6179   1
  -5  -1   6 751.492 27.7418   0
  -5  -1   6 796.794 32.4659   1
  -5   1   6 796.370 29.3557   0
   5   1  -6 682.883 25.7857   2
  -5   1   5 536.200 23.8558   1
  -5  -1   5 611.477 27.7039   1
   5  -1  -5 576.247 23.9204   2
   5   1  -5 575.226 23.0833   2
  -5  -1   5 619.457 23.4203   0
  -5   1   5 602.017 24.4990   0
  -5   1   4 5396.55 51.5979   0
  -5   1   4 5448.60 54.4163   1
   5   1  -4 5383.80 54.1316   2
  -5  -1   4 5483.16 49.2078   0
   5  -1  -4 5454.05 50.9703   0
  -5  -1   4 5235.30 54.8540   1
  -5   1   3 3311.83 38.8940   1
   5  -1  -3 3466.11 39.1291   0
   5   1  -3 3324.81 35.2503   0
  -5  -1   3 3340.58 41.1063   1
   5   1  -3 3388.16 42.9196   2
   5  -1  -3 3460.83 34.9228   4
  -5   1   2 9750.96 55.7407   1
   5  -1  -2 9784.49 53.0662   3
   5  -1  -2 9891.26 61.3178   4
   5   1  -2 9948.17 66.9491   2
   5   1  -2 9922.13 62.7172   4
   5   1  -1 3962.04 39.3005   3
   5   1  -1 3990.81 44.0996   4
   5  -1  -1 3891.63 33.6662   3
  -5   1   1 3850.19 29.9376   1
   5   1  -1 4107.65 42.4350   2
   5  -1  -1 4086.34 44.9025   4
   5  -1   0 861.199 19.7148   3
   5   1   0 859.763 21.6532   2
   5   1   0 826.664 26.4756   4
   5   1   0 885.053 23.1045   3
   5   1   1 7574.86 65.6763   4
   5   1   1 7674.20 62.8273   3
   5  -1   1 7379.81 58.3347   3
   5   1   2 433.562 25.5908   4
   5   1   2 381.638 9.98588   1
   5  -1   2 344.782 20.2096   3
   5   1   2 450.439 22.9395   3
   5   1   3 471.161 27.0978   4
   5  -1   3 459.356 24.8090   3
   5   1   3 480.607 25.6320   3
   5   1   4 213.325 25.8124   4
   5   1   4 298.968 26.2806   3
   5  -1   4 304.389 24.8011   3
   5   1   5 421.997 28.4784   4
   5   1   5 509.428 32.6244   3
   5  -1   5 446.722 30.4252   3
   5   1   6 115.572 26.1367   4
   5   1   6 138.409 26.5537   3
   5  -1   6 140.587 26.3820   3
   5   1   7 3114.19 61.5418   4
   5   1   7 3208.94 71.1228   3
   5  -1   7 3120.60 68.7016   3
   5   1   8 321.296 35.3939   3
   5  -1   8 341.184 35.6921   3
   5  -1   9 5.78920 35.0948   3
   5   1   9 35.8815 35.7165   3
   5   1  10 7.48778 34.4647   3
   5  -1  10 68.6668 39.4399   3
   5   1  11-6.34970 41.0298   3
   5  -1  11-4.72491 39.3657   3
  -5   2  14-21.1946 34.8058   3
  -5  -2  14-0.67782 35.6885   1
  -5  -2  13-9.13880 33.0941   1
  -5   2  13-24.6131 32.6265   1
  -5   2  13-11.1457 29.9736   3
  -5   2  12-4.82374 31.8788   3
  -5   2  12-53.6001 32.6546   1
  -5  -2  12 59.6907 32.5359   1
  -5   2  11 19.2575 27.3694   3
  -5  -2  11 46.0675 32.4298   1
  -5   2  11-22.4877 28.4616   1
  -5  -2  10 8.50029 27.7484   1
  -5   2  10 9.45559 28.6301   3
  -5   2  10 26.9508 25.0848   1
  -5  -2   9-36.9300 26.2448   1
  -5   2   9 42.1996 26.6939   3
  -5   2   9 6.13199 24.1504   1
  -5  -2   8-13.6609 24.2219   1
  -5   2   8 3.13421 20.9535   3
  -5   2   8 8.50918 21.9308   1
   5  -2  -8 7.67649 15.4714   2
  -5  -2   7-5.51317 22.4605   1
  -5   2   7 12.2659 20.0587   1
   5  -2  -7 9.21304 16.1989   2
  -5   2   7 5.66557 19.5216   3
  -5  -2   6 9.17534 20.1299   1
  -5   2   6 12.4307 18.6485   3
  -5   2   6 0.89201 19.5145   1
  -5   2   6-4.41574 15.8759   0
   5  -2  -6 21.9055 16.6322   2
  -5   2   5-6.71205 16.4229   1
  -5  -2   5 13.7534 18.0938   1
  -5  -2   5-0.53005 13.4904   0
  -5   2   5-10.4582 13.3298   0
   5   2  -5 10.1504 18.5497   2
  -5   2   4-7.94094 15.3798   1
  -5  -2   4-6.82663 13.3514   0
   5   2  -4-17.7587 18.2554   2
  -5  -2   4-11.8376 19.1008   1
   5  -2  -4 0.85370 16.1100   0
  -5   2   4 12.8217 13.4518   0
   5  -2  -3-6.35068 14.7523   0
  -5   2   3-0.83622 13.2390   1
   5  -2  -3-3.14692 12.3589   4
   5   2  -3 3.28696 16.3098   2
   5   2  -3 0.97130 11.0307   0
  -5  -2   3 5.63671 11.6124   0
  -5   2   2-10.3160 11.4347   1
   5   2  -2-18.3220 15.5951   2
   5  -2  -2-3.17050 8.37394   3
   5  -2  -2-3.22498 14.7790   4
   5   2  -2-1.47397 9.57260   0
   5   2  -1 18.6333 14.0890   3
   5   2  -1 13.5366 14.2065   2
   5  -2  -1-3.57266 8.00715   3
  -5   2   1 2.22515 8.41525   1
   5   2  -1 5.41692 18.1411   4
   5  -2   0 7.81497 9.72131   3
   5   2   0-10.1116 14.5776   3
   5   2   0 5.12832 17.6022   4
   5   2   0 14.6224 12.7554   2
   5   2   1-12.9190 16.3455   4
   5   2   1-7.89458 15.4970   3
   5   2   1 10.5178 7.89420   1
   5   2   1 17.6286 11.2377   2
   5   2   2-13.1410 7.54792   1
   5   2   2-4.40313 18.6846   4
   5   2   2 11.6506 9.44222   2
   5   2   2-12.8226 16.5956   3
   5  -2   2 8.46206 15.2759   3
   5   2   3-12.5039 18.4908   4
   5   2   3 4.90656 8.13995   1
   5   2   3-11.3736 18.2746   3
   5  -2   3 4.20040 17.5237   3
   5   2   4-0.36826 22.0032   4
   5   2   4-10.7512 20.0279   3
   5  -2   4-12.7416 19.3214   3
   5   2   5 1.57596 21.4761   4
   5   2   5-12.6971 23.0795   3
   5  -2   5-8.53701 20.6943   3
   5   2   6 0.05595 22.6417   4
   5   2   6 46.5826 28.4669   3
   5  -2   6 6.03711 22.8234   3
   5   2   7 32.3268 30.2267   3
   5  -2   7 4.44670 25.3241   3
   5  -2   8-15.0371 29.5692   3
   5   2   8-21.1873 28.5773   3
   5  -2   9 4.26326 27.7197   3
   5   2   9-9.52605 30.4438   3
   5  -2  10 52.7356 39.5519   3
   5   2  10 39.7437 29.1366   3
  -5   3  14 18.7615 36.8567   3
  -5   3  14-15.9205 33.1839   1
  -5   3  13 49.1449 36.4862   3
  -5   3  13-31.9911 33.9721   1
  -5   3  12 50.4502 23.9961   3
  -5   3  12-25.8091 32.5238   1
  -5  -3  12-16.7218 29.9141   1
  -5   3  11 54.8057 29.8405   3
  -5  -3  11 16.8467 28.4223   1
  -5   3  11 45.1234 27.2251   1
  -5   3  10 48.7223 27.6393   3
  -5   3  10 67.2158 28.4122   1
  -5  -3  10 72.9277 28.3621   1
  -5   3   9 256.218 28.6412   1
  -5  -3   9 301.603 32.5493   1
  -5   3   9 258.698 28.7636   3
  -5   3   8 559.023 31.7495   1
   5  -3  -8 588.676 24.3034   2
  -5  -3   8 664.548 35.7623   1
  -5   3   8 601.231 32.3482   3
  -5   3   7 1321.79 39.4858   1
   5  -3  -7 1151.96 31.0131   2
  -5  -3   7 1249.67 39.1668   1
  -5   3   7 1228.55 35.4582   3
  -5   3   6 235.958 24.2133   1
  -5   3   6 242.139 19.8598   0
  -5  -3   6 210.300 26.1150   1
  -5   3   6 209.166 19.8318   3
  -5   3   5 1259.80 32.9697   1
  -5   3   5 1289.64 32.8520   0
  -5  -3   5 1257.11 34.2861   1
   5  -3  -5 1317.60 32.8847   0
   5  -3  -4 2421.20 25.8075   4
   5  -3  -4 2418.10 38.6211   0
  -5  -3   4 2415.51 32.2098   0
  -5   3   4 2467.41 39.4319   1
   5  -3  -3 1910.58 32.6502   0
  -5  -3   3 1811.85 24.7631   0
   5  -3  -3 1910.90 27.1422   4
   5   3  -3 1975.18 36.1873   2
  -5   3   3 1872.60 31.1240   1
   5   3  -2 2883.53 39.7975   2
   5   3  -2 3028.42 40.8417   3
   5   3  -2 2937.23 26.4574   0
  -5   3   2 2832.91 32.4088   1
   5   3  -1 5.04474 13.7855   2
   5   3  -1 15.0626 15.2569   3
   5  -3  -1 32.9891 6.76292   3
  -5   3   1 37.2115 9.45784   1
   5   3   0 708.597 23.8958   4
   5   3   0 727.732 22.9740   3
   5   3   0 697.735 20.3780   2
   5  -3   0 698.016 16.5211   3
   5   3   1 41.7024 10.6102   2
   5  -3   1 91.8137 13.1416   3
   5   3   1 74.7818 18.8036   4
   5   3   1 88.2677 10.7572   1
   5   3   1 97.7071 17.5318   3
   5   3   2 1164.22 21.2761   1
   5   3   2 1203.98 32.6288   4
   5  -3   2 1301.55 29.3270   3
   5   3   2 1253.51 33.2740   3
   5   3   3 76.6532 20.4026   4
   5   3   3 130.628 11.7102   1
   5   3   3 121.340 21.0154   3
   5  -3   3 91.8728 17.9198   3
   5   3   4 196.104 22.9264   4
   5  -3   4 162.730 21.8258   3
   5   3   4 206.172 24.4556   3
   5   3   5 882.269 32.8374   4
   5   3   5 910.813 38.6983   3
   5  -3   5 806.473 34.0175   3
   5   3   6 240.007 26.2043   4
   5   3   6 221.840 30.9638   3
   5  -3   6 239.533 27.7403   3
   5  -3   7 1269.94 47.9829   3
   5   3   7 1309.60 53.2735   3
   5  -3   8 57.4806 31.7357   3
   5   3   8 102.246 35.0719   3
   5  -3   9 536.831 29.1176   3
   5   3   9 144.125 30.7722   3
   5  -3  10 12.0375 33.6897   3
   5   3  10 111.264 36.2370   3
   5  -3  11 57.4050 41.2474   3
  -5   4  14-18.9648 36.6082   3
  -5   4  14-91.1157 35.2611   1
  -5   4  13 60.9462 33.1074   3
  -5   4  13-41.7413 35.8090   1
  -5  -4  13 20.2616 34.1210   1
  -5   4  12 35.9779 32.4185   3
  -5   4  12 36.2362 24.8080   1
  -5  -4  12 55.0713 32.7749   1
  -5   4  11 16.6249 30.2357   3
  -5   4  11 41.1535 25.5374   1
  -5  -4  11 74.9280 33.0806   1
  -5   4  10-3.64860 27.7461   3
  -5   4  10 25.1013 27.1815   1
  -5  -4  10 39.8018 27.6731   1
  -5   4   9-11.6265 23.0831   3
  -5   4   9-26.2580 24.1343   1
  -5  -4   9 39.4474 27.7980   1
  -5   4   8 13.2320 23.3882   1
  -5   4   8-4.91896 18.9317   3
   5  -4  -8-0.62632 16.0105   2
  -5  -4   8 18.9479 24.9724   1
  -5   4   7-6.32363 18.4918   3
   5  -4  -7 15.8540 15.9991   2
  -5  -4   7 10.1025 22.4798   1
  -5   4   7-6.02350 22.1131   1
  -5   4   6 5.49708 16.8026   3
  -5   4   6-17.6400 18.1588   0
  -5   4   6 14.9309 20.9789   1
  -5   4   5-18.2892 18.0667   0
  -5   4   5-3.48169 13.5832   3
   5  -4  -5 5.96868 13.1544   0
  -5   4   5-1.24131 17.0214   1
   5  -4  -4-9.39277 9.71108   4
  -5  -4   4-6.71199 11.6308   0
   5  -4  -4 0.92751 13.9311   0
  -5   4   4 1.76163 16.6967   1
  -5  -4   3-2.20587 9.57805   0
  -5   4   3-1.91284 15.0296   1
   5  -4  -3-9.86197 16.0739   0
   5   4  -2-14.2744 15.8340   3
  -5   4   2-5.09830 11.8607   1
   5   4  -2 0.97390 7.01187   0
   5   4  -1-5.84611 15.3495   3
  -5   4   1 3.58928 9.15716   1
  -5   4   0-0.64896 6.25697   1
   5   4   0 17.6218 16.3064   3
   5  -4   0 1.56126 7.67408   3
   5   4   1 0.90787 18.3992   4
   5   4   1-3.40508 15.2821   3
   5   4   1 3.37005 10.8684   1
   5  -4   1-1.73769 10.0563   3
   5   4   2-3.41834 18.2016   4
   5   4   2-9.99597 19.0580   3
   5   4   2 25.1436 11.2242   1
   5  -4   2 14.2190 13.4572   3
   5   4   3 10.3603 12.2406   1
   5   4   3 6.27937 17.9970   4
   5   4   3 15.0546 19.4926   3
   5  -4   3-23.6129 15.1934   3
   5   4   4 24.4862 21.7716   3
   5   4   4 11.2427 19.3863   4
   5  -4   4 9.83281 17.8813   3
   5   4   5 5.85568 20.1894   4
   5   4   5-24.3573 22.3967   3
   5  -4   5-14.8822 18.9038   3
   5  -4   6-38.3869 26.2127   3
   5   4   6-20.3971 23.0064   4
   5   4   6-26.0584 26.9263   3
   5  -4   7 13.3243 27.1584   3
   5   4   7 39.9502 30.6941   3
   5  -4   8 51.5976 31.8177   3
   5   4   8-23.8050 29.9403   3
   5  -4   9-87.4889 32.0756   3
   5   4   9-7.22957 32.9164   3
   5  -4  10 27.1834 31.7146   3
   5   4  10 6.56410 32.2154   3
   5  -4  11 87.1556 43.6123   3
  -5   5  14-78.5743 33.0831   1
  -5   5  14 87.4464 33.9195   3
  -5   5  13 49.2157 36.8736   3
  -5   5  13 64.7301 29.4700   1
  -5   5  12 145.674 30.3871   3
  -5   5  12 207.204 31.9055   1
  -5   5  11 220.722 32.6615   3
  -5   5  11 204.006 33.1578   1
  -5   5  10 316.344 33.2449   1
  -5   5  10 361.198 33.4627   3
  -5   5   9 469.533 34.3586   1
  -5   5   9 358.014 30.0379   3
   5  -5  -8 540.636 24.0201   2
  -5   5   8 623.528 31.5916   3
  -5   5   8 542.332 33.0998   1
  -5   5   7 37.0330 19.1831   3
  -5   5   7 51.8891 23.7605   1
  -5   5   6 187.833 22.5169   0
  -5   5   6 121.392 22.4412   1
  -5   5   6 167.637 18.1592   3
  -5   5   5 80.5612 14.8136   3
   5  -5  -5 88.6086 7.49211   4
   5  -5  -5 119.470 18.9672   0
  -5   5   5 81.9687 19.3723   1
  -5   5   5 84.4612 17.6897   0
   5  -5  -4 310.082 13.2741   4
   5  -5  -4 288.967 19.8025   0
  -5   5   4 309.626 14.3518   3
  -5   5   4 283.451 19.6502   1
  -5  -5   3 645.822 14.7672   0
  -5   5   3 656.963 23.0062   1
   5  -5  -3 614.334 21.5495   0
   5   5  -2 854.553 26.6250   3
  -5   5   2 809.281 21.2912   1
  -5   5   1 155.144 11.9969   1
   5   5  -1 160.518 18.8163   3
   5   5   0 299.863 19.6988   3
  -5   5   0 302.666 11.1854   1
   5  -5   0 260.925 9.89852   3
   5   5   1 261.618 15.2077   1
   5   5   1 275.753 20.4205   3
  -5   5  -1 286.343 8.80607   1
   5  -5   1 303.347 14.4000   3
   5   5   2 3158.69 46.9252   4
   5   5   2 3315.89 53.1010   3
   5   5   2 3248.16 40.0845   1
   5  -5   2 3194.90 41.3217   3
   5   5   3 1317.13 28.1072   1
   5   5   3 1424.10 40.6036   3
   5   5   3 1333.98 33.3462   4
   5  -5   3 1280.14 31.4272   3
   5   5   4 170.192 22.5544   4
   5   5   4 194.965 15.2812   1
   5  -5   4 177.557 21.0042   3
   5   5   4 162.933 24.9717   3
   5  -5   5 329.489 27.7150   3
   5   5   5 288.725 25.1085   4
   5   5   5 324.724 29.9582   3
   5   5   6 356.976 35.0722   3
   5  -5   6 391.406 31.6594   3
   5   5   7 500.868 40.0320   3
   5  -5   7 489.203 35.4394   3
   5  -5   8 6.34424 30.2936   3
   5   5   8 52.7821 28.5069   3
   5  -5   9 1.88466 33.7453   3
   5   5   9 70.7322 31.7483   3
   5  -5  10-7.72723 35.7436   3
   5   5  10-110.146 33.2990   3
   5  -5  11-50.5260 38.7554   3
  -5   6  15-61.6929 33.5886   1
  -5   6  14 62.8228 32.3689   3
  -5   6  14 51.2626 29.3273   1
  -5   6  13-24.8725 26.0034   1
  -5   6  13-32.2906 31.3679   3
  -5   6  12 2.15197 31.0048   3
  -5   6  12 38.0863 27.6743   1
  -5   6  11 14.1003 28.5901   3
  -5   6  11-31.0323 29.5929   1
  -5   6  10 40.0268 28.5582   1
  -5   6  10 16.2191 25.9448   3
  -5   6   9 9.79510 23.4813   3
  -5   6   9 13.0674 26.7784   1
  -5   6   8-20.0824 20.1371   3
  -5   6   8 28.4755 25.4566   1
  -5   6   7-1.34948 18.0205   3
  -5   6   7 2.09718 20.9751   1
  -5   6   6-7.07486 15.5349   3
  -5   6   6 1.88368 21.2877   1
  -5   6   5-16.1611 17.6674   1
  -5   6   5 10.3944 12.7958   3
   5  -6  -5 2.10077 6.81055   4
   5  -6  -5 3.06983 13.1251   0
  -5   6   4 22.1106 9.82192   3
  -5   6   4 10.0154 18.4917   1
   5  -6  -4 3.13528 17.3537   0
  -5   6   3 5.97521 14.8510   1
  -5  -6   3 1.89583 7.80771   0
  -5   6   2-8.04398 13.4829   1
   5   6  -2 9.61880 15.7506   3
  -5   6   1 8.14035 10.3536   1
   5   6  -1-8.30411 16.5476   3
   5  -6   0-4.74481 6.76199   3
  -5   6   0 2.50826 9.35954   1
   5   6   0-7.47103 15.4389   3
   5  -6   1 27.5568 10.5380   3
   5   6   1 9.23651 19.7296   3
   5   6   1-11.2171 13.8063   1
  -5   6  -1-1.09395 7.61881   1
   5  -6   2 21.3986 13.8742   3
   5   6   2 13.4950 19.1040   3
   5   6   2 1.79624 12.9099   1
   5  -6   3 16.2277 16.8894   3
   5   6   3 13.8955 19.1780   4
   5   6   3 1.94890 20.9779   3
   5   6   3 24.5575 13.6491   1
   5  -6   4 26.8635 18.2694   3
   5   6   4-7.12827 12.8892   1
   5   6   4-0.78990 18.7633   4
   5   6   4-10.7947 22.7345   3
   5  -6   5 5.81967 21.2900   3
   5   6   5 2.55723 20.0775   4
   5   6   5-4.96707 25.2329   3
   5  -6   6-19.7348 23.3424   3
   5   6   6 61.2302 29.0096   3
   5  -6   7-35.4597 26.7208   3
   5   6   7-21.1744 29.4571   3
   5  -6   8 49.3718 30.1722   3
   5   6   8-0.21105 31.6856   3
   5  -6   9 8.00062 27.5281   3
   5   6   9 104.540 35.0409   3
   5  -6  11 98.2127 36.2509   3
  -5   7  14 11.5584 33.0836   3
  -5   7  14-49.8802 24.6136   1
  -5   7  13 21.2344 30.6337   3
  -5   7  13 173.911 36.3760   1
  -5   7  12 65.5074 33.6108   3
  -5   7  12-26.8706 31.2813   1
  -5   7  11 772.394 44.6624   1
  -5   7  11 756.302 42.5309   3
  -5   7  10 167.926 29.4887   3
  -5   7  10 173.061 29.7723   1
  -5   7   9 1001.26 39.2448   3
  -5   7   9 1091.16 44.4781   1
  -5   7   8 237.099 29.3996   1
  -5   7   8 279.965 25.8801   3
  -5   7   7 609.461 27.0852   3
  -5   7   7 615.400 33.4116   1
  -5   7   6 297.944 19.5829   3
  -5   7   6 297.071 27.0797   1
  -5   7   5 747.034 30.7888   1
   5  -7  -5 759.284 29.7839   0
  -5   7   5 693.100 20.8005   3
   5  -7  -4 2702.24 45.4117   0
  -5   7   4 2722.94 45.6393   1
  -5   7   4 2639.63 29.1395   3
  -5   7   3 1318.34 31.3532   1
  -5  -7   3 1360.37 18.4189   0
   5   7  -2 6942.10 71.4461   3
  -5   7   2 6512.30 56.7671   1
  -5   7   1 3053.62 36.9043   1
   5   7  -1 3132.57 48.2254   3
   5   7   0 8569.26 78.6632   3
  -5   7   0 8721.63 56.0121   1
   5  -7   1-4.98135 9.89393   3
   5   7   1 18.2466 19.9715   3
   5   7   1-3.65579 14.6507   1
  -5   7  -1 11.0860 9.31604   1
   5   7   2 333.940 26.0224   3
   5  -7   2 379.141 18.3001   3
   5   7   2 361.778 20.4753   1
   5  -7   3 57.0210 16.2894   3
   5   7   3 52.8906 23.2616   3
   5   7   3 33.9396 14.9810   1
   5   7   4 174.870 18.8194   1
   5   7   4 168.600 26.3465   3
   5  -7   4 211.237 21.8942   3
   5   7   5 237.096 24.7055   4
   5   7   5 222.604 30.8511   3
   5  -7   5 224.869 25.0324   3
   5  -7   6 531.870 34.5368   3
   5   7   6 432.741 37.3492   3
   5  -7   7 141.279 28.3643   3
   5   7   7 80.3808 29.6746   3
   5  -7   8-19.3798 27.3942   3
   5   7   8 24.3972 29.5023   3
   5  -7   9 108.313 34.4384   3
   5   7   9 109.296 33.7125   3
   5  -7  10 169.251 40.9020   3
   5   7  10 78.8384 32.1753   3
  -5   8  14 44.1435 25.2046   1
  -5   8  13 32.0868 29.8509   3
  -5   8  13-8.56103 30.6576   1
  -5   8  12 25.8357 29.5634   3
  -5   8  12 47.5466 32.7952   1
  -5   8  11-3.96042 27.9366   1
  -5   8  11 5.78857 29.4302   3
  -5   8  10 7.17106 26.6804   3
  -5   8  10 13.8992 28.9896   1
  -5   8   9-4.89375 24.2511   3
  -5   8   9-14.0756 27.1100   1
  -5   8   8 3.48180 20.9607   3
  -5   8   8 16.9481 24.6856   1
  -5   8   7 23.2621 19.7056   3
  -5   8   7 3.27949 23.3286   1
  -5   8   6 3.15226 14.3569   3
  -5   8   6 15.2501 23.2498   1
  -5   8   5 37.7310 12.8251   3
   5  -8  -5-3.64900 18.3129   0
  -5   8   5-16.1658 21.5464   1
  -5   8   4 11.2306 9.63369   3
  -5   8   4-7.82491 18.0893   1
   5  -8  -4 17.4744 18.5869   0
  -5   8   3 8.53203 17.9954   1
  -5   8   2-9.98951 15.2389   1
   5   8  -2 3.98239 18.2390   3
  -5   8   1 3.22887 14.6919   1
   5   8  -1-0.21630 18.9456   3
  -5   8   0 3.89453 12.4756   1
   5   8   0 3.27435 18.2593   3
   5   8   1 12.7274 20.5103   3
   5   8   1-14.8951 16.3350   1
  -5   8  -1 1.29590 10.4136   1
   5  -8   2-5.34574 11.8241   3
   5   8   2-10.6648 19.7335   3
   5   8   2 16.7277 17.0016   1
   5  -8   3 11.5397 13.4717   3
   5   8   3 14.3262 22.4796   3
   5   8   3-12.2936 16.3178   1
   5   8   4 27.2483 18.3051   1
   5  -8   4-16.4025 17.2951   3
   5   8   4-2.26047 25.0553   3
   5  -8   5-13.2402 20.8253   3
   5   8   5-14.3208 27.5501   3
   5  -8   6-7.03366 24.4501   3
   5   8   6-0.34483 28.4200   3
   5  -8   7 4.96648 26.5434   3
   5   8   7 13.5005 31.8235   3
   5  -8   8 47.7619 30.5047   3
   5   8   8 6.97021 29.2073   3
   5   8   9-36.7410 30.0920   3
   5   8  10 49.0137 36.2546   3
  -5   9  14-35.0959 32.2996   3
  -5   9  14 49.9487 28.1191   1
  -5   9  13 126.529 35.4530   3
  -5   9  13-25.3218 25.6021   1
  -5   9  12 418.548 40.4350   1
  -5   9  12 267.429 32.9112   3
  -5   9  11 128.144 29.6224   3
  -5   9  11 121.227 30.0303   1
  -5   9  10 731.099 39.7387   3
  -5   9  10 857.384 45.1082   1
  -5   9   9 1658.90 48.0637   3
  -5   9   9 1733.37 53.0792   1
  -5   9   8 344.654 27.7252   3
  -5   9   8 355.195 33.9570   1
  -5   9   7 9.80584 17.6212   3
  -5   9   7 18.5409 25.3089   1
  -5   9   6 1047.43 28.9631   3
  -5   9   6 996.988 37.4248   1
  -5   9   5 403.680 28.3841   1
  -5   9   5 333.141 16.7484   3
   5  -9  -4 1833.83 39.2949   0
  -5   9   4 1846.27 41.7346   1
  -5   9   3 762.217 28.9541   1
   5   9  -2 1115.03 34.9397   3
  -5   9   2 1039.10 29.2889   1
  -5   9   1 4031.64 48.3376   1
   5   9  -1 4020.32 57.1310   3
   5   9   0 1253.70 36.1802   3
  -5   9   0 1263.20 27.6814   1
   5   9   1 213.132 21.1205   1
   5   9   1 219.835 22.7832   3
  -5   9  -1 223.524 15.6153   1
   5   9   2 1094.26 37.7148   3
   5   9   2 1075.16 33.1238   1
   5   9   3 474.942 25.6041   1
   5   9   3 499.250 32.2489   3
   5   9   4 1069.71 42.7382   3
   5   9   4 1085.43 34.6404   1
   5   9   5 172.298 30.5570   3
   5   9   6 960.739 48.0212   3
   5   9   7 73.5417 33.7232   3
   5   9   8 12.9859 31.8787   3
   5   9   9 44.1097 32.3577   3
   5   9  10 103.364 38.2637   3
  -5  10  14-106.967 30.1519   1
  -5  10  13 52.5706 29.4842   3
  -5  10  13 23.9845 28.5270   1
  -5  10  12-29.7426 28.2944   3
  -5  10  12-100.808 31.5201   1
  -5  10  11-20.5857 26.7101   3
  -5  10  11 51.3422 27.7072   1
  -5  10  10 8.08592 25.1017   3
  -5  10  10-23.2724 30.0113   1
  -5  10   9 0.06689 24.2827   3
  -5  10   9 27.5656 28.1583   1
  -5  10   8-19.2401 21.3802   3
  -5  10   8-7.90891 27.4125   1
  -5  10   7 13.9518 26.2631   1
  -5  10   6-1.17940 24.6099   1
  -5  10   5-11.7765 22.6090   1
  -5  10   4 8.36081 19.7956   1
  -5  10   3 2.96742 18.1717   1
  -5  10   2 19.7161 18.6053   1
   5  10  -2-15.7625 20.5478   3
  -5  10   1-1.83902 15.6565   1
   5  10  -1 6.23862 18.3039   3
   5  10   0-16.6094 17.2167   1
   5  10   0 9.91236 17.9631   3
  -5  10   0-1.82883 13.7844   1
   5  10   1 3.86455 20.8683   3
   5  10   1 4.03827 17.7683   1
  -5  10  -1-18.4484 12.9819   1
   5  10   2 9.44033 22.7779   3
   5  10   2 27.1769 19.3788   1
   5  10   3-2.84162 22.2455   3
   5  10   3-2.93322 18.5028   1
   5  10   4-15.9113 19.9171   1
   5  10   4 0.51993 26.4998   3
   5  10   5-5.41304 19.7423   1
   5  10   5-30.1293 25.8698   3
   5  10   6 34.6247 31.9033   3
   5  10   7 16.9109 33.0794   3
   5  10   8-33.7600 32.3057   3
   5  10   9 10.6567 28.0106   3
  -5  11  13 107.142 36.7521   1
  -5  11  12-18.0315 29.4777   1
  -5  11  11 164.760 35.3619   1
  -5  11  10 12.8676 29.6579   1
  -5  11   9 208.559 31.9557   1
  -5  11   8 381.685 36.2085   1
  -5  11   7 1275.16 46.4276   1
  -5  11   6 138.135 27.8860   1
  -5  11   5 1181.44 40.2475   1
  -5  11   4 229.033 23.8289   1
   5  11  -3 387.340 27.2545   3
  -5  11   3 346.129 25.6069   1
   5  11  -2 1323.23 39.2517   3
  -5  11   2 1280.54 34.9443   1
   5  11  -1 102.145 22.0978   3
  -5  11   1 106.930 18.0918   1
   5  11   0 1968.41 43.9838   1
   5  11   0 1914.43 45.6756   3
  -5  11   0 2044.59 38.3304   1
   5  11   1 1149.79 36.4061   1
   5  11   1 1147.02 38.4540   3
  -5  11  -1 1130.50 29.5571   1
   5  11   2 257.223 26.5686   3
   5  11   2 289.454 25.0455   1
   5  11   3 226.445 25.0498   1
   5  11   3 200.845 27.0768   3
   5  11   4 221.484 25.7746   1
   5  11   4 151.099 29.5246   3
   5  11   5 189.832 25.4578   1
   5  11   5 178.451 31.5395   3
   5  11   6 145.051 33.7675   3
   5  11   7 9.33290 31.9028   3
   5  11   8 98.8698 31.6249   3
   5  11   9 45.0554 34.2354   3
  -5  12  12 48.9463 32.4124   1
  -5  12  11-40.8756 32.9677   1
  -5  12  10 26.4289 29.5060   1
  -5  12   9-39.4758 33.2649   1
  -5  12   8 20.4977 28.7333   1
  -5  12   7-13.8395 26.2056   1
  -5  12   6 14.7310 25.2901   1
  -5  12   5-0.68570 22.0827   1
  -5  12   4 25.1383 23.3454   1
  -5  12   3 6.57735 20.1727   1
   5  12  -3-12.5871 20.5720   3
  -5  12   2-23.0252 19.9483   1
   5  12  -2 6.96540 18.9226   3
   5  12  -1 9.14391 19.4363   3
  -5  12   1 10.4976 17.1095   1
   5  12   0-17.0309 20.2639   3
  -5  12   0 15.4831 16.9218   1
   5  12   0 14.8045 22.0008   1
   5  12   1-5.74036 21.3011   3
   5  12   1 13.6560 21.5716   1
  -5  12  -1-20.3073 16.4010   1
   5  12   2 0.26270 22.0104   3
   5  12   2 18.8697 20.6263   1
   5  12   3-6.63002 26.0616   3
   5  12   3 11.2535 22.0906   1
   5  12   4 7.13912 22.7957   1
   5  12   4-5.77019 22.7648   3
   5  12   5 19.4602 23.0834   1
   5  12   5 6.47096 28.6192   3
   5  12   6 7.13467 26.6715   3
   5  12   7-23.5520 31.7635   3
   5  12   8-12.7836 32.9128   3
   5  12   9 130.665 42.7324   3
  -5  13  12 68.5475 34.3276   1
  -5  13  11-41.0729 30.8969   1
  -5  13  10 149.034 35.1161   1
  -5  13   9 337.309 36.3354   1
  -5  13   8 265.529 34.9527   1
  -5  13   7 44.5452 28.7005   1
  -5  13   6 923.855 42.3886   1
  -5  13   5 501.558 33.5295   1
  -5  13   4 286.384 28.7761   1
  -5  13   3 138.937 23.5578   1
   5  13  -3 154.020 26.9636   3
   5  13  -2 650.865 32.1842   3
  -5  13   2 624.894 30.5076   1
   5  13  -1 376.695 27.6319   3
  -5  13   1 412.823 25.7185   1
   5  13   0 617.907 32.2318   3
   5  13   0 580.882 32.2175   1
  -5  13   0 632.211 27.4681   1
   5  13   1 127.536 25.8249   3
   5  13   1 150.480 25.9988   1
  -5  13  -1 100.407 18.6623   1
   5  13   2 175.783 29.0822   3
   5  13   2 223.184 28.3539   1
   5  13   3 274.658 32.3331   3
   5  13   3 247.975 28.4372   1
   5  13   4 559.125 33.4454   1
   5  13   4 560.694 38.8918   3
   5  13   5 39.4288 25.1260   1
   5  13   5 35.2347 26.9784   3
   5  13   6 128.953 32.6668   3
   5  13   7 27.2727 27.6722   3
   5  13   8 20.9701 36.0469   3
   5  13   9 20.3415 38.5777   3
  -5  14  12-62.4381 36.4006   1
  -5  14  11 23.2406 27.4316   1
  -5  14   9-2.17880 31.7887   1
  -5  14   8-14.1649 28.5290   1
  -5  14   7 12.2464 30.2591   1
  -5  14   6-18.1297 27.8962   1
  -5  14   5-3.65299 26.0703   1
  -5  14   4-26.7558 26.2937   1
  -5  14   3 0.73543 23.7912   1
   5  14  -3 4.24432 23.3392   3
  -5  14   2 3.17928 20.5689   1
   5  14  -2 22.8462 23.5232   3
   5  14  -1-16.8584 22.5773   1
   5  14  -1-12.0627 20.3448   3
  -5  14   1-2.12292 19.7435   1
   5  14   0-1.85260 22.9043   3
   5  14   0-2.88885 24.8892   1
  -5  14   0 2.23129 19.5798   1
   5  14   1-0.27621 22.9091   3
   5  14   1 18.3895 25.8948   1
   5  14   2 7.04720 24.3336   3
   5  14   2 14.8583 26.3299   1
   5  14   3-4.37977 26.2129   3
   5  14   3 31.7156 25.1797   1
   5  14   4 0.86758 25.5633   3
   5  14   4 43.4934 26.6437   1
   5  14   5 19.9204 22.2556   1
   5  14   5 5.14583 31.0616   3
   5  14   6-6.80321 30.9223   3
   5  14   7-31.8972 32.0821   3
   5  14   8-0.50748 30.3317   3
  -5  15  12-41.4155 34.9869   1
  -5  15  11 35.1739 27.7920   1
  -5  15  10 74.5477 33.5463   1
  -5  15   9 47.4358 33.1815   1
  -5  15   8 135.513 30.8940   1
  -5  15   7-2.12847 29.1143   1
  -5  15   6 117.142 31.2455   1
  -5  15   5 52.8440 27.7758   1
  -5  15   4 159.471 29.3276   1
   5  15  -4 203.350 31.2055   3
  -5  15   3 1012.67 41.1469   1
   5  15  -3 1024.21 41.7882   3
   5  15  -2 2000.55 51.6708   3
  -5  15   2 2013.37 50.2278   1
  -5  15   1 276.025 26.2822   1
   5  15  -1 217.872 28.1085   1
   5  15  -1 214.601 26.8053   3
   5  15   0 95.0305 24.0746   3
   5  15   0 71.2290 27.7142   1
  -5  15   0 140.524 22.8406   1
   5  15   1 519.534 33.3537   3
   5  15   1 491.616 35.6517   1
   5  15   2 198.791 28.9433   3
   5  15   2 230.492 31.4656   1
   5  15   3 35.4232 25.7837   3
   5  15   3 65.9050 27.4137   1
   5  15   4 275.438 33.3724   3
   5  15   4 413.126 35.7061   1
   5  15   5 250.315 33.4833   1
   5  15   5 241.973 33.7585   3
   5  15   6 107.373 32.6682   3
   5  15   7 20.0565 29.0446   3
   5  15   8 93.4667 39.0500   3
  -5  16  11 16.3955 32.4733   1
  -5  16  10-22.3563 34.1592   1
  -5  16   9 3.85950 30.9273   1
  -5  16   8 4.84340 29.0350   1
  -5  16   7-47.0788 32.2243   1
  -5  16   6-0.25765 27.7533   1
  -5  16   5-0.95350 24.8279   1
  -5  16   4-32.2208 27.3099   1
   5  16  -4-1.34511 26.6372   3
  -5  16   3 19.2849 28.0876   1
   5  16  -3-18.0610 25.9907   3
  -5  16   2-7.09094 27.4113   1
   5  16  -2 10.3670 24.9256   3
   5  16  -1-2.52548 20.7497   3
   5  16  -1 38.7885 29.1608   1
  -5  16   1 36.6636 24.1725   1
   5  16   0 5.59384 28.6503   1
   5  16   0 1.96996 21.8247   3
  -5  16   0-0.98776 22.1745   1
   5  16   1 25.5499 25.0573   3
   5  16   1-18.8541 27.0252   1
   5  16   2-8.99724 25.9325   1
   5  16   2-19.3196 23.3318   3
   5  16   3 10.0532 27.9759   1
   5  16   3 10.0291 24.7248   3
   5  16   4-3.67790 26.7109   3
   5  16   4 70.4875 29.6559   1
   5  16   5 16.2895 28.4597   1
   5  16   5 13.6302 26.5522   3
   5  16   6-64.9132 27.3603   3
   5  16   7-47.1315 29.1345   3
   5  16   8 18.1968 31.2266   3
  -5  17  11-42.8886 28.3443   1
  -5  17  10 64.8713 36.3280   1
  -5  17   9 51.4694 28.0783   1
  -5  17   8 118.819 35.8396   1
  -5  17   7 84.3686 32.8027   1
  -5  17   6 218.106 29.8225   1
  -5  17   5 596.129 41.1069   1
   5  17  -4 921.480 44.1458   3
  -5  17   4 762.057 41.1816   1
  -5  17   3 381.358 34.6259   1
   5  17  -3 372.127 32.9533   3
   5  17  -2 949.097 41.4668   3
  -5  17   2 886.965 41.9369   1
   5  17  -2 850.926 39.7317   1
   5  17  -1 769.211 42.1749   1
  -5  17   1 849.395 38.8474   1
   5  17  -1 878.383 39.1827   3
   5  17   0 62.5706 26.9105   3
   5  17   0 68.6681 28.4529   1
  -5  17   0 77.8207 26.0233   1
   5  17   1 127.043 29.4017   1
   5  17   1 157.292 26.4579   3
   5  17   2 283.320 33.0302   3
   5  17   2 219.057 33.1782   1
   5  17   3 233.596 33.6177   3
   5  17   3 210.445 31.5100   1
   5  17   4 62.0282 30.3327   3
   5  17   4 100.087 32.6800   1
   5  17   5 60.8227 27.9926   1
   5  17   5 73.2518 28.6494   3
   5  17   6 23.1082 30.1538   1
   5  17   6 45.3586 24.5171   3
   5  17   7 122.970 34.1250   3
  -5  18  10 56.9791 38.6100   1
  -5  18   9-106.424 33.6599   1
  -5  18   8-0.88838 30.5737   1
  -5  18   7-10.2426 32.2842   1
  -5  18   6 30.9234 30.3324   1
  -5  18   5 17.1553 28.7821   1
   5  18  -5-7.36142 25.1146   3
  -5  18   4-32.6984 29.7720   1
   5  18  -4-58.7068 23.6373   3
  -5  18   3 4.81824 26.4688   1
   5  18  -3 29.6811 24.5516   3
  -5  18   2-11.8663 26.7448   1
   5  18  -2 30.0121 23.3017   3
   5  18  -2-20.1521 25.8747   1
   5  18  -1 0.63186 23.9465   3
   5  18  -1-34.2406 30.8756   1
  -5  18   1 16.3658 25.6685   1
   5  18   0 11.2415 28.4230   1
   5  18   0 1.61607 25.3403   3
  -5  18   0-15.3597 24.1272   1
   5  18   1 14.1114 25.2176   3
   5  18   1 15.7397 28.6617   1
   5  18   2 34.3946 28.1351   3
   5  18   2-37.4953 27.6640   1
   5  18   3-9.01327 30.0835   1
   5  18   3-12.8728 29.7740   3
   5  18   4-5.53167 25.9693   3
   5  18   4 47.6195 33.0911   1
   5  18   5 44.4883 25.5229   1
   5  18   5 31.2997 26.7110   3
   5  18   6-22.7137 30.9085   1
   5  18   6-79.1288 27.1783   3
   5  18   7 34.8711 32.8798   3
  -5  19   9-26.9738 34.6308   1
  -5  19   8 71.5546 36.8032   1
  -5  19   7 209.134 37.3360   1
  -5  19   6 53.5780 33.5175   1
   5  19  -5 82.8639 26.6985   3
  -5  19   5 75.7290 28.6589   1
  -5  19   4 95.6801 31.8737   1
   5  19  -4 126.904 26.6298   3
  -5  19   3 53.8375 27.4321   1
   5  19  -3-9.16350 25.3167   3
  -5  19   2 37.1434 25.4615   1
   5  19  -2 70.7075 31.2889   1
   5  19  -2 27.8731 25.2937   3
   5  19  -1 105.211 28.7284   3
   5  19  -1 97.7421 28.6779   1
  -5  19   1 182.147 31.3308   1
   5  19   0 220.761 29.5046   3
   5  19   0 257.571 38.7912   1
  -5  19   0 224.776 28.6418   1
   5  19   1 133.678 30.3598   3
   5  19   1 133.213 32.0202   1
   5  19   2 22.8821 27.4436   3
   5  19   2-0.39214 26.3148   1
   5  19   3-13.0904 26.2123   3
   5  19   3-3.02673 27.0186   1
   5  19   4 64.7712 28.1492   3
   5  19   4 134.589 31.0549   1
   5  19   5 71.1890 27.8342   1
   5  19   5 67.1921 29.5813   3
   5  19   6-11.5830 28.6768   1
   5  19   6 15.3379 26.0194   3
  -5  20   8 37.2681 29.9879   1
  -5  20   7-64.3054 34.2493   1
   5  20  -6-9.48291 25.1224   3
  -5  20   6 4.50871 30.2576   1
  -5  20   5 21.9575 30.5533   1
   5  20  -5 1.81851 21.7320   3
  -5  20   4 3.18103 31.1425   1
   5  20  -4 26.6219 24.3775   3
  -5  20   3 55.0116 32.5421   1
   5  20  -3 4.44722 25.9281   3
   5  20  -3-9.66220 30.9314   1
   5  20  -2 10.7371 22.5415   3
   5  20  -2 10.2929 31.4327   1
   5  20  -1-18.0694 27.3170   3
   5  20  -1 43.1483 33.7494   1
  -5  20   1 22.5897 25.6878   1
   5  20   0 4.94184 27.4292   3
   5  20   0-18.8412 32.0583   1
   5  20   1 12.8600 25.9105   3
   5  20   1 33.1451 28.6858   1
   5  20   2 23.6355 25.2704   3
   5  20   2 1.77699 31.9330   1
   5  20   3-79.3960 27.9809   3
   5  20   3-34.3541 34.6197   1
   5  20   4 53.3839 31.7756   1
   5  20   4-26.1079 29.2878   3
   5  20   5 54.1346 34.1521   1
   5  20   5 104.446 33.0404   3
  -5  21   8 117.314 36.2030   1
  -5  21   7-43.6224 34.2997   1
   5  21  -6-55.7683 23.8224   3
  -5  21   6 38.2453 28.9630   1
   5  21  -5-52.7038 20.5260   3
  -5  21   5 62.9554 31.0800   1
  -5  21   4 107.871 34.2305   1
   5  21  -4 61.4822 28.5029   1
   5  21  -4 154.412 29.7091   3
  -5  21   3 143.401 35.4951   1
   5  21  -3 102.489 26.2382   3
   5  21  -3 76.1270 34.1322   1
  -5  21   2 11.3536 30.2247   1
   5  21  -2 96.7265 27.2847   3
   5  21  -2 7.75998 27.5515   1
   5  21  -1 113.706 25.4390   3
   5  21  -1 186.492 36.8669   1
  -5  21   1 196.866 33.8017   1
   5  21   0 15.7350 26.0399   3
   5  21   0 29.9238 28.4633   1
   5  21   1 63.5512 23.9628   3
   5  21   1 119.775 32.8594   1
   5  21   2 99.8326 29.8580   3
   5  21   2 148.990 39.7344   1
   5  21   3 78.5042 25.7895   3
   5  21   3 67.3314 31.5337   1
   5  21   4 72.2827 35.3126   1
   5  21   4 70.2071 25.6891   3
   5  21   5 149.973 39.9171   1
   5  21   5 103.400 30.9224   3
  -5  22   7-76.3118 34.3135   1
  -5  22   6 74.6861 31.0580   1
  -5  22   5 32.1383 28.1391   1
  -5  22   4 25.1383 27.5183   1
   5  22  -4-6.32603 25.4231   1
   5  22  -3-1.02114 30.6247   1
  -5  22   3 51.5732 28.4852   1
  -5  22   2-25.3243 26.8817   1
   5  22  -2-12.5261 32.7004   1
  -5  22   1 34.2036 29.8537   1
   5  22  -1 12.3615 35.1364   1
   5  22   0-4.96945 30.0164   1
   5  22   1-33.3018 31.6196   1
   5  22   2 37.5384 27.0293   3
   5  22   2 76.2754 37.9180   1
   5  22   3-90.2733 35.6061   1
   5  22   4 23.4073 32.9730   1
  -5  23   6 73.5104 36.3670   1
  -5  23   5 103.545 34.9483   1
   5  23  -5-0.79158 29.0526   1
  -5  23   4 12.4577 33.0639   1
   5  23  -4 83.2715 32.4583   1
  -5  23   3 179.257 37.8530   1
   5  23  -3 74.2609 33.0372   1
  -5  23   2-86.3391 34.0336   1
   5  23  -2 76.2262 33.1290   1
  -5  23   1 50.6479 28.9379   1
   5  23  -1-28.5662 36.1532   1
   5  23   0 173.598 39.2775   1
   5  23   1-80.2286 33.6312   1
   5  23   2 85.9026 35.2429   1
  -5  24   5 78.5610 34.8959   1
   5  24  -4 33.4570 39.0232   1
  -5  24   3 23.6993 33.5516   1
   5  24  -3-6.18075 36.0448   1
  -5  24   2-43.0189 32.3715   1
   5  24  -2 47.2723 37.5067   1
   5  24  -1-63.7799 26.9571   1
  -5  25   3 65.9130 35.2324   1
  -5  25   2 60.1717 31.7794   1
  -6   0  15 114.772 43.9249   1
  -6   0  14 65.7810 40.6736   1
  -6   0  13-26.1566 28.4943   1
  -6   0  12 582.099 45.0529   1
  -6   0  11 54.3348 31.0645   1
  -6   0  10 496.163 38.4563   1
  -6   0   9-15.0803 26.9811   1
  -6   0   8 4934.37 73.7530   1
   6   0  -8 5033.99 63.1119   2
  -6   0   7 18.5104 20.9725   0
   6   0  -7 8.24647 18.4074   2
  -6   0   7 12.7964 21.8849   1
  -6   0   6 2686.58 49.4295   1
   6   0  -6 2663.41 44.9352   2
  -6   0   6 2724.10 44.1276   0
   6   0  -5 0.86620 19.1959   2
  -6   0   5 3.73264 18.1576   1
  -6   0   5 5.12051 14.6577   0
   6   0  -4 10719.3 79.6756   2
  -6   0   4 11028.1 78.2408   1
   6   0  -4 10913.1 71.8667   0
   6   0  -3-10.6205 13.5227   0
   6   0  -3-11.6408 18.0856   2
   6   0  -3-0.12921 15.5253   4
  -6   0   3-4.58558 15.6155   1
   6   0  -2 566.290 21.6345   4
   6   0  -2 611.947 19.1404   3
  -6   0   2 559.161 18.6171   1
   6   0  -1 17.7058 17.1988   4
   6   0  -1 1.82687 11.6303   3
   6   0   0 1513.80 28.9694   3
   6   0   0 1527.11 35.0928   4
   6   0   1 4.17308 20.4956   4
   6   0   1-5.33617 15.0447   3
   6   0   2 4762.05 62.2870   4
   6   0   2 4615.52 57.6669   3
   6   0   3-5.10404 16.9744   3
   6   0   4 2738.42 54.3969   3
   6   0   5 16.7749 23.5570   3
   6   0   6 228.646 31.1415   3
   6   0   7-48.8225 29.0259   4
   6   0   7 1.77797 28.5070   3
   6   0   8 73.3514 29.6392   3
   6   0   9-87.4784 26.7912   3
   6   0  10-35.4177 34.0980   3
  -6   1  15 25.9596 36.2109   1
  -6  -1  15-51.1536 39.3378   1
  -6  -1  14 46.5056 36.6749   1
  -6   1  14-18.2118 35.0635   1
  -6  -1  13 59.8886 37.7346   1
  -6   1  13 334.352 37.9211   1
  -6  -1  12-6.12862 32.1521   1
  -6   1  12-9.97726 34.5027   1
  -6   1  11-19.1196 32.3013   1
  -6  -1  11-25.7698 31.0633   1
  -6   1  10-34.3641 27.6583   1
  -6  -1  10-10.0079 28.2303   1
   6  -1  -9 45.7478 18.7082   2
  -6  -1   9 22.3549 27.9598   1
   6  -1  -8-1.10043 18.8881   2
  -6   1   8 4.09906 26.7680   1
  -6  -1   8 22.5373 27.9380   1
  -6  -1   7-2.44197 18.8914   0
  -6   1   7 29.5925 23.0463   1
   6  -1  -7 0.53820 17.5119   2
   6   1  -7 3.20518 19.8043   2
  -6  -1   7 38.8075 24.1071   1
   6  -1  -6-14.2599 18.4516   2
   6   1  -6 0.24252 18.4117   2
  -6   1   6 9.30336 19.3993   1
  -6  -1   6-9.76860 16.9496   0
  -6   1   6-6.81400 14.3837   0
  -6  -1   6 16.1627 23.5483   1
  -6   1   5-3.25410 12.8444   0
  -6   1   5 2.23541 17.3958   1
   6  -1  -5 8.41992 18.8511   2
  -6  -1   5 4.31829 14.1539   0
   6  -1  -5 16.7430 18.4709   0
   6   1  -5 4.22626 18.6718   2
  -6  -1   5 2.47627 18.9581   1
  -6  -1   4-4.39044 19.4097   1
   6   1  -4-3.18522 18.0585   2
  -6   1   4-7.35582 18.0098   1
   6   1  -4 4.38588 13.0934   0
  -6  -1   4 19.2922 14.9046   0
   6  -1  -4-0.24564 14.4068   0
  -6  -1   3 6.99809 15.4572   1
   6  -1  -3-0.95269 15.9898   4
  -6   1   3-10.9851 13.7596   1
   6   1  -3-0.63454 12.4322   0
   6   1  -3-12.1835 19.1039   2
   6  -1  -3 12.3041 15.5114   0
   6   1  -2 4.18614 13.2252   3
   6   1  -2 0.66450 17.2704   4
   6  -1  -2 8.29514 17.5592   4
   6  -1  -2 10.9109 9.81923   3
   6   1  -2 16.8855 17.7136   2
  -6   1   2 7.44300 12.8603   1
   6   1  -1 4.70749 17.8130   4
   6   1  -1-7.90509 15.1118   2
   6  -1  -1 1.80050 16.5262   4
   6   1  -1 3.72791 12.4176   3
  -6   1   1 6.62435 9.43640   1
   6  -1  -1-4.74112 10.1770   3
   6   1   0-2.40563 13.1799   2
   6   1   0-6.80223 13.6185   3
   6  -1   0-3.23637 11.6162   3
   6   1   0 4.10563 18.3475   4
   6  -1   0-16.5656 21.5703   4
   6   1   1 2.85012 12.6143   2
   6   1   1-1.38763 18.3271   4
   6   1   1 5.14250 15.5671   3
   6   1   1 11.3305 5.56796   1
   6  -1   1 10.4526 13.7855   3
   6   1   2 7.58440 11.1407   2
   6   1   2 1.15273 21.4495   4
   6   1   2 41.8310 18.5300   3
   6  -1   2 5.97058 15.5718   3
   6   1   3 20.1285 22.0619   4
   6   1   3 7.82552 18.8654   3
   6  -1   3 9.65867 17.4497   3
   6   1   4 12.7283 23.4586   4
   6   1   4 17.9318 22.7082   3
   6  -1   4 5.12896 19.6213   3
   6   1   5 11.4857 23.6573   4
   6   1   5 1.69327 24.0083   3
   6  -1   5-18.5533 22.9179   3
   6   1   6 15.6169 27.3249   4
   6   1   6-16.5759 25.2663   3
   6  -1   6 23.4647 24.7658   3
   6   1   7 7.76838 27.4356   4
   6   1   7 24.3160 26.9659   3
   6  -1   7-9.20216 27.6121   3
   6   1   8-62.8480 29.7487   3
   6  -1   8 2.08610 25.0581   3
   6  -1   9-24.0153 31.3961   3
   6   1   9 29.8442 27.7366   3
   6  -1  10 22.4996 34.7044   3
  -6   2  15 30.3058 43.2794   1
  -6  -2  14 10.0228 29.8553   1
  -6   2  14 117.464 40.9567   1
  -6   2  13 20.9634 32.6000   3
  -6  -2  13-10.5810 34.8175   1
  -6   2  13-18.5362 30.8668   1
  -6   2  12 20.8605 27.9997   3
  -6  -2  12 59.8207 33.4296   1
  -6   2  12-12.8021 33.2943   1
  -6  -2  11 62.1045 32.3050   1
  -6   2  11 41.3971 29.0353   3
  -6   2  11-33.8749 32.7968   1
  -6  -2  10 279.278 34.3111   1
  -6   2  10 259.406 32.9798   1
  -6   2  10 235.097 29.1937   3
  -6  -2   9 83.7205 28.6307   1
  -6   2   9 105.331 26.7037   3
  -6   2   9 78.7397 24.9527   1
   6  -2  -9 53.8793 18.7993   2
  -6   2   8 122.853 24.0368   1
  -6  -2   8 123.932 27.4106   1
   6  -2  -8 131.647 19.8273   2
  -6   2   7 755.661 32.8846   1
   6  -2  -7 737.875 28.0533   2
  -6  -2   7 805.787 30.2812   0
  -6  -2   7 801.565 35.6246   1
  -6   2   6 254.677 23.8809   1
   6   2  -6 261.903 24.1134   2
  -6   2   6 256.706 22.1427   0
  -6  -2   6 271.039 26.1332   1
   6  -2  -6 210.074 21.2373   2
  -6  -2   6 249.097 21.1075   0
  -6   2   5 4209.65 52.0437   0
  -6   2   5 4347.33 55.1473   1
   6   2  -5 4268.33 54.9327   2
  -6  -2   5 4314.35 48.3234   0
   6  -2  -5 4425.74 53.3813   0
  -6  -2   5 4184.34 55.6259   1
  -6  -2   4 7227.80 55.6839   0
  -6   2   4 7030.91 62.7537   1
   6  -2  -4 6883.98 50.0442   4
   6   2  -4 6890.59 65.4888   2
   6  -2  -4 7051.34 62.4260   0
  -6  -2   4 6653.21 64.6748   1
   6  -2  -3 11350.5 68.6950   4
  -6   2   3 11355.5 71.1086   1
   6   2  -3 11255.2 79.6388   2
   6   2  -3 11218.4 62.3916   0
   6  -2  -3 11267.7 74.5087   0
   6  -2  -2 793.544 16.8821   3
   6   2  -2 902.835 26.9929   2
   6   2  -2 898.549 27.9602   4
   6  -2  -2 845.290 25.0365   4
   6   2  -2 882.828 24.7623   3
  -6   2   2 822.815 19.7470   1
   6   2  -1 4016.39 48.8164   4
   6  -2  -1 3798.88 35.0210   3
  -6   2   1 3945.79 31.1082   1
   6   2  -1 3973.37 46.0656   2
   6   2  -1 4034.63 45.1630   3
   6   2   0 269.189 19.0835   3
   6  -2   0 249.228 14.0434   3
   6   2   0 275.487 22.8975   4
   6   2   0 238.712 17.2563   2
   6   2   1 1064.07 17.8203   1
   6   2   1 1132.60 31.0705   3
   6  -2   1 1052.03 26.1906   3
   6   2   1 1108.88 24.5791   2
   6   2   1 1095.10 33.2931   4
   6   2   2 1514.14 37.4770   3
   6   2   2 1475.79 20.6382   1
   6  -2   2 1536.64 34.0363   3
   6   2   2 1521.74 25.4632   2
   6   2   2 1555.61 39.0290   4
   6   2   3 1272.28 38.4261   4
   6  -2   3 1251.06 34.8151   3
   6   2   3 1220.38 36.5410   3
   6   2   4 1515.58 42.6456   4
   6   2   4 1475.75 42.9730   3
   6  -2   4 1427.28 41.2151   3
   6   2   5 224.117 27.5775   4
   6  -2   5 276.507 26.8218   3
   6   2   5 205.111 26.4691   3
   6   2   6 296.135 31.4415   4
   6   2   6 339.006 34.4625   3
   6  -2   6 306.029 29.6064   3
   6   2   7 195.279 29.3727   3
   6  -2   7 200.671 31.2647   3
   6  -2   8 198.466 35.1622   3
   6   2   8 184.304 35.3552   3
   6  -2   9 50.4758 34.5763   3
   6   2   9 90.7093 34.2923   3
   6  -2  10 194.777 37.2322   3
   6   2  10 99.3584 36.6527   3
  -6   3  15 178.519 42.3323   1
  -6   3  14-12.5494 34.8346   3
  -6   3  14-45.1402 34.2525   1
  -6   3  13 31.9104 33.7518   3
  -6  -3  13 35.7419 37.5038   1
  -6   3  12-11.9340 30.3606   1
  -6   3  12-13.6740 32.9283   3
  -6  -3  12-38.8724 29.0970   1
  -6   3  11-14.1966 27.3931   3
  -6  -3  11-5.77979 28.0434   1
  -6   3  11 34.2412 30.8700   1
  -6   3  10-7.53566 23.8889   3
  -6  -3  10-1.24378 30.2515   1
  -6   3  10-28.2700 27.5951   1
  -6   3   9-14.3530 23.0176   3
  -6   3   9 28.2752 25.0054   1
   6  -3  -9 4.64927 18.1556   2
  -6  -3   9-15.7627 25.6664   1
  -6   3   8 5.47999 21.0946   3
   6  -3  -8-4.29271 17.5640   2
  -6   3   8 6.39244 23.1290   1
  -6  -3   8 0.56059 26.4394   1
  -6   3   7-1.13286 22.7171   1
  -6  -3   7-8.35333 24.0268   1
   6  -3  -7-0.25184 17.8878   2
  -6   3   6 3.93405 19.1069   1
  -6  -3   6-9.31288 20.6276   1
  -6   3   6-6.08576 18.7834   0
  -6  -3   6-13.8420 16.9914   0
  -6   3   5 2.53505 19.4497   1
  -6  -3   5-7.21557 13.4790   0
  -6  -3   5-4.50603 19.0630   1
  -6   3   5 0.58795 17.4320   0
   6  -3  -5 16.7179 17.5865   0
  -6   3   4 8.80626 17.1128   1
   6  -3  -4 4.14452 16.5795   0
  -6  -3   4 7.89572 12.2129   0
   6   3  -4-12.7324 21.0892   2
   6  -3  -4 8.11701 12.5022   4
  -6   3   3 9.35454 14.6932   1
   6   3  -3-24.8253 17.9070   2
   6  -3  -3-7.34514 15.1917   4
   6   3  -3 11.8891 10.6005   0
  -6   3   2 8.60520 11.9151   1
   6   3  -2 11.6332 16.9175   2
   6   3  -2-4.30758 16.7323   3
   6  -3  -2-0.19154 6.43557   3
   6   3  -2-2.62375 9.64942   0
  -6   3   1 5.57356 8.06730   1
   6   3  -1 16.1963 14.8010   2
   6   3  -1 3.42301 16.6819   4
   6   3  -1-14.8854 15.4781   3
   6  -3  -1 3.91784 8.08610   3
   6   3   0 2.60154 19.0496   4
   6   3   0 16.4872 13.8704   2
   6   3   0-6.53245 14.2481   3
   6  -3   0 7.24523 10.0485   3
   6   3   1-0.85968 18.2024   4
   6   3   1-5.44871 12.4431   2
   6   3   1 5.72376 16.7441   3
   6   3   1 18.6505 9.64956   1
   6  -3   1-13.0274 11.5443   3
   6   3   2 4.85709 21.5412   4
   6   3   2 23.6043 19.6099   3
   6  -3   2-15.0592 14.2581   3
   6   3   2 0.55485 8.67841   1
   6   3   3-13.8290 22.0541   4
   6   3   3-9.80504 18.0932   3
   6  -3   3 0.45999 16.1313   3
   6   3   4-1.70159 21.3029   4
   6   3   4 21.4323 22.6924   3
   6  -3   4 8.94213 18.6252   3
   6   3   5 4.99068 24.4652   4
   6   3   5 31.7836 24.5399   3
   6   3   6 17.9389 25.5676   4
   6   3   6-5.14381 28.2583   3
   6  -3   6 34.9926 24.0750   3
   6   3   7-11.9665 28.1926   3
   6  -3   7-11.5171 24.1807   3
   6  -3   8-23.6948 30.1482   3
   6   3   8 8.29766 29.3986   3
   6  -3   9 43.3067 37.0481   3
   6   3   9-39.9823 30.6196   3
   6  -3  10-37.7807 34.8301   3
   6   3  10 46.6822 26.7507   3
  -6   4  15 81.4950 40.7287   3
  -6   4  15 37.2536 33.2914   1
  -6   4  14 44.4541 32.8054   3
  -6   4  14-91.5867 37.8769   1
  -6   4  13 193.936 37.3560   3
  -6   4  13 192.424 36.8664   1
  -6  -4  13 157.264 39.1311   1
  -6   4  12 46.0520 27.9231   3
  -6   4  12 39.5561 30.6937   1
  -6  -4  12 109.441 34.0440   1
  -6   4  11 599.645 40.2747   1
  -6  -4  11 719.620 45.5703   1
  -6   4  11 665.502 41.2828   3
  -6   4  10 38.2543 25.8125   3
  -6   4  10 85.5960 29.6955   1
  -6  -4  10 93.2547 30.6724   1
  -6   4   9 186.979 25.7695   3
  -6   4   9 167.960 27.0904   1
   6  -4  -9 199.260 21.4274   2
  -6  -4   9 198.829 30.9430   1
  -6   4   8 28.9122 23.8781   1
  -6   4   8 40.5270 20.9146   3
  -6  -4   8 68.2229 28.6148   1
   6  -4  -8 58.4047 18.4697   2
  -6   4   7 472.913 30.6668   1
  -6  -4   7 396.598 30.1448   1
  -6   4   7 395.001 24.0715   3
  -6   4   6 788.726 32.4268   1
  -6   4   6 769.133 30.6145   0
   6  -4  -5 507.145 15.0686   4
  -6  -4   5 530.853 20.6365   0
   6  -4  -5 560.242 26.8119   0
  -6   4   5 543.302 27.4821   1
   6  -4  -4 254.647 20.6518   0
  -6  -4   4 240.753 14.6471   0
   6  -4  -4 251.494 15.6184   4
  -6   4   4 258.320 20.5812   1
  -6   4   3 1606.90 30.5250   1
   6   4  -2 2917.65 26.7126   0
   6   4  -2 2921.34 44.4150   3
  -6   4   2 2841.39 33.9918   1
   6   4  -1 1522.47 33.2802   3
   6  -4  -1 1545.75 19.2641   3
  -6   4   1 1548.16 22.0320   1
   6  -4   0 6503.15 45.4838   3
   6   4   0 6384.74 64.3996   4
   6   4   0 6603.79 65.2784   3
   6   4   1 319.329 23.4295   3
   6   4   1 333.316 24.7245   4
   6   4   1 285.592 15.1919   1
   6  -4   1 337.442 16.3582   3
   6   4   2 5589.70 68.5724   3
   6   4   2 5428.93 63.6102   4
   6   4   2 5128.87 46.2975   1
   6  -4   2 5382.75 57.6130   3
   6   4   3 97.8516 22.7021   4
   6  -4   3 138.929 18.5690   3
   6   4   3 133.297 21.4517   3
   6   4   4 170.150 24.6774   4
   6   4   4 154.255 25.3428   3
   6  -4   4 122.998 20.6865   3
   6   4   5 589.207 32.1103   4
   6   4   5 570.958 34.3956   3
   6  -4   5 590.337 31.8157   3
   6   4   6 813.112 37.0359   4
   6   4   6 768.584 43.6754   3
   6  -4   6 806.950 38.5581   3
   6   4   7 499.994 40.7739   3
   6  -4   7 473.659 36.5975   3
   6   4   8 376.623 40.2817   3
   6  -4   8 444.227 40.7500   3
   6  -4   9-31.2655 27.9365   3
   6   4   9 32.8263 31.1273   3
   6  -4  10 5.84669 37.8923   3
   6   4  10 21.3158 33.8027   3
  -6   5  15-29.8924 35.2329   3
  -6   5  15-43.7098 34.2062   1
  -6   5  14-19.9591 37.7105   3
  -6   5  14-44.3093 36.5931   1
  -6   5  13-0.10839 33.9355   3
  -6   5  13 13.5601 29.0638   1
  -6   5  12 72.5877 34.4655   3
  -6   5  12 20.9852 30.8957   1
  -6   5  11 36.8156 29.3905   3
  -6   5  11 35.3393 29.0953   1
  -6   5  10 3.85248 24.9516   3
  -6   5  10-39.2730 29.5975   1
  -6   5   9 15.4044 24.2556   1
  -6   5   9 22.1507 23.5323   3
  -6   5   8-2.53312 24.4101   1
  -6   5   8 19.5170 20.5403   3
   6  -5  -8 17.2997 18.6088   2
  -6   5   7-6.28238 17.2800   3
  -6   5   7-22.0610 22.0549   1
  -6   5   6 0.06796 14.3430   3
  -6   5   6 5.88097 19.8794   1
   6  -5  -5-13.2921 18.9307   0
  -6  -5   5-2.80826 12.9270   0
   6  -5  -5 3.54635 9.75630   4
  -6   5   5-13.6459 18.2058   1
   6  -5  -4-11.5539 15.5818   0
   6  -5  -4-0.97230 11.9315   4
  -6  -5   4 1.22512 10.1914   0
  -6   5   4 2.82908 16.5476   1
  -6   5   3 8.82527 14.2515   1
   6   5  -2 2.36450 6.60133   0
   6   5  -2-5.26423 17.7494   3
  -6   5   2-9.34804 12.0159   1
   6   5  -1-13.1940 16.9997   3
  -6   5   1-1.39438 9.67858   1
  -6   5   0 11.6116 6.84965   1
   6  -5   0 9.26429 8.73096   3
   6   5   0-2.05233 17.3560   3
   6   5   1 5.23919 20.6434   4
   6   5   1-13.5318 17.1600   3
   6   5   1-14.6118 11.8411   1
   6  -5   1 18.3351 11.1785   3
   6   5   2-1.26028 19.3614   4
   6   5   2-32.6565 20.0618   3
   6   5   2-3.26132 11.4201   1
   6  -5   2-59.7497 11.4958   3
   6   5   3-7.03586 19.0074   3
   6   5   3 27.9470 21.7821   4
   6  -5   3 32.0345 14.9655   3
   6   5   4-9.44217 21.9070   4
   6   5   4-22.6700 23.1260   3
   6  -5   4-4.44944 16.7522   3
   6  -5   5-19.6898 22.4366   3
   6   5   5-17.0372 23.5947   4
   6   5   5-9.84218 25.3816   3
   6  -5   6 27.6997 26.4760   3
   6   5   6 11.7397 27.0668   3
   6  -5   7 34.2117 27.3612   3
   6   5   7 28.2544 32.3949   3
   6  -5   8-26.4523 29.3176   3
   6   5   8-37.3000 32.3690   3
   6  -5   9-70.3338 33.7230   3
   6   5   9 52.2888 34.2126   3
   6  -5  10 86.9156 36.4965   3
   6   5  10-100.687 28.3712   3
  -6   6  15-18.2154 31.4021   3
  -6   6  14 255.167 45.9628   3
  -6   6  14 435.872 37.4846   1
  -6   6  13 62.2333 31.3098   3
  -6   6  13 52.1697 28.5377   1
  -6   6  12 205.357 32.8516   3
  -6   6  12 253.012 37.5266   1
  -6   6  11 170.185 30.6620   3
  -6   6  11 116.074 32.1416   1
  -6   6  10 148.042 31.3378   1
  -6   6  10 82.4712 27.0590   3
  -6   6   9 21.3231 22.5120   3
  -6   6   9 45.2382 25.7620   1
  -6   6   8 516.137 28.2890   3
  -6   6   8 532.993 33.2257   1
  -6   6   7 57.0982 17.9842   3
  -6   6   7 41.8741 23.3051   1
  -6   6   6 281.307 18.1664   3
  -6   6   6 277.195 25.5298   1
   6  -6  -5 313.364 13.8927   4
   6  -6  -5 299.170 20.0022   0
  -6   6   5 297.825 25.0372   1
   6  -6  -4 3167.86 47.2880   0
  -6  -6   4 3393.37 34.6841   0
  -6   6   4 3292.80 48.2754   1
  -6   6   3 775.615 25.2722   1
   6   6  -2 716.016 27.9176   3
  -6   6   2 684.174 21.4923   1
  -6   6   1 939.241 20.7520   1
   6   6  -1 908.175 29.9504   3
   6   6   0 936.180 30.8377   3
  -6   6   0 922.742 17.7948   1
   6  -6   0 853.467 15.9870   3
   6   6   1 845.590 31.3831   3
   6   6   1 793.037 24.1441   1
   6  -6   1 855.808 20.4092   3
   6   6   2 1269.59 39.1638   3
   6   6   2 1353.68 29.2360   1
   6  -6   2 1331.02 28.9708   3
   6   6   3 699.706 31.4856   4
   6   6   3 734.918 33.3146   3
   6   6   3 697.169 24.2164   1
   6  -6   3 657.000 25.4937   3
   6  -6   4 28.7614 20.0806   3
   6   6   4 25.7645 22.3794   4
   6   6   4 16.4578 24.9049   3
   6   6   5 969.335 43.0125   3
   6   6   5 889.256 35.0583   4
   6  -6   5 993.872 38.1220   3
   6  -6   6 245.044 28.9039   3
   6   6   6 212.774 34.6105   3
   6   6   7 334.203 36.4623   3
   6  -6   7 341.112 32.4722   3
   6  -6   8 39.9349 29.8046   3
   6   6   8 20.0945 32.4200   3
   6  -6   9 122.814 33.7650   3
   6   6   9 87.1485 34.9015   3
   6   6  10 6.44306 26.5261   3
  -6   7  15-20.8485 30.5757   3
  -6   7  14 90.6079 39.4798   3
  -6   7  14-31.4658 24.6907   1
  -6   7  13-1.92498 28.1177   3
  -6   7  13 85.2250 28.9453   1
  -6   7  12-8.22027 31.7104   3
  -6   7  12-33.6932 27.4341   1
  -6   7  11 3.08910 28.7126   1
  -6   7  11-46.8436 30.4340   3
  -6   7  10-10.1130 28.1073   1
  -6   7  10-3.83644 26.5052   3
  -6   7   9 10.7849 21.3957   3
  -6   7   9 8.52980 27.0977   1
  -6   7   8 12.8161 18.9633   3
  -6   7   8 12.1358 24.9598   1
  -6   7   7-3.21652 16.2028   3
  -6   7   7-12.6199 22.4279   1
  -6   7   6 3.80908 13.2182   3
  -6   7   6 5.03258 20.6462   1
  -6   7   5-15.5620 10.8185   3
  -6   7   5-23.0472 19.4261   1
   6  -7  -5 5.87788 18.6690   0
   6  -7  -5-15.4234 10.2070   4
   6  -7  -4 0.26485 14.7342   0
  -6   7   4-4.78577 18.9250   1
  -6  -7   4 5.14861 10.2122   0
  -6   7   3-7.98751 15.1535   1
  -6   7   2 3.74488 14.0143   1
   6   7  -2-7.01822 18.7047   3
   6   7  -1-2.10103 16.6008   3
  -6   7   1 5.76082 11.7982   1
  -6   7   0 12.2291 9.86625   1
   6   7   0 8.80811 18.5839   3
   6  -7   1-8.21986 10.3542   3
   6   7   1 3.25606 19.2021   3
   6   7   1-10.5119 14.8224   1
   6  -7   2-2.97750 12.3224   3
   6   7   2 1.25187 21.4142   3
   6   7   2 12.7843 14.4100   1
   6  -7   3-12.7935 15.2529   3
   6   7   3 15.9326 23.2774   3
   6   7   3 8.98053 14.5857   1
   6  -7   4-21.7436 18.5370   3
   6   7   4 9.21422 23.9298   3
   6  -7   5-16.8544 20.8415   3
   6   7   5 7.15685 23.1801   4
   6   7   5 0.64623 26.5983   3
   6  -7   6 15.2022 22.7126   3
   6   7   6-12.3052 26.6387   3
   6   7   7-25.6082 32.1805   3
   6   7   8 43.4650 28.7785   3
   6   7   9-7.75493 29.1043   3
  -6   8  14 239.942 41.0332   3
  -6   8  14 248.824 31.0063   1
  -6   8  13 132.798 32.6721   3
  -6   8  13 167.660 31.8144   1
  -6   8  12 863.629 47.6175   1
  -6   8  12 820.366 46.1994   3
  -6   8  11 313.762 36.5425   1
  -6   8  11 274.163 32.8005   3
  -6   8  10 634.052 37.7635   3
  -6   8  10 657.260 41.0749   1
  -6   8   9 456.403 31.4986   3
  -6   8   9 411.412 36.3236   1
  -6   8   8 844.784 32.7714   3
  -6   8   8 824.035 40.3609   1
  -6   8   7 1748.31 38.5075   3
  -6   8   7 1770.36 48.0391   1
  -6   8   6 124.340 23.3675   1
  -6   8   6 121.246 16.1424   3
  -6   8   5 1389.31 39.2820   1
   6  -8  -4 3596.68 54.8589   0
  -6  -8   4 3724.29 34.3617   0
  -6   8   4 3599.60 53.7186   1
  -6   8   3 1374.57 33.6205   1
  -6  -8   3 1381.41 15.7761   0
   6   8  -2 57.5309 20.8418   3
  -6   8   2 33.8996 14.8066   1
   6   8  -1 241.300 22.6066   3
  -6   8   1 279.087 16.3044   1
   6   8   0 1144.06 35.6585   3
  -6   8   0 1105.55 23.3340   1
   6   8   1 963.562 35.4929   3
   6   8   1 924.605 29.1249   1
   6   8   2 200.727 18.3790   1
   6   8   2 167.009 25.0724   3
   6   8   3 668.689 26.7735   1
   6   8   3 798.892 37.7526   3
   6   8   4 719.719 38.5758   3
   6   8   5 705.760 43.2251   3
   6   8   6 337.163 36.1725   3
   6   8   7 181.907 35.7321   3
   6   8   8 180.862 36.4983   3
   6   8   9 87.9223 33.4178   3
  -6   9  14 125.529 36.5458   1
  -6   9  13 19.0739 27.4835   1
  -6   9  12 69.8855 29.6775   1
  -6   9  12-6.41800 29.7139   3
  -6   9  11 11.4981 27.7587   3
  -6   9  11-3.69476 29.9096   1
  -6   9  10 21.7813 27.6552   3
  -6   9  10 26.4744 31.6231   1
  -6   9   9-53.6981 29.1089   1
  -6   9   8 11.4332 25.6921   1
  -6   9   7 6.68142 24.7570   1
  -6   9   6 26.1175 23.4967   1
  -6   9   5-19.0531 20.4837   1
  -6   9   4 5.25858 18.4666   1
  -6   9   3-7.47305 16.6781   1
   6   9  -3-6.14947 20.3497   3
   6   9  -2 13.0627 19.7521   3
  -6   9   2 0.86759 15.1325   1
  -6   9   1-2.17393 13.6630   1
   6   9  -1-13.5056 20.0771   3
  -6   9   0-7.90014 12.1824   1
   6   9   0-8.01724 20.6372   3
   6   9   1 9.93079 21.2092   3
   6   9   1 4.16593 17.7082   1
   6   9   2 17.2057 23.5188   3
   6   9   2 9.30320 17.9948   1
   6   9   3 11.8594 25.9744   3
   6   9   3-17.5695 18.4792   1
   6   9   4 13.8414 27.4996   3
   6   9   5-24.0869 30.9205   3
   6   9   6-4.29770 29.9037   3
   6   9   7 23.1653 31.3983   3
   6   9   8-20.9583 35.8098   3
   6   9   9-40.8229 33.3707   3
  -6  10  14 36.4845 33.3931   1
  -6  10  13 49.7516 33.8021   1
  -6  10  12-1.47708 30.6897   1
  -6  10  11 14.9469 28.1110   1
  -6  10  10 361.118 39.3168   1
  -6  10   9 820.296 44.0081   1
  -6  10   8 25.9878 26.8811   1
  -6  10   7 1597.36 49.7409   1
  -6  10   6 955.668 38.1588   1
  -6  10   5 924.166 36.3814   1
  -6  10   4 278.701 25.2563   1
   6  10  -3 430.087 29.4151   3
  -6  10   3 451.818 25.7562   1
  -6  10   2 1267.43 31.9909   1
   6  10  -2 1226.65 37.9722   3
   6  10  -1 426.957 27.3491   3
  -6  10   1 520.188 22.3571   1
   6  10   0 1271.30 39.9731   3
  -6  10   0 1250.21 29.1273   1
   6  10   0 1168.57 32.8508   1
   6  10   1 67.3100 24.1769   3
   6  10   1 60.2291 19.6437   1
   6  10   2 549.230 33.4470   3
   6  10   2 513.298 27.3089   1
   6  10   3 847.580 32.9308   1
   6  10   3 886.474 40.3620   3
   6  10   4 808.932 42.5709   3
   6  10   5 879.710 47.6618   3
   6  10   6 178.232 35.3656   3
   6  10   7 171.841 37.5357   3
   6  10   8-22.0844 36.6253   3
   6  10   9 38.0275 32.1706   3
  -6  11  13 119.593 37.9795   1
  -6  11  11 15.4572 29.2874   1
  -6  11  10-36.2145 29.9224   1
  -6  11   9 24.4501 33.1795   1
  -6  11   8-16.0299 26.5331   1
  -6  11   7 1.71940 27.3554   1
  -6  11   6-14.2632 23.2718   1
  -6  11   5 7.03555 23.1714   1
  -6  11   4-4.04975 21.3748   1
  -6  11   3 29.5201 20.2942   1
   6  11  -3 15.1609 22.3459   3
  -6  11   2-10.7582 17.4482   1
   6  11  -2 8.60620 18.9716   3
  -6  11   1 4.39705 16.5671   1
   6  11  -1 2.01231 21.1624   3
   6  11   0 11.2638 23.6364   3
   6  11   0 19.3618 20.4608   1
  -6  11   0 12.3208 15.2009   1
   6  11   1 9.53963 22.6052   3
   6  11   1 37.3293 22.0137   1
   6  11   2 24.3347 24.6900   3
   6  11   2 32.2780 20.2658   1
   6  11   3-20.4044 24.9062   3
   6  11   3-14.3314 19.5142   1
   6  11   4-10.6491 20.4760   1
   6  11   4 5.38392 25.6081   3
   6  11   5-14.9159 31.3570   3
   6  11   6 18.9640 30.8658   3
   6  11   7-19.1314 33.2169   3
   6  11   8-22.2261 27.7419   3
   6  11   9 43.5262 34.9691   3
  -6  12  13-16.7371 34.4734   1
  -6  12  12-7.29470 28.6878   1
  -6  12  11 55.0184 33.6375   1
  -6  12  10-1.56172 30.4429   1
  -6  12   9 158.329 32.9581   1
  -6  12   8 547.186 40.2407   1
  -6  12   7 97.0075 27.9380   1
  -6  12   6 197.591 29.0185   1
  -6  12   5 463.610 32.4411   1
  -6  12   4 506.485 30.1443   1
   6  12  -3 585.065 33.7312   3
  -6  12   3 571.505 29.1054   1
  -6  12   2 129.662 20.6170   1
   6  12  -2 112.209 21.7378   3
  -6  12   1 389.135 24.1500   1
   6  12  -1 411.025 28.0165   3
   6  12   0 1280.05 42.3472   3
   6  12   0 1304.72 40.3879   1
  -6  12   0 1347.66 33.4288   1
   6  12   1 47.5728 24.0806   3
   6  12   1 51.5732 21.9600   1
   6  12   2 284.636 29.4787   3
   6  12   2 290.740 27.9148   1
   6  12   3 217.135 25.6908   1
   6  12   3 164.546 30.3530   3
   6  12   4 318.681 33.7328   3
   6  12   4 392.103 29.3958   1
   6  12   5 298.280 33.0487   3
   6  12   6 58.8222 29.8371   3
   6  12   7 42.0628 30.8090   3
   6  12   8 15.8520 31.8889   3
  -6  13  12 86.3587 35.9094   1
  -6  13  11-75.4814 28.2642   1
  -6  13  10 6.01931 31.2338   1
  -6  13   9-1.89608 32.1526   1
  -6  13   8 28.9289 28.2109   1
  -6  13   7-23.8787 28.3761   1
  -6  13   6 43.3403 26.0972   1
  -6  13   5-15.5731 22.7953   1
  -6  13   4 8.87656 22.7566   1
  -6  13   3-17.7982 21.6949   1
   6  13  -3-0.54425 21.3247   3
  -6  13   2 5.58845 20.9009   1
   6  13  -2-14.8985 20.5574   3
  -6  13   1-19.2876 19.3901   1
   6  13  -1 25.3105 22.2877   3
   6  13   0 3.74897 21.4072   1
   6  13   0 12.5725 21.1690   3
   6  13   1 2.50585 23.4281   3
   6  13   1 5.86435 23.1629   1
   6  13   2 11.2483 24.3653   3
   6  13   2 6.77403 23.3684   1
   6  13   3-16.3387 26.1968   3
   6  13   3 15.2218 22.8582   1
   6  13   4 2.28348 23.9101   1
   6  13   4 0.54312 25.0731   3
   6  13   5 0.79251 28.3224   3
   6  13   6 45.5857 31.8664   3
   6  13   7-5.24989 25.2293   3
   6  13   8-8.60663 36.1114   3
  -6  14  12 57.6408 32.6013   1
  -6  14  11 18.7116 30.0827   1
  -6  14  10 12.6247 34.5897   1
  -6  14   9 12.7018 28.0013   1
  -6  14   8 241.836 36.2720   1
  -6  14   7 109.838 28.5967   1
  -6  14   6 400.973 35.9375   1
  -6  14   5-4.74322 23.7782   1
   6  14  -4 232.169 30.3994   3
  -6  14   4 258.380 29.1674   1
  -6  14   3 66.4785 23.5722   1
   6  14  -3 98.8803 26.3515   3
  -6  14   2 49.2737 21.8708   1
   6  14  -2 11.6759 23.4616   3
   6  14  -1 817.044 38.3453   3
   6  14  -1 708.348 33.9801   1
  -6  14   1 791.826 32.7775   1
   6  14   0 398.576 32.1008   3
   6  14   0 364.802 32.1233   1
   6  14   1 129.174 26.9857   3
   6  14   1 95.8132 28.1487   1
   6  14   2 87.0921 27.6381   3
   6  14   2 85.5036 24.1816   1
   6  14   3 93.4985 27.4611   3
   6  14   3 144.009 27.9721   1
   6  14   4 81.7894 27.1253   1
   6  14   4 38.4435 29.0072   3
   6  14   5 126.492 29.0920   3
   6  14   6 27.6712 28.4572   3
   6  14   7 14.7589 34.1549   3
   6  14   8 286.848 40.7305   3
  -6  15  12-85.7384 24.4788   1
  -6  15  11 38.8226 31.4547   1
  -6  15  10-104.475 32.1698   1
  -6  15   9 0.31172 28.2785   1
  -6  15   8-33.9505 32.2728   1
  -6  15   7-4.42559 27.1531   1
  -6  15   6-17.5768 29.4230   1
  -6  15   5 24.0258 24.7950   1
  -6  15   4 55.1075 26.4224   1
   6  15  -4 6.40093 28.7916   3
  -6  15   3-21.1826 25.8608   1
   6  15  -3 9.95738 24.9925   3
  -6  15   2 10.3260 23.2501   1
   6  15  -2 15.1749 25.4845   3
  -6  15   1-8.65339 22.4765   1
   6  15  -1 40.8621 24.1796   3
   6  15  -1-16.8521 23.3310   1
   6  15   0-33.9573 27.2478   1
   6  15   0 25.2426 22.9196   3
   6  15   1 18.7856 26.2126   3
   6  15   1-35.3190 27.3597   1
   6  15   2 7.71896 25.7900   3
   6  15   2-14.8351 26.5767   1
   6  15   3-25.9795 24.5273   3
   6  15   3 18.2432 26.1963   1
   6  15   4 29.1147 28.2542   3
   6  15   4 36.3965 23.0726   1
   6  15   5 16.9512 31.9127   3
   6  15   6 19.1957 33.3307   3
   6  15   7-25.7596 31.8375   3
  -6  16  11 169.265 35.9144   1
  -6  16   9 158.414 32.9609   1
  -6  16   8 132.255 35.6764   1
  -6  16   7 100.177 28.8302   1
  -6  16   6 158.748 32.7232   1
  -6  16   5 665.223 39.7472   1
   6  16  -4 465.343 36.1136   3
  -6  16   4 516.258 35.0669   1
   6  16  -3 1709.58 52.5031   3
  -6  16   3 1804.38 51.7209   1
   6  16  -2 333.629 33.8746   3
  -6  16   2 307.256 28.5439   1
   6  16  -1 891.187 39.3731   3
   6  16  -1 925.640 45.0247   1
  -6  16   1 872.479 37.4693   1
   6  16   0 363.702 32.9148   3
   6  16   0 356.585 33.3785   1
   6  16   1 413.047 34.1917   3
   6  16   1 304.285 34.1668   1
   6  16   2 71.5740 25.8438   3
   6  16   2 31.1804 25.8273   1
   6  16   3 109.100 28.1010   3
   6  16   3 104.274 27.6127   1
   6  16   4 78.3129 30.8958   3
   6  16   4 75.4731 26.6898   1
   6  16   5 103.514 33.1596   3
   6  16   6-2.65024 33.5125   3
   6  16   7 0.26049 26.2867   3
  -6  17  11 22.4571 33.3250   1
  -6  17  10-79.0721 36.5557   1
  -6  17   9 32.1472 30.9253   1
  -6  17   8-34.1983 31.8576   1
  -6  17   7 24.1883 33.1385   1
  -6  17   6-16.0443 27.2235   1
   6  17  -5-5.63003 28.8484   3
  -6  17   5-5.00047 29.9640   1
  -6  17   4 0.15863 27.2398   1
   6  17  -4-9.04759 25.8061   3
  -6  17   3 4.57213 23.3601   1
   6  17  -3 13.7445 26.8092   3
  -6  17   2 33.0471 26.3353   1
   6  17  -2-18.6487 25.3089   1
   6  17  -2 4.56637 25.4985   3
  -6  17   1 17.1091 24.3525   1
   6  17  -1 0.40531 23.5657   3
   6  17  -1 16.4617 25.6802   1
   6  17   0-4.88098 25.5823   3
   6  17   0 29.0063 26.7386   1
   6  17   1-20.6471 26.8631   3
   6  17   1-32.2607 28.6599   1
   6  17   2 27.4139 29.3354   3
   6  17   2-25.7876 28.4825   1
   6  17   3-22.9992 24.4692   3
   6  17   3-13.6282 28.5523   1
   6  17   4 60.0235 33.0606   3
   6  17   4 33.0074 27.6460   1
   6  17   5 56.6246 32.6018   3
   6  17   6-84.0009 27.3045   3
   6  17   7-15.8538 29.2042   3
  -6  18  10-14.5887 34.4497   1
  -6  18   9 5.94037 37.9402   1
  -6  18   8 108.103 34.5185   1
  -6  18   7 39.1637 31.1720   1
  -6  18   6 6.91883 32.2202   1
  -6  18   5 57.4973 30.6372   1
   6  18  -5 81.9868 31.5102   3
  -6  18   4 225.774 29.4397   1
   6  18  -4 161.528 32.9294   3
  -6  18   3 48.8425 26.0987   1
   6  18  -3 52.7678 25.6367   3
  -6  18   2 61.4134 28.0378   1
   6  18  -2 32.3156 26.2196   1
   6  18  -2 62.0955 24.4216   3
   6  18  -1 426.736 40.4321   1
   6  18  -1 490.463 35.2906   3
  -6  18   1 512.739 34.9879   1
   6  18   0 252.372 34.4885   1
   6  18   0 217.994 28.8952   3
   6  18   1 185.182 29.6061   3
   6  18   1 191.301 33.8304   1
   6  18   2 89.6778 31.3455   3
   6  18   2 30.8177 30.4183   1
   6  18   3 71.3942 25.4689   3
   6  18   3 106.108 33.2307   1
   6  18   4 102.593 29.8121   1
   6  18   4 84.7157 30.8626   3
   6  18   5 318.326 40.3947   3
   6  18   5 369.792 38.2824   1
   6  18   6 55.9568 31.7821   3
  -6  19   9-31.6436 30.2878   1
  -6  19   8 3.51958 34.1262   1
  -6  19   7-48.4043 33.3033   1
  -6  19   6 19.0120 30.5994   1
   6  19  -6-37.6958 25.5877   3
  -6  19   5 9.13951 27.2885   1
   6  19  -5 8.39064 26.8143   3
   6  19  -4 50.7474 27.9124   3
  -6  19   4-83.5557 26.4647   1
  -6  19   3-21.3326 28.0542   1
   6  19  -3 18.8516 25.9330   3
  -6  19   2-11.3265 27.3691   1
   6  19  -2-12.9813 26.2574   3
   6  19  -2 55.0392 31.9080   1
   6  19  -1-14.3244 24.4979   3
   6  19  -1-19.4568 29.3635   1
   6  19   0-30.5424 22.9862   3
   6  19   0 13.0341 33.9698   1
   6  19   1-33.4803 27.2545   3
   6  19   1 34.9063 30.8542   1
   6  19   2 28.2996 25.1447   3
   6  19   2-18.5520 28.2931   1
   6  19   3-64.2691 30.0846   3
   6  19   3-29.8781 30.3376   1
   6  19   4 31.4477 31.6339   1
   6  19   4 23.8166 33.7381   3
   6  19   5 61.4038 34.0104   1
   6  19   5 82.3645 35.0784   3
   6  19   6-82.6812 28.9112   3
  -6  20   9-84.9656 35.4940   1
  -6  20   8 71.5895 35.7978   1
  -6  20   7 10.9032 26.5761   1
   6  20  -6 36.8927 30.5717   3
  -6  20   6 57.9436 30.7594   1
   6  20  -5 10.9668 23.0528   3
  -6  20   5 45.5314 30.9794   1
  -6  20   4 22.3112 28.7858   1
   6  20  -4 38.1285 25.2296   3
  -6  20   3 35.7262 30.0935   1
   6  20  -3 42.9398 26.7321   3
   6  20  -3-12.5974 28.8423   1
  -6  20   2 60.2093 25.8733   1
   6  20  -2 77.2759 29.4927   3
   6  20  -2 64.2634 29.9790   1
   6  20  -1 352.375 34.6744   3
   6  20  -1 290.832 38.2061   1
   6  20   0 67.3169 26.6627   3
   6  20   0-2.41275 31.9014   1
   6  20   1-3.50709 29.0043   3
   6  20   1 72.3478 32.6402   1
   6  20   2 160.677 33.6446   3
   6  20   2 98.1929 31.6842   1
   6  20   3-18.5040 25.3033   3
   6  20   3-14.6294 29.6569   1
   6  20   4 55.5233 33.0532   1
   6  20   4 9.57072 28.0272   3
   6  20   5 103.998 34.7236   1
   6  20   5 97.4890 33.2339   3
  -6  21   8 24.8673 29.8810   1
  -6  21   7-21.0252 31.8638   1
   6  21  -7-29.5911 28.5604   3
   6  21  -6 73.0510 30.4990   3
  -6  21   6 10.4506 30.6433   1
   6  21  -5-51.9316 24.2086   3
  -6  21   5 68.4540 32.7071   1
   6  21  -4-21.8266 24.6566   3
  -6  21   4-62.2486 29.1215   1
  -6  21   3-28.8977 26.9322   1
   6  21  -3 21.2754 25.0955   3
   6  21  -3 15.6260 30.2868   1
  -6  21   2 58.1316 29.2430   1
   6  21  -2-19.6380 22.3704   3
   6  21  -2-26.5047 31.4940   1
   6  21  -1 91.3479 28.7830   3
   6  21  -1 37.9382 34.5940   1
   6  21   0 15.5741 26.3070   3
   6  21   0-11.9609 28.5807   1
   6  21   1-40.8472 24.6743   3
   6  21   1 19.3984 32.4953   1
   6  21   2-12.7053 29.4930   3
   6  21   2 88.6181 37.3353   1
   6  21   3-108.614 35.8438   1
   6  21   4 6.34151 31.6977   1
   6  21   4-65.5148 27.7299   3
   6  21   5 124.419 32.2083   1
   6  22  -7-40.8803 29.3105   3
  -6  22   7-57.9367 35.5131   1
  -6  22   6 5.27733 34.2980   1
   6  22  -6-25.3595 26.6517   3
   6  22  -5 70.1824 23.5374   3
  -6  22   5 30.4530 29.4381   1
  -6  22   4 40.4657 28.6048   1
   6  22  -4-18.3713 27.0798   3
   6  22  -4-20.2177 32.2985   1
   6  22  -3 50.3074 31.5869   1
  -6  22   3 23.2771 29.1755   1
   6  22  -2 10.1570 27.7531   3
   6  22  -2 32.2687 35.5362   1
   6  22  -1 66.7358 30.0178   3
   6  22  -1 46.5001 32.3796   1
   6  22   0 152.750 30.3256   3
   6  22   0 116.419 32.1219   1
   6  22   1-25.1741 22.8102   3
   6  22   1 3.63752 33.1498   1
   6  22   2 16.7561 26.0799   3
   6  22   2 119.801 39.4930   1
   6  22   3 40.6892 24.7902   3
   6  22   3-31.0821 28.5602   1
   6  22   4-51.6992 25.8329   3
  -6  23   6 22.2692 33.2778   1
  -6  23   5 29.3257 28.2236   1
  -6  23   4-43.4477 32.3215   1
   6  23  -4 72.6949 33.7519   1
  -6  23   3-95.8840 32.8781   1
   6  23  -3-55.4495 36.7060   1
   6  23  -2 57.1539 33.3988   1
   6  23  -1-52.5882 35.9900   1
   6  23   0 75.6544 26.4202   3
   6  23   0 57.2153 38.0575   1
   6  23   1-0.56815 24.8311   3
   6  23   1-37.7203 34.6308   1
   6  23   2 62.4344 28.4590   3
  -6  24   5 118.828 35.4248   1
  -6  24   4 124.491 33.7028   1
  -6  24   3 14.2193 28.7427   1
  -7   0  15 84.2783 43.3835   1
  -7   0  14 59.4596 38.2339   1
  -7   0  13-11.4777 36.5724   1
  -7   0  12 29.9284 31.5819   1
  -7   0  11 47.2149 33.3276   1
  -7   0  10 39.5638 32.2136   1
  -7   0   9 11.3318 31.3940   1
   7   0  -8 2.89069 19.6865   2
  -7   0   8 5.91180 26.8055   1
   7   0  -7-5.01737 20.0980   2
  -7   0   7-4.56088 22.9983   1
  -7   0   6 16.1869 18.7174   0
   7   0  -6 12.5329 20.0088   2
  -7   0   6 16.4357 24.5735   1
   7   0  -5-6.45640 19.8874   2
   7   0  -5-8.82447 14.2079   0
  -7   0   5 6.63451 19.4583   1
  -7   0   5 2.01287 16.5453   0
   7   0  -4-20.0837 22.2073   2
   7   0  -4 4.47528 14.8494   0
  -7   0   4-11.3295 18.8028   1
   7   0  -3 13.3851 18.4891   2
  -7   0   3 12.3463 16.4205   1
   7   0  -3 10.9072 13.8217   3
   7   0  -3 26.7573 19.7399   4
   7   0  -3-6.28935 15.5548   0
   7   0  -2 9.50563 12.4417   3
   7   0  -2 0.48483 19.1287   4
   7   0  -1-13.3320 20.4322   4
   7   0  -1-9.41158 12.2828   3
   7   0   0-3.30934 22.2257   4
   7   0   0 5.88863 13.7442   3
   7   0   1 2.83107 21.9728   4
   7   0   1 2.41393 15.5647   3
   7   0   2 0.10381 22.6677   4
   7   0   2-8.29387 15.7624   3
   7   0   3-17.5294 24.3733   4
   7   0   3-4.52280 18.6954   3
   7   0   4-16.7797 27.8735   4
   7   0   4-8.61950 19.7370   3
   7   0   5-35.7443 29.7454   4
   7   0   5 9.10696 23.7466   3
   7   0   6-26.1556 30.8362   4
   7   0   6-24.1699 24.7194   3
   7   0   7 30.0644 33.3716   4
   7   0   7-4.66582 25.4582   3
   7   0   8-26.4249 32.6859   3
   7   0   9-38.5464 28.3563   3
   7   0  10-37.2919 32.5530   3
  -7   1  15 64.3947 37.5683   1
  -7  -1  15 21.5540 34.7065   1
  -7  -1  14 45.7180 33.7818   1
  -7   1  14-20.4119 30.0134   1
  -7  -1  13 289.766 43.6373   1
  -7   1  13 224.593 36.8036   1
  -7  -1  12-8.99240 28.9675   1
  -7   1  12 48.3865 31.7597   1
  -7  -1  11 167.916 33.9446   1
  -7   1  11 142.819 34.4669   1
  -7   1  10 198.332 31.5126   1
  -7  -1  10 172.915 32.4466   1
  -7  -1   9 2716.46 61.7733   1
  -7   1   9 2489.17 60.1035   1
   7  -1  -9 2443.37 48.9580   2
   7   1  -8 1000.90 35.6650   2
   7  -1  -8 885.258 32.9862   2
  -7  -1   8 891.658 40.5357   1
  -7   1   8 835.937 38.7442   1
  -7  -1   7 612.245 34.3406   1
  -7  -1   7 612.600 28.6086   0
  -7   1   7 598.460 33.2696   1
   7   1  -7 602.978 28.6683   2
   7  -1  -7 615.687 28.9612   2
  -7   1   6 3632.71 52.5977   0
   7   1  -6 3497.39 54.0113   2
  -7  -1   6 3675.22 57.9530   1
  -7  -1   6 3797.25 52.1978   0
  -7   1   6 3584.19 57.2534   1
   7  -1  -6 3505.83 54.2896   2
  -7  -1   5 1960.42 35.8975   0
   7   1  -5 1885.53 41.4158   2
  -7   1   5 1938.39 40.9004   1
   7  -1  -5 1876.74 40.7778   2
   7  -1  -5 1908.40 37.4591   0
  -7  -1   5 2011.33 42.2500   1
  -7  -1   4 8455.37 72.3843   1
   7  -1  -4 8513.33 68.8968   0
  -7   1   4 8355.63 70.9122   1
   7  -1  -4 8529.48 63.5522   4
   7   1  -4 8470.76 64.6107   0
   7   1  -4 8234.94 75.2801   2
   7   1  -3 4980.57 47.5125   0
   7   1  -3 5080.84 58.5995   2
   7  -1  -3 5109.24 52.7792   4
   7  -1  -3 4923.16 46.4118   3
   7   1  -3 4980.56 54.0543   4
   7   1  -3 5006.62 52.4625   3
  -7   1   3 4903.43 49.8818   1
  -7  -1   3 4841.33 51.1877   1
   7   1  -2 5487.47 57.8461   4
   7   1  -2 5239.97 58.0039   2
   7  -1  -2 5526.61 58.4242   4
  -7   1   2 5385.60 45.7696   1
   7   1  -2 5211.69 51.5318   3
   7  -1  -2 5088.08 45.3177   3
   7  -1  -1 3256.92 49.3180   4
   7  -1  -1 3022.20 37.5011   3
   7   1  -1 3200.31 42.3509   3
   7   1  -1 3064.17 47.2658   4
   7   1  -1 3062.87 43.8597   2
   7   1   0 3574.21 53.5620   4
   7   1   0 3484.09 46.7217   3
   7   1   0 3458.53 44.9919   2
   7  -1   0 3563.52 53.9851   4
   7  -1   0 3475.56 43.7417   3
   7   1   1 5749.80 54.6616   2
   7  -1   1 5762.42 70.0163   4
   7   1   1 5794.76 63.7419   3
   7  -1   1 5738.69 60.1565   3
   7   1   1 5897.42 69.1005   4
   7   1   2 1257.36 39.3338   4
   7   1   2 1149.09 25.6393   2
   7   1   2 1275.97 35.5540   3
   7  -1   2 1325.37 34.0235   3
   7   1   3 835.131 35.8375   4
   7   1   3 946.630 35.0000   3
   7  -1   3 905.414 33.5758   3
   7   1   4 323.625 31.2605   4
   7   1   4 359.360 28.9038   3
   7  -1   4 367.638 28.2301   3
   7   1   5 298.992 33.0568   4
   7   1   5 355.515 31.5499   3
   7  -1   5 278.531 29.0134   3
   7   1   6 159.029 32.5108   4
   7  -1   6 235.847 30.7763   3
   7   1   6 203.939 31.9980   3
   7  -1   7 44.2623 31.6967   4
   7   1   7 70.8997 33.4134   4
   7   1   7 126.246 30.6343   3
   7  -1   7 24.8548 27.4946   3
   7   1   8-53.4408 28.3235   3
   7  -1   8 90.0984 34.1125   3
   7  -1   9-3.48192 31.2479   3
   7   1   9 126.425 31.5809   3
   7  -1  10 67.7434 35.9768   3
   7   1  10 1.23172 32.3439   3
  -7  -2  15 105.169 43.0227   1
  -7   2  15-14.5350 41.9967   1
  -7  -2  14-4.58042 31.2772   1
  -7   2  14 119.280 42.2141   1
  -7  -2  13 11.4374 35.8349   1
  -7   2  13-13.3460 36.8290   1
  -7  -2  12-0.48740 27.2307   1
  -7   2  12-32.2134 33.9900   1
  -7  -2  11 6.44574 30.5740   1
  -7  -2  10 7.24825 31.7340   1
  -7   2  10-6.72321 29.8240   1
  -7  -2   9 3.57517 28.3452   1
   7  -2  -9 5.91966 20.6713   2
  -7   2   9 19.5471 27.6017   1
  -7  -2   8 0.25553 27.9643   1
  -7   2   8 1.30543 24.3391   1
   7  -2  -8 27.1843 20.1739   2
  -7  -2   7 1.47437 23.9876   1
   7  -2  -7 17.3474 19.4373   2
  -7   2   7-6.22564 20.5346   1
  -7  -2   7 3.82700 19.4889   0
  -7   2   6 14.8225 21.1899   1
   7  -2  -6-7.04439 19.9939   2
  -7  -2   6-4.87468 24.1204   1
   7   2  -6-10.8896 22.5569   2
  -7  -2   6 7.46885 16.7451   0
  -7   2   6 9.44831 19.2515   0
  -7  -2   5-1.43601 13.5450   0
   7   2  -5 11.1153 19.4381   2
  -7   2   5-12.6683 17.8175   1
  -7  -2   5-5.96920 21.7625   1
   7  -2  -5-14.5431 13.6258   0
   7   2  -4 14.5363 13.8394   0
   7  -2  -4 2.19193 16.4257   0
   7  -2  -4 10.6245 15.2772   4
  -7   2   4 1.35267 16.2319   1
   7   2  -4-3.17552 19.9272   2
   7  -2  -3-15.8245 17.2187   4
   7   2  -3-1.05033 12.2124   0
   7   2  -3-7.80550 16.1845   3
   7  -2  -3-9.40971 9.99227   3
   7   2  -3-4.09868 21.3279   2
  -7   2   3-9.85626 15.5311   1
   7   2  -2 25.8520 19.1738   2
   7   2  -2 4.87495 17.7639   4
   7  -2  -2-23.7972 19.9949   4
   7   2  -2-9.66456 13.8526   3
  -7   2   2-6.92962 12.3931   1
   7  -2  -2 12.5364 9.35395   3
   7   2  -1 7.35264 18.5843   4
  -7   2   1-1.46766 9.30377   1
   7   2  -1-4.28169 15.6684   2
   7   2  -1-1.64453 14.7145   3
   7  -2  -1-14.2140 9.99741   3
   7  -2  -1-13.4169 21.4323   4
   7   2   0-0.16609 21.6287   4
   7   2   0-22.6264 14.4497   2
   7   2   0-5.90778 14.6673   3
   7  -2   0 2.33734 11.6243   3
   7   2   1-4.98208 21.4177   4
   7   2   1-8.89215 14.2213   2
   7   2   1-5.64341 17.1272   3
   7  -2   1-12.8088 13.6388   3
   7   2   2-4.30383 22.6170   4
   7   2   2 30.7232 13.0210   2
   7   2   2-16.7915 18.6089   3
   7  -2   2-12.7045 15.3204   3
   7   2   3-0.37982 21.8492   4
   7   2   3-16.5661 19.8857   3
   7  -2   3-12.2605 17.5439   3
   7   2   4 6.81337 25.1575   4
   7   2   4-11.8291 21.1557   3
   7  -2   4-5.64958 20.3347   3
   7   2   5-11.5237 25.0482   4
   7   2   5-24.2453 24.1465   3
   7  -2   5 33.7226 25.3011   3
   7   2   6 1.04763 29.1347   4
   7   2   6 34.3489 29.9048   3
   7  -2   6-14.8558 24.9845   3
   7   2   7-17.5592 28.5257   3
   7  -2   7 66.6985 28.0838   3
   7   2   8 12.1276 32.2117   3
   7  -2   8-78.7456 26.9991   3
   7   2   9-64.6923 29.1937   3
   7  -2  10 119.953 37.8240   3
  -7  -3  15 76.0385 40.8079   1
  -7   3  15 165.311 43.7694   1
  -7  -3  14 95.3068 38.4887   1
  -7   3  14-40.8903 32.2131   1
  -7  -3  13 80.7523 37.2408   1
  -7   3  13 25.5608 36.6797   1
  -7  -3  12 71.8863 33.2575   1
  -7   3  12-1.08428 36.6285   1
  -7  -3  11 89.4485 34.8013   1
  -7   3  11 216.665 36.6188   1
  -7   3  10 325.216 34.6836   1
  -7  -3  10 321.158 34.5430   1
   7  -3  -9 97.0237 20.9872   2
  -7   3   9 129.038 28.0067   1
  -7  -3   9 95.9132 29.9777   1
  -7   3   8 322.485 29.9739   1
   7  -3  -8 330.256 26.4172   2
  -7  -3   8 318.849 34.2680   1
  -7   3   7 1119.38 38.1365   1
  -7  -3   7 1052.73 31.0073   0
  -7  -3   7 1140.62 40.9589   1
   7  -3  -7 1106.57 34.1944   2
  -7   3   6 1236.10 33.5714   0
  -7   3   6 1189.26 35.4932   1
  -7  -3   6 1304.22 31.8161   0
   7  -3  -6 1201.42 34.0184   0
  -7  -3   6 1175.04 38.4276   1
  -7   3   5 282.276 22.7165   1
  -7  -3   5 305.627 18.5128   0
   7  -3  -5 293.358 16.6592   4
   7   3  -5 250.545 25.5199   2
   7  -3  -5 321.597 23.8604   0
   7  -3  -4 8474.88 73.0710   0
  -7   3   4 8578.64 71.1182   1
   7  -3  -4 8672.88 63.2080   4
   7   3  -4 8590.37 78.7447   2
   7   3  -4 8455.69 60.2422   0
  -7   3   3 6287.46 55.5154   1
   7  -3  -3 6564.29 60.1424   4
   7   3  -3 6455.65 64.8211   3
   7   3  -3 6297.55 48.5464   0
   7  -3  -3 6668.02 46.8760   3
   7   3  -3 6543.71 66.8006   2
   7   3  -2 6060.61 61.6782   2
  -7   3   2 5941.13 47.3187   1
   7  -3  -2 5725.99 40.7922   3
   7   3  -2 5897.02 60.4940   3
   7  -3  -2 6145.01 62.4626   4
  -7   3   1 2444.95 26.2487   1
   7   3  -1 2450.98 44.1113   4
   7  -3  -1 2408.82 29.7832   3
   7   3  -1 2503.50 40.3689   2
   7   3  -1 2502.08 41.6888   3
   7   3   0 146.045 24.2553   4
   7   3   0 191.669 19.9665   3
   7  -3   0 146.619 12.6811   3
   7   3   0 149.445 16.8005   2
   7   3   1 1704.67 39.6181   3
   7   3   1 1660.55 30.4168   2
   7   3   1 1570.23 24.2597   1
   7  -3   1 1633.58 31.6295   3
   7   3   1 1558.53 39.3347   4
   7   3   2 116.492 24.2365   4
   7   3   2 94.6878 22.0556   3
   7  -3   2 66.7473 15.6478   3
   7   3   3-12.0718 23.2254   4
   7   3   3-5.75812 21.9398   3
   7  -3   3 15.6913 17.7852   3
   7   3   4 86.2362 27.1651   4
   7   3   4 130.360 26.9537   3
   7  -3   4 128.139 21.6746   3
   7   3   5 300.833 30.2507   4
   7   3   5 336.868 32.5555   3
   7  -3   5 238.848 25.5368   3
   7   3   6 127.489 29.0562   4
   7   3   6 106.583 31.7257   3
   7  -3   6 140.093 26.4121   3
   7   3   7 416.536 37.6743   3
   7  -3   7 362.984 33.0888   3
   7  -3   8 61.9462 36.1534   3
   7   3   8 119.547 35.8633   3
   7  -3   9 325.995 37.1844   3
   7   3   9 161.279 38.9383   3
   7  -3  10-80.5981 32.9611   3
  -7   4  15-63.8497 35.3618   1
  -7   4  13-112.533 36.8569   1
  -7  -4  13 49.5711 35.6603   1
  -7   4  12 34.0598 31.9951   3
  -7  -4  12 19.3895 34.7322   1
  -7   4  12 1.38687 29.4052   1
  -7   4  11 26.0505 28.8782   3
  -7   4  11-6.67963 29.1717   1
  -7  -4  11 45.7549 34.1627   1
  -7   4  10 10.1564 24.9540   3
  -7   4  10 22.7642 29.4402   1
  -7  -4  10 84.8743 33.4534   1
  -7   4   9 14.6896 28.4219   1
   7  -4  -9-13.6147 19.8333   2
  -7  -4   9 21.5471 29.4425   1
  -7   4   8-9.91770 25.2061   1
   7  -4  -8-4.43697 19.3136   2
  -7  -4   8 6.31915 27.9393   1
  -7   4   7 4.57131 21.3061   1
  -7  -4   7-14.9942 16.5335   0
  -7   4   6 31.0526 21.3501   1
  -7  -4   6-9.04360 14.2472   0
  -7   4   5 3.00882 18.5947   1
   7  -4  -5 1.63030 11.7048   4
  -7  -4   5-3.66847 12.8922   0
   7  -4  -5 5.49874 17.9021   0
  -7   4   4-8.68176 17.3523   1
   7  -4  -4 10.7382 15.6647   4
   7  -4  -4 13.9896 18.5403   0
  -7   4   3 5.71305 16.0691   1
   7   4  -3 51.3778 21.7271   2
   7  -4  -3 4.31154 17.7380   4
   7   4  -3 15.1979 18.9258   3
   7   4  -3 8.31271 10.5262   0
   7  -4  -3-6.77916 7.08211   3
  -7   4   2 4.80574 12.2027   1
   7   4  -2-2.16064 16.1112   3
   7   4  -2 16.0282 18.8500   2
   7  -4  -2 15.9444 7.06274   3
  -7   4   1-5.28169 7.72782   1
   7   4  -1 7.83733 16.7261   3
   7  -4  -1-7.35162 7.77444   3
   7   4   0 17.7007 14.3876   2
   7   4   0-9.08175 21.9568   4
   7   4   0-5.23639 16.1776   3
   7  -4   0 2.21935 8.73968   3
   7   4   1 10.0194 23.0980   4
   7   4   1 16.1346 18.6650   3
   7   4   1 26.6475 10.6791   1
   7  -4   1-7.82707 11.8804   3
   7   4   2-1.08302 21.5176   4
   7   4   2 26.6011 21.6738   3
   7  -4   2 34.2346 12.4521   3
   7   4   3-11.0886 22.2450   4
   7   4   3 19.9065 22.7227   3
   7  -4   3 9.69962 16.7086   3
   7   4   4 26.1304 25.7057   4
   7   4   4 41.0444 25.4854   3
   7  -4   4-10.7188 17.8376   3
   7   4   5 16.8884 25.2866   4
   7   4   5-4.73534 23.6047   3
   7  -4   5 35.9139 22.2804   3
   7   4   6 18.9414 26.0514   4
   7   4   6-21.4966 28.9401   3
   7  -4   6-20.2489 23.4995   3
   7  -4   7-83.3668 25.8957   3
   7   4   7 39.3731 29.1210   3
   7  -4   8 77.0139 31.2684   3
   7   4   8-12.0304 28.7536   3
   7  -4   9 15.0349 32.9046   3
   7   4   9-35.0598 27.2664   3
   7  -4  10-44.8505 33.2311   3
  -7   5  15 3.64292 33.3749   1
  -7   5  14 153.248 39.1827   3
  -7   5  14-20.7695 41.0256   1
  -7   5  13 79.8101 32.9499   3
  -7   5  13 117.185 30.5319   1
  -7   5  12 80.1803 28.1930   3
  -7   5  12 88.5721 33.9303   1
  -7   5  11 67.6798 30.4883   1
  -7   5  11 19.8803 28.5917   3
  -7   5  10 224.589 33.7102   1
  -7   5  10 218.326 29.0211   3
  -7   5   9 756.067 40.6170   1
   7  -5  -9 701.399 31.9300   2
  -7   5   9 677.685 32.3159   3
  -7   5   8 823.422 38.3206   1
  -7   5   7 292.106 27.6724   1
  -7  -5   7 282.063 21.9351   0
  -7  -5   6 92.1813 16.8340   0
  -7   5   6 71.3841 21.7364   1
  -7  -5   5 525.772 19.3962   0
   7  -5  -5 486.203 18.9679   4
   7  -5  -5 473.112 24.2549   0
  -7   5   5 464.131 26.4219   1
   7  -5  -4 314.224 23.1924   0
   7  -5  -4 273.620 18.7677   4
  -7   5   4 292.934 21.1639   1
   7   5  -3 2967.55 49.7332   3
  -7   5   3 2846.90 40.6720   1
   7   5  -2 1596.32 20.8782   0
   7   5  -2 1535.61 36.7847   3
  -7   5   2 1475.17 26.6655   1
   7   5  -1 412.212 24.7761   3
   7  -5  -1 414.458 11.9122   3
  -7   5   1 434.018 14.2200   1
   7   5   0 55.2873 19.3151   3
   7  -5   0 66.7101 9.87624   3
   7   5   1 1492.90 39.6765   4
   7   5   1 1492.94 28.7158   1
   7   5   1 1446.25 39.1182   3
   7  -5   1 1445.43 28.7187   3
   7   5   2 51.2383 23.7336   4
   7   5   2 40.0928 21.5217   3
   7  -5   2 85.9693 14.8185   3
   7   5   3 209.296 26.9017   4
   7   5   3 188.446 26.8480   3
   7  -5   3 145.415 17.2790   3
   7   5   4 479.411 34.0452   3
   7   5   4 523.888 31.2226   4
   7  -5   4 518.802 27.3601   3
   7   5   5 35.4942 25.1684   4
   7   5   5 8.71515 24.8268   3
   7  -5   5 12.4737 20.1245   3
   7   5   6 388.654 35.3138   3
   7  -5   6 381.970 35.1205   3
   7  -5   7 116.933 29.4957   3
   7   5   7 121.688 34.6764   3
   7  -5   8 161.002 37.1325   3
   7   5   8 99.1477 34.6558   3
   7   5   9 173.027 43.1509   3
  -7   6  15 88.7682 42.0065   3
  -7   6  14-26.0138 35.6805   3
  -7   6  14 49.4332 36.1742   1
  -7   6  13-46.7094 34.5172   3
  -7   6  13-38.4582 30.9984   1
  -7   6  12-37.1944 32.1767   3
  -7   6  12 62.4461 26.9023   1
  -7   6  11-6.06477 28.1393   3
  -7   6  11-33.9859 32.2557   1
  -7   6  10 6.42437 27.9732   1
  -7   6  10-21.1399 24.6643   3
  -7   6   9 23.9602 29.3219   1
  -7   6   9-9.20220 22.3356   3
   7  -6  -9 16.2963 21.1094   2
  -7   6   8-1.63113 18.2331   3
  -7   6   8 3.72337 25.3898   1
  -7   6   7 9.75379 23.3264   1
  -7  -6   6 18.5466 15.2376   0
  -7   6   6 13.6346 21.5025   1
  -7   6   5-0.81728 18.0395   1
  -7  -6   5 2.11529 12.1483   0
  -7   6   4 4.18598 15.7284   1
   7  -6  -4 4.02059 19.3689   0
  -7  -6   4 0.30911 10.3808   0
   7   6  -3 5.41824 18.6293   3
  -7   6   3 1.06040 14.4054   1
   7   6  -2 0.63705 6.18034   0
   7   6  -2-1.68614 16.6747   3
  -7   6   2-4.47052 12.1427   1
   7   6  -1 22.2450 18.0673   3
  -7   6   1-3.97477 9.75400   1
   7   6   0-16.3340 18.5528   3
   7   6   1-59.5550 18.7690   3
   7   6   1 11.1924 13.0637   1
   7   6   2 11.5880 22.4289   4
   7   6   2 0.84812 21.3111   3
   7  -6   2 28.1857 14.0121   3
   7   6   3-10.9707 21.4762   3
   7   6   3-8.03003 22.4297   4
   7  -6   3-59.7160 14.4141   3
   7  -6   4-20.5796 21.8348   3
   7   6   4-6.75892 24.3587   4
   7   6   4-18.2811 24.2823   3
   7   6   5-16.1091 26.6432   4
   7   6   5 46.8217 30.3442   3
   7   6   6 19.7525 31.5478   3
   7   6   7-31.6096 28.1891   3
   7   6   8-24.8636 35.0764   3
   7   6   9 20.4118 31.3304   3
  -7   7  15 54.9059 38.5490   3
  -7   7  14-4.04243 32.4920   3
  -7   7  14 29.6550 33.8579   1
  -7   7  13 68.8432 33.5938   3
  -7   7  13 192.380 37.2979   1
  -7   7  12 99.2241 32.0043   3
  -7   7  12 91.0005 29.1587   1
  -7   7  11 586.243 41.0676   1
  -7   7  11 558.266 37.8517   3
  -7   7  10 1089.97 50.1872   1
  -7   7  10 998.864 41.9941   3
  -7   7   9 582.703 37.8893   1
  -7   7   9 574.596 31.3599   3
  -7   7   8 88.5147 20.3652   3
  -7   7   8 95.3020 26.9816   1
  -7   7   7 597.888 25.0200   3
  -7   7   7 547.513 33.3710   1
  -7  -7   6 907.484 25.9332   0
  -7   7   6 957.492 34.5080   1
   7  -7  -5 310.152 17.0155   4
  -7  -7   5 297.348 16.2253   0
  -7   7   5 295.199 25.2204   1
  -7  -7   4 1229.91 21.2785   0
  -7   7   4 1149.84 32.6367   1
   7   7  -3 2946.61 54.3861   3
  -7   7   3 2632.30 41.5948   1
   7   7  -2 800.124 30.8677   3
  -7   7   2 850.804 24.1111   1
   7   7  -1 4704.11 63.3560   3
  -7   7   1 4507.55 43.6011   1
   7   7   0 1406.99 40.1771   3
   7   7   1 217.074 24.5343   3
   7   7   1 246.835 18.4665   1
   7   7   2 54.6714 22.8562   3
   7   7   2 2.63105 13.5859   1
   7   7   3 59.0706 25.3565   3
   7   7   4 641.540 35.2548   4
   7   7   4 618.524 38.0739   3
   7   7   5 200.232 29.9695   4
   7   7   5 190.183 30.7381   3
   7   7   6 634.352 41.4805   3
   7   7   7 34.4540 30.2154   3
   7   7   8 58.2741 31.1634   3
   7   7   9 24.4991 27.2458   3
  -7   8  14 40.4428 32.6013   1
  -7   8  13 28.3845 34.2868   1
  -7   8  12-60.0266 31.2862   1
  -7   8  11 54.3936 31.3781   1
  -7   8  10-10.5697 27.0941   1
  -7   8   9 12.1515 29.3704   1
  -7   8   8-13.9025 27.7503   1
  -7   8   7 11.9045 23.7558   1
  -7   8   6-0.50767 21.7036   1
  -7  -8   5-3.66435 11.1728   0
  -7   8   5-7.66911 18.8587   1
  -7   8   4 16.1746 18.3410   1
  -7   8   3-17.8502 15.8607   1
   7   8  -3 18.4784 22.2945   3
  -7   8   2 9.42479 14.0687   1
   7   8  -2-6.72673 20.2042   3
  -7   8   1-6.35757 11.3706   1
   7   8  -1 21.2395 20.3762   3
   7   8   0-4.71120 19.9988   3
   7   8   1-7.63594 21.8543   3
   7   8   1 20.6878 15.5447   1
   7   8   2 18.0491 23.1580   3
   7   8   2-16.3277 15.9339   1
   7   8   3 8.75695 25.2071   3
   7   8   4 20.9316 28.7504   3
   7   8   5-6.42505 28.2391   3
   7   8   6-22.1817 27.1670   3
   7   8   7-3.58501 31.5894   3
   7   8   8 11.6416 29.5522   3
   7   8   9-85.4846 31.8823   3
  -7   9  14 213.330 40.1606   1
  -7   9  13-17.9459 33.7158   1
  -7   9  12 262.008 38.3556   1
  -7   9  11 200.573 30.6028   1
  -7   9  10 1171.84 50.1751   1
  -7   9   9 339.706 34.0838   1
  -7   9   8 1154.28 44.0964   1
  -7   9   7 255.130 28.7988   1
  -7   9   6 813.842 35.1362   1
  -7   9   5 28.3559 20.2804   1
  -7   9   4 213.281 21.8709   1
   7   9  -3 302.329 26.9682   3
  -7   9   3 300.049 21.3219   1
  -7   9   2 20.9608 14.3536   1
   7   9  -2 25.3387 19.4852   3
   7   9  -1 1408.81 40.8956   3
  -7   9   1 1389.11 29.2320   1
   7   9   0 461.482 29.9692   3
   7   9   0 334.766 21.6229   1
   7   9   1 181.044 21.4190   1
   7   9   1 148.936 26.0334   3
   7   9   2 2197.64 54.8449   3
   7   9   2 2012.91 42.8569   1
   7   9   3 117.872 30.0419   3
   7   9   4 2489.15 64.4594   3
   7   9   5 19.8440 28.9274   3
   7   9   6 382.733 37.6986   3
   7   9   7 51.8921 32.2750   3
   7   9   8 19.0149 33.7002   3
  -7  10  14 40.6722 31.1729   1
  -7  10  13 13.2012 27.8406   1
  -7  10  12 33.4274 30.1440   1
  -7  10  11 1.97083 27.7546   1
  -7  10  10 37.0113 29.5930   1
  -7  10   9-13.7926 27.5220   1
  -7  10   8 20.2328 26.7049   1
  -7  10   7-16.4393 23.8175   1
  -7  10   6 8.74224 22.2418   1
  -7  10   5-9.36098 22.2174   1
  -7  10   4-0.86009 19.8695   1
  -7  10   3-1.77492 16.3222   1
   7  10  -3 16.6914 21.6403   3
  -7  10   2-1.11592 14.8373   1
   7  10  -2 4.88730 19.5538   3
  -7  10   1 25.7729 14.5677   1
   7  10  -1 3.82491 21.3670   3
   7  10   0-1.46392 16.5510   1
   7  10   0 5.52125 22.4413   3
   7  10   1 12.9439 22.5736   3
   7  10   1 35.9010 21.0200   1
   7  10   2-12.0861 24.0828   3
   7  10   2 5.21454 19.1965   1
   7  10   3 11.3794 28.4743   3
   7  10   4 17.5506 31.3927   3
   7  10   5-31.9077 28.5727   3
   7  10   6 15.0403 27.2905   3
   7  10   7 47.2801 36.5792   3
   7  10   8-116.263 30.3424   3
  -7  11  13 183.192 39.3723   1
  -7  11  12-6.10155 33.4197   1
  -7  11  11 320.809 38.7884   1
  -7  11  10 134.415 32.4707   1
  -7  11   9 1376.61 51.6289   1
  -7  11   8 193.664 29.2366   1
  -7  11   7-11.3026 25.2240   1
  -7  11   6 281.836 29.4231   1
  -7  11   5 211.196 27.1433   1
   7  11  -4 741.013 36.8926   3
  -7  11   4 688.040 31.1460   1
  -7  11   3-1.36716 17.1727   1
   7  11  -3-4.24813 21.9249   3
  -7  11   2 98.5413 17.8886   1
   7  11  -2 63.7368 23.6060   3
   7  11  -1 712.351 34.0484   3
  -7  11   1 682.465 25.4748   1
   7  11   0 163.842 22.0056   1
   7  11   0 175.709 27.1673   3
   7  11   1 1062.27 37.2035   1
   7  11   1 1068.13 41.8992   3
   7  11   2 154.288 23.0254   1
   7  11   2 168.301 29.7635   3
   7  11   3 25.0488 26.3486   3
   7  11   3 30.0037 19.9735   1
   7  11   4 521.697 39.4891   3
   7  11   5 52.7363 28.1768   3
   7  11   6 137.678 33.6351   3
   7  11   7 116.666 37.0115   3
   7  11   8 16.7254 32.4433   3
  -7  12  13 17.2156 32.8388   1
  -7  12  12-44.1297 32.3278   1
  -7  12  11 38.5056 32.0766   1
  -7  12   9 58.7895 32.6447   1
  -7  12   8-7.36107 27.9775   1
  -7  12   7 6.29408 25.8048   1
  -7  12   6-5.25537 23.2798   1
  -7  12   5-2.41595 23.9012   1
   7  12  -4-8.75072 23.6475   3
  -7  12   4-21.2297 20.2069   1
  -7  12   3 5.45357 19.2518   1
   7  12  -3-14.6386 22.5212   3
  -7  12   2 26.2640 18.4554   1
   7  12  -2 0.85614 22.0912   3
  -7  12   1 1.60186 16.5067   1
   7  12  -1 36.0732 25.0512   3
   7  12   0-7.11872 23.4885   3
   7  12   0 40.8128 23.0921   1
   7  12   1-3.48501 24.5254   3
   7  12   1 10.5504 22.2223   1
   7  12   2-1.72925 26.1096   3
   7  12   2 4.37312 20.9669   1
   7  12   3-25.2184 28.6390   3
   7  12   3-12.3183 21.7488   1
   7  12   4-18.9533 26.9983   3
   7  12   5-27.6021 30.9057   3
   7  12   6 14.0280 32.4863   3
   7  12   7-25.6965 27.1178   3
   7  12   8-57.6475 40.0218   3
  -7  13  13-42.2690 36.1894   1
  -7  13  12 66.5366 36.5903   1
  -7  13  11-1.13031 29.0490   1
  -7  13  10 35.0448 28.8741   1
  -7  13   9 151.281 31.3185   1
  -7  13   8 431.457 37.5797   1
  -7  13   7 493.933 38.0168   1
  -7  13   6 297.520 31.8754   1
  -7  13   5 281.468 29.0662   1
   7  13  -4 222.051 31.0400   3
  -7  13   4 223.756 26.7112   1
  -7  13   3 104.445 22.9991   1
   7  13  -3 125.848 25.4574   3
  -7  13   2 210.801 22.8638   1
   7  13  -2 288.734 28.4247   3
   7  13  -1 803.573 37.7991   3
   7  13   0 25.6397 23.5818   3
   7  13   0 38.9935 26.7946   1
   7  13   1 76.1036 27.2653   3
   7  13   1 98.6821 26.4577   1
   7  13   2 207.777 26.5324   1
   7  13   2 198.528 28.7755   3
   7  13   3 53.9411 26.9095   3
   7  13   3 73.9241 25.6460   1
   7  13   4 97.2971 31.7101   3
   7  13   5 14.5615 28.3406   3
   7  13   6 73.7057 30.4247   3
   7  13   7 24.5248 33.9680   3
  -7  14  12 61.2660 30.6894   1
  -7  14  11-32.9181 28.5381   1
  -7  14  10 28.1965 33.2917   1
  -7  14   9-13.8256 32.6313   1
  -7  14   8 18.1974 31.1519   1
  -7  14   7-9.24796 28.3701   1
  -7  14   6 2.87774 25.0467   1
  -7  14   5-33.7892 24.7076   1
  -7  14   4 13.8072 23.7347   1
   7  14  -4-4.28042 24.5761   3
  -7  14   3 18.6342 20.9137   1
   7  14  -3 21.4443 23.8702   3
  -7  14   2-12.2510 19.0284   1
   7  14  -2 7.18070 22.6485   3
   7  14  -1-18.9341 21.9390   1
   7  14  -1 14.1715 26.8026   3
   7  14   0-2.83779 24.6823   3
   7  14   0-4.16161 24.3167   1
   7  14   1 13.3305 26.3510   3
   7  14   1-25.0103 23.1818   1
   7  14   2 3.96034 24.6189   3
   7  14   2-12.4926 25.2602   1
   7  14   3-83.1207 24.9805   3
   7  14   3 15.5723 26.0822   1
   7  14   4 7.01810 30.8890   3
   7  14   5 26.5457 30.7476   3
   7  14   6 4.34563 30.3541   3
   7  14   7-75.7840 27.1137   3
  -7  15  12 53.9292 29.0627   1
  -7  15  11 30.0254 33.0415   1
  -7  15  10 9.72657 35.4704   1
  -7  15   9 89.4980 36.1713   1
  -7  15   8 2.85333 30.1356   1
  -7  15   7 253.723 32.6537   1
  -7  15   6 565.133 37.4351   1
   7  15  -5 773.936 43.5491   3
  -7  15   5 758.936 39.4491   1
   7  15  -4 1174.52 49.0292   3
  -7  15   4 1188.50 44.5228   1
  -7  15   3 1246.73 42.2099   1
   7  15  -3 1012.20 44.8851   3
   7  15  -2 2432.41 59.9880   3
  -7  15   2 2441.14 53.0889   1
   7  15  -1 905.407 41.9876   3
   7  15  -1 816.939 39.1226   1
   7  15   0 293.453 31.5384   3
   7  15   0 247.276 29.4481   1
   7  15   1 112.158 26.6565   3
   7  15   1 79.2957 24.9754   1
   7  15   2 77.3647 26.5925   3
   7  15   2 40.2075 24.5939   1
   7  15   3-9.43626 28.9238   3
   7  15   3 8.35973 24.1245   1
   7  15   4-75.9130 27.8308   3
   7  15   5 113.819 33.3826   3
   7  15   6 1.37199 26.9202   3
   7  15   7-15.5898 37.4491   3
  -7  16  11 101.387 35.2254   1
  -7  16  10-43.8367 35.0032   1
  -7  16   9-5.34420 32.9086   1
  -7  16   8-29.3066 31.6516   1
  -7  16   7-6.20660 28.1586   1
  -7  16   6-2.53129 28.0301   1
  -7  16   5-3.87925 25.4084   1
   7  16  -5-12.3755 30.0638   3
  -7  16   4 54.3582 27.8036   1
   7  16  -4-21.5139 25.8890   3
  -7  16   3 15.2724 24.7095   1
   7  16  -3-17.2792 26.5577   3
  -7  16   2 19.7888 24.3057   1
   7  16  -2 29.8797 25.7582   3
   7  16  -1-1.16760 24.2772   3
   7  16  -1 21.7826 27.7812   1
   7  16   0-11.3395 25.5303   3
   7  16   0 26.1590 26.8493   1
   7  16   1-6.74917 28.0761   3
   7  16   1-18.0808 25.9070   1
   7  16   2 14.0332 24.8376   3
   7  16   2-42.4582 26.6053   1
   7  16   3-74.4489 30.0404   3
   7  16   3-10.3208 26.9972   1
   7  16   4-16.0462 26.7610   3
   7  16   5 33.0255 27.2738   3
   7  16   6-15.8544 31.8637   3
  -7  17  11 120.135 37.5146   1
  -7  17  10-30.7250 34.8643   1
  -7  17   9 71.6394 37.6328   1
  -7  17   8 29.0420 33.5665   1
  -7  17   7 221.882 36.1299   1
  -7  17   6 365.674 37.2308   1
   7  17  -5 287.591 36.2612   3
  -7  17   5 303.480 32.8457   1
   7  17  -4 497.692 39.1605   3
  -7  17   4 537.790 35.7884   1
  -7  17   3 103.549 25.8794   1
   7  17  -3 64.0642 26.2405   3
   7  17  -2 643.681 37.3949   1
   7  17  -2 751.153 39.6817   3
  -7  17   2 837.433 38.2469   1
   7  17  -1-12.5770 24.5557   3
   7  17  -1 31.0203 27.6428   1
   7  17   0 280.709 30.2718   3
   7  17   0 392.019 37.1899   1
   7  17   1 78.1634 27.6107   3
   7  17   1 35.4711 28.4299   1
   7  17   2 251.047 34.8741   3
   7  17   2 124.876 28.5693   1
   7  17   3-25.4809 27.0043   3
   7  17   3 2.40963 24.6327   1
   7  17   4 6.16890 27.2244   3
   7  17   5 35.4603 28.7127   3
   7  17   6 71.4043 32.4714   3
  -7  18  10-39.4270 30.1176   1
  -7  18   9 87.4913 34.3400   1
  -7  18   8-41.1404 31.6272   1
  -7  18   7 13.1914 33.1229   1
   7  18  -6 15.4380 27.0221   3
  -7  18   6-27.3909 31.9095   1
  -7  18   5 7.03870 29.7339   1
   7  18  -5-3.07482 26.4794   3
  -7  18   4 37.8644 28.2087   1
   7  18  -4 20.1112 25.3688   3
  -7  18   3-10.9014 26.6229   1
   7  18  -3 14.3630 27.7657   3
   7  18  -2 2.92329 24.7013   3
   7  18  -2 12.2012 24.0937   1
   7  18  -1-1.28733 25.4711   3
   7  18  -1-26.0420 30.9810   1
   7  18   0-20.2100 28.4677   3
   7  18   0 31.1333 31.0503   1
   7  18   1-8.83423 26.1138   3
   7  18   1 46.8998 33.3094   1
   7  18   2 5.36741 28.1079   3
   7  18   2-100.922 26.8783   1
   7  18   3-6.17000 25.9985   3
   7  18   3-37.8550 30.4221   1
   7  18   4 29.7987 28.7811   3
   7  18   5 36.1106 28.4313   3
  -7  19   9 1.60588 33.6455   1
  -7  19   8-25.7800 30.1246   1
  -7  19   7 112.286 34.5139   1
  -7  19   6 23.8875 30.5322   1
   7  19  -6 107.667 30.5124   3
  -7  19   5 82.5139 26.0796   1
   7  19  -5 6.19472 28.0386   3
  -7  19   4 11.1863 28.1723   1
   7  19  -4 49.3444 28.2897   3
  -7  19   3 42.8534 28.1652   1
   7  19  -3 106.108 28.0345   3
   7  19  -2 100.828 29.6592   3
   7  19  -2 132.129 32.0195   1
   7  19  -1 183.042 31.1794   3
   7  19  -1 137.878 31.8822   1
   7  19   0 48.9975 32.2229   1
   7  19   0 10.4966 27.9829   3
   7  19   1-28.4536 29.5552   3
   7  19   1 95.5369 35.1634   1
   7  19   2 163.836 31.8885   3
   7  19   2 121.398 33.2867   1
   7  19   3 76.2053 33.5028   3
   7  19   3-8.13389 28.6209   1
   7  19   4 42.4429 29.1439   1
   7  19   4-40.7017 31.8618   3
   7  19   5 43.2300 22.7304   3
  -7  20   9 35.4675 36.8871   1
   7  20  -7-7.54467 30.0397   3
  -7  20   7 60.7159 32.1233   1
  -7  20   6-51.3592 30.2968   1
   7  20  -6 19.8258 27.6738   3
  -7  20   5 35.3633 28.2299   1
   7  20  -5-2.73596 27.4149   3
  -7  20   4 27.0165 28.1827   1
   7  20  -4-28.0570 25.7125   3
  -7  20   3-59.2875 29.0650   1
   7  20  -3-23.8267 30.3770   1
   7  20  -3-25.6727 25.5862   3
   7  20  -2 40.8465 26.6588   3
   7  20  -2 4.73447 30.1620   1
   7  20  -1 37.9781 25.6585   3
   7  20  -1 39.7643 31.3732   1
   7  20   0-96.6820 28.6690   1
   7  20   0 32.5557 27.6887   3
   7  20   1-75.3492 29.1897   3
   7  20   1 41.1714 33.5870   1
   7  20   2-32.7623 28.6443   3
   7  20   2 67.6283 34.4296   1
   7  20   3-59.4876 30.8126   3
   7  20   3-94.0758 32.3334   1
   7  20   4 11.2613 33.0735   1
   7  20   4-86.9651 32.9116   3
  -7  21   8-49.8093 37.3399   1
  -7  21   7 126.356 38.8282   1
   7  21  -7 77.5625 33.3338   3
  -7  21   6-32.1965 32.9846   1
   7  21  -6-25.3667 27.0238   3
  -7  21   5 53.1278 28.9888   1
   7  21  -5 87.1393 24.9639   3
  -7  21   4 46.3588 28.1713   1
   7  21  -4 22.4114 23.8538   3
  -7  21   3-41.6889 29.6825   1
   7  21  -3-6.11621 25.3139   3
   7  21  -2 80.8750 29.1168   3
   7  21  -2 57.6452 32.1152   1
   7  21  -1 45.0975 27.5286   3
   7  21  -1 75.0685 34.3171   1
   7  21   0 388.598 36.1462   3
   7  21   0 275.588 37.9563   1
   7  21   1 183.394 40.9341   1
   7  21   1 116.134 30.0446   3
   7  21   2 143.961 34.0737   3
   7  21   2 186.209 35.5923   1
   7  21   3 89.9106 31.5734   3
   7  21   3-30.1403 31.0745   1
   7  21   4-34.7695 33.3055   1
   7  22  -8-88.0131 28.1691   3
  -7  22   7-24.3463 34.6202   1
   7  22  -7 4.65850 33.2902   3
  -7  22   6 38.1113 33.7407   1
   7  22  -6-15.6029 28.2308   3
  -7  22   5 79.4496 28.0825   1
   7  22  -5-12.3125 27.2647   3
  -7  22   4 188.389 30.8082   1
   7  22  -4 118.694 27.3496   3
   7  22  -3 16.1404 22.3563   3
   7  22  -3 30.1231 32.8787   1
   7  22  -2-91.1817 24.8733   3
   7  22  -2-38.9298 37.5278   1
   7  22  -1-25.0479 22.4399   3
   7  22  -1-15.7130 33.0066   1
   7  22   0 56.8638 26.3582   3
   7  22   0 11.7319 34.9296   1
   7  22   1 5.58500 24.2433   3
   7  22   1-44.7451 33.8018   1
   7  22   2 21.3164 24.6138   3
   7  22   2 57.0515 33.3635   1
   7  22   3 30.8503 30.8251   3
   7  23  -7-98.2190 29.0269   3
  -7  23   6-21.7444 34.5489   1
   7  23  -6 83.7496 33.3714   3
  -7  23   5 120.570 29.6208   1
   7  23  -5 18.7543 30.1306   3
  -7  23   4 146.656 35.6847   1
   7  23  -4 49.0249 24.4189   3
   7  23  -4 115.669 56.9352   1
   7  23  -3 49.8569 31.9394   3
   7  23  -3-25.5860 37.7531   1
   7  23  -2 29.4475 30.0127   3
   7  23  -2 81.7019 33.0580   1
   7  23  -1-32.8936 25.6525   3
   7  23  -1-48.7167 37.1215   1
   7  23   0-17.7653 24.0694   3
   7  23   0 144.966 40.2438   1
   7  23   1 46.8213 26.2752   3
   7  23   2-40.1191 27.6217   3
  -7  24   5 85.8491 31.1177   1
  -7  24   4 136.183 34.9568   1
  -8   0  15 191.885 48.3621   1
  -8   0  14 79.7670 40.5241   1
  -8   0  13-24.7024 32.3364   1
  -8   0  12 51.8652 35.4914   1
  -8   0  11 13.4597 34.0146   1
  -8   0  10 480.861 40.2793   1
   8   0  -9-27.7289 22.4734   2
  -8   0   9 24.3608 29.9334   1
  -8   0   8 348.637 31.5916   1
   8   0  -8 372.117 29.1124   2
   8   0  -7 1.55315 22.4572   2
  -8   0   7 30.1492 23.8999   1
  -8   0   6 7528.84 73.7440   0
  -8   0   6 7422.91 80.0278   1
   8   0  -6 7613.79 80.5396   2
   8   0  -5-5.66696 14.2845   0
   8   0  -5-3.69762 20.2403   2
  -8   0   5 4.92032 19.8104   1
   8   0  -4 6384.36 62.3758   4
   8   0  -4 6374.52 71.4150   2
  -8   0   4 6213.00 64.5512   1
   8   0  -4 6223.36 59.9146   0
   8   0  -3 19.1057 21.3809   2
   8   0  -3-11.0346 12.8325   3
   8   0  -3 7.10710 17.9921   4
  -8   0   3 9.71074 15.7771   1
   8   0  -2 961.062 31.6525   4
   8   0  -2 930.975 23.9371   3
   8   0  -1-12.7521 22.5181   4
   8   0  -1 9.66371 13.1347   3
   8   0   0 1149.80 30.4952   3
   8   0   0 1235.43 37.8970   4
   8   0   1-11.7334 24.1011   4
   8   0   1-14.1773 15.8330   3
   8   0   2 1061.46 34.8855   3
   8   0   2 1057.76 39.8701   4
   8   0   3 39.7068 28.2000   4
   8   0   3-52.4975 18.0070   3
   8   0   4 24.6167 27.5695   4
   8   0   4 14.3784 22.1995   3
   8   0   5 3.49155 30.9722   4
   8   0   5 10.2735 25.6326   3
   8   0   6 248.433 34.0484   4
   8   0   6 224.462 29.0620   3
   8   0   7-38.2165 33.7266   4
   8   0   7 0.20389 26.4425   3
   8   0   8-19.4552 30.9231   3
   8   0   9-96.5485 30.0136   3
  -8   1  15-29.0751 40.1846   1
  -8  -1  15-47.0250 32.8155   1
  -8  -1  14 25.8097 41.3559   1
  -8   1  14 1.32756 37.1869   1
  -8  -1  13 65.2860 35.0574   1
  -8   1  13 101.154 38.3700   1
  -8  -1  12 10.6558 35.7029   1
  -8   1  12 23.7000 33.6921   1
  -8  -1  11-22.2410 33.6145   1
  -8   1  11-8.20608 33.5183   1
  -8  -1  10-19.6077 29.1231   1
  -8   1  10-18.0254 31.5422   1
   8  -1 -10-76.8727 22.2965   2
   8  -1  -9 15.8565 23.0227   2
  -8   1   9 11.7172 30.5394   1
  -8  -1   9-32.1107 31.2902   1
   8  -1  -8 8.48470 22.6013   2
   8   1  -8-14.6812 21.3101   2
  -8   1   8-1.67697 25.6424   1
  -8  -1   8-5.20934 26.8034   1
  -8  -1   7-3.35728 25.8913   1
   8  -1  -7-2.19957 21.2859   2
  -8  -1   7 6.37412 20.6555   0
   8   1  -7 18.5929 20.8363   2
  -8   1   7-1.48456 23.3195   1
  -8  -1   6 13.3854 23.7113   1
   8   1  -6 3.03026 23.4888   2
   8  -1  -6 12.8878 23.0007   2
  -8   1   6-12.0143 23.4124   1
   8  -1  -6 18.8193 19.2056   0
  -8  -1   6 7.16072 16.2230   0
   8  -1  -5-0.40005 13.0119   0
   8  -1  -5-10.8694 21.3528   2
   8   1  -5 17.8135 16.3385   0
  -8  -1   5-8.32468 19.7351   1
  -8   1   5 7.85620 18.9698   1
   8   1  -5 8.20151 21.4626   2
   8  -1  -4-9.89428 16.3835   0
   8  -1  -4 2.52632 19.5393   4
   8   1  -4-19.3943 23.9066   2
   8   1  -4-11.3852 14.5040   0
  -8  -1   4-0.07721 18.5413   1
  -8   1   4 9.95840 19.1002   1
  -8   1   3 11.3964 15.0309   1
   8   1  -3-1.30356 18.3627   4
   8   1  -3 7.17448 19.3660   2
   8  -1  -3 5.92837 18.4609   4
   8   1  -3-14.5818 15.2851   3
   8  -1  -3 3.19067 11.0384   3
   8   1  -2-0.90923 17.3428   2
   8  -1  -2-7.67863 21.2404   4
   8   1  -2-16.0059 13.5475   3
   8   1  -2 5.31645 20.7241   4
   8  -1  -2-4.64233 11.1504   3
  -8   1   2 17.1522 11.8265   1
   8   1  -1 3.38650 16.0558   2
   8   1  -1 10.7449 20.2695   4
   8   1  -1-2.18378 13.6003   3
   8  -1  -1-17.2773 12.0708   3
   8  -1  -1-1.13387 21.0500   4
   8   1   0-11.6411 23.5207   4
   8   1   0-10.3672 15.8092   2
   8  -1   0 6.07114 22.9517   4
   8   1   0 15.9335 15.6137   3
   8  -1   0-12.4821 13.0980   3
   8   1   1 5.27754 22.5547   4
   8  -1   1 6.97478 24.3765   4
   8   1   1-14.9127 13.5862   2
   8   1   1 21.4987 16.7241   3
   8  -1   1 34.5735 16.6153   3
   8  -1   2-39.1568 27.6793   4
   8   1   2-0.28692 24.2944   4
   8   1   2 5.75831 19.0498   3
   8  -1   2 11.7337 16.8640   3
   8   1   3-6.77099 25.0005   4
   8  -1   3-4.40244 25.7910   4
   8   1   3 8.96292 19.8249   3
   8  -1   3 10.5191 18.2961   3
   8   1   4-20.7365 29.4120   4
   8  -1   4-22.2472 28.4914   4
   8   1   4 24.5444 23.6423   3
   8  -1   4 0.41610 21.2715   3
   8  -1   5-16.4061 29.0475   4
   8   1   5-22.8342 30.4696   4
   8   1   5-28.9785 26.2862   3
   8  -1   5-16.9922 24.0525   3
   8   1   6 11.3872 28.7045   4
   8  -1   6-35.3465 30.3950   4
   8   1   6-19.7284 27.6939   3
   8  -1   6 28.6976 28.7850   3
   8  -1   7 44.8070 33.0024   4
   8   1   7 51.8895 31.4882   3
   8  -1   7-35.6776 26.2935   3
   8  -1   8-1.12552 29.6195   3
   8  -1   9-114.627 35.1250   3
   8   1   9 65.3614 31.0059   3
  -8  -2  15 233.745 44.1767   1
  -8   2  15 15.9573 42.9241   1
  -8  -2  14-21.5548 33.3256   1
  -8   2  14 92.0932 42.0005   1
  -8  -2  13 34.1455 35.9637   1
  -8   2  13 37.9930 34.0181   1
  -8  -2  12 149.328 37.5167   1
  -8   2  12 74.2154 33.2265   1
  -8  -2  11 134.631 34.2159   1
  -8   2  11 31.4379 34.5900   1
  -8   2  10 363.950 35.8595   1
   8  -2 -10 384.387 28.0899   2
  -8  -2  10 501.716 40.5996   1
   8  -2  -9 391.141 28.4987   2
  -8   2   9 397.773 34.6811   1
  -8  -2   9 452.211 38.1454   1
   8  -2  -8 1937.47 46.7583   2
  -8  -2   8 1993.15 52.8354   1
  -8   2   8 1870.01 50.5839   1
   8  -2  -7 196.643 25.2217   2
  -8   2   7 190.212 27.2110   1
   8   2  -7 127.027 25.0379   2
  -8  -2   7 177.891 27.0971   1
  -8  -2   7 137.936 22.4560   0
  -8  -2   6 897.296 28.4439   0
   8  -2  -6 919.536 35.6427   2
  -8   2   6 969.081 35.1086   1
   8   2  -6 874.905 34.3737   2
  -8  -2   6 905.515 35.5049   1
   8  -2  -6 966.660 31.9709   0
   8  -2  -5 1908.57 34.3303   4
   8   2  -5 1831.90 42.5857   2
   8  -2  -5 1854.57 39.6582   0
  -8   2   5 1871.14 41.1380   1
  -8  -2   5 1858.03 41.2055   1
   8   2  -5 1983.88 35.6318   0
   8  -2  -4 4566.62 55.6678   0
  -8   2   4 4612.39 54.4936   1
   8   2  -4 4745.92 62.2033   2
   8   2  -4 4339.67 47.0042   0
   8  -2  -4 4432.90 51.5072   4
   8  -2  -3 83.9678 20.3289   4
   8   2  -3 98.8587 22.5711   2
   8  -2  -3 113.706 11.2300   3
   8   2  -3 88.3016 16.8032   3
  -8   2   3 78.1154 16.0886   1
   8   2  -3 96.0833 13.8437   0
   8   2  -2 1036.46 31.5628   2
   8   2  -2 1027.71 34.1733   4
   8  -2  -2 1054.10 32.5724   4
   8   2  -2 1011.84 28.8454   3
   8  -2  -2 1038.90 22.4780   3
  -8   2   2 937.630 22.2895   1
   8   2  -1 278.791 26.6733   4
   8   2  -1 254.344 20.6275   2
   8   2  -1 245.634 19.9286   3
   8  -2  -1 280.310 15.6411   3
   8  -2  -1 267.000 24.8844   4
   8  -2   0 1839.60 45.0109   4
   8   2   0 1750.41 36.2987   2
   8   2   0 1798.11 43.2328   4
   8   2   0 1738.44 37.9963   3
   8  -2   0 1778.79 33.2120   3
   8   2   1 787.611 30.6363   3
   8  -2   1 774.440 25.8927   3
   8   2   1 823.742 25.0293   2
   8   2   1 782.336 34.6196   4
   8   2   2 160.375 26.9737   4
   8   2   2 121.473 20.7933   3
   8  -2   2 131.363 18.2759   3
   8   2   3 191.596 29.8702   4
   8   2   3 171.064 23.2429   3
   8  -2   3 173.968 22.6472   3
   8   2   4 120.651 29.4649   4
   8   2   4 103.639 24.3673   3
   8  -2   4 175.279 24.1082   3
   8   2   5 58.7006 28.8669   4
   8   2   5-11.4376 24.7140   3
   8  -2   5 63.2121 24.9877   3
   8   2   6 276.262 35.6143   4
   8   2   6 362.985 38.0790   3
   8  -2   6 230.005 29.4936   3
   8  -2   7-21.9035 38.4119   4
   8   2   7 20.8693 29.5362   3
   8  -2   7 81.1228 31.0691   3
   8   2   8 0.11872 33.7845   3
   8  -2   8-25.2575 28.9573   3
   8  -2   9-24.2338 37.6326   3
   8   2   9-38.7093 26.7793   3
  -8  -3  15 26.6336 36.4692   1
  -8   3  15 111.018 45.7710   1
  -8  -3  14 99.4108 37.9389   1
  -8   3  14-11.7719 38.8989   1
  -8  -3  13 84.0331 39.8262   1
  -8   3  13-14.3149 37.0220   1
  -8  -3  12-17.2268 35.8112   1
  -8   3  12-44.6450 35.5733   1
  -8  -3  11-23.4136 30.1537   1
  -8   3  11-28.1242 32.9546   1
  -8  -3  10-8.71049 29.7607   1
   8  -3 -10-22.4234 22.3459   2
  -8   3   9 15.9609 28.5085   1
  -8  -3   9-1.78038 28.3039   1
   8  -3  -9 16.6045 22.0062   2
   8  -3  -8 8.86919 21.7997   2
  -8   3   8 6.38293 26.1662   1
  -8  -3   8-2.40782 27.4580   1
   8  -3  -7-11.8325 22.6459   2
  -8   3   7 14.7586 22.5539   1
  -8  -3   7 6.48487 25.4291   1
  -8  -3   7 9.37305 18.4657   0
  -8  -3   6 3.56076 15.0968   0
  -8   3   6 0.00000 19.5169   1
   8   3  -6 3.86180 23.0605   2
  -8  -3   6-3.96221 23.5772   1
   8  -3  -5 5.61676 14.8310   4
   8   3  -5-7.01980 20.6041   2
  -8   3   5 2.51556 18.2806   1
   8  -3  -5-18.5098 19.0835   0
  -8   3   4-1.94443 17.0623   1
   8   3  -4-0.04651 20.6851   2
   8   3  -4 3.95157 12.6928   0
   8  -3  -4 12.6480 18.0783   4
   8  -3  -4 7.84384 18.3530   0
   8   3  -3-3.91687 12.0249   0
   8  -3  -3 7.73488 19.5205   4
   8   3  -3 24.5600 20.1072   2
  -8   3   3 19.9908 14.3662   1
   8   3  -3 4.49059 16.5151   3
   8  -3  -3-14.4863 8.37211   3
   8  -3  -2 4.26948 21.5804   4
   8   3  -2 2.20314 17.3052   2
   8   3  -2 8.16542 16.8977   3
   8  -3  -2-6.45386 8.52392   3
  -8   3   2-1.14538 11.7212   1
  -8   3   1 7.14818 8.63893   1
   8   3  -1-3.28630 20.7720   4
   8   3  -1-6.68990 17.8830   2
   8   3  -1 8.32421 17.1622   3
   8  -3  -1-7.34565 8.90516   3
   8   3   0 4.66742 15.4846   2
   8   3   0-2.17572 21.9448   4
   8   3   0-8.22557 16.9410   3
   8  -3   0-1.45963 11.1344   3
   8   3   1-15.4649 23.1349   4
   8   3   1 17.8109 14.9318   2
   8   3   1-0.20874 17.2600   3
   8  -3   1-7.88220 12.4804   3
   8   3   2 3.49587 23.1351   4
   8   3   2-18.6913 20.1233   3
   8  -3   2-6.69640 15.0935   3
   8   3   3 5.07391 26.4630   4
   8   3   3 7.69231 20.9125   3
   8  -3   3 24.6377 18.1324   3
   8   3   4-3.30790 26.5772   4
   8   3   4 6.06669 22.8598   3
   8  -3   4 10.2835 20.9525   3
   8   3   5 47.3159 25.6222   3
   8   3   5-20.5791 29.3196   4
   8  -3   5-4.04147 21.9831   3
   8   3   6-24.6244 30.6540   4
   8   3   6-10.4022 28.5587   3
   8  -3   6 8.63896 25.0779   3
   8   3   7-14.3231 27.9902   3
   8  -3   7-5.13887 24.1526   3
   8  -3   8-25.7681 29.7751   3
   8   3   8 69.8796 31.4977   3
   8  -3   9 46.1262 32.8550   3
  -8   4  15-12.8911 43.8424   1
  -8   4  14 66.7074 35.1003   1
  -8   4  13 7.72315 33.2938   1
  -8  -4  13 32.3082 37.9044   1
  -8   4  12 5.25416 31.8002   1
  -8  -4  12 45.4128 36.4468   1
  -8   4  11 273.418 35.1481   1
  -8  -4  11 305.250 39.9900   1
  -8   4  10 174.480 31.0157   1
   8  -4 -10 164.143 25.8548   2
  -8  -4  10 255.934 36.6268   1
  -8   4   9 357.164 33.7613   1
   8  -4  -9 326.357 28.3556   2
  -8  -4   9 343.306 35.9740   1
  -8   4   8 737.860 36.5995   1
   8  -4  -8 698.949 32.5333   2
  -8  -4   8 710.563 38.2713   1
  -8  -4   7 65.0471 18.2305   0
  -8   4   7 63.1561 24.2058   1
  -8   4   6 321.553 25.6413   1
  -8  -4   6 349.811 20.5694   0
  -8   4   5 586.228 26.3598   1
   8  -4  -5 560.916 21.6031   4
   8  -4  -5 565.390 26.5529   0
  -8   4   4 1777.88 36.2447   1
   8   4  -4 1888.98 43.7751   2
   8  -4  -4 1892.27 36.0989   4
   8   4  -4 1758.65 29.3441   0
   8  -4  -4 1841.96 40.7395   0
  -8   4   3 308.817 18.2952   1
   8   4  -3 289.824 14.3894   0
   8   4  -3 286.226 21.7790   3
   8  -4  -3 302.301 11.6489   3
   8   4  -3 255.491 23.5063   2
   8  -4  -3 318.358 22.8177   4
  -8   4   2 26.0502 10.4257   1
   8   4  -2 11.9236 17.7291   2
   8   4  -2 41.1594 18.1266   3
   8  -4  -2 2.68968 7.44194   3
   8   4  -1 1765.68 39.6888   3
   8  -4  -1 1697.38 26.4735   3
   8   4  -1 1845.78 43.0699   4
   8   4  -1 1809.14 37.7273   2
   8   4   0 991.541 28.6618   2
   8   4   0 1036.13 37.4792   4
   8   4   0 1098.05 35.1269   3
   8  -4   0 1107.40 25.1627   3
   8   4   1 533.113 21.6275   2
   8   4   1 494.391 31.0355   4
   8   4   1 454.762 27.9926   3
   8  -4   1 511.862 21.2906   3
   8   4   2 46.0364 24.5808   4
   8   4   2 75.4901 23.1996   3
   8  -4   2 77.5858 16.7692   3
   8   4   3 502.256 32.5932   4
   8   4   3 535.372 32.8779   3
   8  -4   3 534.719 27.5400   3
   8   4   4 1382.57 46.5252   4
   8   4   4 1384.20 46.7058   3
   8  -4   4 1199.45 39.9471   3
   8   4   5 454.818 35.3807   4
   8   4   5 445.214 35.0255   3
   8  -4   5 399.833 32.0037   3
   8   4   6 41.4973 30.7610   4
   8   4   6-12.2816 25.9076   3
   8  -4   6 18.7405 25.5902   3
   8   4   7 487.136 42.4206   3
   8  -4   7 347.383 38.4653   3
   8   4   8 83.0762 34.8341   3
   8   4   9 12.3826 29.3251   3
  -8   5  15-81.7166 40.8631   1
  -8   5  14-23.9217 31.9916   1
  -8   5  13 32.2847 37.2841   1
  -8   5  12-22.1736 32.8157   1
  -8   5  11-7.30476 31.0522   1
   8  -5 -10-4.87325 22.8326   2
  -8   5  10 30.9835 30.2782   1
  -8   5   9-16.2332 27.2009   1
   8  -5  -9-7.53636 22.8235   2
  -8   5   8-0.60069 25.6416   1
  -8   5   7 9.32693 21.6552   1
  -8  -5   7-9.19235 16.3277   0
  -8   5   6-6.34628 20.6950   1
  -8  -5   6-6.31591 15.0735   0
  -8   5   5-12.8762 18.5936   1
   8  -5  -5 6.79688 14.7273   4
  -8  -5   5 8.20020 12.0563   0
   8  -5  -4-7.78302 17.0450   4
   8  -5  -4-9.66170 19.6042   0
  -8   5   4-0.43490 16.4680   1
   8   5  -3-4.75791 18.9206   3
   8   5  -3-5.74208 9.37784   0
  -8   5   3-7.32506 13.3405   1
  -8   5   2 6.85971 11.4860   1
   8   5  -2 17.8905 19.1839   3
   8   5  -2-1.41769 8.87310   0
   8   5  -1-3.09569 17.8172   3
   8   5   0 23.1440 18.5644   3
   8   5   1-0.95856 23.5455   4
   8   5   1 8.20139 20.9501   3
   8   5   2 18.5593 21.1385   3
   8   5   2-2.72884 24.8663   4
   8   5   3 37.1137 27.1096   4
   8   5   3 0.21546 23.7469   3
   8   5   4 28.3115 28.1178   4
   8   5   4-9.55495 24.9507   3
   8   5   5 17.4477 27.0664   4
   8   5   5-22.2760 26.3840   3
   8   5   6 13.2592 27.4341   3
   8   5   7 18.9321 32.8117   3
  -8   6  14 62.6973 37.3600   1
  -8   6  13 10.4759 34.4991   1
  -8   6  12 107.516 31.7577   1
  -8   6  11 360.168 39.6044   1
  -8   6  10 724.839 44.2696   1
  -8   6   9 793.788 41.4550   1
  -8   6   8 202.676 30.5089   1
  -8   6   7 422.519 31.4558   1
  -8  -6   7 443.709 23.1257   0
  -8  -6   6 190.383 17.7552   0
  -8   6   6 237.917 24.8047   1
  -8  -6   5 386.378 17.4078   0
   8  -6  -5 409.842 20.6950   4
  -8   6   5 421.731 25.4366   1
   8  -6  -4 574.412 24.4660   4
  -8   6   4 585.354 25.5478   1
   8   6  -3 425.249 26.8090   3
  -8   6   3 445.678 20.9708   1
   8   6  -2 649.796 29.6939   3
  -8   6   2 678.516 20.4078   1
   8   6  -1 943.626 34.0859   3
   8   6   0 383.487 27.4754   3
   8   6   1 436.445 28.7699   3
   8   6   2 1216.98 42.2152   4
   8   6   2 1153.73 40.9860   3
   8   6   3 657.820 36.3639   4
   8   6   3 671.358 37.7365   3
   8   6   4 693.214 38.3376   4
   8   6   4 674.023 40.2333   3
   8   6   5 48.7271 28.8630   4
   8   6   5 77.9012 27.3161   3
   8   6   6 688.204 44.8395   3
   8   6   7 207.778 38.4459   3
   8   6   8 308.803 45.5419   3
  -8   7  14 30.9975 29.8787   1
  -8   7  13 16.0814 32.5845   1
  -8   7  12 51.1089 31.8615   1
  -8   7  11 6.05039 33.8454   1
  -8   7  10 30.3715 30.2303   1
  -8   7   9 15.2987 29.5093   1
  -8   7   8-3.68813 26.5227   1
  -8  -7   7 37.4511 16.6633   0
  -8   7   7 3.77562 23.5323   1
  -8  -7   6 32.7554 14.6482   0
  -8   7   6-5.79633 19.6684   1
   8  -7  -5 18.6052 16.4976   4
  -8   7   5-27.0712 19.0573   1
  -8   7   4 0.54733 16.4185   1
   8   7  -3-12.2654 19.3895   3
  -8   7   3 23.2492 15.6344   1
   8   7  -2 17.6147 19.1582   3
  -8   7   2 6.91480 12.5799   1
   8   7  -1 4.04546 19.2497   3
   8   7   0 8.36507 20.6206   3
   8   7   1 2.94094 21.5919   3
   8   7   1 36.2297 15.9897   1
   8   7   2-17.4447 24.6349   3
   8   7   3-8.63729 25.1320   3
   8   7   4 41.2355 30.3614   4
   8   7   4 12.1648 26.9834   3
   8   7   5 18.5123 28.4774   4
   8   7   5 18.6912 30.0158   3
   8   7   6 56.8850 32.0190   3
   8   7   7-24.8739 27.7594   3
   8   7   8 47.4099 34.8315   3
  -8   8  14 452.976 41.6669   1
  -8   8  13 167.662 39.9473   1
  -8   8  12 161.931 35.7782   1
  -8   8  11 462.809 40.3064   1
  -8   8  10 215.375 37.3725   1
  -8   8   9 432.793 36.3722   1
  -8   8   8 366.715 33.4292   1
  -8   8   7 852.044 38.7833   1
  -8   8   6 1088.79 37.0184   1
  -8   8   5 455.613 26.7168   1
   8   8  -4 212.191 25.0897   3
  -8   8   4 187.510 20.0371   1
   8   8  -3 31.4146 20.0435   3
  -8   8   3 39.5014 15.5223   1
   8   8  -2 679.208 32.3839   3
  -8   8   2 694.121 23.3123   1
   8   8  -1 1200.42 39.6618   3
   8   8   0 951.878 37.7658   3
   8   8   0 815.607 26.8278   1
   8   8   1 907.314 37.4671   3
   8   8   1 932.770 30.9407   1
   8   8   2 443.996 32.4289   3
   8   8   3 163.358 31.1256   3
   8   8   4 553.617 38.7316   3
   8   8   5 118.608 32.2425   3
   8   8   6 264.227 36.3074   3
   8   8   7 11.1070 28.9087   3
   8   8   8 218.678 38.1843   3
  -8   9  14 125.088 35.0277   1
  -8   9  13 2.91814 33.2543   1
  -8   9  12-2.44044 31.7112   1
  -8   9  11 12.2840 30.9688   1
  -8   9  10-19.5215 32.4120   1
  -8   9   9 18.4938 28.9726   1
  -8   9   8-27.8703 27.2251   1
  -8   9   7-9.66788 23.8150   1
  -8   9   6 8.40600 22.4009   1
  -8   9   5-11.9858 19.2117   1
   8   9  -4-3.69262 22.3456   3
  -8   9   4 0.76878 17.4478   1
   8   9  -3 11.5217 21.9650   3
  -8   9   3 4.58482 16.0267   1
   8   9  -2 32.1459 22.1733   3
  -8   9   2-11.8267 14.3061   1
   8   9  -1-13.3974 22.4331   3
   8   9   0-1.89916 16.3925   1
   8   9   0-2.61151 22.5193   3
   8   9   1-28.5163 24.7940   3
   8   9   1 34.8536 18.8057   1
   8   9   2 3.63599 25.0212   3
   8   9   3 18.3132 29.1540   3
   8   9   4 58.3554 29.2856   3
   8   9   5 2.02264 31.5661   3
   8   9   6-22.3693 30.0934   3
   8   9   7 22.0698 29.6196   3
   8   9   8 20.0256 36.3781   3
  -8  10  14 86.3945 38.0394   1
  -8  10  13 6.98032 31.3028   1
  -8  10  12 270.143 37.2013   1
  -8  10  11 67.6397 32.5021   1
  -8  10  10 256.477 38.1096   1
  -8  10   9 444.986 38.0658   1
  -8  10   8 8.75695 27.5533   1
  -8  10   7 283.848 30.1514   1
  -8  10   6 257.723 27.3568   1
  -8  10   5 71.5047 20.9291   1
   8  10  -4 865.175 39.1354   3
  -8  10   4 803.580 31.7117   1
   8  10  -3 355.634 29.9562   3
  -8  10   3 252.651 21.4183   1
  -8  10   2 65.6044 15.8333   1
   8  10  -2 58.0275 24.1981   3
   8  10  -1 30.0205 23.4000   3
   8  10   0 80.1590 19.1418   1
   8  10   0 42.8516 23.3508   3
   8  10   1 1159.01 44.7789   3
   8  10   1 1185.29 38.0744   1
   8  10   2 756.767 42.0741   3
   8  10   3 1560.27 54.9223   3
   8  10   4 1153.55 50.9024   3
   8  10   5 293.420 39.7887   3
   8  10   6 122.777 33.4240   3
   8  10   7 167.853 35.0643   3
  -8  11  13 22.4173 29.6335   1
  -8  11  12-22.5067 33.5356   1
  -8  11  11-38.9627 34.1909   1
  -8  11  10-7.04256 32.0853   1
  -8  11   9-13.3376 29.1606   1
  -8  11   8 14.3026 26.9795   1
  -8  11   7-14.2505 27.1687   1
  -8  11   6-7.89717 24.3273   1
  -8  11   5 9.03222 20.4488   1
  -8  11   4-10.8255 19.6009   1
   8  11  -4 3.90193 25.7528   3
  -8  11   3 23.2869 18.2749   1
   8  11  -3 20.4070 24.7166   3
  -8  11   2-13.3915 15.9025   1
   8  11  -2 15.7811 23.9878   3
   8  11  -1-3.47041 24.7212   3
   8  11   0-1.15845 25.0318   3
   8  11   0 13.0276 21.2240   1
   8  11   1-39.2272 26.7289   3
   8  11   1 7.25533 20.3847   1
   8  11   2-3.21229 25.9656   3
   8  11   3 14.0608 26.9201   3
   8  11   4-13.2793 29.5539   3
   8  11   5-27.8084 29.7948   3
   8  11   6 32.2780 34.3979   3
   8  11   7 44.4369 34.1127   3
  -8  12  13 162.247 36.9077   1
  -8  12  12-11.7245 33.0917   1
  -8  12  11 62.4451 32.8258   1
  -8  12  10-10.9886 27.5565   1
  -8  12   9 227.507 33.8738   1
  -8  12   8 136.963 31.6005   1
  -8  12   7 461.787 35.6626   1
  -8  12   6 343.725 31.6985   1
  -8  12   5 145.162 21.2482   1
  -8  12   4 24.6713 20.6929   1
   8  12  -4 28.5356 27.8351   3
  -8  12   3 37.3739 20.4418   1
   8  12  -3 62.8734 24.4091   3
   8  12  -2 928.629 40.2463   3
   8  12  -1 479.873 33.4006   3
   8  12   0 903.027 41.9709   3
   8  12   0 879.822 36.5670   1
   8  12   1-9.45753 27.4606   3
   8  12   1 38.5698 23.5615   1
   8  12   2 164.430 31.0440   3
   8  12   2 187.497 25.1971   1
   8  12   3 82.5868 31.6115   3
   8  12   4 67.3399 27.7021   3
   8  12   5 39.2778 29.6586   3
   8  12   6 60.1640 30.3465   3
   8  12   7 130.436 40.0197   3
  -8  13  13-0.13767 35.3997   1
  -8  13  12-45.2074 32.1870   1
  -8  13  11 63.7240 33.2745   1
  -8  13  10-19.0393 32.2252   1
  -8  13   9 20.0423 32.3464   1
  -8  13   8-14.0996 28.2096   1
  -8  13   7 22.2331 27.4526   1
  -8  13   6-19.4764 23.1371   1
   8  13  -5-1.56896 25.3866   3
  -8  13   5-10.0986 23.6578   1
  -8  13   4 8.35637 22.4466   1
   8  13  -4 11.5202 25.4202   3
   8  13  -3 5.41063 23.2827   3
  -8  13   3-10.1905 20.1098   1
   8  13  -2 1.63155 23.6664   3
   8  13  -1-5.16655 27.0744   3
   8  13   0-20.6502 25.2032   3
   8  13   0-8.56740 23.6607   1
   8  13   1-11.4226 25.7844   3
   8  13   1-12.0537 23.6067   1
   8  13   2 11.9908 28.1525   3
   8  13   2-4.84452 21.2509   1
   8  13   3-8.91775 27.5861   3
   8  13   4-29.7518 32.0692   3
   8  13   5-15.0074 34.6085   3
   8  13   6 68.2840 35.6144   3
  -8  14  12 55.7560 30.6219   1
  -8  14  11 19.1250 30.9274   1
  -8  14  10 10.9164 29.5629   1
  -8  14   9 159.357 34.2296   1
  -8  14   8 223.445 36.0190   1
  -8  14   7 252.638 34.0466   1
  -8  14   6-12.8251 26.2491   1
   8  14  -5 41.8095 28.3329   3
  -8  14   5 56.9906 25.1106   1
   8  14  -4 81.5924 27.4671   3
  -8  14   4 127.767 24.7584   1
   8  14  -3 563.831 37.1253   3
  -8  14   3 600.661 32.5632   1
   8  14  -2 24.4646 26.6247   3
   8  14  -1 303.888 31.2367   3
   8  14  -1 259.051 27.6949   1
   8  14   0 134.169 26.5984   3
   8  14   0 60.3559 26.4527   1
   8  14   1 332.119 35.6970   3
   8  14   1 336.973 31.4666   1
   8  14   2 213.442 32.7197   3
   8  14   2 196.120 28.8685   1
   8  14   3 218.284 33.2486   3
   8  14   4 28.3437 29.4731   3
   8  14   5 50.1895 30.0533   3
   8  14   6 181.275 32.8432   3
  -8  15  12 65.8282 31.9070   1
  -8  15  11-36.3358 29.1983   1
  -8  15  10 50.4572 30.6346   1
  -8  15   9-33.4389 30.0143   1
  -8  15   8-0.38776 30.3229   1
  -8  15   7 7.67253 29.7898   1
  -8  15   6-22.0752 29.0153   1
  -8  15   5 11.9473 27.7571   1
   8  15  -5 23.7296 30.9205   3
  -8  15   4-13.2604 23.1034   1
   8  15  -4 12.2343 28.9862   3
  -8  15   3 7.29221 23.7113   1
   8  15  -3 16.6339 28.4806   3
   8  15  -2-8.62982 26.4570   3
   8  15  -1-1.71127 27.7649   3
   8  15  -1 34.7192 26.3730   1
   8  15   0-28.5125 27.2694   3
   8  15   0-3.00450 25.7417   1
   8  15   1-27.1737 25.6560   3
   8  15   1-20.5661 26.1524   1
   8  15   2-0.39029 28.1197   3
   8  15   2 14.6654 22.3960   1
   8  15   3 3.57218 29.7585   3
   8  15   4-79.5669 25.8575   3
   8  15   5 0.86380 28.6624   3
   8  15   6 68.6011 34.1397   3
  -8  16  11 21.1605 30.8166   1
  -8  16  10 54.5667 29.8631   1
  -8  16   9 7.11093 27.7024   1
  -8  16   8 65.2987 30.5987   1
  -8  16   7 241.795 34.8979   1
   8  16  -6 114.314 33.0228   3
  -8  16   6 126.172 32.7057   1
   8  16  -5 663.904 43.4135   3
  -8  16   5 661.388 40.6500   1
  -8  16   4-3.23996 24.4619   1
   8  16  -4 34.4449 28.9956   3
   8  16  -3 1483.52 53.2849   3
  -8  16   3 1385.12 46.1063   1
   8  16  -2 128.273 29.8165   3
   8  16  -1 36.5786 26.5071   3
   8  16  -1 66.9680 28.3202   1
   8  16   0 290.918 33.8957   1
   8  16   0 269.534 32.9218   3
   8  16   1-3.84193 26.1915   3
   8  16   1-3.80312 26.0135   1
   8  16   2 19.9628 28.6699   3
   8  16   2-30.4819 28.0631   1
   8  16   3 37.4048 29.8990   3
   8  16   4-10.2207 29.3714   3
   8  16   5 37.9402 32.5201   3
  -8  17  11 50.6649 29.0885   1
  -8  17  10 2.32587 30.8377   1
  -8  17   9 0.11452 31.7031   1
  -8  17   8 7.78232 31.9457   1
  -8  17   7-33.6918 32.0625   1
   8  17  -6-32.1339 26.1449   3
  -8  17   6 39.3618 30.1873   1
  -8  17   5-86.1966 25.2472   1
   8  17  -5-20.6603 26.8582   3
  -8  17   4 1.98834 24.6816   1
   8  17  -4 4.64336 23.9079   3
  -8  17   3 45.5718 24.9202   1
   8  17  -3 41.1280 29.2678   3
   8  17  -2 58.5162 27.4539   3
   8  17  -2-19.4600 25.2641   1
   8  17  -1 7.26610 24.8797   3
   8  17  -1-21.5984 28.9743   1
   8  17   0-12.1265 26.7678   3
   8  17   0 19.3828 25.6394   1
   8  17   1-24.7157 27.5481   3
   8  17   1 31.5524 28.1857   1
   8  17   2 0.42698 28.6914   3
   8  17   2-30.8717 23.7905   1
   8  17   3-10.4727 30.4090   3
   8  17   4-106.093 27.7689   3
   8  17   5 28.8288 37.3737   3
  -8  18  10 27.4194 36.4745   1
  -8  18   9 52.2667 37.8013   1
  -8  18   8-10.6865 34.8813   1
  -8  18   7 231.099 36.2155   1
   8  18  -6 300.160 37.4944   3
  -8  18   6 257.945 30.9571   1
  -8  18   5 0.82602 27.8502   1
   8  18  -5-4.48631 31.0473   3
   8  18  -4 332.498 37.1893   3
  -8  18   4 381.362 34.3847   1
   8  18  -3 11.9529 26.9245   3
   8  18  -2 203.357 32.2162   3
   8  18  -2 185.492 33.9379   1
   8  18  -1 403.810 38.2553   3
   8  18  -1 270.799 33.1837   1
   8  18   0 231.391 34.6537   3
   8  18   0 172.880 29.9458   1
   8  18   1 60.1196 30.0134   3
   8  18   1 110.813 32.7923   1
   8  18   2-5.34462 25.3298   3
   8  18   2-14.6059 30.9282   1
   8  18   3 16.7010 27.9882   3
   8  18   4-23.1737 27.3880   3
  -8  19   9 27.3645 31.1209   1
  -8  19   8-13.9103 27.3840   1
   8  19  -7-28.7949 31.0752   3
  -8  19   7 14.3142 31.5828   1
  -8  19   6 25.7809 32.1420   1
   8  19  -6 6.99400 32.8045   3
  -8  19   5-27.5313 28.6411   1
   8  19  -5 10.1562 25.1035   3
  -8  19   4 46.6992 26.7611   1
   8  19  -4-13.4361 24.9436   3
   8  19  -3-15.1215 23.4835   3
   8  19  -2-1.61461 25.9197   3
   8  19  -2 44.4197 30.0500   1
   8  19  -1 54.4552 31.5001   3
   8  19  -1-44.0476 32.8192   1
   8  19   0 5.54796 27.4295   3
   8  19   0-14.6666 28.0032   1
   8  19   1-22.5746 27.1824   3
   8  19   1 30.6675 27.8189   1
   8  19   2-20.1997 31.1119   3
   8  19   2 12.7154 30.0722   1
   8  19   3-10.9649 32.4518   3
   8  19   4-85.1470 26.6726   3
  -8  20   9 98.4172 37.8306   1
  -8  20   8-36.0294 36.8151   1
   8  20  -7 24.7251 30.9908   3
  -8  20   7 39.7655 33.7937   1
  -8  20   6 64.0299 30.2183   1
   8  20  -6 35.3655 29.0986   3
  -8  20   5 9.08195 29.0751   1
   8  20  -5 114.996 31.6255   3
   8  20  -4 28.8601 28.5621   3
  -8  20   4 55.3153 23.9501   1
   8  20  -3-32.0866 27.3098   3
   8  20  -3-43.4683 31.6591   1
   8  20  -2 168.450 33.0920   3
   8  20  -2 243.918 37.7430   1
   8  20  -1 335.589 38.8342   3
   8  20  -1 436.760 40.6991   1
   8  20   0 170.908 35.6754   3
   8  20   0 47.0977 34.6188   1
   8  20   1 101.189 32.3690   3
   8  20   1 88.2087 29.1716   1
   8  20   2 70.1902 31.3225   3
   8  20   2 73.3821 30.0457   1
   8  20   3 134.916 37.6467   3
  -8  21   8-78.4883 29.7147   1
   8  21  -7 24.2960 25.5915   3
  -8  21   7-11.8837 34.5241   1
  -8  21   6-17.4674 27.9469   1
   8  21  -6-4.97339 23.0054   3
  -8  21   5-53.8828 25.7679   1
   8  21  -5-11.6948 27.7446   3
  -8  21   4 19.9686 27.4652   1
   8  21  -4 27.5345 28.6236   3
   8  21  -3 25.2078 29.0793   3
   8  21  -3 49.4696 31.6125   1
   8  21  -2-27.1775 30.1569   3
   8  21  -2-100.989 27.1781   1
   8  21  -1-22.1447 30.6784   3
   8  21  -1 89.0088 34.8756   1
   8  21   0 54.1121 32.1423   3
   8  21   0-66.8693 38.8429   1
   8  21   1 5.24296 31.3338   3
   8  21   1-58.1858 28.9788   1
   8  21   2 139.978 37.0186   3
   8  21   2 86.1970 37.5193   1
   8  21   3-3.99789 34.2349   1
   8  22  -7-33.6011 26.1714   3
  -8  22   7 60.5885 34.1296   1
  -8  22   6-84.9496 33.4139   1
   8  22  -6 104.703 34.8770   3
  -8  22   5-48.2869 29.5108   1
   8  22  -5-74.6132 25.3097   3
   8  22  -4 27.0469 26.2728   3
   8  22  -4-34.1046 33.6779   1
   8  22  -3 18.9758 25.7024   3
   8  22  -3 61.9015 31.1981   1
   8  22  -2 26.9000 27.7333   3
   8  22  -2-38.2016 38.6527   1
   8  22  -1 75.6505 29.9805   3
   8  22  -1 147.351 40.8227   1
   8  22   0 36.0447 29.1117   3
   8  22   0 192.676 37.7998   1
   8  22   1 165.095 31.8434   3
   8  22   1-55.7019 26.3911   1
  -8  23   6-58.6056 29.0726   1
   8  23  -6-0.63261 28.3700   3
  -8  23   5-15.1892 31.2987   1
   8  23  -5 95.8811 30.7386   3
   8  23  -4-42.1595 24.2527   3
   8  23  -3-3.96769 24.5937   3
   8  23  -2 128.601 26.3276   3
   8  23  -1-2.83533 27.8093   3
   8  23   0-78.6267 29.2895   3
   8  24  -4 112.074 26.7710   3
   8  24  -2 50.9010 23.8547   3
  -9   0  15 56.2193 41.9225   1
  -9   0  14 71.1800 40.6322   1
  -9   0  13 13.6924 37.2267   1
  -9   0  12-30.6524 35.8285   1
  -9   0  11-2.20416 35.0866   1
   9   0 -10 1.74433 24.0769   2
  -9   0  10 17.0120 30.5683   1
   9   0  -9-9.08406 24.8384   2
  -9   0   9-4.92929 31.8682   1
   9   0  -8 3.94635 23.7615   2
  -9   0   8 2.60862 27.7731   1
   9   0  -7 6.10465 22.5984   2
  -9   0   7 11.7863 25.3750   1
  -9   0   6-11.1471 21.4513   1
   9   0  -6-3.91634 15.0047   0
   9   0  -6-16.9939 23.3037   2
  -9   0   5 11.3788 20.4992   1
   9   0  -5 8.64312 23.2672   2
   9   0  -5 10.1019 16.2281   0
   9   0  -4-10.6248 15.8321   0
   9   0  -4 0.41036 19.9790   4
   9   0  -4-5.91201 21.6585   2
   9   0  -4-11.0754 14.0290   3
  -9   0   4 4.65183 17.4345   1
   9   0  -3 3.97260 21.7253   4
   9   0  -3-15.9290 12.6532   3
   9   0  -3 8.20706 20.2414   2
   9   0  -2 20.3354 22.4905   2
   9   0  -2 4.84120 23.2780   4
   9   0  -2-4.70868 12.9799   3
   9   0  -1-12.5111 24.7926   4
   9   0  -1-10.1934 13.8469   3
   9   0   0 14.2774 25.4783   4
   9   0   0-8.80662 14.9472   3
   9   0   1 3.26251 25.6375   4
   9   0   1-8.59997 16.7995   3
   9   0   2-18.8091 28.4514   4
   9   0   2-8.84777 17.7197   3
   9   0   3-8.76540 30.8430   4
   9   0   3-23.1762 20.0758   3
   9   0   4-8.24552 32.1231   4
   9   0   4-1.90220 22.3488   3
   9   0   5-40.4222 33.7189   4
   9   0   5 35.5222 26.1867   3
   9   0   6-51.9138 35.5129   4
   9   0   6-46.6767 24.3199   3
   9   0   7-49.2285 39.4056   4
   9   0   7 0.98148 26.2895   3
   9   0   8-33.9937 32.1063   3
  -9   1  15 132.158 51.3195   1
  -9  -1  15 47.7557 39.6852   1
  -9  -1  14 24.8503 40.3956   1
  -9   1  14-45.9991 37.9287   1
  -9  -1  13 104.989 41.9433   1
  -9   1  13 59.3513 35.1970   1
  -9  -1  12 59.0575 37.0236   1
  -9   1  12 106.702 38.3337   1
  -9  -1  11 75.9505 37.0723   1
  -9   1  11 106.838 36.2713   1
  -9  -1  10 102.234 33.6691   1
   9  -1 -10 62.4107 26.5728   2
  -9   1  10 103.064 33.6335   1
  -9   1   9 1239.93 48.6921   1
  -9  -1   9 1282.94 49.6484   1
   9   1  -9 1364.34 45.0251   2
   9  -1  -9 1198.58 42.2113   2
   9  -1  -8 829.132 35.4491   2
   9   1  -8 820.715 37.3167   2
  -9   1   8 749.592 38.6900   1
  -9  -1   8 857.288 40.8112   1
   9   1  -7 560.487 32.5896   2
   9  -1  -7 572.114 32.3147   2
  -9   1   7 589.820 33.9645   1
  -9  -1   7 688.956 35.1183   1
   9   1  -6 1099.22 37.7350   2
  -9   1   6 1172.40 38.6428   1
  -9  -1   6 1155.99 37.4664   1
   9  -1  -6 1240.52 35.0234   0
   9  -1  -6 1136.07 39.8814   2
  -9   1   5 1039.57 33.3676   1
   9   1  -5 983.932 36.8079   2
   9  -1  -5 1039.74 31.1148   0
   9  -1  -5 986.321 36.5157   2
   9   1  -5 1021.24 29.1691   0
  -9  -1   5 932.606 32.6128   1
   9  -1  -4 411.012 22.9274   0
   9   1  -4 401.162 20.5170   0
   9  -1  -4 380.779 23.9626   4
   9   1  -4 356.518 27.2796   2
   9  -1  -4 379.887 19.1219   3
   9   1  -4 348.109 21.4960   3
  -9   1   4 362.531 22.3100   1
   9   1  -3 980.326 33.8462   4
   9   1  -3 1004.32 34.9003   2
   9  -1  -3 1004.86 32.8800   4
   9   1  -3 894.028 27.2429   3
   9  -1  -3 926.664 24.2640   3
  -9   1   3 967.900 27.0327   1
   9   1  -2 1319.07 36.5787   2
   9  -1  -2 1235.24 38.5840   4
   9   1  -2 1178.51 30.7070   3
   9  -1  -2 1276.21 28.2114   3
   9   1  -2 1281.21 38.4959   4
   9   1  -1 542.137 26.2011   2
   9   1  -1 551.317 31.9499   4
   9  -1  -1 498.432 31.3407   4
   9   1  -1 528.459 24.6726   3
   9  -1  -1 472.653 20.6387   3
   9   1   0 98.9358 27.1781   4
   9  -1   0 150.230 27.0278   4
   9  -1   0 150.522 17.3116   3
   9   1   0 120.968 18.5728   2
   9   1   0 114.569 18.3103   3
   9   1   1 36.4779 26.4381   4
   9  -1   1 37.4390 26.3020   4
   9   1   1 54.6314 16.1746   2
   9   1   1 51.5462 18.1691   3
   9  -1   1 64.3544 16.9363   3
   9   1   2 224.670 29.6831   4
   9  -1   2 212.540 31.4866   4
   9   1   2 206.055 23.0495   3
   9  -1   2 202.678 22.0562   3
   9   1   3 303.912 31.9585   4
   9  -1   3 372.637 38.3350   4
   9   1   3 345.473 29.2371   3
   9  -1   3 314.569 27.2903   3
   9  -1   4 115.506 36.5815   4
   9   1   4 124.444 34.3259   4
   9   1   4 134.690 26.7101   3
   9  -1   4 77.3951 23.9287   3
   9   1   5 43.6900 32.3442   4
   9  -1   5 68.8768 34.6152   4
   9   1   5-18.0526 27.4495   3
   9  -1   5-3.33333 24.1664   3
   9   1   6 81.4265 36.1963   4
   9  -1   6 35.1517 39.5999   4
   9  -1   6 97.4106 28.3046   3
   9  -1   7-66.5594 42.3218   4
   9  -1   7-84.1642 25.5966   3
   9  -1   8 138.742 33.5020   3
   9  -1   9 52.5291 35.1208   3
  -9  -2  15 108.006 41.5339   1
  -9   2  15-29.0466 41.1892   1
  -9  -2  14-12.8259 39.9508   1
  -9   2  14 105.111 41.2840   1
  -9  -2  13-21.5065 35.7994   1
  -9   2  13 82.6988 41.2163   1
  -9  -2  12-27.1088 34.7713   1
  -9   2  12-22.6874 30.8583   1
  -9  -2  11 8.21004 34.6847   1
   9  -2 -11-105.262 22.6518   2
  -9   2  11-14.7960 33.9733   1
   9  -2 -10 5.75708 24.3149   2
  -9   2  10-12.2456 33.6742   1
  -9  -2  10 30.3074 34.9304   1
  -9  -2   9-0.22646 30.6612   1
   9  -2  -9 5.52545 25.8748   2
  -9   2   9-8.38735 30.5618   1
  -9  -2   8-5.63757 27.4038   1
   9   2  -8 1.88177 25.6960   2
  -9   2   8-11.0460 26.7678   1
   9  -2  -8-14.9064 22.2119   2
  -9  -2   7-7.55922 16.8098   0
   9  -2  -7-6.70235 23.0074   2
   9   2  -7-14.3452 24.2602   2
  -9  -2   7-17.3609 25.1128   1
  -9   2   7-22.2098 24.2663   1
   9   2  -6 13.3829 25.2870   2
  -9   2   6-21.4759 21.3979   1
   9  -2  -6-8.56296 23.9326   2
  -9  -2   6 4.57662 23.7976   1
   9   2  -5 18.4069 15.1080   0
   9  -2  -5-11.3667 18.0405   4
   9   2  -5-1.69550 22.2009   2
   9  -2  -5-1.10257 14.7064   0
  -9   2   5-4.47921 19.6396   1
   9   2  -4-7.05769 21.1077   2
   9   2  -4-19.6233 16.2081   3
   9  -2  -4 22.5377 11.5229   3
   9  -2  -4-9.29270 18.5402   4
   9   2  -4-9.58818 14.4796   0
  -9   2   4-1.91717 16.7975   1
   9  -2  -4 8.39505 17.9296   0
   9   2  -3 16.0504 22.5379   4
   9   2  -3-5.40609 15.5912   3
   9  -2  -3-12.8469 20.1744   4
   9   2  -3 11.7600 20.3893   2
   9  -2  -3-4.49357 9.15874   3
  -9   2   3-14.4162 14.9423   1
   9  -2  -2 9.71008 23.6301   4
   9   2  -2 8.13119 17.8605   2
   9   2  -2 13.7412 15.4467   3
  -9   2   2 16.9764 13.0806   1
   9  -2  -2-3.71650 10.1901   3
   9   2  -2 5.65236 22.5490   4
   9   2  -1 5.46449 23.9089   4
   9   2  -1 4.25367 18.8987   2
   9  -2  -1-3.93739 23.4294   4
   9   2  -1-11.3156 16.9361   3
   9  -2  -1 16.1686 11.8726   3
   9   2   0 9.60954 25.0083   4
   9  -2   0 7.03079 27.3641   4
   9   2   0 25.5063 17.1593   2
   9   2   0 10.0351 16.9329   3
   9  -2   0-19.0247 12.9847   3
   9   2   1-1.73185 24.5340   4
   9   2   1 24.8885 15.4504   2
   9  -2   1-4.30849 25.6687   4
   9   2   1 7.98023 18.0802   3
   9  -2   1-13.6839 14.0440   3
   9   2   2 0.84217 27.8796   4
   9  -2   2-34.6804 27.6209   4
   9   2   2 7.26069 18.8326   3
   9  -2   2-2.84702 15.8466   3
   9   2   3-38.0405 29.1706   4
   9  -2   3-43.9620 33.1400   4
   9   2   3-17.1360 20.8678   3
   9  -2   3-21.0440 19.3868   3
   9   2   4-17.0623 29.0153   4
   9  -2   4-50.8486 35.0197   4
   9   2   4-34.0646 26.0192   3
   9  -2   4-8.17966 21.7570   3
   9  -2   5-42.1443 33.5025   4
   9   2   5-15.6718 29.6753   4
   9   2   5-20.7874 27.5571   3
   9  -2   5 17.0324 23.6844   3
   9   2   6-41.5317 34.9245   4
   9  -2   6-24.5228 32.9930   4
   9   2   6 43.4972 26.0957   3
   9  -2   6-49.4519 25.3982   3
   9  -2   7 82.5736 35.3948   4
   9  -2   7 150.156 31.3408   3
   9   2   8 27.0966 28.5160   3
  -9  -3  15 176.078 43.3077   1
  -9   3  15 213.689 44.3802   1
  -9  -3  14 94.6119 36.4112   1
  -9   3  14 71.0344 35.8437   1
  -9  -3  13 128.734 37.6385   1
  -9   3  13 28.2629 32.4749   1
  -9  -3  12 89.4330 37.8442   1
  -9   3  12 30.9408 37.0980   1
  -9  -3  11 59.5481 31.0376   1
  -9   3  11 24.9108 30.8314   1
  -9   3  10 572.455 43.3042   1
   9  -3 -10 503.615 33.1043   2
  -9  -3  10 533.157 40.9562   1
   9  -3  -9 1291.17 43.5181   2
  -9   3   9 1350.71 49.0333   1
  -9  -3   9 1332.91 50.7519   1
  -9   3   8 210.582 28.4643   1
   9  -3  -8 211.529 27.4855   2
  -9  -3   8 187.225 31.5777   1
  -9  -3   7 398.368 24.2414   0
   9  -3  -7 404.302 30.4524   2
  -9   3   7 478.915 30.6968   1
   9   3  -7 526.866 33.9459   2
  -9  -3   7 411.656 31.7288   1
   9   3  -6 932.487 37.1224   2
  -9   3   6 1036.64 35.6683   1
   9   3  -5 631.866 32.2971   2
  -9   3   5 648.916 27.9465   1
   9  -3  -5 650.341 25.9246   4
   9   3  -5 635.346 23.3662   0
   9  -3  -4 1618.82 37.5360   4
   9   3  -4 1520.84 41.9515   2
  -9   3   4 1488.95 34.4549   1
   9   3  -4 1530.80 38.9073   3
   9   3  -4 1553.89 30.3393   0
   9  -3  -4 1565.86 28.4222   3
   9  -3  -4 1533.42 35.9920   0
   9   3  -3 2309.95 35.0865   0
   9   3  -3 2283.02 43.8433   3
   9  -3  -3 2441.38 46.3290   4
   9   3  -3 2456.84 48.6277   2
  -9   3   3 2244.23 36.6954   1
   9  -3  -3 2191.77 30.8442   3
   9   3  -2 469.990 26.8256   2
   9  -3  -2 490.302 29.9844   4
   9   3  -2 458.129 23.6468   3
   9  -3  -2 426.193 16.7386   3
  -9   3   2 410.482 17.3364   1
   9   3  -2 475.347 30.0173   4
   9  -3  -1 65.2049 25.3027   4
   9   3  -1 36.6773 17.6023   2
   9   3  -1 51.3491 24.3188   4
   9   3  -1 30.2707 18.0126   3
   9  -3  -1 54.9365 12.2167   3
   9   3   0 1803.76 46.7702   4
   9   3   0 1771.53 37.7206   2
   9   3   0 1707.40 41.4869   3
   9  -3   0 1727.97 34.0582   3
   9   3   1 544.373 32.6364   4
   9   3   1 514.301 29.1342   3
   9  -3   1 536.222 23.4746   3
   9   3   2 128.471 27.1926   4
   9   3   2 81.3755 21.4582   3
   9  -3   2 65.7582 17.6170   3
   9   3   3 42.0868 28.0999   4
   9   3   3 36.6337 22.8008   3
   9  -3   3 53.7611 21.0206   3
   9   3   4 306.472 35.3606   4
   9  -3   4 216.473 26.4263   3
   9   3   4 219.999 31.0760   3
   9   3   5 32.5591 30.7230   4
   9   3   5 55.1714 29.8027   3
   9  -3   5 7.59142 20.6874   3
   9   3   6 506.282 45.1091   4
   9   3   6 307.770 35.3749   3
   9  -3   6 338.632 35.8688   3
   9   3   7 35.0263 31.5679   3
   9  -3   7 99.8182 42.5283   4
   9  -3   8-30.7350 42.8750   4
   9   3   8 120.209 30.6220   3
  -9   4  15 38.0116 40.3862   1
  -9   4  14-27.0968 40.3661   1
  -9   4  13-34.2087 37.7816   1
  -9  -4  13-17.1386 36.0013   1
  -9   4  12 21.1942 33.7042   1
  -9  -4  12-1.13745 34.7196   1
  -9   4  11 18.2909 30.4138   1
  -9  -4  11-1.13147 30.0716   1
   9  -4 -10 28.1618 23.7048   2
  -9   4  10-1.17256 31.5621   1
  -9  -4  10 29.7754 32.6710   1
  -9   4   9 18.4076 27.8116   1
   9  -4  -9 39.4546 24.8522   2
  -9   4   8 4.17858 23.3615   1
   9  -4  -8-21.5104 25.3872   2
  -9  -4   7 24.4903 18.2847   0
  -9   4   7 34.0143 23.7438   1
   9  -4  -6 7.30920 15.4866   4
  -9   4   6 17.9846 18.1007   1
  -9  -4   6-12.6525 15.0489   0
   9  -4  -5-14.6554 16.2193   4
  -9   4   5 16.7274 18.8542   1
   9   4  -5 31.5618 22.6692   2
   9  -4  -4 5.75920 18.5552   4
  -9   4   4 3.70358 14.9589   1
   9   4  -4 11.9928 19.5665   3
   9   4  -4-35.5127 23.2829   2
   9   4  -4 9.98977 12.0895   0
   9   4  -3-2.56220 11.2020   0
  -9   4   3 36.9785 12.2855   1
   9  -4  -3-3.23774 20.7695   4
   9   4  -3-18.2393 20.9218   2
   9   4  -3 2.97848 17.0326   3
   9  -4  -2-15.1352 23.3657   4
   9   4  -2-10.8862 18.2727   2
   9   4  -2 1.66648 16.2878   3
   9   4  -1-6.47759 17.9875   2
   9   4  -1 14.1194 24.8078   4
   9   4  -1 5.87183 18.7040   3
   9   4   0-1.12383 25.7860   4
   9   4   0-18.6411 16.3268   2
   9   4   0-25.6649 18.6356   3
   9   4   1 24.0358 25.7009   4
   9   4   1-6.33987 19.4117   3
   9   4   2 0.75803 24.5303   4
   9   4   2-3.53111 22.0058   3
   9   4   3-22.9216 28.0335   4
   9   4   3 7.73846 22.5626   3
   9   4   4-17.4472 30.4385   4
   9   4   4 29.6624 26.2309   3
   9   4   5-43.5577 32.2277   4
   9   4   5 33.6221 28.7591   3
   9   4   7 37.5549 34.4998   3
   9   4   8 34.4682 37.3100   3
  -9   5  15-21.1416 42.8991   1
  -9   5  14-9.60109 43.7764   1
  -9   5  13 87.8007 40.5829   1
  -9   5  12 277.229 39.1335   1
  -9   5  11 138.968 36.2176   1
  -9   5  10 195.206 33.8205   1
   9  -5 -10 199.082 27.9441   2
  -9   5   9 1296.05 48.9642   1
   9  -5  -9 1203.61 42.6508   2
  -9   5   8 930.465 39.4370   1
  -9   5   7 97.6213 22.6397   1
  -9  -5   7 136.477 18.1362   0
  -9   5   6-6.50828 18.9195   1
   9  -5  -6 5.79678 14.0921   4
  -9  -5   6 6.90718 14.0442   0
  -9   5   5 186.343 20.7013   1
   9  -5  -5 146.662 19.7271   4
  -9   5   4 131.033 17.7142   1
   9  -5  -4 163.052 21.5163   4
   9   5  -4 169.560 24.2619   3
   9   5  -4 160.957 13.7120   0
  -9   5   3 648.413 22.6136   1
   9   5  -3 610.557 29.1399   3
   9  -5  -3 588.304 29.0424   4
   9   5  -2 1822.50 42.5314   3
   9   5  -1 2059.65 46.1217   3
   9   5   0 390.265 28.2826   3
   9   5   0 455.210 32.1397   4
   9   5   1 351.817 28.7741   3
   9   5   1 347.081 31.9503   4
   9   5   2 477.509 35.4950   4
   9   5   2 508.847 32.3355   3
   9   5   3 254.410 31.7591   4
   9   5   3 250.986 30.0685   3
   9   5   4 566.399 39.6146   4
   9   5   4 487.590 35.2800   3
   9   5   5 43.2109 28.6281   4
   9   5   5-29.9120 25.2928   3
   9   5   6 425.107 41.6954   3
   9   5   7 147.398 32.2963   3
   9   5   8-84.5215 30.1293   3
  -9   6  14-25.3796 42.4753   1
  -9   6  13 64.5569 35.4056   1
  -9   6  12-5.68732 30.9874   1
  -9   6  11 17.4501 31.1282   1
  -9   6  10 14.9317 31.0093   1
   9  -6 -10 4.53501 25.1121   2
  -9   6   9 1.24784 30.1247   1
  -9   6   8 19.5279 26.1503   1
  -9   6   7 18.1132 24.2650   1
  -9  -6   7-7.48610 15.9988   0
  -9   6   6 3.78386 20.5045   1
  -9   6   5 2.26183 19.0589   1
   9  -6  -5 26.9220 16.7431   4
  -9   6   4-13.2738 15.8096   1
   9  -6  -4 11.7852 18.9108   4
   9   6  -4 15.5022 22.6115   3
  -9   6   3 12.8503 15.1090   1
   9   6  -3-7.81606 20.0827   3
   9   6  -2 10.5125 18.1243   3
   9   6  -1 27.3075 21.7171   3
   9   6   0 9.89419 22.5873   3
   9   6   1-4.57130 21.9033   3
   9   6   2 17.1682 27.5337   4
   9   6   2 17.8446 22.7102   3
   9   6   3 4.99601 25.8710   4
   9   6   3-6.19231 23.8150   3
   9   6   4-30.3687 28.6115   4
   9   6   4-32.2633 26.2603   3
   9   6   5-12.3292 31.6166   4
   9   6   5-5.45682 27.5814   3
   9   6   6 69.6186 34.2688   3
   9   6   7-26.6551 32.8021   3
   9   6   8-23.6209 30.9623   3
  -9   7  14 175.970 40.8167   1
  -9   7  13 79.6302 32.0920   1
  -9   7  12 80.1206 32.3402   1
  -9   7  11 177.901 34.2884   1
  -9   7  10 641.332 43.0710   1
   9  -7 -10 620.901 36.0872   2
  -9   7   9 859.991 43.6188   1
  -9   7   8 275.126 30.8598   1
  -9   7   7 198.808 26.3409   1
  -9   7   6 59.8497 21.4408   1
   9  -7  -5 145.548 19.2207   4
  -9   7   5 183.817 22.5740   1
   9   7  -4 145.429 27.1226   3
  -9   7   4 117.200 18.6092   1
   9   7  -3 939.431 36.4684   3
  -9   7   3 905.978 26.8171   1
   9   7  -2 1668.24 43.4251   3
   9   7  -1 188.146 24.8620   3
   9   7   0 834.579 37.1341   3
   9   7   1 571.625 33.6364   3
   9   7   2 829.596 41.1137   3
   9   7   3 504.838 37.4077   3
   9   7   4 446.156 39.3587   4
   9   7   4 277.335 33.4021   3
   9   7   5 257.492 35.1042   4
   9   7   5 314.054 36.5398   3
   9   7   6 198.182 33.1979   3
   9   7   7 38.5759 38.2274   3
  -9   8  14 5.24938 35.4974   1
  -9   8  13 48.3382 36.0829   1
  -9   8  12-1.98214 27.4166   1
  -9   8  11-5.09692 32.4844   1
  -9   8  10 47.3659 35.2124   1
  -9   8   9 0.08336 30.5649   1
  -9   8   8-9.25380 25.5902   1
  -9   8   7 14.4346 23.7008   1
  -9   8   6 40.0307 22.8229   1
   9  -8  -5-5.63237 17.3735   4
  -9   8   5-14.1117 17.9963   1
   9   8  -4 5.65249 22.1861   3
  -9   8   4-11.7633 16.9330   1
   9   8  -3-7.25811 20.3042   3
  -9   8   3-6.13664 14.9413   1
   9   8  -2-10.7830 19.6499   3
   9   8  -1 8.36098 22.8782   3
   9   8   0-7.66380 15.8905   1
   9   8   0 10.7053 21.9155   3
   9   8   1 26.8617 24.0033   3
   9   8   2-36.0064 27.1301   3
   9   8   3-30.9856 28.4812   3
   9   8   4 14.8075 24.0052   3
   9   8   5 34.2109 30.5990   3
   9   8   6 20.9267 25.8142   3
   9   8   7-69.5601 36.7174   3
  -9   9  14 75.8707 30.4188   1
  -9   9  13 110.124 37.8144   1
  -9   9  12-0.22477 27.0641   1
  -9   9  11 54.8520 33.3462   1
  -9   9  10 263.991 35.5870   1
  -9   9   9 1466.74 53.2885   1
  -9   9   8 120.505 30.7036   1
  -9   9   7 475.448 33.4469   1
  -9   9   6-1.04102 21.2344   1
  -9   9   5 71.7364 20.5395   1
   9   9  -4 221.486 26.8435   3
  -9   9   4 271.654 23.2036   1
   9   9  -3 76.1781 23.5395   3
  -9   9   3 80.8000 17.4580   1
   9   9  -2 456.007 29.5437   3
   9   9  -1 578.646 34.5584   3
   9   9   0 231.446 30.8986   3
   9   9   0 223.037 21.7665   1
   9   9   1 712.362 38.7621   3
   9   9   2 186.708 31.3183   3
   9   9   3 304.489 35.6522   3
   9   9   4 26.2917 24.6728   3
   9   9   5 195.489 34.3902   3
   9   9   6 6.21444 24.8892   3
   9   9   7 13.4625 34.1752   3
  -9  10  13-34.4262 29.4141   1
  -9  10  12 30.7003 31.2451   1
  -9  10  11 24.4350 34.3440   1
  -9  10  10 14.7123 30.4555   1
  -9  10   9 44.6067 29.3340   1
  -9  10   8-14.9640 28.8615   1
  -9  10   7 6.70530 25.0139   1
  -9  10   6 14.8893 20.1939   1
   9  10  -5-36.6249 25.8077   3
  -9  10   5-0.23025 19.9605   1
   9  10  -4-2.01327 24.5142   3
  -9  10   4-0.98059 18.9785   1
   9  10  -3-19.7521 23.6121   3
  -9  10   3-8.67896 15.6110   1
   9  10  -2-9.26622 22.5023   3
   9  10  -1 1.92975 24.0834   3
   9  10   0 28.8543 20.9995   1
   9  10   0 17.6375 25.6599   3
   9  10   1 23.7536 27.9701   3
   9  10   2 4.23039 26.0018   3
   9  10   3 18.1036 26.7730   3
   9  10   4 38.9988 30.8696   3
   9  10   5-26.7935 29.6272   3
   9  10   6-73.4787 27.0452   3
   9  10   7 15.5168 37.1584   3
  -9  11  13 9.94478 28.9126   1
  -9  11  12 72.8495 38.6624   1
  -9  11  11 123.420 30.3078   1
  -9  11  10 93.0408 35.5427   1
  -9  11   9 7.94937 28.0554   1
  -9  11   8-0.81003 28.8513   1
  -9  11   7 647.205 35.9693   1
  -9  11   6 274.171 28.3408   1
   9  11  -5 478.573 36.6498   3
  -9  11   5 472.239 30.5629   1
   9  11  -4 133.845 28.1658   3
  -9  11   4 174.373 24.1806   1
   9  11  -3 765.132 38.9604   3
   9  11  -2 1469.08 49.1421   3
   9  11  -1 930.372 42.6750   3
   9  11   0 113.523 28.1212   3
   9  11   0 110.289 24.2172   1
   9  11   1 210.894 31.3323   3
   9  11   2 163.659 34.2043   3
   9  11   3 79.3108 30.1698   3
   9  11   4 99.2841 35.6706   3
   9  11   5 23.5992 30.0967   3
   9  11   6 57.6783 30.5043   3
  -9  12  13 36.7185 33.3653   1
  -9  12  12-24.3029 23.5127   1
  -9  12  11-12.1383 34.3275   1
  -9  12  10 22.0279 31.0148   1
  -9  12   9-27.1985 27.9989   1
  -9  12   8 8.48464 27.5024   1
  -9  12   7 3.80098 25.6573   1
  -9  12   6 8.39152 23.7240   1
   9  12  -5-13.4199 26.9827   3
  -9  12   5 41.0236 23.8667   1
   9  12  -4-6.25411 24.0552   3
  -9  12   4-10.9241 20.7405   1
   9  12  -3 27.8602 26.0379   3
   9  12  -2 8.57758 24.4102   3
   9  12  -1 21.8364 29.2614   3
   9  12   0 30.4961 26.5879   3
   9  12   0-0.65637 22.2777   1
   9  12   1-27.6372 25.2085   3
   9  12   2 18.1583 27.4190   3
   9  12   3 55.3556 30.5811   3
   9  12   4-9.60250 25.1787   3
   9  12   5-90.8517 24.0852   3
   9  12   6-19.3324 34.0983   3
  -9  13  12-17.7556 35.6587   1
  -9  13  11 88.2921 33.2012   1
  -9  13  10-13.6264 31.6971   1
  -9  13   9 72.4147 31.0761   1
  -9  13   8 255.325 32.1852   1
  -9  13   7-24.3224 28.4977   1
  -9  13   6 122.184 26.9537   1
   9  13  -5 210.550 34.8671   3
  -9  13   5 189.748 27.3369   1
   9  13  -4 887.766 42.7038   3
  -9  13   4 901.010 38.9271   1
   9  13  -3 870.536 42.5524   3
   9  13  -2 1864.23 55.5796   3
   9  13  -1 406.054 34.1158   3
   9  13  -1 278.166 26.6536   1
   9  13   0 72.8741 27.5974   3
   9  13   0 29.6284 25.4105   1
   9  13   1 53.1150 26.0257   3
   9  13   1 63.2552 22.6937   1
   9  13   2 165.985 30.8853   3
   9  13   3 86.7582 33.4824   3
   9  13   4 83.1955 35.8204   3
   9  13   6 173.242 35.2040   3
  -9  14  12 24.4032 37.6932   1
  -9  14  11 59.2957 34.5077   1
  -9  14  10-42.4684 29.2874   1
  -9  14   9 28.0573 30.9571   1
  -9  14   8-5.74665 30.7253   1
  -9  14   7 9.44330 24.8437   1
   9  14  -6-42.7319 25.1793   3
  -9  14   6 5.63731 28.3167   1
   9  14  -5-13.1931 30.7096   3
  -9  14   5-16.1594 24.2868   1
  -9  14   4-1.93788 23.7770   1
   9  14  -4 33.5722 26.4869   3
   9  14  -3 14.3064 24.9274   3
   9  14  -2 54.2433 25.5530   3
   9  14  -1 22.6922 27.3927   3
   9  14  -1 19.1766 23.6624   1
   9  14   0 7.35520 28.7567   3
   9  14   0-21.7153 25.7169   1
   9  14   1-20.9853 24.4360   3
   9  14   1 10.8147 22.2450   1
   9  14   2-18.8186 28.5934   3
   9  14   3 2.28730 27.4424   3
   9  14   4-21.6788 30.8114   3
   9  14   5-12.3064 30.7610   3
  -9  15  12 22.4649 31.7177   1
  -9  15  11 74.2709 36.5036   1
  -9  15  10 43.3458 32.7081   1
  -9  15   9 0.94160 27.8632   1
  -9  15   8-32.5399 31.3151   1
  -9  15   7 180.139 31.4893   1
   9  15  -6 696.204 44.7999   3
  -9  15   6 659.842 40.3971   1
   9  15  -5 324.260 35.6107   3
  -9  15   5 332.376 31.8672   1
   9  15  -4 783.273 43.9506   3
  -9  15   4 818.627 40.9976   1
   9  15  -3 72.1157 27.6533   3
   9  15  -2 373.179 35.3292   3
   9  15  -1 217.248 31.3169   1
   9  15  -1 132.159 31.6789   3
   9  15   0 293.791 37.0149   3
   9  15   0 330.802 34.1987   1
   9  15   1 94.3050 29.3636   3
   9  15   1 123.467 27.5180   1
   9  15   2 203.565 34.5256   3
   9  15   3 50.9498 27.5859   3
   9  15   4 58.2852 29.8796   3
   9  15   5-1.45793 32.9198   3
  -9  16  11-58.1038 36.9123   1
  -9  16  10 44.7564 33.8867   1
  -9  16   9 20.5891 27.6792   1
  -9  16   8-18.5909 31.0118   1
  -9  16   7 8.45101 29.5147   1
   9  16  -6 44.3655 32.7951   3
  -9  16   6-17.0906 27.8146   1
   9  16  -5-18.4957 27.4689   3
  -9  16   5 1.96178 26.3733   1
  -9  16   4 16.4263 25.5346   1
   9  16  -4-80.6326 29.4176   3
   9  16  -3 1.47900 24.4190   3
   9  16  -2 23.9357 28.1721   3
   9  16  -1 14.1632 27.2842   3
   9  16  -1 32.5693 25.9450   1
   9  16   0 13.6810 26.3736   3
   9  16   0 60.2787 29.8255   1
   9  16   1-44.2737 30.6649   3
   9  16   1-2.38645 29.3564   1
   9  16   2 32.0408 28.5587   3
   9  16   3 11.1802 25.0750   3
   9  16   4-26.6281 31.2842   3
  -9  17  11-61.8529 37.5013   1
  -9  17  10 66.2459 36.5189   1
  -9  17   9 12.8571 28.6766   1
  -9  17   8 239.075 38.1063   1
   9  17  -7 255.687 36.9444   3
  -9  17   7 237.970 33.5327   1
   9  17  -6 110.717 29.2065   3
  -9  17   6 68.0514 29.5701   1
  -9  17   5 31.8717 25.7287   1
   9  17  -5 30.0658 28.6609   3
   9  17  -4-29.2235 28.8276   3
   9  17  -3 198.061 29.1386   3
   9  17  -2 381.896 37.1351   3
   9  17  -2 376.047 33.5914   1
   9  17  -1 95.3197 28.4603   3
   9  17  -1 52.3181 28.5266   1
   9  17   0 98.4233 32.6675   3
   9  17   0 85.7538 32.2763   1
   9  17   1 19.5801 29.7957   3
   9  17   1 118.076 29.8372   1
   9  17   2 3.10782 26.6306   3
   9  17   3 105.062 28.3454   3
   9  17   4-5.30841 33.4933   3
  -9  18  10 2.55906 29.9379   1
  -9  18   9-22.7144 33.6290   1
  -9  18   8 26.7424 33.1947   1
   9  18  -7-4.46367 30.2306   3
  -9  18   7-5.32237 26.9102   1
   9  18  -6-37.5855 32.3796   3
  -9  18   6-3.83879 30.0083   1
   9  18  -5 53.6868 26.8382   3
  -9  18   5 50.8794 26.8082   1
   9  18  -4-2.55709 24.3454   3
   9  18  -3-24.3508 24.0719   3
   9  18  -2-11.1736 27.7370   3
   9  18  -2 21.3155 25.9897   1
   9  18  -1 16.2351 29.3802   3
   9  18  -1-44.8462 28.9096   1
   9  18   0 40.5983 29.6379   3
   9  18   0-24.3113 29.6842   1
   9  18   1 9.20744 24.6439   3
   9  18   1 47.2274 25.9884   1
   9  18   2 13.0665 28.5167   3
   9  18   3 16.9015 30.6570   3
  -9  19   9 30.5625 36.5597   1
   9  19  -8-9.93433 27.7010   3
  -9  19   8 33.5808 29.6749   1
   9  19  -7 64.0777 32.7623   3
  -9  19   7-33.7807 34.0780   1
   9  19  -6 85.3688 23.3083   3
  -9  19   6 141.215 28.8589   1
  -9  19   5 169.978 30.6667   1
   9  19  -5 29.7467 29.1320   3
   9  19  -4 37.8258 29.4761   3
   9  19  -3-0.74452 28.8113   1
   9  19  -3 21.6747 25.8017   3
   9  19  -2 328.539 38.0966   1
   9  19  -2 174.578 32.7238   3
   9  19  -1 47.2433 31.0477   3
   9  19  -1 45.8831 27.8880   1
   9  19   0 11.6964 31.1943   3
   9  19   0-40.0313 27.3297   1
   9  19   1 76.0163 34.3125   3
   9  19   1 35.9196 24.8131   1
   9  19   2 52.6621 34.7295   3
   9  19   3 113.114 40.6715   3
  -9  20   9-14.2114 27.7732   1
   9  20  -8-83.9968 26.0736   3
  -9  20   8 95.9730 36.0426   1
   9  20  -7 38.8861 34.2790   3
  -9  20   7-94.7651 25.7869   1
   9  20  -6 15.3192 32.1550   3
  -9  20   6-35.7948 27.7168   1
  -9  20   5 4.71567 28.7161   1
   9  20  -5-64.1054 24.8261   3
   9  20  -4 59.5259 30.9862   3
   9  20  -3 35.9244 30.3069   3
   9  20  -3-3.29984 25.3811   1
   9  20  -2-10.8581 28.5374   3
   9  20  -2-6.16844 29.3346   1
   9  20  -1-12.8201 28.8903   3
   9  20  -1 99.1207 35.0174   1
   9  20   0 1.90800 27.9582   3
   9  20   0-56.5365 26.0478   1
   9  20   1 34.3965 27.5788   3
   9  20   1-14.8369 32.0366   1
   9  20   2-8.33186 26.7437   3
   9  21  -8 102.867 35.8207   3
  -9  21   8 86.8626 29.5246   1
   9  21  -7-18.3697 30.3482   3
  -9  21   6 21.9609 30.2740   1
   9  21  -6 66.9868 31.0635   3
   9  21  -5-5.11817 30.7643   3
   9  21  -4-76.1896 24.5127   1
   9  21  -4 12.7311 26.0164   3
   9  21  -3 13.2029 29.4999   3
   9  21  -3 84.8618 37.6810   1
   9  21  -2 72.7479 30.5517   3
   9  21  -2 22.3085 34.9965   1
   9  21  -1 8.42446 24.7477   3
   9  21  -1 78.7049 38.3803   1
   9  21   0 55.0283 27.9795   3
   9  21   0 115.441 30.8464   1
   9  21   1 203.485 34.0554   3
   9  21   1-41.0825 33.9565   1
   9  22  -7-10.4807 26.2144   3
  -9  22   6 22.2956 28.7800   1
   9  22  -6 56.3347 30.4868   3
   9  22  -5 50.6487 26.9796   3
   9  22  -4-40.9124 27.1821   3
   9  22  -4-29.5134 32.2750   1
   9  22  -3-96.5826 31.4696   3
   9  22  -3 28.9345 35.5042   1
   9  22  -2 94.7435 34.2679   3
   9  22  -2-6.52920 27.6969   1
   9  22  -1 0.37785 26.2008   3
   9  22  -1 12.9775 29.3310   1
   9  22   0-60.1099 27.5990   3
   9  22   0 121.847 36.0182   1
  -9  23   6 75.8693 24.8930   1
   9  23  -4 60.2544 34.7282   3
   9  23  -3-40.5788 26.2833   3
 -10   0  15 69.5052 46.4368   1
 -10   0  14 199.130 42.3480   1
 -10   0  13 49.3657 39.4114   1
 -10   0  12 84.7536 37.5551   1
 -10   0  11-12.6207 31.8656   1
  10   0 -10 1346.49 46.5562   2
 -10   0  10 1294.99 53.7520   1
  10   0  -9 14.5405 24.5906   2
 -10   0   9-8.40225 31.5599   1
  10   0  -8 508.194 35.0950   2
 -10   0   8 543.411 36.0796   1
 -10   0   7-5.47287 23.0527   1
  10   0  -7 14.4280 25.2720   2
 -10   0   6 140.889 24.5203   1
  10   0  -6 106.642 26.7081   2
  10   0  -5 13.4560 24.3030   2
 -10   0   5-0.33505 20.2306   1
  10   0  -5-13.7918 17.7284   0
  10   0  -4 1528.85 35.2668   0
  10   0  -4 1540.34 43.8665   2
  10   0  -4 1519.73 39.8996   4
  10   0  -4 1459.01 33.3117   3
 -10   0   4 1458.69 35.4479   1
  10   0  -3-10.3929 21.0393   2
  10   0  -3 3.21238 21.5063   4
  10   0  -3-14.1736 13.2191   3
  10   0  -2 86.1914 21.8448   2
  10   0  -2 71.3169 13.9857   3
  10   0  -2 93.3845 24.2614   4
  10   0  -1 6.43819 18.6497   2
  10   0  -1-1.41616 13.9384   3
  10   0  -1 7.64199 26.1569   4
  10   0   0 530.928 27.1313   2
  10   0   0 494.306 25.9058   3
  10   0   0 529.668 34.4943   4
  10   0   1 47.1687 29.4355   4
  10   0   1 34.6956 18.8799   3
  10   0   2 139.153 35.6544   4
  10   0   2 64.5273 22.5025   3
  10   0   3 7.72207 31.6689   4
  10   0   3-22.5735 22.4814   3
  10   0   4 248.843 37.7384   4
  10   0   4 229.541 28.5117   3
  10   0   5-7.84127 32.4932   4
  10   0   5 47.9317 27.2978   3
  10   0   6 101.037 42.3505   4
  10   0   6 25.4871 30.2325   3
  10   0   7 85.9591 43.9839   4
  10   0   7-58.1385 27.3412   3
  10   0   8 146.789 34.4633   3
 -10   1  15 68.2203 37.6786   1
 -10  -1  15-41.9358 44.1251   1
 -10   1  14 1.74906 41.4082   1
 -10  -1  14 27.8334 41.9179   1
 -10  -1  13-12.0932 37.9047   1
 -10   1  13-18.6192 32.4389   1
 -10  -1  12 31.5549 37.4377   1
 -10   1  12 11.3159 32.4784   1
 -10  -1  11 18.6573 32.5645   1
 -10   1  11 19.2328 31.5823   1
 -10  -1  10 38.5634 34.1560   1
  10  -1 -10 20.8352 28.4217   2
 -10   1  10 36.7935 35.0003   1
 -10  -1   9 32.6066 29.8063   1
  10   1  -9-31.1178 27.2162   2
  10  -1  -9-18.0828 25.8785   2
 -10   1   9 41.8273 30.2394   1
 -10  -1   8 4.53755 28.8512   1
  10   1  -8 2.63444 25.4149   2
  10  -1  -8 3.72061 25.0285   2
 -10   1   8 26.3202 28.1823   1
  10  -1  -7-12.6620 25.4800   2
 -10  -1   7 4.04612 23.6892   1
  10   1  -7-2.07796 23.9172   2
 -10   1   7 19.7433 24.2454   1
  10  -1  -6 8.20866 25.3028   2
  10   1  -6 19.1527 24.9808   2
 -10  -1   6-6.33586 22.8540   1
  10   1  -6-1.78897 14.9569   0
 -10   1   6 4.02780 21.7294   1
 -10   1   5-1.38493 19.7476   1
  10  -1  -5 14.4869 19.3150   4
  10  -1  -5-2.86032 25.2175   2
  10   1  -5 20.3722 23.8352   2
  10  -1  -5-0.42431 15.7406   0
 -10  -1   5-3.86683 19.8234   1
  10   1  -5 14.3016 15.2343   0
  10   1  -4-5.01719 14.9499   0
  10  -1  -4-1.19204 24.5121   2
  10  -1  -4 34.3150 21.9537   4
  10   1  -4-9.83597 23.0639   2
 -10   1   4-5.91742 17.1916   1
  10   1  -4-2.09955 15.8634   3
  10  -1  -4 37.0727 13.1181   3
  10  -1  -4-12.3861 14.0913   0
  10  -1  -3 6.76138 22.9150   4
  10   1  -3-14.3115 22.0602   2
  10   1  -3-0.72216 15.2404   3
  10   1  -3-26.4517 21.7622   4
  10  -1  -3 17.5857 12.9274   3
  10   1  -2 14.1421 25.1719   4
  10  -1  -2-29.6287 25.0513   4
  10   1  -2 30.7118 21.3625   2
  10   1  -2 18.5640 16.0776   3
  10  -1  -2 22.9780 12.8755   3
  10  -1  -1-3.59618 25.8210   4
  10   1  -1-9.31999 25.5743   4
  10   1  -1 24.3628 20.2582   2
  10   1  -1-9.14162 15.9922   3
  10  -1  -1 17.1754 12.8831   3
  10   1   0 39.3620 17.8428   2
  10  -1   0 20.8081 28.5126   4
  10   1   0 8.22408 26.2747   4
  10   1   0-13.7401 17.6367   3
  10  -1   0 21.5920 14.7642   3
  10   1   1 1.90160 27.2373   4
  10  -1   1-28.4624 29.7643   4
  10   1   1-10.6151 17.4997   3
  10  -1   1-20.9017 16.7075   3
  10  -1   2-36.8255 32.1512   4
  10   1   2-13.7980 30.8214   4
  10   1   2-30.1553 20.6074   3
  10  -1   2 5.53728 18.2085   3
  10  -1   3-42.6993 31.2571   4
  10   1   3-5.86015 30.5967   4
  10   1   3 4.25075 22.9740   3
  10  -1   3 41.0113 23.4729   3
  10   1   4 18.5440 35.7819   4
  10  -1   4-34.8190 32.5417   4
  10   1   4 49.0007 27.2015   3
  10  -1   4 10.9256 26.1444   3
  10   1   5 6.84600 32.7295   4
  10  -1   5-57.0924 38.8605   4
  10   1   5-6.99934 22.8571   3
  10   1   6-45.9808 40.3995   4
  10  -1   6-54.1102 34.4485   4
  10   1   6-43.0236 31.8634   3
  10  -1   6 71.0771 28.6355   3
  10  -1   7-17.7256 39.8300   4
  10   1   7 81.5340 30.4718   3
  10   1   8-76.4522 27.9304   3
 -10  -2  15 72.3184 38.7813   1
 -10  -2  14 43.2342 38.2431   1
 -10   2  14 90.5131 38.5747   1
 -10  -2  13 35.7048 34.0453   1
 -10   2  13 106.057 42.6079   1
 -10  -2  12 1.03976 34.3784   1
 -10   2  12 41.8823 33.3489   1
 -10  -2  11 16.6636 30.5733   1
  10  -2 -11 28.0078 26.1497   2
 -10   2  11 44.0169 31.3970   1
  10  -2 -10 618.839 36.6915   2
 -10   2  10 566.745 42.6667   1
 -10  -2  10 617.930 41.3911   1
  10  -2  -9 72.6122 24.7781   2
 -10  -2   9 19.8652 30.8574   1
 -10   2   9 53.0249 29.2653   1
  10  -2  -8 736.832 38.0887   2
  10   2  -8 728.243 37.4351   2
 -10   2   8 768.155 39.2115   1
 -10  -2   8 698.551 40.3848   1
  10   2  -7 246.264 29.3001   2
 -10   2   7 235.614 27.1009   1
  10  -2  -7 253.388 29.4105   2
 -10  -2   7 260.065 30.0293   1
  10  -2  -6 295.879 30.2974   2
 -10   2   6 332.595 27.7063   1
  10   2  -6 338.037 30.8235   2
  10   2  -6 329.120 22.3698   0
  10   2  -5 758.516 36.3288   2
 -10   2   5 826.861 31.4507   1
  10   2  -5 711.177 26.2367   0
  10  -2  -5 733.705 28.9555   4
 -10   2   4 61.9656 17.9616   1
  10   2  -4 104.469 24.9768   2
  10   2  -4 101.232 15.7245   0
  10  -2  -4 73.6755 21.3641   4
  10  -2  -4 118.668 13.2216   3
  10   2  -4 88.6194 17.4305   3
  10   2  -3 527.286 31.2222   4
  10  -2  -3 490.870 30.0949   4
  10   2  -3 486.596 24.7778   3
  10  -2  -3 440.633 18.1884   3
  10   2  -3 535.156 29.3687   2
 -10   2   3 441.928 20.4331   1
  10   2  -2 1802.11 46.8586   4
  10   2  -2 1803.57 42.8735   2
  10  -2  -2 1873.69 46.8052   4
  10   2  -2 1727.65 39.8430   3
  10  -2  -2 1652.53 32.0846   3
  10   2  -1 821.957 38.3110   4
  10   2  -1 919.187 32.4944   2
  10  -2  -1 914.179 39.6668   4
  10   2  -1 908.809 31.7942   3
  10  -2  -1 845.222 26.5952   3
  10   2   0 184.651 20.4869   2
  10   2   0 108.016 27.5903   4
  10  -2   0 121.990 29.5554   4
  10  -2   0 127.874 17.9253   3
  10   2   0 99.5457 20.3305   3
  10  -2   1 95.0110 32.1213   4
  10   2   1 115.240 30.0746   4
  10   2   1 90.6646 21.3030   3
  10  -2   1 88.5711 18.0015   3
  10  -2   2 151.171 35.6579   4
  10   2   2 157.095 30.2838   4
  10   2   2 157.363 25.0836   3
  10  -2   2 95.5637 21.0733   3
  10   2   3 34.2160 29.0171   4
  10  -2   3 27.7931 31.5104   4
  10   2   3 49.0832 24.8762   3
  10  -2   3-24.1002 22.2974   3
  10  -2   4 181.101 40.1840   4
  10   2   4 120.901 28.1060   3
  10  -2   4 138.997 26.8654   3
  10   2   4 172.841 35.8511   4
  10  -2   5 67.3950 39.6999   4
  10   2   5 5.68680 34.8080   4
  10   2   5 24.4647 24.6925   3
  10   2   6-5.23118 38.1435   4
  10  -2   6 8.05345 43.7948   4
  10   2   6 18.2173 30.1686   3
  10  -2   7-45.6896 45.9989   4
  10   2   7-12.6934 29.3808   3
  10   2   8 276.948 38.1182   3
 -10  -3  15 74.6624 49.0548   1
 -10   3  15 39.6567 47.9406   1
 -10  -3  14 121.418 45.4111   1
 -10   3  14 64.2830 43.7892   1
 -10  -3  13 98.1442 41.3093   1
 -10   3  13-11.7916 34.6807   1
 -10  -3  12 4.52803 33.8166   1
 -10   3  12-32.9902 37.1244   1
  10  -3 -11 60.2857 26.8202   2
 -10   3  11-46.6333 33.4093   1
 -10  -3  11 23.9158 32.4644   1
  10  -3 -10-2.54617 24.9547   2
 -10   3  10-42.0275 32.0685   1
 -10  -3  10 20.0201 31.1620   1
  10  -3  -9-23.3051 26.1022   2
 -10   3   9-44.8634 30.9816   1
 -10  -3   9 5.29362 29.6415   1
 -10   3   8-30.0600 26.2823   1
  10  -3  -8 1.46148 25.9250   2
 -10  -3   8 7.45337 28.2229   1
  10  -3  -7 2.63201 23.3948   2
  10   3  -7-18.4084 24.5179   2
 -10   3   7-18.5764 24.3550   1
  10  -3  -6 15.8285 18.7120   4
  10   3  -6-18.9877 25.9775   2
 -10   3   6-12.6426 21.2296   1
  10   3  -5 15.3988 13.6933   0
  10  -3  -5 0.63557 18.5219   4
  10   3  -5 4.25941 25.9498   2
 -10   3   5-9.09663 19.2637   1
  10  -3  -4 14.2582 20.3829   4
  10   3  -4 25.3706 23.5575   2
  10   3  -4-11.1465 16.7717   3
  10   3  -4-8.15790 14.4105   0
 -10   3   4 9.60009 17.9154   1
  10  -3  -3 3.37231 21.8315   4
  10   3  -3 6.43252 21.1888   2
  10   3  -3 18.4354 17.5418   3
 -10   3   3-8.78577 14.8343   1
  10  -3  -2-18.0618 24.6178   4
  10   3  -2-2.38427 21.3855   2
  10   3  -2 21.5531 24.6695   4
  10   3  -2-11.7757 16.8719   3
  10   3  -1-6.48946 25.6414   4
  10  -3  -1 2.14529 27.4244   4
  10   3  -1 7.93469 19.7330   2
  10   3  -1 20.8871 18.7832   3
  10   3   0 14.4125 25.2712   4
  10  -3   0-0.13301 29.8518   4
  10   3   0 4.67553 16.6172   2
  10   3   0 0.46328 18.8023   3
  10  -3   1-21.7869 31.1566   4
  10   3   1-10.0848 27.8757   4
  10   3   1-10.2214 20.3009   3
  10   3   2-13.0263 27.3019   4
  10  -3   2-27.0027 32.1535   4
  10   3   2-14.7746 20.7082   3
  10   3   3 9.92846 30.6834   4
  10  -3   3-50.3931 36.7726   4
  10   3   3-17.0881 23.3258   3
  10   3   4 11.4194 32.0718   4
  10  -3   4-13.3392 36.6017   4
  10   3   4-18.7215 25.6858   3
  10  -3   5-38.8360 38.4679   4
  10   3   5 27.0943 34.5494   4
  10   3   5 14.0648 25.4203   3
  10   3   6 30.3237 34.6693   4
  10  -3   6-46.7178 43.0842   4
  10   3   6 59.3969 31.7447   3
  10  -3   7 163.976 51.4586   4
 -10   4  15 178.665 50.7994   1
 -10   4  14 54.0400 41.9755   1
 -10   4  13 31.7126 39.1941   1
 -10   4  12 13.5933 30.8984   1
  10  -4 -11 84.7712 26.6487   2
 -10   4  11 48.5018 33.6832   1
  10  -4 -10 491.871 33.9853   2
 -10   4  10 564.925 42.4612   1
  10  -4  -9 142.933 29.5878   2
 -10   4   9 162.786 33.3341   1
  10  -4  -8 22.6859 25.7418   2
 -10   4   8 35.3860 24.3795   1
 -10   4   7 405.938 30.3503   1
 -10  -4   7 375.148 24.0599   0
  10  -4  -6 602.116 25.4198   4
  10   4  -6 708.889 37.3508   2
 -10   4   6 599.297 29.7547   1
  10  -4  -5 599.080 27.2910   4
 -10   4   5 628.169 28.1132   1
  10   4  -5 572.577 33.5135   2
  10   4  -5 552.381 22.4720   0
  10  -4  -4 1204.93 36.3044   4
  10   4  -4 1227.92 40.9534   2
  10   4  -4 1181.36 36.6102   3
 -10   4   4 1115.06 31.6826   1
  10  -4  -3 31.2157 23.7249   4
  10   4  -3 41.9995 21.4334   2
  10   4  -3 66.8781 19.5583   3
  10  -4  -2 782.643 36.0459   4
  10   4  -2 672.257 30.3049   2
  10   4  -2 689.192 29.9468   3
  10  -4  -1-7.71437 27.7869   4
  10   4  -1-14.0643 17.8542   2
  10   4  -1 26.7012 25.9409   4
  10   4  -1 7.55647 20.4621   3
  10   4   0 328.851 32.7386   4
  10   4   0 317.843 27.2377   3
  10   4   0 211.759 20.1629   2
  10   4   1 228.586 31.1795   4
  10   4   1 173.662 25.2432   3
  10   4   2 276.744 33.6943   4
  10   4   2 247.532 28.4241   3
  10   4   3 355.810 36.1881   4
  10   4   3 275.161 31.0213   3
  10   4   4 89.4950 31.4985   4
  10   4   4 150.536 32.3171   3
  10   4   5 106.315 32.7569   4
  10   4   5 210.552 34.3584   3
  10   4   6 120.863 31.2532   3
  10  -4   7 30.8761 46.6334   4
  10   4   7 80.5039 32.4868   3
  10  -4   8 164.804 48.5024   4
 -10   5  14-93.2771 43.3315   1
 -10   5  13-72.7538 40.3996   1
 -10   5  12 7.64635 33.2443   1
  10  -5 -11 76.5891 25.9227   2
 -10   5  11 9.79009 29.9149   1
  10  -5 -10 21.9572 25.9138   2
 -10   5  10-5.45909 30.7924   1
  10  -5  -9 14.9169 26.2919   2
 -10   5   9-19.5292 29.0442   1
 -10   5   8 1.83081 25.6479   1
 -10   5   7 14.7672 22.7669   1
 -10   5   6 18.6126 20.0388   1
  10  -5  -6 16.1239 17.9053   4
 -10   5   5 6.20443 18.1545   1
  10  -5  -5-12.7457 18.2352   4
  10  -5  -4 4.64428 21.4454   4
 -10   5   4 0.74484 14.7417   1
  10   5  -4-6.35198 19.4394   3
  10  -5  -3 16.7119 22.3417   4
  10   5  -3 23.3587 20.2694   3
  10  -5  -2-5.69815 23.8442   4
  10   5  -2 11.3964 19.5413   3
  10   5  -1 3.06961 20.4347   3
  10   5   0 18.0244 27.3065   4
  10   5   0-10.0341 20.8253   3
  10   5   1 7.01639 28.5661   4
  10   5   1 10.9030 21.1056   3
  10   5   2 4.59104 26.6772   4
  10   5   2 1.31816 24.4068   3
  10   5   3 15.5208 28.4968   4
  10   5   3 8.37931 26.1409   3
  10   5   4 24.9206 32.7082   4
  10   5   4 48.0411 26.6749   3
  10   5   5 48.1191 31.3658   4
  10   5   5-0.73199 26.5427   3
  10   5   6-47.7680 30.2005   3
  10   5   7 154.202 37.2805   3
  10  -5   8-100.268 45.1232   4
 -10   6  14 84.3038 45.1959   1
 -10   6  13 224.102 41.3626   1
 -10   6  12 45.9930 32.8499   1
 -10   6  11 4.96912 32.3428   1
 -10   6  10 356.931 37.0517   1
  10  -6 -10 336.957 31.2787   2
 -10   6   9 509.345 38.3285   1
 -10   6   8 30.7121 26.5813   1
 -10   6   7-6.09829 23.0682   1
 -10   6   6 66.0987 20.6898   1
 -10   6   5 145.154 19.7684   1
  10  -6  -5 175.187 22.1138   4
  10   6  -5 131.048 24.9105   3
 -10   6   4 499.622 24.4443   1
  10  -6  -4 545.111 29.5437   4
  10   6  -4 486.670 31.2858   3
  10  -6  -3 226.539 26.0642   4
  10   6  -3 280.149 27.5298   3
  10   6  -2 1888.65 47.5241   3
  10   6  -1 569.404 32.6873   3
  10   6   0 1293.72 42.6777   3
  10   6   1 513.274 33.3631   3
  10   6   2 159.104 33.3375   4
  10   6   2 150.320 27.8944   3
  10   6   3 430.366 38.0508   4
  10   6   3 482.495 35.1886   3
  10   6   4 128.081 35.5580   4
  10   6   4 126.391 31.4607   3
  10   6   5-41.9157 35.7249   4
  10   6   5-58.6655 28.3226   3
  10   6   6 73.9212 27.6436   3
  10   6   7 106.820 38.8333   3
 -10   7  14 130.022 40.7001   1
 -10   7  13-67.6844 32.7691   1
 -10   7  12 13.0159 32.8966   1
 -10   7  11 58.4054 34.3933   1
  10  -7 -10-5.58777 24.5975   2
 -10   7  10-3.71080 31.9083   1
 -10   7   9-4.65033 26.5684   1
 -10   7   8-12.3467 26.9307   1
 -10   7   7 26.8152 24.9253   1
 -10   7   6 33.9503 22.2888   1
 -10   7   5 0.68479 18.6566   1
  10  -7  -5-20.4917 19.2975   4
 -10   7   4 15.0163 17.0495   1
  10  -7  -4-14.8442 22.0589   4
  10   7  -4-3.33739 19.6484   3
  10   7  -3 10.9702 21.1602   3
  10   7  -2-1.96397 22.2982   3
  10   7  -1-9.96078 21.5438   3
  10   7   0-6.57430 22.6339   3
  10   7   1-12.3637 23.6716   3
  10   7   2 21.6323 25.3519   3
  10   7   3-6.43468 24.7154   3
  10   7   4-83.7488 26.2986   3
  10   7   5 15.8483 29.6534   3
  10   7   6 42.1771 29.3523   3
  10   7   7-38.3148 32.6649   3
 -10   8  14 11.7366 33.7023   1
 -10   8  13 43.6208 34.8267   1
 -10   8  12 114.134 34.4930   1
 -10   8  11-17.2742 29.7897   1
 -10   8  10 502.693 40.8852   1
 -10   8   9 118.683 32.5818   1
 -10   8   8 63.0069 26.6926   1
 -10   8   7 284.340 30.4718   1
 -10   8   6 140.172 24.4982   1
  10  -8  -5 170.637 23.4886   4
  10   8  -5 124.303 27.4046   3
 -10   8   5 153.030 22.4543   1
  10   8  -4 842.172 38.0381   3
 -10   8   4 811.284 30.0382   1
  10   8  -3 377.250 29.9119   3
  10   8  -2 648.389 33.4134   3
  10   8  -1 199.346 27.2147   3
  10   8   0 148.095 27.9123   3
  10   8   1 104.146 27.4850   3
  10   8   2 100.819 27.9919   3
  10   8   3 121.202 29.9127   3
  10   8   4 3.64758 27.2817   3
  10   8   5 122.281 29.8105   3
  10   8   6 33.8238 32.2974   3
 -10   9  14-21.4550 26.7564   1
 -10   9  13 90.7041 38.2178   1
 -10   9  12-53.4814 34.3899   1
 -10   9  11 11.1242 29.2007   1
 -10   9  10 31.6995 29.0898   1
 -10   9   9-14.8635 29.5640   1
 -10   9   8-14.2994 28.6084   1
 -10   9   7 10.1727 24.2167   1
 -10   9   6 13.5998 24.0103   1
  10   9  -5 13.2451 26.2235   3
 -10   9   5-2.97147 19.8313   1
  10   9  -4 1.06411 25.7607   3
 -10   9   4-23.4841 16.7601   1
  10   9  -3 25.1722 25.4821   3
  10   9  -2 6.76604 22.8006   3
  10   9  -1 2.77826 24.2236   3
  10   9   0-3.98813 24.8226   3
  10   9   1 14.1276 26.3446   3
  10   9   2-11.2283 27.0912   3
  10   9   3-12.0638 27.4205   3
  10   9   4-20.9632 27.9866   3
  10   9   5 81.9706 30.1478   3
  10   9   6 6.28616 30.3201   3
 -10  10  13 76.3753 30.2300   1
 -10  10  12-8.88397 35.0202   1
 -10  10  11 38.3230 34.0396   1
 -10  10  10 114.292 32.3718   1
 -10  10   9 156.320 30.5361   1
 -10  10   8 199.872 29.1567   1
 -10  10   7 108.953 28.9614   1
 -10  10   6-96.2618 23.2346   1
  10  10  -5 562.611 39.6058   3
 -10  10   5 424.071 27.1780   1
  10  10  -4 183.938 29.4226   3
  10  10  -3 1413.54 48.0639   3
  10  10  -2 1024.28 42.5297   3
  10  10  -1 378.839 32.0588   3
  10  10   0 1436.68 51.0997   3
  10  10   1 460.154 36.1311   3
  10  10   2 60.5772 29.9706   3
  10  10   3 40.1595 28.4765   3
  10  10   4 109.521 34.5623   3
  10  10   5 11.3725 30.5531   3
  10  10   6-83.0755 23.6639   3
 -10  11  13-3.13632 36.5878   1
 -10  11  12 67.3977 32.2243   1
 -10  11  11 32.0248 35.9969   1
 -10  11  10-28.0749 30.8094   1
 -10  11   9 3.58366 27.6023   1
 -10  11   8 2.92340 27.9567   1
 -10  11   7-26.3177 25.1543   1
 -10  11   6-2.76204 24.9194   1
  10  11  -5 0.42511 28.9636   3
 -10  11   5 25.3285 22.4415   1
  10  11  -4 2.50314 26.5810   3
  10  11  -3 18.0805 24.7211   3
  10  11  -2 38.7155 29.5140   3
  10  11  -1-22.6597 24.5802   3
  10  11   0 5.51299 26.5260   3
  10  11   1 34.0314 28.6800   3
  10  11   2-30.8069 24.6094   3
  10  11   3 16.9600 29.2288   3
  10  11   4 13.5321 31.2229   3
  10  11   5-24.2377 30.8512   3
  10  11   6-91.8667 28.4364   3
 -10  12  13 49.9122 33.6794   1
 -10  12  12 73.9878 38.9466   1
 -10  12  11-30.4546 28.5144   1
 -10  12  10 78.1966 32.6370   1
 -10  12   9 33.6098 30.4524   1
 -10  12   8 145.684 28.7631   1
 -10  12   7 295.368 32.5218   1
  10  12  -6 158.137 30.5291   3
 -10  12   6 186.192 29.4918   1
  10  12  -5 154.085 32.8726   3
 -10  12   5 173.417 26.2492   1
  10  12  -4 83.4561 30.0351   3
  10  12  -3 468.890 37.7497   3
  10  12  -2 490.331 36.9541   3
  10  12  -1 442.205 35.0898   3
  10  12  -1 334.673 27.3218   1
  10  12   0 307.890 33.3184   3
  10  12   1 282.484 33.4156   3
  10  12   2 226.478 33.8302   3
  10  12   3 118.285 25.7494   3
  10  12   4 84.6733 28.6565   3
  10  12   5-25.6593 27.4266   3
 -10  13  12-13.1796 32.5064   1
 -10  13  11-23.9596 34.8362   1
 -10  13  10 31.6772 30.6106   1
 -10  13   9-23.8585 28.7592   1
 -10  13   8-0.89158 29.5616   1
 -10  13   7 33.0952 30.4024   1
  10  13  -6-19.3031 28.6369   3
 -10  13   6-16.9657 26.6153   1
  10  13  -5-12.1648 29.4259   3
 -10  13   5-40.1994 24.7178   1
  10  13  -4-14.9173 26.6105   3
  10  13  -3 6.91501 24.3101   3
  10  13  -2-4.16223 24.8641   3
  10  13  -1 4.49976 19.3808   1
  10  13  -1 36.0124 27.3009   3
  10  13   0 57.7265 28.7187   3
  10  13   1 12.8128 27.1169   3
  10  13   2-27.7772 30.7348   3
  10  13   3 32.3376 33.2713   3
  10  13   4 35.2539 32.8100   3
 -10  14  12 15.7822 34.2558   1
 -10  14  11 102.342 33.2626   1
 -10  14  10 11.1386 32.4780   1
 -10  14   9-15.0441 29.7529   1
 -10  14   8 15.8832 27.6170   1
 -10  14   7 121.390 28.9161   1
  10  14  -6 141.031 34.0568   3
 -10  14   6 87.3152 25.9987   1
  10  14  -5 295.759 34.7260   3
 -10  14   5 324.521 31.2228   1
  10  14  -4 47.0934 26.0933   3
  10  14  -3 299.829 32.0815   3
  10  14  -2 905.094 45.9719   3
  10  14  -1 102.148 31.6443   3
  10  14  -1 155.386 27.5482   1
  10  14   0 6.11590 29.4106   3
  10  14   0 40.1941 26.3106   1
  10  14   1 72.8617 29.6087   3
  10  14   2 180.592 34.3259   3
  10  14   3 64.9474 35.7206   3
  10  14   4 61.1214 37.4022   3
 -10  15  12 23.9459 36.3591   1
 -10  15  11 76.4558 32.5025   1
 -10  15  10-101.054 30.5499   1
 -10  15   9 14.9610 27.8619   1
 -10  15   8 19.7974 28.2646   1
  10  15  -7 6.56513 31.0229   3
 -10  15   7-35.6151 30.1597   1
  10  15  -6 1.47577 29.2052   3
 -10  15   6-7.88268 27.7493   1
  10  15  -5 7.54897 27.3985   3
 -10  15   5 37.5081 26.1791   1
  10  15  -4 2.84163 25.7552   3
  10  15  -3-23.1626 28.0260   3
  10  15  -2-19.0325 27.5075   3
  10  15  -1-9.39331 24.4850   3
  10  15  -1 35.7878 28.1722   1
  10  15   0 25.4706 30.7461   3
  10  15   0 69.9394 27.3387   1
  10  15   1 20.6502 26.8068   3
  10  15   2-53.3001 29.5834   3
  10  15   3 32.0620 32.6534   3
  10  15   4 19.5122 29.3916   3
 -10  16  11 140.759 33.0726   1
 -10  16  10 5.56046 32.4396   1
 -10  16   9 120.175 31.2792   1
 -10  16   8-5.62588 30.0533   1
  10  16  -7 17.5575 29.8654   3
 -10  16   7 27.9290 30.5066   1
  10  16  -6 11.1288 29.9332   3
 -10  16   6 61.1545 27.8470   1
  10  16  -5 105.193 30.0006   3
  10  16  -4 60.9662 29.3269   3
  10  16  -3 12.5804 29.5920   3
  10  16  -2 167.142 30.4806   1
  10  16  -2 164.802 30.4920   3
  10  16  -1 51.1061 30.7819   3
  10  16  -1 99.1284 25.1872   1
  10  16   0 254.188 34.6242   1
  10  16   0 190.032 35.5719   3
  10  16   1 92.0183 29.6042   3
  10  16   2-9.75817 30.5559   3
  10  16   3 110.843 31.1533   3
 -10  17  10 7.10140 34.7066   1
 -10  17   9 13.6647 27.7599   1
  10  17  -7 33.6320 30.9636   3
 -10  17   7-22.6390 30.1477   1
  10  17  -6-81.1301 29.0483   3
 -10  17   6 54.1225 28.8443   1
  10  17  -5 5.68844 29.5453   3
  10  17  -4 29.0345 29.7069   3
  10  17  -3 34.9283 31.2575   3
  10  17  -2-33.2446 31.1655   3
  10  17  -2 2.45272 26.8068   1
  10  17  -1-26.1256 27.4924   3
  10  17  -1-19.3389 29.7247   1
  10  17   0-14.2333 26.6500   3
  10  17   0 1.44144 27.6739   1
  10  17   1 61.9049 31.9961   3
  10  17   2-36.8876 33.5037   3
  10  17   3 60.5352 32.1017   3
 -10  18  10 7.14545 36.4118   1
 -10  18   9 74.6452 35.2350   1
  10  18  -8 93.7753 29.9458   3
 -10  18   8 63.0984 30.4754   1
  10  18  -7 224.007 35.9644   3
 -10  18   7 263.461 35.0942   1
  10  18  -6 25.5735 25.9969   3
 -10  18   6 50.1242 28.7346   1
  10  18  -5-16.7378 30.7797   3
  10  18  -4 75.8850 31.7277   3
  10  18  -3 18.1140 29.2964   3
  10  18  -2 83.7916 30.5547   3
  10  18  -2 100.284 32.5459   1
  10  18  -1 70.9935 33.4022   3
  10  18  -1 96.3985 33.5074   1
  10  18   0 70.5740 34.6703   3
  10  18   0 32.9862 29.6639   1
  10  18   1 125.648 35.0809   3
  10  18   2 174.541 42.2959   3
 -10  19   9 8.06149 35.2828   1
  10  19  -8 2.66860 31.9133   3
 -10  19   8-56.5808 29.7337   1
  10  19  -7-10.6394 34.9763   3
 -10  19   7 107.510 25.4047   1
  10  19  -6 58.2646 32.8650   3
 -10  19   6-23.5941 30.4469   1
  10  19  -5-57.2853 24.8077   3
  10  19  -4-18.2890 27.8522   3
  10  19  -3-35.2181 25.9361   1
  10  19  -3-1.57322 28.9221   3
  10  19  -2 38.5011 28.6227   3
  10  19  -2 4.19888 29.8459   1
  10  19  -1 0.82332 28.1871   3
  10  19  -1 22.4158 25.9759   1
  10  19   0-26.3239 27.3122   3
  10  19   0-106.799 28.6700   1
  10  19   1 23.4270 26.8483   3
  10  20  -8 139.258 39.4196   3
 -10  20   8 74.4027 33.7933   1
  10  20  -7 24.6338 28.6597   3
 -10  20   7 126.016 35.5359   1
  10  20  -6 18.4779 27.9477   3
  10  20  -5 16.9481 29.9417   3
  10  20  -4-26.8625 31.6121   3
  10  20  -3-16.7949 31.9007   3
  10  20  -3 19.1563 33.7460   1
  10  20  -2 44.5364 26.9181   3
  10  20  -2-56.5627 33.9767   1
  10  20  -1 121.647 30.7137   3
  10  20  -1 158.055 34.9246   1
  10  20   0 9.07331 31.6495   3
  10  20   0 39.1881 29.4583   1
 -10  21   8-8.69009 29.0194   1
  10  21  -7 36.1592 33.1807   3
 -10  21   7 8.18391 26.7169   1
  10  21  -6-36.8506 31.6042   3
  10  21  -5 38.0472 34.0786   3
  10  21  -4-45.0594 31.3584   1
  10  21  -4 8.11506 27.6885   3
  10  21  -3 45.8047 35.9693   1
  10  21  -2-21.6112 25.8953   3
  10  21  -1 74.7246 34.4250   3
  10  21  -1-6.21918 35.0899   1
  10  21   0 67.3844 26.1830   1
 -10  22   7 24.8943 29.1838   1
  10  22  -4 44.8466 28.3126   3
  10  22  -3-23.8334 32.4231   3
 -11   0  15-1.93528 37.4839   1
 -11   0  14 106.360 45.0174   1
 -11   0  13 56.7085 40.4764   1
 -11   0  12 24.7268 35.1608   1
 -11   0  11-15.4692 35.2103   1
  11   0 -11 56.4114 27.4734   2
 -11   0  10 15.1047 32.5881   1
  11   0 -10-26.2369 29.5546   2
 -11   0   9 11.3495 33.3446   1
  11   0  -9 12.9308 28.0029   2
 -11   0   8 9.76765 29.9073   1
  11   0  -8-8.92699 27.3303   2
 -11   0   7 17.7222 25.0694   1
  11   0  -7 3.56036 26.7229   2
  11   0  -6-13.5853 26.3226   2
 -11   0   6 7.89630 23.2061   1
  11   0  -5 13.9686 26.2723   2
  11   0  -5 22.9225 15.8285   3
 -11   0   5 20.3897 20.3809   1
  11   0  -4-16.3780 21.5674   4
  11   0  -4 3.29234 25.1811   2
  11   0  -4-20.9006 13.7988   3
  11   0  -4-6.20831 14.3429   0
  11   0  -3 7.59125 24.5044   4
  11   0  -3-44.6035 13.6042   3
  11   0  -3-10.5708 20.7266   2
  11   0  -2-24.1747 20.5236   2
  11   0  -2-5.32615 25.3617   4
  11   0  -2 26.5820 14.7901   3
  11   0  -1-4.75552 20.7561   2
  11   0  -1 14.7940 27.6086   4
  11   0  -1 4.06792 15.3283   3
  11   0   0-20.0197 28.5133   4
  11   0   0-17.8631 19.6912   2
  11   0   0 33.8885 18.0658   3
  11   0   1-19.7996 32.9699   4
  11   0   1 18.7646 19.0663   3
  11   0   2 2.60362 35.0749   4
  11   0   2 10.5951 21.5506   3
  11   0   3-5.92915 32.7732   4
  11   0   3-15.3669 25.0085   3
  11   0   4 48.2258 34.3373   4
  11   0   4-39.8797 26.8353   3
  11   0   5 18.6246 39.0011   4
  11   0   5 19.4769 25.7851   3
  11   0   6-27.8107 35.9742   4
  11   0   6 13.9331 26.0694   3
 -11   1  15 139.793 45.8455   1
 -11  -1  15-6.22629 41.9483   1
 -11   1  14-6.15534 38.8171   1
 -11  -1  14-12.8097 36.5428   1
 -11   1  13 179.851 38.1615   1
 -11  -1  13 292.099 42.5867   1
 -11  -1  12 46.0390 38.2971   1
 -11   1  12 36.1757 33.5674   1
 -11  -1  11 126.755 37.5496   1
  11  -1 -11 51.0804 26.9724   2
 -11   1  11 74.2032 36.8022   1
  11  -1 -10 99.2708 29.7587   2
  11   1 -10 24.1246 29.9272   2
 -11  -1  10 86.5333 34.8401   1
 -11   1  10 65.5597 31.1540   1
  11  -1  -9 999.098 44.2596   2
 -11   1   9 1082.20 47.3801   1
 -11  -1   9 1089.29 47.4396   1
  11   1  -9 1062.09 44.9160   2
  11  -1  -8 955.212 43.5935   2
  11   1  -8 978.128 42.9882   2
 -11   1   8 893.811 41.8528   1
 -11  -1   8 907.165 42.2597   1
  11  -1  -7 579.595 36.7587   2
  11   1  -7 564.164 37.0972   2
 -11   1   7 544.265 33.0427   1
 -11  -1   7 567.620 34.3917   1
  11  -1  -6 369.571 32.7859   2
  11   1  -6 297.116 31.4579   2
 -11   1   6 324.773 27.4906   1
 -11  -1   6 279.593 27.0616   1
  11  -1  -5 812.536 33.1617   4
  11  -1  -5 794.287 38.1040   2
  11   1  -5 812.915 38.9975   2
  11   1  -5 762.770 29.5682   0
  11   1  -5 878.322 31.7535   3
  11  -1  -5 820.767 27.5041   3
 -11   1   5 807.575 31.8580   1
  11   1  -4 52.8231 24.8093   4
  11  -1  -4 55.1906 23.4484   4
  11   1  -4-3.98943 24.6394   2
  11   1  -4 2.55575 16.4336   3
  11  -1  -4 36.5864 14.4279   3
  11  -1  -4 40.0688 24.8495   2
 -11   1   4 48.7402 17.8268   1
  11   1  -4 40.9966 16.0459   0
  11   1  -3 390.341 31.2162   4
  11   1  -3 378.219 28.1889   2
  11  -1  -3 371.096 29.3401   4
  11   1  -3 367.918 22.9453   3
  11  -1  -3 393.769 20.2817   3
  11   1  -2 26.4973 27.1784   4
  11  -1  -2 24.3416 27.3032   4
  11   1  -2 3.93396 21.8186   2
  11   1  -2 5.30773 15.5571   3
  11  -1  -2-6.20708 13.1390   3
  11   1  -1 317.105 26.4020   2
  11   1  -1 246.670 31.6103   4
  11  -1  -1 306.394 33.2635   4
  11   1  -1 333.505 24.3080   3
  11  -1  -1 286.473 19.8855   3
  11   1   0 107.399 29.9351   4
  11   1   0 90.1621 21.2050   2
  11  -1   0 119.270 31.9558   4
  11   1   0 100.207 21.0920   3
  11  -1   0 79.2057 18.4546   3
  11   1   1 628.330 41.2166   4
  11  -1   1 624.761 42.7077   4
  11   1   1 506.776 31.7619   3
  11  -1   1 496.936 29.0215   3
  11   1   2 320.183 38.6768   4
  11  -1   2 353.117 40.3602   4
  11  -1   2 283.662 26.6629   3
  11   1   2 235.676 27.4079   3
  11   1   3 625.854 45.1877   4
  11  -1   3 665.336 47.1853   4
  11   1   3 564.180 35.3319   3
  11   1   4 186.775 40.7586   4
  11   1   4 232.186 28.7670   3
  11  -1   4 223.908 44.5058   4
  11   1   5-2.58554 35.6971   4
  11  -1   5 31.1183 39.9744   4
  11   1   5 90.1924 29.2211   3
  11   1   6 8.39366 43.8049   4
  11   1   6-23.9544 25.7633   3
  11  -1   7 93.3595 51.4637   4
  11   1   7 122.861 34.9148   3
 -11   2  15-112.766 47.4042   1
 -11  -2  15 104.443 50.1179   1
 -11  -2  14 62.6558 43.9134   1
 -11   2  14-25.4984 33.8905   1
 -11  -2  13 9.59219 36.5949   1
 -11   2  13 55.8975 41.6663   1
 -11  -2  12-20.1751 34.0519   1
 -11   2  12 68.3034 38.7537   1
  11  -2 -11 26.7761 25.9839   2
 -11  -2  11-30.9800 33.9507   1
 -11   2  11 4.05812 34.4224   1
  11  -2 -10-3.44234 25.6898   2
 -11  -2  10-10.1136 34.1174   1
 -11   2  10 1.39453 30.2675   1
  11  -2  -9 11.2271 30.1494   2
  11   2  -9 10.9640 30.6342   2
 -11  -2   9 18.4131 32.0874   1
 -11   2   9 8.50173 29.6893   1
  11  -2  -8-18.1599 26.5210   2
  11   2  -8-28.2434 28.2953   2
 -11  -2   8 19.7571 29.3579   1
 -11   2   8 5.58827 28.1363   1
  11  -2  -7 4.86233 26.3831   2
  11   2  -7 28.9973 27.2759   2
 -11   2   7 32.4257 24.5662   1
 -11  -2   7-8.71847 25.3505   1
  11  -2  -6 0.26942 26.1932   2
  11   2  -6-12.5405 26.4995   2
  11   2  -6-2.47194 16.0852   0
 -11   2   6 5.01257 20.7801   1
 -11   2   5-11.5737 20.2213   1
  11  -2  -5 4.52462 21.6685   4
  11   2  -5-19.7929 24.7224   2
  11   2  -5 28.0680 21.4937   3
  11   2  -5 27.2900 16.0055   0
  11   2  -4-18.7726 15.2933   0
  11  -2  -4-3.51588 22.1590   4
 -11   2   4-8.98707 16.8790   1
  11   2  -4-10.9095 23.2576   2
  11   2  -4-0.60825 17.0337   3
  11   2  -3 16.6343 25.5684   4
  11  -2  -3-8.55121 24.7842   4
  11   2  -3 5.08876 22.4460   2
  11   2  -3 11.7660 16.7894   3
  11   2  -2 3.78407 27.5580   4
  11  -2  -2-5.18545 27.6309   4
  11   2  -2 24.6323 20.9740   2
  11   2  -2-3.78570 16.6898   3
  11   2  -1 29.7638 29.7838   4
  11  -2  -1 35.3946 29.3030   4
  11   2  -1-19.3508 19.5493   3
  11   2  -1 28.9892 20.2443   2
  11   2   0-6.90980 28.5149   4
  11  -2   0-4.49665 29.7084   4
  11   2   0 24.2708 19.6710   2
  11   2   0-3.03169 19.9861   3
  11   2   1 18.0223 31.2217   4
  11  -2   1-39.0411 32.4195   4
  11   2   1-11.4343 19.3106   3
  11   2   2 30.4375 33.9811   4
  11  -2   2-22.6284 32.3101   4
  11   2   2-18.7230 24.8508   3
  11  -2   3-52.2982 38.4235   4
  11   2   3 47.8662 37.1207   4
  11   2   3 29.3006 23.6790   3
  11   2   4 54.6197 39.3286   4
  11  -2   4-25.2648 35.7067   4
  11   2   4 3.84596 24.6268   3
  11   2   5 65.9084 40.2013   4
  11  -2   5-37.3340 43.2144   4
  11   2   5-35.7718 28.4723   3
  11  -2   6-40.6425 42.4015   4
  11   2   6-10.6334 23.6966   3
  11  -2   7-34.4570 49.5786   4
  11   2   7 58.6623 27.1672   3
 -11   3  15 95.3733 49.8347   1
 -11  -3  14 31.9008 37.0224   1
 -11   3  14 130.502 44.4134   1
 -11  -3  13 103.420 43.3908   1
 -11   3  13 131.197 40.8657   1
 -11   3  12 19.2648 31.4184   1
 -11  -3  12 87.0775 34.9270   1
  11  -3 -11 196.620 29.4594   2
 -11   3  11 183.327 35.4302   1
 -11  -3  11 230.557 38.3065   1
  11  -3 -10 451.870 35.8547   2
 -11   3  10 465.967 41.1299   1
 -11  -3  10 545.823 42.9729   1
 -11   3   9 992.244 46.3063   1
  11  -3  -9 1025.99 44.9676   2
 -11  -3   9 1140.15 50.2799   1
  11  -3  -8 371.038 33.6457   2
  11   3  -8 371.189 34.6847   2
 -11   3   8 338.453 32.3241   1
  11  -3  -7 275.511 32.6590   2
  11   3  -7 262.788 30.6831   2
 -11   3   7 293.397 29.9308   1
  11  -3  -6 454.740 27.0970   4
  11   3  -6 434.859 34.0065   2
 -11   3   6 411.691 28.3283   1
  11  -3  -5 200.561 24.8891   4
  11   3  -5 248.392 28.1389   2
  11   3  -5 275.654 25.0752   3
 -11   3   5 277.336 24.4368   1
  11  -3  -4 102.102 24.8021   4
  11   3  -4 92.9458 24.4442   2
  11   3  -4 65.6216 18.2449   3
 -11   3   4 67.1641 18.5157   1
  11   3  -3 193.593 24.7069   2
  11  -3  -3 144.833 27.3133   4
  11   3  -3 198.706 21.2586   3
  11   3  -2 617.796 36.5484   4
  11  -3  -2 617.743 35.7475   4
  11   3  -2 603.721 31.1047   2
  11   3  -2 552.387 28.7093   3
  11  -3  -1 799.372 42.2727   4
  11   3  -1 755.113 32.4838   2
  11   3  -1 737.227 39.1444   4
  11   3  -1 761.049 32.7597   3
  11   3   0 844.819 42.1569   4
  11  -3   0 721.114 42.2295   4
  11   3   0 824.090 36.2203   3
  11  -3   1 11.3834 31.5613   4
  11   3   1 6.50410 29.0488   4
  11   3   1 36.7817 23.0347   3
  11   3   2 265.187 36.6027   4
  11  -3   2 291.286 41.0572   4
  11   3   2 304.511 31.8529   3
  11  -3   3 353.466 43.3533   4
  11   3   3 263.668 37.9967   4
  11   3   3 311.704 31.8637   3
  11  -3   4 139.682 44.4524   4
  11   3   4 87.8616 36.2817   4
  11   3   4 104.653 28.1826   3
  11   3   5 122.761 41.1290   4
  11  -3   5 219.906 42.1463   4
  11   3   5 217.335 32.2301   3
  11  -3   6 117.263 44.2331   4
  11   3   6 123.795 35.9233   3
  11  -3   7-41.0113 46.7291   4
  11   3   7 12.3533 33.4538   3
 -11   4  14 7.98757 41.4972   1
 -11   4  13-30.9226 33.0231   1
 -11   4  12 14.8131 36.9617   1
  11  -4 -11-5.36492 26.6110   2
 -11   4  11-59.0637 35.1901   1
  11  -4 -10-28.3838 26.8324   2
 -11   4  10-55.7522 35.6931   1
  11  -4  -9 31.2982 28.5791   2
 -11   4   9-27.2272 30.4446   1
  11  -4  -8-22.0387 29.3978   2
 -11   4   8 0.93563 28.6670   1
 -11   4   7-6.67926 23.5888   1
  11  -4  -6-3.58299 19.9396   4
  11   4  -6 4.87741 27.6219   2
 -11   4   6-28.8984 21.9643   1
  11  -4  -5-10.0471 23.1157   4
  11   4  -5-22.6928 24.1369   2
  11   4  -5 33.9024 21.1033   3
 -11   4   5-22.8830 19.4648   1
  11  -4  -4-17.6537 23.7597   4
  11   4  -4-19.1787 22.9715   2
  11   4  -4-2.70101 17.9433   3
  11  -4  -3 31.5572 25.9865   4
  11   4  -3-22.8507 22.4667   2
  11   4  -3 1.96899 19.1568   3
  11  -4  -2-10.0947 28.3482   4
  11   4  -2-10.6404 22.4170   2
  11   4  -2 36.4071 22.0950   3
  11   4  -1 9.25381 28.2503   4
  11  -4  -1 31.3197 30.0066   4
  11   4  -1-8.75752 18.5059   2
  11   4  -1-7.03677 21.7254   3
  11   4   0 5.08569 29.3535   4
  11  -4   0-27.0875 34.7428   4
  11   4   0 11.1914 21.6783   3
  11   4   1 18.2486 29.5185   4
  11  -4   1-49.3351 36.2113   4
  11   4   1 1.84645 23.3550   3
  11   4   2 21.3491 31.6828   4
  11  -4   2-18.7207 34.0928   4
  11   4   2-1.88524 24.4174   3
  11   4   3 56.4747 36.1870   4
  11  -4   3-32.9109 35.4330   4
  11   4   3-43.9098 27.0900   3
  11   4   4 1.51354 35.7840   4
  11  -4   4-18.4307 39.1144   4
  11   4   4 26.4091 28.4106   3
  11   4   5 99.2610 37.4546   4
  11   4   5 44.4395 30.1640   3
  11  -4   6-1.17490 42.5180   4
  11   4   6-38.2003 30.7263   3
  11  -4   7 74.5639 44.5512   4
  11   4   7-68.6869 28.8957   3
 -11   5  14 58.3647 45.4560   1
 -11   5  13-17.2807 38.5268   1
 -11   5  12-1.95885 35.2055   1
  11  -5 -11 9.92709 27.9386   2
 -11   5  11 41.8691 32.4170   1
  11  -5 -10 114.420 28.8511   2
 -11   5  10 90.9436 31.1969   1
 -11   5   9 427.250 34.1841   1
  11  -5  -9 372.569 34.2051   2
 -11   5   8 97.0299 27.4556   1
 -11   5   7 71.3755 24.6061   1
  11  -5  -6 381.563 26.0021   4
 -11   5   6 407.510 26.6882   1
  11  -5  -5 893.801 34.5062   4
 -11   5   5 953.784 32.8629   1
  11   5  -5 915.127 38.7849   3
  11  -5  -4 523.568 30.7421   4
  11   5  -4 452.818 29.3102   3
  11  -5  -3 1101.57 41.6399   4
  11   5  -3 1208.79 39.8643   2
  11   5  -3 1017.71 36.7797   3
  11  -5  -2 737.928 40.3618   4
  11   5  -2 714.781 33.6774   3
  11  -5  -1 160.598 33.5277   4
  11   5  -1 228.688 27.4926   3
  11   5   0 34.7226 29.3506   4
  11   5   0 9.19689 25.6651   3
  11   5   1 253.435 33.4544   4
  11   5   1 218.145 27.1160   3
  11   5   2 263.972 36.9232   4
  11   5   2 262.861 31.4437   3
  11   5   3 293.183 38.5294   4
  11   5   3 255.260 32.0569   3
  11   5   4 130.355 28.0524   3
  11   5   4 145.450 37.2817   4
  11   5   5 21.9304 39.2773   4
  11   5   5 44.5060 28.6731   3
  11  -5   6-12.4264 42.8978   4
  11   5   6-14.7503 31.3056   3
  11  -5   7-45.5247 49.4005   4
 -11   6  13 13.3107 37.4849   1
 -11   6  12 26.1693 29.9246   1
  11  -6 -11-18.0705 27.0853   2
 -11   6  11 9.42533 32.2350   1
  11  -6 -10-10.3319 26.8360   2
 -11   6  10-12.7218 29.1890   1
 -11   6   9-4.17463 27.0244   1
 -11   6   8 7.44556 27.0313   1
 -11   6   7 19.0729 22.4613   1
 -11   6   6 20.3116 21.1690   1
  11  -6  -5-15.1472 22.4570   4
 -11   6   5-7.37839 18.8018   1
  11   6  -5 27.3491 26.6420   3
  11  -6  -4 4.24897 23.4646   4
  11   6  -4-21.2760 21.8607   3
  11  -6  -3 34.5108 28.7787   4
  11   6  -3-28.9289 23.4130   3
  11  -6  -2-26.3379 30.1108   4
  11   6  -2 0.92980 22.1197   3
  11   6  -1 8.84954 25.2812   3
  11   6   0-5.35374 25.7600   3
  11   6   1-8.95098 23.6606   3
  11   6   2 32.5685 31.4089   4
  11   6   2-11.5168 23.7004   3
  11   6   3 15.9505 31.0231   4
  11   6   3 61.0663 30.0249   3
  11   6   4-27.2078 37.1025   4
  11   6   4 53.2989 25.8990   3
  11   6   5-40.3930 38.0135   4
  11   6   6-23.9035 25.6408   3
 -11   7  14-39.2416 44.5680   1
 -11   7  13 38.8951 34.5678   1
 -11   7  12 60.8801 30.6984   1
  11  -7 -11 165.198 31.8672   2
 -11   7  11 44.5453 31.3197   1
  11  -7 -10 76.0493 29.0202   2
 -11   7  10 99.5941 33.1425   1
 -11   7   9 250.064 35.0622   1
 -11   7   8 388.788 34.5704   1
 -11   7   7 878.755 38.7235   1
 -11   7   6 4.08887 22.5878   1
 -11   7   5 1344.77 39.0791   1
  11  -7  -5 1370.64 39.9946   4
  11   7  -5 1414.11 46.6759   3
  11  -7  -4 85.1270 26.1594   4
  11   7  -4 43.2371 21.9392   3
  11  -7  -3 257.023 31.8411   4
  11   7  -3 252.107 28.2439   3
  11   7  -2 655.009 36.5240   3
  11   7  -1 829.617 40.7665   3
  11   7   0 214.277 31.6734   3
  11   7   1 172.849 30.0469   3
  11   7   2 40.8431 27.4729   3
  11   7   3 224.876 33.6020   3
  11   7   4-13.7414 30.4331   3
  11   7   5 10.2010 27.3002   3
  11   7   6 134.382 38.5370   3
 -11   8  14 44.9612 35.1196   1
 -11   8  13-15.2050 33.8587   1
 -11   8  12-1.70320 30.3679   1
 -11   8  11 14.8356 27.9802   1
  11  -8 -11-26.2111 26.3440   2
 -11   8  10-2.35405 31.0474   1
 -11   8   9 0.08544 26.2135   1
 -11   8   8 8.49400 25.9837   1
 -11   8   7 19.0617 24.5008   1
 -11   8   6 20.4347 22.6345   1
  11   8  -6-13.8322 29.1712   3
 -11   8   5 33.4527 20.5700   1
  11  -8  -5-34.3841 22.5460   4
  11   8  -5-7.16459 25.6769   3
  11  -8  -4-34.3667 26.1087   4
  11   8  -4-22.2589 25.1168   3
  11   8  -3-23.1839 23.9154   3
  11   8  -2-8.14211 24.7157   3
  11   8  -1 1.68560 23.3453   3
  11   8   0-18.8932 25.2602   3
  11   8   1 15.2515 22.8344   3
  11   8   2 22.4274 26.3229   3
  11   8   3 20.1247 27.8467   3
  11   8   5-24.9967 28.6035   3
  11   8   6 116.614 40.3964   3
 -11   9  14-20.4713 26.4490   1
 -11   9  13 16.2135 30.6021   1
 -11   9  12 54.8368 30.6223   1
 -11   9  11-10.1662 27.3929   1
 -11   9  10 48.2055 31.1927   1
 -11   9   9 393.855 37.4625   1
 -11   9   8 38.1773 29.8141   1
 -11   9   7 761.903 38.3526   1
 -11   9   6 243.016 27.4479   1
  11   9  -6 261.112 30.7902   3
  11   9  -5 308.963 32.6381   3
 -11   9   5 353.868 26.6158   1
  11   9  -4 375.334 31.4466   3
  11   9  -3 524.977 35.9655   3
  11   9  -2 439.057 34.4198   3
  11   9  -1 169.377 29.3313   3
  11   9   0 155.076 26.2026   3
  11   9   1 25.6975 26.0321   3
  11   9   2 92.2311 28.0406   3
  11   9   3 51.7561 27.9694   3
  11   9   4-0.23232 28.5207   3
  11   9   5 109.216 30.8354   3
 -11  10  13 38.6368 34.3013   1
 -11  10  12-35.7077 29.6108   1
 -11  10  11 31.6692 31.4169   1
 -11  10  10 55.4107 31.6326   1
 -11  10   9 37.2335 32.0268   1
 -11  10   8-22.0755 24.8542   1
 -11  10   7-35.2652 26.7909   1
  11  10  -6-19.4474 27.1741   3
 -11  10   6 26.5159 24.4240   1
  11  10  -5 7.58682 25.4340   3
  11  10  -4-17.1840 26.2442   3
  11  10  -3-27.6408 25.3394   3
  11  10  -2-4.00384 25.3381   3
  11  10  -1 2.19513 26.8191   3
  11  10   0-16.2001 25.8177   3
  11  10   1 24.3288 28.1637   3
  11  10   2 8.61772 27.0205   3
  11  10   3-37.1148 32.2507   3
  11  10   4-31.9204 33.0149   3
  11  10   5 89.9871 35.3204   3
 -11  11  13 3.58693 34.9470   1
 -11  11  12-4.37382 34.4405   1
 -11  11  11 259.672 39.8083   1
 -11  11  10 82.4412 32.9494   1
 -11  11   9 329.295 37.6229   1
 -11  11   8 471.735 36.5368   1
 -11  11   7 183.110 30.3578   1
  11  11  -6 201.973 35.0156   3
 -11  11   6 163.853 26.1324   1
  11  11  -5 493.735 36.7229   3
  11  11  -4 80.9961 25.8068   3
  11  11  -3 29.6924 25.0061   3
  11  11  -2 248.574 31.6487   3
  11  11  -1 43.4174 28.0691   3
  11  11   0 200.818 32.7368   3
  11  11   1 152.325 29.9079   3
  11  11   2-42.4554 29.2162   3
  11  11   3 43.8542 27.2635   3
  11  11   4 8.66222 27.9770   3
  11  11   5 53.0006 33.1406   3
 -11  12  13-24.0344 33.1792   1
 -11  12  12 42.4292 31.3725   1
 -11  12  11 9.74300 22.3240   1
 -11  12  10-26.4166 31.0570   1
 -11  12   9 26.3843 29.1333   1
 -11  12   8 2.46821 26.1097   1
 -11  12   7-14.5545 27.7611   1
  11  12  -6 56.2531 31.8043   3
 -11  12   6-74.2280 21.9885   1
  11  12  -5 16.5719 25.2656   3
  11  12  -4-16.4511 28.0794   3
  11  12  -3-28.9428 26.9257   3
  11  12  -2-19.9607 28.9816   3
  11  12  -1-28.6036 28.9654   3
  11  12   0-28.1605 28.3930   3
  11  12   1-0.40771 26.7348   3
  11  12   2-21.0915 27.7037   3
  11  12   3-106.876 30.8451   3
  11  12   4 27.8033 33.8401   3
 -11  13  12 115.739 41.2684   1
 -11  13  11-36.2558 32.4318   1
 -11  13  10 67.8393 32.4374   1
 -11  13   9 366.315 37.7657   1
 -11  13   8 21.6145 28.0793   1
  11  13  -7 749.891 46.5956   3
 -11  13   7 619.124 39.4138   1
  11  13  -6 501.146 41.3114   3
 -11  13   6 454.372 32.6061   1
  11  13  -5 315.140 35.5053   3
  11  13  -4 111.147 31.7317   3
  11  13  -3 61.5159 27.5008   3
  11  13  -2 693.232 42.0882   3
  11  13  -1 6.29556 29.0868   3
  11  13   0-4.22944 26.6667   3
  11  13   1 159.590 33.3181   3
  11  13   2 39.1779 25.9164   3
  11  13   3 23.5277 25.8829   3
  11  13   4 29.6678 30.0413   3
 -11  14  12 26.4038 35.0116   1
 -11  14  11-42.5859 29.8460   1
 -11  14  10 35.2538 32.7133   1
 -11  14   9-1.34955 29.0550   1
 -11  14   8-26.6769 27.6061   1
  11  14  -7-9.72575 27.2213   3
 -11  14   7 14.6993 25.1606   1
  11  14  -6-19.5222 27.4620   3
 -11  14   6 24.8788 25.5646   1
  11  14  -5 15.4415 28.4035   3
  11  14  -4 20.3763 26.5630   3
  11  14  -3 65.9456 31.2271   3
  11  14  -2 5.69371 28.1910   3
  11  14  -1-21.2155 27.0426   3
  11  14   0 5.15074 27.9318   3
  11  14   1 36.2745 32.5320   3
  11  14   2-83.0711 28.1591   3
  11  14   3-18.7990 27.3738   3
 -11  15  11 78.8679 36.3596   1
 -11  15  10 154.362 37.9719   1
 -11  15   9 34.1873 32.2932   1
 -11  15   8 95.8836 31.4378   1
  11  15  -7 81.2126 33.2589   3
 -11  15   7 74.2334 29.8059   1
  11  15  -6 11.4771 24.1154   3
  11  15  -5-5.38469 25.8502   3
  11  15  -4 63.2280 25.0928   3
  11  15  -3 177.463 31.7514   3
  11  15  -2-14.0330 23.5405   1
  11  15  -2 58.1066 31.2181   3
  11  15  -1-18.9037 22.4656   3
  11  15  -1 43.1808 25.5635   1
  11  15   0 37.9531 29.6425   3
  11  15   1 23.4937 31.3479   3
  11  15   2-2.20682 31.3181   3
  11  15   3-26.9910 34.7596   3
 -11  16  11 55.4146 39.4898   1
 -11  16  10 14.7216 34.4750   1
 -11  16   9-7.19023 29.6211   1
  11  16  -8 10.7266 31.0649   3
 -11  16   8 63.2366 26.2574   1
  11  16  -7 32.2806 32.1953   3
 -11  16   7-3.71975 29.4554   1
  11  16  -6-11.1049 27.8753   3
  11  16  -5-42.7583 23.2316   3
  11  16  -4 34.6014 24.9906   3
  11  16  -3 6.57939 24.2493   3
  11  16  -2 10.4515 28.6421   3
  11  16  -2 14.6220 25.8458   1
  11  16  -1 6.62067 30.6574   3
  11  16  -1-26.2271 27.6352   1
  11  16   0-105.908 29.4442   3
  11  16   1 14.5075 32.3716   3
  11  16   2-17.7035 34.3633   3
 -11  17  10 7.73710 33.0508   1
 -11  17   9 129.347 31.9555   1
  11  17  -8 229.603 38.8908   3
 -11  17   8 321.269 38.7332   1
  11  17  -7 39.3307 30.2769   3
 -11  17   7-13.9513 29.1077   1
  11  17  -6 89.9525 32.2469   3
  11  17  -5-15.6374 24.7344   3
  11  17  -4 11.4977 27.7999   3
  11  17  -3 60.6077 31.8034   3
  11  17  -2 187.613 34.6593   3
  11  17  -2 204.727 34.3601   1
  11  17  -1 36.9737 28.9637   3
  11  17  -1 13.7249 28.0560   1
  11  17   0-21.2783 24.7007   3
  11  17   1 44.5484 24.8540   3
  11  17   2-12.9635 32.4902   3
 -11  18  10-17.7971 34.5287   1
  11  18  -9 26.6775 27.5998   3
 -11  18   9 74.5631 33.7501   1
  11  18  -8 108.280 31.5765   3
 -11  18   8 25.5750 31.0897   1
  11  18  -7-36.9048 34.6457   3
  11  18  -6 22.4127 31.3231   3
  11  18  -5 10.2658 27.0169   3
  11  18  -3-20.7400 29.5011   3
  11  18  -2 31.0286 30.4035   3
  11  18  -2 101.413 34.2845   1
  11  18  -1 60.0611 29.9432   3
  11  18  -1 86.8714 33.1666   1
  11  18   0-73.2225 32.5939   3
  11  18   1 45.5680 32.3140   3
 -11  19   9 224.398 36.1132   1
  11  19  -8 162.980 39.7530   3
 -11  19   8 149.561 34.6565   1
  11  19  -7 36.9913 27.1373   3
  11  19  -6 33.7041 25.8054   3
  11  19  -5 67.5867 31.6785   3
  11  19  -4-7.63372 27.9172   3
  11  19  -3-25.1151 28.5195   1
  11  19  -2-45.0934 28.4661   3
  11  19  -2 14.5382 29.1501   1
  11  19  -1 66.2487 28.0580   3
  11  19  -1 123.456 29.4361   1
  11  19   0-17.0569 25.6978   3
 -11  20   8-25.6245 27.8888   1
  11  20  -7 178.544 33.0423   3
  11  20  -6-72.7740 32.1615   3
  11  20  -5 14.9074 33.5914   3
  11  20  -4 21.2641 26.9106   3
  11  20  -3-62.4819 34.0126   3
  11  20  -3 112.715 36.3174   1
  11  20  -2-4.19621 27.8483   3
  11  20  -2-44.4319 32.3609   1
  11  20  -1 36.3718 28.8135   1
  11  21  -4-68.7796 29.5974   1
  11  21  -3 68.4684 30.7122   1
  11  21  -2 53.6090 29.9262   1
  11  21  -1 9.00414 35.9658   1
 -12   0  15-14.5148 44.6435   1
 -12   0  14 44.9316 43.5717   1
 -12   0  13 32.0671 38.3184   1
 -12   0  12 14.8439 37.1250   1
 -12   0  11 59.5513 33.4324   1
  12   0 -11-71.8272 30.9444   2
  12   0 -10 708.146 42.8498   2
 -12   0  10 768.182 45.7209   1
 -12   0   9 35.4635 31.5444   1
  12   0  -9 18.2449 25.7611   2
  12   0  -8 370.630 36.7262   2
 -12   0   8 404.838 34.3432   1
  12   0  -7 2.01180 28.1152   2
 -12   0   7-15.7274 23.5191   1
  12   0  -6 1296.02 47.9721   2
  12   0  -6 1111.26 35.3154   3
 -12   0   6 1215.04 41.0857   1
  12   0  -5 11.8314 26.6568   2
  12   0  -5 20.1512 16.1061   3
  12   0  -4 319.337 31.5583   4
  12   0  -4 435.142 33.8137   2
  12   0  -4 326.142 20.6651   3
  12   0  -3 4.02976 25.9058   4
  12   0  -3 10.0224 24.3424   2
  12   0  -3 14.6362 15.4695   3
  12   0  -2 700.740 33.5830   2
  12   0  -2 662.814 40.4147   4
  12   0  -2 687.963 28.5974   3
  12   0  -1 11.9529 23.1328   2
  12   0  -1 21.5185 33.1855   4
  12   0  -1 4.47244 18.8343   3
  12   0   0 2688.34 68.7211   4
  12   0   1-8.39558 32.6681   4
  12   0   2 72.7004 38.4252   4
  12   0   3-29.7148 35.3786   4
  12   0   4 396.219 43.9936   4
  12   0   5-90.7861 47.0618   4
  12   0   6 218.388 48.3150   4
 -12   1  14 40.3295 44.2989   1
 -12  -1  14-34.5174 35.4021   1
 -12   1  13-4.79493 38.3583   1
 -12  -1  13-28.7634 39.3333   1
 -12   1  12-23.8836 37.8928   1
 -12  -1  12-19.0379 33.3014   1
  12  -1 -12-63.0477 29.5674   2
 -12   1  11-27.5781 34.8894   1
 -12  -1  11-15.9975 31.2676   1
  12  -1 -11-32.5057 28.3746   2
 -12   1  10-14.5191 33.4791   1
  12  -1 -10 32.1780 30.5166   2
 -12  -1  10-8.78269 33.4323   1
  12   1 -10-15.5555 30.2004   2
 -12   1   9-14.6401 31.8568   1
  12  -1  -9-9.48820 29.3364   2
  12   1  -9 24.8682 24.9250   2
 -12  -1   9-24.1380 29.7725   1
 -12   1   8-7.41506 29.8584   1
  12  -1  -8 19.0869 29.6238   2
  12   1  -8 20.2425 31.3002   2
 -12  -1   8 21.6766 29.7215   1
 -12   1   7 8.80488 25.7066   1
  12  -1  -7-25.5607 30.3865   2
  12   1  -7-2.30398 27.9612   2
 -12  -1   7 11.8328 24.3199   1
  12  -1  -6 28.8876 29.1409   2
  12   1  -6 4.88318 26.1737   2
 -12   1   6-2.27809 21.4594   1
  12   1  -6-8.13849 17.2653   3
  12  -1  -5-3.13679 25.3955   4
  12  -1  -5 7.33702 26.4992   2
  12   1  -5 38.1163 28.9465   2
  12   1  -5 31.6050 18.4075   3
 -12   1   5 11.2095 20.0122   1
  12   1  -4 9.59397 26.0607   4
  12  -1  -4 9.48562 26.0268   4
  12  -1  -4-36.1888 26.1557   2
  12   1  -4-18.6976 23.5243   2
  12   1  -4-4.32617 16.2788   3
  12  -1  -3-20.5694 25.5827   2
  12  -1  -3-12.0561 27.2990   4
  12   1  -3-24.9200 28.3332   4
  12   1  -3-22.6240 23.6089   2
  12   1  -3 16.1410 17.2873   3
  12  -1  -2 13.7227 25.2625   2
  12  -1  -2 33.9456 31.1797   4
  12   1  -2-9.20616 22.6459   2
  12   1  -2 29.1612 30.5203   4
  12   1  -2 13.7052 19.1197   3
  12  -1  -1 20.0880 24.8508   2
  12  -1  -1-3.06694 34.1162   4
  12   1  -1-10.8026 21.9385   2
  12   1  -1-10.5307 32.9573   4
  12   1  -1 24.0287 20.5320   3
  12   1   0 24.1901 33.0375   4
  12  -1   0-42.0474 34.8710   4
  12   1   0 41.7639 21.3597   3
  12   1   1 15.8752 33.2182   4
  12  -1   1 30.7594 36.3885   4
  12   1   1 39.6150 23.3983   3
  12   1   2 3.30061 33.9310   4
  12  -1   2 25.4368 37.1308   4
  12   1   2 22.3959 23.6572   3
  12   1   3-0.57063 38.3571   4
  12  -1   3 17.7772 41.3617   4
  12   1   3-8.18152 25.8155   3
  12   1   4 46.5575 42.6866   4
  12  -1   4 26.5116 43.5485   4
  12   1   4-8.87741 25.0849   3
  12   1   5 34.9261 39.2469   4
  12  -1   5 33.6756 38.5840   4
  12   1   6 173.600 53.1380   4
  12  -1   6-53.5019 43.5942   4
 -12   2  14 67.4611 34.1986   1
 -12  -2  14 245.379 49.8229   1
 -12  -2  13 96.2545 37.0274   1
 -12   2  13 44.1545 35.4123   1
  12  -2 -12 28.2431 27.1531   2
 -12  -2  12 108.548 39.1617   1
 -12   2  12 119.482 34.5976   1
  12  -2 -11 32.2212 27.3177   2
 -12  -2  11 30.0771 36.0628   1
 -12   2  11 38.7853 37.0978   1
  12  -2 -10 519.910 39.8424   2
 -12   2  10 531.569 43.7186   1
 -12  -2  10 548.283 44.3897   1
  12  -2  -9 399.793 36.1272   2
  12   2  -9 355.860 37.4847   2
 -12   2   9 424.503 40.2890   1
 -12  -2   9 400.189 39.4252   1
  12  -2  -8 712.442 41.0174   2
  12   2  -8 653.187 39.6520   2
 -12   2   8 719.738 39.4391   1
  12  -2  -7 851.025 42.7552   2
  12   2  -7 844.707 42.8934   2
 -12   2   7 782.328 38.8224   1
 -12   2   6 63.6155 22.7491   1
  12  -2  -6-0.14632 27.8758   2
  12   2  -6 31.1881 27.3671   2
  12   2  -6 0.24523 19.3926   3
  12  -2  -5 838.111 40.8294   2
  12  -2  -5 746.845 34.8899   4
  12   2  -5 706.485 37.8665   2
  12   2  -5 766.648 30.7443   3
 -12   2   5 714.516 31.4868   1
  12  -2  -4 64.0315 28.3502   4
  12   2  -4 108.485 25.9598   2
  12   2  -4 102.767 19.0937   3
  12   2  -3 1214.43 45.7391   4
  12  -2  -3 1302.17 46.3624   4
  12   2  -3 1286.48 43.6814   2
  12   2  -3 1168.52 37.4962   3
  12   2  -2 1521.81 50.6628   4
  12  -2  -2 1550.01 50.9941   4
  12   2  -2 1541.56 44.8197   2
  12   2  -2 1583.09 43.0117   3
  12   2  -1 152.469 34.0253   4
  12  -2  -1 149.298 35.4704   4
  12   2  -1 153.444 25.7535   2
  12   2  -1 149.773 25.1099   3
  12   2   0 713.624 43.7703   4
  12  -2   0 700.340 44.9126   4
  12   2   0 666.013 33.7674   3
  12   2   1 32.7022 32.6243   4
  12  -2   1 44.3404 33.2332   4
  12   2   1 38.9655 21.5765   3
  12   2   2 1203.26 52.7403   4
  12  -2   2 1327.14 58.1130   4
  12   2   2 1157.60 46.1137   3
  12   2   3 69.3355 38.6147   4
  12  -2   3 74.2001 36.1230   4
  12   2   3 85.6852 26.0172   3
  12   2   4 980.976 54.8900   4
  12  -2   4 1015.65 58.0967   4
  12   2   4 1005.43 45.0801   3
  12   2   5 109.209 44.9303   4
  12  -2   5 80.6641 44.3184   4
  12   2   5 5.08851 28.1196   3
  12   2   6 4.50563 39.4207   4
  12   2   6 21.4590 28.5959   3
 -12  -3  14-52.3109 35.8831   1
 -12   3  14 41.8657 39.2213   1
 -12   3  13 38.4702 42.2111   1
 -12  -3  13-9.39569 39.3178   1
  12  -3 -12 20.8857 27.7193   2
 -12   3  12 38.3925 38.2588   1
 -12  -3  12 49.4098 36.9981   1
  12  -3 -11-8.85981 27.7363   2
 -12   3  11 3.27223 31.4246   1
 -12  -3  11 31.0812 35.6743   1
  12  -3 -10 94.9734 34.4014   2
 -12   3  10-6.84331 34.7478   1
  12  -3  -9-1.63139 27.5212   2
 -12   3   9 12.7907 31.3147   1
  12  -3  -8-1.49805 27.2238   2
  12   3  -8-44.6243 29.9688   2
 -12   3   8-26.6252 28.3601   1
  12  -3  -7-13.6434 27.8967   2
  12   3  -7-23.0155 27.1415   2
 -12   3   7 18.6405 25.2535   1
  12  -3  -6-7.39600 21.5169   4
  12   3  -6 14.7709 28.3843   2
  12   3  -6-9.93379 21.3738   3
 -12   3   6 1.46169 21.9133   1
  12  -3  -5 1.45698 22.5823   4
  12   3  -5 10.8178 26.9233   2
  12   3  -5 21.1853 18.6444   3
  12  -3  -4 36.4047 28.4296   4
  12   3  -4 17.1739 25.9775   2
  12   3  -4 17.1369 19.0253   3
  12  -3  -3-16.2573 27.6604   4
  12   3  -3 20.1883 27.2002   2
  12   3  -3-14.4509 21.0349   3
  12  -3  -2 26.6988 29.5754   4
  12   3  -2-5.92572 24.7647   2
  12   3  -2 32.5573 31.7810   4
  12   3  -2 13.3107 20.2812   3
  12   3  -1-11.2458 32.6655   4
  12   3  -1 18.2472 21.4885   2
  12  -3  -1 3.10169 30.6713   4
  12   3  -1-8.66858 21.1638   3
  12   3   0 38.4435 33.0948   4
  12  -3   0-22.7660 37.5722   4
  12   3   0-17.9967 21.3622   3
  12   3   1 37.9238 34.2085   4
  12  -3   1-50.2122 38.7867   4
  12   3   1-14.1802 22.1153   3
  12   3   2 4.00798 35.5257   4
  12  -3   2-17.8515 34.5906   4
  12   3   2 13.1076 23.3853   3
  12   3   3 9.84377 32.5488   4
  12   3   3 79.8525 29.4480   3
  12   3   4-26.4381 36.2292   4
  12  -3   4-42.8977 37.4362   4
  12   3   4 27.0362 26.4359   3
  12   3   5-11.7352 34.9384   4
  12  -3   5-91.1462 46.9668   4
  12   3   5-67.1347 24.8162   3
  12  -3   6-110.561 54.8052   4
  12   3   6 79.7533 33.6166   3
 -12   4  14 38.2434 43.0281   1
 -12   4  13 56.8337 39.8978   1
  12  -4 -12 66.2864 31.1567   2
 -12   4  12 44.9728 33.1608   1
  12  -4 -11 343.230 33.8808   2
 -12   4  11 187.539 37.5266   1
  12  -4 -10 687.731 43.0104   2
 -12   4  10 705.967 44.8661   1
  12  -4  -9 36.9265 28.5201   2
 -12   4   9-20.8497 31.2043   1
  12  -4  -8 175.724 31.8186   2
 -12   4   8 193.779 31.8136   1
  12   4  -7 234.383 35.2484   2
 -12   4   7 170.504 27.8860   1
  12  -4  -6 189.868 25.7745   4
  12   4  -6 174.512 26.8846   3
  12   4  -6 100.668 27.8987   2
 -12   4   6 166.634 25.4463   1
  12  -4  -5 23.6125 24.5691   4
  12   4  -5-18.9866 27.2046   2
  12   4  -5 32.5194 20.6236   3
  12  -4  -4 1950.70 51.6712   4
  12   4  -4 1893.69 52.1452   2
  12   4  -4 1957.65 48.3985   3
  12  -4  -3 1041.89 42.4036   4
  12   4  -3 975.200 40.1175   2
  12   4  -3 917.612 37.6811   3
  12  -4  -2 1958.26 56.0239   4
  12   4  -2 1738.22 47.8740   2
  12   4  -2 1749.56 47.5028   3
  12   4  -1 247.187 36.3902   4
  12  -4  -1 194.872 36.6495   4
  12   4  -1 91.4312 22.1397   2
  12   4  -1 129.754 24.1808   3
  12   4   0 864.939 45.8300   4
  12  -4   0 837.322 47.5993   4
  12   4   0 828.359 38.5290   3
  12   4   1 149.442 36.6708   4
  12  -4   1 141.923 37.4769   4
  12   4   1 166.094 29.4774   3
  12   4   2 46.7269 37.2445   4
  12  -4   2 17.2271 41.0178   4
  12   4   2 69.5892 27.8074   3
  12   4   3 25.9137 34.1869   4
  12  -4   3 6.23219 42.2796   4
  12   4   3-3.81921 27.9220   3
  12   4   4 495.823 49.0997   4
  12  -4   4 442.907 47.3745   4
  12   4   4 371.763 36.8269   3
  12   4   5 266.208 46.7171   4
  12  -4   5 194.061 52.1882   4
  12   4   5 164.990 36.0611   3
  12  -4   6-20.7737 52.9323   4
  12   4   6 85.1122 33.4289   3
 -12   5  14-62.9990 40.7702   1
 -12   5  13 17.2033 38.2841   1
  12  -5 -12-6.29675 26.3588   2
 -12   5  12-47.2725 33.4775   1
  12  -5 -11-12.8759 25.9366   2
 -12   5  11-48.8233 31.3360   1
  12  -5 -10 28.2125 28.2304   2
 -12   5  10-31.9324 31.4574   1
  12  -5  -9-36.0808 30.9080   2
 -12   5   9-55.1715 32.3930   1
 -12   5   8-20.3709 28.8238   1
 -12   5   7-0.40269 24.0849   1
  12  -5  -6 8.07523 23.3668   4
  12   5  -6 22.8092 22.2507   3
 -12   5   6-13.3672 23.0417   1
  12  -5  -5 16.8608 24.4369   4
  12   5  -5 25.1888 21.5143   3
  12  -5  -4-19.1432 27.8561   4
  12   5  -4 20.3599 21.3558   3
  12  -5  -3-16.6398 28.9888   4
  12   5  -3 41.4614 26.3307   2
  12   5  -3 5.56755 21.4494   3
  12  -5  -2-6.98737 32.1887   4
  12   5  -2 11.1652 21.5867   3
  12  -5  -1 31.0409 33.4316   4
  12   5  -1-34.1048 23.8368   3
  12   5   0 37.7711 34.9067   4
  12  -5   0-24.3266 38.7264   4
  12   5   0-4.35087 22.8548   3
  12   5   1-0.83587 34.1928   4
  12  -5   1-54.4093 38.9733   4
  12   5   1 9.09725 23.5713   3
  12   5   2-17.2972 35.6972   4
  12  -5   2-98.8172 41.0430   4
  12   5   2 6.48391 25.0067   3
  12   5   3-40.8178 35.8467   4
  12  -5   3-81.5309 41.9032   4
  12   5   3-9.23751 25.7802   3
  12   5   4-90.2798 40.1941   4
  12  -5   4-69.9811 38.3573   4
  12  -5   5 28.8433 49.9922   4
  12   5   5 71.2206 29.1321   3
  12   5   6-77.2771 29.7806   3
 -12   6  14-3.23778 43.7859   1
 -12   6  13 6.16025 36.4685   1
 -12   6  12 55.8823 36.3994   1
  12  -6 -11 56.8795 31.0076   2
 -12   6  11 78.6032 34.8260   1
 -12   6  10 272.411 35.8052   1
  12  -6 -10 235.176 33.6779   2
 -12   6   9 21.3770 26.5642   1
 -12   6   8 802.046 40.4030   1
 -12   6   7 378.979 30.9673   1
 -12   6   6 648.971 32.5095   1
  12   6  -6 598.209 37.1137   3
  12  -6  -5 55.1013 24.4100   4
  12   6  -5 87.9759 25.2945   3
  12  -6  -4 51.6732 26.4172   4
  12   6  -4 44.0733 23.7089   3
  12  -6  -3 1369.18 48.4238   4
  12   6  -3 1255.75 44.2748   3
  12  -6  -2 2501.00 62.7821   4
  12   6  -2 2374.47 57.1377   3
  12  -6  -1 351.124 41.1954   4
  12   6  -1 353.118 32.6791   3
  12  -6   0 628.772 47.2799   4
  12   6   0 726.799 40.5221   3
  12   6   1 430.515 34.2111   3
  12   6   2 414.799 45.3766   4
  12   6   2 260.021 33.3189   3
  12   6   3 83.3838 39.5345   4
  12   6   3-14.6510 27.3023   3
  12   6   4 134.892 44.2523   4
  12  -6   4 32.1762 38.3163   4
  12   6   4 128.171 30.3568   3
  12   6   5 124.420 45.7265   4
  12   6   5 70.2169 30.5964   3
 -12   7  13-22.3978 34.0184   1
 -12   7  12 90.0272 34.2856   1
  12  -7 -11 35.2221 27.3112   2
 -12   7  11-13.6118 30.4341   1
  12  -7 -10 14.8293 28.7089   2
 -12   7  10-5.92316 29.5012   1
 -12   7   9 27.0249 27.3141   1
 -12   7   8 46.8272 27.9694   1
 -12   7   7 41.5149 25.2419   1
 -12   7   6-2.15733 21.0756   1
  12   7  -6 8.78452 25.0885   3
  12  -7  -5 38.1063 26.6342   4
  12   7  -5 20.9863 25.5391   3
  12  -7  -4-13.0569 28.3362   4
  12   7  -4 40.1948 23.9938   3
  12  -7  -3 62.9212 30.7950   4
  12   7  -3 26.9652 25.2406   3
  12  -7  -2 8.46756 31.4184   4
  12   7  -2 39.2413 26.5933   3
  12   7  -1 26.9353 27.2978   3
  12   7   0 51.7324 25.9713   3
  12   7   1-30.5727 26.6271   3
  12   7   2-14.2681 27.6075   3
  12   7   3 12.5261 27.0404   3
  12   7   4 50.1249 31.8687   3
  12   7   5-35.0579 31.2578   3
 -12   8  14-2.75857 35.1949   1
 -12   8  13 69.5647 36.0333   1
 -12   8  12 49.6201 34.6783   1
  12  -8 -11 78.1971 31.5314   2
 -12   8  11 104.556 30.3159   1
 -12   8  10 85.8248 31.4187   1
 -12   8   9 318.249 35.2338   1
 -12   8   8 369.890 32.7804   1
 -12   8   7 27.7223 24.6106   1
 -12   8   6 287.945 27.8265   1
  12   8  -6 400.919 35.4199   3
  12  -8  -5 319.530 30.4614   4
  12   8  -5 337.706 33.3959   3
  12  -8  -4 617.873 38.0583   4
  12   8  -4 569.549 37.1110   3
  12  -8  -3 796.056 40.9267   4
  12   8  -3 808.960 40.6727   3
  12   8  -2 960.285 42.5684   3
  12   8  -1 106.739 28.1324   3
  12   8   0 44.9089 23.7231   3
  12   8   1 25.5077 24.4485   3
  12   8   2 129.823 30.6618   3
  12   8   3 81.1823 31.1591   3
  12   8   4-22.4092 31.5657   3
 -12   9  13-29.8812 38.2585   1
 -12   9  12 5.78277 34.4266   1
  12  -9 -11 26.1795 30.0910   2
 -12   9  11 40.9729 30.8553   1
 -12   9  10-7.70064 30.3661   1
 -12   9   9-31.6883 29.7565   1
 -12   9   8-12.5754 27.8011   1
 -12   9   7 0.00000 24.1252   1
  12   9  -6 25.7632 29.9990   3
  12   9  -5 53.3471 27.1206   3
  12  -9  -4-37.5552 29.3960   4
  12   9  -4 64.0175 26.4570   3
  12   9  -3 5.00298 24.5323   3
  12   9  -2 28.6337 23.9831   3
  12   9  -1 49.7228 27.3549   3
  12   9   0 14.6704 25.4663   3
  12   9   1-14.5135 26.7056   3
  12   9   2 75.4146 28.5269   3
  12   9   3 69.5686 28.5226   3
 -12  10  13 20.3745 35.1952   1
 -12  10  12 80.3765 28.8357   1
 -12  10  11-3.09291 31.3936   1
 -12  10  10 60.1034 30.8724   1
 -12  10   9 77.1577 31.0260   1
 -12  10   8 416.782 35.7115   1
 -12  10   7 321.836 32.8560   1
  12  10  -7 266.475 33.8524   3
  12  10  -6 566.908 38.0372   3
  12  10  -5 39.6335 26.1941   3
  12  10  -4 238.552 30.9721   3
  12  10  -3-3.55620 22.5910   3
  12  10  -2 453.448 33.3887   3
  12  10  -1 129.486 28.8661   3
  12  10   0 84.3110 26.3779   3
  12  10   1 95.7306 33.1972   3
  12  10   2 67.6939 27.5045   3
  12  10   3 11.2196 25.1439   3
  12  10   4-102.710 27.0187   3
 -12  11  13 59.6485 35.4069   1
 -12  11  12-21.7385 33.2461   1
 -12  11  11-22.6442 33.3176   1
 -12  11  10 40.5629 31.4280   1
 -12  11   9 12.7030 31.1862   1
 -12  11   8-24.5347 26.5397   1
  12  11  -7-13.5341 26.0756   3
 -12  11   7-24.8527 25.0757   1
  12  11  -6-9.94774 26.6645   3
  12  11  -5-0.08978 27.2325   3
  12  11  -4 32.5523 26.4912   3
  12  11  -3-9.94285 25.3044   3
  12  11  -2 32.0560 26.6801   3
  12  11  -1 33.8355 26.6161   3
  12  11   0 6.04662 27.9545   3
  12  11   1 0.21313 26.6721   3
  12  11   2 17.4098 32.3881   3
  12  11   3-84.0074 32.1530   3
 -12  12  12-4.43779 34.4910   1
 -12  12  11 120.127 33.8442   1
 -12  12  10 41.2251 33.6511   1
 -12  12   9 117.570 33.7664   1
 -12  12   8 2.35128 26.5068   1
  12  12  -7 89.0888 28.4779   3
 -12  12   7 94.8847 27.4096   1
  12  12  -6 41.9656 26.0449   3
  12  12  -5 21.4260 28.7436   3
  12  12  -4 122.686 31.3727   3
  12  12  -3 1.76728 28.2613   3
  12  12  -2 147.344 29.7153   3
  12  12  -1 182.860 32.1658   3
  12  12   0 136.006 30.4709   3
  12  12   1 146.868 32.6416   3
  12  12   2 56.0835 26.8045   3
  12  12   3-18.8803 27.8253   3
 -12  13  12-1.30447 35.8871   1
 -12  13  11 103.281 38.8179   1
 -12  13  10-12.6102 32.8214   1
 -12  13   9-53.8791 27.5684   1
 -12  13   8 17.3294 27.9654   1
  12  13  -7 56.9341 30.8980   3
 -12  13   7 29.1548 23.4259   1
  12  13  -6 2.63922 26.7562   3
  12  13  -5-0.59061 25.9081   3
  12  13  -4 6.30949 28.4588   3
  12  13  -3-7.94117 26.8251   3
  12  13  -2 35.2901 30.2850   3
  12  13  -1 38.4869 29.1861   3
  12  13   0-2.36269 29.3177   3
  12  13   1 28.8230 29.1755   3
  12  13   2 47.2898 31.4723   3
 -12  14  12 129.429 34.1600   1
 -12  14  11 84.8745 33.1895   1
 -12  14  10 9.79776 28.5033   1
 -12  14   9 118.006 32.2551   1
  12  14  -8 81.4275 30.0119   3
 -12  14   8 162.776 28.2682   1
  12  14  -7 48.6425 31.8986   3
  12  14  -6 39.3399 25.1032   3
  12  14  -5 47.9567 27.5874   3
  12  14  -4-36.8773 25.6466   3
  12  14  -3 15.0815 27.5515   3
  12  14  -2 26.0250 29.1093   3
  12  14  -1 107.652 27.2825   3
  12  14   0 37.9378 29.7619   3
  12  14   1 192.732 36.2760   3
  12  14   2 81.2495 34.2781   3
 -12  15  11-100.952 33.1610   1
 -12  15  10-1.42729 29.3589   1
 -12  15   9 40.6128 29.4506   1
  12  15  -8-15.5239 30.9523   3
 -12  15   8-76.0278 26.7332   1
  12  15  -7-45.3957 31.5561   3
  12  15  -6 43.6955 24.8692   3
  12  15  -5 41.6783 27.0860   3
  12  15  -4-46.8271 25.5280   3
  12  15  -3-26.4832 27.0066   3
  12  15  -2-9.02878 25.7843   3
  12  15  -1 82.7164 29.7216   3
  12  15   0-16.6715 29.4305   3
  12  15   1 20.1128 30.0554   3
  12  15   2 11.3271 31.4042   3
 -12  16  11 90.8846 37.5201   1
 -12  16  10 50.5303 34.8970   1
 -12  16   9 45.8597 27.5223   1
  12  16  -8 61.8298 36.8499   3
 -12  16   8-36.5939 25.2502   1
  12  16  -7-42.4429 32.4650   3
  12  16  -6 20.3953 23.3982   3
  12  16  -5 49.2179 29.5594   3
  12  16  -4 5.88921 28.0085   3
  12  16  -3-41.8079 29.3964   3
  12  16  -2 5.68080 30.2004   3
  12  16  -1 158.305 35.6238   3
  12  16   0 38.0023 33.5131   3
  12  16   1 38.4572 35.1128   3
 -12  17  10 71.9126 30.6343   1
  12  17  -9-103.163 32.6458   3
 -12  17   9-7.05461 28.6366   1
  12  17  -8 21.8504 30.8660   3
 -12  17   8-42.5123 22.4183   1
  12  17  -7-0.61695 25.2192   3
  12  17  -6-47.7762 26.9939   3
  12  17  -5 24.2923 30.4407   3
  12  17  -4 0.22824 30.2474   3
  12  17  -3 0.35502 27.8502   3
  12  17  -2-5.84196 27.9939   3
  12  17  -2 86.1938 31.0598   1
  12  17  -1 51.1492 28.5463   3
  12  17   0-1.77485 30.4927   3
 -12  18  10 49.1666 33.2581   1
 -12  18   9 79.6726 26.5881   1
  12  18  -8-6.83448 37.0749   3
  12  18  -7 55.0658 31.4669   3
  12  18  -6-36.1011 30.1611   3
  12  18  -5 17.4693 31.8536   3
  12  18  -4 81.5854 31.5847   3
  12  18  -3-11.4312 26.7354   3
  12  18  -2-66.8068 29.3713   3
  12  18  -2-3.58103 26.8509   1
  12  18  -1 47.9873 31.2643   3
 -12  19   9-46.8137 24.8036   1
  12  19  -7 48.8253 36.3353   3
  12  19  -6 4.77206 33.5015   3
  12  19  -5-29.1245 29.8473   3
  12  19  -4 20.6083 27.9198   3
  12  19  -3 29.7751 32.6219   3
  12  19  -3 43.8834 31.1236   1
  12  19  -2-91.7483 33.9062   3
  12  20  -3 114.895 37.1707   1
  12  20  -2-38.5725 32.7191   1
 -13   0  14-20.6404 40.0137   1
 -13   0  13-13.4862 37.0558   1
 -13   0  12-5.00928 33.4623   1
 -13   0  11-12.9245 29.0219   1
  13   0 -11-27.0192 32.3020   2
 -13   0  10 0.09280 35.2843   1
  13   0 -10 1.70435 33.7750   2
  13   0  -9 23.5778 33.5829   2
 -13   0   9 6.40934 31.3318   1
  13   0  -8-5.99346 30.0782   2
 -13   0   8 16.0850 28.2763   1
  13   0  -7 11.8899 30.4634   2
 -13   0   7 2.40458 25.2113   1
  13   0  -6-8.56747 28.5644   2
  13   0  -5-6.56423 29.7899   2
  13   0  -4-3.15087 27.2525   4
  13   0  -4 5.59186 28.2500   2
  13   0  -3 48.4791 32.1054   4
  13   0  -3 31.6030 29.1492   2
  13   0  -2-9.84519 31.6046   4
  13   0  -2 25.7374 25.9798   2
  13   0  -1-38.7996 37.3894   4
  13   0  -1 77.4912 28.7378   2
  13   0   0 38.5329 33.4689   4
  13   0   1 2.23063 34.7427   4
  13   0   2 0.99372 39.7760   4
  13   0   3-11.8516 36.3984   4
  13   0   4-4.95831 42.1349   4
  13   0   5 24.2275 50.8386   4
 -13   1  14 77.6566 46.0958   1
 -13  -1  14 53.7269 40.2183   1
 -13   1  13 104.508 41.4871   1
 -13  -1  13 6.47615 40.2619   1
 -13   1  12 41.3274 38.0391   1
  13  -1 -12-46.5434 30.0136   2
 -13  -1  12-30.3022 38.3780   1
 -13   1  11 67.9305 34.9553   1
  13  -1 -11 63.5129 29.4978   2
  13   1 -11 140.928 33.9360   2
 -13  -1  11 45.3334 32.8307   1
  13  -1 -10 497.504 41.1088   2
  13   1 -10 395.313 40.1824   2
 -13   1  10 461.741 44.3477   1
 -13  -1  10 452.118 42.4461   1
  13  -1  -9 879.353 45.7343   2
  13   1  -9 868.806 46.8311   2
 -13   1   9 843.055 44.4891   1
 -13  -1   9 883.885 46.9247   1
  13  -1  -8 407.985 38.6993   2
  13   1  -8 381.503 38.1889   2
 -13   1   8 380.205 37.1595   1
 -13  -1   8 353.246 34.1482   1
  13  -1  -7 193.770 34.2058   2
  13   1  -7 193.610 32.9704   2
 -13   1   7 200.231 29.8949   1
  13  -1  -6 547.394 39.3981   2
  13   1  -6 530.001 40.2029   2
  13   1  -6 465.874 27.5415   3
 -13   1   6 553.044 31.1623   1
  13  -1  -5 825.395 39.5676   4
  13  -1  -5 936.868 44.5566   2
  13   1  -5 870.940 42.1153   2
  13   1  -5 810.212 31.8002   3
  13   1  -4 237.600 33.1815   4
  13   1  -4 247.805 30.1708   2
  13  -1  -4 191.346 29.8666   4
  13  -1  -4 186.279 28.8315   2
  13   1  -4 217.887 23.4264   3
  13  -1  -3 771.089 39.0674   2
  13   1  -3 819.543 43.5309   4
  13  -1  -3 781.714 42.5677   4
  13   1  -3 829.200 40.7077   2
  13  -1  -2 8.10436 24.8540   2
  13  -1  -2 32.2680 31.7132   4
  13   1  -2 20.5977 24.6481   2
  13  -1  -1 1807.70 51.0105   2
  13   1  -1 1906.28 61.7827   4
  13   1  -1 1704.24 49.4665   2
  13  -1  -1 1849.00 59.8897   4
  13   1   0 167.488 37.8455   4
  13  -1   0 212.744 42.3517   4
  13   1   1 674.669 49.6376   4
  13  -1   1 655.146 49.8825   4
  13   1   2 145.308 40.1704   4
  13  -1   2 99.3198 38.5754   4
  13   1   3 274.533 47.1885   4
  13  -1   3 92.7312 44.0842   4
  13   1   4 369.869 52.3680   4
  13  -1   4 163.995 43.5973   4
  13   1   5 156.479 44.1390   4
  13  -1   5-17.5583 49.7131   4
 -13   2  14 2.94986 42.7967   1
 -13  -2  14 55.6397 43.7926   1
 -13   2  13-17.2255 40.3785   1
  13  -2 -13-62.2179 33.6506   2
 -13  -2  13 54.2347 40.9669   1
 -13   2  12-12.7467 35.4503   1
  13  -2 -12-46.7222 30.4167   2
 -13  -2  12 46.8740 34.4030   1
  13  -2 -11 36.8842 29.9572   2
 -13  -2  11 0.72124 36.1222   1
 -13   2  11-47.2203 36.1328   1
  13  -2 -10 26.5413 29.7445   2
  13   2 -10 37.2297 34.7869   2
 -13  -2  10 33.1322 33.6981   1
 -13   2  10 3.90733 35.2720   1
 -13   2   9-23.2519 30.1937   1
  13  -2  -9 21.1012 31.9788   2
  13   2  -9-42.4860 32.2603   2
 -13   2   8-11.0174 27.8788   1
  13  -2  -8 1.95366 30.5850   2
  13   2  -8 6.41711 31.8999   2
 -13   2   7 16.8650 24.2648   1
  13  -2  -7 34.9118 30.8393   2
  13   2  -7 76.4554 33.7573   2
  13  -2  -6 25.2835 26.8402   4
  13  -2  -6-6.38652 29.9793   2
 -13   2   6-9.25804 22.4034   1
  13   2  -6 24.6888 29.3043   2
  13   2  -6-25.6253 19.3758   3
  13  -2  -5-6.71844 27.9659   4
  13  -2  -5-23.9423 28.0203   2
  13   2  -5-35.9549 28.4339   2
  13   2  -5-15.5583 18.6232   3
  13  -2  -4 4.12698 27.9638   2
  13  -2  -4-6.56754 28.2048   4
  13   2  -4-18.9885 27.5339   2
  13   2  -4 54.2222 21.1703   3
  13   2  -3 16.9084 32.9839   4
  13  -2  -3-3.09884 29.4292   4
  13   2  -3-11.7388 24.5922   2
  13   2  -3 18.7652 19.5197   3
  13   2  -2-52.0859 34.6258   4
  13  -2  -2 24.9992 35.8755   4
  13   2  -2-13.9353 23.4825   2
  13   2  -2-94.3888 20.2378   3
  13   2  -1 21.9692 34.2452   4
  13  -2  -1-33.1994 38.0033   4
  13   2  -1 7.73428 21.7715   3
  13   2   0 32.9068 37.6269   4
  13  -2   0 0.35609 35.6792   4
  13   2   0 45.2131 22.6561   3
  13   2   1-20.6641 35.4432   4
  13  -2   1 12.9786 34.3181   4
  13   2   1 37.9170 25.1078   3
  13   2   2-47.9022 39.5428   4
  13  -2   2 63.2728 41.8530   4
  13   2   2 0.18142 25.6776   3
  13   2   3-35.2921 36.9385   4
  13  -2   3 19.6421 43.6970   4
  13   2   4-62.1450 36.3501   4
  13  -2   4 47.0264 47.2021   4
  13   2   5-102.195 48.2463   4
  13  -2   5 46.5867 47.4653   4
 -13   3  14 41.3031 36.9983   1
 -13   3  13 163.657 38.5698   1
  13  -3 -12 165.336 34.0411   2
 -13   3  12 162.036 40.9446   1
  13  -3 -11 18.5450 29.6973   2
 -13   3  11 107.802 34.6810   1
  13  -3 -10 118.871 34.1060   2
 -13   3  10 127.959 36.4665   1
  13   3  -9 347.871 38.6094   2
  13  -3  -9 197.275 34.5157   2
 -13   3   9 328.517 35.5938   1
  13  -3  -8 104.579 34.6501   2
  13   3  -8 17.2411 32.6434   2
 -13   3   8 83.9162 29.3764   1
  13  -3  -7 25.4125 29.1539   2
  13   3  -7 30.5419 22.7871   3
  13   3  -7-2.39453 30.6615   2
 -13   3   7 13.3838 24.6375   1
  13  -3  -6 534.687 40.3477   2
  13  -3  -6 494.645 33.6218   4
  13   3  -6 558.573 39.9807   2
  13   3  -6 445.324 29.5796   3
  13  -3  -5 54.9504 28.0966   4
  13   3  -5 121.542 29.1164   2
  13   3  -5 32.0242 19.3656   3
  13   3  -4 280.763 31.0522   2
  13  -3  -4 253.307 33.7534   4
  13   3  -4 261.923 26.1174   3
  13  -3  -3 1773.74 56.0479   4
  13   3  -3 1752.19 50.6604   2
  13   3  -3 1639.63 45.4325   3
  13   3  -2 316.211 40.6416   4
  13   3  -2 313.767 30.3348   2
  13  -3  -2 174.180 35.4823   4
  13   3  -2 237.670 29.2724   3
  13   3  -1 2183.13 62.3151   4
  13  -3  -1 2182.23 64.2574   4
  13   3  -1 2185.58 55.8208   3
  13   3   0 34.7837 35.2932   4
  13  -3   0 107.477 42.2065   4
  13   3   0 25.8212 22.5929   3
  13   3   1 859.193 47.5794   4
  13  -3   1 810.550 51.2194   4
  13   3   1 719.238 38.4366   3
  13   3   2 126.900 36.7795   4
  13  -3   2 24.6010 40.6751   4
  13   3   2 21.0999 27.7505   3
  13   3   3 222.036 46.5376   4
  13  -3   3 92.6954 43.9851   4
  13   3   3 146.078 27.9484   3
  13   3   4 63.1828 48.1639   4
  13  -3   4 7.79115 47.0559   4
  13   3   4 150.403 31.5554   3
  13   3   5 97.0937 47.7986   4
  13  -3   5 55.1396 47.2813   4
 -13   4  14 50.1969 37.9387   1
 -13   4  13 65.9592 36.5311   1
  13  -4 -12-28.2814 31.3110   2
 -13   4  12-13.1349 32.0436   1
  13  -4 -11 28.8911 28.2247   2
 -13   4  11-24.1781 35.2636   1
  13  -4 -10-19.0990 31.6045   2
 -13   4  10-24.3323 31.1230   1
  13  -4  -9 1.86909 34.5419   2
 -13   4   9-27.6258 29.4623   1
  13  -4  -8-13.7808 33.3453   2
 -13   4   8 1.21841 27.8364   1
  13   4  -7-25.9973 22.4281   3
  13   4  -7 47.6489 31.6683   2
 -13   4   7 35.7833 26.2015   1
  13  -4  -6 20.7712 26.3586   4
  13   4  -6-8.60531 22.9804   3
  13  -4  -5-42.1797 25.5874   4
  13   4  -5-30.3044 21.9173   3
  13  -4  -4 24.8034 28.1422   4
  13   4  -4-5.10254 23.1073   2
  13   4  -4-10.6772 20.6944   3
  13  -4  -3-17.3404 32.6765   4
  13   4  -3-21.8828 24.9006   2
  13   4  -3 25.5496 22.9981   3
  13  -4  -2 25.3559 34.1969   4
  13   4  -2 42.5228 26.0938   3
  13   4  -1 31.6300 33.6712   4
  13  -4  -1 15.4998 37.4824   4
  13   4  -1 33.6909 24.2173   3
  13   4   0-13.8012 33.0632   4
  13  -4   0-57.2368 37.3352   4
  13   4   0-25.3369 25.1439   3
  13   4   1-42.0721 36.3385   4
  13  -4   1-59.7306 39.8364   4
  13   4   1-40.0209 26.8023   3
  13   4   2-37.7129 38.0622   4
  13  -4   2-48.8503 39.0222   4
  13   4   2-17.8721 24.0203   3
  13   4   3-17.0111 40.3257   4
  13  -4   3-50.6698 42.6101   4
  13   4   3 19.1633 27.3639   3
  13   4   4-3.03350 36.8278   4
  13   4   4 17.0247 22.6934   3
  13   4   5-61.9392 48.8646   4
  13  -4   5-33.9839 47.3930   4
 -13   5  14 59.2972 37.0802   1
 -13   5  13-6.32101 39.0856   1
  13  -5 -12 73.0585 31.8853   2
 -13   5  12 1.70465 36.7489   1
  13  -5 -11 40.0679 32.0401   2
 -13   5  11 75.3123 32.1481   1
  13  -5 -10 203.643 31.5713   2
 -13   5  10 164.206 37.6643   1
  13  -5  -9 134.398 33.4212   2
 -13   5   9 115.320 33.3543   1
 -13   5   8 603.217 38.3878   1
 -13   5   7 605.871 36.4016   1
  13   5  -7 532.950 34.7585   3
  13  -5  -6 144.676 26.8755   4
  13   5  -6 98.3463 28.0838   3
  13  -5  -5 67.4051 26.9657   4
  13   5  -5 39.4715 23.7069   3
  13  -5  -4 605.087 37.9050   4
  13   5  -4 725.651 38.7753   2
  13   5  -4 556.625 33.1752   3
  13  -5  -3 80.1034 33.5843   4
  13   5  -3 69.3652 27.2265   2
  13   5  -3 24.5903 26.1552   3
  13  -5  -2 1584.22 55.2943   4
  13   5  -2 1609.45 48.7224   3
  13  -5  -1 131.924 37.4660   4
  13   5  -1 154.050 26.0550   3
  13   5   0 191.444 38.3353   4
  13  -5   0 196.473 38.4002   4
  13   5   0 136.234 28.5089   3
  13   5   1 356.135 45.7495   4
  13  -5   1 373.559 49.5084   4
  13   5   1 272.161 29.2590   3
  13   5   2 82.3953 41.9218   4
  13  -5   2 65.3940 40.9047   4
  13   5   2 144.890 31.6916   3
  13   5   3 34.5750 35.9929   4
  13  -5   3 134.325 46.6950   4
  13   5   3 90.6893 29.0099   3
  13   5   4-43.5905 42.2727   4
  13  -5   4 54.9481 52.5383   4
  13   5   5 12.1731 41.8195   4
  13   5   5 97.2394 26.4354   3
 -13   6  14 14.3767 34.4118   1
 -13   6  13 0.88230 38.4010   1
  13  -6 -12 35.8046 24.5982   2
  13  -6 -11 6.17519 30.1016   2
 -13   6  11-48.1266 35.6093   1
  13  -6 -10-17.9171 31.6506   2
 -13   6  10-21.5248 29.0063   1
  13  -6  -9 24.1321 34.7798   2
 -13   6   9-8.94080 31.9949   1
 -13   6   8 27.5706 27.8132   1
  13   6  -7-23.2455 25.9768   3
 -13   6   7-31.2715 25.8776   1
  13  -6  -6-22.8802 25.0822   4
  13   6  -6-28.7366 23.2183   3
  13  -6  -5-12.9414 28.2396   4
  13   6  -5-9.41095 23.7781   3
  13  -6  -4 16.1156 29.8356   4
  13   6  -4-19.4478 21.6679   3
  13  -6  -3 0.99630 29.3438   4
  13   6  -3-22.2745 23.9452   3
  13  -6  -2-18.1999 34.3311   4
  13   6  -2 28.6357 25.6885   3
  13  -6  -1 16.9060 33.3379   4
  13   6  -1-8.93143 21.1665   3
  13  -6   0 24.4559 33.9821   4
  13   6   0 15.5267 23.5380   3
  13  -6   1-2.16623 41.9160   4
  13   6   1 46.4885 26.6210   3
  13  -6   2-62.2110 41.2971   4
  13   6   2 6.87006 28.0083   3
  13   6   3 162.972 44.9672   4
  13  -6   3-43.8994 46.5120   4
  13   6   4 5.20657 45.7397   4
  13  -6   4 92.8198 45.9462   4
  13   6   4 54.9343 25.5800   3
 -13   7  13-26.2542 39.2831   1
  13  -7 -12 0.40506 30.3856   2
 -13   7  12 13.8172 36.3816   1
 -13   7  11 282.777 39.3792   1
  13  -7 -11 237.150 33.1835   2
  13  -7 -10 127.561 34.8163   2
 -13   7  10 153.127 33.9552   1
 -13   7   9 220.460 31.8112   1
 -13   7   8 207.841 29.2771   1
  13   7  -7 148.466 30.0904   3
 -13   7   7 163.139 28.8300   1
  13   7  -6 609.379 38.3821   3
  13  -7  -5 120.429 28.9734   4
  13   7  -5 101.712 27.8281   3
  13  -7  -4 59.0057 32.9526   4
  13   7  -4 28.9783 23.1222   3
  13  -7  -3 57.9383 33.7612   4
  13   7  -3 40.5912 26.5521   3
  13  -7  -2 478.172 43.6914   4
  13   7  -2 348.927 31.5354   3
  13  -7  -1-33.0204 33.7501   4
  13   7  -1 12.3263 23.8590   3
  13  -7   0 174.950 36.5365   4
  13   7   0 164.527 27.7273   3
  13  -7   1 186.365 46.2604   4
  13   7   1 245.314 32.2509   3
  13  -7   2 46.7696 44.7570   4
  13   7   2 84.2853 28.2886   3
  13  -7   3 44.2577 46.3500   4
  13   7   3 15.2945 27.4374   3
  13  -7   4-29.7644 49.4635   4
  13   7   4 155.622 28.5727   3
 -13   8  13 24.0988 34.4212   1
  13  -8 -12 98.0767 36.4628   2
 -13   8  12 30.6945 33.3402   1
  13  -8 -11-18.2102 29.2513   2
 -13   8  11-28.4320 33.1343   1
 -13   8  10-43.5330 29.8262   1
 -13   8   9-8.83259 26.5832   1
 -13   8   8 6.47428 26.3152   1
  13   8  -7 22.8380 26.8393   3
  13   8  -6 4.79269 25.6965   3
  13  -8  -5 64.3982 29.3690   4
  13   8  -5-22.6975 24.6565   3
  13  -8  -4-21.5186 26.8926   4
  13   8  -4-80.6312 21.9440   3
  13  -8  -3 51.3339 32.7913   4
  13   8  -3-13.6870 22.6129   3
  13  -8  -2-48.0084 35.1523   4
  13   8  -2-6.68462 25.4255   3
  13  -8  -1-44.9664 35.1774   4
  13   8  -1-77.7343 24.8393   3
  13   8   0 28.8612 26.9219   3
  13   8   1 33.2831 23.7346   3
  13   8   2-111.905 26.7568   3
  13   8   3 37.1974 25.8921   3
  13   8   4 93.0177 27.2605   3
 -13   9  13 53.3071 33.7591   1
 -13   9  12 0.95711 32.6195   1
  13  -9 -11 98.4686 35.1964   2
 -13   9  11 67.2168 33.0458   1
 -13   9  10 63.5629 25.7128   1
 -13   9   9 266.294 35.8407   1
 -13   9   8 269.764 32.1163   1
  13   9  -7 516.279 39.4830   3
  13   9  -6 27.9867 27.7554   3
  13  -9  -5-10.4374 28.6255   4
  13   9  -5 21.9840 23.1087   3
  13  -9  -4 93.9584 30.6561   4
  13   9  -4 35.4739 22.2176   3
  13  -9  -3 1.98689 34.3021   4
  13   9  -3 38.8728 22.5642   3
  13   9  -2 65.7712 25.4832   3
  13   9  -1 14.3458 23.7593   3
  13   9   0 69.2818 29.0058   3
  13   9   1-17.2591 25.0861   3
  13   9   2 39.5941 27.1860   3
  13   9   3 244.238 37.3747   3
  13   9   4 128.937 33.7285   3
 -13  10  13-48.9717 37.6830   1
 -13  10  12 20.4999 31.3264   1
 -13  10  11 38.6634 35.3634   1
 -13  10  10 5.98477 29.5916   1
 -13  10   9-4.03972 27.8598   1
 -13  10   8-14.0759 27.5277   1
  13  10  -7 23.3370 31.2535   3
  13  10  -6 12.9372 23.8663   3
  13  10  -5-22.8581 25.5950   3
  13 -10  -4-35.7278 28.2520   4
  13  10  -4-20.8516 22.5495   3
  13  10  -3-13.5386 22.7586   3
  13  10  -2-78.8505 24.8715   3
  13  10  -1-42.1609 26.7195   3
  13  10   0 28.6137 27.0210   3
  13  10   1-44.0523 32.1401   3
  13  10   2-20.1552 30.4916   3
  13  10   3 74.2319 36.6161   3
 -13  11  13 68.1111 33.9220   1
 -13  11  12 64.0386 35.1375   1
 -13  11  11 21.1659 33.7125   1
 -13  11  10-1.79619 30.4449   1
 -13  11   9-1.35219 28.1359   1
 -13  11   8 88.6850 29.7301   1
  13  11  -8 41.6715 26.1045   3
  13  11  -7 11.6315 30.3666   3
  13  11  -6 45.1902 29.5588   3
  13  11  -5 48.7653 24.6822   3
  13  11  -4 75.1720 27.9335   3
  13  11  -3-14.5565 24.9039   3
  13  11  -2 270.271 33.6533   3
  13  11  -1 43.2305 29.8848   3
  13  11   0 41.2958 28.9407   3
  13  11   1-15.3677 25.9811   3
  13  11   2-6.64706 26.6667   3
  13  11   3 194.925 32.0905   3
 -13  12  12-46.8585 33.8228   1
 -13  12  11-16.9333 28.4011   1
 -13  12  10 19.5811 32.9312   1
 -13  12   9 81.7099 30.0565   1
 -13  12   8 65.0359 29.2874   1
  13  12  -8-2.59855 28.0843   3
  13  12  -7-54.6820 30.5846   3
  13  12  -6 45.3439 29.1428   3
  13  12  -5 54.0142 28.7339   3
  13  12  -4-3.69992 25.0604   3
  13  12  -3-25.7798 26.0264   3
  13  12  -2-79.9709 26.6487   3
  13  12  -1-6.57952 28.2966   3
  13  12   0 55.1301 33.8773   3
  13  12   1 0.00000 30.1286   3
  13  12   2 13.7755 32.8174   3
 -13  13  12 40.4259 36.0619   1
 -13  13  11 3.65802 35.2710   1
 -13  13  10 69.9678 28.2338   1
 -13  13   9 65.1017 31.0893   1
  13  13  -8 280.066 35.6303   3
  13  13  -7 100.519 32.0483   3
  13  13  -6 15.7376 26.6734   3
  13  13  -5 185.565 31.9847   3
  13  13  -4 105.403 29.7705   3
  13  13  -3 46.8578 28.5280   3
  13  13  -2 29.4587 27.6320   3
  13  13  -1 40.7074 30.8376   3
  13  13   0 181.510 36.3860   3
  13  13   1 155.926 35.8205   3
  13  13   2 168.697 36.3156   3
 -13  14  11 62.0693 32.9768   1
 -13  14  10-19.3069 28.8540   1
  13  14  -9-4.44912 30.9628   3
 -13  14   9-84.8374 26.8577   1
  13  14  -8 94.1596 36.6996   3
  13  14  -7-26.3312 30.9042   3
  13  14  -6-10.8020 25.6636   3
  13  14  -5 33.3941 28.9866   3
  13  14  -4 39.7933 28.3867   3
  13  14  -3-11.4671 25.7689   3
  13  14  -2-81.3872 24.2573   3
  13  14  -1 14.5325 29.7651   3
  13  14   0 5.07432 30.9828   3
  13  14   1-0.64502 31.6610   3
 -13  15  11-5.43002 27.5483   1
  13  15  -9 8.60192 31.3452   3
 -13  15   9 70.9917 28.8585   1
  13  15  -8 105.200 36.6006   3
  13  15  -7 67.7085 33.2418   3
  13  15  -6-88.7621 25.7735   3
  13  15  -5 65.3362 31.8986   3
  13  15  -4 92.1800 34.6363   3
  13  15  -3 92.5725 34.2386   3
  13  15  -2-17.5713 31.7884   3
  13  15  -1-9.27962 35.0613   3
  13  15   0 151.924 36.6042   3
 -13  16  10-34.2905 26.1759   1
  13  16  -9 23.8466 26.8152   3
 -13  16   9 37.5758 31.0080   1
  13  16  -8-94.1619 31.0102   3
  13  16  -7 100.335 30.3319   3
  13  16  -6-41.6802 25.1558   3
  13  16  -5-22.0360 30.1561   3
  13  16  -4 23.3438 26.9465   3
  13  16  -3 13.1145 28.4905   3
  13  16  -2-89.1666 28.9807   3
  13  16  -1-22.4928 30.0181   3
  13  16   0 92.8980 37.4985   3
 -13  17  10 51.5510 26.8826   1
  13  17  -8-78.6761 28.1902   3
  13  17  -7 50.4218 29.0819   3
  13  17  -6 17.8996 26.1082   3
  13  17  -5-23.4134 30.4764   3
  13  17  -4 74.6844 31.3833   3
  13  17  -3 45.1476 36.0864   3
  13  17  -2-1.40621 30.8515   3
  13  18  -7 1.19251 30.0648   3
  13  18  -6 35.3123 27.3319   3
  13  18  -5-34.6054 30.8379   3
  13  18  -4-44.5474 35.0896   3
  13  18  -3 17.7176 29.6206   3
  13  19  -3 117.268 33.3097   1
 -14   0  14-39.9739 38.7967   1
 -14   0  13-54.5866 37.8938   1
  14   0 -12 17.5372 28.4123   2
  14   0 -11-48.6312 27.5524   2
 -14   0  11-38.3486 31.4786   1
  14   0 -10 235.540 36.1536   2
 -14   0  10 252.106 38.2302   1
  14   0  -9 20.7526 32.8723   2
 -14   0   9 23.8014 30.6156   1
  14   0  -8 708.546 45.8737   2
 -14   0   8 787.277 41.8446   1
  14   0  -7 20.8516 34.2882   2
  14   0  -6 130.740 31.1641   2
  14   0  -5-30.2603 28.1180   2
  14   0  -4 1148.30 49.1499   4
  14   0  -4 1068.53 46.2626   2
  14   0  -3 51.2041 35.5780   4
  14   0  -3-8.12352 24.4873   2
  14   0  -2 329.726 31.1331   2
  14   0  -2 414.640 39.8912   4
  14   0  -1-43.1933 33.5622   4
  14   0   0 889.629 51.9720   4
  14   0   1 23.1081 39.5561   4
  14   0   2 154.542 43.9342   4
  14   0   3 38.1879 39.4595   4
  14   0   4 134.658 48.8598   4
 -14   1  14 29.9177 35.4251   1
 -14  -1  14 166.602 48.2751   1
 -14   1  13 18.3739 40.2004   1
  14  -1 -13 40.6607 29.8704   2
 -14  -1  13 71.7822 37.4983   1
 -14   1  12 23.2735 33.3539   1
 -14  -1  12 61.3420 36.9553   1
 -14   1  11 55.4982 35.3774   1
  14  -1 -11 29.2008 30.6425   2
  14   1 -11 12.3615 32.8242   2
 -14  -1  11 23.1499 37.4922   1
 -14   1  10 6.67079 33.6252   1
  14  -1 -10 8.76483 32.0803   2
  14   1 -10-27.5188 30.1238   2
 -14  -1  10 27.6338 35.7624   1
  14  -1  -9-12.2671 30.5439   2
 -14   1   9 5.54348 28.8487   1
  14   1  -9 47.3783 34.7092   2
  14  -1  -8 25.6337 34.0228   2
  14   1  -8 28.6946 35.0419   2
 -14   1   8 11.2181 28.8483   1
  14  -1  -7-22.7430 33.6250   2
  14   1  -7-14.9072 32.2044   2
 -14   1   7 11.1897 24.6629   1
  14  -1  -6 1.12287 30.0373   2
  14   1  -6-19.7050 27.0232   2
  14  -1  -5 9.34321 30.1326   4
  14  -1  -5 46.3250 30.4891   2
  14   1  -5 10.9440 26.1111   2
  14   1  -4 23.8125 30.3430   4
  14  -1  -4 14.3595 31.6703   4
  14  -1  -4 24.0849 31.2478   2
  14   1  -4 33.7481 28.6461   2
  14   1  -3-26.9203 30.7874   4
  14  -1  -3 6.94114 32.4097   4
  14  -1  -3 20.5100 25.2332   2
  14   1  -3 71.7546 29.8725   2
  14   1  -2 15.6215 36.2340   4
  14  -1  -2 12.2070 24.9188   2
  14  -1  -2-16.9568 36.1896   4
  14   1  -2 20.8787 25.5576   2
  14   1  -1 35.5566 37.8566   4
  14  -1  -1 58.2008 37.6301   4
  14   1   0-5.97313 35.5325   4
  14  -1   0 31.0192 41.0511   4
  14   1   1-17.5421 35.4855   4
  14  -1   1 17.3751 41.1265   4
  14   1   2-50.0994 43.4897   4
  14  -1   2-1.31914 35.6625   4
  14   1   3-16.3439 44.5715   4
  14  -1   3-4.20799 41.7283   4
  14   1   4-74.7246 49.1098   4
  14  -1   4 18.5137 41.5398   4
 -14   2  14 84.6305 44.7016   1
 -14  -2  14 15.4673 42.6342   1
 -14   2  13 14.0579 34.6036   1
 -14  -2  13 107.332 45.1015   1
 -14   2  12 132.334 38.5151   1
  14  -2 -12 107.856 29.0139   2
 -14  -2  12 96.5347 38.4143   1
 -14   2  11 47.0398 34.3508   1
  14  -2 -11 29.6837 30.6898   2
  14  -2 -10 498.732 42.5242   2
  14   2 -10 469.371 42.6485   2
 -14   2  10 491.608 40.4545   1
  14  -2  -9 230.107 34.4048   2
  14   2  -9 206.607 36.6085   2
 -14   2   9 263.600 33.8255   1
  14  -2  -8 237.008 38.1465   2
  14   2  -8 268.264 37.7163   2
 -14   2   8 280.569 34.1413   1
  14  -2  -7 611.920 44.0070   2
  14   2  -7 629.552 43.8872   2
  14   2  -7 586.611 33.8498   3
  14  -2  -6 36.4053 28.4494   4
  14  -2  -6 30.0967 30.3206   2
  14   2  -6 26.5789 30.2665   2
  14  -2  -5-25.5885 29.1510   4
  14  -2  -5-13.2041 28.5937   2
  14   2  -5-14.1792 25.4417   2
  14  -2  -4 282.105 34.7296   4
  14  -2  -4 264.524 32.6703   2
  14   2  -4 209.585 33.3925   2
  14   2  -3 62.0621 36.3643   4
  14  -2  -3 22.8296 28.0582   2
  14  -2  -3-7.48998 31.9472   4
  14   2  -3 2.63744 25.3813   2
  14  -2  -2 181.042 30.0096   2
  14   2  -2 129.503 36.2583   4
  14  -2  -2 191.346 36.3238   4
  14   2  -2 133.523 27.2579   2
  14   2  -1 35.9877 35.5301   4
  14  -2  -1 60.9757 38.6151   4
  14   2   0 227.553 40.6847   4
  14  -2   0 116.553 38.4276   4
  14   2   1 46.4355 40.2436   4
  14  -2   1-20.4708 38.6377   4
  14   2   2 76.3728 37.2658   4
  14  -2   2 9.77047 42.2565   4
  14   2   3 157.192 48.2622   4
  14  -2   3 64.4401 48.2329   4
  14   2   4 98.0055 47.0728   4
  14  -2   4 57.1213 41.9364   4
 -14   3  14-43.1950 42.2756   1
 -14   3  13-36.5453 36.6173   1
  14  -3 -13-38.1399 29.2827   2
  14  -3 -12 36.7456 33.9772   2
 -14   3  12-18.9021 36.7526   1
  14  -3 -11 45.3162 29.7687   2
 -14   3  11 0.63220 29.0413   1
  14  -3 -10 71.5631 34.8041   2
 -14   3  10-10.3697 32.4802   1
 -14   3   9-16.1837 27.9287   1
  14  -3  -9-23.9213 35.1162   2
  14   3  -9 24.5933 33.5796   2
 -14   3   8 5.13652 27.2593   1
  14  -3  -8 10.5011 29.0193   2
  14   3  -8-60.9554 34.7115   2
  14  -3  -7 0.89873 30.8766   2
  14   3  -7-28.9415 32.0306   2
  14   3  -7 17.4761 24.9621   3
  14  -3  -6-27.1710 29.9628   4
  14  -3  -6-11.7327 28.9929   2
  14   3  -6 6.93996 31.3871   2
  14   3  -6-6.57904 20.9869   3
  14  -3  -5 14.6713 31.9904   2
  14  -3  -5 30.1889 29.7325   4
  14   3  -5 39.4096 30.4088   2
  14   3  -5-5.46898 21.5730   3
  14  -3  -4-41.4599 30.9477   4
  14   3  -4 14.6053 26.0242   2
  14   3  -4-22.3513 22.0838   3
  14  -3  -3 31.0658 32.5372   4
  14   3  -3 41.0068 25.8749   2
  14   3  -3-4.40947 20.6867   3
  14   3  -2 36.6073 37.4469   4
  14  -3  -2-6.88530 35.7187   4
  14   3  -2 12.7403 26.4378   2
  14   3  -2-20.4555 20.2599   3
  14   3  -1-24.8528 35.8852   4
  14  -3  -1-16.4363 32.0726   4
  14   3  -1 21.5601 25.8824   3
  14   3   0-29.1395 36.9734   4
  14  -3   0-17.8392 40.0699   4
  14   3   0 10.6165 24.6072   3
  14   3   1-11.8823 36.4137   4
  14  -3   1 42.5447 36.2550   4
  14   3   2 6.11242 42.9875   4
  14  -3   2 59.9199 44.7168   4
  14   3   3 78.9377 39.6962   4
  14  -3   3 69.8301 49.4658   4
  14   3   4 88.6992 46.2923   4
 -14   4  14 26.6924 41.4870   1
  14  -4 -13 184.453 36.8735   2
 -14   4  13 111.002 43.1450   1
  14  -4 -12-13.1421 32.0413   2
 -14   4  12 103.154 34.1231   1
  14  -4 -11 166.550 33.7558   2
 -14   4  11 151.732 40.6828   1
  14  -4 -10-39.6791 31.6957   2
 -14   4  10 72.6008 34.9845   1
  14  -4  -9 131.753 32.9723   2
 -14   4   9 145.818 30.4993   1
  14  -4  -8 74.3580 35.1456   2
 -14   4   8 90.5497 26.5861   1
  14  -4  -7 379.993 38.2659   2
  14   4  -7 414.088 36.9523   2
  14   4  -7 371.167 32.6238   3
  14  -4  -6 196.859 30.4464   4
  14   4  -6 194.706 26.0146   3
  14   4  -6 139.776 32.7283   2
  14  -4  -5 914.255 43.0796   4
  14   4  -5 787.206 41.0975   2
  14   4  -5 923.398 39.0135   3
  14  -4  -4 88.9470 31.6121   4
  14   4  -4-23.4473 27.1786   2
  14   4  -4 43.3700 22.7711   3
  14  -4  -3 231.218 37.5335   4
  14   4  -3 241.274 28.0689   3
  14   4  -3 120.695 28.5988   2
  14  -4  -2 233.184 38.6279   4
  14   4  -2 211.561 28.1376   2
  14   4  -2 202.218 29.3570   3
  14   4  -1 124.839 40.9367   4
  14  -4  -1 150.683 40.9697   4
  14   4  -1 58.7056 23.9561   3
  14   4   0 93.7111 36.4730   4
  14  -4   0 139.217 42.4830   4
  14   4   0 105.918 25.6369   3
  14   4   1 5.23510 40.0461   4
  14  -4   1 11.9662 33.8424   4
  14   4   1-38.3486 26.7184   3
  14   4   2-47.5484 35.3129   4
  14  -4   2 19.1435 42.7829   4
  14   4   2-114.728 23.3677   3
  14   4   3-72.0740 46.7634   4
  14  -4   3 48.3659 47.5462   4
  14   4   3 30.7141 29.1957   3
  14   4   4 107.477 35.0204   3
 -14   5  14 42.4715 46.3269   1
  14  -5 -13 48.0034 33.9021   2
 -14   5  13 77.1653 43.5019   1
  14  -5 -12-10.4451 28.4440   2
 -14   5  12 4.87167 33.9534   1
  14  -5 -11-1.75804 32.5906   2
 -14   5  11 5.61970 36.2584   1
  14  -5 -10 31.5538 32.3693   2
 -14   5  10-19.2301 27.4934   1
  14  -5  -9-45.7452 34.0194   2
 -14   5   9-3.06858 30.0037   1
  14  -5  -8 6.36971 29.2470   2
  14   5  -8-63.1198 21.6151   3
 -14   5   8 14.4713 27.5762   1
  14   5  -7-4.26557 22.2589   3
  14  -5  -6 49.5383 29.8422   4
  14   5  -6 4.42449 23.8772   3
  14  -5  -5-2.29622 27.0924   4
  14   5  -5 18.9123 25.5540   3
  14  -5  -4-8.27030 28.3746   4
  14   5  -4-54.4211 23.5003   3
  14  -5  -3-8.35770 30.2070   4
  14   5  -3-18.5558 22.8729   3
  14  -5  -2 37.3009 34.7072   4
  14   5  -2-4.27965 24.7703   3
  14  -5  -1 5.51450 39.2655   4
  14   5  -1 11.9074 22.2729   3
  14  -5   0-61.3337 41.2990   4
  14   5   0-34.9746 26.4234   3
  14   5   1 15.2443 42.4366   4
  14  -5   1-38.3465 37.6066   4
  14   5   1-76.1949 23.6319   3
  14  -5   2-67.2739 42.2994   4
  14   5   2-19.2618 27.4590   3
  14   5   3 28.7702 42.1219   4
  14   5   3 71.2923 30.9037   3
  14   5   4 56.6464 40.9785   4
  14   5   4-80.9264 24.6603   3
 -14   6  14-20.3299 43.0568   1
 -14   6  13 0.25637 42.3359   1
  14  -6 -12 49.3467 31.4654   2
 -14   6  12 30.9978 41.0386   1
  14  -6 -11 45.0648 32.6152   2
 -14   6  11 46.6972 29.9066   1
  14  -6 -10 5.05359 28.4381   2
 -14   6  10-30.0936 32.7488   1
  14  -6  -9-1.58395 30.1527   2
 -14   6   9-13.1247 29.3748   1
  14   6  -8 0.36682 25.3163   3
 -14   6   8 25.2141 27.7306   1
  14   6  -7 325.394 32.6603   3
  14  -6  -6-7.55744 26.1114   4
  14   6  -6 33.3473 23.1112   3
  14  -6  -5 102.634 28.4342   4
  14   6  -5 108.724 27.1256   3
  14  -6  -4 83.3099 32.4667   4
  14   6  -4 93.6154 27.1105   3
  14  -6  -3 198.164 35.0840   4
  14   6  -3 186.189 27.3982   3
  14  -6  -2 1096.67 51.3045   4
  14   6  -2 1118.08 47.4741   3
  14  -6  -1 350.120 44.3143   4
  14   6  -1 452.016 37.8705   3
  14  -6   0 152.982 45.0874   4
  14   6   0 186.808 31.6321   3
  14  -6   1 213.310 42.3081   4
  14   6   1 181.339 30.0955   3
  14  -6   2 121.401 40.3137   4
  14   6   2 135.893 28.7072   3
  14  -6   3 34.8344 44.7390   4
  14   6   3 52.6904 23.0943   3
  14   6   4-59.5514 29.8609   3
  14  -7 -12-50.0812 30.4717   2
  14  -7 -11 19.0074 28.8022   2
  14  -7 -10-1.23933 29.8212   2
 -14   7  10-24.6791 32.3239   1
 -14   7   9-30.4760 28.6362   1
  14   7  -8-20.5121 26.3594   3
  14   7  -7 4.44757 26.2712   3
  14   7  -6 2.39485 24.5699   3
  14  -7  -5-48.8134 30.7552   4
  14   7  -5 8.63809 23.5771   3
  14  -7  -4 36.7849 33.7569   4
  14   7  -4-8.97039 23.4358   3
  14  -7  -3-18.3931 30.1047   4
  14   7  -3 17.8178 24.3892   3
  14  -7  -2-42.5949 33.4061   4
  14   7  -2 87.0884 25.9465   3
  14  -7  -1 61.2384 41.0131   4
  14   7  -1 46.8939 26.4180   3
  14  -7   0 72.4522 41.8678   4
  14   7   0 17.2823 29.9606   3
  14  -7   1 67.1698 46.6101   4
  14   7   1 32.6059 26.2745   3
  14  -7   2 65.2730 44.4103   4
  14   7   2 77.6028 26.2570   3
  14  -7   3 115.473 55.1089   4
  14   7   3-80.2182 23.8685   3
  14  -8 -12 57.9042 36.0945   2
 -14   8  12-10.6649 37.1851   1
  14  -8 -11 16.0481 28.0749   2
 -14   8  11 74.4351 35.5698   1
 -14   8  10-1.80918 27.0716   1
 -14   8   9 44.5427 26.6547   1
  14   8  -8 54.6057 25.1308   3
  14   8  -7 87.1041 27.3598   3
  14   8  -6 6.71367 27.0303   3
  14  -8  -5 93.4087 33.3228   4
  14   8  -5 123.781 29.2577   3
  14  -8  -4-22.8502 31.9967   4
  14   8  -4 19.9457 25.3057   3
  14  -8  -3-29.0355 30.7009   4
  14   8  -3 38.7916 25.5327   3
  14  -8  -2 419.603 40.7263   4
  14   8  -2 479.715 36.7296   3
  14  -8  -1 211.657 38.9180   4
  14   8  -1 160.922 28.4347   3
  14  -8   0 47.3969 39.2081   4
  14   8   0 145.815 33.3495   3
  14   8   1 46.8751 27.8821   3
  14  -8   2-21.6834 48.6816   4
  14   8   2 58.1754 26.7206   3
  14   8   3-57.6133 26.5656   3
 -14   9  13 39.5359 33.8933   1
  14  -9 -12 73.1725 32.5694   2
 -14   9  12 3.79456 32.9117   1
  14  -9 -11-16.0212 27.7602   2
 -14   9  11 2.46677 32.7870   1
 -14   9  10-33.6231 26.5877   1
 -14   9   9-28.7089 28.4635   1
  14   9  -8 3.89845 27.5749   3
  14   9  -7-93.5639 25.4431   3
  14   9  -6-65.6002 22.2609   3
  14  -9  -5 30.0549 32.7100   4
  14   9  -5 33.2206 26.0354   3
  14  -9  -4-106.314 32.1568   4
  14   9  -4-6.71659 25.4119   3
  14  -9  -3 59.2506 31.8544   4
  14   9  -3 32.3145 24.1891   3
  14  -9  -2-34.7248 38.3589   4
  14   9  -2 51.8571 27.2000   3
  14   9  -1-36.0531 28.4102   3
  14   9   0 61.9055 25.3371   3
  14   9   1 39.1951 29.4965   3
  14   9   2 5.76019 28.6778   3
  14   9   3-54.7632 25.3221   3
 -14  10  13 34.8310 36.5100   1
  14 -10 -12-11.8208 28.4293   2
 -14  10  12-7.46274 29.5291   1
 -14  10  11 82.2525 31.4961   1
 -14  10  10 33.5136 26.9377   1
 -14  10   9 42.0918 28.0167   1
  14  10  -8 70.3561 32.6311   3
  14  10  -7 12.1068 27.0176   3
  14  10  -6-45.0975 25.8955   3
  14  10  -5 97.5598 26.1855   3
  14 -10  -4 145.995 38.2254   4
  14  10  -4 170.014 30.0385   3
  14 -10  -3 4.47520 36.7111   4
  14  10  -3 126.679 26.9622   3
  14 -10  -2 186.223 39.9986   4
  14  10  -2 304.169 35.9862   3
  14  10  -1-17.1509 21.7063   3
  14  10   0 211.988 34.6445   3
  14  10   1 125.045 34.3046   3
  14  10   2-29.2990 35.0250   3
  14 -11 -12-40.3114 28.7822   2
 -14  11  12-6.89608 36.3153   1
 -14  11  11 39.3647 28.3701   1
 -14  11  10-1.72669 25.9545   1
 -14  11   9 24.0714 29.4374   1
  14  11  -9-18.1405 31.8727   3
  14  11  -8 19.6683 33.0388   3
  14  11  -7-0.31802 24.2539   3
  14  11  -6-55.0434 21.2597   3
  14  11  -5 16.3166 23.5854   3
  14 -11  -4 25.8963 33.4202   4
  14  11  -4 19.4545 26.2632   3
  14 -11  -3-63.2953 38.5861   4
  14  11  -3 65.2499 26.8132   3
  14  11  -2 55.2447 30.5551   3
  14  11  -1-34.7411 26.7381   3
  14  11   0 3.03456 24.6443   3
  14  11   1-24.1563 27.6279   3
  14  11   2-39.9406 24.1214   3
 -14  12  12 28.5445 32.3137   1
 -14  12  11 31.8486 31.8359   1
 -14  12  10 54.7621 31.2112   1
  14  12  -9-44.9892 32.6258   3
  14  12  -8 290.496 39.9702   3
  14  12  -7 68.0842 27.7554   3
  14  12  -6 43.6559 29.4085   3
  14  12  -5 26.8238 29.4787   3
  14  12  -4 79.0917 28.0782   3
  14  12  -3-8.67721 26.0457   3
  14  12  -2 198.474 35.5150   3
  14  12  -1 162.036 35.2047   3
  14  12   0 150.526 35.8804   3
  14  12   1-58.5855 33.2026   3
 -14  13  12 2.28490 35.5798   1
 -14  13  11-44.3138 26.5511   1
 -14  13  10 41.8131 26.6807   1
  14  13  -9-37.7827 32.1781   3
  14  13  -8-81.6930 32.1905   3
  14  13  -7 29.4335 30.5209   3
  14  13  -6-45.4758 31.3935   3
  14  13  -5-34.8882 29.5398   3
  14  13  -4-12.9375 28.6613   3
  14  13  -3 49.5285 30.3239   3
  14  13  -2 129.297 32.6281   3
  14  13   0 0.62740 33.3298   3
 -14  14  10 135.212 33.0742   1
  14  14 -10 45.2078 29.6740   3
  14  14  -9 235.006 38.4012   3
  14  14  -8-27.8170 33.2318   3
  14  14  -7 20.5873 32.7721   3
  14  14  -6 37.3799 28.6194   3
  14  14  -5 3.82856 28.8436   3
  14  14  -4-8.83694 31.8540   3
  14  14  -3 47.0628 31.5965   3
  14  14  -2 225.039 37.7949   3
  14  14   0 179.355 35.6207   3
 -14  15  11 18.2565 29.6121   1
 -14  15  10 64.3943 28.6595   1
  14  15  -9 86.7483 36.4555   3
  14  15  -8-44.0495 30.7389   3
  14  15  -7-46.2546 29.9602   3
  14  15  -6 32.7722 26.4754   3
  14  15  -5-28.6706 30.6415   3
  14  15  -4-72.5446 27.7380   3
  14  15  -3 34.4958 25.3816   3
  14  15  -2 88.0210 32.6242   3
  14  16  -8 86.7211 33.7572   3
  14  16  -7 4.23634 32.3195   3
  14  16  -6 76.5677 33.2633   3
  14  16  -5-21.5961 28.8056   3
  14  16  -4-19.5291 30.7947   3
  14  16  -3-4.43059 32.2771   3
  14  16  -2 90.4597 31.1899   3
  14  17  -6 8.61421 32.3090   3
  14  17  -5 19.8685 26.5167   3
  14  17  -4-27.8876 32.7678   3
 -15   0  14 21.3002 43.9422   1
 -15   0  13 55.0556 41.5765   1
  15   0 -12-71.9296 33.7063   2
 -15   0  12 23.3102 37.3849   1
  15   0 -11-50.6933 34.1387   2
 -15   0  11 49.8819 31.6837   1
  15   0 -10 21.7343 31.3529   2
 -15   0  10 20.0011 29.7173   1
  15   0  -9 2.00264 32.8173   2
 -15   0   9 39.2475 31.4012   1
  15   0  -8-30.8188 32.1902   2
  15   0  -7 23.5889 29.4092   2
  15   0  -6 36.7746 30.4142   2
  15   0  -5 1.08319 27.5587   2
  15   0  -4-12.9205 29.4928   4
  15   0  -4-5.42044 26.2011   2
  15   0  -3-18.0899 34.3300   4
  15   0  -3-106.819 26.0458   2
  15   0  -2 58.9661 36.2908   4
  15   0  -2-18.4142 23.5032   2
  15   0  -1-8.89717 38.4984   4
  15   0   0-27.3846 39.8116   4
  15   0   1-93.1972 43.5142   4
  15   0   2-42.9735 39.9756   4
 -15   1  14-52.3245 43.8670   1
 -15  -1  14 19.7540 37.2872   1
 -15   1  13 30.0779 34.6950   1
  15  -1 -13 89.4199 29.8608   2
 -15  -1  13 40.1505 39.0342   1
 -15   1  12-42.7387 33.6244   1
  15  -1 -12-18.3657 27.7510   2
 -15  -1  12 29.2822 32.6129   1
  15  -1 -11 87.1958 31.8412   2
  15   1 -11-39.9959 29.1323   2
 -15   1  11-4.07812 35.9426   1
 -15  -1  11 20.7790 35.6592   1
  15  -1 -10 96.1424 34.9147   2
  15   1 -10 23.0183 34.5902   2
 -15   1  10 23.3715 31.7993   1
  15  -1  -9 71.3540 30.5496   2
  15   1  -9 133.079 37.0206   2
 -15   1   9 107.406 31.6069   1
  15  -1  -8 96.5919 32.3494   2
  15   1  -8 64.1670 34.7668   2
  15  -1  -7 59.5445 34.3660   2
  15   1  -7 91.2831 30.8263   2
  15  -1  -6-24.9187 29.7453   2
  15   1  -6-23.1453 29.5498   2
  15  -1  -5 97.0377 30.9011   4
  15  -1  -5 63.7383 28.4509   2
  15   1  -5 50.0815 28.0737   2
  15   1  -4 80.6717 38.3103   4
  15  -1  -4 26.8459 26.5496   2
  15   1  -4 26.6234 27.8868   2
  15   1  -3 408.709 41.1933   4
  15  -1  -3 535.971 38.3496   2
  15  -1  -3 496.393 41.9546   4
  15   1  -3 573.563 36.7534   2
  15   1  -2-23.8985 38.0873   4
  15  -1  -2-29.4873 34.6771   4
  15  -1  -2 56.8284 27.4328   2
  15   1  -1 254.638 39.6872   4
  15  -1  -1 121.682 40.2939   4
  15   1   0 95.4485 43.5615   4
  15  -1   0 6.09456 35.3799   4
  15   1   1 13.7294 41.3088   4
  15  -1   1 61.3990 44.0133   4
  15   1   2-3.84699 46.3238   4
  15  -1   2 93.6486 41.4146   4
 -15   2  14 29.8178 43.7248   1
 -15   2  13 37.1876 37.1937   1
 -15   2  12 57.9316 39.0469   1
  15  -2 -12 16.4584 33.7610   2
 -15   2  11 22.6462 32.4115   1
  15  -2 -11 0.64134 33.3624   2
 -15   2  10 40.3758 31.2858   1
  15  -2 -10-10.6585 28.9018   2
  15   2 -10-53.6224 34.4686   2
  15  -2  -9 53.4387 35.6585   2
 -15   2   9 6.14489 25.9096   1
  15   2  -9-43.4363 32.2427   2
  15  -2  -8-31.0916 35.5096   2
  15   2  -8-16.7386 34.0849   2
  15  -2  -7 13.1030 34.7992   2
  15   2  -7 13.9101 27.7924   2
  15  -2  -6 40.6333 31.5078   4
  15  -2  -6 59.2369 31.0373   2
  15   2  -6 85.1733 31.8704   2
  15  -2  -5-53.3340 31.6716   4
  15  -2  -5 2.49139 27.1648   2
  15   2  -5 12.1358 25.3532   2
  15  -2  -4 45.5563 33.3049   4
  15  -2  -4 4.51145 25.9026   2
  15   2  -4-9.30013 29.5082   2
  15   2  -3 38.4895 37.6301   4
  15  -2  -3-27.1062 26.9213   2
  15  -2  -3-49.5738 36.6627   4
  15   2  -3-2.87582 26.5758   2
  15   2  -2-13.7552 33.5712   4
  15  -2  -2-67.6870 27.6831   2
  15  -2  -2-43.7621 38.1026   4
  15   2  -1-23.1697 38.5101   4
  15  -2  -1 26.2091 34.5289   4
  15   2   0 1.88362 35.1201   4
  15  -2   0 70.7744 38.5494   4
  15   2   1 41.8854 37.9124   4
  15  -2   1-12.3437 41.5627   4
  15   2   2 117.992 49.4681   4
  15  -2   2-12.2527 40.3897   4
 -15   3  14 36.0293 42.9758   1
 -15   3  13 49.2765 39.8044   1
  15  -3 -13-26.8831 33.4138   2
 -15   3  12 9.85359 35.7315   1
  15  -3 -12 48.6821 30.8853   2
 -15   3  11 83.7922 38.5204   1
  15  -3 -11 3.64381 31.2672   2
 -15   3  10 108.288 31.4080   1
  15  -3 -10 178.103 38.3795   2
 -15   3   9 43.1633 27.7445   1
  15  -3  -9 17.0216 28.7850   2
  15   3  -9 51.3619 32.6166   2
  15  -3  -8 71.1680 33.0175   2
  15   3  -8-21.6979 33.5125   2
  15  -3  -7 144.389 34.4739   2
  15   3  -7 48.6308 30.0860   2
  15  -3  -6 31.1254 26.8181   4
  15  -3  -6 46.9228 33.7568   2
  15   3  -6 26.7144 27.2472   2
  15  -3  -5 47.6188 27.7173   2
  15  -3  -5 95.1164 30.1735   4
  15   3  -5 81.3283 28.8639   2
  15  -3  -4 50.4300 29.0084   2
  15  -3  -4 6.38540 29.7056   4
  15   3  -4 60.7628 27.2642   2
  15  -3  -3 522.933 39.4100   2
  15  -3  -3 426.863 43.5256   4
  15   3  -3 428.567 34.0308   2
  15  -3  -2 117.076 32.6389   2
  15   3  -2 84.2764 45.9150   4
  15  -3  -2 57.2869 39.0555   4
  15   3  -1 57.5444 37.5378   4
  15  -3  -1 39.8542 37.8571   4
  15   3   0-30.0997 40.5187   4
  15  -3   0-43.2058 40.1956   4
  15   3   1-76.7541 43.9766   4
  15  -3   1-53.2592 41.9036   4
  15   3   2 1.28139 40.4435   4
  15  -3   2 15.1404 41.3392   4
 -15   4  14-64.7688 37.8307   1
  15  -4 -13 121.417 36.1246   2
 -15   4  13-0.64720 39.7081   1
  15  -4 -12-29.8545 28.6791   2
 -15   4  12-54.6544 31.6492   1
  15  -4 -11 33.6082 28.8292   2
 -15   4  11-27.8400 30.8186   1
  15  -4 -10-18.9367 30.0025   2
 -15   4  10-40.6638 33.0401   1
 -15   4   9-23.4650 27.5773   1
  15  -4  -9 27.3823 35.1995   2
  15  -4  -8 7.35387 33.6852   2
  15   4  -8 47.9089 26.2518   3
  15  -4  -7-36.4265 34.4335   2
  15   4  -7 39.0782 28.3117   2
  15   4  -7 46.0350 24.1989   3
  15  -4  -6-16.4774 33.1766   2
  15  -4  -6-32.8128 28.9377   4
  15   4  -6 27.9430 21.7218   3
  15  -4  -5 14.0183 30.5626   4
  15   4  -5 18.0576 19.7322   3
  15  -4  -4-3.39051 32.2545   4
  15   4  -4 54.0760 22.5918   3
  15  -4  -3 24.3026 35.4302   4
  15   4  -3 59.2903 24.8496   3
  15  -4  -2-54.5451 36.0030   4
  15   4  -2 61.2553 25.7780   3
  15  -4  -1-67.4438 37.3322   4
  15   4   0 62.2000 39.7600   4
  15  -4   0-59.0803 40.2875   4
  15   4   1-0.11070 37.3787   4
  15  -4   1 27.1947 42.2256   4
  15   4   2-34.9791 44.9776   4
  15  -4   2 51.3885 38.8061   4
  15  -5 -13-33.6516 30.3975   2
 -15   5  13 107.284 43.9690   1
  15  -5 -12 33.8401 32.2904   2
 -15   5  12 20.4655 31.9432   1
  15  -5 -11-28.5759 33.3175   2
 -15   5  11 129.609 36.7197   1
  15  -5 -10 84.5476 31.9098   2
 -15   5  10 75.0460 31.2390   1
  15  -5  -9 110.732 36.3037   2
 -15   5   9 172.303 34.5093   1
  15  -5  -8-30.7003 29.7787   2
  15   5  -8 45.4187 26.0276   3
  15   5  -7 201.842 28.8540   3
  15  -5  -6 69.1275 30.9172   4
  15   5  -6 42.9403 24.2941   3
  15  -5  -5 47.7478 32.2877   4
  15   5  -5 117.038 26.9012   3
  15  -5  -4 116.011 37.1910   4
  15   5  -4 34.6269 22.7962   3
  15  -5  -3 638.325 44.5545   4
  15   5  -3 711.129 39.5962   3
  15  -5  -2 57.7388 35.8633   4
  15   5  -2 3.77913 23.1676   3
  15  -5  -1 100.365 39.6468   4
  15   5  -1 93.5442 29.0692   3
  15  -5   0 94.6198 39.8635   4
  15   5   0 20.8553 22.6349   3
  15  -5   1 176.143 49.5935   4
  15   5   1 94.6418 28.6657   3
  15   5   2 98.5185 49.0479   4
  15  -5   2 49.7049 47.2449   4
  15  -6 -13-24.2348 30.6244   2
 -15   6  13 43.4903 40.9975   1
  15  -6 -12 68.2287 34.4472   2
 -15   6  12 11.7554 33.7218   1
  15  -6 -11 17.2853 34.7510   2
 -15   6  11 25.4769 36.1508   1
  15  -6 -10 51.5476 35.3876   2
 -15   6  10-51.3012 32.7032   1
  15  -6  -9-2.02712 28.5620   2
  15   6  -9-23.3284 24.6096   3
  15   6  -8 57.4758 26.3032   3
  15   6  -7 59.3657 26.0075   3
  15  -6  -6-6.09152 27.4713   4
  15   6  -6 20.4550 20.7846   3
  15  -6  -5 53.1304 32.0322   4
  15   6  -5 24.8509 21.7873   3
  15  -6  -4-36.8322 32.6590   4
  15   6  -4 2.09200 23.6645   3
  15  -6  -3-1.96274 31.1820   4
  15   6  -3-28.5889 25.1822   3
  15  -6  -2 85.7788 41.1904   4
  15   6  -2-55.0943 25.9140   3
  15  -6  -1 38.7893 35.3656   4
  15   6  -1 36.2705 24.9561   3
  15  -6   0-14.1003 38.6348   4
  15   6   0 4.80923 25.0720   3
  15  -6   1-46.8649 49.2326   4
  15   6   1-9.08626 24.4130   3
  15   6   2-58.8365 23.9637   3
  15   6   3 143.468 34.0649   3
  15  -7 -13 138.428 35.9750   2
 -15   7  13-50.2200 39.5728   1
  15  -7 -12-7.70740 32.3147   2
 -15   7  12-23.3821 37.7804   1
  15  -7 -11 47.0471 33.9671   2
 -15   7  11 17.6737 34.8062   1
  15  -7 -10 52.8372 36.6597   2
 -15   7  10 143.502 32.0480   1
  15   7  -9 26.9431 24.5561   3
  15   7  -8 4.70100 27.4569   3
  15   7  -7 96.5829 25.7718   3
  15   7  -6 46.6638 27.0278   3
  15  -7  -5-22.2651 31.9355   4
  15   7  -5-9.00586 24.5845   3
  15  -7  -4-43.4942 33.9455   4
  15   7  -4 8.40085 24.4753   3
  15  -7  -3 259.571 37.5666   4
  15   7  -3 113.185 25.0199   3
  15  -7  -2 77.6825 40.4659   4
  15   7  -2 18.2420 26.8336   3
  15  -7  -1 0.10944 38.6814   4
  15   7  -1 98.1271 30.1899   3
  15  -7   0-66.0004 44.3247   4
  15   7   0-66.1947 26.6658   3
  15  -7   1-33.1098 39.0319   4
  15   7   1-0.70362 24.5665   3
  15   7   2 57.9509 24.3230   3
  15  -8 -13 7.61239 35.5668   2
 -15   8  13-113.585 36.7967   1
  15  -8 -12 95.3775 37.2204   2
  15  -8 -11-46.2621 34.7862   2
  15  -8 -10 55.2424 37.4410   2
  15   8  -9-60.5190 30.7169   3
  15   8  -7 34.8940 24.5741   3
  15   8  -6 65.3107 27.5020   3
  15  -8  -5-54.6346 32.3513   4
  15   8  -5 17.3781 21.5925   3
  15  -8  -4 78.1771 38.2048   4
  15   8  -4-45.0047 24.5254   3
  15  -8  -3 1.45223 33.1305   4
  15   8  -3-81.1984 26.1814   3
  15   8  -2-78.5364 24.4458   3
  15  -8  -1-50.7099 43.9116   4
  15   8  -1 94.6577 29.5758   3
  15  -8   0 53.1128 46.8141   4
  15   8   0-102.753 24.9653   3
  15  -8   1 78.5075 53.5465   4
  15   8   1-35.8688 22.6163   3
  15   8   2 53.7940 24.5794   3
 -15   9  13-44.5594 35.3755   1
  15  -9 -12 46.0401 29.6085   2
 -15   9  12-85.9048 32.8702   1
  15  -9 -11 43.4459 37.2806   2
 -15   9  11-5.16665 36.4891   1
 -15   9  10 41.3973 31.4530   1
  15   9  -9 2.61891 28.1082   3
  15   9  -8-80.4210 28.9559   3
  15   9  -7 114.346 30.7926   3
  15   9  -6 96.7480 27.6197   3
  15   9  -5 20.7873 24.7518   3
  15  -9  -4 46.4326 37.2180   4
  15   9  -4-2.39753 28.7609   3
  15  -9  -3-69.0334 38.0067   4
  15   9  -3 33.0401 24.5328   3
  15  -9  -2 4.26414 36.1686   4
  15   9  -2-97.1797 27.8197   3
  15  -9  -1 112.643 43.8685   4
  15   9  -1 25.6975 26.1919   3
  15  -9   0 252.792 50.6237   4
  15   9   0 73.1971 30.2415   3
  15  -9   1 56.3228 42.6817   4
  15   9   1 62.5758 27.8221   3
  15 -10 -12-55.4996 31.1287   2
 -15  10  12 32.2929 32.9373   1
 -15  10  11 55.9992 32.9940   1
 -15  10  10 17.4289 20.1718   1
  15  10  -9 19.4657 22.7970   3
  15  10  -8-20.2087 28.1363   3
  15  10  -7 19.8469 23.2678   3
  15  10  -6 65.0998 25.7218   3
  15  10  -5-20.2098 26.7848   3
  15 -10  -4-64.5863 32.6180   4
  15  10  -4-77.4370 29.3838   3
  15 -10  -3 4.27298 36.8539   4
  15  10  -3-43.3454 23.2015   3
  15 -10  -2 142.192 43.3140   4
  15  10  -2-57.8163 26.3796   3
  15 -10  -1-43.5940 44.8159   4
  15  10  -1 85.6587 30.9071   3
  15  10   0-65.1409 29.4538   3
  15  10   1 38.7440 31.6734   3
  15 -11 -12 38.8770 41.0231   2
 -15  11  12 1.16809 30.0338   1
 -15  11  11-103.687 31.0016   1
  15  11 -10 93.6344 28.1112   3
  15  11  -9 93.4591 30.5816   3
  15  11  -8 12.2609 26.7038   3
  15  11  -7 12.3237 28.1385   3
  15  11  -6 105.027 31.2442   3
  15  11  -5 73.7723 29.0251   3
  15 -11  -4 21.6267 35.9983   4
  15  11  -4 19.2854 26.9194   3
  15 -11  -3 177.744 44.2530   4
  15  11  -3 9.68870 26.7661   3
  15 -11  -2 73.0262 36.2949   4
  15  11  -2 95.9283 27.8649   3
  15  11  -1 86.9483 31.0393   3
  15 -11   0-43.5165 50.9601   4
  15  11   0 71.9575 32.5296   3
  15 -12 -12 84.5294 34.8161   2
 -15  12  12-13.3857 26.4106   1
 -15  12  11 35.1520 25.2991   1
  15  12 -10-30.5961 27.3361   3
  15  12  -9 52.8988 31.6837   3
  15  12  -8 12.7571 26.7633   3
  15  12  -7-29.8387 29.4359   3
  15  12  -6 32.6523 26.0291   3
  15  12  -5 41.9512 28.4193   3
  15  12  -4-16.7123 27.4251   3
  15 -12  -3-55.8410 35.8962   4
  15  12  -3-17.8803 26.3827   3
  15  12  -2 18.7066 25.7475   3
  15  12  -1 71.6753 28.9860   3
  15  12   0 4.45429 24.9620   3
 -15  13  11 87.9673 34.1968   1
  15  13 -10 14.3764 33.5624   3
  15  13  -9 41.7269 33.3109   3
  15  13  -8 64.5850 34.4778   3
  15  13  -7 0.00000 26.0679   3
  15  13  -6 23.0558 31.5149   3
  15  13  -5 25.2226 31.9997   3
  15  13  -4-4.86113 29.0776   3
  15 -13  -3 18.9988 42.4465   4
  15  13  -3 62.0687 27.4850   3
  15  13  -2 19.5959 24.9073   3
  15  13  -1 100.731 32.3527   3
 -15  14  11 54.8719 26.9570   1
  15  14  -9-48.9664 28.6951   3
  15  14  -8 97.4557 35.1895   3
  15  14  -7-63.0061 27.5156   3
  15  14  -6 6.09722 25.7731   3
  15  14  -5 0.96822 30.5322   3
  15  14  -4 35.3455 32.5205   3
  15  14  -3-88.0924 30.7505   3
  15  14  -2 2.59728 28.1431   3
  15  15  -8 47.7954 36.4314   3
  15  15  -7-30.0290 30.6497   3
  15  15  -6 55.3114 28.8230   3
  15  15  -5 9.08160 26.8115   3
  15  15  -4 31.6790 26.7435   3
 -16   0  13 71.9848 40.0563   1
  16   0 -12 53.0726 29.9875   2
 -16   0  12 197.947 40.9878   1
  16   0 -11-29.1343 35.2649   2
 -16   0  11-12.3098 36.0966   1
  16   0 -10 47.2732 30.6564   2
  16   0  -9 16.2473 31.4046   2
  16   0  -8 22.6471 33.9492   2
  16   0  -7-21.3442 26.3884   2
  16   0  -6 253.336 34.7502   2
  16   0  -5 45.8324 28.4215   2
  16   0  -4 272.005 37.9837   2
  16   0  -4 210.946 37.1216   4
  16   0  -3-82.0692 40.3476   4
  16   0  -3 60.1990 29.0808   2
  16   0  -2 389.126 47.2857   4
  16   0  -1 45.7547 38.8699   4
  16   0   0 8.56119 37.6534   4
  16   0   1-52.9812 47.9879   4
  16  -1 -13-57.6280 35.8067   2
 -16   1  13 15.3336 33.8475   1
  16  -1 -12-67.2170 34.2995   2
 -16   1  12 7.23523 37.2532   1
  16  -1 -11 32.9558 31.7705   2
 -16   1  11 30.2662 30.6580   1
  16  -1 -10 15.5283 34.8307   2
  16   1 -10-38.3284 35.4392   2
 -16   1  10 27.6530 29.9292   1
  16  -1  -9 14.9461 36.1409   2
  16   1  -9 57.0373 35.6881   2
  16  -1  -8 44.4518 33.3229   2
  16   1  -8 44.4955 30.9404   2
  16  -1  -7 26.3718 33.3385   2
  16   1  -7 4.37156 31.8098   2
  16  -1  -6-14.8054 24.3379   2
  16   1  -6-30.9177 30.5610   2
  16  -1  -5 16.4878 35.3838   4
  16  -1  -5-19.1002 26.2534   2
  16   1  -5-11.2749 26.5192   2
  16  -1  -4-60.7163 37.3975   4
  16  -1  -4-79.7086 29.9730   2
  16   1  -4-52.1024 28.8145   2
  16   1  -3 24.4179 38.4071   4
  16  -1  -3 75.2812 38.5212   4
  16  -1  -3-20.5402 28.1350   2
  16   1  -3-23.8667 26.5172   2
  16   1  -2-52.7078 38.5065   4
  16  -1  -2 9.45301 41.4121   4
  16   1  -1 13.8256 42.1167   4
  16  -1  -1-49.1569 38.9346   4
  16   1   0 78.2615 40.8138   4
  16  -1   0-33.4626 37.8050   4
  16   1   1 106.942 51.6294   4
  16  -1   1-69.9067 43.8089   4
  16  -2 -14 105.798 41.3191   2
 -16   2  13-7.44906 35.3483   1
  16  -2 -13-63.2051 34.2482   2
 -16   2  12 140.355 35.4256   1
  16  -2 -12 205.344 39.7813   2
  16  -2 -11-4.69625 35.3189   2
 -16   2  11-7.60306 35.4228   1
  16  -2 -10 114.546 36.8182   2
  16   2 -10 90.2779 35.0943   2
 -16   2  10 98.2965 34.7970   1
  16  -2  -9 28.1257 31.1237   2
  16  -2  -8 25.8113 34.2825   2
  16   2  -8-3.27003 33.4915   2
  16  -2  -7-15.3046 33.2339   2
  16   2  -7 20.6908 33.4646   2
  16  -2  -6 61.1963 33.8553   4
  16  -2  -6 56.5717 34.4161   2
  16  -2  -5 80.3946 33.0279   2
  16   2  -5 37.8594 26.5631   2
  16  -2  -4 327.492 35.9617   2
  16  -2  -4 297.878 40.9628   4
  16   2  -4 274.610 33.8210   2
  16  -2  -3 0.78027 31.5677   4
  16  -2  -3 151.819 28.8448   2
  16   2  -3 82.8239 28.6280   2
  16   2  -2 341.350 42.2318   4
  16  -2  -2 238.958 43.3440   4
  16   2  -1 0.98111 42.0469   4
  16  -2  -1-14.7127 40.5873   4
  16   2   0-15.9560 47.3860   4
  16  -2   0 90.8955 44.0126   4
  16   2   1-103.001 49.6394   4
  16  -2   1 44.7291 46.3772   4
 -16   3  13 46.3622 42.0131   1
  16  -3 -13 0.24452 28.9606   2
 -16   3  12 78.2052 39.2070   1
  16  -3 -12 24.2755 32.9243   2
 -16   3  11 42.7136 30.1519   1
  16  -3 -11-9.19148 34.8689   2
 -16   3  10 1.81494 29.8494   1
  16  -3 -10 23.2412 31.0557   2
  16  -3  -9-28.7761 34.9414   2
  16   3  -9 77.1122 32.4963   2
  16  -3  -8-20.3720 31.5973   2
  16  -3  -7 59.0048 32.4405   2
  16  -3  -6-22.7566 33.0469   4
  16  -3  -6 8.97163 29.5171   2
  16   3  -6-34.1966 29.5600   2
  16  -3  -5 13.8491 29.4541   4
  16  -3  -5-4.13924 28.0758   2
  16   3  -5-11.6639 26.3395   2
  16  -3  -4 26.2056 34.4156   4
  16   3  -4-20.1362 23.6083   2
  16  -3  -3-21.4672 26.4116   2
  16   3  -3-6.70889 26.1639   2
  16  -3  -2-5.09791 36.0736   4
  16   3  -1 48.0616 42.0486   4
  16  -3  -1 102.960 44.0603   4
  16   3   0-2.52590 44.7021   4
  16  -3   0 22.6086 41.6719   4
  16   3   1-50.0820 45.3921   4
  16  -3   1 23.0577 50.3409   4
 -16   4  13-63.5966 38.5282   1
  16  -4 -13 79.9516 31.2849   2
 -16   4  12 54.6545 38.1636   1
  16  -4 -12 30.4195 30.9338   2
 -16   4  11 18.3239 34.3528   1
  16  -4 -11 58.8243 34.8145   2
 -16   4  10 71.2689 34.8325   1
  16  -4 -10 31.5094 36.5077   2
  16  -4  -9 49.8075 36.9224   2
  16  -4  -8 182.119 38.7274   2
  16  -4  -7-21.4702 33.0523   2
  16   4  -7 97.9366 33.1512   2
  16  -4  -6-55.9601 32.6781   4
  16  -4  -6-28.7258 33.2173   2
  16   4  -6-64.6808 31.4817   2
  16  -4  -5-6.59297 30.4105   2
  16  -4  -5 60.9672 32.7404   4
  16  -4  -4 103.515 32.7417   2
  16  -4  -4 52.7898 31.0214   4
  16  -4  -3 30.5293 28.7381   2
  16  -4  -3 37.7693 36.6637   4
  16  -4  -2 280.869 34.1070   2
  16  -4  -2 308.052 43.7672   4
  16  -4  -1 116.835 40.4075   4
  16   4   0 35.7463 40.5569   4
  16  -4   0-51.9837 37.7205   4
  16   4   1 77.2553 43.4031   4
  16  -4   1-92.3026 50.0245   4
  16  -5 -13-73.5926 29.6979   2
 -16   5  13-57.7423 39.2848   1
  16  -5 -12 9.83942 30.3757   2
 -16   5  12-33.0915 36.7569   1
  16  -5 -11-29.6928 31.1471   2
 -16   5  11-18.9757 32.8151   1
  16  -5 -10-31.2277 35.9716   2
  16  -5  -9 11.6156 34.4598   2
  16   5  -9 81.2286 26.7342   3
  16  -5  -8-70.9900 29.8578   2
  16   5  -8 22.9687 24.4275   3
  16  -5  -7 4.01015 35.5940   2
  16   5  -7-78.1380 20.1537   3
  16  -5  -6 44.4442 31.7925   4
  16   5  -6-19.5220 23.4040   3
  16  -5  -5-50.8232 34.9561   4
  16   5  -5-36.7588 26.0281   3
  16  -5  -4 10.8992 29.8018   4
  16  -5  -3 43.1666 34.5863   4
  16  -5  -2-33.7830 39.6062   4
  16  -5  -1-64.4550 37.1079   4
  16  -6 -13 34.1127 31.1319   2
 -16   6  13 128.962 45.5469   1
  16  -6 -12 82.4678 31.5248   2
 -16   6  12 90.9952 40.0032   1
  16  -6 -11-1.43935 31.6004   2
 -16   6  11 123.835 34.1274   1
  16  -6 -10 49.2581 37.5664   2
  16  -6  -9-32.8203 30.3777   2
  16   6  -9 120.486 31.5260   3
  16  -6  -8 91.0888 32.5546   2
  16   6  -8 152.902 29.8530   3
  16   6  -7-88.4708 23.0879   3
  16   6  -6 34.1030 22.9831   3
  16  -6  -5 29.0630 35.1957   4
  16   6  -5 36.3978 21.0661   3
  16  -6  -4 98.8172 35.5255   4
  16   6  -4 18.0915 21.4496   3
  16  -6  -3 30.2997 34.2995   4
  16   6  -3 168.932 31.1773   3
  16   6  -2 77.2365 27.4698   3
  16  -6  -1 55.6854 43.9841   4
  16   6  -1 6.09239 23.7575   3
  16  -6   0 224.257 56.4974   4
  16   6   0 81.1283 25.6336   3
  16  -7 -13 74.2279 36.9839   2
 -16   7  13 92.4691 41.1257   1
  16  -7 -12-38.5063 29.2820   2
 -16   7  12 39.3304 35.8945   1
  16  -7 -11 11.8541 29.8858   2
 -16   7  11-7.05277 29.2818   1
  16  -7 -10-20.9452 35.4623   2
  16   7 -10-40.7634 30.4394   3
  16  -7  -9 8.27683 30.8874   2
  16   7  -9 14.0077 24.9242   3
  16   7  -8 51.8379 26.2282   3
  16   7  -7-86.8645 22.3154   3
  16   7  -6-26.7483 22.8025   3
  16  -7  -5 63.5021 34.8948   4
  16   7  -5-81.9146 24.2831   3
  16   7  -4-58.6111 24.4145   3
  16   7  -3 66.6357 24.7049   3
  16  -7  -2 48.6716 43.9156   4
  16   7  -2 34.8748 27.1764   3
  16  -7  -1 124.293 49.7597   4
  16   7  -1-2.43923 24.7511   3
  16  -7   0 45.0288 47.7288   4
  16   7   0 77.0602 23.8134   3
  16   7   1 22.0546 25.9895   3
  16  -8 -13-37.4745 37.5840   2
 -16   8  13-25.0359 34.4906   1
  16  -8 -12 46.9437 33.8932   2
 -16   8  12-5.54845 37.5449   1
  16  -8 -11 19.4532 32.4738   2
 -16   8  11-42.6944 29.5148   1
  16  -8 -10 2.78610 38.8496   2
  16   8 -10-95.3689 28.1992   3
  16   8  -9 36.1402 31.3231   3
  16   8  -8 52.4149 26.2529   3
  16   8  -7-30.5620 24.2699   3
  16   8  -6-5.17547 26.0484   3
  16  -8  -5 13.7045 31.9617   4
  16   8  -5-3.64883 28.5249   3
  16  -8  -4-69.3078 38.4476   4
  16   8  -4 6.99630 22.4770   3
  16  -8  -3 194.706 43.4923   4
  16   8  -3 189.024 33.3272   3
  16  -8  -2 86.9435 36.4603   4
  16   8  -2 83.0475 26.5587   3
  16  -8  -1-42.1302 40.2857   4
  16   8  -1 44.1555 26.2704   3
  16   8   0 94.4971 30.2585   3
  16   8   1-96.6018 27.8186   3
  16  -9 -13-76.9199 37.1065   2
  16  -9 -12 129.130 38.1806   2
 -16   9  12-107.317 37.3239   1
  16  -9 -11-37.5547 37.0772   2
  16   9 -10-83.4750 25.2070   3
  16   9  -9 8.15013 21.4421   3
  16   9  -8 127.918 30.9812   3
  16   9  -7-7.89689 24.0599   3
  16   9  -6-92.4293 24.0594   3
  16   9  -5-12.8225 27.1270   3
  16  -9  -4 41.4197 38.2121   4
  16   9  -4 35.8857 25.1621   3
  16  -9  -3 58.5380 37.5788   4
  16   9  -3 71.3276 27.9377   3
  16  -9  -2-79.1237 46.2954   4
  16   9  -2-11.6744 29.5158   3
  16   9  -1 22.8574 26.9608   3
  16   9   0 82.7939 29.4148   3
  16 -10 -12-4.16795 33.2543   2
  16 -10 -11 20.4284 37.1672   2
  16  10 -10-74.5397 26.0585   3
  16  10  -9-80.8924 26.5702   3
  16  10  -8 108.532 28.1138   3
  16  10  -7-4.54096 28.0376   3
  16  10  -6-44.6035 27.9929   3
  16  10  -5 24.4643 29.9369   3
  16 -10  -4 80.8773 38.8833   4
  16  10  -4 86.4709 32.4218   3
  16 -10  -3-70.8209 44.7294   4
  16  10  -3 96.7406 28.0833   3
  16  10  -2-75.8179 21.5790   3
  16 -10  -1 72.9420 42.7244   4
  16  10  -1 25.9726 23.4913   3
  16  10   0-7.69807 23.7633   3
 -16  11  12 44.5102 31.4687   1
  16  11 -11-63.9768 29.0378   3
  16  11 -10 94.3367 37.0367   3
  16  11  -9-106.396 27.5023   3
  16  11  -8 61.5844 28.1849   3
  16  11  -7 28.7541 28.5742   3
  16  11  -6-83.2096 26.2445   3
  16  11  -5-35.0445 27.9229   3
  16 -11  -4-80.8558 39.5062   4
  16  11  -4 32.3539 26.8377   3
  16  11  -3 125.657 30.4026   3
  16 -11  -2 58.7092 47.2176   4
  16 -11  -1 177.811 57.6637   4
  16  11  -1 1.28444 30.2813   3
  16  12 -10 172.642 41.5681   3
  16  12  -9-18.0543 29.9516   3
  16  12  -8 18.6200 33.1332   3
  16  12  -7 83.7574 33.1833   3
  16  12  -6-21.2491 28.2215   3
  16  12  -5-111.283 25.3560   3
  16  12  -4 75.7038 33.9474   3
  16 -12  -3 111.500 47.0252   4
  16  12  -3 122.096 33.4536   3
  16 -12  -2 278.080 55.0462   4
  16  12  -2 8.64634 30.6753   3
  16  13  -9-5.74397 24.9057   3
  16  13  -8-24.4822 27.4435   3
  16  13  -7 92.2220 31.5390   3
  16  13  -6-16.1993 29.3766   3
  16  13  -4 27.4887 26.5231   3
  16 -13  -3 231.758 51.3685   4
  16  13  -3 77.7861 35.1992   3
  16  14  -7 129.886 32.4170   3
  16  14  -6 86.0011 30.5091   3
  16  14  -5-16.8619 32.8946   3
  16 -14  -3-49.5443 46.4966   4
  17   0 -10 56.2158 39.1184   2
  17   0  -9 41.8523 34.4402   2
  17   0  -8-16.0884 29.8575   2
  17   0  -7-31.9436 28.0132   2
  17   0  -6-12.4012 27.3440   2
  17   0  -5 38.2214 29.7861   2
  17   0  -4 74.7155 39.4855   4
  17   0  -4 42.3181 29.2545   2
  17   0  -3-39.0156 44.4559   4
  17   0  -2-71.0409 39.0057   4
  17   0  -1 103.320 51.9300   4
  17  -1 -13-42.9514 33.4282   2
 -17   1  13 97.5854 38.8919   1
  17  -1 -12-53.4916 37.8815   2
 -17   1  12 172.647 41.4037   1
  17  -1 -11 79.4353 33.6940   2
 -17   1  11 36.9860 36.7410   1
  17  -1 -10 0.71323 29.9083   2
  17   1 -10-41.3740 35.4290   2
  17  -1  -9 121.003 36.2036   2
  17   1  -9 194.952 37.0997   2
  17  -1  -8-28.5967 35.4547   2
  17   1  -8 51.8085 36.1290   2
  17  -1  -7 61.2232 37.2666   2
  17   1  -7 116.657 36.7359   2
  17  -1  -6 75.3354 34.5914   2
  17   1  -6 21.6635 30.9735   2
  17  -1  -5 59.8506 30.7107   2
  17   1  -5-21.1752 27.6482   2
  17  -1  -4-55.9603 40.2404   4
  17  -1  -4-25.1076 28.6079   2
  17   1  -4-29.9565 25.5529   2
  17  -1  -3 73.9128 44.9190   4
  17  -1  -3 96.7011 33.1070   2
  17   1  -2-45.5585 37.3616   4
  17  -1  -2 86.1952 43.7073   4
  17   1  -1-87.7813 45.6689   4
  17  -1  -1 87.0301 49.0238   4
 -17   2  13 25.7789 32.8353   1
  17  -2 -12 82.4210 39.7812   2
 -17   2  12 92.7038 40.3827   1
  17  -2 -11 119.031 34.7659   2
 -17   2  11 229.555 36.8526   1
  17  -2 -10-33.8044 34.5982   2
  17   2 -10-78.1902 38.2926   2
  17  -2  -9 38.8136 33.4983   2
  17   2  -9-69.7058 38.6725   2
  17  -2  -8 56.4727 36.6692   2
  17   2  -8-23.0989 34.2900   2
  17  -2  -7-24.6712 31.4655   2
  17   2  -7 9.11521 30.2266   2
  17  -2  -6-27.5498 31.5240   2
  17   2  -6 74.2977 33.1469   2
  17  -2  -5-33.5864 32.9337   4
  17  -2  -5-18.9097 26.5933   2
  17   2  -5 53.9052 28.3574   2
  17  -2  -4-19.4646 39.2467   4
  17  -2  -4-41.8059 29.6988   2
  17   2  -4 60.0746 28.4101   2
  17  -2  -3 162.876 46.9310   4
  17  -2  -3 34.7065 29.5056   2
  17   2  -2 76.0249 40.8159   4
  17  -2  -2-6.88753 41.4188   4
  17   2  -1 25.1487 44.1039   4
 -17   3  13 65.5740 36.1336   1
  17  -3 -13 16.6992 29.7315   2
  17  -3 -12 113.399 39.9332   2
 -17   3  12 24.1838 34.2487   1
  17  -3 -11-3.81010 35.7455   2
 -17   3  11-13.0307 35.9362   1
  17  -3 -10 113.669 39.8543   2
  17   3  -9 282.706 43.5107   2
  17  -3  -9 186.351 41.6277   2
  17  -3  -8-11.8827 31.4232   2
  17  -3  -7 40.2917 36.1928   2
  17  -3  -6 68.0389 36.1876   4
  17  -3  -6 133.930 37.4634   2
  17  -3  -5 2.14159 28.8364   4
  17   3  -5-10.8096 24.6001   2
  17  -3  -4 122.449 43.3334   4
  17  -3  -4 81.0850 31.5367   2
  17  -3  -3 14.9929 41.5711   4
  17  -3  -3 122.987 30.4181   2
  17  -3  -2 60.2150 39.5498   4
  17   3  -1 126.544 42.2792   4
  17  -3  -1 59.8157 48.5820   4
 -17   4  13 88.3841 41.5099   1
  17  -4 -13 37.5857 31.2378   2
 -17   4  12 74.3291 33.5618   1
  17  -4 -12-9.01934 34.8540   2
  17  -4 -11 73.0398 39.3751   2
  17  -4 -10 3.56377 38.8609   2
  17  -4  -9-19.0508 38.9717   2
  17  -4  -8 76.9979 39.8843   2
  17  -4  -7 54.4218 35.5443   2
  17   4  -7 9.20824 35.6764   2
  17  -4  -6-54.2070 34.0710   4
  17  -4  -6-29.0207 29.3952   2
  17   4  -6 36.7287 30.6660   2
  17  -4  -5 73.8269 34.3613   4
  17   4  -5 34.1077 26.4890   2
  17  -4  -4-56.7569 30.2888   2
  17  -4  -4-20.0128 38.5750   4
  17   4  -4 48.7988 27.9305   2
  17  -4  -3-44.4413 30.2503   2
  17  -4  -3-81.9714 42.6803   4
  17  -4  -2 70.5887 37.2746   4
  17  -4  -1 113.984 48.0900   4
 -17   5  13 79.3406 40.3557   1
  17  -5 -13 6.97613 32.2203   2
 -17   5  12 18.0879 34.5032   1
  17  -5 -12 30.1488 33.2891   2
  17  -5 -11 43.2672 38.1976   2
  17  -5 -10-7.93377 36.5363   2
  17  -5  -9 289.988 45.7588   2
  17  -5  -8 58.8150 40.7158   2
  17  -5  -7-33.3005 27.2870   2
  17  -5  -6 7.66848 31.9787   4
  17  -5  -6 21.0267 33.6736   2
  17  -5  -5 35.5353 30.5434   2
  17  -5  -5 22.1601 32.7105   4
  17  -5  -4 115.069 35.5158   2
  17  -5  -4-99.6023 37.1502   4
  17  -5  -3 269.748 34.4498   2
  17  -5  -3 309.295 46.2032   4
  17  -5  -2 347.430 52.0565   4
  17  -5  -1 65.0409 46.3397   4
 -17   6  13-101.133 35.5243   1
  17  -6 -12 48.7185 34.7700   2
 -17   6  12-42.1649 36.5339   1
  17  -6 -11-43.5884 37.3329   2
  17  -6 -10 76.0457 38.6256   2
  17  -6  -9-26.0906 34.9665   2
  17  -6  -8-37.4509 38.0345   2
  17  -6  -7-17.9228 34.6129   2
  17  -6  -4 54.4601 37.2099   4
  17  -6  -3 65.0479 37.6349   4
  17  -6  -2-89.8466 45.0714   4
 -17   7  12 38.2914 38.4775   1
  17  -7 -11 72.8905 36.8114   2
  17   7 -11-42.5568 28.6987   3
  17  -7 -10 17.9004 37.6500   2
  17   7 -10 163.897 34.9490   3
  17  -7  -9-6.25746 38.5552   2
  17   7  -9 33.2487 22.0312   3
  17  -7  -8 120.301 39.5020   2
  17   7  -8-72.0108 23.6571   3
  17   7  -7 31.7568 25.7505   3
  17   7  -6 72.5157 22.8236   3
  17  -7  -5-35.8673 38.5989   4
  17   7  -5 96.3983 27.6520   3
  17  -7  -4 83.4365 40.1838   4
  17   7  -4 39.1457 25.3385   3
  17  -7  -3-79.3091 41.8808   4
  17   7  -3-105.569 23.8037   3
  17  -7  -2-57.2428 43.4905   4
  17  -8 -11 18.8795 31.1058   2
  17  -8 -10-32.2369 38.8078   2
  17   8 -10 54.1758 26.5530   3
  17  -8  -9 27.6421 41.1245   2
  17   8  -9 23.0155 29.0767   3
  17   8  -8-39.7121 23.0324   3
  17   8  -7 44.5345 25.3364   3
  17   8  -6 74.0489 25.9122   3
  17  -8  -5 143.911 40.0986   4
  17   8  -5 91.0229 25.8192   3
  17  -8  -4-71.8149 42.1838   4
  17   8  -4-23.1709 24.1375   3
  17  -8  -2 64.8263 49.3621   4
  17   8  -2 62.0102 31.1444   3
  17  -9 -11-56.7326 38.9928   2
  17   9 -11-16.9449 26.4122   3
  17  -9 -10 25.6415 34.0710   2
  17   9 -10 47.4651 31.4025   3
  17   9  -9 83.2048 29.3050   3
  17   9  -7-0.89561 22.0915   3
  17   9  -6 38.9700 27.2179   3
  17   9  -5 91.8389 26.7460   3
  17   9  -4 7.55694 23.0207   3
  17  -9  -3 98.0561 43.0267   4
  17   9  -3-51.5727 22.6638   3
  17  -9  -2 267.507 51.4389   4
  17   9  -2 143.712 28.5021   3
  17   9  -1 17.9205 25.0267   3
  17  10 -10-13.0255 31.6028   3
  17  10  -9 199.695 34.2288   3
  17  10  -7-105.150 27.1208   3
  17  10  -6 40.2898 26.0882   3
  17  10  -5 81.8694 29.5805   3
  17 -10  -4-5.69137 42.6733   4
  17  10  -4 18.6101 27.4778   3
  17 -10  -3 236.723 52.6086   4
  17  10  -3-43.8953 26.7288   3
  17  10  -2 80.3001 32.8562   3
  17  11 -10-24.5464 27.3805   3
  17  11  -9 43.8884 26.2719   3
  17  11  -8 31.4417 24.3934   3
  17  11  -7-50.9403 27.4849   3
  17  11  -6-5.17275 23.1433   3
  17  11  -5 82.2582 25.1021   3
  17 -11  -4 134.053 42.0849   4
  17 -11  -3 89.3339 50.5107   4
  17  11  -3-90.1040 31.4482   3
  17  12  -8 17.2366 29.8115   3
  17  12  -7-65.6372 24.9454   3
  17  12  -6 5.76273 30.7487   3
  17  12  -5 126.765 29.5584   3
  17  12  -4-7.10929 30.0507   3
  18   0 -10-4.96760 33.0271   2
  18   0  -9 74.6327 41.7587   2
  18   0  -8 113.276 36.2030   2
  18   0  -7-30.5421 29.0339   2
  18   0  -6 45.4213 31.4872   2
  18   0  -5-25.4315 25.9368   2
  18   0  -4 246.811 49.4562   4
  18   0  -4 3.85517 26.1276   2
  18   0  -3 33.3552 44.7336   4
  18  -1 -11 22.0992 39.0752   2
  18  -1 -10 6.35206 40.8169   2
  18   1 -10-58.7115 38.2909   2
  18  -1  -9-22.0933 31.8544   2
  18   1  -9-2.98525 38.2084   2
  18  -1  -8-22.3522 35.3525   2
  18   1  -8 54.2562 41.8183   2
  18  -1  -7 41.6814 37.0404   2
  18   1  -7 90.7584 38.8720   2
  18  -1  -6 18.8960 32.5987   2
  18   1  -6 128.049 33.5938   2
  18  -1  -5 84.2775 33.3780   2
  18   1  -5 91.6293 33.0502   2
  18  -1  -4 40.1748 42.0442   4
  18  -1  -4 142.121 28.4656   2
  18   1  -4 73.0103 30.2830   2
  18   1  -3 85.1977 45.8271   4
 -18   2  13 154.755 43.2391   1
  18  -2 -11-4.19292 39.5298   2
  18  -2 -10-65.6369 40.2300   2
  18   2 -10 57.1099 37.7455   2
  18  -2  -9 80.3764 40.3701   2
  18  -2  -8 179.222 41.1832   2
  18   2  -8-10.2158 31.9714   2
  18  -2  -7 167.080 38.6441   2
  18   2  -7 89.8500 31.2545   2
  18  -2  -6-10.4543 34.7271   2
  18   2  -6 9.42807 34.3340   2
  18  -2  -5-3.61482 28.0024   2
  18   2  -5 11.7795 30.2082   2
  18  -2  -3 26.4265 40.2584   4
  18  -3 -11-40.0786 38.1202   2
  18  -3 -10 47.5334 38.4406   2
  18  -3  -9 92.1038 42.6780   2
  18   3  -9 107.100 41.8407   2
  18  -3  -8-55.6541 33.9628   2
  18   3  -8-71.0789 37.8055   2
  18  -3  -7-27.4750 30.2666   2
  18  -3  -6 130.980 37.6337   4
  18  -3  -6-49.0364 29.5185   2
  18  -3  -5 18.9149 34.1166   2
  18  -3  -4 7.64215 37.9554   4
  18  -3  -4 35.7143 30.6054   2
  18  -3  -3 127.342 42.3059   4
  18  -4 -11 63.9109 39.7686   2
  18  -4 -10 120.362 39.9281   2
  18  -4  -9-16.5212 38.3227   2
  18  -4  -8 5.79109 32.4898   2
  18  -4  -7 75.7445 39.5536   2
  18  -4  -6 22.4719 36.0703   4
  18  -4  -6 142.707 36.9553   2
  18  -4  -5 102.528 33.0734   2
  18   4  -5 24.7115 28.3477   2
  18  -4  -4 196.414 41.0154   4
  18  -4  -4 95.9690 31.5497   2
  18  -4  -3-5.21763 45.7303   4
  18  -5 -10-45.7269 35.8416   2
  18  -5  -9 81.4902 39.9078   2
  18  -5  -8 73.8120 34.5135   2
  18  -5  -7 5.88417 38.7821   2
  18  -5  -6-25.0783 35.6366   2
  18  -5  -5 161.889 46.0176   4
  18  -5  -5-34.5006 30.0961   2
  18  -5  -4 18.5209 35.2512   2
  18  -5  -4-61.7260 43.2142   4
  18  -6 -10 126.296 41.9637   2
  18  -6  -9 95.6955 42.6622   2
  18  -6  -8-17.2796 34.5184   2
  18  -6  -7-27.0450 40.1488   2
  18  -6  -6-16.2129 35.9817   2
  18  -6  -5 31.1507 33.7256   2
  18  -6  -5 20.2729 36.7647   4
  18  -6  -4 78.7662 37.0073   2
  18  -6  -3 236.707 42.3498   2
  18  -6  -3 189.395 48.6063   4
  18  -7  -8-45.3552 32.3906   2
  18  -7  -7 36.6133 41.8662   2
  18  -7  -4 39.3457 38.6511   4
  18  -7  -3 176.856 55.5641   4
  18   8 -11 58.4113 29.6679   3
  18   8 -10 36.4209 24.4224   3
  18   8  -9-54.8231 26.3899   3
  18  -8  -8 93.5897 40.4246   2
  18   8  -8 137.950 30.5652   3
  18   8  -7 30.8451 25.3493   3
  18   8  -6-20.3198 28.0007   3
  18  -8  -5-4.39776 44.6629   4
  18  -8  -4 213.584 51.0242   4
  18   9 -10 76.0950 34.1668   3
  18   9  -8 78.0869 26.9335   3
  18   9  -7 35.0670 28.4751   3
  18   9  -6-79.9527 26.9240   3
  18   9  -5-53.7503 23.8048   3
  18  -9  -4-10.1889 37.6993   4
  18   9  -4 65.1206 25.4464   3
  18   9  -3 31.3288 23.7093   3
  18  10  -9-64.4901 24.1123   3
  18  10  -8 69.9441 29.3160   3
  18  10  -7 98.8666 30.9022   3
  18  10  -5 4.10489 26.5169   3
  18  10  -4 116.375 34.6184   3
  19   0  -9 59.1868 35.3995   2
  19   0  -8 129.340 37.1972   2
  19   0  -7 69.3791 37.3764   2
  19   0  -6-55.0275 29.3881   2
  19   0  -5-42.9074 34.2967   2
  19  -1  -9 31.0558 30.7027   2
  19  -1  -8-74.5423 35.2928   2
  19   1  -8-17.3364 39.1676   2
  19  -1  -7-91.0192 29.5142   2
  19   1  -7 58.1057 35.0890   2
  19  -1  -6-9.32265 32.6161   2
  19   1  -6 140.711 35.7697   2
  19  -1  -5 77.5074 29.7264   2
  19   1  -5 156.344 34.6568   2
  19  -2  -8-3.65661 40.7985   2
  19  -2  -7 107.491 40.9320   2
  19  -2  -6 116.565 29.4853   2
  19  -2  -5 325.153 50.9041   4
  19  -2  -5 153.175 36.1941   2
  19  -3  -8 142.411 46.0523   2
  19   3  -8 81.1973 41.5860   2
  19  -3  -7-25.4665 37.1626   2
  19   3  -7-1.54354 35.1083   2
  19  -3  -6-35.5922 35.3213   2
  19   3  -6-75.0308 31.2302   2
  19  -3  -5 17.2937 32.5003   2
  19   3  -5-14.0241 32.6560   2
  19  -3  -4-6.50282 37.9114   2
  19  -4  -8-52.3218 39.2470   2
  19  -4  -7-24.6590 39.2235   2
  19  -4  -6 107.541 47.4454   4
  19  -4  -6-26.6492 31.2322   2
  19  -4  -5 70.0171 33.4229   2
  19  -4  -4 22.1901 30.0482   2
  19  -5  -7 195.433 42.6814   2
  19  -5  -6 119.162 37.7225   2
  19  -5  -5 83.1241 40.5022   4
  19  -5  -5 117.890 33.2682   2
  19  -5  -4 98.0285 31.8778   2
  19  -6  -5 231.956 52.4165   4
  19  -6  -5-110.988 29.4878   2
  19  -6  -4-71.6184 31.2299   2
  19  -7  -5 18.6485 40.0395   4
;
_shelx_hkl_checksum              84119
loop_
_space_group_symop_operation_xyz
'x, y, z'
'x, -y, z+1/2'
'x+1/2, y+1/2, z'
'x+1/2, -y+1/2, z+1/2'
loop_
_atom_site_label
_atom_site_type_symbol
_atom_site_fract_x
_atom_site_fract_y
_atom_site_fract_z
_atom_site_U_iso_or_equiv
_atom_site_adp_type
_atom_site_occupancy
_atom_site_site_symmetry_order
_atom_site_calc_flag
_atom_site_refinement_flags_posn
_atom_site_refinement_flags_adp
C1 C 0.2604(2) 0.26745(17) 0.6196(3) 0.0458(9) Uani 1 1 d . .
C2 C 0.1636(3) 0.2662(2) 0.6285(3) 0.0514(10) Uani 1 1 d . .
C3 C 0.0894(3) 0.3128(2) 0.5868(4) 0.0680(12) Uani 1 1 d . .
H3 H 0.0937 0.3519 0.5487 0.082 Uiso 1 1 calc R U
C4 C 0.0080(3) 0.3002(3) 0.6030(5) 0.0834(15) Uani 1 1 d . .
H4 H -0.0431 0.3311 0.5753 0.100 Uiso 1 1 calc R U
C5 C 0.0018(3) 0.2424(3) 0.6596(5) 0.0826(15) Uani 1 1 d . .
H5 H -0.0537 0.2348 0.6692 0.099 Uiso 1 1 calc R U
C6 C 0.0756(3) 0.1959(2) 0.7020(4) 0.0680(12) Uani 1 1 d . .
H6 H 0.0709 0.1570 0.7404 0.082 Uiso 1 1 calc R U
C7 C 0.1579(3) 0.2079(2) 0.6863(3) 0.0535(10) Uani 1 1 d . .
C8 C 0.2464(3) 0.16769(19) 0.7203(3) 0.0507(10) Uani 1 1 d . .
C9 C 0.2726(3) 0.1050(2) 0.7758(4) 0.0609(11) Uani 1 1 d . .
H9 H 0.2318 0.0824 0.7998 0.073 Uiso 1 1 calc R U
C10 C 0.3606(3) 0.07731(19) 0.7943(3) 0.0558(10) Uani 1 1 d . .
C11 C 0.4220(3) 0.11192(17) 0.7591(3) 0.0492(9) Uani 1 1 d . .
C12 C 0.3958(3) 0.17436(18) 0.7030(3) 0.0487(9) Uani 1 1 d . .
H12 H 0.4367 0.1972 0.6792 0.058 Uiso 1 1 calc R U
C13 C 0.3071(3) 0.20143(17) 0.6836(3) 0.0454(9) Uani 1 1 d . .
C14 C 0.5093(3) 0.07052(19) 0.7893(3) 0.0546(10) Uani 1 1 d . .
C15 C 0.5907(3) 0.0825(2) 0.7735(4) 0.0671(12) Uani 1 1 d . .
H15 H 0.5985 0.1233 0.7429 0.080 Uiso 1 1 calc R U
C16 C 0.6603(4) 0.0329(2) 0.8040(5) 0.0828(14) Uani 1 1 d . .
H16 H 0.7150 0.0398 0.7922 0.099 Uiso 1 1 calc R U
C17 C 0.6496(4) -0.0269(3) 0.8518(6) 0.1035(19) Uani 1 1 d . .
H17 H 0.6973 -0.0599 0.8726 0.124 Uiso 1 1 calc R U
C18 C 0.5685(4) -0.0382(2) 0.8690(6) 0.0987(18) Uani 1 1 d . .
H18 H 0.5614 -0.0787 0.9010 0.118 Uiso 1 1 calc R U
C19 C 0.4984(3) 0.0107(2) 0.8386(4) 0.0690(12) Uani 1 1 d . .
C20 C 0.4035(3) 0.0096(2) 0.8480(4) 0.0712(13) Uani 1 1 d . .
C21 C 0.3345(4) -0.0464(2) 0.7679(5) 0.0973(17) Uani 1 1 d . .
H21A H 0.3631 -0.0887 0.8037 0.146 Uiso 1 1 calc R U
H21B H 0.2716 -0.0420 0.7655 0.146 Uiso 1 1 calc R U
H21C H 0.3257 -0.0436 0.6843 0.146 Uiso 1 1 calc R U
C22 C 0.4245(5) 0.0024(3) 0.9853(5) 0.110(2) Uani 1 1 d . .
H22A H 0.4515 -0.0409 1.0161 0.166 Uiso 1 1 calc R U
H22B H 0.4710 0.0359 1.0359 0.166 Uiso 1 1 calc R U
H22C H 0.3641 0.0079 0.9889 0.166 Uiso 1 1 calc R U
C23 C 0.2399(2) 0.26442(17) 0.4835(3) 0.0433(9) Uani 1 1 d . .
C24 C 0.1564(3) 0.2333(2) 0.3918(4) 0.0590(11) Uani 1 1 d . .
H24 H 0.1113 0.2149 0.4136 0.071 Uiso 1 1 calc R U
C25 C 0.1376(3) 0.22850(19) 0.2691(4) 0.0577(11) Uani 1 1 d . .
H25 H 0.0811 0.2062 0.2115 0.069 Uiso 1 1 calc R U
C26 C 0.1997(2) 0.25561(17) 0.2291(3) 0.0458(9) Uani 1 1 d . .
C27 C 0.2853(3) 0.2843(2) 0.3219(4) 0.0584(11) Uani 1 1 d . .
H27 H 0.3315 0.3011 0.3007 0.070 Uiso 1 1 calc R U
C28 C 0.3043(3) 0.2887(2) 0.4448(4) 0.0549(10) Uani 1 1 d . .
H28 H 0.3626 0.3087 0.5034 0.066 Uiso 1 1 calc R U
C29 C 0.3213(3) 0.32825(17) 0.6914(3) 0.0456(9) Uani 1 1 d . .
C30 C 0.3951(3) 0.32422(19) 0.8140(4) 0.0562(10) Uani 1 1 d . .
H30 H 0.4099 0.2832 0.8544 0.067 Uiso 1 1 calc R U
C31 C 0.4477(3) 0.3802(2) 0.8785(4) 0.0597(11) Uani 1 1 d . .
H31 H 0.4970 0.3756 0.9611 0.072 Uiso 1 1 calc R U
C32 C 0.4293(3) 0.44227(18) 0.8242(3) 0.0482(9) Uani 1 1 d . .
C33 C 0.3522(3) 0.44644(19) 0.7016(4) 0.0560(10) Uani 1 1 d . .
H33 H 0.3353 0.4878 0.6626 0.067 Uiso 1 1 calc R U
C34 C 0.3001(3) 0.39090(18) 0.6365(4) 0.0550(10) Uani 1 1 d . .
H34 H 0.2500 0.3956 0.5543 0.066 Uiso 1 1 calc R U
C35 C 0.1762(3) 0.25311(19) 0.0913(4) 0.0557(10) Uani 1 1 d . .
C36 C 0.0649(3) 0.2558(3) 0.0041(4) 0.1023(18) Uani 1 1 d . .
H36A H 0.0385 0.2958 0.0201 0.153 Uiso 1 1 calc R U
H36B H 0.0520 0.2557 -0.0813 0.153 Uiso 1 1 calc R U
H36C H 0.0341 0.2177 0.0187 0.153 Uiso 1 1 calc R U
C37 C 0.2202(4) 0.1901(2) 0.0680(5) 0.0924(16) Uani 1 1 d . .
H37A H 0.2901 0.1893 0.1236 0.139 Uiso 1 1 calc R U
H37B H 0.1901 0.1517 0.0829 0.139 Uiso 1 1 calc R U
H37C H 0.2080 0.1897 -0.0171 0.139 Uiso 1 1 calc R U
C38 C 0.2204(4) 0.3129(2) 0.0566(4) 0.0842(14) Uani 1 1 d . .
H38A H 0.1940 0.3534 0.0704 0.126 Uiso 1 1 calc R U
H38B H 0.2910 0.3127 0.1078 0.126 Uiso 1 1 calc R U
H38C H 0.2039 0.3099 -0.0300 0.126 Uiso 1 1 calc R U
C39 C 0.4933(3) 0.5019(2) 0.8959(4) 0.0612(11) Uani 1 1 d . .
C40 C 0.4978(6) 0.5081(3) 1.0223(6) 0.130(3) Uani 1 1 d . .
H40A H 0.4323 0.5142 1.0111 0.195 Uiso 1 1 calc R U
H40B H 0.5260 0.4684 1.0701 0.195 Uiso 1 1 calc R U
H40C H 0.5380 0.5458 1.0662 0.195 Uiso 1 1 calc R U
C41 C 0.4517(4) 0.5668(2) 0.8235(6) 0.1000(18) Uani 1 1 d . .
H41A H 0.4483 0.5637 0.7428 0.150 Uiso 1 1 calc R U
H41B H 0.3866 0.5743 0.8130 0.150 Uiso 1 1 calc R U
H41C H 0.4939 0.6032 0.8694 0.150 Uiso 1 1 calc R U
C42 C 0.5957(4) 0.4922(3) 0.9101(6) 0.109(2) Uani 1 1 d . .
H42A H 0.5911 0.4884 0.8288 0.164 Uiso 1 1 calc R U
H42B H 0.6365 0.5297 0.9534 0.164 Uiso 1 1 calc R U
H42C H 0.6245 0.4524 0.9573 0.164 Uiso 1 1 calc R U
loop_
_atom_site_aniso_label
_atom_site_aniso_U_11
_atom_site_aniso_U_22
_atom_site_aniso_U_33
_atom_site_aniso_U_23
_atom_site_aniso_U_13
_atom_site_aniso_U_12
C1 0.042(2) 0.047(2) 0.043(2) 0.0015(18) 0.0158(18) -0.0036(17)
C2 0.039(2) 0.066(3) 0.043(2) -0.003(2) 0.0147(18) -0.006(2)
C3 0.049(3) 0.085(3) 0.066(3) 0.003(2) 0.024(2) 0.005(2)
C4 0.052(3) 0.115(4) 0.083(4) -0.004(3) 0.032(3) 0.003(3)
C5 0.051(3) 0.131(5) 0.071(3) -0.014(3) 0.034(3) -0.015(3)
C6 0.057(3) 0.093(3) 0.057(3) -0.006(3) 0.030(2) -0.017(3)
C7 0.045(2) 0.073(3) 0.040(2) -0.006(2) 0.0185(18) -0.013(2)
C8 0.056(2) 0.054(2) 0.039(2) 0.0000(19) 0.0200(19) -0.012(2)
C9 0.063(3) 0.068(3) 0.047(2) 0.006(2) 0.022(2) -0.021(2)
C10 0.065(3) 0.051(2) 0.038(2) 0.0044(19) 0.014(2) -0.013(2)
C11 0.055(2) 0.043(2) 0.038(2) 0.0014(18) 0.0130(19) -0.0081(19)
C12 0.048(2) 0.049(2) 0.044(2) 0.0029(18) 0.0182(18) -0.0094(19)
C13 0.044(2) 0.046(2) 0.043(2) 0.0009(18) 0.0177(18) -0.0072(18)
C14 0.057(3) 0.045(2) 0.043(2) 0.0013(19) 0.009(2) -0.0034(19)
C15 0.058(3) 0.053(2) 0.066(3) 0.001(2) 0.011(2) 0.001(2)
C16 0.057(3) 0.075(3) 0.093(4) 0.003(3) 0.018(3) 0.008(3)
C17 0.083(4) 0.067(3) 0.123(5) 0.021(3) 0.020(4) 0.023(3)
C18 0.090(4) 0.061(3) 0.112(4) 0.030(3) 0.021(3) 0.009(3)
C19 0.073(3) 0.050(2) 0.054(3) 0.010(2) 0.006(2) 0.001(2)
C20 0.084(3) 0.056(3) 0.059(3) 0.016(2) 0.023(2) -0.010(2)
C21 0.102(4) 0.057(3) 0.104(4) 0.008(3) 0.026(3) -0.019(3)
C22 0.138(5) 0.105(4) 0.072(4) 0.039(3) 0.037(4) 0.000(4)
C23 0.034(2) 0.0461(19) 0.042(2) 0.0053(17) 0.0119(17) 0.0028(16)
C24 0.049(2) 0.066(2) 0.055(3) -0.005(2) 0.020(2) -0.024(2)
C25 0.050(2) 0.063(2) 0.045(2) -0.009(2) 0.0098(19) -0.015(2)
C26 0.038(2) 0.0436(19) 0.049(2) -0.0006(18) 0.0162(18) 0.0020(17)
C27 0.041(2) 0.078(3) 0.059(3) -0.001(2) 0.026(2) -0.006(2)
C28 0.038(2) 0.073(3) 0.048(2) -0.006(2) 0.0158(18) -0.0112(19)
C29 0.039(2) 0.049(2) 0.044(2) 0.0034(18) 0.0167(18) 0.0007(17)
C30 0.059(2) 0.050(2) 0.043(2) 0.0078(19) 0.011(2) 0.0020(19)
C31 0.055(2) 0.062(3) 0.042(2) -0.001(2) 0.0066(19) -0.004(2)
C32 0.048(2) 0.053(2) 0.045(2) -0.005(2) 0.0238(19) -0.0016(19)
C33 0.065(3) 0.044(2) 0.056(3) 0.007(2) 0.027(2) 0.001(2)
C34 0.054(2) 0.053(2) 0.041(2) 0.0045(19) 0.0095(19) 0.003(2)
C35 0.056(2) 0.060(2) 0.046(2) 0.000(2) 0.0207(19) 0.009(2)
C36 0.062(3) 0.180(6) 0.048(3) -0.002(3) 0.012(2) 0.005(3)
C37 0.124(4) 0.080(3) 0.080(4) -0.006(3) 0.054(3) 0.024(3)
C38 0.094(4) 0.087(3) 0.066(3) 0.023(3) 0.033(3) 0.013(3)
C39 0.065(3) 0.061(3) 0.058(3) -0.014(2) 0.030(2) -0.011(2)
C40 0.206(7) 0.115(4) 0.090(4) -0.049(4) 0.089(5) -0.071(5)
C41 0.113(4) 0.055(3) 0.119(5) -0.011(3) 0.045(4) -0.024(3)
C42 0.068(3) 0.115(4) 0.133(5) -0.043(4) 0.038(3) -0.032(3)
loop_
_atom_type_symbol
_atom_type_description
_atom_type_scat_dispersion_real
_atom_type_scat_dispersion_imag
_atom_type_scat_source
C C 0.0033 0.0016 'International Tables Vol C Tables 4.2.6.8 and 6.1.1.4'
H H 0.0000 0.0000 'International Tables Vol C Tables 4.2.6.8 and 6.1.1.4'
loop_
_geom_angle_atom_site_label_1
_geom_angle_atom_site_label_2
_geom_angle_atom_site_label_3
_geom_angle
C23 C1 C13 108.6(3)
C23 C1 C29 113.6(3)
C13 C1 C29 113.0(3)
C23 C1 C2 111.6(3)
C13 C1 C2 100.7(3)
C29 C1 C2 108.7(3)
C3 C2 C7 121.1(4)
C3 C2 C1 128.6(4)
C7 C2 C1 110.3(3)
C2 C3 C4 118.3(4)
C2 C3 H3 120.9
C4 C3 H3 120.9
C5 C4 C3 120.8(5)
C5 C4 H4 119.6
C3 C4 H4 119.6
C6 C5 C4 121.3(4)
C6 C5 H5 119.3
C4 C5 H5 119.3
C5 C6 C7 118.5(4)
C5 C6 H6 120.7
C7 C6 H6 120.7
C2 C7 C6 120.0(4)
C2 C7 C8 109.3(3)
C6 C7 C8 130.8(4)
C13 C8 C9 120.8(4)
C13 C8 C7 108.7(3)
C9 C8 C7 130.5(4)
C10 C9 C8 118.4(4)
C10 C9 H9 120.8
C8 C9 H9 120.8
C9 C10 C11 120.5(4)
C9 C10 C20 128.5(4)
C11 C10 C20 111.1(4)
C12 C11 C10 121.2(4)
C12 C11 C14 130.4(4)
C10 C11 C14 108.4(3)
C13 C12 C11 118.0(3)
C13 C12 H12 121.0
C11 C12 H12 121.0
C12 C13 C8 121.1(3)
C12 C13 C1 127.8(3)
C8 C13 C1 111.1(3)
C15 C14 C19 121.2(4)
C15 C14 C11 130.6(4)
C19 C14 C11 108.2(4)
C14 C15 C16 118.6(4)
C14 C15 H15 120.7
C16 C15 H15 120.7
C17 C16 C15 120.5(5)
C17 C16 H16 119.7
C15 C16 H16 119.7
C16 C17 C18 120.5(5)
C16 C17 H17 119.8
C18 C17 H17 119.8
C19 C18 C17 119.6(5)
C19 C18 H18 120.2
C17 C18 H18 120.2
C18 C19 C14 119.5(5)
C18 C19 C20 129.1(4)
C14 C19 C20 111.4(4)
C10 C20 C19 101.0(3)
C10 C20 C21 111.0(3)
C19 C20 C21 111.2(4)
C10 C20 C22 111.8(4)
C19 C20 C22 111.8(4)
C21 C20 C22 109.9(4)
C20 C21 H21A 109.5
C20 C21 H21B 109.5
H21A C21 H21B 109.5
C20 C21 H21C 109.5
H21A C21 H21C 109.5
H21B C21 H21C 109.5
C20 C22 H22A 109.5
C20 C22 H22B 109.5
H22A C22 H22B 109.5
C20 C22 H22C 109.5
H22A C22 H22C 109.5
H22B C22 H22C 109.5
C28 C23 C24 115.4(3)
C28 C23 C1 123.1(3)
C24 C23 C1 121.3(3)
C25 C24 C23 122.3(4)
C25 C24 H24 118.8
C23 C24 H24 118.8
C26 C25 C24 122.2(3)
C26 C25 H25 118.9
C24 C25 H25 118.9
C25 C26 C27 115.4(3)
C25 C26 C35 122.1(3)
C27 C26 C35 122.5(3)
C28 C27 C26 122.2(4)
C28 C27 H27 118.9
C26 C27 H27 118.9
C23 C28 C27 122.3(3)
C23 C28 H28 118.9
C27 C28 H28 118.9
C30 C29 C34 117.1(4)
C30 C29 C1 122.2(3)
C34 C29 C1 120.6(3)
C29 C30 C31 121.3(4)
C29 C30 H30 119.3
C31 C30 H30 119.3
C32 C31 C30 122.2(4)
C32 C31 H31 118.9
C30 C31 H31 118.9
C31 C32 C33 116.2(3)
C31 C32 C39 120.5(4)
C33 C32 C39 123.2(3)
C34 C33 C32 121.9(4)
C34 C33 H33 119.1
C32 C33 H33 119.1
C33 C34 C29 121.2(4)
C33 C34 H34 119.4
C29 C34 H34 119.4
C37 C35 C36 110.7(4)
C37 C35 C26 109.7(3)
C36 C35 C26 110.9(3)
C37 C35 C38 107.6(4)
C36 C35 C38 106.3(4)
C26 C35 C38 111.7(3)
C35 C36 H36A 109.5
C35 C36 H36B 109.5
H36A C36 H36B 109.5
C35 C36 H36C 109.5
H36A C36 H36C 109.5
H36B C36 H36C 109.5
C35 C37 H37A 109.5
C35 C37 H37B 109.5
H37A C37 H37B 109.5
C35 C37 H37C 109.5
H37A C37 H37C 109.5
H37B C37 H37C 109.5
C35 C38 H38A 109.5
C35 C38 H38B 109.5
H38A C38 H38B 109.5
C35 C38 H38C 109.5
H38A C38 H38C 109.5
H38B C38 H38C 109.5
C40 C39 C42 110.9(5)
C40 C39 C41 108.5(4)
C42 C39 C41 107.6(4)
C40 C39 C32 110.3(4)
C42 C39 C32 108.5(3)
C41 C39 C32 111.1(4)
C39 C40 H40A 109.5
C39 C40 H40B 109.5
H40A C40 H40B 109.5
C39 C40 H40C 109.5
H40A C40 H40C 109.5
H40B C40 H40C 109.5
C39 C41 H41A 109.5
C39 C41 H41B 109.5
H41A C41 H41B 109.5
C39 C41 H41C 109.5
H41A C41 H41C 109.5
H41B C41 H41C 109.5
C39 C42 H42A 109.5
C39 C42 H42B 109.5
H42A C42 H42B 109.5
C39 C42 H42C 109.5
H42A C42 H42C 109.5
H42B C42 H42C 109.5
loop_
_geom_bond_atom_site_label_1
_geom_bond_atom_site_label_2
_geom_bond_distance
C1 C23 1.531(5)
C1 C13 1.531(5)
C1 C29 1.532(5)
C1 C2 1.547(5)
C2 C3 1.374(5)
C2 C7 1.389(5)
C3 C4 1.383(6)
C3 H3 0.9300
C4 C5 1.375(7)
C4 H4 0.9300
C5 C6 1.368(6)
C5 H5 0.9300
C6 C7 1.390(5)
C6 H6 0.9300
C7 C8 1.465(5)
C8 C13 1.390(5)
C8 C9 1.393(5)
C9 C10 1.382(6)
C9 H9 0.9300
C10 C11 1.397(5)
C10 C20 1.516(6)
C11 C12 1.392(5)
C11 C14 1.470(5)
C12 C13 1.383(5)
C12 H12 0.9300
C14 C15 1.379(6)
C14 C19 1.388(6)
C15 C16 1.380(6)
C15 H15 0.9300
C16 C17 1.377(7)
C16 H16 0.9300
C17 C18 1.382(8)
C17 H17 0.9300
C18 C19 1.373(7)
C18 H18 0.9300
C19 C20 1.522(6)
C20 C21 1.534(6)
C20 C22 1.547(7)
C21 H21A 0.9600
C21 H21B 0.9600
C21 H21C 0.9600
C22 H22A 0.9600
C22 H22B 0.9600
C22 H22C 0.9600
C23 C28 1.375(5)
C23 C24 1.384(5)
C24 C25 1.381(5)
C24 H24 0.9300
C25 C26 1.377(5)
C25 H25 0.9300
C26 C27 1.385(5)
C26 C35 1.536(5)
C27 C28 1.382(5)
C27 H27 0.9300
C28 H28 0.9300
C29 C30 1.378(5)
C29 C34 1.388(5)
C30 C31 1.388(5)
C30 H30 0.9300
C31 C32 1.374(5)
C31 H31 0.9300
C32 C33 1.395(5)
C32 C39 1.531(5)
C33 C34 1.380(5)
C33 H33 0.9300
C34 H34 0.9300
C35 C37 1.524(5)
C35 C36 1.526(6)
C35 C38 1.535(6)
C36 H36A 0.9600
C36 H36B 0.9600
C36 H36C 0.9600
C37 H37A 0.9600
C37 H37B 0.9600
C37 H37C 0.9600
C38 H38A 0.9600
C38 H38B 0.9600
C38 H38C 0.9600
C39 C40 1.511(7)
C39 C42 1.516(7)
C39 C41 1.531(6)
C40 H40A 0.9600
C40 H40B 0.9600
C40 H40C 0.9600
C41 H41A 0.9600
C41 H41B 0.9600
C41 H41C 0.9600
C42 H42A 0.9600
C42 H42B 0.9600
C42 H42C 0.9600
loop_
_geom_torsion_atom_site_label_1
_geom_torsion_atom_site_label_2
_geom_torsion_atom_site_label_3
_geom_torsion_atom_site_label_4
_geom_torsion
C23 C1 C2 C3 -65.1(5)
C13 C1 C2 C3 179.9(4)
C29 C1 C2 C3 61.0(5)
C23 C1 C2 C7 114.1(3)
C13 C1 C2 C7 -0.9(4)
C29 C1 C2 C7 -119.8(3)
C7 C2 C3 C4 -0.4(6)
C1 C2 C3 C4 178.7(4)
C2 C3 C4 C5 0.1(7)
C3 C4 C5 C6 0.3(7)
C4 C5 C6 C7 -0.3(7)
C3 C2 C7 C6 0.4(6)
C1 C2 C7 C6 -178.8(3)
C3 C2 C7 C8 179.8(4)
C1 C2 C7 C8 0.5(4)
C5 C6 C7 C2 -0.1(6)
C5 C6 C7 C8 -179.2(4)
C2 C7 C8 C13 0.2(4)
C6 C7 C8 C13 179.4(4)
C2 C7 C8 C9 -177.7(4)
C6 C7 C8 C9 1.5(7)
C13 C8 C9 C10 0.4(6)
C7 C8 C9 C10 178.1(4)
C8 C9 C10 C11 0.7(6)
C8 C9 C10 C20 -177.7(4)
C9 C10 C11 C12 -1.0(6)
C20 C10 C11 C12 177.6(3)
C9 C10 C11 C14 -179.8(4)
C20 C10 C11 C14 -1.2(4)
C10 C11 C12 C13 0.4(5)
C14 C11 C12 C13 178.8(4)
C11 C12 C13 C8 0.7(5)
C11 C12 C13 C1 -177.4(3)
C9 C8 C13 C12 -1.1(5)
C7 C8 C13 C12 -179.2(3)
C9 C8 C13 C1 177.3(3)
C7 C8 C13 C1 -0.9(4)
C23 C1 C13 C12 62.0(5)
C29 C1 C13 C12 -64.9(5)
C2 C1 C13 C12 179.3(3)
C23 C1 C13 C8 -116.2(3)
C29 C1 C13 C8 116.8(3)
C2 C1 C13 C8 1.1(4)
C12 C11 C14 C15 1.8(7)
C10 C11 C14 C15 -179.6(4)
C12 C11 C14 C19 -176.7(4)
C10 C11 C14 C19 1.9(4)
C19 C14 C15 C16 2.0(6)
C11 C14 C15 C16 -176.3(4)
C14 C15 C16 C17 -1.3(7)
C15 C16 C17 C18 0.5(9)
C16 C17 C18 C19 -0.2(9)
C17 C18 C19 C14 0.9(8)
C17 C18 C19 C20 179.4(5)
C15 C14 C19 C18 -1.8(6)
C11 C14 C19 C18 176.9(4)
C15 C14 C19 C20 179.4(4)
C11 C14 C19 C20 -1.9(5)
C9 C10 C20 C19 178.6(4)
C11 C10 C20 C19 0.1(4)
C9 C10 C20 C21 60.7(6)
C11 C10 C20 C21 -117.8(4)
C9 C10 C20 C22 -62.4(6)
C11 C10 C20 C22 119.1(4)
C18 C19 C20 C10 -177.5(5)
C14 C19 C20 C10 1.1(5)
C18 C19 C20 C21 -59.7(6)
C14 C19 C20 C21 118.9(4)
C18 C19 C20 C22 63.5(7)
C14 C19 C20 C22 -117.9(4)
C13 C1 C23 C28 -94.7(4)
C29 C1 C23 C28 31.9(5)
C2 C1 C23 C28 155.2(3)
C13 C1 C23 C24 81.6(4)
C29 C1 C23 C24 -151.8(3)
C2 C1 C23 C24 -28.5(5)
C28 C23 C24 C25 -1.8(6)
C1 C23 C24 C25 -178.4(4)
C23 C24 C25 C26 -1.3(6)
C24 C25 C26 C27 3.9(6)
C24 C25 C26 C35 -177.1(4)
C25 C26 C27 C28 -3.5(6)
C35 C26 C27 C28 177.5(4)
C24 C23 C28 C27 2.1(6)
C1 C23 C28 C27 178.7(4)
C26 C27 C28 C23 0.5(6)
C23 C1 C29 C30 -139.6(3)
C13 C1 C29 C30 -15.4(5)
C2 C1 C29 C30 95.5(4)
C23 C1 C29 C34 43.9(5)
C13 C1 C29 C34 168.2(3)
C2 C1 C29 C34 -81.0(4)
C34 C29 C30 C31 -1.7(6)
C1 C29 C30 C31 -178.3(3)
C29 C30 C31 C32 0.1(6)
C30 C31 C32 C33 2.1(6)
C30 C31 C32 C39 -176.1(4)
C31 C32 C33 C34 -2.7(5)
C39 C32 C33 C34 175.5(4)
C32 C33 C34 C29 1.2(6)
C30 C29 C34 C33 1.1(6)
C1 C29 C34 C33 177.8(3)
C25 C26 C35 C37 -90.4(5)
C27 C26 C35 C37 88.6(5)
C25 C26 C35 C36 32.1(5)
C27 C26 C35 C36 -148.9(4)
C25 C26 C35 C38 150.4(4)
C27 C26 C35 C38 -30.6(5)
C31 C32 C39 C40 -52.9(6)
C33 C32 C39 C40 129.0(5)
C31 C32 C39 C42 68.7(5)
C33 C32 C39 C42 -109.4(5)
C31 C32 C39 C41 -173.2(4)
C33 C32 C39 C41 8.7(5)
