#------------------------------------------------------------------------------
#$Date: 2016-03-24 14:28:49 +0200 (Thu, 24 Mar 2016) $
#$Revision: 179665 $
#$URL: svn://www.crystallography.net/cod/cif/4/51/18/4511880.cif $
#------------------------------------------------------------------------------
#
# This file is available in the Crystallography Open Database (COD),
# http://www.crystallography.net/
#
# All data on this site have been placed in the public domain by the
# contributors.
#
data_4511880
loop_
_publ_author_name
'Harada, Jun'
'Ogawa, Keiichiro'
_publ_section_title
;
 What Molecules Are Likely or Unlikely To Undergo Pedal Motions in
 Crystals?
;
_journal_issue                   10
_journal_name_full               'Crystal Growth &amp; Design'
_journal_page_first              5182
_journal_paper_doi               10.1021/cg500962y
_journal_volume                  14
_journal_year                    2014
_chemical_formula_moiety         'C16 H16'
_chemical_formula_sum            'C16 H16'
_chemical_formula_weight         208.29
_chemical_name_systematic
;
 ?
;
_space_group_crystal_system      monoclinic
_space_group_IT_number           14
_space_group_name_Hall           '-P 2yn'
_space_group_name_H-M_alt        'P 1 21/n 1'
_symmetry_space_group_name_Hall  '-P 2yn'
_symmetry_space_group_name_H-M   'P 1 21/n 1'
_atom_sites_solution_hydrogens   geom
_atom_sites_solution_primary     direct
_audit_creation_date             2014-06-26
_audit_creation_method
;
Olex2 1.2
(compiled 2014.06.23 svn.r2946 for OlexSys, GUI svn.r4855)
;
_cell_angle_alpha                90
_cell_angle_beta                 112.365(1)
_cell_angle_gamma                90
_cell_formula_units_Z            2
_cell_length_a                   5.7047(2)
_cell_length_b                   16.8879(7)
_cell_length_c                   6.5872(3)
_cell_measurement_reflns_used    5614
_cell_measurement_temperature    90
_cell_measurement_theta_max      29.988
_cell_measurement_theta_min      2.412
_cell_volume                     586.88(4)
_computing_cell_refinement       'SAINT v6.28A (Bruker, 2002)'
_computing_data_collection       'SMART v5.054 (Bruker, 1998)'
_computing_data_reduction        'SAINT v6.28A (Bruker, 2002)'
_computing_molecular_graphics    'Ortep-3 for Windows (Farrugia, 2012)'
_computing_publication_material  'Olex2 (Dolomanov et al., 2009)'
_computing_structure_refinement  'ShelXL (Sheldrick, 2008)'
_computing_structure_solution    'ShelXS (Sheldrick, 2008)'
_diffrn_ambient_temperature      90
_diffrn_detector_area_resol_mean 8.192
_diffrn_measured_fraction_theta_full 1.000
_diffrn_measured_fraction_theta_max 0.999
_diffrn_measurement_device_type  'Bruker SMART 1000'
_diffrn_measurement_method       \w_scan
_diffrn_radiation_type           MoK\a
_diffrn_radiation_wavelength     0.71073
_diffrn_reflns_av_R_equivalents  0.0163
_diffrn_reflns_av_unetI/netI     0.0107
_diffrn_reflns_Laue_measured_fraction_full 1.000
_diffrn_reflns_Laue_measured_fraction_max 0.999
_diffrn_reflns_limit_h_max       8
_diffrn_reflns_limit_h_min       -8
_diffrn_reflns_limit_k_max       23
_diffrn_reflns_limit_k_min       -23
_diffrn_reflns_limit_l_max       9
_diffrn_reflns_limit_l_min       -9
_diffrn_reflns_number            8911
_diffrn_reflns_point_group_measured_fraction_full 1.000
_diffrn_reflns_point_group_measured_fraction_max 0.999
_diffrn_reflns_theta_full        25.242
_diffrn_reflns_theta_max         29.999
_diffrn_reflns_theta_min         2.412
_diffrn_source                   'sealed X-ray tube'
_exptl_absorpt_coefficient_mu    0.066
_exptl_absorpt_correction_T_max  1
_exptl_absorpt_correction_T_min  0.953710
_exptl_absorpt_correction_type   multi-scan
_exptl_absorpt_process_details
'SADABS v.2.03 (Bruker,200?) was used for absorption correction. R(int) was 0.0275 before and 0.0160 after correction. The Ratio of minimum to maximum transmission is 0.9537. The \l/2 correction factor is 0.0015.'
_exptl_crystal_colour            colourless
_exptl_crystal_colour_primary    colourless
_exptl_crystal_density_diffrn    1.179
_exptl_crystal_description       block
_exptl_crystal_F_000             224
_exptl_crystal_size_max          0.6
_exptl_crystal_size_mid          0.5
_exptl_crystal_size_min          0.2
_refine_diff_density_max         0.290
_refine_diff_density_min         -0.178
_refine_diff_density_rms         0.038
_refine_ls_extinction_method     none
_refine_ls_goodness_of_fit_ref   1.051
_refine_ls_hydrogen_treatment    constr
_refine_ls_matrix_type           full
_refine_ls_number_parameters     108
_refine_ls_number_reflns         1708
_refine_ls_number_restraints     251
_refine_ls_restrained_S_all      0.999
_refine_ls_R_factor_all          0.0418
_refine_ls_R_factor_gt           0.0393
_refine_ls_shift/su_max          0.000
_refine_ls_shift/su_mean         0.000
_refine_ls_structure_factor_coef Fsqd
_refine_ls_weighting_details
'w=1/[\s^2^(Fo^2^)+(0.0573P)^2^+0.1396P] where P=(Fo^2^+2Fc^2^)/3'
_refine_ls_weighting_scheme      calc
_refine_ls_wR_factor_gt          0.1063
_refine_ls_wR_factor_ref         0.1086
_reflns_Friedel_coverage         0.000
_reflns_number_gt                1591
_reflns_number_total             1708
_reflns_threshold_expression     'I > 2\s(I)'
_cod_data_source_file            cg500962y_si_001.cif
_cod_data_source_block           aaMeEST90K
_cod_depositor_comments
'Adding full bibliography for 4511872--4511883.cif.'
_cod_database_code               4511880
#BEGIN Tags that were not found in dictionaries:
_shelxl_version_number           2013-4
_shelx_space_group_comment
;
The symmetry employed for this shelxl refinement is uniquely defined
by the following loop, which should always be used as a source of
symmetry information in preference to the above space-group names.
They are only intended as comments.
;
_shelx_estimated_absorpt_t_max   0.987
_shelx_estimated_absorpt_t_min   0.961
_olex2_refinement_description
;
1. Fixed Uiso
 At 1.2 times of:
  All C(H) groups
 At 1.5 times of:
  All C(H,H,H) groups
2. Restrained distances
 C7-C7_$1 \\sim C7'-C7'_$1
 with sigma of 0.02
3. Uiso/Uaniso restraints and constraints
All non-hydrogen atoms have similar U: within 1.7A with sigma of 0.04 and sigma
for terminal atoms of 0.08
4. Rigid body (RIGU) restrains
 All non-hydrogen atoms
 with sigma for 1-2 distances of 0.004 and sigma for 1-3 distances of 0.004
5. Same fragment restrains
{C1, C2, C3, C4, C5, C6, C7, C8}
as
{C1', C2', C3', C4', C5', C6', C7', C8'}
6. Others
 Sof(C1')=Sof(C2')=Sof(H2')=Sof(C3')=Sof(H3')=Sof(C4')=Sof(H4')=Sof(C5')=
 Sof(H5')=Sof(C6')=Sof(H6')=Sof(C7')=Sof(C8')=Sof(H81')=Sof(H82')=Sof(H83')=1-
 FVAR(1)
 Sof(C1)=Sof(C2)=Sof(H2)=Sof(C3)=Sof(H3)=Sof(C4)=Sof(H4)=Sof(C5)=Sof(H5)=
 Sof(C6)=Sof(H6)=Sof(C7)=Sof(C8)=Sof(H81)=Sof(H82)=Sof(H83)=FVAR(1)
7.a Aromatic/amide H refined with riding coordinates:
 C2(H2), C3(H3), C4(H4), C5(H5), C6(H6), C2'(H2'), C3'(H3'), C4'(H4'),
 C5'(H5'), C6'(H6')
7.b Idealised Me refined as rotating group:
 C8(H81,H82,H83), C8'(H81',H82',H83')
;
_shelx_res_file
;
TITL (E)-alpha,alpha'-dimethylstilbene  at 90 K in P2(1)/n
CELL 0.71073   5.7047  16.8879   6.5872  90.000 112.365  90.000
ZERR    2.00   0.0002   0.0007   0.0003   0.000   0.001   0.000
LATT 1
SYMM 0.5-X, 0.5+Y, 0.5-Z
SFAC C  H
UNIT 32 32
LIST 4
L.S. 6
BOND $H
CONF
FMAP 2
PLAN 20
ACTA
SIZE 0.2 0.5 0.6
TEMP -183
RIGU
SIMU
EQIV $1 1-x, 1-y, -z
SADI C7 C7_$1 C7' C7'_$1
WGHT    0.057300    0.139600
FVAR       1.63764   0.64988
PART 1
C1    1    0.546859    0.409256    0.191561    21.00000    0.01427    0.01397 =
         0.01713   -0.00011    0.00451   -0.00219
C2    1    0.446911    0.402500    0.353574    21.00000    0.01970    0.01856 =
         0.01925    0.00154    0.00928    0.00217
AFIX  43
H2    2    0.310091    0.435571    0.348534    21.00000   -1.20000
AFIX   0
C3    1    0.545178    0.348011    0.521935    21.00000    0.01882    0.01741 =
         0.01139    0.00291    0.00689    0.00075
AFIX  43
H3    2    0.479495    0.346840    0.634540    21.00000   -1.20000
AFIX   0
C4    1    0.732222    0.296000    0.532743    21.00000    0.02076    0.01991 =
         0.01475    0.00414    0.00612   -0.00074
AFIX  43
H4    2    0.788083    0.256026    0.642224    21.00000   -1.20000
AFIX   0
C5    1    0.837807    0.304741    0.373209    21.00000    0.02114    0.02109 =
         0.03324   -0.00280    0.00797    0.00672
AFIX  43
H5    2    0.977782    0.272331    0.382894    21.00000   -1.20000
AFIX   0
C6    1    0.746299    0.358848    0.201391    21.00000    0.01736    0.01825 =
         0.01846   -0.00213    0.00721   -0.00191
AFIX  43
H6    2    0.817707    0.361574    0.092712    21.00000   -1.20000
AFIX   0
C7    1    0.437998    0.467048    0.007386    21.00000    0.01514    0.01554 =
         0.01333   -0.00005    0.00423    0.00036
C8    1    0.178346    0.444663   -0.162503    21.00000    0.01007    0.01343 =
         0.01401   -0.00167    0.00028   -0.00442
AFIX 137
H81   2    0.135392    0.479961   -0.289622    21.00000   -1.50000
H82   2    0.050542    0.449855   -0.097475    21.00000   -1.50000
H83   2    0.182324    0.389797   -0.209533    21.00000   -1.50000
AFIX   0
PART 2
SAME C1 > C8
C1'   1    0.638977    0.421659    0.230048   -21.00000    0.01608
C2'   1    0.509822    0.413679    0.370302   -21.00000    0.02039
AFIX  43
H2'   2    0.390687    0.452854    0.371147   -21.00000   -1.20000
AFIX   0
C3'   1    0.554553    0.348098    0.510494   -21.00000    0.03801
AFIX  43
H3'   2    0.459387    0.339421    0.599530   -21.00000   -1.20000
AFIX   0
C4'   1    0.748897    0.295378    0.512751   -21.00000    0.01829
AFIX  43
H4'   2    0.798781    0.254951    0.621171   -21.00000   -1.20000
AFIX   0
C5'   1    0.865402    0.298949    0.373062   -21.00000    0.00846
AFIX  43
H5'   2    0.977234    0.258238    0.366516   -21.00000   -1.20000
AFIX   0
C6'   1    0.817083    0.364640    0.236907   -21.00000    0.01941
AFIX  43
H6'   2    0.909552    0.370865    0.144659   -21.00000   -1.20000
AFIX   0
C7'   1    0.604158    0.494124    0.089611   -21.00000    0.01727
C8'   1    0.815905    0.553067    0.166161   -21.00000    0.03613
AFIX 137
H81'  2    0.769104    0.599948    0.071475   -21.00000   -1.50000
H82'  2    0.969489    0.529317    0.159359   -21.00000   -1.50000
H83'  2    0.847748    0.568525    0.317767   -21.00000   -1.50000
PART 0
AFIX   0
HKLF 4

REM  (E)-alpha,alpha'-dimethylstilbene  at 90 K in P2(1)/n
REM R1 =  0.0393 for    1591 Fo > 4sig(Fo)  and  0.0418 for all    1708 data
REM    108 parameters refined using    251 restraints

END

WGHT      0.0571      0.1396

REM Highest difference peak  0.290,  deepest hole -0.178,  1-sigma level  0.038
Q1    1   0.5044  0.3737  0.4328  11.00000  0.05    0.29
Q2    1   0.6514  0.3854  0.2042  11.00000  0.05    0.29
Q3    1   0.5308  0.4901 -0.0247  11.00000  0.05    0.28
Q4    1   0.5067  0.4016  0.2712  11.00000  0.05    0.27
Q5    1   0.6478  0.3253  0.5162  11.00000  0.05    0.27
Q6    1   0.5027  0.4410  0.1052  11.00000  0.05    0.26
Q7    1   0.3152  0.4599 -0.0801  11.00000  0.05    0.25
Q8    1   0.7792  0.3304  0.2776  11.00000  0.05    0.24
Q9    1   0.0506  0.4969 -0.2710  11.00000  0.05    0.08
Q10   1   0.7403  0.2142  0.6148  11.00000  0.05    0.07
Q11   1   0.8817  0.2524  0.7334  11.00000  0.05    0.06
Q12   1   0.6585  0.4322 -0.1403  11.00000  0.05    0.06
Q13   1   1.0794  0.3377  0.0555  11.00000  0.05    0.06
Q14   1   0.4839  0.3293  0.0211  11.00000  0.05    0.06
Q15   1   0.1903  0.5297 -0.5001  11.00000  0.05    0.06
Q16   1   0.3956  0.5240  0.3573  11.00000  0.05    0.06
Q17   1   0.2132  0.4494  0.3110  11.00000  0.05    0.05
Q18   1   0.7163  0.3593  0.0023  11.00000  0.05    0.05
Q19   1   0.0498  0.4247 -0.0379  11.00000  0.05    0.05
Q20   1   0.7783  0.6623 -0.0397  11.00000  0.05    0.05
;
_shelx_res_checksum              13740
_shelx_hkl_file
;
   1   0   0    2.55    0.20   4
   2   0   0    1.08    0.26   3
  -2   0   0    3.04    0.32   1
  -3   0   0   -0.02    0.32   1
   3   0   0    0.30    0.33   4
   3   0   0    0.05    0.33   3
  -3   0   0    0.07    0.33   2
  -4   0   0  163.72    3.36   2
  -4   0   0  166.13    3.29   1
   4   0   0  164.02    3.46   3
   4   0   0  166.80    3.17   4
  -5   0   0   -0.09    0.49   2
   5   0   0   -0.48    0.51   3
   5   0   0   -0.66    0.49   4
  -5   0   0   -0.37    0.46   1
  -6   0   0    3.45    0.78   2
   6   0   0    2.68    0.79   3
  -7   0   0    0.08    0.82   2
   7   0   0    0.88    0.83   3
   0  -1   0    0.28    0.04   3
   0  -1   0    0.01    0.03   4
   0  -1   0   -0.01    0.03   1
  -1  -1   0 4452.11   68.86   1
   1   1   0 4455.02   66.24   4
   1  -1   0 4628.94   66.92   4
  -1   1   0 4426.25   67.86   2
   1   1   0 4625.65   69.11   3
   1  -1   0 4375.95   68.82   3
  -1   1   0 4710.43   69.55   1
  -1  -1   0 4570.57   68.20   2
   2  -1   0   49.12    1.22   3
   2   1   0   49.87    1.20   3
  -2  -1   0   47.64    1.16   1
  -2  -1   0   47.57    1.13   2
  -2   1   0   51.09    1.20   2
  -2   1   0   52.21    1.14   1
   2   1   0   47.79    1.11   4
  -3   1   0 1589.93   24.72   1
   3   1   0 1616.30   23.83   4
  -3  -1   0 1600.35   24.78   1
  -3  -1   0 1590.70   24.48   2
  -3   1   0 1621.18   24.56   2
   3   1   0 1607.01   24.91   3
   3  -1   0 1637.88   24.96   3
   3  -1   0 1593.83   23.76   4
  -4   1   0   61.57    1.79   2
   4  -1   0   57.23    1.80   3
   4   1   0   62.92    1.66   4
  -4  -1   0   61.72    1.70   1
  -4   1   0   60.53    1.67   1
   4   1   0   61.07    1.78   3
   4  -1   0   58.87    1.62   4
  -4  -1   0   60.38    1.72   2
   5  -1   0   85.47    2.41   3
   5  -1   0   88.14    2.18   4
  -5  -1   0   85.33    2.30   2
   5   1   0   80.71    2.16   4
  -5   1   0   88.12    2.22   1
   5   1   0   85.97    2.39   3
  -5  -1   0   83.56    2.24   1
  -6  -1   0   77.26    2.38   2
   6  -1   0   77.28    2.49   3
  -6   1   0   78.18    2.43   2
   6   1   0   74.73    2.44   3
  -7   1   0   45.28    2.09   2
  -7  -1   0   45.73    2.06   2
   7  -1   0   44.66    2.09   3
   7   1   0   47.18    2.10   3
   0  -2   0  277.72    4.33   2
   0  -2   0  268.90    4.34   3
   0  -2   0  268.05    4.32   1
   0  -2   0  273.23    4.18   4
   1  -2   0 2642.99   39.94   4
   1  -2   0 2790.59   41.32   3
   1   2   0 2732.46   39.67   4
  -1  -2   0 2688.76   40.95   2
  -1  -2   0 2680.93   41.23   1
   1   2   0 2744.89   41.44   3
  -1   2   0 2705.03   41.59   1
  -1   2   0 2711.74   40.72   2
   2   2   0 1188.66   18.28   3
  -2   2   0 1175.85   18.18   1
   2  -2   0 1165.68   17.49   4
  -2   2   0 1191.75   18.09   2
  -2  -2   0 1193.50   18.27   1
   2   2   0 1169.57   17.55   4
   2  -2   0 1188.50   18.36   3
  -2  -2   0 1189.36   17.98   2
   3  -2   0   24.24    1.04   3
  -3  -2   0   23.91    0.99   1
  -3   2   0   24.38    0.92   1
  -3  -2   0   23.07    0.93   2
  -3   2   0   23.59    1.02   2
   3   2   0   22.47    0.95   4
   3   2   0   25.05    1.00   3
   3  -2   0   25.05    0.94   4
  -4   2   0   87.76    2.06   1
  -4  -2   0   91.62    2.19   1
   4  -2   0   88.98    2.03   4
   4   2   0   90.07    2.23   3
  -4  -2   0   86.76    2.12   2
   4   2   0   91.49    2.11   4
  -4   2   0   88.97    2.25   2
   4  -2   0   87.75    2.29   3
  -5  -2   0   80.67    2.22   1
   5   2   0   85.12    2.35   3
   5  -2   0   82.81    2.09   4
  -5   2   0   82.04    2.32   2
  -5  -2   0   80.24    2.22   2
   5   2   0   77.66    2.13   4
   5  -2   0   81.59    2.38   3
  -6  -2   0    6.34    0.89   2
   6  -2   0    4.98    0.87   3
   6   2   0    6.42    0.94   3
  -6   2   0    3.99    0.89   2
   7   2   0    6.64    1.10   3
  -7  -2   0    9.33    1.12   2
  -7   2   0    4.70    1.04   2
   7  -2   0    6.86    1.07   3
   0  -3   0   -0.12    0.10   2
   0  -3   0   -0.03    0.13   4
   0  -3   0   -0.08    0.11   1
   0  -3   0   -0.07    0.10   3
  -1  -3   0   39.54    0.96   1
   1  -3   0   38.45    0.84   4
   1  -3   0   38.28    0.98   2
   1   3   0   39.52    0.89   3
  -1  -3   0   40.16    0.82   2
   1  -3   0   39.08    0.95   3
  -1   3   0   38.55    0.84   1
   1   3   0   37.96    0.92   4
   2  -3   0  910.98   13.67   4
  -2  -3   0  922.39   14.06   2
  -2  -3   0  916.09   14.35   1
   2   3   0  921.89   13.80   4
  -2   3   0  938.95   14.22   1
   2  -3   0  913.58   14.41   3
   2   3   0  922.33   14.31   3
  -2   3   0  907.26   14.21   2
   3   3   0  362.57    6.23   3
   3   3   0  368.74    6.01   4
   3  -3   0  363.43    6.35   3
  -3  -3   0  376.97    6.27   1
  -3   3   0  368.03    6.26   2
  -3  -3   0  357.57    6.06   2
   3  -3   0  370.62    5.85   4
  -3   3   0  372.73    6.07   1
   4  -3   0  108.07    2.25   4
  -4  -3   0  103.77    2.46   1
   4   3   0  103.41    2.46   3
  -4   3   0  107.61    2.55   2
   4  -3   0  105.27    2.57   3
  -4  -3   0  104.52    2.38   2
   4   3   0  107.22    2.41   4
  -4   3   0  106.94    2.31   1
  -5  -3   0   63.97    1.93   1
   5  -3   0   58.38    2.01   3
   5   3   0   64.13    2.01   3
  -5  -3   0   66.48    1.95   2
  -5   3   0   64.89    2.07   2
   5   3   0   60.89    1.89   4
   6  -3   0    2.42    0.75   3
  -6   3   0    1.86    0.79   2
   6   3   0    2.39    0.75   3
  -6  -3   0    3.44    0.78   2
  -7   3   0   24.87    1.71   2
   7  -3   0   24.63    1.64   3
   0  -4   0 1522.65   22.47   4
   0  -4   0 1495.20   23.37   3
   0  -4   0 1564.98   23.13   2
   0  -4   0 1523.74   23.33   1
  -1   4   0 7875.65  119.85   1
  -1  -4   0 7763.80  118.68   2
   1  -4   0 7992.39  115.11   4
  -1   4   0 7879.59   96.94   5
   1  -4   0 8044.78  117.91   2
   1  -4   0 8027.74  119.57   3
   1   4   0 7533.08  114.67   4
   1   4   0 8131.54  119.98   3
  -2   4   0  263.91    4.53   2
  -2  -4   0  262.65    4.32   2
   2   4   0  261.73    4.43   3
   2   4   0  265.55    4.40   4
   2  -4   0  268.08    4.21   4
  -2   4   0  263.38    4.35   1
   2  -4   0  264.74    4.59   3
  -2  -4   0  260.32    4.54   1
  -3   4   0   52.93    1.32   1
  -3  -4   0   49.09    1.47   1
   3  -4   0   52.34    1.54   3
   3  -4   0   52.45    1.28   4
  -3  -4   0   54.05    1.38   2
   3   4   0   50.84    1.43   4
   3   4   0   54.79    1.44   3
   4   4   0  165.35    3.43   3
  -4  -4   0  163.27    3.44   1
  -4  -4   0  171.29    3.33   2
   4  -4   0  167.12    3.58   3
  -4   4   0  169.17    3.53   2
   4  -4   0  164.63    3.09   4
  -4   4   0  166.19    3.23   1
   4   4   0  170.73    3.38   4
  -5  -4   0   23.34    1.24   1
   5   4   0   22.45    1.22   3
  -5  -4   0   25.06    1.22   2
  -5   4   0   25.87    1.41   2
   5   4   0   22.36    1.21   4
   5  -4   0   22.07    1.27   3
   6   4   0    0.59    0.66   3
  -6  -4   0   -0.52    0.65   1
   6  -4   0   -0.54    0.59   3
  -6   4   0   -0.55    0.68   2
   6   4   0   -0.62    0.64   4
  -6  -4   0   -0.04    0.63   2
  -7   4   0   17.70    1.52   2
   7  -4   0   20.48    1.56   3
   0  -5   0    0.10    0.16   3
   0  -5   0   -0.14    0.18   4
   0  -5   0    0.01    0.15   2
   0  -5   0   -0.14    0.16   1
   1  -5   0 1364.47   21.07   1
   1  -5   0 1374.40   20.29   4
   1   5   0 1373.82   20.39   4
   1   5   0 1374.59   21.09   3
  -1  -5   0 1371.11   21.16   1
   1  -5   0 1372.96   21.17   3
  -1  -5   0 1397.88   20.82   2
  -2  -5   0  125.47    2.29   2
  -2   5   0  128.83    2.34   1
   2  -5   0  130.80    2.28   4
   2   5   0  127.49    2.40   3
   2   5   0  128.49    2.49   4
  -2   5   0  125.84    2.54   2
  -2  -5   0  128.53    2.55   1
   3   5   0   40.93    1.21   3
  -3   5   0   38.65    1.31   2
   3  -5   0   37.67    1.31   3
   3  -5   0   38.89    1.11   4
  -3  -5   0   38.29    1.27   1
   3   5   0   38.64    1.25   4
  -3   5   0   39.52    1.13   1
  -3  -5   0   37.78    1.13   2
  -4   5   0  582.84    9.49   1
   4   5   0  570.70    9.75   3
   4  -5   0  582.00    9.14   4
   4   5   0  585.09    9.47   4
  -4   5   0  596.15    9.83   2
   4  -5   0  592.32   10.00   3
  -4  -5   0  575.51    9.49   2
  -4  -5   0  588.64    9.84   1
  -5  -5   0    1.31    0.61   1
   5   5   0    0.70    0.62   4
  -5   5   0    1.14    0.64   2
   5   5   0    0.30    0.56   3
  -5  -5   0    0.93    0.53   2
   5  -5   0    1.09    0.59   3
   6   5   0   22.94    1.46   3
  -6  -5   0   21.68    1.50   1
   6   5   0   20.23    1.37   4
   6  -5   0   21.90    1.45   3
  -6  -5   0   21.42    1.34   2
  -6   5   0   20.10    1.43   2
   7  -5   0   52.28    2.32   3
  -7   5   0   51.49    2.32   2
   0  -6   0   11.41    0.50   2
   0  -6   0   11.10    0.55   1
   0  -6   0   10.51    0.56   4
   0  -6   0   11.37    0.52   3
   1   6   0   40.73    0.96   3
  -1  -6   0   42.14    1.11   4
   1  -6   0   42.54    1.03   1
  -1  -6   0   42.02    1.11   1
  -1  -6   0   42.16    0.90   2
   1  -6   0   41.41    1.11   2
   1  -6   0   42.20    1.11   3
   1  -6   0   41.85    1.02   4
  -2  -6   0   97.39    2.13   1
  -2   6   0   97.48    1.91   1
   2  -6   0   94.64    1.87   4
  -2  -6   0   96.26    1.84   2
   2  -6   0   96.70    2.13   3
  -2   6   0   96.75    2.13   2
   2   6   0  100.00    1.96   3
   2   6   0   99.51    2.09   4
  -3   6   0   85.44    2.12   2
  -3  -6   0   85.64    1.84   2
   3   6   0   84.70    1.96   3
  -3  -6   0   89.32    2.13   1
  -3   6   0   86.85    1.86   1
   3   6   0   85.43    2.05   4
   3  -6   0   87.17    1.82   4
  -4   6   0    4.97    0.70   2
   4  -6   0    6.16    0.74   3
   4  -6   0    3.54    0.52   4
   4   6   0    4.90    0.67   4
  -4  -6   0    3.20    0.54   2
   4   6   0    4.63    0.61   3
  -4  -6   0    4.11    0.66   1
  -5  -6   0   35.66    1.41   2
   5   6   0   32.66    1.47   3
   5   6   0   36.98    1.63   4
   5  -6   0   39.59    1.67   3
  -5   6   0   39.69    1.72   2
  -5  -6   0   38.31    1.63   1
   6  -6   0   51.45    2.13   3
  -6   6   0   52.85    2.13   2
  -6  -6   0   58.33    2.16   1
   6   6   0   54.14    2.06   4
   7  -6   0   80.44    2.89   3
  -7   6   0   73.71    2.79   2
   0  -7   0    0.21    0.22   1
   0  -7   0    0.04    0.23   4
   0  -7   0   -0.10    0.17   3
   0  -7   0   -0.07    0.19   2
   1   7   0  209.08    3.49   3
   1  -7   0  203.13    3.63   2
   1  -7   0  205.08    3.48   4
   1  -7   0  206.14    3.64   3
  -1  -7   0  205.93    3.38   2
  -1  -7   0  203.94    3.61   4
  -1  -7   0  204.19    3.68   1
   1  -7   0  205.12    3.54   1
  -2  -7   0    3.23    0.44   1
  -2  -7   0    3.66    0.32   2
   2  -7   0    3.14    0.37   4
   2   7   0    3.74    0.37   3
  -2   7   0    3.90    0.38   1
   2  -7   0    3.58    0.45   3
   2   7   0    4.29    0.48   4
  -2   7   0    3.03    0.48   2
   3   7   0   55.92    1.64   4
   3   7   0   56.01    1.50   3
  -3   7   0   54.32    1.39   1
  -3  -7   0   56.84    1.68   1
   3  -7   0   57.15    1.40   4
   3  -7   0   54.00    1.66   3
  -3   7   0   53.57    1.66   2
  -3  -7   0   53.93    1.38   2
  -4  -7   0   26.36    1.08   2
   4  -7   0   28.88    1.10   4
   4   7   0   27.60    1.20   3
   4  -7   0   27.21    1.34   3
  -4   7   0   26.13    1.35   2
  -4  -7   0   28.82    1.35   1
   4   7   0   27.92    1.33   4
   5   7   0    4.33    0.85   4
  -5   7   0    4.09    0.84   2
  -5  -7   0    5.70    0.85   1
  -5  -7   0    4.99    0.67   2
   5  -7   0    6.20    0.87   3
   5   7   0    5.39    0.78   3
  -6   7   0    9.04    1.12   2
  -6  -7   0   11.40    1.12   1
   6   7   0    9.81    1.08   4
   6  -7   0    9.33    1.10   3
  -7   7   0   -0.66    0.91   2
   7  -7   0    0.13    0.85   3
   0  -8   0  642.90   10.28   1
   0  -8   0  648.61    9.99   4
   0  -8   0  645.15   10.09   2
   0  -8   0  651.46   10.24   3
   1  -8   0  288.63    4.96   3
   1  -8   0  289.31    4.86   1
  -1  -8   0  292.50    4.69   2
   1  -8   0  292.07    4.78   4
   1   8   0  288.39    4.82   3
  -1  -8   0  290.53    5.02   1
  -1  -8   0  284.11    4.90   4
   1  -8   0  290.65    4.95   2
   2   8   0  204.67    3.61   3
   2  -8   0  204.52    3.55   4
  -2   8   0  202.67    3.85   2
  -2  -8   0  199.62    3.87   1
   2  -8   0  207.90    3.88   3
   2   8   0  202.54    3.80   4
  -2  -8   0  205.97    3.46   2
  -2   8   0  209.77    3.63   1
  -3   8   0    0.27    0.43   2
   3  -8   0    0.50    0.43   3
   3   8   0    0.17    0.42   4
  -3  -8   0    0.03    0.41   1
  -3  -8   0    0.21    0.30   2
   3   8   0    0.92    0.39   3
   3  -8   0    0.70    0.36   4
  -3   8   0    0.27    0.36   1
   4  -8   0   26.83    1.07   4
   4   8   0   26.11    1.19   3
   4   8   0   23.40    1.31   4
  -4   8   0   25.20    1.36   2
  -4  -8   0   28.88    1.12   2
  -4  -8   0   26.60    1.33   1
   4  -8   0   28.30    1.36   3
   5   8   0   19.18    1.41   4
  -5   8   0   17.81    1.37   2
  -5  -8   0   17.59    1.27   1
   5  -8   0   18.11    1.27   3
  -6   8   0  102.86    3.15   2
  -6  -8   0  111.95    3.13   1
   6   8   0  100.00    2.98   4
   6  -8   0   99.53    3.12   3
   0  -9   0    0.68    0.25   3
   0  -9   0    0.04    0.25   2
   0  -9   0    0.41    0.29   4
   0  -9   0    0.14    0.26   1
   1   9   0   13.68    0.62   3
   1  -9   0   15.14    0.78   2
   1  -9   0   14.00    0.72   1
  -1  -9   0   13.67    0.79   1
  -1  -9   0   13.72    0.79   4
  -1  -9   0   12.26    0.59   2
   1  -9   0   12.98    0.70   4
   1  -9   0   12.49    0.70   3
  -2   9   0    1.10    0.27   5
   2   9   0    0.29    0.38   4
   2  -9   0    0.59    0.34   4
  -2  -9   0    1.13    0.41   1
  -2  -9   0    1.15    0.25   2
   2  -9   0    1.04    0.37   3
  -2   9   0    0.62    0.30   1
   2   9   0    0.54    0.31   3
   2  -9   0    1.41    0.44   2
   3  -9   0   73.26    1.72   4
  -3   9   0   73.05    2.05   2
  -3   9   0   72.58    1.73   1
  -3  -9   0   70.60    2.01   1
   3   9   0   70.12    1.77   3
  -3  -9   0   71.42    1.62   2
   3  -9   0   72.27    2.04   3
   3   9   0   70.11    1.98   4
   4   9   0    0.54    0.47   3
   4  -9   0    0.97    0.57   3
  -4  -9   0    0.57    0.55   1
   4   9   0    0.88    0.59   4
  -4   9   0    0.80    0.63   2
  -5  -9   0   14.68    1.17   1
   5  -9   0   14.24    1.19   3
  -5   9   0   13.91    1.18   2
   5   9   0   14.54    1.17   4
  -6  -9   0   35.24    1.87   1
   6   9   0   36.22    1.92   4
   6  -9   0   35.01    1.87   3
  -6   9   0   36.69    1.97   2
   0 -10   0   29.73    1.09   4
   0 -10   0   28.72    1.03   1
   0 -10   0   30.18    1.00   2
   0 -10   0   31.55    1.02   3
   1 -10   0   48.09    1.36   3
  -1 -10   0   46.06    1.41   1
   1 -10   0   49.02    1.35   4
  -1 -10   0   47.16    1.45   4
   1  10   0   48.50    1.24   3
  -1 -10   0   50.62    1.20   2
   1 -10   0   50.18    1.35   1
   1 -10   0   48.00    1.39   2
  -2 -10   0    5.47    0.40   2
  -2  10   0    4.55    0.47   1
   2 -10   0    3.74    0.48   4
   2  10   0    4.79    0.48   3
   2  10   0    4.05    0.58   4
   2 -10   0    3.99    0.54   3
  -2 -10   0    4.17    0.57   1
   2 -10   0    5.13    0.61   2
  -2  10   0    4.71    0.40   5
   3  10   0  294.85    5.44   4
  -3  10   0  290.40    5.14   1
  -3 -10   0  300.37    4.96   2
   3  10   0  287.41    5.20   3
   3 -10   0  295.99    5.05   4
  -3  10   0  294.69    5.54   2
   3 -10   0  301.65    5.61   3
  -3 -10   0  296.94    5.58   1
  -4 -10   0    7.39    0.87   1
  -4  10   0    6.12    0.85   2
   4  10   0    7.39    0.86   4
   4 -10   0    7.65    0.87   3
  -5 -10   0    2.35    0.78   1
   5  10   0    1.79    0.79   4
   5 -10   0    3.52    0.79   3
  -5  10   0    1.19    0.75   2
  -6 -10   0    9.17    1.16   1
  -6  10   0    8.18    1.21   2
   6  10   0    6.59    1.11   4
   6 -10   0    6.53    1.09   3
   0 -11   0   -0.29    0.30   4
   0 -11   0   -0.24    0.29   2
   0  11   0   -0.51    0.25   3
   0 -11   0    1.53    0.40   1
   1 -11   0  337.59    5.89   3
  -1 -11   0  340.77    5.88   4
   1 -11   0  335.52    5.72   4
   1  11   0  338.90    5.73   3
   1 -11   0  344.48    5.87   2
   1 -11   0  339.16    5.81   1
  -1 -11   0  342.80    5.58   2
  -1 -11   0  330.16    5.95   1
   2 -11   0  518.16    8.33   4
  -2  11   0  520.26    8.55   1
   2  11   0  514.95    8.63   4
   2 -11   0  521.05    8.80   3
  -2 -11   0  526.51    8.23   2
  -2  11   0  519.99    6.92   5
   2  11   0  524.50    8.49   3
   2 -11   0  511.01    8.75   2
  -2 -11   0  519.37    8.86   1
   3  11   0    6.06    0.60   3
   3  11   0    6.26    0.78   4
  -3 -11   0    6.80    0.80   1
  -3  11   0    4.98    0.74   2
   3 -11   0    5.64    0.72   3
   3 -11   0    4.59    0.59   4
  -4  11   0   16.95    1.24   2
   4  11   0   18.02    1.25   4
  -4 -11   0   20.49    1.29   1
   4 -11   0   19.21    1.27   3
   5  11   0   36.56    1.77   4
  -5  11   0   34.37    1.75   2
  -5 -11   0   36.28    1.72   1
   5 -11   0   35.71    1.75   3
   6 -11   0   18.57    1.51   3
   6  11   0   17.67    1.50   4
  -6  11   0   15.87    1.48   2
  -6 -11   0   16.76    1.41   1
   0 -12   0  115.46    2.41   2
   0 -12   0  116.78    2.55   1
   0  12   0  115.06    2.45   3
   0 -12   0  114.93    2.58   4
   1  12   0    8.12    0.65   3
  -1 -12   0    7.00    0.52   2
  -1 -12   0    7.44    0.68   1
   1 -12   0    9.15    0.72   2
  -1 -12   0    6.12    0.70   4
   1 -12   0    7.99    0.63   1
   1 -12   0    6.04    0.62   4
   1 -12   0    7.04    0.62   3
  -2 -12   0  854.84   13.92   1
   2  12   0  827.53   13.50   3
   2 -12   0  850.24   13.20   4
  -2 -12   0  871.53   13.20   2
   2  12   0  868.95   13.56   4
  -2  12   0  839.41   13.59   1
   2 -12   0  857.80   13.77   2
   2 -12   0  831.13   13.83   3
  -2  12   0  858.55   11.01   5
  -3 -12   0   35.58    1.52   1
  -3  12   0   32.60    1.49   2
   3 -12   0   33.42    1.46   3
   3 -12   0   34.39    1.27   4
   3  12   0   34.55    1.53   4
   4 -12   0    0.57    0.58   3
   4  12   0    1.70    0.66   4
  -4 -12   0    0.32    0.60   1
  -4  12   0    0.45    0.61   2
   5  12   0  247.73    5.24   4
  -5 -12   0  245.31    5.38   1
   5 -12   0  246.60    5.44   3
  -5  12   0  244.86    5.35   2
  -6 -12   0    1.70    0.89   1
   6  12   0   -0.58    0.93   4
  -6  12   0    0.78    0.91   2
   6 -12   0    0.77    0.84   3
   0 -13   0    0.78    0.44   4
   0 -13   0    0.32    0.42   1
   0 -13   0    0.39    0.36   2
   0  13   0    0.07    0.33   3
  -1 -13   0  375.03    6.26   2
  -1 -13   0  373.42    6.61   4
   1 -13   0  380.16    6.56   1
   1 -13   0  386.77    6.62   3
   1 -13   0  375.30    6.46   4
   1 -13   0  379.78    6.57   2
   1  13   0  372.69    6.44   3
  -1 -13   0  375.69    6.72   1
  -2  13   0    4.97    0.58   1
   2  13   0    5.39    0.78   4
   2 -13   0    3.95    0.62   3
  -2 -13   0    4.85    0.68   1
   2  13   0    4.84    0.56   3
   2 -13   0    3.68    0.59   4
   2 -13   0    3.76    0.69   2
  -2  13   0    4.80    0.49   5
   3  13   0   23.93    1.37   4
  -3  13   0   21.62    1.31   2
  -3 -13   0   23.77    1.36   1
   3 -13   0   21.96    1.08   4
   3 -13   0   23.54    1.27   3
   4  13   0    3.28    0.74   4
  -4 -13   0    2.92    0.75   1
  -4  13   0    3.26    0.79   2
   4 -13   0    3.85    0.80   3
  -5 -13   0    2.50    0.84   1
   5  13   0    1.38    0.81   4
   5 -13   0    0.49    0.74   3
  -5  13   0    0.77    0.79   2
   6 -13   0   35.26    2.01   3
  -6 -13   0   33.83    1.97   1
  -6  13   0   33.49    2.04   2
   6  13   0   35.99    2.10   4
   0 -14   0  325.18    5.79   1
   0 -14   0  316.45    5.73   4
   0 -14   0  309.96    5.55   2
   0  14   0  312.49    5.64   3
   1  14   0   24.24    1.02   3
   1 -14   0   23.42    1.17   2
   1 -14   0   22.23    1.16   1
   1 -14   0   22.01    1.16   4
  -1 -14   0   22.62    1.26   4
  -1 -14   0   21.95    0.98   2
  -1 -14   0   23.26    1.23   1
   1 -14   0   21.70    1.11   3
  -2  14   0  215.55    4.37   2
   2  14   0  218.91    4.47   4
  -2  14   0  219.74    3.41   5
  -2  14   0  210.82    4.16   1
  -2 -14   0  213.52    4.47   1
   2 -14   0  218.02    4.17   4
   3  14   0   75.21    2.37   4
   3 -14   0   74.16    2.26   3
   3 -14   0   78.34    2.06   4
  -3  14   0   74.95    2.33   2
  -3 -14   0   77.46    2.37   1
  -4  14   0   31.48    1.65   2
  -4 -14   0   31.32    1.63   1
   4 -14   0   32.89    1.61   3
   4  14   0   33.59    1.69   4
   5  14   0    0.52    0.83   4
   5 -14   0    1.69    0.81   3
  -5  14   0    0.48    0.84   2
  -5 -14   0    2.56    0.86   1
   0 -15   0    1.23    0.50   2
   0 -15   0    0.62    0.58   4
  -1 -15   0  403.92    7.18   1
   1 -15   0  390.84    7.00   3
   1 -15   0  403.18    6.93   4
   1  15   0  388.39    6.82   3
   1 -15   0  383.43    6.92   2
   1 -15   0  396.53    6.99   1
  -2 -15   0   35.66    1.60   1
   2 -15   0   38.12    1.53   3
   2  15   0   36.30    1.65   4
   2 -15   0   36.87    1.48   4
  -2  15   0   36.77    1.53   2
   3  15   0    0.90    0.68   4
  -3  15   0   -0.19    0.60   2
   3 -15   0    0.28    0.55   3
  -3 -15   0   -0.23    0.55   1
  -4 -15   0  135.76    3.56   1
   4  15   0  133.02    3.53   4
  -4  15   0  132.02    3.51   2
   4 -15   0  133.97    3.50   3
   5 -15   0    6.26    1.10   3
   5  15   0    9.40    1.19   4
  -5 -15   0    7.19    1.11   1
  -5  15   0    6.48    1.13   2
   0 -16   0  140.79    3.25   1
   0  16   0  143.58    3.12   3
   0 -16   0  140.82    3.05   2
   1 -16   0 1046.45   16.35   4
  -1 -16   0 1029.30   16.94   1
   1 -16   0 1035.23   16.59   2
   1 -16   0 1044.77   16.76   1
   1 -16   0 1038.57   16.81   3
   2  16   0  493.76    8.78   4
   2 -16   0  505.58    8.44   4
  -2  16   0  494.13    8.71   2
   2 -16   0  490.70    8.78   3
  -3  16   0    4.79    0.85   2
  -3 -16   0    6.67    0.92   1
   3  16   0    5.54    0.92   4
   3 -16   0    6.90    0.86   3
   4  16   0  129.83    3.55   4
   4 -16   0  126.26    3.44   3
  -4 -16   0  128.33    3.51   1
  -4  16   0  131.64    3.52   2
  -5  16   0   12.47    1.35   2
  -5 -16   0   14.42    1.39   1
   5 -16   0   15.13    1.39   3
   5  16   0   13.66    1.40   4
   0 -17   0    0.33    0.57   1
   0 -17   0    0.17    0.65   4
   0  17   0    1.57    0.56   3
   0 -17   0    0.24    0.54   2
   1 -17   0  408.25    7.16   1
   1  17   0  381.36    7.22   4
   1 -17   0  386.55    7.12   3
   1 -17   0  388.91    7.05   2
  -1 -17   0  389.61    7.29   1
   1 -17   0  393.56    7.06   4
   2 -17   0   17.11    1.17   3
  -2 -17   0   16.69    1.27   1
   2  17   0   16.43    1.29   4
   2 -17   0   16.31    1.20   4
  -2  17   0   18.07    1.22   2
  -3 -17   0   69.82    2.42   1
   3 -17   0   69.57    2.33   3
  -3  17   0   71.66    2.39   2
   3  17   0   68.89    2.43   4
   4  17   0   57.30    2.34   4
  -4  17   0   58.40    2.30   2
  -4 -17   0   55.10    2.26   1
   4 -17   0   59.73    2.27   3
  -5 -17   0   41.45    2.14   1
  -5  17   0   47.30    2.27   2
   5  17   0   40.68    2.17   4
   5 -17   0   43.71    2.13   3
   0 -18   0  388.08    7.29   1
   0 -18   0  402.04    7.31   4
   1 -18   0   37.81    1.71   4
  -1  18   0   36.17    1.56   3
   1 -18   0   41.31    1.72   2
  -1 -18   0   34.73    1.69   1
   1  18   0   42.14    1.85   4
   1 -18   0   41.31    1.74   1
   2  18   0    0.40    0.63   4
   2 -18   0    0.45    0.61   4
  -2 -18   0    0.38    0.63   1
  -2  18   0    0.97    0.64   2
   2 -18   0    2.50    0.69   3
  -3 -18   0   44.65    1.97   1
  -3  18   0   44.74    1.97   2
   3  18   0   41.39    1.98   4
   3 -18   0   43.59    1.86   3
   4  18   0   23.24    1.71   4
  -4 -18   0   22.09    1.59   1
  -4  18   0   21.92    1.59   2
   4 -18   0   22.94    1.55   3
   0 -19   0    3.40    0.84   4
   1  19   0    0.78    0.70   4
   1 -19   0   -0.34    0.65   1
  -1  19   0    0.93    0.59   3
   1 -19   0   -0.46    0.62   4
  -1 -19   0    0.04    0.62   1
   2  19   0   64.76    2.40   4
   2 -19   0   68.26    2.26   4
  -2  19   0   65.33    2.21   2
   2 -19   0   62.85    2.18   3
  -2 -19   0   65.69    2.35   1
  -3  19   0   23.94    1.59   2
   3  19   0   21.91    1.57   4
   3 -19   0   25.47    1.51   3
  -3 -19   0   21.72    1.54   1
  -4  19   0   18.57    1.52   2
   4  19   0   23.07    1.71   4
   4 -19   0   23.71    1.61   3
  -4 -19   0   20.20    1.58   1
   0  20   0  624.22   10.86   4
  -1 -20   0   34.50    1.74   1
   1  20   0   35.18    1.81   4
   1 -20   0   35.09    1.79   4
   1 -20   0   38.64    1.81   1
  -2 -20   0   11.53    1.20   1
   2 -20   0   13.21    1.20   4
   2 -20   0   11.45    1.11   3
   2  20   0   13.49    1.30   4
   3  20   0   13.40    1.35   4
   3 -20   0   11.90    1.19   3
  -3  20   0   14.43    1.33   2
  -3 -20   0   14.61    1.36   1
   4 -20   0   11.80    1.27   3
  -4 -20   0    9.36    1.27   1
   4  20   0   10.19    1.34   4
  -4  20   0   11.44    1.33   2
  -1 -21   0   15.58    1.31   1
   1 -21   0   17.52    1.35   1
   1 -21   0   17.05    1.36   4
   1  21   0   16.25    1.36   4
  -2 -21   0   13.64    1.31   1
   2 -21   0   12.44    1.19   3
   2  21   0   14.00    1.36   4
  -3 -21   0  129.79    3.77   1
   3 -21   0  132.04    3.62   3
   3  21   0  128.43    3.80   4
   0 -22   0   10.05    1.17   1
   0  22   0   10.75    1.25   4
  -1 -22   0    4.67    0.95   1
   1  22   0    3.71    0.97   4
  -2 -22   0   31.77    1.85   1
   2  22   0   28.37    1.88   4
   0  23   0    1.29    0.90   4
   0 -23   0    0.12    0.87   1
  -1 -23   0   20.27    1.62   1
   1  23   0   19.73    1.60   4
   7   0  -1   71.15    2.59   3
  -7   0   1   71.61    2.43   2
  -6   0   1   -0.86    0.60   1
  -6   0   1   -1.41    0.58   2
   6   0  -1   -1.32    0.64   3
   5   0  -1  519.05    8.44   4
   5   0  -1  531.97    9.29   3
  -5   0   1  538.96    9.11   1
  -5   0   1  532.16    8.97   2
  -4   0   1   -0.51    0.42   1
   4   0  -1    0.25    0.41   3
  -4   0   1    0.44    0.37   2
   3   0  -1  139.38    2.42   4
  -3   0   1  141.04    2.77   1
  -3   0   1  140.41    2.66   2
   3   0  -1  142.12    2.84   3
  -2   0   1    0.12    0.26   1
   2   0  -1    0.35    0.15   4
   2   0  -1    0.32    0.24   3
   2   0  -1   -0.14    0.19   2
  -1   0   1 4802.07   70.49   4
   1   0  -1 4642.98   70.50   2
   1   0  -1 4595.99   71.11   3
  -1   0  -1 7775.48  116.96   1
  -1   0  -1 7580.54  114.36   2
   1   0   1 7659.44  116.27   3
  -2   0  -1   -0.12    0.21   1
  -2   0  -1    0.34    0.29   2
   2   0   1    0.16    0.24   3
   2   0   1    0.07    0.30   4
   3   0   1   66.24    1.72   3
  -3   0  -1   68.44    1.58   1
   3   0   1   65.79    1.74   4
  -3   0  -1   67.33    1.79   2
   4   0   1   -0.32    0.51   4
  -4   0  -1    0.09    0.40   1
   4   0   1    0.00    0.41   3
  -4   0  -1    0.06    0.51   2
  -5   0  -1    6.61    0.87   2
   5   0   1    8.01    0.84   3
   5   0   1    6.58    0.85   4
  -6   0  -1    0.19    0.71   2
   6   0   1   -0.48    0.60   3
  -7   0  -1    3.79    1.00   2
   7  -1  -1    4.44    0.94   3
  -7   1   1    4.97    0.94   2
   7   1  -1    3.87    0.98   3
  -7  -1   1    3.74    0.90   2
  -6   1   1   34.54    1.60   2
   6   1  -1   35.41    1.76   3
  -6  -1   1   36.85    1.61   2
  -6   1   1   34.82    1.63   1
   6  -1  -1   36.35    1.76   3
  -6  -1   1   34.80    1.61   1
  -5  -1   1   24.19    1.38   1
   5   1  -1   26.94    1.12   4
  -5   1   1   28.36    1.34   2
   5   1  -1   28.46    1.38   3
   5  -1  -1   24.98    1.45   3
  -5  -1   1   25.99    1.27   2
  -5   1   1   28.78    1.34   1
   4  -1  -1   38.79    1.09   4
   4   1  -1   39.59    1.17   4
  -4   1   1   37.52    1.36   1
   4  -1  -1   39.24    1.43   3
  -4  -1   1   38.39    1.37   1
  -4   1   1   42.16    1.36   2
  -4  -1   1   38.78    1.27   2
   4   1  -1   40.46    1.44   3
  -3   1   1   45.41    1.25   2
  -3  -1   1   43.78    1.30   1
  -3   1   1   43.01    1.27   1
   3   1  -1   41.50    1.05   4
   3  -1  -1   45.81    1.33   3
   3   1  -1   45.70    1.32   3
  -3  -1   1   44.05    1.16   2
   3  -1  -1   43.04    0.99   4
  -2   1   1  884.64   13.59   1
   2   1  -1  874.43   12.96   4
   2  -1  -1  864.39   13.41   2
   2  -1  -1  883.34   13.65   3
  -2  -1   1  869.37   13.32   2
  -2  -1   1  870.41   13.60   1
   2   1  -1  860.69   13.62   3
  -1  -1   1 3963.08   57.48   4
  -1   1   1 3816.92   59.29   1
   1   1  -1 3959.03   59.63   2
   1  -1  -1 3934.48   59.46   3
   1   1  -1 3843.03   59.36   3
   1  -1  -1 3927.78   58.65   2
   0  -1   1   61.36    1.07   1
   0  -1   1   61.62    1.15   4
   0  -1  -1   58.50    1.15   2
   0   1  -1   60.58    1.13   2
   0   1   1   61.76    1.13   4
   0  -1  -1   62.77    1.14   1
   0  -1   1   61.24    1.14   3
   0  -1  -1   58.54    1.05   3
   1  -1   1 1496.57   21.84   4
  -1   1  -1 1465.63   22.38   2
  -1  -1  -1 1452.74   22.38   2
   1  -1   1 1476.70   22.68   3
   1   1   1 1488.18   21.84   4
  -1  -1  -1 1494.51   22.64   1
   1   1   1 1484.08   22.69   3
   2  -1   1  111.42    2.23   3
  -2  -1  -1  110.47    2.11   1
   2   1   1  111.16    2.17   3
   2  -1   1  111.46    2.21   4
   2   1   1  111.75    2.24   4
  -2   1  -1  111.10    2.26   2
  -2   1  -1  112.23    2.02   1
  -2  -1  -1  116.17    2.27   2
  -3   1  -1  153.90    2.80   1
  -3  -1  -1  152.74    3.07   2
  -3  -1  -1  153.08    2.90   1
   3   1   1  150.19    2.99   4
   3  -1   1  149.61    3.06   3
   3  -1   1  148.53    2.98   4
   3   1   1  151.77    3.00   3
  -3   1  -1  150.04    3.08   2
  -4  -1  -1  330.68    5.80   1
   4  -1   1  334.02    5.81   4
  -4   1  -1  335.05    5.70   1
  -4   1  -1  341.08    6.07   2
   4  -1   1  320.88    6.03   3
   4   1   1  325.25    5.83   4
  -4  -1  -1  332.88    6.02   2
   4   1   1  329.71    5.98   3
   5   1   1   13.15    1.01   3
   5   1   1   14.55    1.08   4
  -5  -1  -1   14.81    1.16   2
   5  -1   1   13.35    1.03   3
  -5   1  -1   14.25    1.15   2
   5  -1   1   12.50    1.00   4
  -6  -1  -1    3.49    0.89   2
  -6   1  -1    4.26    0.92   2
   6  -1   1    3.71    0.83   3
   6   1   1    4.63    0.87   3
  -7   1  -1   13.82    1.41   2
  -7  -1  -1   13.18    1.39   2
   7   2  -1   38.41    1.96   3
   7  -2  -1   37.04    1.90   3
  -7   2   1   37.64    1.85   2
   6   2  -1    5.94    0.91   3
  -6   2   1    7.16    0.94   2
  -6  -2   1    4.39    0.80   2
  -6  -2   1    5.68    0.88   1
   6  -2  -1    6.26    1.01   3
   5   2  -1   32.30    1.21   4
  -5   2   1   32.01    1.36   1
   5  -2  -1   28.36    1.50   3
  -5  -2   1   28.72    1.39   1
  -5   2   1   31.57    1.39   2
   5   2  -1   30.20    1.40   3
  -5  -2   1   30.50    1.30   2
  -4   2   1  250.43    4.60   1
  -4  -2   1  245.10    4.67   1
   4  -2  -1  253.37    4.79   3
   4   2  -1  250.02    4.73   3
  -4   2   1  249.54    4.62   2
  -4  -2   1  250.88    4.45   2
   4   2  -1  252.06    4.30   4
   4  -2  -1  247.56    4.11   4
  -3  -2   1  219.54    3.77   2
  -3  -2   1  222.47    4.03   1
   3   2  -1  223.91    4.04   3
  -3   2   1  220.98    3.96   2
   3  -2  -1  225.82    4.10   3
   3  -2  -1  218.36    3.52   4
  -3   2   1  214.39    3.95   1
   3   2  -1  223.61    3.71   4
   2  -2  -1    0.91    0.26   2
  -2  -2   1    1.16    0.20   2
  -2   2   1    1.50    0.31   1
   2   2  -1    0.94    0.21   4
   2  -2  -1    1.17    0.28   3
  -2  -2   1    1.00    0.31   1
   2   2  -1    1.58    0.29   3
  -1  -2   1  779.83   11.62   4
   1  -2  -1  782.31   11.95   2
  -1   2   1  785.26   12.10   1
   1  -2  -1  789.79   12.09   3
  -1  -2   1  768.22   12.08   1
   1   2  -1  774.15   12.08   3
   0  -2   1 4795.49   72.94   1
   0  -2  -1 4626.30   70.41   1
   0  -2   1 4611.98   67.63   4
   0   2   1 4742.62   67.75   4
   0  -2   1 4415.96   70.40   3
   0   2  -1 4636.46   69.79   2
   1   2   1   19.05    0.56   3
  -1  -2  -1   19.81    0.72   2
   1  -2   1   20.23    0.70   3
  -1  -2  -1   18.48    0.69   1
   1  -2   1   18.93    0.74   4
  -1   2  -1   21.37    0.72   2
   1   2   1   21.31    0.76   4
   2  -2   1  139.44    2.70   3
  -2   2  -1  139.05    2.70   2
   2   2   1  143.28    2.68   4
   2   2   1  141.19    2.58   3
  -2   2  -1  138.70    2.40   1
  -2  -2  -1  142.47    2.68   2
  -2  -2  -1  140.77    2.59   1
   2  -2   1  137.76    2.62   4
  -3  -2  -1  120.83    2.59   2
   3  -2   1  118.45    2.61   3
   3   2   1  121.09    2.51   3
   3  -2   1  127.80    2.55   4
  -3  -2  -1  122.68    2.49   1
  -3   2  -1  120.39    2.29   1
  -3   2  -1  117.78    2.62   2
   3   2   1  119.84    2.58   4
  -4   2  -1   22.96    1.25   2
   4  -2   1   20.51    1.18   4
   4   2   1   19.82    1.05   3
  -4  -2  -1   18.38    1.13   2
  -4  -2  -1   18.99    1.07   1
   4   2   1   21.37    1.15   4
   4  -2   1   18.03    1.08   3
   5  -2   1   25.98    1.37   4
   5  -2   1   26.89    1.36   3
  -5  -2  -1   23.80    1.31   2
  -5   2  -1   25.93    1.42   2
   5   2   1   28.13    1.47   4
   5   2   1   23.66    1.28   3
  -6   2  -1   47.27    2.05   2
   6   2   1   53.21    2.14   4
   6  -2   1   47.66    2.00   3
  -6  -2  -1   50.11    2.00   2
   7  -2   1   95.10    3.14   3
  -7   2  -1   93.86    3.17   2
  -7  -2  -1   97.62    3.14   2
  -7   3   1   33.88    1.80   2
   7   3  -1   33.22    1.88   3
   7  -3  -1   34.26    1.85   3
   6  -3  -1   40.93    1.85   3
  -6  -3   1   40.67    1.62   2
  -6  -3   1   35.22    1.69   1
   6   3  -1   36.33    1.74   3
  -6   3   1   42.96    1.83   2
   5   3  -1    3.89    0.70   3
   5   3  -1    5.62    0.66   4
  -5   3   1    3.60    0.69   2
  -5   3   1    5.96    0.75   1
  -5  -3   1    5.67    0.76   1
  -5  -3   1    4.57    0.64   2
   5  -3  -1    5.78    0.80   3
   4  -3  -1    2.29    0.54   3
  -4   3   1    1.71    0.47   2
   4   3  -1    2.80    0.46   4
  -4  -3   1    2.61    0.45   2
   4   3  -1    2.94    0.54   3
  -4   3   1    3.02    0.56   1
  -4  -3   1    2.65    0.57   1
   4  -3  -1    2.23    0.37   4
  -3   3   1   13.64    0.80   1
   3   3  -1   12.36    0.79   3
   3  -3  -1   13.92    0.81   3
  -3  -3   1   13.40    0.83   1
  -3  -3   1   12.87    0.63   2
  -3   3   1   12.33    0.80   2
   3   3  -1   12.48    0.68   4
   2   3  -1  872.29   13.63   3
   2  -3  -1  881.37   13.67   3
  -2   3   1  872.91   13.60   1
  -2  -3   1  876.79   13.06   4
   2  -3  -1  880.79   13.52   2
  -2  -3   1  858.45   13.64   1
  -2  -3   1  860.25   13.26   2
  -1   3   1 1630.06   20.62   5
  -1  -3   1 1672.73   25.50   1
  -1   3   1 1700.99   24.99   4
   1  -3  -1 1699.62   25.55   3
  -1  -3   1 1711.35   24.55   4
   1   3  -1 1633.54   25.51   3
   1  -3  -1 1691.08   25.21   2
  -1   3   1 1611.19   25.49   1
   0  -3   1 8693.82  142.35   3
   0  -3   1 9312.56  144.60   1
   0  -3  -1 9307.84  142.30   1
   0   3   1 9719.92  137.00   4
   0  -3  -1 9792.39  140.67   2
   0   3  -1 9685.87  141.36   2
   1   3   1 6145.49   91.60   3
  -1  -3  -1 6123.62   90.38   1
   1  -3   1 5586.23   90.41   3
  -1  -3  -1 6026.32   89.23   2
   1  -3   1 6014.39   86.89   4
   1   3   1 5976.96   86.85   4
  -2  -3  -1    0.67    0.32   2
   2   3   1    0.57    0.25   3
   2  -3   1    0.57    0.30   3
   2  -3   1    1.52    0.37   4
   2   3   1    0.35    0.32   4
  -2  -3  -1    0.50    0.27   1
  -2   3  -1    1.45    0.37   2
  -3  -3  -1  132.20    2.70   1
   3   3   1  130.50    2.66   3
  -3   3  -1  133.76    2.84   2
   3  -3   1  133.30    2.84   3
   3  -3   1  132.13    2.67   4
  -3   3  -1  136.94    2.44   1
  -3  -3  -1  134.15    2.76   2
   3   3   1  128.72    2.76   4
   4  -3   1   10.42    0.83   4
  -4  -3  -1   11.13    0.81   1
   4  -3   1   10.10    0.85   3
   4   3   1   11.73    0.88   3
  -4  -3  -1   12.91    0.96   2
  -4   3  -1   11.94    0.93   2
   4   3   1   10.66    0.89   4
  -5   3  -1   67.26    2.21   2
   5   3   1   65.54    2.03   3
   5  -3   1   63.98    1.94   4
   5   3   1   66.31    2.09   4
  -5  -3  -1   65.64    2.07   2
   5  -3   1   62.85    2.11   3
   6  -3   1    0.88    0.69   3
   6   3   1    0.15    0.83   4
  -6   3  -1    0.00    0.76   2
  -6  -3  -1    0.36    0.70   2
   7  -4  -1    2.17    0.89   3
   7   4  -1    0.11    0.85   3
  -7   4   1    0.53    0.84   2
   6  -4  -1  265.05    5.61   3
   6   4  -1  260.48    5.49   3
  -6  -4   1  267.99    5.14   2
  -6   4   1  269.52    5.45   2
  -6  -4   1  264.17    5.43   1
   5   4  -1   60.95    1.97   3
  -5   4   1   63.51    1.90   1
  -5   4   1   61.57    2.00   2
   5   4  -1   65.75    1.85   4
   5  -4  -1   60.06    2.05   3
  -5  -4   1   63.79    1.99   1
  -5  -4   1   61.76    1.75   2
   4   4  -1   56.09    1.57   4
   4  -4  -1   60.71    1.84   3
  -4   4   1   59.73    1.78   2
  -4  -4   1   59.57    1.50   2
  -4  -4   1   59.27    1.79   1
   4   4  -1   60.64    1.74   3
  -4   4   1   60.73    1.66   1
   4  -4  -1   58.47    1.30   4
  -3  -4   1  689.83   11.29   1
   3   4  -1  703.36   10.77   4
   3   4  -1  688.76   11.24   3
  -3  -4   1  692.67   10.80   2
  -3   4   1  717.66   11.18   1
   3  -4  -1  704.31   11.22   2
   3  -4  -1  695.46   11.34   3
  -2  -4   1  981.92   15.45   1
  -2  -4   1  992.46   14.82   4
  -2   4   1  995.96   15.39   1
   2  -4  -1  991.03   15.32   2
   2   4  -1  982.73   15.40   3
   2  -4  -1  990.57   15.46   3
  -1   4   1  872.81   13.39   1
  -1   4   1  859.17   10.83   5
  -1  -4   1  852.20   12.89   4
  -1   4   1  864.72   12.81   4
   1  -4  -1  862.77   13.25   2
  -1  -4   1  864.38   13.37   1
   1  -4  -1  873.92   13.35   3
   1   4  -1  842.06   13.36   3
   0  -4   1   96.14    1.70   1
   0  -4  -1   98.09    1.85   1
   0  -4   1   96.01    1.82   4
   0   4   1  100.21    1.78   4
   0   4  -1   96.15    1.71   2
   0  -4  -1   98.73    1.81   2
  -1   4  -1 4230.75   62.26   2
  -1  -4  -1 4179.73   62.25   2
   1  -4   1 3910.82   63.09   3
   1  -4   1 4380.99   60.68   4
   1   4   1 4162.51   60.64   4
  -1  -4  -1 4112.10   63.03   1
  -2  -4  -1 1222.72   19.06   1
   2  -4   1 1235.14   18.34   4
   2  -4   1 1215.80   19.17   3
  -2  -4  -1 1234.67   18.82   2
   2   4   1 1238.81   18.45   4
   2   4   1 1223.59   18.92   3
  -2   4  -1 1221.42   18.91   2
  -3  -4  -1   13.02    0.84   2
   3  -4   1   13.24    0.85   3
   3  -4   1   11.75    0.80   4
   3   4   1   11.42    0.71   3
  -3   4  -1   11.59    0.62   1
  -3  -4  -1   11.58    0.77   1
  -3   4  -1   12.13    0.90   2
   3   4   1   12.21    0.92   4
  -4  -4  -1   54.98    1.70   2
   4   4   1   53.21    1.61   3
   4  -4   1   49.10    1.57   4
  -4  -4  -1   55.45    1.68   1
   4   4   1   56.21    1.79   4
  -4   4  -1   54.10    1.83   2
   4  -4   1   54.03    1.79   3
   5  -4   1    2.36    0.62   4
  -5  -4  -1    2.96    0.66   1
   5   4   1    1.26    0.70   4
  -5   4  -1    2.17    0.76   2
   5  -4   1    2.92    0.69   3
  -5  -4  -1    3.89    0.75   2
   5   4   1    2.00    0.62   3
  -6   4  -1    2.07    0.83   2
   6  -4   1    0.69    0.73   3
   6   4   1   -0.01    0.83   4
  -6  -4  -1   -0.11    0.69   2
  -7   5   1   -1.15    0.81   2
  -7  -5   1    0.45    0.81   1
   7  -5  -1   -0.09    0.75   3
   7   5  -1   -0.34    0.84   3
   6  -5  -1    1.72    0.73   3
   6   5  -1    1.56    0.72   3
  -6   5   1    1.47    0.76   2
  -6  -5   1    2.46    0.76   1
   5   5  -1   34.68    1.43   4
   5  -5  -1   35.33    1.58   3
  -5  -5   1   35.36    1.32   2
  -5  -5   1   32.27    1.47   1
  -5   5   1   33.01    1.38   1
   5   5  -1   34.85    1.45   3
  -5   5   1   33.88    1.51   2
   4   5  -1    5.69    0.61   4
  -4   5   1    6.54    0.72   2
   4  -5  -1    6.86    0.70   3
  -4  -5   1    6.46    0.54   2
  -4  -5   1    5.60    0.69   1
   4   5  -1    4.79    0.62   3
  -4   5   1    6.06    0.66   1
   3   5  -1  772.72   11.92   4
  -3  -5   1  769.81   11.91   2
  -3   5   1  782.15   12.33   1
   3  -5  -1  774.68   12.39   2
   3  -5  -1  765.28   12.50   3
   3   5  -1  777.28   12.40   3
  -3  -5   1  778.12   12.49   1
  -2  -5   1  707.40   11.53   1
   2  -5  -1  733.71   11.47   2
   2   5  -1  731.81   11.47   3
  -2   5   1  731.92   11.46   1
   2  -5  -1  724.98   11.52   3
  -2  -5   1  722.15   11.09   4
  -1  -5   1 2703.31   40.85   4
  -1  -5   1 2847.93   42.47   1
   1  -5  -1 2851.46   42.49   1
   1  -5  -1 2807.53   42.51   3
   1   5  -1 2791.53   42.52   3
   1  -5  -1 2826.83   40.87   4
   1  -5  -1 2727.97   41.96   2
   0  -5   1  792.29   12.35   3
   0  -5  -1  795.34   12.15   2
   0  -5  -1  783.39   12.33   1
   0   5  -1  797.08   12.08   2
   0   5   1  794.18   11.87   4
   0  -5   1  791.76   12.22   1
   0  -5  -1  779.93   12.26   3
   0  -5   1  789.17   11.92   4
   1  -5   1  213.52    3.60   4
  -1  -5  -1  213.21    3.60   2
  -1  -5  -1  209.57    3.72   1
   1   5   1  210.47    3.65   4
  -1   5  -1  211.54    3.67   2
   1  -5   1  215.12    3.75   3
   2   5   1 1685.09   25.41   3
  -2  -5  -1 1632.74   25.17   2
   2  -5   1 1666.52   24.58   4
  -2  -5  -1 1654.79   25.58   1
   2   5   1 1627.76   24.68   4
   2  -5   1 1658.08   25.69   3
  -2   5  -1 1676.02   25.33   2
   3   5   1   22.38    1.13   4
  -3  -5  -1   21.65    0.99   2
   3  -5   1   21.18    0.99   4
   3  -5   1   21.09    1.04   3
   3   5   1   22.95    0.92   3
  -3  -5  -1   22.36    1.00   1
  -3   5  -1   24.13    1.14   2
   4  -5   1   27.10    1.30   3
   4   5   1   27.94    1.38   4
   4   5   1   27.08    1.18   3
  -4  -5  -1   28.95    1.25   2
   4  -5   1   27.59    1.21   4
  -4   5  -1   28.75    1.40   2
  -4  -5  -1   29.25    1.27   1
  -5   5  -1   62.05    2.20   2
   5  -5   1   62.03    2.15   3
   5   5   1   65.07    2.16   4
  -5  -5  -1   65.61    2.06   1
  -5  -5  -1   64.68    2.05   2
   6  -5   1    5.77    0.97   3
  -6   5  -1    6.22    1.06   2
   6   5   1    3.27    0.92   4
  -6  -5  -1    5.84    0.93   2
  -7  -6   1   17.92    1.44   1
   7  -6  -1   17.59    1.49   3
  -7   6   1   15.33    1.41   2
  -6  -6   1   53.88    2.04   1
   6  -6  -1   48.00    2.05   3
  -6   6   1   53.50    2.06   2
   6   6  -1   54.10    1.95   4
   6   6  -1   53.09    1.99   3
  -5  -6   1    0.28    0.54   1
   5   6  -1    0.21    0.51   4
   5   6  -1    1.32    0.59   3
  -5   6   1    0.37    0.55   2
   5  -6  -1    0.20    0.54   3
   4   6  -1    2.56    0.56   3
  -4   6   1    3.12    0.58   1
  -4  -6   1    2.56    0.43   2
   4  -6  -1    3.25    0.59   3
   4   6  -1    2.59    0.53   4
  -4   6   1    3.94    0.66   2
  -4  -6   1    2.82    0.60   1
  -3  -6   1  252.27    4.15   2
   3  -6  -1  255.06    4.69   2
   3   6  -1  254.49    4.57   3
  -3  -6   1  251.43    4.68   1
   3   6  -1  256.62    4.47   4
   3  -6  -1  250.33    4.67   3
  -3   6   1  252.74    4.51   1
  -2  -6   1    2.32    0.38   4
  -2   6   1    2.43    0.36   1
  -2  -6   1    4.64    0.48   1
   2   6  -1    3.43    0.38   3
   2  -6  -1    1.57    0.24   4
   2  -6  -1    1.99    0.40   2
   2  -6  -1    1.51    0.34   3
  -1  -6   1   31.67    0.97   4
   1  -6  -1   32.21    0.96   1
   1  -6  -1   31.48    0.87   3
   1  -6  -1   31.42    0.82   4
   1  -6  -1   31.73    0.98   2
  -1  -6   1   31.16    0.93   1
   1   6  -1   31.50    0.90   3
   0   6  -1  951.95   14.52   2
   0  -6  -1  957.79   14.61   2
   0  -6   1  955.76   14.33   4
   0   6   1  947.34   14.27   4
   0  -6   1  953.43   14.85   3
   0  -6  -1  966.23   14.70   3
   0  -6  -1  942.73   14.83   1
   0  -6   1  947.09   14.70   1
   1   6   1   12.17    0.73   4
  -1   6  -1   11.05    0.71   2
   1  -6   1   13.22    0.53   1
  -1  -6  -1   13.26    0.75   1
  -1  -6  -1   14.27    0.66   2
   1  -6   1   13.28    0.71   3
   1  -6   1   13.46    0.72   4
   1   6   1   12.74    0.49   3
   2  -6   1  481.18    8.09   3
  -2  -6  -1  486.10    7.80   2
   2  -6   1  496.69    7.69   4
  -2  -6  -1  474.09    8.01   1
   2   6   1  473.86    7.81   4
  -2   6  -1  485.26    7.97   2
   2   6   1  488.64    7.72   3
   3  -6   1    9.36    0.75   3
  -3  -6  -1   10.31    0.81   1
   3  -6   1   11.09    0.82   4
   3   6   1   10.66    0.70   3
   3   6   1   10.13    0.80   4
  -3   6  -1   10.58    0.80   2
  -3  -6  -1    9.78    0.79   2
  -4   6  -1  319.48    6.03   2
   4  -6   1  319.84    5.59   4
   4   6   1  330.08    5.91   4
   4   6   1  311.65    5.70   3
  -4  -6  -1  312.94    5.89   1
  -4  -6  -1  317.54    5.75   2
  -5   6  -1    3.93    0.85   2
   5  -6   1    4.31    0.79   3
  -5  -6  -1    4.51    0.74   2
  -5  -6  -1    5.31    0.80   1
   5   6   1    4.07    0.83   4
  -6   6  -1    6.71    1.09   2
   6   6   1    7.56    1.14   4
   6  -6   1    8.43    1.07   3
   7  -7  -1   33.06    1.92   3
  -7   7   1   34.72    2.04   2
  -7  -7   1   35.58    2.01   1
   6   7  -1   43.68    1.83   3
   6   7  -1   44.18    1.84   4
  -6   7   1   40.55    1.85   2
   6  -7  -1   40.72    1.88   3
  -6  -7   1   37.90    1.83   1
   5   7  -1  107.52    2.72   3
  -5  -7   1   99.74    2.73   1
   5   7  -1  106.01    2.63   4
  -5   7   1  101.35    2.78   2
   4   7  -1   24.83    1.17   4
  -4   7   1   23.75    1.28   2
   4   7  -1   26.09    1.18   3
  -4   7   1   25.43    1.17   1
   4  -7  -1   23.87    1.26   3
  -4  -7   1   23.47    0.91   2
  -4  -7   1   22.57    1.23   1
   3  -7  -1    9.86    0.52   4
   3  -7  -1   11.01    0.84   3
   3  -7  -1   11.76    0.90   2
   3   7  -1   11.05    0.77   3
  -3  -7   1   10.73    0.57   2
   3   7  -1   10.95    0.78   4
  -3  -7   1   10.81    0.89   1
  -3   7   1   10.24    0.79   1
  -2  -7   1  351.91    5.83   4
   2  -7  -1  348.46    5.95   3
   2   7  -1  348.58    5.88   3
  -2   7   1  352.72    5.91   1
   2  -7  -1  347.36    6.00   2
   2  -7  -1  352.46    5.46   4
   1  -7  -1   96.57    2.01   2
   1  -7  -1   95.54    1.82   4
   1  -7  -1   93.46    1.97   1
  -1  -7   1   93.63    1.96   1
  -1  -7   1   94.37    1.99   4
   1  -7  -1   92.82    1.86   3
   1   7  -1   93.72    1.93   3
   0  -7  -1  435.88    6.99   2
   0  -7   1  444.57    7.13   3
   0  -7  -1  429.91    7.13   1
   0   7  -1  435.14    6.86   2
   0  -7  -1  444.46    6.88   3
   0   7   1  443.80    6.88   4
   0  -7   1  431.24    6.94   4
   0  -7   1  418.81    6.95   1
   1  -7   1 1827.04   28.23   1
  -1   7  -1 1852.44   28.06   2
  -1  -7  -1 1873.81   27.99   2
   1   7   1 1883.52   28.31   3
   1  -7   1 1853.04   27.37   4
   1  -7   1 1837.85   28.51   3
   1   7   1 1845.40   27.45   4
  -1  -7  -1 1837.78   28.47   1
   2  -7   1  729.62   12.01   3
   2   7   1  736.93   11.59   4
  -2   7  -1  744.36   11.84   2
   2   7   1  747.24   11.60   3
  -2  -7  -1  738.65   11.96   1
   2  -7   1  756.20   11.43   4
  -2  -7  -1  733.74   11.61   2
   3  -7   1  293.02    5.42   3
   3   7   1  286.22    5.23   4
  -3  -7  -1  288.28    5.07   2
   3   7   1  287.75    4.99   3
  -3  -7  -1  284.81    5.30   1
   3  -7   1  284.62    4.97   4
  -3   7  -1  287.11    5.33   2
  -4   7  -1   95.15    2.62   2
   4   7   1   95.53    2.58   4
  -4  -7  -1   91.16    2.32   2
   4  -7   1   94.89    2.28   4
  -4  -7  -1   93.19    2.47   1
  -5  -7  -1   38.35    1.67   1
   5  -7   1   37.17    1.72   3
   5   7   1   38.54    1.73   4
  -5   7  -1   38.93    1.79   2
  -5  -7  -1   39.78    1.61   2
  -6   7  -1   14.05    1.33   2
   6   7   1   12.77    1.30   4
   6  -7   1   12.87    1.25   3
   7  -8  -1  114.99    3.60   3
  -7  -8   1  121.94    3.59   1
  -6   8   1    2.52    0.84   2
   6  -8  -1    3.42    0.84   3
  -6  -8   1    3.94    0.87   1
   6   8  -1    3.69    0.89   4
   6   8  -1    2.61    0.76   3
  -5  -8   1  161.60    3.78   1
   5   8  -1  171.69    3.62   4
   5   8  -1  157.21    3.61   3
   4   8  -1  475.14    8.16   3
  -4   8   1  479.72    8.29   2
  -4  -8   1  467.92    8.32   1
   4  -8  -1  467.77    8.36   3
  -4   8   1  471.37    8.03   1
   4   8  -1  478.70    7.98   4
   3  -8  -1  118.86    2.63   3
   3   8  -1  112.85    2.52   4
  -3  -8   1  108.60    2.59   1
  -3   8   1  115.97    2.46   1
   3  -8  -1  114.81    2.66   2
   3   8  -1  111.11    2.46   3
   3  -8  -1  113.00    2.07   4
  -2  -8   1   42.85    1.34   1
  -2   8   1   44.09    1.04   5
   2  -8  -1   46.83    1.09   4
  -2  -8   1   44.15    1.35   4
   2   8  -1   44.13    1.25   3
  -2   8   1   45.18    1.30   1
   2  -8  -1   46.02    1.31   3
   1  -8  -1   88.46    1.95   2
   1  -8  -1   87.29    1.77   4
  -1  -8   1   85.32    1.88   1
   1  -8  -1   87.02    1.93   1
  -1  -8   1   85.58    1.95   4
   1  -8  -1   85.11    1.79   3
   1   8  -1   89.24    1.88   3
   0   8   1 1007.60   15.02   4
   0  -8  -1  981.50   15.58   1
   0  -8   1  986.62   15.41   1
   0  -8   1  985.46   15.07   4
   0  -8   1  989.48   15.57   3
   0   8  -1  991.47   15.19   2
   0  -8  -1 1008.00   15.34   3
   0  -8  -1  997.81   15.32   2
   1  -8   1   39.70    0.99   1
  -1  -8  -1   38.53    1.09   2
  -1  -8  -1   37.30    1.23   1
  -1   8  -1   39.47    1.18   2
   1   8   1   39.75    0.91   3
   1  -8   1   42.64    1.24   3
   1  -8   1   37.81    1.18   4
   1   8   1   38.44    1.23   4
  -2   8  -1 1586.90   24.78   2
   2   8   1 1634.95   24.74   3
  -2   8  -1 1615.69   24.66   1
  -2  -8  -1 1591.28   24.53   2
   2   8   1 1636.82   24.26   4
  -2  -8  -1 1592.31   25.08   1
   2  -8   1 1581.70   25.15   3
   2  -8   1 1656.53   24.06   4
   3  -8   1   25.24    1.14   4
  -3  -8  -1   24.53    1.11   2
  -3   8  -1   23.95    1.30   2
   3  -8   1   25.92    1.27   3
  -3  -8  -1   25.45    1.22   1
   3   8   1   23.17    1.29   4
  -4  -8  -1  183.24    3.70   2
  -4  -8  -1  181.38    3.92   1
   4  -8   1  181.96    4.04   3
   4  -8   1  180.31    3.59   4
  -4   8  -1  177.16    3.99   2
   4   8   1  181.50    3.94   4
   5   8   1   39.62    1.86   4
  -5  -8  -1   41.11    1.75   1
   5  -8   1   37.74    1.78   3
  -5   8  -1   39.32    1.81   2
  -5  -8  -1   44.13    1.73   2
   6  -8   1  161.34    4.26   3
   6   8   1  165.58    4.18   4
  -6   8  -1  170.46    4.32   2
  -7   9   1  125.94    3.77   2
  -7  -9   1  129.85    3.73   1
   7  -9  -1  123.40    3.77   3
  -6   9   1    0.64    0.73   2
   6  -9  -1    0.05    0.70   3
  -6  -9   1   -0.17    0.75   1
   6   9  -1    0.97    0.77   4
   5   9  -1   48.20    1.75   3
   5   9  -1   46.74    1.77   4
  -5   9   1   47.92    1.94   2
   5  -9  -1   48.84    1.92   3
  -5  -9   1   47.76    1.90   1
  -4  -9   1  105.50    2.73   1
   4  -9  -1  104.26    2.72   3
  -4   9   1  100.49    2.43   1
  -4   9   1  107.16    2.74   2
   4   9  -1  101.62    2.51   3
   4   9  -1  110.42    2.63   4
   3  -9  -1  126.52    2.33   4
   3  -9  -1  125.97    2.85   3
  -3   9   1  127.91    2.69   1
   3   9  -1  125.41    2.79   4
   3   9  -1  123.54    2.67   3
  -3  -9   1  123.80    2.86   1
   3  -9  -1  129.84    2.92   2
  -2  -9   1  447.25    7.53   4
  -2   9   1  463.12    7.63   1
   2  -9  -1  461.99    7.74   2
   2  -9  -1  461.92    7.16   4
   2  -9  -1  463.32    7.67   3
   2   9  -1  455.59    7.58   3
  -2  -9   1  447.42    7.73   1
  -2   9   1  457.51    6.17   5
  -1  -9   1 1137.60   17.85   1
   1  -9  -1 1160.86   17.71   2
   1   9  -1 1148.39   17.85   3
  -1  -9   1 1135.10   17.34   4
   1  -9  -1 1130.73   17.74   3
   1  -9  -1 1132.45   17.86   1
   1  -9  -1 1145.78   17.13   4
  -1  -9   1 1147.02   17.34   2
   0   9   1   86.24    1.93   4
   0  -9  -1   88.71    1.99   1
   0   9  -1   86.79    1.77   2
   0  -9   1   87.56    1.96   3
   0  -9  -1   87.58    1.90   2
   0  -9   1   82.37    1.81   1
   1  -9   1    1.77    0.30   1
  -1  -9  -1   -0.04    0.26   2
  -1  -9  -1    0.03    0.29   1
   1  -9   1   -0.64    0.28   4
   1   9   1    0.53    0.21   3
  -1   9  -1   -0.62    0.30   2
   1   9   1   -0.15    0.32   4
   1  -9   1   -0.01    0.29   3
   2  -9   1   32.77    1.28   3
  -2   9  -1   33.22    1.29   2
  -2  -9  -1   32.30    1.29   1
  -2  -9  -1   30.02    1.06   2
  -2   9  -1   34.51    0.96   1
   2  -9   1   29.49    1.20   4
   2   9   1   31.44    1.30   4
   2   9   1   32.15    0.96   3
   3   9   1  969.43   15.29   4
   3  -9   1  994.72   15.89   3
  -3   9  -1  979.70   15.62   2
   3  -9   1  963.12   14.95   4
  -3  -9  -1  945.70   15.21   2
  -3  -9  -1  979.58   15.78   1
   4  -9   1    1.29    0.61   3
   4  -9   1    2.07    0.58   4
  -4   9  -1    1.96    0.70   2
  -4  -9  -1    2.63    0.60   2
  -4  -9  -1    2.84    0.67   1
   4   9   1    1.27    0.66   4
  -5   9  -1  125.63    3.42   2
   5  -9   1  128.44    3.46   3
  -5  -9  -1  134.58    3.40   1
   5   9   1  129.84    3.42   4
   6  -9   1    9.46    1.19   3
   6   9   1    9.05    1.27   4
  -6   9  -1    9.24    1.25   2
  -7  10   1   17.88    1.65   2
  -7 -10   1   16.19    1.53   1
   7 -10  -1   17.06    1.60   3
   6 -10  -1    3.71    0.88   3
  -6 -10   1    4.73    0.94   1
  -6  10   1    3.78    0.91   2
   6  10  -1    3.22    0.90   4
  -5 -10   1   26.45    1.50   1
   5 -10  -1   25.72    1.47   3
   5  10  -1   23.94    1.39   4
  -5  10   1   25.38    1.53   2
   5  10  -1   24.89    1.31   3
  -4 -10   1   17.21    1.19   1
   4  10  -1   15.40    1.03   3
  -4  10   1   16.16    1.19   2
  -4  10   1   15.56    0.99   1
   4 -10  -1   17.83    1.17   3
   4  10  -1   16.79    1.13   4
   3 -10  -1   28.74    1.34   2
   3  10  -1   28.45    1.15   3
   3 -10  -1   27.69    1.22   3
  -3  10   1   30.18    1.20   1
   3  10  -1   28.63    1.28   4
  -3 -10   1   26.33    1.27   1
   3 -10  -1   27.53    0.92   4
   2 -10  -1   10.79    0.86   2
   2 -10  -1    9.83    0.77   3
   2  10  -1   10.09    0.74   3
  -2 -10   1    9.49    0.74   4
  -2  10   1    9.57    0.79   1
  -2  10   1   10.36    0.64   5
   2 -10  -1   10.85    0.68   4
  -2 -10   1    9.70    0.79   1
  -1 -10   1   39.49    1.35   4
   1 -10  -1   41.92    1.32   1
  -1 -10   1   40.75    1.28   1
  -1 -10   1   43.19    1.01   2
   1 -10  -1   40.14    1.17   3
   1  10  -1   45.18    1.26   3
   1 -10  -1   44.56    1.26   4
   1 -10  -1   40.87    1.32   2
   0  10   1   11.08    0.54   3
   0 -10  -1    9.30    0.70   2
   0  10  -1    7.73    0.62   2
   0  10   1   10.06    0.76   4
   0 -10   1    9.97    0.66   1
   0 -10  -1   10.02    0.74   1
   0 -10   1    8.68    0.66   4
  -1 -10  -1  540.04    8.68   2
   1 -10   1  551.76    8.68   1
   1 -10   1  543.40    9.02   3
  -1  10  -1  541.58    8.80   2
   1  10   1  543.10    8.57   3
   1  10   1  543.08    8.79   4
  -1 -10  -1  537.61    9.04   1
   1 -10   1  534.08    8.71   4
   2 -10   1  285.61    5.08   4
  -2  10  -1  290.69    5.28   2
   2  10   1  288.76    5.28   4
  -2 -10  -1  290.29    4.98   2
  -2 -10  -1  289.40    5.36   1
   2 -10   1  290.45    5.37   3
   3 -10   1  375.67    6.89   3
   3  10   1  374.63    6.71   4
  -3  10  -1  371.35    6.78   2
  -3 -10  -1  372.99    6.82   1
  -3 -10  -1  377.04    6.38   2
   3 -10   1  370.27    6.37   4
  -4 -10  -1    0.07    0.60   1
   4  10   1    0.13    0.61   4
   4 -10   1    0.37    0.50   4
  -4 -10  -1   -0.29    0.47   2
  -4  10  -1   -0.30    0.58   2
   4 -10   1   -0.65    0.56   3
  -5 -10  -1   11.41    1.14   1
   5  10   1    9.37    1.18   4
  -5  10  -1    8.85    1.09   2
   5 -10   1   10.22    1.12   3
   6 -10   1   28.86    1.83   3
  -6  10  -1   28.25    1.86   2
  -6 -10  -1   29.00    1.73   1
   6  10   1   27.10    1.79   4
   6 -11  -1    1.55    0.80   3
  -6 -11   1    0.29    0.78   1
   6  11  -1   -0.43    0.81   4
  -6  11   1    0.32    0.82   2
   5 -11  -1   15.12    1.22   3
  -5  11   1   15.35    1.21   2
  -5 -11   1   15.47    1.25   1
   5  11  -1   14.52    1.13   4
   4  11  -1   14.44    1.00   3
   4  11  -1   13.81    1.11   4
  -4 -11   1   14.22    1.17   1
   4 -11  -1   13.31    1.05   3
  -4  11   1   13.16    1.06   2
   3 -11  -1    7.20    0.74   3
   3 -11  -1    7.71    0.59   4
   3  11  -1    8.34    0.82   4
   3  11  -1    7.94    0.68   3
   3 -11  -1    8.12    0.82   2
  -3 -11   1    7.31    0.77   1
  -3  11   1    8.14    0.73   1
   2  11  -1  279.38    5.04   3
   2 -11  -1  283.37    5.24   2
  -2 -11   1  274.30    5.14   4
  -2  11   1  281.42    4.14   5
   2 -11  -1  287.37    5.13   3
   2 -11  -1  288.11    4.79   4
  -2  11   1  277.00    5.09   1
   1 -11  -1   96.57    2.25   1
   1 -11  -1   94.13    2.07   3
   1  11  -1   94.85    2.16   3
  -1 -11   1   91.75    2.27   4
   1 -11  -1  100.84    2.28   2
   1 -11  -1   96.67    2.14   4
  -1 -11   1   96.67    1.86   2
  -1 -11   1   97.45    2.23   1
   0 -11  -1  150.29    3.17   1
   0  11   1  155.94    2.88   3
   0  11   1  159.29    3.14   4
   0  11  -1  158.42    2.93   2
   0 -11   1  158.21    3.18   4
   0  11  -1  155.33    3.15   3
   0 -11   1  158.72    3.04   1
   0 -11  -1  156.15    3.06   2
   1  11   1  287.57    4.86   3
  -1  11  -1  291.56    5.15   2
  -1 -11  -1  292.01    5.36   1
   1 -11   1  302.05    5.02   1
   1 -11   1  293.47    5.31   3
  -1 -11  -1  294.60    5.05   2
   1 -11   1  289.72    5.17   4
   1  11   1  290.08    5.24   4
  -2  11  -1   34.09    1.40   2
   2 -11   1   31.20    1.28   4
   2 -11   1   34.11    1.37   3
   2  11   1   33.77    1.46   4
  -2 -11  -1   34.76    1.43   1
  -2 -11  -1   34.36    1.19   2
  -3  11  -1  495.28    8.79   2
   3 -11   1  506.16    8.36   4
   3  11   1  507.80    8.69   4
   3 -11   1  504.73    8.92   3
  -3 -11  -1  513.72    8.35   2
  -4 -11  -1    4.33    0.75   1
   4 -11   1    3.57    0.77   3
  -4  11  -1    2.85    0.76   2
   4  11   1    3.21    0.78   4
  -5  11  -1   20.65    1.54   2
   5 -11   1   23.11    1.56   3
  -5 -11  -1   23.13    1.49   1
   5  11   1   19.23    1.54   4
  -6 -11  -1   33.93    1.89   1
   6  11   1   33.62    1.98   4
  -6  11  -1   36.51    2.07   2
   6 -11   1   35.66    2.00   3
   6  12  -1   20.10    1.58   4
  -6 -12   1   23.12    1.66   1
   6 -12  -1   21.67    1.58   3
  -6  12   1   19.02    1.58   2
   5  12  -1   43.10    1.85   4
  -5 -12   1   41.05    1.87   1
   5 -12  -1   46.51    1.93   3
  -5  12   1   45.09    1.96   2
  -4  12   1  174.29    3.99   2
   4  12  -1  175.77    3.73   3
   4  12  -1  176.83    3.91   4
  -4 -12   1  173.50    3.99   1
   3 -12  -1    1.61    0.41   4
   3 -12  -1    1.42    0.51   3
  -3 -12   1    0.62    0.53   1
  -3  12   1    0.21    0.49   1
   3 -12  -1    0.75    0.56   2
   3  12  -1    0.57    0.53   4
   3  12  -1    1.26    0.47   3
   2 -12  -1   18.54    0.94   4
  -2 -12   1   16.22    1.06   1
  -2 -12   1   17.68    1.09   4
  -2  12   1   18.08    0.83   5
  -2  12   1   16.49    0.95   1
   2 -12  -1   17.83    0.96   3
   2 -12  -1   16.46    1.06   2
   2  12  -1   18.01    0.94   3
   1  12  -1  336.14    6.03   3
   1 -12  -1  344.30    5.94   3
  -1 -12   1  345.35    5.61   2
  -1 -12   1  352.87    6.11   4
  -1 -12   1  342.51    6.09   1
   1 -12  -1  345.33    6.12   1
   1 -12  -1  354.48    6.12   2
   1 -12  -1  345.43    5.88   4
   0  12   1  151.06    2.83   3
   0  12  -1  148.94    3.10   3
   0  12  -1  151.02    2.87   2
   0 -12   1  151.09    3.00   1
   0 -12  -1  145.85    3.14   1
   0  12   1  148.14    3.10   4
   0 -12   1  148.77    3.13   4
   0 -12  -1  151.22    3.01   2
  -1  12  -1    1.15    0.45   2
  -1 -12  -1    0.43    0.36   2
   1 -12   1    1.28    0.45   4
  -1 -12  -1    0.75    0.48   1
   1 -12   1    1.40    0.46   3
   1 -12   1    2.08    0.42   1
   1  12   1    0.37    0.47   4
  -2 -12  -1  240.47    4.81   1
  -2  12  -1  239.84    4.67   2
   2 -12   1  248.24    4.59   4
   2  12   1  242.15    4.75   4
   2 -12   1  244.71    4.80   3
  -2 -12  -1  244.68    4.38   2
  -3  12  -1  146.58    3.44   2
   3 -12   1  147.80    3.48   3
   3 -12   1  148.66    3.21   4
   3  12   1  145.93    3.45   4
  -3 -12  -1  151.65    3.05   2
   4 -12   1    1.86    0.70   3
   4  12   1    1.33    0.75   4
  -4  12  -1    2.88    0.75   2
  -4 -12  -1    1.84    0.70   1
  -5  12  -1   16.74    1.40   2
   5  12   1   17.59    1.47   4
   5 -12   1   18.02    1.41   3
  -5 -12  -1   16.95    1.36   1
   6 -12   1   29.50    1.86   3
  -6  12  -1   27.14    1.90   2
  -6 -12  -1   28.02    1.75   1
   6  12   1   30.56    2.02   4
   6  13  -1    2.22    0.95   4
   6 -13  -1    1.80    0.97   3
  -6  13   1    2.73    1.02   2
  -6 -13   1    2.98    1.00   1
   5 -13  -1   20.48    1.42   3
  -5 -13   1   24.31    1.55   1
  -5  13   1   22.27    1.56   2
   5  13  -1   20.77    1.42   4
  -4  13   1   45.59    1.85   2
   4  13  -1   41.75    1.75   4
  -4 -13   1   40.14    1.78   1
   4 -13  -1   42.49    1.73   3
   3 -13  -1   82.49    2.30   3
   3  13  -1   82.57    2.16   3
  -3 -13   1   82.89    2.40   1
   3  13  -1   84.26    2.43   4
   3 -13  -1   83.47    2.43   2
  -3  13   1   83.57    2.23   1
  -2 -13   1   18.04    1.11   1
  -2 -13   1   17.46    1.16   4
  -2  13   1   21.10    0.93   5
   2  13  -1   18.36    1.00   3
  -2  13   1   19.55    1.07   1
   2 -13  -1   19.11    1.01   3
   2 -13  -1   20.46    1.16   2
   2 -13  -1   17.85    1.03   4
  -1 -13   1   -0.23    0.32   2
   1 -13  -1    0.10    0.44   1
   1 -13  -1    0.52    0.43   2
  -1 -13   1    0.60    0.45   4
   1 -13  -1    0.15    0.42   4
   1  13  -1    1.16    0.42   3
   1 -13  -1    0.67    0.38   3
  -1 -13   1   -0.32    0.40   1
   0  13   1    6.07    0.51   3
   0  13  -1    6.18    0.56   2
   0  13  -1    6.43    0.61   3
   0 -13  -1    6.09    0.68   1
   0 -13   1    6.92    0.72   4
   0  13   1    6.31    0.68   4
   0 -13  -1    5.59    0.60   2
   0 -13   1    5.46    0.58   1
  -1  13  -1  673.24   11.07   2
   1 -13   1  691.41   11.04   1
  -1 -13  -1  690.51   10.99   2
   1 -13   1  685.26   11.38   3
   1 -13   1  674.14   11.01   4
   1  13   1  688.81   11.12   4
  -2 -13  -1  923.77   14.80   2
  -2 -13  -1  922.57   15.46   1
   2  13   1  943.78   15.04   4
   2 -13   1  970.75   14.85   4
   2 -13   1  948.74   15.48   3
  -2  13  -1  954.58   15.18   2
   3 -13   1   37.01    1.59   3
  -3  13  -1   34.34    1.57   2
   3  13   1   31.72    1.61   4
   3 -13   1   35.99    1.47   4
  -3 -13  -1   33.83    1.57   1
  -4  13  -1    2.35    0.80   2
   4  13   1    3.30    0.85   4
  -4 -13  -1    3.28    0.78   1
   4 -13   1    3.98    0.79   3
   5  13   1   -1.34    0.75   4
  -5  13  -1   -0.72    0.74   2
   5 -13   1   -0.54    0.71   3
  -5 -13  -1    0.01    0.70   1
  -6 -14   1   -0.52    0.88   1
   6  14  -1   -0.60    0.85   4
   6 -14  -1   -0.36    0.83   3
  -6  14   1   -0.46    0.86   2
  -5 -14   1    0.52    0.74   1
   5  14  -1    0.53    0.75   4
  -5  14   1    1.75    0.84   2
   5 -14  -1    1.42    0.75   3
   4 -14  -1    3.38    0.75   3
   4  14  -1    2.84    0.81   4
  -4 -14   1    2.99    0.74   1
  -4  14   1    1.65    0.68   2
   3  14  -1   29.49    1.51   4
   3 -14  -1   28.72    1.48   2
  -3  14   1   29.83    1.39   1
  -3 -14   1   32.13    1.51   1
   3 -14  -1   29.06    1.34   3
   3  14  -1   29.98    1.32   3
  -2 -14   1  241.35    4.82   4
  -2  14   1  246.12    3.84   5
   2 -14  -1  242.15    4.81   2
   2 -14  -1  235.99    4.63   3
   2  14  -1  239.20    4.60   3
   2 -14  -1  245.93    4.47   4
  -2 -14   1  240.11    4.81   1
  -2  14   1  240.35    4.71   1
   1 -14  -1   15.16    1.03   4
   1 -14  -1   15.33    1.01   2
   1 -14  -1   16.59    0.92   3
   1 -14  -1   16.32    1.10   1
   1  14  -1   15.04    0.94   3
  -1 -14   1   16.23    1.04   1
  -1 -14   1   16.75    1.11   4
   0  14   1  154.07    3.36   4
   0 -14  -1  164.51    3.29   2
   0  14  -1  155.74    3.08   2
   0  14  -1  148.64    3.29   3
   0 -14   1  154.74    3.24   1
   0 -14   1  161.79    3.44   4
   0  14   1  155.38    3.06   3
   0 -14  -1  161.98    3.46   1
   1 -14   1  361.67    6.60   3
  -1 -14  -1  370.57    6.30   2
   1 -14   1  358.68    6.43   4
   1 -14   1  365.72    6.31   1
  -1  14  -1  362.81    6.39   2
   1  14   1  361.12    6.55   4
   2 -14   1    0.84    0.52   3
  -2  14  -1    0.59    0.54   2
   2  14   1    1.31    0.63   4
  -2 -14  -1   -0.20    0.40   2
  -2 -14  -1    2.04    0.63   1
   2 -14   1    0.49    0.53   4
  -3  14  -1    8.31    0.92   2
  -3 -14  -1    8.44    0.93   1
   3 -14   1    8.14    0.87   4
   3  14   1    7.83    0.95   4
   3 -14   1    9.44    0.95   3
  -4 -14  -1   59.88    2.20   1
  -4  14  -1   56.85    2.20   2
   4 -14   1   59.35    2.21   3
   4  14   1   56.73    2.22   4
  -5  14  -1   11.74    1.29   2
   5  14   1   11.34    1.38   4
  -5 -14  -1   13.36    1.31   1
   5 -14   1   12.45    1.27   3
   6  15  -1    1.45    0.99   4
  -6  15   1    0.45    0.96   2
  -6 -15   1    2.08    0.99   1
   6 -15  -1    1.97    0.99   3
  -5 -15   1   16.13    1.38   1
  -5  15   1   16.77    1.40   2
   5 -15  -1   16.18    1.34   3
   5  15  -1   13.35    1.31   4
  -4  15   1   42.72    1.88   2
   4 -15  -1   44.14    1.83   3
  -4 -15   1   47.01    1.94   1
   4  15  -1   43.06    1.89   4
  -3 -15   1   57.34    2.07   1
   3  15  -1   62.73    2.15   4
   3 -15  -1   59.17    2.10   2
   3 -15  -1   61.78    1.98   3
  -2 -15   1    0.54    0.56   4
  -2  15   1   -0.19    0.39   5
  -2 -15   1    1.08    0.60   1
  -2  15   1    0.10    0.45   1
   2 -15  -1    0.02    0.45   3
   2 -15  -1   -0.04    0.50   4
   2  15  -1    0.05    0.44   3
   2 -15  -1    0.38    0.53   2
  -1 -15   1   14.31    1.09   4
   1 -15  -1    9.93    0.85   2
   1 -15  -1   12.72    0.86   3
   1  15  -1   13.55    0.95   3
  -1 -15   1   13.54    1.02   1
   1 -15  -1   12.76    0.97   1
   0 -15   1   81.30    2.30   4
   0 -15  -1   78.91    2.10   2
   0 -15   1   79.23    2.11   1
   0  15   1   81.31    2.28   4
   0 -15  -1   83.28    2.30   1
   0  15  -1   79.57    2.17   3
  -1 -15  -1   58.46    2.00   1
   1 -15   1   58.74    1.91   3
  -1  15  -1   60.37    1.86   2
   1 -15   1   65.14    1.81   1
   1  15   1   58.87    2.00   4
  -1 -15  -1   58.63    1.73   2
   1 -15   1   59.98    1.93   4
  -2  15  -1  142.21    3.30   2
   2 -15   1  135.75    3.20   4
   2 -15   1  145.77    3.39   3
   2  15   1  142.67    3.47   4
  -3  15  -1   26.75    1.50   2
   3 -15   1   30.08    1.53   3
   3  15   1   30.61    1.60   4
  -3 -15  -1   27.87    1.50   1
   3 -15   1   31.83    1.49   4
  -4  15  -1   69.79    2.47   2
   4  15   1   71.66    2.54   4
  -4 -15  -1   71.73    2.49   1
   4 -15   1   72.93    2.53   3
   5  15   1   84.85    3.02   4
  -5 -15  -1   88.87    2.97   1
  -5  15  -1   87.81    3.00   2
  -5 -16   1   29.07    1.75   1
  -5  16   1   27.21    1.80   2
   5 -16  -1   29.34    1.71   3
   5  16  -1   25.40    1.75   4
   4  16  -1    6.11    1.01   4
   4 -16  -1    5.83    0.90   3
  -4  16   1    5.46    0.94   2
  -4 -16   1    5.79    0.93   1
   3 -16  -1   10.50    1.06   2
   3  16  -1   11.28    1.09   4
  -3 -16   1   10.94    1.07   1
   3 -16  -1   10.60    0.94   3
   2 -16  -1   89.32    2.39   3
   2  16  -1   88.17    2.34   3
   2 -16  -1   91.20    2.56   2
  -2 -16   1   92.42    2.59   1
  -2  16   1   90.12    2.01   5
   2 -16  -1   90.59    2.36   4
  -2  16   1   88.40    2.45   1
   1 -16  -1  201.42    4.23   1
   1 -16  -1  195.26    4.13   2
  -1  16   1  202.47    4.09   4
  -1 -16   1  201.63    4.19   1
   1 -16  -1  197.37    3.96   3
   1  16  -1  194.48    4.07   3
   0 -16  -1  440.24    7.55   2
   0 -16  -1  436.91    7.84   1
   0 -16   1  430.89    7.60   1
   0  16   1  435.41    7.63   4
   0  16  -1  421.67    7.70   3
  -1 -16  -1    4.30    0.62   2
  -1 -16  -1    5.19    0.81   1
   1 -16   1    4.92    0.77   4
   1 -16   1    4.07    0.64   1
  -1  16  -1    2.78    0.67   2
   1  16   1    3.13    0.78   4
   1 -16   1    4.81    0.72   3
  -2  16  -1   59.11    2.00   2
   2 -16   1   61.20    2.00   4
   2  16   1   56.56    2.09   4
   2 -16   1   53.85    1.97   3
  -2 -16  -1   59.11    2.10   1
   3  16   1    3.92    0.86   4
  -3 -16  -1    3.31    0.81   1
   3 -16   1    3.82    0.74   4
   3 -16   1    3.96    0.82   3
  -3  16  -1    3.48    0.81   2
  -4 -16  -1    4.76    0.94   1
   4  16   1    4.99    1.02   4
  -4  16  -1    3.53    0.90   2
   4 -16   1    5.02    0.96   3
   5 -16   1   20.25    1.62   3
  -5  16  -1   18.14    1.58   2
  -5 -16  -1   20.68    1.62   1
   5  16   1   18.89    1.63   4
   5 -17  -1   28.26    1.75   3
  -5 -17   1   25.48    1.72   1
   5  17  -1   28.33    1.84   4
  -5  17   1   26.52    1.84   2
  -4  17   1   20.82    1.50   2
   4  17  -1   21.86    1.55   4
  -4 -17   1   17.85    1.40   1
   4 -17  -1   19.45    1.39   3
   3  17  -1    4.54    0.85   4
   3 -17  -1    5.30    0.80   3
   3 -17  -1    6.04    0.93   2
  -3 -17   1    6.02    0.93   1
   2  17  -1   45.77    1.90   4
   2 -17  -1   47.58    1.75   4
  -2  17   1   45.40    1.44   5
   2 -17  -1   42.47    1.79   2
  -2  17   1   43.56    1.72   1
   2 -17  -1   44.24    1.65   3
  -2 -17   1   45.89    1.85   1
  -1  17   1   42.41    1.67   4
   1  17  -1   36.49    1.51   3
  -1 -17   1   37.78    1.72   4
   1 -17  -1   40.47    1.52   3
   1 -17  -1   38.11    1.60   2
   1 -17  -1   40.36    1.73   1
  -1 -17   1   38.32    1.62   1
   0 -17  -1  294.86    5.50   2
   0 -17   1  278.82    5.64   4
   0 -17  -1  291.90    5.77   1
   0  17  -1  295.37    5.65   3
   0  17   1  280.57    5.58   4
   0 -17   1  302.71    5.58   1
   1 -17   1   34.01    1.53   3
   1 -17   1   34.91    1.51   1
   1 -17   1   34.42    1.56   4
  -1 -17  -1   33.23    1.59   1
   1  17   1   28.04    1.52   4
  -2  17  -1   11.62    1.05   2
   2 -17   1   13.38    1.09   3
  -2 -17  -1   11.91    1.11   1
   2 -17   1   13.11    1.04   4
   2  17   1   10.90    1.11   4
   3 -17   1   25.02    1.49   3
   3  17   1   24.97    1.58   4
  -3 -17  -1   25.95    1.55   1
  -3  17  -1   25.59    1.53   2
   4  17   1    2.59    0.92   4
  -4 -17  -1    2.57    0.90   1
   4 -17   1    3.93    0.93   3
  -4  17  -1    2.47    0.90   2
  -5  18   1    7.16    1.22   2
  -5 -18   1    7.73    1.23   1
   5 -18  -1   10.01    1.23   3
   5  18  -1    7.75    1.25   4
  -4  18   1   50.51    2.18   2
  -4 -18   1   49.94    2.16   1
   4 -18  -1   49.35    2.05   3
   4  18  -1   47.15    2.19   4
  -3 -18   1   17.24    1.41   1
   3  18  -1   17.46    1.40   4
   3 -18  -1   19.16    1.30   3
  -2 -18   1   67.54    2.29   1
   2 -18  -1   63.55    2.07   3
  -2  18   1   67.29    2.19   1
   2 -18  -1   65.02    2.20   2
  -2  18   1   63.09    1.74   5
   2  18  -1   62.54    2.27   4
  -1 -18   1  129.73    3.41   4
  -1 -18   1  134.94    3.30   1
   1 -18  -1  135.43    3.37   1
   1 -18  -1  129.46    3.21   2
   1  18  -1  128.08    3.15   3
  -1  18   1  139.33    3.31   4
   0 -18  -1   24.47    1.34   2
   0 -18   1   22.18    1.40   4
   0  18  -1   25.24    1.36   3
   0 -18   1   26.36    1.40   1
   0  18   1   22.21    1.39   4
   0 -18  -1   28.13    1.53   1
   1  18   1    0.60    0.66   4
  -1 -18  -1    0.28    0.63   1
   1 -18   1    0.39    0.61   4
  -1  18  -1    0.44    0.55   3
   2 -18   1    5.05    0.86   4
  -2 -18  -1    4.04    0.83   1
  -2  18  -1    4.20    0.83   2
   2  18   1    4.68    0.85   4
   2 -18   1    5.19    0.85   3
  -3  18  -1   34.27    1.77   2
   3  18   1   34.64    1.85   4
   3 -18   1   35.70    1.77   3
  -3 -18  -1   33.86    1.79   1
   4 -18   1    0.54    0.77   3
  -4  18  -1   -0.45    0.81   2
   4  18   1    0.21    0.87   4
  -4 -18  -1   -1.72    0.70   1
   4 -19  -1   20.46    1.49   3
  -4 -19   1   20.29    1.61   1
   4  19  -1   21.54    1.66   4
  -4  19   1   20.23    1.60   2
   3 -19  -1  193.05    4.40   3
   3  19  -1  192.55    4.64   4
  -3 -19   1  197.63    4.63   1
  -3  19   1  187.61    4.48   2
   2 -19  -1   68.24    2.16   3
  -2  19   1   67.34    1.84   5
   2 -19  -1   62.02    2.23   2
   2  19  -1   64.43    2.40   4
  -2 -19   1   64.55    2.33   1
  -2  19   1   71.55    2.30   1
  -1 -19   1  123.17    3.36   4
  -1 -19   1  125.05    3.23   1
   1 -19  -1  126.65    3.29   1
  -1  19   1  122.31    3.17   4
   1 -19  -1  122.17    3.14   2
   0  19  -1   87.73    2.57   3
   0 -19   1   88.69    2.71   4
   0 -19  -1   91.31    2.75   1
   0 -19   1   90.13    2.56   1
   0  19   1   91.76    2.72   4
  -1 -19  -1   20.31    1.40   1
  -1  19  -1   19.41    1.29   3
   1  19   1   21.26    1.46   4
   1 -19   1   21.02    1.40   4
  -2 -19  -1   13.64    1.24   1
   2 -19   1   12.35    1.14   4
   2 -19   1   12.38    1.15   3
   2  19   1   11.21    1.22   4
  -3  19  -1   51.41    2.16   2
  -3 -19  -1   51.76    2.22   1
   3 -19   1   53.24    2.20   3
   3  19   1   48.49    2.23   4
  -4 -19  -1   47.88    2.29   1
  -4  19  -1   48.80    2.24   2
   4 -19   1   51.27    2.29   3
   4  19   1   47.65    2.33   4
   4  20  -1   30.96    1.97   4
  -4 -20   1   33.08    1.93   1
   4 -20  -1   30.95    1.80   3
  -4  20   1   33.79    1.96   2
  -3 -20   1   46.45    2.10   1
   3 -20  -1   44.44    1.92   3
   3  20  -1   47.37    2.21   4
  -3  20   1   43.59    1.98   2
  -2 -20   1   -0.31    0.68   1
   2 -20  -1    0.34    0.71   2
   2  20  -1   -0.24    0.75   4
   2 -20  -1    1.47    0.64   3
  -1 -20   1    1.58    0.82   4
  -1 -20   1    1.48    0.73   1
   1 -20  -1    0.74    0.72   2
  -1  20   1    1.25    0.77   4
   1 -20  -1    0.86    0.75   1
   0 -20  -1  273.23    5.74   1
   0 -20   1  280.67    5.57   1
   0 -20   1  274.23    5.71   4
   0  20  -1  265.03    5.55   3
   0  20   1  261.69    5.57   4
  -1  20  -1  125.41    3.34   3
  -1 -20  -1  124.01    3.43   1
   1  20   1  128.34    3.49   4
   2 -20   1   12.58    1.21   3
  -2 -20  -1   10.70    1.18   1
   2  20   1   12.84    1.30   4
   2 -20   1   12.82    1.19   4
   3  20   1    5.00    1.10   4
  -3 -20  -1    5.67    1.08   1
   3 -20   1    5.11    0.99   3
   3  21  -1   84.26    3.00   4
   3 -21  -1   83.38    2.70   3
  -3  21   1   83.54    2.80   2
  -3 -21   1   83.49    2.90   1
  -2 -21   1  124.86    3.50   1
   2 -21  -1  122.02    3.39   2
  -1 -21   1   34.50    1.79   1
  -1 -21   1   34.74    1.88   4
   1 -21  -1   34.69    1.87   1
   0 -21  -1    2.99    0.88   1
   0  21   1    1.95    0.81   4
   0 -21   1    3.27    0.90   4
   1 -21   1  153.17    3.90   4
   1  21   1  151.99    3.99   4
  -1 -21  -1  153.05    3.98   1
  -1  21  -1  152.33    3.86   3
  -2 -21  -1    0.06    0.74   1
   2 -21   1   -0.20    0.79   4
   2  21   1    0.30    0.77   4
  -3 -21  -1    4.87    1.08   1
   3 -21   1    5.56    1.06   3
   3  21   1    4.82    1.13   4
   3  22  -1   -0.49    0.90   4
  -3 -22   1    0.89    0.87   1
  -2 -22   1   43.17    2.13   1
   2  22  -1   41.37    2.15   4
  -1 -22   1   34.25    1.83   1
   1  22  -1   35.50    1.95   4
   1 -22  -1   36.38    1.94   1
   0 -22   1   -0.69    0.83   4
   0 -22  -1    1.68    0.87   1
   0  22   1   -0.84    0.78   4
   1 -22   1   17.98    1.50   4
   1  22   1   17.77    1.50   4
  -1 -22  -1   18.38    1.54   1
  -2 -22  -1   53.85    2.41   1
   2  22   1   61.00    2.56   4
  -2  22  -1   59.71    2.41   3
  -2 -23   1   40.81    2.16   1
   2  23  -1   42.24    2.18   4
  -1 -23   1    5.23    1.00   1
   1  23  -1    6.84    1.16   4
   1 -23  -1    3.71    1.04   1
   0  23   1  101.20    3.20   4
   0 -23  -1  101.90    3.25   1
   0 -23   1  100.70    3.30   4
  -1 -23  -1  134.98    3.93   1
   1  23   1  142.36    3.99   4
   1 -23   1  141.58    3.93   4
  -7   0   2    0.82    0.77   1
  -7   0   2   -0.42    0.69   2
   7   0  -2   -0.16    0.73   3
  -6   0   2  176.22    3.78   2
   6   0  -2  166.99    4.06   3
  -6   0   2  171.01    3.93   1
  -5   0   2   -1.29    0.46   2
   5   0  -2   -1.60    0.53   3
  -5   0   2   -1.52    0.58   1
  -4   0   2  669.56   10.68   2
   4   0  -2  663.07   10.05   4
  -4   0   2  659.06   10.98   1
   4   0  -2  675.83   11.08   3
   3   0  -2   -0.23    0.30   3
   3   0  -2    0.03    0.17   4
  -3   0   2    0.02    0.37   1
   3   0  -2    0.12    0.27   2
  -2   0   2 2556.89   39.51   1
   2   0  -2 2621.16   38.97   2
   2   0  -2 2572.99   39.55   3
  -2   0   2 2621.25   38.05   4
   1   0  -2    0.13    0.18   3
   1   0  -2   -0.10    0.16   2
  -1   0   2    0.21    0.23   1
  -1   0   2   -0.40    0.19   4
   0   0   2   14.82    0.42   5
   0   0   2   15.49    0.71   4
   0   0  -2   14.40    0.49   3
   0   0   2   14.39    0.51   1
   0   0  -2   14.21    0.64   2
  -1   0  -2   -0.05    0.16   1
   1   0   2    0.60    0.34   4
   1   0   2    0.07    0.18   3
  -1   0  -2   -0.02    0.24   2
  -2   0  -2   17.43    0.69   1
  -2   0  -2   17.26    0.89   2
   2   0   2   17.54    0.76   3
   2   0   2   18.08    0.97   4
   3   0   2   -0.16    0.51   4
   3   0   2   -0.05    0.34   3
  -3   0  -2    0.13    0.31   1
  -3   0  -2    1.16    0.50   2
   4   0   2   18.53    1.26   4
   4   0   2   20.37    1.11   3
  -4   0  -2   18.33    1.20   2
   5   0   2    0.67    0.62   3
   5   0   2    0.19    0.67   4
  -5   0  -2    0.42    0.65   2
  -6   0  -2   81.29    2.80   2
   7  -1  -2    1.36    0.77   3
   7   1  -2    1.66    0.86   3
  -7   1   2   -1.27    0.66   2
  -7  -1   2    3.45    0.84   1
  -6  -1   2  300.53    5.93   1
  -6   1   2  299.97    5.72   2
   6  -1  -2  296.99    6.07   3
  -6   1   2  295.95    5.87   1
   6   1  -2  291.17    6.03   3
  -6  -1   2  301.47    5.63   2
  -5  -1   2  105.16    2.72   1
  -5   1   2  104.27    2.59   2
  -5   1   2  105.84    2.74   1
   5   1  -2  105.22    2.80   3
  -5  -1   2  110.32    2.52   2
   5  -1  -2  107.15    2.80   3
   4   1  -2  113.83    2.66   3
   4  -1  -2  116.84    2.71   3
  -4   1   2  115.79    2.65   1
  -4  -1   2  115.44    2.41   2
  -4   1   2  115.18    2.49   2
  -4  -1   2  111.48    2.65   1
   4   1  -2  115.02    2.15   4
   3   1  -2    1.79    0.39   3
   3   1  -2    1.88    0.26   4
  -3  -1   2    2.08    0.45   1
   3  -1  -2    2.18    0.37   2
  -3   1   2    2.02    0.45   1
   3  -1  -2    2.44    0.41   3
   3   1  -2    2.32    0.35   2
   2   1  -2  229.55    3.79   2
   2   1  -2  228.00    3.99   3
  -2  -1   2  231.13    3.66   4
   2  -1  -2  226.89    3.98   3
  -2   1   2  229.71    4.03   1
   2  -1  -2  233.78    3.89   2
  -2  -1   2  226.91    4.02   1
  -1  -1   2 4564.43   66.83   1
  -1  -1   2 4478.98   64.26   4
   1  -1  -2 4567.31   66.95   3
  -1   1   2 4386.11   66.79   1
   1  -1  -2 4414.40   65.93   2
  -1   1   2 4378.44   64.34   4
   1   1  -2 4191.86   66.82   3
   1   1  -2 4304.40   65.98   2
   0   1   2  198.35    2.71   5
   0  -1  -2  198.59    3.25   3
   0  -1   2  196.13    3.36   4
   0   1   2  199.88    3.35   1
   0   1  -2  201.73    3.35   3
   0  -1   2  201.74    3.27   1
   0   1  -2  199.74    3.38   2
   0   1   2  196.65    3.35   4
   0  -1  -2  197.57    3.40   2
   1  -1   2  216.30    3.64   3
   1  -1   2  212.77    3.72   4
   1   1   2  210.08    3.53   3
  -1  -1  -2  213.39    3.76   2
  -1  -1  -2  214.86    3.55   1
  -1   1  -2  208.86    3.74   2
   1   1   2  209.38    3.71   4
  -2   1  -2    1.52    0.42   2
   2  -1   2    1.17    0.32   3
   2   1   2    1.00    0.43   4
  -2  -1  -2    1.44    0.29   1
  -2   1  -2    1.09    0.22   1
  -2  -1  -2    1.47    0.41   2
   2  -1   2    1.10    0.44   4
   2   1   2    1.01    0.30   3
  -3  -1  -2   53.59    1.68   2
  -3  -1  -2   52.81    1.39   1
   3  -1   2   49.67    1.67   4
   3   1   2   52.54    1.72   4
   3   1   2   49.47    1.46   3
   3  -1   2   52.49    1.54   3
  -3   1  -2   56.32    1.74   2
   4   1   2  123.44    2.84   3
  -4  -1  -2  122.00    3.01   2
   4  -1   2  120.92    2.88   3
   4  -1   2  126.78    2.98   4
   4   1   2  121.82    3.00   4
  -5  -1  -2   12.35    1.11   2
   5   1   2   13.15    1.16   4
   5  -1   2   12.42    1.13   4
  -5   1  -2   10.88    1.10   2
   5  -1   2   10.52    0.99   3
  -6  -1  -2   19.27    1.56   2
  -6   1  -2   18.11    1.49   2
   6   1   2   20.47    1.65   4
  -7   2   2    1.09    0.78   2
  -7  -2   2    1.67    0.80   1
   7  -2  -2    1.69    0.81   3
   7   2  -2    0.60    0.82   3
  -6   2   2    5.78    0.88   2
  -6   2   2    7.73    0.96   1
   6   2  -2    5.93    0.94   3
  -6  -2   2    6.44    0.83   2
   6  -2  -2    5.44    0.94   3
  -6  -2   2    5.59    0.95   1
   5   2  -2    0.90    0.51   4
  -5  -2   2    0.53    0.66   1
   5   2  -2    4.02    0.73   3
   5  -2  -2    0.88    0.65   3
  -5  -2   2    0.15    0.53   2
  -5   2   2    1.70    0.65   1
  -5   2   2    0.07    0.59   2
   4  -2  -2   62.93    1.85   3
  -4   2   2   62.25    1.78   1
  -4   2   2   60.12    1.69   2
   4   2  -2   59.80    1.42   4
  -4  -2   2   60.41    1.83   1
   4   2  -2   56.81    1.76   3
  -4  -2   2   60.27    1.54   2
  -3   2   2  444.82    7.41   1
   3   2  -2  449.15    6.87   4
   3  -2  -2  442.59    7.43   3
  -3  -2   2  438.69    7.42   1
   3   2  -2  431.10    7.41   3
   3  -2  -2  450.27    7.31   2
  -2   2   2   29.17    0.99   1
   2   2  -2   28.60    0.95   3
   2  -2  -2   29.57    0.93   3
  -2  -2   2   28.07    0.82   4
   2  -2  -2   31.79    0.93   2
   2   2  -2   28.74    0.74   2
  -2  -2   2   28.55    0.98   1
  -1   2   2  223.31    3.84   1
   1  -2  -2  220.16    3.70   3
   1   2  -2  233.60    3.63   2
  -1   2   2  224.16    3.57   4
   1  -2  -2  227.85    3.78   2
  -1  -2   2  223.45    3.66   4
   1   2  -2  219.36    3.79   3
  -1  -2   2  224.38    3.78   1
   0  -2  -2  763.68   12.13   3
   0  -2  -2  775.57   12.09   2
   0   2   2  782.02   11.80   4
   0  -2  -2  801.87   12.20   1
   0  -2   2  793.32   12.12   1
   0   2  -2  777.00   12.21   3
   0   2  -2  786.41   12.05   2
   1  -2   2   85.02    1.76   3
   1   2   2   85.21    1.57   3
  -1  -2  -2   84.75    1.70   1
   1   2   2   86.32    1.88   4
   1  -2   2   85.16    1.86   4
  -1   2  -2   86.27    1.86   2
  -1  -2  -2   82.23    1.83   2
   2  -2   2  540.59    8.74   4
   2  -2   2  552.19    8.95   3
  -2  -2  -2  549.82    8.94   2
  -2  -2  -2  556.34    8.76   1
   2   2   2  546.42    8.79   4
  -2   2  -2  536.91    8.95   2
   2   2   2  547.61    8.75   3
  -3  -2  -2  149.88    3.18   2
  -3  -2  -2  142.60    2.86   1
   3  -2   2  144.03    3.10   4
   3   2   2  144.87    2.92   3
   3   2   2  143.32    3.13   4
   3  -2   2  146.44    3.07   3
  -3   2  -2  149.65    3.22   2
  -4   2  -2  312.87    5.93   2
   4  -2   2  298.12    5.76   3
  -4  -2  -2  306.20    5.84   2
   4   2   2  304.76    5.75   4
   4   2   2  306.42    5.64   3
   4  -2   2  312.00    5.69   4
   5  -2   2   25.18    1.39   3
   5   2   2   24.72    1.57   4
  -5   2  -2   25.14    1.51   2
   5  -2   2   21.85    1.44   4
  -5  -2  -2   25.29    1.51   2
  -6  -2  -2    1.33    0.84   2
  -6   2  -2    1.06    0.84   2
   6  -2   2    0.31    0.75   3
   6   2   2    0.70    0.87   4
  -7  -3   2    8.13    1.07   1
  -7   3   2    8.77    1.09   2
   7   3  -2    6.19    1.07   3
   7  -3  -2    7.82    1.10   3
  -6  -3   2    0.02    0.68   1
  -6   3   2    0.72    0.66   1
   6  -3  -2   -0.84    0.69   3
   6   3  -2    0.72    0.65   3
  -6   3   2   -0.28    0.64   2
  -5   3   2  546.96    9.41   1
   5   3  -2  539.65    9.53   3
   5   3  -2  559.30    8.74   4
  -5  -3   2  547.01    8.98   2
  -5   3   2  548.96    9.31   2
   5  -3  -2  547.04    9.61   3
  -5  -3   2  545.25    9.52   1
   4   3  -2   99.43    2.07   4
  -4  -3   2   99.65    2.46   1
   4   3  -2   99.10    2.43   3
  -4   3   2   96.10    2.37   1
  -4  -3   2  100.74    2.07   2
   4  -3  -2   96.86    2.38   2
   3   3  -2   73.79    1.83   3
  -3  -3   2   71.80    1.86   1
  -3  -3   2   72.88    1.60   4
   3  -3  -2   76.47    1.83   2
  -3  -3   2   70.97    1.50   2
   3  -3  -2   74.88    1.86   3
  -3   3   2   77.22    1.86   1
  -2  -3   2  634.50   10.12   1
   2   3  -2  639.14    9.74   2
   2  -3  -2  626.91   10.07   3
   2  -3  -2  629.40   10.00   2
  -2   3   2  639.31   10.15   1
   2   3  -2  634.66   10.12   3
  -2  -3   2  632.99    9.65   4
  -1  -3   2   31.76    0.89   1
   1   3  -2   31.06    0.71   2
  -1   3   2   31.86    0.77   4
  -1  -3   2   30.61    0.90   4
  -1   3   2   30.74    0.93   1
   1   3  -2   30.83    0.86   3
  -1   3   2   31.70    0.76   5
   1  -3  -2   31.54    0.80   3
   0   3   2  232.99    3.82   4
   0  -3  -2  227.16    3.90   1
   0   3  -2  232.91    3.84   2
   0  -3   2  232.19    3.71   1
   0   3  -2  225.43    3.92   3
   0  -3  -2  224.22    3.90   2
   0  -3   2  234.33    3.88   4
   1  -3   2  131.42    2.55   4
   1  -3   2  130.33    2.51   3
   1   3   2  130.79    2.56   4
   1   3   2  127.20    2.20   3
  -1  -3  -2  130.02    2.55   2
  -1   3  -2  133.99    2.56   2
  -1  -3  -2  127.91    2.45   1
   2  -3   2  125.26    2.62   4
  -2  -3  -2  124.30    2.64   2
   2   3   2  125.42    2.70   4
   2  -3   2  129.83    2.62   3
  -2   3  -2  124.15    2.67   2
  -2  -3  -2  124.81    2.48   1
   2   3   2  126.22    2.36   3
  -3   3  -2   65.74    1.95   2
   3   3   2   67.72    1.97   4
   3   3   2   65.85    1.66   3
  -3  -3  -2   67.93    1.72   1
   3  -3   2   65.43    1.85   3
  -3  -3  -2   67.49    1.92   2
   3  -3   2   66.53    1.90   4
  -4  -3  -2   20.54    1.24   2
  -4   3  -2   16.96    1.27   2
   4   3   2   16.86    1.02   3
   4   3   2   17.77    1.24   4
   4  -3   2   19.44    1.15   3
   4  -3   2   17.34    1.16   4
  -5   3  -2   87.00    2.72   2
   5  -3   2   87.36    2.52   4
   5  -3   2   88.13    2.61   3
  -5  -3  -2   91.01    2.68   2
   5   3   2   86.82    2.70   4
  -6   3  -2   30.38    1.83   2
   6   3   2   29.39    1.87   4
   6  -3   2   29.48    1.71   3
  -6  -3  -2   34.94    1.90   2
  -7  -4   2   21.92    1.50   1
  -7   4   2   19.87    1.47   2
   7   4  -2   19.65    1.52   3
   7  -4  -2   19.24    1.50   3
  -6  -4   2  213.71    4.77   1
   6  -4  -2  212.73    4.88   3
  -6   4   2  236.69    4.74   1
  -6   4   2  228.62    4.73   2
   6   4  -2  213.46    4.80   3
   5   4  -2  318.38    6.09   3
  -5  -4   2  320.09    6.13   1
  -5  -4   2  320.69    5.54   2
   5  -4  -2  323.80    6.21   3
  -5   4   2  322.47    5.98   1
   5   4  -2  321.92    5.52   4
   4  -4  -2    4.38    0.62   2
  -4  -4   2    2.94    0.63   1
   4   4  -2    5.11    0.64   3
  -4  -4   2    3.41    0.43   2
   4   4  -2    4.23    0.50   4
  -4   4   2    3.92    0.64   1
   4  -4  -2    3.03    0.60   3
  -3  -4   2   68.42    1.85   1
  -3   4   2   72.16    1.82   1
   3   4  -2   74.58    1.83   3
   3  -4  -2   71.55    1.83   2
  -3  -4   2   72.73    1.64   4
  -3  -4   2   70.97    1.41   2
  -2  -4   2  323.65    5.52   1
   2  -4  -2  322.99    5.49   2
   2   4  -2  327.90    5.51   3
   2  -4  -2  322.80    5.46   3
  -2  -4   2  325.45    5.26   4
  -2   4   2  332.12    5.56   1
  -1   4   2    0.20    0.19   5
   1   4  -2    0.51    0.22   3
  -1  -4   2    0.19    0.24   1
  -1   4   2    0.00    0.23   1
  -1  -4   2    0.16    0.24   4
  -1   4   2    0.28    0.21   4
   1   4  -2    0.19    0.14   2
   1  -4  -2    0.35    0.21   2
   1  -4  -2   -0.02    0.18   3
   0   4   2 1133.51   17.14   4
   0  -4  -2 1136.96   17.79   1
   0  -4   2 1171.26   17.22   4
   0  -4  -2 1156.36   17.61   2
   0   4  -2 1133.37   17.51   2
   0  -4   2 1177.05   17.86   3
   0  -4   2 1143.98   17.68   1
   1  -4   2  692.70   10.56   4
   1   4   2  677.04   10.55   4
  -1   4  -2  675.47   10.73   2
   1  -4   2  683.63   10.87   3
  -1  -4  -2  668.97   10.74   2
  -1  -4  -2  686.51   10.80   1
   2   4   2  148.60    2.71   3
  -2  -4  -2  146.75    3.02   2
  -2   4  -2  153.85    3.11   2
   2  -4   2  164.01    3.10   3
   2  -4   2  146.68    2.99   4
  -2  -4  -2  153.50    2.95   1
   2   4   2  147.09    3.08   4
  -3   4  -2  107.56    2.60   2
   3   4   2  105.27    2.61   4
   3  -4   2  104.68    2.51   3
  -3  -4  -2  103.44    2.50   2
  -3  -4  -2  106.44    2.38   1
   3  -4   2  100.89    2.44   4
   3   4   2  102.48    2.21   3
  -4  -4  -2  115.33    2.68   1
  -4   4  -2  116.30    2.99   2
   4   4   2  113.19    2.92   4
   4  -4   2  111.27    2.74   4
   4  -4   2  112.74    2.86   3
  -4  -4  -2  111.93    2.83   2
   5  -4   2  114.45    2.92   4
  -5  -4  -2  112.26    3.04   2
  -5   4  -2  110.51    3.16   2
   5  -4   2  108.55    3.03   3
   5   4   2  115.58    3.15   4
   6   4   2    0.66    0.95   4
   6  -4   2    0.92    0.80   3
  -6  -4  -2   -0.71    0.78   2
  -6   4  -2    0.08    0.84   2
  -7  -5   2  170.12    4.27   1
  -7   5   2  168.96    4.19   2
   7  -5  -2  174.21    4.42   3
   7   5  -2  177.45    4.39   3
  -6  -5   2   32.84    1.68   1
   6   5  -2   34.43    1.63   3
  -6   5   2   36.70    1.62   1
   6  -5  -2   31.72    1.69   3
  -6   5   2   36.83    1.67   2
  -5   5   2   -0.04    0.52   2
   5   5  -2    0.53    0.46   4
  -5   5   2    0.39    0.56   1
  -5  -5   2   -1.19    0.54   1
   5  -5  -2   -0.30    0.55   3
   5   5  -2    0.28    0.50   3
   4   5  -2    5.02    0.64   3
  -4  -5   2    5.31    0.46   2
   4  -5  -2    4.77    0.67   3
   4   5  -2    4.59    0.53   4
  -4   5   2    5.31    0.69   1
  -4  -5   2    4.38    0.70   1
   4  -5  -2    4.81    0.65   2
   3   5  -2  108.41    2.37   3
  -3   5   2  109.19    2.39   1
  -3  -5   2  104.54    2.42   1
  -3  -5   2  106.36    2.22   4
   3  -5  -2  102.12    2.39   2
  -2  -5   2 1370.83   21.31   1
   2   5  -2 1376.44   21.33   3
   2  -5  -2 1390.26   21.27   3
  -2  -5   2 1378.84   20.50   4
  -2   5   2 1389.85   21.36   1
   2  -5  -2 1344.43   21.11   2
   1   5  -2   31.88    0.72   2
  -1   5   2   31.03    0.81   5
  -1   5   2   31.85    1.01   1
  -1   5   2   31.67    0.86   4
  -1  -5   2   31.36    0.98   4
   1   5  -2   32.71    0.97   3
  -1  -5   2   34.46    0.95   1
   1  -5  -2   33.13    1.00   2
   1  -5  -2   32.43    0.83   3
   0  -5  -2 1270.83   19.74   1
   0   5   2 1279.75   18.98   4
   0  -5   2 1285.86   19.06   4
   0  -5  -2 1276.47   19.49   2
   0   5  -2 1289.13   19.38   2
   0  -5   2 1270.20   19.55   1
   0  -5   2 1254.37   19.77   3
  -1  -5  -2 1749.01   26.69   2
   1   5   2 1756.76   26.09   4
  -1  -5  -2 1758.94   27.00   1
  -1   5  -2 1766.77   26.69   2
   1  -5   2 1753.66   27.09   3
   1  -5   2 1746.80   26.07   4
   2  -5   2  308.98    5.41   4
  -2  -5  -2  314.95    5.47   1
   2   5   2  317.92    5.52   4
  -2   5  -2  315.22    5.56   2
   2  -5   2  322.31    5.59   3
   2   5   2  308.28    5.12   3
  -2  -5  -2  312.35    5.49   2
  -3  -5  -2  158.82    3.37   2
   3   5   2  159.75    3.48   4
   3  -5   2  164.66    3.48   3
   3  -5   2  158.91    3.32   4
  -3   5  -2  159.46    3.49   2
  -3  -5  -2  158.90    3.28   1
  -4  -5  -2  105.74    2.58   1
   4  -5   2  104.99    2.62   4
   4   5   2   93.60    2.70   4
  -4   5  -2   97.83    2.78   2
   4  -5   2  102.11    2.70   3
  -4  -5  -2  101.60    2.66   2
   5   5   2    5.50    0.97   4
  -5  -5  -2    6.39    0.93   2
   5  -5   2    6.19    0.88   4
   5  -5   2    5.46    0.87   3
  -5   5  -2    5.99    0.98   2
  -6  -5  -2  122.85    3.46   2
   6  -5   2  119.82    3.52   3
  -6   5  -2  121.60    3.63   2
   6   5   2  121.90    3.57   4
  -7   6   2   70.38    2.56   2
  -7  -6   2   78.66    2.69   1
   7  -6  -2   73.29    2.70   3
   7   6  -2   75.03    2.66   3
  -6  -6   2   26.93    1.53   1
   6  -6  -2   26.52    1.54   3
   6   6  -2   27.26    1.49   3
  -6   6   2   26.70    1.50   2
  -5  -6   2   36.24    1.61   1
  -5   6   2   38.57    1.53   1
   5   6  -2   37.70    1.54   3
   5   6  -2   38.44    1.38   4
   5  -6  -2   37.78    1.66   3
  -5   6   2   40.55    1.63   2
   4   6  -2  206.21    4.10   3
   4  -6  -2  204.36    4.15   2
  -4  -6   2  206.07    4.18   1
   4  -6  -2  207.91    4.18   3
  -4  -6   2  203.76    3.48   2
   4   6  -2  204.18    3.83   4
  -4   6   2  198.80    4.02   1
  -3   6   2  189.33    3.66   1
  -3  -6   2  187.16    3.49   4
  -3  -6   2  186.56    3.70   1
   3  -6  -2  184.88    3.64   3
   3  -6  -2  189.62    3.73   2
   3   6  -2  187.87    3.63   3
   2  -6  -2  936.90   14.71   3
  -2   6   2  954.02   14.84   1
   2   6  -2  933.39   14.81   3
   2  -6  -2  934.04   14.71   2
  -2  -6   2  942.33   14.80   1
  -2  -6   2  927.18   14.25   4
  -1   6   2   55.52    1.24   4
   1  -6  -2   57.92    1.47   1
   1  -6  -2   56.65    1.22   3
   1  -6  -2   57.89    1.44   2
  -1  -6   2   55.43    1.33   1
   1   6  -2   56.94    1.41   3
   0  -6  -2 1622.00   24.33   2
   0   6  -2 1608.25   24.19   2
   0  -6   2 1593.01   24.43   1
   0   6   2 1591.85   23.69   4
   0  -6   2 1587.52   24.70   3
   0  -6  -2 1579.80   24.66   1
   0  -6   2 1609.62   23.79   4
  -1   6  -2 1963.01   28.94   2
   1  -6   2 1917.81   29.39   3
  -1  -6  -2 1918.14   28.92   2
   1   6   2 1930.93   28.30   4
   1  -6   2 1877.49   28.26   4
  -1  -6  -2 1820.03   29.27   1
   2  -6   2  125.09    2.68   4
   2  -6   2  124.54    2.74   3
  -2   6  -2  121.82    2.73   2
  -2  -6  -2  127.07    2.68   1
  -2  -6  -2  125.99    2.68   2
   2   6   2  129.36    2.81   4
   2   6   2  128.42    2.26   3
   3  -6   2 1443.47   22.80   3
  -3   6  -2 1427.88   22.54   2
  -3  -6  -2 1447.44   22.59   1
   3  -6   2 1438.13   21.87   4
  -3  -6  -2 1416.95   22.36   2
   3   6   2 1457.79   22.08   4
  -4  -6  -2   76.42    2.22   1
   4  -6   2   74.48    2.18   4
   4  -6   2   78.27    2.38   3
  -4  -6  -2   80.13    2.30   2
  -4   6  -2   77.73    2.46   2
   4   6   2   76.09    2.40   4
  -5   6  -2   15.47    1.29   2
   5  -6   2   13.26    1.18   3
   5  -6   2   15.04    1.20   4
   5   6   2   14.16    1.29   4
  -5  -6  -2   14.19    1.14   2
  -6   6  -2   11.82    1.36   2
   6  -6   2   13.35    1.34   3
  -6  -6  -2   13.69    1.33   2
   6   6   2   13.37    1.49   4
  -7  -7   2   27.49    1.67   1
   7  -7  -2   26.59    1.73   3
   7   7  -2   25.83    1.70   3
  -7   7   2   25.52    1.66   2
   6   7  -2   53.64    2.04   3
   6  -7  -2   54.18    2.11   3
  -6   7   2   49.23    1.99   2
  -6  -7   2   53.12    2.06   1
  -5   7   2   56.31    1.87   1
  -5   7   2   60.56    2.02   2
  -5  -7   2   56.20    1.98   1
   5   7  -2   56.37    1.93   3
   5   7  -2   59.76    1.81   4
   5  -7  -2   60.76    2.07   3
  -4  -7   2   91.23    2.43   1
   4   7  -2   87.79    2.16   4
   4  -7  -2   90.81    2.42   2
  -4   7   2   87.66    2.27   1
   4   7  -2   87.37    2.29   3
   4  -7  -2   90.86    2.38   3
   3  -7  -2  158.21    3.33   2
  -3  -7   2  158.25    3.29   1
   3  -7  -2  158.94    3.22   3
   3   7  -2  157.53    3.20   3
  -3   7   2  157.83    3.23   1
  -3  -7   2  157.50    3.12   4
   2  -7  -2  469.93    7.88   2
  -2  -7   2  474.29    7.65   4
  -2   7   2  476.15    7.21   4
  -2   7   2  478.90    6.40   5
   2  -7  -2  469.98    7.76   3
   2   7  -2  477.28    7.89   3
  -2   7   2  479.07    7.91   1
  -2  -7   2  467.92    7.87   1
   1  -7  -2 1009.91   15.33   3
   1  -7  -2 1000.63   15.62   1
   1  -7  -2  990.06   15.43   2
   1   7  -2  978.09   15.59   3
  -1  -7   2  991.87   15.09   4
  -1  -7   2  978.09   15.44   1
  -1   7   2  986.35   14.82   4
   0   7   2   87.79    1.92   4
   0  -7  -2   88.36    2.00   1
   0   7  -2   88.81    1.79   2
   0  -7  -2   90.43    1.96   2
   0  -7   2   89.99    1.71   1
   0  -7   2   90.90    2.01   3
   1  -7   2  447.89    7.16   4
  -1  -7  -2  438.00    7.34   1
   1   7   2  432.38    7.17   4
  -1  -7  -2  423.11    7.18   2
   1  -7   2  439.32    7.38   3
  -1   7  -2  440.56    7.19   2
  -2   7  -2  105.94    2.49   2
  -2  -7  -2  108.75    2.45   1
  -2  -7  -2  109.97    2.41   2
   2  -7   2  104.31    2.48   3
   2   7   2  106.51    2.56   4
   2  -7   2  107.04    2.43   4
  -3  -7  -2   22.52    1.27   2
  -3  -7  -2   23.45    1.27   1
  -3   7  -2   21.82    1.38   2
   3   7   2   17.68    1.40   4
   3  -7   2   20.64    1.25   3
   3  -7   2   18.73    1.19   4
  -4  -7  -2   62.51    2.00   1
  -4  -7  -2   63.63    2.04   2
   4  -7   2   59.35    1.93   4
   4   7   2   59.22    2.09   4
  -4   7  -2   55.14    2.10   2
   4  -7   2   60.90    2.08   3
  -5   7  -2   -1.14    0.72   2
   5   7   2    0.16    0.79   4
   5  -7   2    0.13    0.66   3
  -5  -7  -2    1.03    0.69   2
  -6   7  -2   45.64    2.30   2
   6   7   2   43.57    2.24   4
   6  -7   2   46.27    2.17   3
  -7  -8   2  107.23    3.27   1
   7  -8  -2  106.18    3.34   3
  -7   8   2  101.72    3.19   2
   7   8  -2  105.37    3.24   3
  -6   8   2  116.83    3.22   2
   6  -8  -2  117.10    3.31   3
   6   8  -2  118.20    3.20   3
  -6  -8   2  117.45    3.26   1
   6   8  -2  123.37    3.02   4
  -5   8   2   60.73    2.09   2
  -5   8   2   58.55    1.91   1
   5  -8  -2   59.81    2.07   3
   5   8  -2   62.50    1.91   4
   5   8  -2   61.17    2.01   3
  -5  -8   2   59.68    2.07   1
   4  -8  -2   53.55    1.85   2
  -4   8   2   53.63    1.70   1
  -4  -8   2   51.19    1.81   1
   4  -8  -2   52.20    1.76   3
   4   8  -2   51.85    1.69   3
   4   8  -2   50.42    1.60   4
   3  -8  -2   71.59    1.89   3
   3   8  -2   72.34    1.90   3
   3  -8  -2   70.46    2.00   2
  -3  -8   2   71.47    1.97   1
  -3  -8   2   72.33    1.89   4
  -3   8   2   70.33    1.91   1
  -2   8   2  151.37    3.15   1
  -2  -8   2  158.15    3.12   4
  -2   8   2  163.80    2.72   4
  -2  -8   2  159.25    3.15   1
   2  -8  -2  158.85    3.21   2
   2  -8  -2  158.86    3.03   3
   2   8  -2  161.13    3.15   3
  -2   8   2  151.35    2.55   5
   1   8  -2  452.17    7.62   3
  -1   8   2  448.22    7.17   4
   1  -8  -2  465.81    7.31   3
   1  -8  -2  460.27    7.66   1
  -1  -8   2  457.07    7.48   1
   1  -8  -2  458.21    7.57   2
  -1  -8   2  455.64    7.45   4
   0  -8   2   29.59    0.85   1
   0   8  -2   32.71    0.94   2
   0   8  -2   28.99    1.06   3
   0  -8  -2   28.36    1.09   1
   0  -8  -2   29.20    1.04   2
   0  -8   2   27.76    1.07   4
   0   8   2   31.07    1.07   4
  -1  -8  -2    1.94    0.44   1
   1  -8   2    1.50    0.43   3
   1   8   2    0.85    0.46   4
  -1  -8  -2    1.29    0.36   2
  -1   8  -2    1.52    0.43   2
   1  -8   2    1.12    0.43   4
  -2  -8  -2  148.79    3.20   1
   2   8   2  150.40    3.29   4
  -2  -8  -2  149.38    3.07   2
  -2   8  -2  150.19    3.23   2
   2  -8   2  159.29    3.29   3
   2  -8   2  150.32    3.12   4
   3  -8   2  457.05    8.22   3
  -3  -8  -2  471.09    8.12   1
  -3  -8  -2  466.72    7.95   2
   3   8   2  471.01    8.10   4
   3  -8   2  459.59    7.82   4
  -3   8  -2  459.78    8.16   2
  -4  -8  -2  111.88    2.82   2
   4  -8   2  109.20    2.72   4
   4   8   2  109.42    3.00   4
  -4  -8  -2  112.58    2.86   1
   4  -8   2  106.58    2.93   3
  -4   8  -2  109.15    2.99   2
  -5   8  -2   13.49    1.33   2
   5  -8   2   13.37    1.21   3
   5   8   2   12.47    1.29   4
  -5  -8  -2   12.94    1.11   2
   6   8   2    3.37    1.14   4
  -6   8  -2    2.26    1.04   2
   6  -8   2    3.87    1.03   3
  -7  -9   2    5.64    1.09   1
   7  -9  -2    5.76    1.07   3
  -7   9   2    5.38    1.08   2
   6   9  -2   10.83    1.04   4
  -6  -9   2   11.00    1.11   1
  -6   9   2    8.89    1.07   2
   6   9  -2   10.54    1.08   3
   6  -9  -2    9.30    1.09   3
  -5  -9   2   40.55    1.72   1
  -5   9   2   42.51    1.81   2
  -5   9   2   40.64    1.63   1
   5   9  -2   42.52    1.66   3
   5   9  -2   40.50    1.59   4
   5  -9  -2   40.98    1.73   3
   4   9  -2   16.54    1.05   3
   4   9  -2   17.89    1.05   4
   4  -9  -2   18.33    1.23   2
  -4  -9   2   16.87    1.15   1
  -4   9   2   18.92    1.13   1
   4  -9  -2   17.57    1.13   3
  -3   9   2    6.57    0.69   1
   3  -9  -2    5.71    0.69   2
   3   9  -2    7.22    0.67   3
  -3  -9   2    6.71    0.66   4
  -3  -9   2    6.31    0.72   1
   3  -9  -2    6.40    0.64   3
  -2   9   2   53.22    1.56   1
   2   9  -2   49.44    1.47   3
  -2  -9   2   50.58    1.55   4
  -2   9   2   49.96    1.24   5
   2  -9  -2   51.77    1.41   3
   2  -9  -2   50.90    1.58   2
  -2   9   2   50.38    1.22   4
   1  -9  -2  424.90    6.83   3
  -1  -9   2  425.06    7.02   1
   1  -9  -2  427.04    7.20   1
  -1   9   2  422.81    6.75   4
  -1  -9   2  415.56    7.00   4
   1   9  -2  419.05    7.15   3
   1  -9  -2  418.66    7.10   2
   0  -9   2  713.62   11.10   1
   0   9  -2  705.08   11.49   3
   0   9   2  705.79   11.02   4
   0   9  -2  708.54   11.02   2
   0  -9  -2  715.13   11.26   2
   0  -9  -2  697.62   11.46   1
   0  -9   2  695.60   11.11   4
   1  -9   2   47.01    1.50   4
  -1  -9  -2   47.71    1.40   2
   1   9   2   49.46    1.55   4
  -1   9  -2   46.47    1.41   2
  -1  -9  -2   46.57    1.51   1
   1  -9   2   48.17    1.51   3
   2  -9   2   18.99    1.16   4
  -2   9  -2   15.65    1.21   2
  -2  -9  -2   20.28    1.18   1
  -2  -9  -2   20.70    1.09   2
   2  -9   2   20.64    1.16   3
   2   9   2   17.28    1.31   4
   3   9   2  101.65    2.76   4
   3  -9   2  100.54    2.68   3
  -3  -9  -2  102.62    2.50   2
   3  -9   2  102.58    2.51   4
  -3  -9  -2   99.81    2.61   1
   4  -9   2    0.78    0.58   4
  -4   9  -2    2.92    0.77   2
   4  -9   2    1.62    0.65   3
  -4  -9  -2    1.50    0.64   1
   4   9   2    1.65    0.76   4
  -4  -9  -2    0.92    0.59   2
  -5   9  -2   82.76    2.83   2
  -5  -9  -2   85.97    2.63   1
  -5  -9  -2   88.52    2.63   2
   5  -9   2   79.92    2.71   3
   5   9   2   84.72    2.83   4
   6   9   2    6.97    1.30   4
   6  -9   2    4.59    1.11   3
  -6   9  -2    4.38    1.18   2
  -7 -10   2    7.50    1.19   1
  -7  10   2    6.89    1.19   2
   7 -10  -2    8.54    1.24   3
  -6 -10   2    2.21    0.81   1
  -6  10   2    1.62    0.77   2
   6  10  -2    0.99    0.77   4
   6  10  -2    2.04    0.76   3
   6 -10  -2    1.75    0.74   3
   5  10  -2    6.55    0.83   4
  -5  10   2    9.91    0.96   1
  -5 -10   2    8.19    0.93   1
   5  10  -2    9.38    0.94   3
   5 -10  -2    8.49    0.93   3
  -5  10   2    8.97    1.00   2
   4 -10  -2    0.70    0.51   3
  -4  10   2    0.08    0.52   1
   4  10  -2    0.06    0.48   3
   4  10  -2    0.03    0.48   4
   4 -10  -2   -0.12    0.51   2
  -4 -10   2    0.64    0.53   1
   3 -10  -2   49.31    1.72   2
  -3 -10   2   48.41    1.64   1
  -3 -10   2   50.23    1.66   4
   3  10  -2   52.46    1.64   3
  -3  10   2   50.35    1.64   1
   3 -10  -2   48.91    1.58   3
  -2  10   2   84.95    1.79   4
  -2 -10   2   81.76    2.14   4
  -2  10   2   86.73    1.74   5
  -2 -10   2   82.98    2.09   1
   2 -10  -2   86.75    2.19   2
   2  10  -2   81.21    2.05   3
   2 -10  -2   85.41    1.97   3
  -2  10   2   83.47    2.13   1
  -1 -10   2    7.52    0.58   1
   1 -10  -2    8.52    0.68   1
   1 -10  -2    5.65    0.59   2
   1 -10  -2    6.05    0.45   3
  -1 -10   2    6.33    0.65   4
   1  10  -2    9.14    0.73   3
  -1  10   2    6.15    0.54   4
   0  10   2    3.64    0.52   4
   0 -10  -2    5.35    0.53   2
   0  10  -2    4.40    0.53   3
   0 -10  -2    4.80    0.57   1
   0  10  -2    4.31    0.47   2
   0 -10   2    4.71    0.43   1
   0 -10   2    4.50    0.56   4
   1 -10   2    8.65    0.73   4
   1  10   2    9.04    0.76   4
  -1 -10  -2    8.09    0.63   2
   1 -10   2    9.35    0.59   1
   1 -10   2    8.59    0.71   3
  -1 -10  -2    8.65    0.74   1
  -1  10  -2    8.95    0.69   2
   2  10   2 2921.71   42.84   4
   2 -10   2 2864.38   44.48   3
  -2  10  -2 2867.98   43.77   2
  -2 -10  -2 2829.83   43.60   2
  -2 -10  -2 2905.03   44.39   1
   2 -10   2 2894.00   42.67   4
  -3 -10  -2   24.53    1.29   1
   3  10   2   21.89    1.44   4
   3 -10   2   22.21    1.23   4
   3 -10   2   24.54    1.33   3
  -3 -10  -2   22.15    1.17   2
  -3  10  -2   22.70    1.36   2
  -4  10  -2   68.01    2.35   2
  -4 -10  -2   69.56    2.11   2
  -4 -10  -2   63.97    2.17   1
   4 -10   2   69.27    2.12   4
   4 -10   2   65.85    2.28   3
   4  10   2   64.64    2.35   4
   5  10   2   16.99    1.47   4
  -5  10  -2   14.51    1.38   2
   5 -10   2   18.01    1.41   3
  -5 -10  -2   15.93    1.32   1
  -7 -11   2    6.96    1.22   1
  -7  11   2    7.00    1.21   2
   7 -11  -2    7.72    1.23   3
   6  11  -2    6.58    0.95   4
   6 -11  -2    7.94    1.08   3
  -6  11   2    7.49    1.06   2
   6  11  -2    7.08    0.98   3
  -6 -11   2    6.36    1.01   1
   5 -11  -2   32.34    1.60   3
  -5 -11   2   30.88    1.59   1
  -5  11   2   33.14    1.70   2
   5  11  -2   32.00    1.54   3
   5  11  -2   31.58    1.51   4
   4  11  -2  303.86    5.86   3
   4 -11  -2  321.69    6.12   2
  -4  11   2  314.88    5.88   1
  -4 -11   2  308.44    6.04   1
   3  11  -2  124.32    2.84   3
   3 -11  -2  121.49    2.80   3
  -3 -11   2  120.07    2.88   4
  -3 -11   2  119.70    2.90   1
   3 -11  -2  123.71    3.01   2
  -3  11   2  124.16    2.88   1
  -2 -11   2    7.42    0.72   4
  -2  11   2    7.11    0.69   1
  -2 -11   2    7.22    0.70   1
   2 -11  -2    6.80    0.58   3
   2 -11  -2    8.16    0.74   2
  -2  11   2    7.87    0.59   5
   2  11  -2    7.01    0.65   3
  -2  11   2    7.44    0.57   4
   1 -11  -2 1020.68   16.00   3
   1  11  -2 1038.96   16.41   3
   1 -11  -2 1027.47   16.43   1
  -1  11   2 1012.48   15.64   4
  -1 -11   2 1020.71   15.93   4
   1 -11  -2 1030.14   16.24   2
  -1 -11   2 1038.19   16.24   1
   0 -11   2   45.37    1.55   4
   0  11  -2   45.00    1.48   3
   0  11  -2   45.19    1.28   2
   0 -11  -2   46.43    1.55   1
   0 -11  -2   48.08    1.46   2
   0 -11   2   47.27    1.29   1
   0  11   2   47.35    1.49   4
  -1 -11  -2   56.22    1.62   2
   1 -11   2   54.61    1.32   1
   1 -11   2   52.21    1.68   4
   1 -11   2   55.87    1.74   3
  -1 -11  -2   54.64    1.75   1
  -1  11  -2   55.04    1.61   2
   1  11   2   56.69    1.76   4
  -2 -11  -2   33.96    1.51   1
   2 -11   2   33.15    1.50   3
   2 -11   2   29.32    1.38   4
   2  11   2   33.99    1.56   4
  -2  11  -2   33.08    1.44   2
  -2 -11  -2   34.30    1.36   2
  -3 -11  -2  121.03    2.80   2
  -3 -11  -2  121.22    3.05   1
  -3  11  -2  113.51    3.00   2
   3 -11   2  119.95    3.09   3
   3 -11   2  124.86    2.93   4
  -4 -11  -2   52.43    1.84   2
   4  11   2   56.93    2.20   4
  -4  11  -2   53.13    2.13   2
  -4 -11  -2   49.81    1.95   1
   4 -11   2   53.53    1.89   4
   4 -11   2   52.94    2.07   3
  -5  11  -2   98.85    3.17   2
   5 -11   2  100.50    3.14   3
   5  11   2   98.09    3.16   4
  -5 -11  -2  102.01    3.01   1
  -6  12   2  116.07    3.44   2
   6 -12  -2  117.59    3.44   3
  -6 -12   2  116.90    3.45   1
   6  12  -2  119.89    3.26   4
  -5  12   2    0.72    0.72   2
   5  12  -2    1.31    0.69   4
  -5 -12   2    1.75    0.72   1
   5  12  -2   -0.17    0.60   3
   5 -12  -2    0.66    0.65   3
   4 -12  -2    1.08    0.57   3
  -4  12   2    0.88    0.61   1
   4  12  -2    1.50    0.63   4
   4 -12  -2    1.28    0.66   2
  -4 -12   2    1.90    0.67   1
   4  12  -2    1.38    0.56   3
   3  12  -2   67.86    1.99   3
  -3  12   2   69.32    2.06   1
   3 -12  -2   65.04    1.93   3
   3 -12  -2   68.15    2.17   2
  -3 -12   2   71.13    2.12   1
  -3 -12   2   66.51    2.08   4
  -2 -12   2   22.19    1.12   1
   2 -12  -2   23.37    1.25   2
  -2  12   2   24.38    1.03   4
   2 -12  -2   21.80    1.04   3
  -2  12   2   24.27    1.17   1
   2  12  -2   24.16    1.11   3
  -2 -12   2   23.81    1.24   4
  -2  12   2   24.91    0.97   5
   1 -12  -2   72.83    2.00   2
  -1 -12   2   72.19    2.06   4
   1  12  -2   75.23    1.99   3
  -1  12   2   70.21    1.83   4
   1 -12  -2   75.86    2.07   1
  -1 -12   2   69.52    1.84   1
   1 -12  -2   73.99    1.69   3
   0  12   2  125.95    2.77   4
   0 -12   2  124.51    2.87   4
   0 -12  -2  122.64    2.88   1
   0  12  -2  124.89    2.51   2
   0 -12  -2  122.50    2.74   2
   0  12  -2  122.17    2.82   3
   0 -12   2  128.02    2.56   1
  -1  12  -2   -0.27    0.42   2
   1  12   2    0.38    0.52   4
  -1 -12  -2   -0.19    0.40   2
   1 -12   2    0.17    0.46   3
   1 -12   2    0.14    0.31   1
  -1 -12  -2   -0.32    0.44   1
   1 -12   2   -0.64    0.43   4
   2 -12   2   15.69    1.11   3
  -2 -12  -2   14.39    1.01   2
   2 -12   2   15.99    1.15   4
  -2  12  -2   14.98    1.11   2
   2  12   2   14.51    1.08   4
  -2 -12  -2   15.24    1.13   1
   3 -12   2  262.03    4.96   4
   3 -12   2  244.38    5.20   3
  -3  12  -2  249.94    5.14   2
  -3 -12  -2  243.45    5.16   1
  -3 -12  -2  259.37    4.86   2
   4 -12   2   93.43    2.57   4
  -4 -12  -2   86.59    2.67   1
   4 -12   2   87.18    2.74   3
   4  12   2   81.89    2.75   4
  -4  12  -2   87.05    2.77   2
   5  12   2   50.96    2.37   4
  -5 -12  -2   45.29    2.08   1
   5 -12   2   48.80    2.18   3
  -5  12  -2   50.30    2.30   2
   6  13  -2  134.33    3.60   4
  -6 -13   2  134.80    3.79   1
   6 -13  -2  136.99    3.81   3
  -6  13   2  136.50    3.85   2
   5  13  -2    6.68    0.93   4
   5  13  -2    7.35    0.91   3
  -5  13   2    8.13    1.06   2
  -5 -13   2    8.21    1.03   1
   5 -13  -2    8.69    0.99   3
   4  13  -2   29.71    1.51   4
  -4 -13   2   33.12    1.58   1
   4  13  -2   29.16    1.40   3
   4 -13  -2   27.41    1.60   2
  -4  13   2   31.69    1.48   1
   4 -13  -2   31.49    1.46   3
   3  13  -2  130.05    3.02   3
  -3  13   2  128.27    3.08   1
  -3 -13   2  129.33    3.13   1
   3 -13  -2  129.99    3.01   3
  -2  13   2    0.72    0.42   5
   2  13  -2    0.32    0.44   3
  -2 -13   2    0.08    0.48   1
  -2  13   2   -0.22    0.45   1
   2 -13  -2    0.67    0.41   3
   2 -13  -2    0.17    0.47   2
  -2 -13   2    0.11    0.52   4
  -2  13   2    0.36    0.41   4
   1 -13  -2   45.49    1.63   1
  -1 -13   2   43.93    1.44   1
   1 -13  -2   42.12    1.55   2
   1 -13  -2   43.40    1.25   3
  -1 -13   2   42.28    1.61   4
  -1  13   2   43.61    1.43   4
   1  13  -2   43.30    1.52   3
   0 -13  -2   10.16    0.87   1
   0 -13   2    9.61    0.85   4
   0  13  -2    9.42    0.78   2
   0 -13   2   11.03    0.78   1
   0  13  -2    9.73    0.80   3
   0 -13  -2    8.89    0.75   2
   0  13   2   10.12    0.81   4
   1 -13   2   74.14    2.19   3
  -1 -13  -2   75.63    2.00   2
   1  13   2   73.44    2.17   4
   1 -13   2   75.87    2.18   4
  -1  13  -2   76.83    2.02   2
  -1 -13  -2   77.45    2.23   1
   2  13   2   47.15    1.88   4
  -2 -13  -2   47.98    1.82   1
  -2 -13  -2   49.14    1.60   2
   2 -13   2   48.04    1.75   4
  -2  13  -2   46.72    1.70   2
   2 -13   2   47.75    1.79   3
   3 -13   2    1.07    0.60   3
  -3  13  -2    0.08    0.64   2
   3  13   2   -0.66    0.72   4
   3 -13   2    0.64    0.63   4
  -3 -13  -2    0.75    0.52   2
  -3 -13  -2    0.78    0.62   1
  -4 -13  -2  143.68    3.73   1
   4 -13   2  142.70    3.78   3
  -4  13  -2  149.77    3.82   2
   4  13   2  147.56    3.84   4
   5  13   2    6.58    1.24   4
  -5  13  -2    3.59    1.08   2
  -5 -13  -2    3.57    0.98   1
   5 -13   2    5.24    1.06   3
  -6 -14   2   15.25    1.43   1
   6 -14  -2   15.89    1.44   3
  -6  14   2   14.32    1.47   2
   6  14  -2   14.97    1.42   4
   5 -14  -2   30.83    1.64   3
   5  14  -2   31.15    1.70   4
  -5 -14   2   31.40    1.69   1
  -5  14   2   30.49    1.78   2
  -4  14   2    4.55    0.80   1
   4 -14  -2    2.70    0.80   2
   4  14  -2    4.76    0.87   4
  -4 -14   2    4.00    0.82   1
   4  14  -2    5.55    0.78   3
   4 -14  -2    3.70    0.76   3
   3 -14  -2   37.17    1.51   3
  -3 -14   2   39.32    1.69   4
   3  14  -2   39.03    1.55   3
   3 -14  -2   37.92    1.69   2
  -3  14   2   39.13    1.62   1
  -3 -14   2   38.15    1.65   1
  -2  14   2   25.34    1.28   1
  -2 -14   2   24.85    1.26   1
   2 -14  -2   25.56    1.10   3
  -2  14   2   25.79    1.07   5
   2 -14  -2   26.37    1.38   2
  -2 -14   2   26.00    1.36   4
   2  14  -2   26.82    1.24   3
  -1  14   2    0.04    0.43   4
   1  14  -2    0.51    0.45   3
  -1 -14   2    0.22    0.53   4
   1 -14  -2    0.36    0.47   2
   1 -14  -2    0.41    0.35   3
  -1 -14   2    0.43    0.41   1
   1 -14  -2    0.81    0.53   1
   0  14   2    1.11    0.54   4
   0 -14  -2    1.44    0.53   2
   0 -14   2    1.08    0.45   1
   0 -14  -2    1.81    0.59   1
   0 -14   2    0.84    0.53   4
   0  14  -2    1.42    0.52   3
  -1  14  -2  234.57    4.50   2
   1  14   2  233.50    4.74   4
   1 -14   2  241.40    4.83   3
  -1 -14  -2  237.52    4.85   1
  -1 -14  -2  235.86    4.55   2
   2 -14   2    1.59    0.61   4
  -2 -14  -2    1.23    0.53   2
  -2  14  -2    1.91    0.64   2
  -2 -14  -2    1.95    0.66   1
   2 -14   2    1.98    0.64   3
   2  14   2    1.23    0.70   4
   3  14   2  211.57    4.75   4
   3 -14   2  218.88    4.81   3
  -3 -14  -2  207.07    4.72   1
  -3  14  -2  210.08    4.64   2
   3 -14   2  224.90    4.57   4
   4  14   2   11.87    1.28   4
  -4  14  -2    9.50    1.15   2
   4 -14   2   11.85    1.18   3
  -4 -14  -2   10.85    1.15   1
   5 -14   2   50.18    2.32   3
  -5  14  -2   52.48    2.42   2
   5  14   2   48.87    2.43   4
  -5 -14  -2   51.19    2.27   1
  -6 -15   2   21.55    1.73   1
   6  15  -2   20.59    1.60   4
   6 -15  -2   19.28    1.63   3
  -6  15   2   21.02    1.69   2
   5 -15  -2   44.21    1.97   3
   5  15  -2   40.28    1.95   4
  -5  15   2   46.38    2.12   2
  -5 -15   2   43.63    2.05   1
   4 -15  -2    6.95    0.91   3
   4  15  -2    6.19    0.85   3
   4  15  -2    6.79    0.94   4
  -4 -15   2    6.58    0.95   1
   4 -15  -2    5.76    0.95   2
  -3  15   2  196.34    4.26   1
   3  15  -2  199.39    4.20   3
  -3 -15   2  201.48    4.38   4
   3 -15  -2  198.65    4.15   3
   3 -15  -2  191.53    4.38   2
  -2  15   2   84.37    2.43   1
  -2 -15   2   85.82    2.50   4
  -2 -15   2   84.54    2.37   1
   2 -15  -2   86.08    2.16   3
  -2  15   2   86.79    1.99   5
   2 -15  -2   85.85    2.48   2
   2  15  -2   88.52    2.36   3
  -1 -15   2    0.12    0.53   4
   1 -15  -2    1.60    0.55   2
  -1 -15   2    0.47    0.47   1
  -1  15   2    0.22    0.49   4
   1  15  -2   -0.03    0.45   3
   1 -15  -2    0.87    0.58   1
   0 -15  -2  207.31    4.20   2
   0  15  -2  207.81    4.32   3
   0 -15  -2  204.78    4.39   1
   0  15   2  203.40    4.21   4
   0 -15   2  209.70    4.34   4
   0 -15   2  204.49    3.99   1
   1 -15   2    1.66    0.60   4
   1 -15   2    1.97    0.60   3
  -1 -15  -2    3.07    0.68   1
   1  15   2    1.38    0.66   4
  -1  15  -2    2.12    0.61   2
  -1 -15  -2    3.78    0.63   2
  -2  15  -2    6.76    0.84   2
   2  15   2    7.14    0.95   4
   2 -15   2    6.37    0.86   4
  -2 -15  -2    6.78    0.73   2
   2 -15   2    6.75    0.86   3
  -2 -15  -2    7.03    0.93   1
   3 -15   2   26.14    1.48   4
  -3 -15  -2   24.13    1.50   1
  -3  15  -2   25.12    1.47   2
   3  15   2   22.10    1.56   4
   3 -15   2   26.26    1.53   3
   4  15   2    6.76    1.13   4
  -4 -15  -2    6.82    1.06   1
   4 -15   2    8.11    1.09   3
  -4  15  -2    5.78    1.05   2
   5 -16  -2  113.98    3.34   3
  -5 -16   2  113.94    3.41   1
  -5  16   2  116.26    3.44   2
   5  16  -2  112.60    3.35   4
  -4 -16   2   16.06    1.32   1
   4 -16  -2   17.40    1.38   2
   4 -16  -2   16.88    1.24   3
   4  16  -2   17.36    1.38   4
  -3  16   2    2.38    0.74   1
  -3 -16   2    2.69    0.77   4
  -3 -16   2    3.24    0.76   1
   3  16  -2    4.85    0.81   3
   3 -16  -2    2.66    0.65   3
   3 -16  -2    1.86    0.72   2
  -2  16   2   10.86    0.98   1
  -2  16   2   12.21    0.84   5
   2 -16  -2   11.95    1.04   2
  -2 -16   2   13.33    1.10   4
  -2 -16   2   13.47    1.04   1
   2 -16  -2   10.43    0.83   3
   2  16  -2   12.77    1.02   3
   1 -16  -2   42.69    1.76   1
   1 -16  -2   38.55    1.59   2
   1  16  -2   40.67    1.60   3
  -1  16   2   36.05    1.51   4
  -1 -16   2   43.58    1.59   1
  -1 -16   2   41.55    1.72   4
   0  16  -2   85.63    2.46   3
   0 -16  -2   85.64    2.36   2
   0  16   2   88.16    2.46   4
   0 -16   2   90.23    2.26   1
   0 -16   2   89.68    2.56   4
   1 -16   2    4.16    0.75   3
   1 -16   2    3.68    0.75   4
  -1 -16  -2    3.95    0.67   2
  -1 -16  -2    4.66    0.80   1
   1  16   2    3.61    0.79   4
   2 -16   2    2.88    0.73   3
  -2 -16  -2    3.20    0.80   1
  -2  16  -2    2.94    0.76   2
   2 -16   2    4.27    0.76   4
   2  16   2    4.20    0.83   4
  -3 -16  -2    7.25    1.02   1
   3  16   2    5.59    1.00   4
  -3  16  -2    7.72    1.00   2
   3 -16   2    7.48    1.01   3
   3 -16   2    8.01    1.00   4
   4  16   2    2.74    1.02   4
   4 -16   2    2.53    0.90   3
  -4  16  -2    4.02    1.00   2
  -4 -16  -2    2.54    0.90   1
  -5 -17   2  141.61    3.97   1
  -5  17   2  139.37    3.94   2
   5  17  -2  146.64    3.95   4
   5 -17  -2  142.16    3.83   3
   4 -17  -2   24.09    1.46   3
   4  17  -2   26.90    1.62   4
   4 -17  -2   25.49    1.65   2
  -4 -17   2   28.11    1.64   1
   3  17  -2    9.90    0.98   3
  -3  17   2    7.93    0.97   1
   3 -17  -2    9.49    1.06   2
  -3 -17   2    8.49    1.03   4
   3 -17  -2    9.44    0.90   3
  -3 -17   2    9.23    1.03   1
   2  17  -2    4.61    0.74   3
   2 -17  -2    4.59    0.81   2
  -2  17   2    5.68    0.69   5
  -2  17   2    4.37    0.79   1
  -2 -17   2    4.77    0.78   1
   2 -17  -2    5.51    0.71   3
  -2 -17   2    5.29    0.86   4
   1  17  -2    0.69    0.54   3
  -1 -17   2    0.57    0.61   4
  -1  17   2    0.90    0.61   4
   1 -17  -2    0.83    0.66   1
   1 -17  -2    0.97    0.62   2
  -1 -17   2    0.38    0.56   1
   0 -17   2   15.72    1.08   1
   0  17   2   13.45    1.10   4
   0 -17  -2   15.01    1.26   1
   0 -17  -2   14.22    1.15   2
   0  17  -2   13.83    1.09   3
   0 -17   2   15.55    1.21   4
  -1 -17  -2   39.93    1.79   1
   1 -17   2   40.88    1.73   4
  -1  17  -2   42.74    1.76   3
   1  17   2   39.21    1.79   4
  -1 -17  -2   41.44    1.66   2
   2 -17   2    0.56    0.65   4
   2  17   2   -0.12    0.68   4
   2 -17   2    0.31    0.65   3
  -2 -17  -2   -0.24    0.63   1
  -2  17  -2   -0.59    0.63   2
   3  17   2   14.89    1.35   4
  -3 -17  -2   14.46    1.32   1
  -3  17  -2   15.21    1.27   2
   3 -17   2   15.13    1.29   3
   3 -17   2   15.63    1.26   4
   4  17   2    0.06    0.91   4
  -4  17  -2   -0.28    0.87   2
  -4 -17  -2   -0.35    0.81   1
   4 -17   2    0.65    0.79   3
  -5 -18   2   -0.67    0.84   1
  -5  18   2   -0.56    0.87   2
   5  18  -2   -0.41    0.93   4
   5 -18  -2   -0.76    0.78   3
   4  18  -2   54.63    2.30   4
   4 -18  -2   53.77    2.09   3
  -4 -18   2   55.17    2.26   1
   4 -18  -2   54.69    2.32   2
   3  18  -2    0.05    0.70   4
   3 -18  -2   -0.35    0.54   3
   3 -18  -2   -0.32    0.68   2
  -3 -18   2    0.32    0.70   1
  -3  18   2   -0.26    0.63   1
  -2 -18   2  112.81    3.15   4
   2 -18  -2  112.58    3.09   2
  -2  18   2  106.90    2.44   5
   2  18  -2  107.01    2.86   3
  -2 -18   2  108.52    2.97   1
  -2  18   2  107.29    3.01   1
   1 -18  -2   40.09    1.85   1
   1  18  -2   41.25    1.72   3
  -1  18   2   42.28    1.71   4
  -1 -18   2   40.41    1.82   4
   1 -18  -2   42.81    1.79   2
  -1 -18   2   40.86    1.70   1
   0 -18  -2    1.04    0.70   1
   0  18   2    0.56    0.69   4
   0  18  -2    1.33    0.63   3
   0 -18   2    0.88    0.67   4
   0 -18  -2    0.79    0.61   2
  -1 -18  -2   42.04    1.85   1
   1  18   2   43.90    1.93   4
  -1  18  -2   41.58    1.79   3
   1 -18   2   42.97    1.85   4
  -2 -18  -2   51.36    2.12   1
   2 -18   2   50.91    2.07   3
   2  18   2   50.66    2.14   4
   2 -18   2   51.48    2.02   4
  -3  18  -2   27.86    1.66   2
   3 -18   2   28.02    1.69   3
   3  18   2   31.31    1.87   4
  -3 -18  -2   30.84    1.80   1
   4 -19  -2  139.75    3.63   3
   4 -19  -2  137.54    3.89   2
   4  19  -2  138.93    3.89   4
  -4 -19   2  137.50    3.83   1
  -3 -19   2    0.17    0.74   1
   3  19  -2    1.10    0.75   4
   3 -19  -2    0.18    0.71   2
  -2  19   2   12.14    1.12   1
   2  19  -2   10.40    1.01   3
   2 -19  -2   12.20    1.16   2
  -2 -19   2   13.16    1.24   4
  -2  19   2   11.15    0.92   5
  -2 -19   2   12.98    1.16   1
  -1 -19   2  101.27    2.73   1
   1 -19  -2   94.71    2.77   2
  -1  19   2   90.13    2.66   4
  -1 -19   2   93.05    2.87   4
   1 -19  -2   97.69    2.92   1
   1  19  -2   94.27    2.76   3
   0  19  -2    7.35    0.94   3
   0 -19  -2    5.29    0.97   1
   0  19   2    7.93    1.04   4
   0 -19   2    6.61    0.96   4
   0 -19  -2    7.37    0.89   2
   1 -19   2    5.59    0.90   4
   1  19   2    2.99    0.94   4
  -1 -19  -2    5.70    0.93   1
  -1  19  -2    4.49    0.83   3
   2 -19   2   15.32    1.26   4
   2 -19   2   16.96    1.39   3
  -2 -19  -2   14.52    1.31   1
   2  19   2   17.51    1.43   4
   3  19   2   20.75    1.64   4
   3 -19   2   19.11    1.52   3
  -3 -19  -2   19.79    1.57   1
  -4  20   2   51.20    2.29   2
   4 -20  -2   53.17    2.21   3
  -4 -20   2   51.29    2.34   1
   4  20  -2   50.18    2.40   4
   3 -20  -2    1.12    0.86   2
   3  20  -2    0.80    0.85   4
  -3 -20   2    2.25    0.87   1
  -2 -20   2   30.53    1.78   4
  -2 -20   2   30.24    1.70   1
  -2  20   2   28.17    1.32   5
  -2  20   2   28.77    1.63   1
   2 -20  -2   31.41    1.68   2
   1 -20  -2  119.88    3.20   2
   1 -20  -2  115.49    3.31   1
  -1 -20   2  117.17    3.12   1
   1  20  -2  113.56    3.14   3
  -1 -20   2  107.37    3.25   4
   0  20   2   20.35    1.51   4
   0 -20  -2   21.58    1.56   1
   0 -20   2   19.60    1.45   4
   0  20  -2   20.04    1.38   3
   1 -20   2  180.98    4.34   4
  -1  20  -2  179.01    4.35   3
   1  20   2  177.56    4.38   4
  -1 -20  -2  176.04    4.44   1
  -2 -20  -2   57.61    2.39   1
   2 -20   2   56.28    2.27   4
   2  20   2   56.43    2.43   4
  -2  20  -2   59.11    2.38   3
  -3 -20  -2    0.07    0.83   1
   3  20   2    0.36    0.92   4
   3 -20   2   -0.11    0.78   3
   3  21  -2    5.29    1.10   4
   3 -21  -2    3.68    1.00   2
  -3 -21   2    4.10    1.03   1
  -2 -21   2    5.65    1.07   4
  -2  21   2    6.58    0.86   5
  -2  21   2    6.80    1.05   1
   2 -21  -2    6.76    1.04   2
  -2 -21   2    4.95    0.97   1
  -1 -21   2   15.92    1.27   1
  -1 -21   2   15.54    1.39   4
   1 -21  -2   15.44    1.28   2
   1 -21  -2   15.32    1.39   1
   1  21  -2   13.87    1.22   3
   0 -21  -2   38.32    1.97   1
   0  21  -2   38.19    1.85   3
   0  21   2   37.98    1.96   4
   0 -21   2   38.58    1.94   4
   1  21   2   29.55    1.85   4
   1 -21   2   25.33    1.67   4
  -1 -21  -2   28.15    1.77   1
  -1  21  -2   28.98    1.70   3
   2 -21   2   84.49    2.85   4
  -2  21  -2   83.50    2.92   3
   2  21   2   86.12    3.06   4
  -2 -21  -2   81.95    2.93   1
  -2 -22   2    3.03    1.00   4
  -2  22   2    4.07    0.83   5
   2 -22  -2    2.71    0.97   2
  -2  22   2    6.69    1.10   1
  -2 -22   2    4.41    1.02   1
   1 -22  -2   -0.62    0.84   1
  -1 -22   2    0.61    0.85   4
   0 -22   2  196.16    4.88   4
   0 -22  -2  212.41    5.07   1
   0  22  -2  211.00    4.91   3
   1  22   2   80.99    2.93   4
  -1  22  -2   83.08    2.84   3
   1 -22   2   79.88    2.82   4
  -1 -22  -2   76.42    2.86   1
  -1 -23   2    1.07    0.98   4
   1 -23  -2    1.36    1.00   1
   0 -23   2    7.81    1.23   4
   0  23   2    6.42    1.14   4
   0 -23  -2    6.77    1.21   1
   8   0  -3    0.67    0.91   3
  -7   0   3   16.98    1.36   1
   7   0  -3   16.97    1.43   3
  -6   0   3    0.32    0.67   1
   6   0  -3    0.24    0.65   3
  -6   0   3   -0.66    0.57   2
  -5   0   3  146.15    3.19   2
   5   0  -3  156.09    3.58   3
  -5   0   3  146.35    3.47   1
  -4   0   3    0.76    0.56   1
   4   0  -3    0.54    0.40   2
   4   0  -3   -0.31    0.43   3
  -3   0   3   93.80    2.21   1
   3   0  -3   92.98    1.99   2
   3   0  -3   92.37    2.15   3
  -3   0   3   93.59    1.72   4
   2   0  -3    0.33    0.24   2
   2   0  -3   -0.14    0.25   3
  -2   0   3    0.26    0.35   1
  -2   0   3    0.05    0.23   4
   1   0  -3  418.77    6.81   2
  -1   0   3  427.70    6.68   4
  -1   0   3  431.34    6.91   1
   1   0  -3  414.16    6.82   3
   0   0  -3    0.05    0.25   2
   0   0   3   -0.12    0.33   4
   0   0   3    0.25    0.23   1
   0   0  -3   -0.01    0.19   3
  -1   0  -3  145.09    2.57   1
   1   0   3  143.57    2.66   3
   1   0   3  139.19    2.92   4
  -1   0  -3  144.22    2.93   2
   2   0   3    0.94    0.34   3
  -2   0  -3   -0.19    0.44   2
   2   0   3   -0.43    0.52   4
  -2   0  -3    0.55    0.29   1
   3   0   3   36.38    1.30   3
  -3   0  -3   34.26    1.54   2
   3   0   3   35.05    1.57   4
   4   0   3    0.28    0.69   4
  -4   0  -3   -0.03    0.63   2
  -5   0  -3  191.75    4.61   2
   6   0   3    0.23    1.00   4
  -6   0  -3   -1.21    0.89   2
   8  -1  -3   13.00    1.46   3
  -8  -1   3   13.26    1.38   1
   8   1  -3   14.30    1.49   3
  -7  -1   3   18.07    1.43   1
   7   1  -3   17.15    1.44   3
  -7   1   3   16.91    1.32   2
   7  -1  -3   18.07    1.45   3
  -7   1   3   17.95    1.43   1
  -6   1   3   45.72    1.77   2
  -6  -1   3   43.35    1.68   2
  -6   1   3   42.67    1.91   1
  -6  -1   3   43.74    1.87   1
   6  -1  -3   43.32    1.88   3
   6   1  -3   45.21    1.89   3
   5   1  -3  866.93   14.32   3
  -5   1   3  839.42   14.21   1
  -5   1   3  867.06   13.82   2
  -5  -1   3  838.88   14.22   1
  -5  -1   3  874.95   13.70   2
   5  -1  -3  874.37   14.35   3
   4   1  -3   92.73    1.80   4
  -4   1   3   96.95    2.43   1
   4  -1  -3   91.62    2.21   2
   4   1  -3   93.77    2.38   3
  -4  -1   3   92.76    2.40   1
   4  -1  -3   92.71    2.36   3
   4   1  -3   93.05    2.12   2
   3   1  -3   60.90    1.65   3
  -3  -1   3   59.86    1.70   1
   3  -1  -3   62.13    1.54   2
  -3   1   3   59.51    1.69   1
   3  -1  -3   58.10    1.62   3
  -3  -1   3   60.12    1.31   4
   3   1  -3   60.21    1.43   2
  -2  -1   3  188.49    3.23   4
   2   1  -3  193.53    3.32   2
  -2  -1   3  189.67    3.53   1
  -2   1   3  192.01    3.16   4
   2  -1  -3  193.83    3.46   3
  -2   1   3  186.85    3.55   1
   2  -1  -3  192.26    3.42   2
   2   1  -3  189.01    3.48   3
  -1  -1   3   11.18    0.67   4
  -1   1   3   11.36    0.69   4
   1  -1  -3   11.18    0.62   2
   1   1  -3   12.07    0.62   2
  -1   1   3   10.98    0.65   1
   1   1  -3   11.45    0.59   3
   1  -1  -3   11.28    0.55   3
  -1  -1   3   12.37    0.67   1
   0   1   3  328.75    5.49   1
   0  -1   3  333.33    5.40   1
   0   1   3  332.61    4.44   5
   0  -1   3  331.35    5.53   4
   0   1  -3  340.18    5.51   3
   0  -1  -3  337.07    5.60   2
   0   1  -3  334.78    5.58   2
   0   1   3  330.43    5.53   4
   0  -1  -3  325.68    5.38   3
  -1  -1  -3  595.32    9.60   2
   1  -1   3  593.51    9.43   4
  -1   1  -3  590.92    9.59   2
   1  -1   3  601.41    9.46   3
  -1  -1  -3  586.90    9.34   1
   1  -1   3  583.60    9.22   1
   1   1   3  578.78    9.42   4
   1   1   3  589.28    9.33   3
   2  -1   3  459.42    7.81   4
   2  -1   3  464.84    7.73   3
  -2  -1  -3  471.20    7.96   2
   2   1   3  470.95    7.63   3
  -2  -1  -3  470.68    7.53   1
  -2   1  -3  469.36    7.97   2
   2   1   3  447.34    7.80   4
  -3   1  -3   24.12    1.34   2
   3   1   3   25.97    1.45   4
  -3  -1  -3   24.50    1.34   2
   3   1   3   26.76    1.11   3
   3  -1   3   24.58    1.38   4
   3  -1   3   25.30    1.13   3
  -4  -1  -3    0.36    0.64   2
   4  -1   3    0.73    0.71   4
   4  -1   3    0.31    0.57   3
  -4   1  -3   -0.19    0.65   2
   4   1   3   -0.47    0.73   4
   5   1   3  370.85    7.18   4
  -5   1  -3  365.00    7.34   2
  -5  -1  -3  367.09    7.32   2
  -6  -1  -3   -1.25    0.89   2
  -6   1  -3   -1.20    0.86   2
   6   1   3   -0.14    0.98   4
  -7  -2   3   71.73    2.53   1
  -7   2   3   66.68    2.42   1
   7  -2  -3   71.07    2.61   3
  -7   2   3   68.71    2.30   2
   7   2  -3   69.43    2.55   3
   6  -2  -3  391.88    7.65   3
  -6   2   3  399.06    7.51   1
  -6   2   3  412.17    7.29   2
   6   2  -3  407.22    7.70   3
  -6  -2   3  394.19    7.55   1
   5  -2  -3  228.05    4.75   3
  -5  -2   3  230.55    4.22   2
   5   2  -3  221.98    4.68   3
  -5  -2   3  222.74    4.70   1
  -5   2   3  229.01    4.48   2
  -5   2   3  228.59    4.66   1
   4  -2  -3   10.21    0.76   2
   4   2  -3   10.16    0.82   3
   4   2  -3    9.29    0.63   4
   4   2  -3    9.89    0.78   2
   4  -2  -3   10.43    0.83   3
  -4   2   3   10.11    0.89   1
  -4  -2   3   10.42    0.89   1
   3   2  -3  433.41    6.89   2
  -3  -2   3  425.91    7.29   1
   3  -2  -3  427.60    7.12   2
  -3   2   3  430.49    7.33   1
   3  -2  -3  423.24    7.24   3
  -3  -2   3  429.44    6.71   4
   3   2  -3  425.45    7.27   3
   2   2  -3 2973.63   43.84   2
   2  -2  -3 2969.84   43.98   2
  -2  -2   3 2911.66   42.72   4
  -2   2   3 2950.64   42.70   4
  -2  -2   3 2843.74   44.52   1
  -2   2   3 2919.77   44.59   1
   2   2  -3 2851.13   44.56   3
   2  -2  -3 2950.87   44.53   3
  -1   2   3 1255.08   18.36   4
   1  -2  -3 1237.78   18.96   3
   1  -2  -3 1252.19   18.89   2
  -1  -2   3 1226.80   19.02   1
   1   2  -3 1217.94   19.09   3
   1   2  -3 1222.46   18.76   2
  -1  -2   3 1224.40   18.42   4
  -1   2   3 1221.58   19.13   1
   0   2   3  310.48    5.10   4
   0  -2  -3  298.63    4.87   3
   0  -2   3  296.16    4.90   1
   0   2   3  297.39    4.12   5
   0   2  -3  307.43    5.11   3
   0  -2  -3  305.91    5.18   2
   0   2  -3  303.54    5.12   2
   0   2   3  301.31    5.09   1
   0  -2   3  300.10    5.10   4
   1  -2   3  511.85    8.36   4
  -1   2  -3  519.12    8.50   2
  -1  -2  -3  520.41    8.31   1
   1   2   3  519.74    8.18   3
   1  -2   3  523.41    8.41   3
  -1  -2  -3  511.96    8.50   2
   1   2   3  508.88    8.36   4
  -2  -2  -3  411.99    6.71   1
   2  -2   3  401.79    6.89   3
  -2   2  -3  411.02    7.08   2
   2  -2   3  394.32    6.92   4
   2   2   3  404.96    6.66   3
  -2  -2  -3  404.96    7.05   2
   2   2   3  404.42    6.98   4
  -3   2  -3    2.62    0.68   2
   3  -2   3    3.22    0.70   4
  -3  -2  -3    2.84    0.67   2
   3  -2   3    3.36    0.58   3
   3   2   3    2.79    0.78   4
   4  -2   3  139.01    3.39   4
   4   2   3  134.66    3.48   4
  -4   2  -3  137.19    3.48   2
  -4  -2  -3  136.75    3.45   2
   4  -2   3  137.93    3.25   3
  -5  -2  -3    0.61    0.82   2
  -5   2  -3    1.56    0.88   2
   5  -2   3    0.38    0.83   4
  -6  -2  -3   50.70    2.38   2
   6   2   3   48.56    2.43   4
  -6   2  -3   47.46    2.38   2
   7  -3  -3   17.60    1.43   3
  -7  -3   3   20.25    1.51   1
   7   3  -3   18.21    1.49   3
  -7   3   3   18.10    1.48   1
  -7   3   3   17.62    1.34   2
   6  -3  -3  294.02    6.10   3
  -6  -3   3  301.04    6.07   1
  -6   3   3  304.74    5.84   2
   6   3  -3  294.25    6.08   3
  -6   3   3  309.80    6.03   1
   5   3  -3  257.50    5.21   3
  -5  -3   3  259.74    5.22   1
  -5   3   3  254.58    5.14   1
   5  -3  -3  262.76    5.07   2
   5  -3  -3  264.33    5.26   3
  -5  -3   3  258.87    4.64   2
  -4   3   3  447.15    7.77   1
   4  -3  -3  442.95    7.77   3
  -4  -3   3  441.87    7.78   1
   4  -3  -3  438.58    7.61   2
   4   3  -3  453.67    7.79   3
  -4  -3   3  442.19    7.18   2
  -3   3   3  901.58   14.34   1
   3   3  -3  898.61   13.74   2
   3  -3  -3  892.85   14.25   3
  -3  -3   3  899.16   13.51   4
  -3  -3   3  888.70   14.30   1
   3  -3  -3  885.93   14.08   2
   3   3  -3  885.40   14.29   3
   2   3  -3  363.13    5.71   2
  -2   3   3  358.17    5.54   4
   2  -3  -3  356.97    5.96   3
   2   3  -3  358.89    6.07   3
   2  -3  -3  354.53    6.01   2
  -2  -3   3  357.98    5.78   4
  -2  -3   3  355.39    6.05   1
  -2   3   3  357.31    6.14   1
  -1   3   3  106.11    2.10   4
   1  -3  -3  109.34    2.22   2
  -1  -3   3  107.41    2.13   1
   1   3  -3  107.40    2.20   3
   1   3  -3  106.47    2.05   2
   1  -3  -3  106.27    1.99   3
  -1  -3   3  108.81    2.20   4
  -1   3   3  111.96    2.26   1
   0  -3  -3  604.33    9.39   3
   0  -3   3  615.02    9.52   4
   0  -3  -3  602.46    9.68   1
   0   3  -3  602.49    9.70   3
   0  -3   3  601.75    9.42   1
   0   3   3  596.55    9.44   4
   0   3  -3  602.58    9.59   2
   0  -3  -3  601.85    9.66   2
   1   3   3    8.85    0.74   4
  -1  -3  -3    9.02    0.67   2
   1  -3   3   11.01    0.69   3
  -1   3  -3    9.01    0.67   2
  -1  -3  -3    9.11    0.65   1
   1  -3   3    7.86    0.69   4
   1   3   3   10.06    0.48   3
   2  -3   3   50.44    1.70   4
   2   3   3   52.97    1.28   3
   2  -3   3   52.74    1.53   3
  -2   3  -3   48.94    1.64   2
   2   3   3   50.13    1.73   4
  -2  -3  -3   52.79    1.43   1
  -2  -3  -3   52.05    1.68   2
  -3  -3  -3  397.55    7.15   2
   3   3   3  392.64    7.10   4
   3  -3   3  399.15    7.02   3
   3  -3   3  389.70    6.98   4
  -3   3  -3  396.89    7.21   2
  -4  -3  -3  143.73    3.57   2
   4   3   3  148.39    3.66   4
   4  -3   3  147.33    3.52   4
   4  -3   3  145.93    3.43   3
   5   3   3   34.76    1.90   4
   5  -3   3   30.69    1.62   3
   5  -3   3   30.28    1.79   4
  -5  -3  -3   31.94    1.81   2
  -5   3  -3   32.67    1.82   2
  -7  -4   3    9.36    1.15   1
  -7   4   3    7.21    1.03   2
   7  -4  -3   10.28    1.19   3
  -7   4   3    8.02    1.09   1
   7   4  -3    9.12    1.18   3
  -6   4   3    0.54    0.71   1
   6  -4  -3    0.15    0.60   3
  -6  -4   3    0.38    0.67   1
   6   4  -3    0.64    0.62   3
  -6   4   3    0.18    0.60   2
   5  -4  -3    0.41    0.58   2
   5   4  -3    0.01    0.42   4
  -5  -4   3    0.67    0.66   1
   5  -4  -3    0.15    0.58   3
  -5   4   3    1.17    0.66   1
   5   4  -3    1.31    0.59   3
  -4   4   3  329.89    6.05   1
   4  -4  -3  318.41    5.92   2
   4  -4  -3  331.45    6.04   3
   4   4  -3  332.23    6.06   3
  -4  -4   3  331.07    6.08   1
  -4  -4   3  331.84    5.40   2
  -4  -4   3  326.35    5.49   4
   3   4  -3  212.61    4.08   3
   3   4  -3  218.05    3.60   2
  -3  -4   3  214.02    3.78   4
  -3   4   3  211.65    4.13   1
   3  -4  -3  219.02    4.06   2
  -3  -4   3  213.48    4.11   1
   3  -4  -3  213.72    4.03   3
  -2  -4   3   73.89    1.78   1
   2   4  -3   74.13    1.77   3
  -2   4   3   74.91    1.84   1
   2   4  -3   73.57    1.42   2
  -2  -4   3   71.36    1.66   4
  -2   4   3   72.89    1.44   4
   2  -4  -3   73.40    1.77   2
   2  -4  -3   71.85    1.63   3
   1  -4  -3  739.76   11.56   2
   1   4  -3  732.08   11.68   3
  -1   4   3  731.04   11.69   1
  -1   4   3  729.20   11.13   4
  -1   4   3  727.02    9.46   5
  -1  -4   3  757.67   11.29   4
   1   4  -3  725.97   11.30   2
  -1  -4   3  727.40   11.49   1
   1  -4  -3  712.89   11.37   3
   0   4  -3    1.02    0.35   2
   0   4   3    1.59    0.41   4
   0   4  -3    1.29    0.33   3
   0  -4   3    1.15    0.39   4
   0  -4   3    1.17    0.25   1
   0  -4  -3    1.39    0.36   1
   0  -4  -3    1.02    0.34   2
  -1  -4  -3   18.98    0.96   2
   1  -4   3   21.13    0.91   3
  -1  -4  -3   19.61    0.88   1
   1   4   3   17.78    1.05   4
  -1   4  -3   18.83    0.99   2
   1  -4   3   19.89    1.04   4
  -2   4  -3   39.25    1.50   2
   2   4   3   39.38    1.59   4
   2  -4   3   39.02    1.51   4
  -2  -4  -3   40.14    1.47   2
  -2  -4  -3   42.64    1.32   1
   2  -4   3   41.58    1.38   3
  -3  -4  -3    0.84    0.48   1
   3  -4   3    0.60    0.51   3
   3  -4   3    1.03    0.61   4
  -3  -4  -3    1.20    0.60   2
  -3   4  -3    0.24    0.63   2
   3   4   3   -0.86    0.62   4
   4   4   3   69.46    2.39   4
  -4   4  -3   66.35    2.33   2
   4  -4   3   64.12    2.15   3
  -4  -4  -3   65.47    2.26   2
   4  -4   3   67.23    2.23   4
   5   4   3    8.15    1.16   4
  -5  -4  -3    6.43    1.02   2
   5  -4   3    4.25    0.92   3
   5  -4   3    7.06    1.05   4
  -5   4  -3    5.88    1.04   2
  -7  -5   3   43.04    2.02   1
  -7   5   3   44.17    1.96   2
   7  -5  -3   44.91    2.11   3
   7   5  -3   42.05    2.03   3
  -7   5   3   41.81    2.03   1
  -6   5   3   45.26    1.88   1
   6  -5  -3   46.34    1.94   3
   6   5  -3   46.42    1.89   3
  -6  -5   3   44.60    1.91   1
  -6   5   3   46.34    1.85   2
   5  -5  -3    5.92    0.81   2
   5   5  -3    3.57    0.58   4
   5  -5  -3    6.32    0.84   3
   5   5  -3    5.56    0.79   3
  -5   5   3    5.05    0.79   1
  -5  -5   3    5.34    0.86   1
  -4   5   3   11.81    0.93   1
  -4  -5   3   10.30    0.92   1
   4   5  -3   12.22    1.01   3
  -4  -5   3   11.86    0.88   4
  -4  -5   3   11.29    0.67   2
   4  -5  -3   10.06    0.85   3
   4  -5  -3   11.37    0.95   2
  -3  -5   3  213.32    3.78   4
  -3  -5   3  210.20    4.06   1
  -3   5   3  207.95    4.08   1
   3   5  -3  208.06    4.03   3
   3  -5  -3  203.45    4.00   2
   3  -5  -3  209.35    3.96   3
   2  -5  -3   38.71    1.11   3
   2   5  -3   38.40    1.23   3
   2  -5  -3   37.46    1.24   2
  -2   5   3   37.91    0.97   4
  -2   5   3   38.80    1.29   1
  -2  -5   3   39.21    1.24   1
  -2  -5   3   37.89    1.18   4
   1  -5  -3  150.82    2.63   3
  -1  -5   3  153.30    2.94   4
  -1   5   3  154.09    3.03   1
   1  -5  -3  152.38    2.98   2
  -1   5   3  151.52    2.44   5
  -1  -5   3  151.63    2.80   1
   1   5  -3  150.96    2.69   2
  -1   5   3  153.37    2.78   4
   1   5  -3  151.63    2.98   3
   0  -5   3   32.68    0.83   1
   0  -5  -3   33.58    1.15   2
   0  -5  -3   34.43    1.14   1
   0   5   3   32.92    1.16   4
   0   5  -3   34.45    1.12   3
   0   5  -3   34.32    1.09   2
   0  -5   3   34.54    1.21   4
   1   5   3  428.52    7.22   4
  -1  -5  -3  440.87    7.29   2
   1  -5   3  423.60    7.19   4
  -1   5  -3  435.92    7.26   2
   1  -5   3  421.87    7.28   3
  -1  -5  -3  430.97    7.23   1
  -2  -5  -3    6.40    0.63   1
  -2   5  -3    6.32    0.76   2
   2  -5   3    5.87    0.62   3
   2  -5   3    5.83    0.72   4
   2   5   3    4.42    0.77   4
  -2  -5  -3    6.69    0.71   2
   3  -5   3    1.11    0.57   3
   3   5   3    0.32    0.72   4
  -3   5  -3    0.02    0.63   2
  -3  -5  -3    0.75    0.57   2
   3  -5   3    1.05    0.61   4
  -3  -5  -3    1.28    0.53   1
  -4   5  -3  295.36    6.10   2
   4   5   3  297.44    6.02   4
  -4  -5  -3  307.14    6.00   2
   4  -5   3  298.81    5.85   4
   4  -5   3  311.55    5.99   3
   5   5   3    2.60    0.97   4
  -5   5  -3    2.55    0.90   2
   5  -5   3    1.69    0.79   3
   5  -5   3    1.42    0.85   4
  -5  -5  -3    1.80    0.85   2
   7   6  -3    0.02    0.72   3
   7  -6  -3    0.67    0.77   3
  -7   6   3   -0.20    0.80   2
  -7  -6   3    1.00    0.82   1
  -6  -6   3    7.83    0.99   1
   6  -6  -3    9.63    1.06   3
  -6   6   3   11.65    1.09   1
  -6   6   3    8.65    1.00   2
   6   6  -3    9.12    1.01   3
   5   6  -3  116.64    2.62   4
   5  -6  -3  119.28    3.05   3
  -5  -6   3  118.15    3.08   1
   5  -6  -3  121.25    3.04   2
  -5   6   3  114.10    2.93   1
   4  -6  -3  468.68    8.22   2
   4   6  -3  469.26    8.25   3
  -4  -6   3  474.32    7.75   4
  -4   6   3  469.66    8.25   1
   4  -6  -3  469.94    8.21   3
  -4  -6   3  478.64    8.30   1
  -3  -6   3  204.32    3.79   4
  -3  -6   3  209.19    4.02   1
  -3   6   3  201.35    4.03   1
   3   6  -3  205.07    4.00   3
   3  -6  -3  198.55    3.88   3
   3  -6  -3  205.42    4.01   2
  -2  -6   3  370.79    6.35   1
   2  -6  -3  378.03    6.44   2
   2  -6  -3  373.38    6.21   3
   2   6  -3  367.82    6.43   3
  -2  -6   3  374.19    6.23   4
  -2   6   3  374.50    6.50   1
  -2   6   3  376.22    5.83   4
   1   6  -3   86.43    1.70   2
  -1   6   3   83.54    1.81   4
  -1   6   3   83.09    2.02   1
  -1  -6   3   92.92    2.03   4
  -1  -6   3   87.03    1.83   1
   1  -6  -3   86.69    1.64   3
   1   6  -3   84.00    1.98   3
   1  -6  -3   85.61    1.99   2
  -1   6   3   82.66    1.63   5
   0  -6  -3  180.82    3.63   1
   0   6   3  194.28    3.59   4
   0  -6   3  189.46    3.22   1
   0   6  -3  199.60    3.69   3
   0  -6   3  196.73    3.65   4
   0  -6  -3  194.22    3.65   2
   0   6  -3  194.62    3.50   2
   1   6   3  221.77    4.20   4
  -1  -6  -3  226.52    4.17   2
  -1  -6  -3  218.72    4.12   1
   1  -6   3  216.89    4.17   3
  -1   6  -3  214.99    4.11   2
   1  -6   3  224.57    4.20   4
   2   6   3  192.49    4.07   4
   2  -6   3  199.11    3.98   3
  -2   6  -3  196.32    4.04   2
   2  -6   3  199.42    3.98   4
  -2  -6  -3  197.65    3.96   2
  -2  -6  -3  196.52    3.87   1
  -3  -6  -3   40.04    1.53   1
   3  -6   3   37.29    1.58   4
   3  -6   3   39.25    1.59   3
   3   6   3   41.59    1.78   4
  -3   6  -3   40.50    1.74   2
  -3  -6  -3   39.02    1.64   2
  -4  -6  -3   62.32    2.21   2
   4   6   3   59.96    2.24   4
  -4   6  -3   63.38    2.27   2
   4  -6   3   59.74    2.10   4
   4  -6   3   62.43    2.14   3
  -5  -6  -3   -0.24    0.74   2
   5  -6   3    0.05    0.69   3
  -5   6  -3    0.83    0.85   2
   5  -6   3   -0.61    0.74   4
   5   6   3   -0.33    0.85   4
   7   7  -3   67.44    2.53   3
   7  -7  -3   67.92    2.59   3
  -7   7   3   64.48    2.45   2
  -7  -7   3   66.16    2.53   1
   6  -7  -3    8.34    1.01   3
  -6   7   3    9.93    1.07   1
  -6  -7   3    8.73    1.04   1
   6   7  -3    9.26    1.02   3
  -6   7   3    6.91    0.96   2
   5  -7  -3   31.42    1.54   3
  -5  -7   3   28.66    1.52   1
   5   7  -3   28.56    1.25   4
   5  -7  -3   28.42    1.50   2
  -5   7   3   30.04    1.46   1
   5   7  -3   28.78    1.43   3
   4  -7  -3   24.00    1.28   3
  -4   7   3   29.31    1.38   1
  -4  -7   3   27.76    1.22   4
  -4  -7   3   25.93    1.41   1
   4   7  -3   27.36    1.29   3
   4  -7  -3   27.87    1.34   2
  -3  -7   3    1.58    0.52   1
   3  -7  -3    1.36    0.47   2
   3   7  -3    1.96    0.48   3
  -3  -7   3    1.99    0.46   4
  -3   7   3    2.73    0.55   1
   3  -7  -3    1.74    0.46   3
   2  -7  -3   14.85    0.89   2
  -2   7   3   17.22    0.97   1
   2   7  -3   16.41    0.89   3
   2  -7  -3   15.16    0.78   3
  -2  -7   3   14.33    0.87   4
  -2   7   3   15.23    0.66   4
  -2  -7   3   14.27    0.89   1
  -1  -7   3   87.55    1.89   1
   1   7  -3   93.80    2.13   3
  -1  -7   3   89.14    2.11   4
  -1   7   3   89.19    1.74   5
   1   7  -3   90.05    1.76   2
  -1   7   3   88.08    2.15   1
   1  -7  -3   91.25    2.12   2
   1  -7  -3   87.53    1.69   3
  -1   7   3   90.68    1.93   4
   0  -7  -3   39.04    1.30   1
   0   7  -3   40.86    1.21   2
   0  -7  -3   39.92    1.29   2
   0   7   3   39.73    1.31   4
   0  -7   3   40.27    0.97   1
   0  -7   3   39.03    1.36   4
  -1  -7  -3    6.44    0.61   1
   1   7   3    5.70    0.68   4
  -1   7  -3    5.84    0.62   2
   1  -7   3    4.70    0.58   3
   1  -7   3    4.98    0.65   4
  -1  -7  -3    5.02    0.59   2
   2  -7   3  635.19   10.53   4
   2  -7   3  644.76   10.85   3
  -2  -7  -3  641.65   10.68   2
  -2   7  -3  646.64   10.76   2
  -2  -7  -3  647.67   10.73   1
   2   7   3  660.02   10.69   4
   3  -7   3   17.41    1.19   4
  -3   7  -3   17.22    1.30   2
   3  -7   3   17.81    1.20   3
  -3  -7  -3   18.34    1.19   1
  -3  -7  -3   16.47    1.23   2
   3   7   3   18.82    1.40   4
  -4  -7  -3   26.59    1.53   2
   4   7   3   25.65    1.60   4
   4  -7   3   25.95    1.44   4
   4  -7   3   27.21    1.47   3
  -4   7  -3   26.37    1.59   2
   5  -7   3   76.51    2.54   4
   5   7   3   83.35    2.90   4
  -5  -7  -3   78.36    2.66   2
  -5   7  -3   76.44    2.80   2
   5  -7   3   79.21    2.67   3
   7  -8  -3    5.72    1.07   3
  -7   8   3    3.27    0.95   2
  -7  -8   3    6.03    1.10   1
   7   8  -3    4.22    0.99   3
   6  -8  -3    0.66    0.69   3
   6   8  -3    1.79    0.72   3
  -6   8   3    2.93    0.85   1
  -6  -8   3    0.37    0.72   1
  -6   8   3    1.20    0.71   2
  -5  -8   3    5.24    0.82   1
   5  -8  -3    5.40    0.79   3
   5   8  -3    3.16    0.73   3
  -5   8   3    5.16    0.83   1
   5   8  -3    6.07    0.71   4
   5  -8  -3    4.97    0.83   2
  -4   8   3    1.14    0.60   1
   4  -8  -3    0.81    0.56   3
  -4  -8   3    1.67    0.60   1
  -4  -8   3    0.41    0.48   4
   4  -8  -3    0.56    0.55   2
   4   8  -3    1.37    0.53   3
  -3   8   3    5.31    0.69   1
  -3  -8   3    5.55    0.64   4
   3   8  -3    4.80    0.64   3
  -3  -8   3    4.78    0.66   1
   3  -8  -3    5.24    0.61   3
   3  -8  -3    5.05    0.64   2
  -2   8   3   10.99    0.65   4
  -2   8   3    7.89    0.71   1
  -2  -8   3    7.25    0.64   1
   2  -8  -3    9.31    0.69   3
  -2  -8   3    6.29    0.63   4
  -2   8   3    8.51    0.59   5
   2  -8  -3    6.19    0.67   2
   2   8  -3    6.99    0.62   3
   1   8  -3   40.51    1.34   3
  -1  -8   3   39.23    1.35   4
  -1   8   3   40.90    1.24   4
  -1  -8   3   42.01    1.20   1
   1  -8  -3   40.55    0.98   3
   1  -8  -3   39.60    1.38   1
   1  -8  -3   41.41    1.37   2
   1   8  -3   41.42    1.05   2
   0  -8   3   53.93    1.66   4
   0   8  -3   54.93    1.61   3
   0  -8  -3   54.16    1.63   1
   0   8   3   55.44    1.60   4
   0  -8  -3   57.42    1.61   2
   0  -8   3   55.67    1.23   1
   0   8  -3   56.32    1.47   2
  -1  -8  -3   10.67    0.83   2
  -1   8  -3   17.41    1.02   2
   1   8   3   10.06    0.85   4
   1  -8   3   10.28    0.78   3
  -1  -8  -3   10.08    0.86   1
   1  -8   3   12.84    0.99   4
   2  -8   3    8.93    0.86   4
   2   8   3    8.70    0.91   4
  -2   8  -3    8.18    0.85   2
   2  -8   3    9.16    0.84   3
  -2  -8  -3    8.37    0.80   2
  -2  -8  -3    7.77    0.78   1
  -3   8  -3    2.22    0.75   2
   3  -8   3    2.33    0.67   4
   3  -8   3    2.62    0.66   3
   3   8   3    2.49    0.78   4
  -3  -8  -3    2.58    0.66   2
  -3  -8  -3    2.79    0.68   1
   4   8   3   27.86    1.68   4
  -4  -8  -3   26.99    1.52   2
  -4   8  -3   26.51    1.64   2
   4  -8   3   24.10    1.41   4
   4  -8   3   25.44    1.46   3
   5  -8   3   29.58    1.70   3
  -5  -8  -3   29.12    1.76   2
   5   8   3   25.38    1.80   4
  -5   8  -3   26.42    1.78   2
  -7   9   3   12.82    1.32   2
   7  -9  -3   13.09    1.35   3
  -7  -9   3   12.88    1.35   1
   7   9  -3   13.44    1.32   3
  -6   9   3   25.61    1.56   1
  -6   9   3   26.22    1.60   2
   6  -9  -3   28.48    1.59   3
  -6  -9   3   26.31    1.59   1
   6   9  -3   26.88    1.55   3
   5  -9  -3    8.72    1.00   2
   5  -9  -3    8.94    0.93   3
  -5  -9   3   10.27    1.01   1
   5   9  -3    9.60    0.86   4
   5   9  -3    8.52    0.93   3
  -5   9   3    8.38    0.95   1
  -4  -9   3    2.07    0.64   1
  -4  -9   3    1.83    0.58   4
   4   9  -3    3.03    0.64   3
   4  -9  -3    1.44    0.63   2
  -4   9   3    2.24    0.65   1
   4  -9  -3    2.02    0.59   3
  -3  -9   3   60.60    1.85   4
  -3   9   3   66.39    1.99   1
   3  -9  -3   66.14    2.01   2
  -3  -9   3   63.03    1.93   1
   3  -9  -3   61.96    1.78   3
   3   9  -3   64.41    1.91   3
  -2  -9   3   78.80    2.07   4
   2  -9  -3   77.75    2.10   2
   2  -9  -3   80.65    1.82   3
  -2   9   3   79.99    2.12   1
  -2   9   3   76.03    1.69   4
  -2  -9   3   75.92    1.97   1
   2   9  -3   75.35    2.02   3
  -2   9   3   79.76    1.72   5
  -1  -9   3   95.13    2.32   4
   1   9  -3   97.02    2.32   3
  -1   9   3   95.06    2.12   4
   1  -9  -3   95.30    2.31   2
   1  -9  -3   97.39    1.83   3
   1  -9  -3   95.46    2.37   1
   1   9  -3   98.98    1.89   2
  -1  -9   3  100.33    2.11   1
   0   9   3  178.10    3.51   4
   0  -9  -3  178.97    3.57   2
   0  -9  -3  178.15    3.64   1
   0  -9   3  181.09    3.15   1
   0   9  -3  177.85    3.35   2
   0  -9   3  181.46    3.62   4
   1  -9   3    0.65    0.51   4
  -1  -9  -3    1.11    0.47   2
  -1  -9  -3    0.27    0.45   1
   1   9   3    0.85    0.55   4
  -1   9  -3    1.25    0.50   2
   1  -9   3    0.79    0.45   3
  -2  -9  -3   -0.63    0.45   2
  -2  -9  -3    0.24    0.49   1
   2  -9   3    0.51    0.53   4
  -2   9  -3    0.30    0.57   2
   2   9   3   -1.35    0.54   4
   2  -9   3    0.31    0.47   3
   3  -9   3  274.63    5.64   3
  -3   9  -3  283.13    5.67   2
   3  -9   3  284.80    5.47   4
  -3  -9  -3  281.83    5.47   2
  -3  -9  -3  290.19    5.58   1
  -4   9  -3   10.62    1.16   2
   4   9   3   10.04    1.19   4
  -4  -9  -3   11.88    1.07   1
  -4  -9  -3   10.83    1.05   2
   4  -9   3    9.80    1.02   4
   4  -9   3   10.26    1.06   3
  -5   9  -3    2.09    0.98   2
   5   9   3    0.35    0.94   4
   5  -9   3    1.44    0.82   3
  -5  -9  -3    0.64    0.81   2
  -7 -10   3    4.76    1.02   1
  -7  10   3    5.16    1.06   2
   7 -10  -3    2.63    0.94   3
   7  10  -3    2.72    0.96   3
   6  10  -3    0.41    0.70   4
  -6  10   3   -0.81    0.71   1
   6  10  -3    1.04    0.70   3
   6 -10  -3    0.78    0.71   3
  -6  10   3   -0.42    0.69   2
  -6 -10   3    0.45    0.73   1
  -5  10   3  106.55    2.89   1
  -5 -10   3  108.88    3.00   1
   5  10  -3  104.56    2.73   4
   5 -10  -3  105.20    3.02   2
   5  10  -3  106.11    2.91   3
   5 -10  -3  109.07    2.92   3
   4  10  -3    0.42    0.55   3
  -4 -10   3    0.95    0.59   1
   4 -10  -3    0.55    0.60   2
  -4 -10   3    0.46    0.57   4
   4 -10  -3    1.08    0.53   3
  -4  10   3    1.22    0.63   1
   3 -10  -3  664.40   11.00   2
   3 -10  -3  642.52   10.74   3
  -3 -10   3  652.69   10.61   4
   3  10  -3  654.20   10.93   3
  -3 -10   3  637.42   10.90   1
  -3  10   3  648.82   11.00   1
  -2  10   3    5.99    0.53   4
  -2 -10   3    5.43    0.64   1
   2 -10  -3    5.80    0.55   3
  -2 -10   3    5.40    0.70   4
   2 -10  -3    6.97    0.71   2
  -2  10   3    5.43    0.68   1
  -2  10   3    6.72    0.59   5
   2  10  -3    6.21    0.66   3
   1 -10  -3   34.62    1.34   2
  -1  10   3   36.20    1.28   4
   1  10  -3   37.81    1.38   3
   1 -10  -3   38.86    1.46   1
  -1 -10   3   36.57    1.38   4
  -1 -10   3   38.80    1.21   1
   0 -10  -3    2.85    0.56   1
   0  10  -3    1.18    0.44   2
   0  10  -3    1.63    0.49   3
   0 -10   3    2.26    0.35   1
   0 -10   3    3.06    0.57   4
   0 -10  -3    2.12    0.48   2
   0  10   3    2.41    0.54   4
   1 -10   3   62.31    1.96   4
   1  10   3   66.64    2.03   4
   1 -10   3   61.73    1.94   3
  -1  10  -3   63.27    1.83   2
  -1 -10  -3   61.10    1.93   1
  -1 -10  -3   67.69    1.88   2
   2 -10   3   42.62    1.64   4
  -2 -10  -3   44.03    1.56   2
   2 -10   3   41.52    1.63   3
  -2 -10  -3   41.16    1.64   1
  -2  10  -3   40.82    1.66   2
   2  10   3   39.17    1.75   4
   3  10   3  195.27    4.42   4
  -3  10  -3  190.07    4.30   2
  -3 -10  -3  198.99    4.27   1
  -3 -10  -3  196.91    4.11   2
   3 -10   3  183.05    4.09   4
   3 -10   3  189.32    4.29   3
  -4 -10  -3   65.32    2.30   1
   4  10   3   65.68    2.50   4
   4 -10   3   62.57    2.28   3
   4 -10   3   59.66    2.13   4
  -4 -10  -3   60.73    2.15   2
  -4  10  -3   63.37    2.42   2
   5  10   3   -0.92    0.91   4
   5 -10   3   -0.89    0.72   3
  -5  10  -3   -0.27    0.88   2
  -7 -11   3   10.09    1.27   1
  -7  11   3    8.28    1.22   2
   7  11  -3   12.13    1.37   3
   7 -11  -3    8.41    1.23   3
  -6 -11   3   10.84    1.16   1
   6  11  -3   10.28    1.06   4
   6 -11  -3   10.58    1.14   3
   6  11  -3   11.00    1.16   3
  -6  11   3    9.17    1.14   2
   5  11  -3    8.93    0.95   4
  -5 -11   3    9.96    1.03   1
  -5  11   3    9.99    1.07   1
   5 -11  -3   10.47    1.02   3
   5  11  -3    9.68    1.01   3
   5 -11  -3    9.73    1.07   2
  -4 -11   3   53.77    1.91   4
   4 -11  -3   58.64    1.93   3
   4 -11  -3   52.14    2.00   2
  -4 -11   3   54.93    1.99   1
   4  11  -3   53.90    1.89   3
  -4  11   3   57.46    1.97   1
  -3 -11   3    1.97    0.65   4
   3 -11  -3    2.65    0.58   3
  -3 -11   3    2.51    0.68   1
   3  11  -3    3.60    0.66   3
  -3  11   3    3.57    0.70   1
   3 -11  -3    3.73    0.73   2
  -2 -11   3  168.86    3.52   1
  -2  11   3  171.60    3.71   1
  -2 -11   3  169.90    3.63   4
   2 -11  -3  175.45    3.30   3
  -2  11   3  171.97    3.00   5
  -2  11   3  169.62    3.19   4
   2  11  -3  172.74    3.63   3
   2 -11  -3  173.57    3.71   2
   1 -11  -3   92.47    2.37   2
   1  11  -3   93.73    2.38   3
  -1 -11   3   91.08    2.42   4
   1 -11  -3   91.95    2.43   1
  -1 -11   3   91.12    2.11   1
  -1  11   3   94.09    2.19   4
   0 -11  -3  273.98    5.07   2
   0 -11  -3  267.85    5.18   1
   0 -11   3  266.72    5.09   4
   0 -11   3  275.66    4.63   1
   0  11  -3  268.92    4.75   2
   0  11   3  267.95    4.97   4
   1 -11   3   25.58    1.30   3
  -1 -11  -3   26.45    1.33   1
  -1  11  -3   27.19    1.26   2
   1 -11   3   25.50    1.31   4
  -1 -11  -3   27.36    1.24   2
   1  11   3   25.03    1.38   4
   2  11   3   14.36    1.16   4
   2 -11   3   12.87    1.05   3
  -2 -11  -3   14.38    1.05   2
   2 -11   3   14.25    1.12   4
  -2 -11  -3   14.89    1.20   1
  -2  11  -3   15.15    1.21   2
  -3  11  -3  111.69    3.02   2
   3 -11   3  106.82    2.96   3
   3 -11   3  104.16    2.85   4
  -3 -11  -3  112.78    2.99   1
  -3 -11  -3  104.09    2.76   2
   3  11   3  108.36    3.12   4
   4 -11   3    0.27    0.71   3
  -4  11  -3    1.20    0.84   2
  -4 -11  -3    0.21    0.74   1
   4  11   3    0.14    0.86   4
   4 -11   3    0.22    0.68   4
  -4 -11  -3    0.79    0.66   2
   5  11   3   64.04    2.69   4
  -5  11  -3   62.74    2.66   2
   5 -11   3   58.89    2.46   3
   6  12  -3    0.17    0.74   3
  -6  12   3    0.58    0.78   2
  -6 -12   3    0.01    0.74   1
   6 -12  -3    0.03    0.70   3
   6  12  -3   -0.72    0.70   4
  -5  12   3   35.69    1.70   1
   5 -12  -3   37.70    1.85   2
  -5 -12   3   35.80    1.72   1
   5  12  -3   35.66    1.67   3
   5 -12  -3   38.96    1.74   3
   5  12  -3   38.42    1.69   4
  -4 -12   3   19.16    1.29   4
  -4  12   3   19.60    1.30   1
   4 -12  -3   21.56    1.42   2
  -4 -12   3   20.50    1.31   1
   4 -12  -3   21.27    1.28   3
   4  12  -3   21.73    1.30   3
  -3  12   3   81.13    2.38   1
  -3 -12   3   82.80    2.33   1
   3 -12  -3   81.73    2.46   2
  -3 -12   3   81.16    2.36   4
   3 -12  -3   82.54    2.17   3
   3  12  -3   80.37    2.31   3
  -2 -12   3    0.83    0.54   4
  -2 -12   3    1.00    0.49   1
   2 -12  -3    0.57    0.40   3
  -2  12   3    0.15    0.51   1
   2 -12  -3    1.12    0.53   2
  -2  12   3    0.94    0.44   5
   2  12  -3    0.92    0.45   3
   1 -12  -3   54.97    1.87   1
  -1 -12   3   54.66    1.87   4
  -1 -12   3   55.55    1.58   1
   1  12  -3   55.86    1.79   3
   1 -12  -3   53.98    1.80   2
  -1  12   3   57.46    1.70   4
   0  12  -3  214.13    3.95   2
   0 -12  -3  211.48    4.39   1
   0 -12  -3  212.68    4.27   2
   0 -12   3  220.07    3.85   1
   0  12  -3  215.02    4.38   3
   0  12   3  217.77    4.24   4
   0 -12   3  207.98    4.32   4
   1 -12   3   75.37    2.22   3
   1 -12   3   72.70    2.20   4
   1  12   3   73.26    2.24   4
  -1 -12  -3   74.77    2.08   2
  -1  12  -3   69.97    2.02   2
  -2 -12  -3    9.51    0.96   1
  -2 -12  -3   10.01    0.85   2
   2  12   3    9.75    1.04   4
   2 -12   3    9.27    0.93   4
  -2  12  -3   11.35    1.00   2
   2 -12   3   11.08    1.00   3
   3 -12   3   14.06    1.13   4
  -3 -12  -3   15.32    1.24   1
  -3 -12  -3   13.77    1.13   2
   3  12   3   13.71    1.29   4
  -3  12  -3   15.56    1.24   2
   3 -12   3   13.84    1.15   3
  -4 -12  -3   75.33    2.58   1
  -4 -12  -3   68.32    2.27   2
   4 -12   3   70.66    2.39   4
  -4  12  -3   77.24    2.70   2
   4 -12   3   67.77    2.51   3
   4  12   3   67.28    2.66   4
   6 -13  -3   -0.88    0.69   3
   6  13  -3    0.05    0.73   3
  -6 -13   3    0.03    0.75   1
   6  13  -3    0.51    0.74   4
  -6  13   3   -0.30    0.79   2
   5  13  -3   27.20    1.48   4
  -5  13   3   28.90    1.58   1
   5 -13  -3   23.21    1.58   2
   5  13  -3   22.48    1.40   3
   5 -13  -3   26.61    1.50   3
  -5 -13   3   24.61    1.52   1
   4  13  -3    0.50    0.61   3
  -4 -13   3    0.64    0.64   1
  -4  13   3    0.00    0.65   1
  -4 -13   3    0.39    0.64   4
   4 -13  -3    0.62    0.69   2
   4 -13  -3   -0.32    0.54   3
  -3 -13   3  305.76    5.88   1
   3 -13  -3  308.34    5.65   3
   3 -13  -3  304.24    6.03   2
  -3  13   3  301.31    5.94   1
   3  13  -3  307.55    5.88   3
   2 -13  -3   52.60    1.89   2
   2 -13  -3   50.00    1.47   3
  -2  13   3   49.44    1.80   1
   2  13  -3   51.91    1.74   3
  -2 -13   3   48.40    1.80   4
  -2 -13   3   53.44    1.69   1
  -2  13   3   49.10    1.45   5
  -1 -13   3   10.95    0.94   4
   1  13  -3   11.71    0.96   3
  -1 -13   3   10.87    0.80   1
  -1  13   3    9.38    0.80   4
   1 -13  -3   10.20    0.88   2
   1 -13  -3   11.25    0.96   1
   0 -13  -3  211.37    4.30   2
   0  13  -3  212.48    4.42   3
   0 -13   3  209.16    4.39   4
   0  13   3  212.15    4.27   4
   0 -13  -3  212.93    4.44   1
   1 -13   3   -0.31    0.52   4
  -1  13  -3    2.49    0.62   2
   1 -13   3    1.01    0.57   3
   1  13   3    0.37    0.61   4
  -1 -13  -3    0.30    0.55   1
  -1 -13  -3    0.25    0.50   2
   2 -13   3  153.35    3.69   3
   2  13   3  147.94    3.67   4
   2 -13   3  150.81    3.58   4
  -2  13  -3  150.00    3.53   2
  -2 -13  -3  152.94    3.67   1
  -2 -13  -3  154.27    3.44   2
   3 -13   3  174.34    4.24   3
  -3 -13  -3  181.94    4.26   1
   3 -13   3  172.91    4.02   4
   3  13   3  177.17    4.31   4
  -3  13  -3  173.01    4.17   2
  -3 -13  -3  187.46    3.99   2
   4 -13   3   22.54    1.54   4
   4  13   3   21.35    1.68   4
  -4  13  -3   23.74    1.73   2
  -4 -13  -3   19.92    1.61   1
   4 -13   3   19.79    1.53   3
  -6  14   3   10.97    1.30   2
   6  14  -3    9.42    1.20   4
   6 -14  -3   10.21    1.19   3
  -6 -14   3    9.52    1.22   1
   6  14  -3    9.99    1.20   3
  -5 -14   3    0.80    0.73   1
  -5  14   3   -0.24    0.70   1
   5 -14  -3    0.38    0.67   3
   5  14  -3   -0.02    0.70   4
   5  14  -3    0.18    0.66   3
   5 -14  -3    1.34    0.78   2
   4 -14  -3  722.11   12.46   2
  -4 -14   3  706.66   12.01   4
   4 -14  -3  712.41   12.16   3
   4  14  -3  725.30   12.29   3
  -4 -14   3  702.35   12.36   1
  -4  14   3  714.87   12.33   1
  -3  14   3    4.34    0.79   1
  -3 -14   3    6.19    0.84   4
   3  14  -3    6.60    0.82   3
  -3 -14   3    4.53    0.76   1
   3 -14  -3    5.49    0.87   2
   3 -14  -3    4.73    0.68   3
  -2 -14   3   27.30    1.43   4
   2 -14  -3   30.62    1.51   2
  -2  14   3   26.76    1.39   1
  -2  14   3   28.80    1.15   5
   2  14  -3   28.92    1.35   3
  -2 -14   3   29.43    1.34   1
  -1 -14   3  318.20    5.81   1
  -1  14   3  323.21    5.80   4
  -1 -14   3  321.62    6.13   4
   1 -14  -3  325.76    6.14   2
   1 -14  -3  330.24    6.27   1
   0 -14  -3    2.35    0.66   1
   0  14   3    1.41    0.65   4
   0 -14  -3    4.98    0.69   2
   0  14  -3    2.66    0.62   3
   0 -14   3    2.03    0.65   4
   1 -14   3   33.34    1.58   4
  -1 -14  -3   32.99    1.46   2
  -1 -14  -3   35.65    1.63   1
   1  14   3   36.41    1.72   4
  -1  14  -3   36.75    1.51   2
   2  14   3   -0.67    0.64   4
   2 -14   3   -0.03    0.60   4
  -2 -14  -3   -0.71    0.60   1
   2 -14   3    0.23    0.60   3
  -2 -14  -3   -0.12    0.52   2
  -2  14  -3    0.48    0.66   2
   3  14   3   72.09    2.61   4
   3 -14   3   74.68    2.57   3
  -3  14  -3   73.87    2.51   2
   3 -14   3   69.33    2.41   4
  -3 -14  -3   73.32    2.56   1
  -3 -14  -3   72.11    2.26   2
   4 -14   3  135.91    3.81   3
  -4 -14  -3  133.84    3.76   1
  -4  14  -3  132.91    3.81   2
  -6  15   3  141.87    4.04   2
   6  15  -3  137.00    3.79   4
   6 -15  -3  140.61    3.88   3
  -6 -15   3  138.93    3.96   1
   5  15  -3   46.17    1.98   3
   5 -15  -3   47.19    1.99   3
   5 -15  -3   50.54    2.22   2
   5  15  -3   51.99    2.12   4
  -5 -15   3   49.26    2.12   1
   4 -15  -3    9.22    1.12   2
  -4 -15   3   10.26    1.10   4
   4 -15  -3    9.72    0.98   3
   4  15  -3   11.49    1.07   3
  -4  15   3   12.03    1.16   1
  -4 -15   3   10.83    1.08   1
  -3  15   3    1.43    0.70   1
   3  15  -3    1.44    0.65   3
   3 -15  -3    2.19    0.71   2
  -3 -15   3    1.80    0.71   4
  -3 -15   3    1.96    0.68   1
   3 -15  -3    2.38    0.63   3
  -2  15   3   20.88    1.30   1
   2  15  -3   18.65    1.17   3
  -2 -15   3   20.43    1.20   1
  -2 -15   3   23.17    1.36   4
  -2  15   3   21.08    1.05   5
   2 -15  -3   20.03    1.29   2
   1 -15  -3  187.37    4.12   2
  -1  15   3  193.47    3.92   4
   1  15  -3  188.09    4.15   3
   1 -15  -3  186.78    4.22   1
  -1 -15   3  190.09    3.83   1
   0  15   3  207.90    4.27   4
   0  15  -3  196.37    4.35   3
   0 -15   3  199.33    4.36   4
   0 -15  -3  194.85    4.22   2
  -1  15  -3  306.56    6.19   3
  -1 -15  -3  307.91    6.20   1
  -1 -15  -3  305.49    5.88   2
   1 -15   3  306.18    6.06   4
   1  15   3  319.33    6.08   4
   2 -15   3   33.36    1.65   4
   2  15   3   29.40    1.70   4
   2 -15   3   28.86    1.60   3
  -2 -15  -3   29.77    1.48   2
  -2  15  -3   32.98    1.64   2
  -2 -15  -3   26.15    1.59   1
   3 -15   3    2.99    0.85   3
  -3 -15  -3    4.38    0.94   1
  -3  15  -3    3.53    0.93   2
   3  15   3    2.48    0.97   4
   3 -15   3    4.48    0.95   4
   4 -15   3  153.55    4.17   3
   4  15   3  149.00    4.25   4
  -4  15  -3  148.77    4.12   2
  -4 -15  -3  150.86    4.13   1
   5 -16  -3   73.09    2.51   3
   5  16  -3   67.66    2.46   3
  -5 -16   3   71.98    2.61   1
   5  16  -3   73.31    2.63   4
   5 -16  -3   66.22    2.64   2
  -4 -16   3   27.70    1.60   1
   4  16  -3   28.67    1.56   3
   4 -16  -3   28.08    1.51   3
  -4 -16   3   27.16    1.61   4
  -4  16   3   27.76    1.63   1
   4 -16  -3   28.84    1.71   2
  -3  16   3   25.75    1.48   1
  -3 -16   3   30.00    1.53   1
   3 -16  -3   30.00    1.60   2
  -3 -16   3   30.49    1.60   4
   3  16  -3   29.10    1.52   3
  -2 -16   3   42.16    1.81   4
   2  16  -3   42.75    1.70   3
  -2  16   3   42.36    1.80   1
  -2  16   3   40.82    1.43   5
   2 -16  -3   45.65    1.85   2
  -2 -16   3   44.59    1.69   1
   1  16  -3   20.95    1.27   3
   1 -16  -3   20.83    1.38   1
  -1  16   3   19.37    1.28   4
  -1 -16   3   20.09    1.34   4
  -1 -16   3   23.14    1.22   1
   1 -16  -3   22.59    1.34   2
   0 -16   3   31.72    1.60   4
   0 -16  -3   31.52    1.62   1
   0 -16  -3   36.47    1.61   2
   0  16   3   33.04    1.67   4
   0  16  -3   30.88    1.52   3
  -1  16  -3   19.28    1.30   3
  -1 -16  -3   16.00    1.27   1
   1 -16   3   15.84    1.28   4
  -1 -16  -3   17.26    1.23   2
   1  16   3   18.89    1.46   4
   2 -16   3   13.32    1.18   4
   2  16   3   11.83    1.18   4
  -2 -16  -3   12.07    1.04   2
   2 -16   3   11.80    1.14   3
  -2 -16  -3   11.30    1.15   1
   3 -16   3   62.05    2.37   4
   3  16   3   54.84    2.41   4
   3 -16   3   65.33    2.48   3
  -3  16  -3   58.94    2.36   2
  -3 -16  -3   61.35    2.42   1
   5  17  -3   13.47    1.39   4
  -5 -17   3   12.84    1.40   1
   5 -17  -3   14.28    1.33   3
   5 -17  -3   11.70    1.39   2
  -4 -17   3  192.88    4.55   1
  -4  17   3  186.47    4.49   1
   4  17  -3  192.34    4.43   3
   4  17  -3  184.85    4.51   4
   4 -17  -3  192.25    4.67   2
   4 -17  -3  188.70    4.29   3
  -3 -17   3   52.14    2.14   4
   3  17  -3   61.43    2.16   3
   3 -17  -3   57.49    2.24   2
  -3  17   3   53.92    2.11   1
  -3 -17   3   55.20    2.07   1
  -2  17   3   26.44    1.51   1
  -2 -17   3   29.55    1.48   1
   2 -17  -3   25.86    1.51   2
  -2 -17   3   24.21    1.48   4
   2  17  -3   27.51    1.44   3
  -2  17   3   27.19    1.22   5
  -1 -17   3    0.15    0.52   1
  -1  17   3    0.87    0.67   4
   1 -17  -3    0.51    0.67   1
   1 -17  -3    0.80    0.63   2
   1  17  -3    0.71    0.58   3
  -1 -17   3   -0.64    0.58   4
   0 -17   3    1.13    0.66   4
   0 -17  -3    0.03    0.62   2
   0  17   3    0.13    0.71   4
   0  17  -3    0.69    0.58   3
   0 -17  -3    0.76    0.63   1
  -1  17  -3    1.05    0.64   3
  -1 -17  -3    2.31    0.76   1
   1  17   3    1.64    0.84   4
  -1 -17  -3    1.78    0.69   2
   1 -17   3    1.68    0.73   4
   2 -17   3  103.14    3.14   3
   2  17   3   99.47    3.12   4
   2 -17   3  104.22    3.08   4
  -2 -17  -3  105.44    3.15   1
   3  17   3  121.44    3.69   4
  -3  17  -3  128.42    3.58   2
   3 -17   3  134.11    3.60   4
  -3 -17  -3  124.83    3.68   1
   3 -17   3  123.94    3.66   3
   5  18  -3   81.38    2.95   4
   5 -18  -3   79.34    2.70   3
  -5 -18   3   73.54    2.84   1
   5 -18  -3   77.42    2.98   2
   4  18  -3   25.61    1.70   4
   4  18  -3   27.35    1.60   3
  -4  18   3   28.83    1.74   1
   4 -18  -3   23.56    1.70   2
  -4 -18   3   27.21    1.67   1
   3 -18  -3  133.79    3.71   2
  -3 -18   3  139.66    3.57   1
  -3  18   3  132.73    3.60   1
   3  18  -3  142.76    3.59   3
  -2  18   3  114.19    3.24   1
  -2 -18   3  109.44    3.22   4
   2 -18  -3  117.63    3.25   2
  -2  18   3  112.73    2.61   5
   2  18  -3  113.56    3.10   3
  -2 -18   3  122.96    3.09   1
   1 -18  -3   85.96    2.74   1
  -1 -18   3   84.57    2.72   4
   1 -18  -3   86.58    2.67   2
   1  18  -3   84.94    2.64   3
   0  18   3    5.49    0.96   4
   0 -18  -3    5.41    0.93   1
   0 -18  -3    5.18    0.84   2
   0 -18   3    6.95    0.96   4
   0  18  -3    5.74    0.89   3
   1  18   3    6.74    1.07   4
   1 -18   3    8.11    1.01   4
  -1 -18  -3    7.32    0.96   2
  -1  18  -3    7.14    0.99   3
  -1 -18  -3    5.43    0.99   1
  -2 -18  -3   96.70    3.09   1
   2 -18   3   99.03    3.02   4
   2  18   3   95.62    3.10   4
   3  18   3   61.97    2.66   4
   3 -18   3   67.46    2.55   4
  -3 -18  -3   62.52    2.60   1
   3 -18   3   66.07    2.62   3
  -4 -19   3    2.64    0.92   1
   4  19  -3    2.69    0.96   4
   4 -19  -3    1.63    0.88   2
   3 -19  -3   29.62    1.75   2
  -3  19   3   31.51    1.75   1
  -3 -19   3   28.82    1.78   4
   3  19  -3   30.68    1.73   3
  -3 -19   3   31.18    1.77   1
  -2 -19   3    3.50    0.89   4
  -2  19   3    5.85    0.98   1
  -2 -19   3    6.46    0.94   1
  -2  19   3    5.45    0.80   5
   2 -19  -3    3.76    0.91   2
   2  19  -3    4.92    0.86   3
   1 -19  -3   17.17    1.28   2
   1 -19  -3   15.00    1.33   1
  -1 -19   3   13.38    1.21   4
   1  19  -3   13.54    1.19   3
   0 -19  -3  128.99    3.62   1
   0  19   3  136.88    3.59   4
   0  19  -3  131.68    3.57   3
   0 -19  -3  135.02    3.47   2
   0 -19   3  132.21    3.58   4
  -1 -19  -3  123.15    3.54   1
   1  19   3  126.83    3.61   4
   1 -19   3  125.61    3.50   4
  -1  19  -3  127.98    3.55   3
  -2 -19  -3    0.21    0.81   1
   2 -19   3   -0.45    0.73   4
   2  19   3   -0.32    0.85   4
  -2  19  -3    0.77    0.80   3
   4 -20  -3   78.26    2.96   2
   4  20  -3   82.52    3.02   4
  -4 -20   3   82.50    2.89   1
   3  20  -3    0.39    0.78   3
  -3 -20   3    0.09    0.77   1
  -3  20   3    0.16    0.81   1
  -3 -20   3   -0.26    0.81   4
   3 -20  -3    0.45    0.81   2
  -2 -20   3   21.99    1.56   1
   2 -20  -3   19.53    1.49   2
  -2 -20   3   21.42    1.56   4
  -2  20   3   22.10    1.56   1
   2  20  -3   20.37    1.40   3
  -2  20   3   19.09    1.21   5
  -1 -20   3   10.66    1.21   4
   1 -20  -3   11.42    1.29   1
   1 -20  -3   12.15    1.18   2
   1  20  -3   11.64    1.18   3
   0 -20  -3    8.83    1.08   2
   0 -20   3    7.50    1.07   4
   0 -20  -3    7.15    1.11   1
   0  20   3    8.03    1.17   4
   0  20  -3    8.02    1.08   3
  -1  20  -3   38.18    1.95   3
   1 -20   3   40.46    2.01   4
  -1 -20  -3   36.54    1.97   1
   1  20   3   36.92    2.12   4
  -2  20  -3   -0.38    0.81   3
   2 -20   3    0.27    0.83   4
  -2 -20  -3   -0.44    0.81   1
   2  20   3   -0.07    0.91   4
  -3  21   3    4.86    1.08   1
  -3 -21   3    6.37    1.11   1
   3 -21  -3    5.23    1.08   2
  -3 -21   3    4.95    1.15   4
  -2  21   3    0.41    0.80   1
  -2 -21   3    0.66    0.86   4
   2  21  -3    0.92    0.76   3
   2 -21  -3   -0.02    0.79   2
  -2  21   3    0.09    0.64   5
   1  21  -3   30.41    1.73   3
   1 -21  -3   32.87    1.80   2
  -1 -21   3   29.97    1.81   4
   1 -21  -3   28.26    1.83   1
   0  21   3   13.38    1.43   4
   0 -21  -3   15.34    1.46   1
   0  21  -3   17.35    1.42   3
   0 -21   3   15.38    1.44   4
   1 -21   3    1.37    0.92   4
  -1 -21  -3    1.67    0.94   1
   1  21   3    1.12    1.04   4
  -1  21  -3    3.41    0.99   3
  -2  22   3   33.20    1.97   1
  -2 -22   3   28.24    1.88   4
   2 -22  -3   30.74    1.91   2
  -2  22   3   31.82    1.54   5
  -1 -22   3    3.31    1.01   4
   1 -22  -3    1.71    0.96   1
   1  22  -3    2.99    0.96   3
   0 -22   3    4.07    1.08   4
   0 -22  -3    3.76    1.10   1
   0  22  -3    3.90    1.03   3
   8   0  -4   14.87    1.52   3
  -8   0   4   15.77    1.50   1
  -7   0   4   -0.19    0.77   1
   7   0  -4   -0.42    0.75   3
  -6   0   4  258.22    4.96   2
  -6   0   4  247.72    5.33   1
   6   0  -4  252.10    5.41   3
   5   0  -4    0.52    0.56   3
   5   0  -4    0.42    0.48   2
  -5   0   4    0.45    0.63   1
   4   0  -4    0.25    0.47   3
   4   0  -4    0.38    0.38   2
  -4   0   4    0.58    0.59   1
   3   0  -4    0.01    0.31   2
   3   0  -4    0.10    0.36   3
  -3   0   4    0.20    0.28   4
  -3   0   4   -0.27    0.47   1
   2   0  -4    2.41    0.41   3
  -2   0   4    2.43    0.42   4
  -2   0   4    2.04    0.50   1
   2   0  -4    2.30    0.39   2
  -1   0   4   -0.35    0.32   1
   1   0  -4    0.03    0.27   2
  -1   0   4   -0.29    0.34   4
   1   0  -4    1.88    0.33   3
   0   0  -4    1.88    0.45   2
   0   0  -4    4.16    0.40   3
   0   0   4    2.67    0.41   1
   0   0   4    2.01    0.52   4
  -1   0  -4    0.34    0.30   3
  -1   0  -4   -0.38    0.40   2
   1   0   4    0.09    0.32   1
   1   0   4    0.25    0.25   5
   1   0   4   -0.52    0.52   4
   2   0   4   31.27    1.16   3
   2   0   4   31.37    1.55   4
  -2   0  -4   31.14    1.49   2
   3   0   4   -0.29    0.69   4
  -3   0  -4    0.11    0.60   2
  -4   0  -4  390.41    7.56   2
   4   0   4  375.92    7.36   4
  -5   0  -4    0.67    0.91   2
   5   0   4    1.40    0.99   4
  -8   1   4   36.59    2.08   1
   8   1  -4   35.85    2.12   3
   8  -1  -4   33.04    2.04   3
  -8  -1   4   34.77    2.06   1
  -7  -1   4   86.97    2.89   1
   7  -1  -4   91.24    2.99   3
   7   1  -4   90.49    2.99   3
  -7   1   4   90.53    2.93   1
  -6   1   4    2.16    0.81   1
   6   1  -4    3.74    0.81   3
  -6  -1   4    2.47    0.84   1
   6  -1  -4    1.46    0.70   3
  -6   1   4    2.38    0.69   2
   5   1  -4   12.77    1.04   3
   5  -1  -4   12.78    1.03   3
  -5  -1   4   12.46    1.06   1
  -5   1   4   11.44    1.03   1
   5  -1  -4   12.33    0.91   2
   4   1  -4   13.51    1.05   3
   4   1  -4   13.61    0.84   2
  -4   1   4   14.58    1.06   1
   4  -1  -4   13.06    0.90   2
  -4  -1   4   13.81    1.14   1
   4  -1  -4   13.94    1.03   3
  -3  -1   4   42.43    1.16   4
   3  -1  -4   40.41    1.29   2
   3   1  -4   41.22    1.40   3
  -3  -1   4   41.76    1.49   1
  -3   1   4   41.66    1.07   4
   3   1  -4   40.24    1.22   2
  -3   1   4   39.54    1.47   1
   3  -1  -4   39.28    1.35   3
   2   1  -4  470.72    7.87   3
  -2   1   4  473.08    7.96   1
   2  -1  -4  472.48    7.78   2
  -2  -1   4  479.59    7.54   4
   2   1  -4  480.14    7.70   2
  -2  -1   4  467.45    7.92   1
   2  -1  -4  470.82    7.80   3
  -2   1   4  476.01    7.49   4
  -1   1   4   19.79    0.92   1
   1   1  -4   19.19    0.82   3
   1  -1  -4   19.65    0.78   3
  -1  -1   4   17.88    0.93   4
  -1   1   4   17.63    0.96   4
   1  -1  -4   19.58    0.89   2
  -1  -1   4   20.74    0.90   1
   1   1  -4   19.34    0.88   2
   0   1   4   40.51    1.43   4
   0  -1   4   39.50    1.12   1
   0  -1   4   40.01    1.42   4
   0   1  -4   39.75    1.15   3
   0   1  -4   38.63    1.31   2
   0  -1  -4   40.31    1.07   3
   0   1   4   40.00    1.17   1
   0  -1  -4   39.16    1.33   2
   1  -1   4  412.00    7.17   4
   1   1   4  410.52    7.17   4
  -1   1  -4  414.61    7.24   2
  -1  -1  -4  418.46    7.25   2
   1  -1   4  407.78    6.70   1
   1   1   4  414.52    5.55   5
  -1  -1  -4  420.31    6.85   3
   1   1   4  429.62    6.89   1
   2  -1   4  144.31    3.38   4
  -2  -1  -4  153.26    3.41   2
   2  -1   4  138.91    2.98   3
   2   1   4  146.37    3.41   4
  -2   1  -4  144.92    3.37   2
   3  -1   4   32.13    1.64   4
   3   1   4   28.48    1.63   4
  -3  -1  -4   31.78    1.61   2
  -3   1  -4   30.41    1.58   2
  -4   1  -4    8.09    1.09   2
   4   1   4    9.68    1.19   4
  -4  -1  -4    6.94    1.09   2
   4  -1   4    9.14    1.19   4
  -5   1  -4    7.77    1.23   2
  -5  -1  -4    5.65    1.14   2
   5  -1   4    5.73    1.18   4
   5   1   4    5.38    1.21   4
   7  -2  -4   36.23    1.92   3
  -7   2   4   41.90    2.03   1
  -7  -2   4   36.91    1.92   1
   7   2  -4   35.44    1.91   3
  -7   2   4   37.37    1.78   2
   6  -2  -4    1.26    0.68   3
   6   2  -4    0.59    0.63   3
  -6   2   4    1.41    0.79   1
  -6  -2   4    0.64    0.70   1
  -6   2   4    0.23    0.65   2
   5  -2  -4  261.55    5.08   2
  -5  -2   4  259.84    5.31   1
   5  -2  -4  272.84    5.35   3
   5   2  -4  258.71    5.32   3
  -4   2   4  441.29    7.89   1
  -4  -2   4  451.18    7.90   1
   4   2  -4  447.21    7.86   3
   4  -2  -4  446.02    7.81   3
   4   2  -4  449.83    7.38   2
   4  -2  -4  436.47    7.62   2
  -3   2   4   56.37    1.26   4
  -3  -2   4   60.49    1.80   1
   3  -2  -4   55.54    1.60   2
  -3  -2   4   58.16    1.45   4
   3  -2  -4   56.57    1.63   3
  -3   2   4   56.41    1.79   1
   3   2  -4   59.77    1.71   3
   3   2  -4   58.75    1.47   2
  -2  -2   4   86.39    1.94   4
   2   2  -4   86.30    1.87   2
   2   2  -4   85.64    2.02   3
  -2   2   4   88.67    2.14   1
  -2   2   4   86.38    1.86   4
   2  -2  -4   89.26    2.03   2
  -2  -2   4   83.97    2.04   1
   2  -2  -4   88.64    1.95   3
  -1   2   4  377.81    6.19   4
  -1  -2   4  370.97    6.24   1
   1  -2  -4  374.25    6.35   2
   1  -2  -4  373.77    6.12   3
   1   2  -4  373.61    6.31   3
  -1  -2   4  375.35    6.26   4
   1   2  -4  371.59    6.23   2
  -1   2   4  369.56    6.37   1
   0  -2  -4   17.09    0.97   2
   0   2   4   18.81    1.08   4
   0   2   4   19.50    0.72   5
   0  -2  -4   19.43    0.71   3
   0  -2   4   20.34    0.79   1
   0   2  -4   16.81    0.94   2
   0  -2   4   19.56    1.08   4
   0   2  -4   19.41    0.84   3
   0   2   4   21.05    0.91   1
  -1  -2  -4  203.90    4.07   2
  -1  -2  -4  205.26    3.76   1
   1   2   4  209.17    4.11   4
  -1   2  -4  200.47    4.05   2
   1  -2   4  209.32    4.10   4
  -1  -2  -4  204.12    3.57   3
   1  -2   4  195.90    3.81   3
   2  -2   4   21.86    1.35   4
   2  -2   4   21.94    1.04   3
  -2  -2  -4   21.92    1.27   2
  -2   2  -4   20.05    1.26   2
   2   2   4   20.35    1.39   4
  -3   2  -4   13.85    1.15   2
   3  -2   4   17.08    1.07   3
  -3  -2  -4   15.12    1.26   2
   3   2   4   17.83    1.33   4
   3  -2   4   15.29    1.19   4
   4  -2   4    6.69    1.07   4
  -4  -2  -4    4.75    0.99   2
  -4   2  -4    6.69    1.03   2
   4   2   4    6.00    1.08   4
  -5  -2  -4   24.91    1.79   2
  -5   2  -4   26.49    1.87   2
   5  -2   4   27.83    1.99   4
   5   2   4   27.73    1.98   4
   7  -3  -4   89.01    2.99   3
  -7  -3   4   92.94    3.01   1
   7   3  -4   91.82    3.02   3
  -7   3   4   91.88    2.73   2
  -7   3   4   95.58    3.02   1
   6  -3  -4   54.61    2.09   3
  -6   3   4   52.94    1.98   2
  -6  -3   4   50.82    2.07   1
   6   3  -4   53.95    2.07   3
  -6   3   4   53.59    2.08   1
   5  -3  -4    4.53    0.78   3
   5   3  -4    4.62    0.77   3
  -5  -3   4    5.13    0.86   1
   5  -3  -4    5.93    0.76   2
  -5   3   4    4.43    0.82   1
   4   3  -4  326.25    5.97   3
   4  -3  -4  310.53    5.77   2
  -4   3   4  312.74    5.98   1
   4  -3  -4  319.85    5.89   3
  -4  -3   4  319.22    5.32   4
  -4  -3   4  316.90    5.97   1
  -3  -3   4   19.73    0.86   4
   3  -3  -4   18.30    0.97   3
  -3  -3   4   20.24    1.12   1
   3   3  -4   19.92    0.81   2
   3   3  -4   19.35    1.03   3
  -3   3   4   18.68    1.14   1
   3  -3  -4   19.78    0.99   2
   2   3  -4   74.76    1.66   2
  -2  -3   4   72.23    1.87   1
   2  -3  -4   75.64    1.74   3
  -2  -3   4   76.96    1.81   4
  -2   3   4   74.35    1.68   4
  -2   3   4   73.84    1.95   1
   2  -3  -4   75.67    1.87   2
   2   3  -4   75.67    1.87   3
  -1  -3   4  104.07    2.17   1
  -1  -3   4  105.19    2.34   4
   1   3  -4  104.52    2.27   3
   1  -3  -4  104.73    2.02   3
  -1   3   4  102.15    2.32   1
   1   3  -4  104.17    2.19   2
   1  -3  -4  102.34    2.31   2
  -1   3   4  102.36    2.27   4
   0   3   4   11.66    0.78   1
   0   3  -4   12.02    0.74   3
   0   3   4   12.23    1.00   4
   0   3  -4   12.41    0.86   2
   0  -3  -4   12.42    0.57   3
   0  -3   4   13.08    0.92   4
   0  -3  -4   10.77    0.84   2
   0  -3   4   12.09    0.69   1
   0   3   4   12.26    0.61   5
  -1  -3  -4   19.07    1.10   2
   1   3   4   21.27    1.26   4
   1  -3   4   17.90    1.19   4
  -1  -3  -4   19.12    0.90   1
  -1   3  -4   18.84    1.12   2
  -1  -3  -4   19.68    0.70   3
   1  -3   4   20.22    0.93   3
   2  -3   4   16.71    1.24   4
   2   3   4   15.02    1.15   4
  -2   3  -4   14.81    1.15   2
  -2  -3  -4   16.85    1.19   2
   2  -3   4   16.87    0.97   3
   3   3   4    5.57    0.98   4
  -3   3  -4    7.13    0.95   2
  -3  -3  -4    5.22    0.84   2
   3  -3   4    6.56    0.78   3
   3  -3   4    6.54    0.95   4
  -4   3  -4    7.37    1.07   2
  -4  -3  -4    7.21    1.09   2
   4  -3   4    8.17    1.13   4
   4   3   4    7.18    1.14   4
  -5   3  -4    1.16    0.96   2
  -5  -3  -4    1.11    0.95   2
   5  -3   4    0.79    0.93   4
   5   3   4    1.46    1.05   4
  -7   4   4   11.95    1.17   2
   7   4  -4   10.59    1.20   3
  -7  -4   4   14.00    1.36   1
  -7   4   4   11.67    1.26   1
   7  -4  -4   10.26    1.23   3
   6  -4  -4    9.80    1.05   3
  -6   4   4   11.25    1.14   1
   6   4  -4    8.67    1.00   3
  -6  -4   4   10.37    1.10   1
   5   4  -4  206.32    4.48   3
   5  -4  -4  209.68    4.36   2
  -5  -4   4  203.35    4.48   1
  -4  -4   4   46.09    1.40   4
   4  -4  -4   41.90    1.54   2
  -4  -4   4   46.75    1.79   1
  -4   4   4   45.93    1.76   1
   4  -4  -4   43.16    1.58   3
   4   4  -4   45.72    1.71   3
   3   4  -4    4.09    0.40   2
   3  -4  -4    3.42    0.51   3
  -3   4   4    5.22    0.70   1
   3  -4  -4    3.93    0.54   2
  -3  -4   4    4.51    0.53   4
   3   4  -4    3.97    0.59   3
  -3  -4   4    3.30    0.62   1
  -2  -4   4  184.27    3.58   1
   2   4  -4  188.61    3.30   2
   2  -4  -4  187.75    3.65   2
   2  -4  -4  188.86    3.44   3
  -2   4   4  187.59    3.74   1
  -2   4   4  189.55    3.32   4
  -2  -4   4  183.15    3.51   4
   1  -4  -4  228.18    3.86   3
  -1  -4   4  223.63    4.19   4
  -1   4   4  231.17    4.11   4
   1   4  -4  231.10    4.05   2
   1  -4  -4  222.59    4.23   2
  -1   4   4  225.21    4.26   1
   1   4  -4  226.99    4.24   3
  -1  -4   4  234.75    4.04   1
   0   4   4   54.93    1.72   4
   0   4  -4   56.10    1.60   2
   0   4  -4   53.98    1.54   3
   0   4   4   57.36    1.60   1
   0  -4   4   55.96    1.27   1
   0  -4   4   55.70    1.72   4
   0   4   4   55.65    1.27   5
   1  -4   4   16.30    1.12   4
  -1   4  -4   18.75    1.08   2
   1   4   4   18.61    1.23   4
   1  -4   4   15.95    0.88   3
  -1  -4  -4   17.26    1.06   2
  -1  -4  -4   16.25    0.88   1
  -2   4  -4    0.85    0.60   2
  -2  -4  -4    0.85    0.47   1
   2  -4   4   -0.18    0.55   4
   2   4   4    1.02    0.74   4
  -2  -4  -4    0.39    0.54   2
   2  -4   4    2.40    0.56   3
   3  -4   4   73.96    2.21   3
   3   4   4   77.29    2.51   4
  -3  -4  -4   76.75    2.43   2
  -3   4  -4   72.63    2.40   2
   3  -4   4   78.48    2.44   4
   4  -4   4    9.70    1.15   4
  -4   4  -4   11.10    1.19   2
   4   4   4    8.58    1.18   4
  -4  -4  -4   10.80    1.17   2
  -5   4  -4  375.29    7.93   2
   5  -4   4  390.88    7.69   4
   5   4   4  396.18    7.92   4
  -5  -4  -4  387.80    7.85   2
  -7   5   4    0.35    0.83   1
  -7  -5   4   -1.11    0.79   1
  -7   5   4   -0.28    0.72   2
   7   5  -4   -0.04    0.74   3
   7  -5  -4   -0.52    0.73   3
   6  -5  -4   74.59    2.48   3
   6   5  -4   74.60    2.52   3
  -6   5   4   79.03    2.56   1
   6  -5  -4   76.38    2.47   2
  -6  -5   4   74.11    2.51   1
   5   5  -4  240.72    4.37   4
   5  -5  -4  241.65    4.90   2
   5   5  -4  233.55    4.96   3
   4  -5  -4  252.41    4.94   3
   4  -5  -4  247.22    4.95   2
  -4  -5   4  257.32    4.58   4
  -4  -5   4  259.49    5.06   1
   4   5  -4  255.48    5.04   3
  -4   5   4  256.67    5.11   1
  -3  -5   4   10.54    0.86   1
  -3   5   4   10.23    0.89   1
   3   5  -4    9.24    0.79   3
   3  -5  -4    9.67    0.77   3
  -3  -5   4    8.85    0.69   4
   3  -5  -4    9.27    0.75   2
  -2  -5   4   35.97    1.30   1
   2  -5  -4   37.46    1.12   3
   2   5  -4   38.52    1.34   3
  -2   5   4   36.19    1.38   1
  -2   5   4   36.96    1.19   4
  -2  -5   4   36.03    1.29   4
   2  -5  -4   36.52    1.32   2
   2   5  -4   38.84    1.03   2
   1   5  -4 1365.16   20.82   2
  -1  -5   4 1339.00   20.59   4
   1   5  -4 1337.08   21.33   3
  -1   5   4 1361.85   20.45   4
  -1  -5   4 1394.05   21.04   1
   1  -5  -4 1364.98   20.90   3
   1  -5  -4 1354.37   21.11   2
  -1   5   4 1361.05   21.35   1
   0   5   4   89.23    2.24   4
   0  -5   4   84.20    1.70   1
   0  -5  -4   87.94    2.20   2
   0  -5  -4   88.57    2.14   1
   0  -5   4   86.68    2.24   4
   0   5  -4   88.04    2.13   3
   0   5  -4   87.34    2.11   2
   1   5   4    0.95    0.61   4
  -1   5  -4    0.76    0.51   2
   1  -5   4    1.22    0.59   4
   1  -5   4    1.08    0.41   3
  -1  -5  -4    1.14    0.46   1
  -1  -5  -4    0.33    0.45   2
  -2  -5  -4  464.29    8.11   2
   2  -5   4  458.99    8.01   3
  -2  -5  -4  451.46    7.82   1
   2  -5   4  450.59    8.01   4
  -2   5  -4  458.01    8.13   2
   2   5   4  458.37    8.09   4
   3   5   4    3.20    0.87   4
  -3   5  -4    3.24    0.80   2
   3  -5   4    3.82    0.83   4
  -3  -5  -4    4.06    0.80   2
   3  -5   4    3.93    0.70   3
   4  -5   4   24.00    1.44   3
   4  -5   4   25.34    1.62   4
   4   5   4   21.55    1.67   4
  -4   5  -4   24.74    1.65   2
  -4  -5  -4   22.26    1.58   2
  -5  -5  -4    9.26    1.27   2
   5  -5   4   11.22    1.35   4
   5   5   4   10.47    1.40   4
  -5   5  -4    9.64    1.31   2
   7  -6  -4   20.28    1.59   3
   7   6  -4   18.03    1.52   3
  -7   6   4   21.37    1.59   1
  -7   6   4   23.17    1.54   2
  -7  -6   4   19.96    1.57   1
  -6   6   4    5.40    0.97   1
  -6  -6   4    7.21    0.99   1
   6  -6  -4    5.78    0.92   3
   6   6  -4    6.08    0.95   3
   6  -6  -4    6.46    0.96   2
  -5   6   4    1.77    0.70   1
   5  -6  -4    2.03    0.67   2
   5   6  -4    2.14    0.70   3
   5   6  -4    2.70    0.55   4
  -5  -6   4    1.52    0.70   1
   5  -6  -4    1.66    0.64   3
  -4  -6   4  840.76   14.00   1
  -4  -6   4  848.87   13.23   4
   4  -6  -4  849.82   13.89   3
   4   6  -4  852.17   14.02   3
  -4   6   4  848.67   14.06   1
   4  -6  -4  839.08   13.88   2
   3  -6  -4  635.56   10.61   2
   3  -6  -4  635.79   10.48   3
   3   6  -4  639.52   10.69   3
  -3   6   4  635.15   10.77   1
  -3  -6   4  646.85   10.21   4
  -3  -6   4  636.39   10.63   1
  -2  -6   4  416.12    7.22   1
  -2  -6   4  418.81    7.13   4
  -2   6   4  435.05    6.82   4
   2   6  -4  421.93    6.78   2
   2  -6  -4  429.74    7.37   2
   2   6  -4  430.28    7.40   3
  -2   6   4  431.10    7.49   1
   2  -6  -4  427.41    7.03   3
  -1   6   4    0.93    0.48   4
   1   6  -4    0.60    0.39   3
   1  -6  -4    0.54    0.40   2
  -1   6   4    0.78    0.35   5
   1   6  -4    0.94    0.34   2
  -1  -6   4    0.12    0.38   1
  -1   6   4    0.73    0.42   1
  -1  -6   4    0.59    0.44   4
   0  -6   4  326.86    5.81   4
   0  -6  -4  318.12    5.82   2
   0   6   4  325.84    5.75   4
   0   6  -4  330.59    5.85   3
   0   6  -4  319.96    5.66   2
   0  -6  -4  325.71    5.83   1
   1  -6   4   29.43    1.22   3
   1   6   4   29.94    1.47   4
  -1  -6  -4   31.75    1.25   1
   1  -6   4   29.33    1.40   4
  -1   6  -4   26.01    1.29   2
  -1  -6  -4   34.44    1.40   2
   2   6   4    0.73    0.68   4
  -2   6  -4    1.34    0.61   2
  -2  -6  -4   -0.39    0.52   2
  -2  -6  -4    0.66    0.51   1
   2  -6   4    1.48    0.54   3
   2  -6   4    0.35    0.60   4
   3   6   4  104.98    3.05   4
  -3  -6  -4  113.66    2.99   2
   3  -6   4  104.82    2.80   3
  -3   6  -4  107.26    2.99   2
   3  -6   4  105.31    2.95   4
   4  -6   4   -0.31    0.73   4
   4  -6   4   -0.17    0.65   3
  -4   6  -4   -0.26    0.78   2
  -4  -6  -4   -0.46    0.70   2
   4   6   4   -0.40    0.79   4
   5  -6   4   11.82    1.34   4
   5   6   4   10.32    1.46   4
  -5   6  -4    9.84    1.36   2
  -5  -6  -4   11.93    1.36   2
  -7  -7   4   43.00    2.11   1
   7  -7  -4   42.07    2.10   3
   7   7  -4   40.52    2.06   3
  -7   7   4   40.48    1.95   2
  -7   7   4   45.61    2.14   1
   6   7  -4   42.86    1.93   3
  -6  -7   4   41.25    1.90   1
   6  -7  -4   39.30    1.89   2
   6  -7  -4   43.10    1.91   3
  -6   7   4   41.34    1.91   1
   5   7  -4   34.98    1.63   3
  -5   7   4   35.76    1.68   1
   5  -7  -4   34.47    1.64   2
  -5  -7   4   36.74    1.75   1
   5  -7  -4   37.40    1.68   3
  -4  -7   4  127.09    3.11   1
   4  -7  -4  119.07    3.04   2
  -4  -7   4  126.12    2.84   4
  -4   7   4  127.43    3.13   1
   4   7  -4  122.38    3.04   3
   4  -7  -4  125.74    2.97   3
  -3  -7   4 2039.06   31.49   1
   3  -7  -4 2037.08   31.35   3
  -3  -7   4 2024.46   30.31   4
  -3   7   4 2015.33   31.65   1
   3  -7  -4 2004.10   31.25   2
   3   7  -4 2038.89   31.60   3
  -2   7   4    0.46    0.43   4
  -2  -7   4   -0.23    0.42   1
   2  -7  -4    0.14    0.42   2
   2  -7  -4   -0.44    0.32   3
  -2  -7   4    0.52    0.43   4
  -2   7   4    0.70    0.48   1
   2   7  -4    0.21    0.40   3
  -1   7   4   -0.59    0.39   1
  -1   7   4   -0.17    0.43   4
   1  -7  -4    0.31    0.39   2
  -1  -7   4   -0.19    0.35   1
   1   7  -4    0.70    0.37   3
  -1  -7   4    0.34    0.46   4
  -1   7   4    0.07    0.34   5
   1   7  -4    0.23    0.32   2
   0  -7  -4  254.52    4.81   1
   0  -7   4  257.33    4.80   4
   0   7  -4  252.55    4.81   3
   0   7   4  258.42    4.76   4
   0   7  -4  245.49    4.59   2
   0  -7  -4  251.64    4.79   2
  -1  -7  -4    1.57    0.54   1
  -1  -7  -4    1.14    0.49   2
   1  -7   4    0.73    0.47   3
   1   7   4    1.35    0.64   4
  -1   7  -4    1.89    0.59   2
   1  -7   4    0.32    0.56   4
  -2   7  -4   22.66    1.32   2
  -2  -7  -4   25.02    1.23   1
  -2  -7  -4   26.09    1.36   2
   2  -7   4   22.21    1.36   4
   2  -7   4   26.19    1.31   3
   2   7   4   22.90    1.45   4
  -3   7  -4   20.26    1.39   2
   3  -7   4   21.96    1.28   3
   3  -7   4   18.78    1.32   4
   3   7   4   21.93    1.55   4
  -3  -7  -4   21.81    1.40   2
  -4   7  -4   20.50    1.56   2
   4  -7   4   21.23    1.43   3
   4   7   4   23.81    1.75   4
   4  -7   4   22.95    1.52   4
  -4  -7  -4   20.92    1.49   2
  -5  -7  -4    3.54    1.02   2
   5  -7   4    4.90    1.08   4
   5   7   4    2.61    1.12   4
  -5   7  -4    1.26    0.98   2
   7   8  -4   28.84    1.76   3
  -7   8   4   30.34    1.83   1
  -7  -8   4   27.82    1.77   1
  -7   8   4   28.71    1.75   2
   7  -8  -4   25.25    1.72   3
   6   8  -4   41.38    1.92   3
  -6  -8   4   42.73    1.95   1
   6  -8  -4   43.25    1.96   2
  -6   8   4   41.79    1.94   1
   6  -8  -4   44.80    1.97   3
  -5  -8   4   19.48    1.37   1
   5   8  -4   18.81    1.28   3
   5  -8  -4   17.65    1.29   2
   5  -8  -4   19.25    1.36   3
  -5   8   4   18.56    1.35   1
   4   8  -4   13.40    1.04   3
   4  -8  -4   12.81    1.05   2
  -4  -8   4   10.69    0.90   4
  -4   8   4   12.96    1.05   1
  -4  -8   4   13.43    1.10   1
   4  -8  -4   14.07    1.01   3
  -3  -8   4   65.76    1.97   4
  -3  -8   4   59.77    2.00   1
   3  -8  -4   62.87    2.02   2
   3  -8  -4   61.08    1.84   3
  -3   8   4   67.60    2.10   1
   2  -8  -4    6.66    0.55   3
   2  -8  -4    8.18    0.77   2
   2   8  -4    7.32    0.73   3
  -2   8   4    7.71    0.78   1
  -2  -8   4   10.40    0.78   1
  -2  -8   4    7.72    0.74   4
  -2   8   4    6.02    0.62   4
  -1   8   4   74.75    2.12   1
   1   8  -4   81.03    2.11   3
  -1  -8   4   78.47    2.12   4
  -1   8   4   74.26    1.94   4
  -1  -8   4   78.35    1.81   1
   1   8  -4   79.55    1.78   2
  -1   8   4   76.03    1.72   5
   1  -8  -4   77.38    2.10   2
   0   8  -4   83.89    2.06   2
   0  -8   4   86.42    2.32   4
   0  -8  -4   86.67    2.24   2
   0  -8  -4   82.07    2.21   1
   0   8   4   83.65    2.22   4
   0   8  -4   84.76    2.23   3
  -1  -8  -4   34.10    1.41   1
   1   8   4   33.30    1.53   4
   1  -8   4   36.13    1.54   4
   1  -8   4   30.68    1.35   3
  -1  -8  -4   36.12    1.45   2
  -1   8  -4   35.56    1.44   2
   2  -8   4    1.18    0.63   4
  -2  -8  -4    1.10    0.56   2
  -2   8  -4    1.14    0.63   2
  -2  -8  -4    0.42    0.53   1
   2   8   4    0.71    0.75   4
   2  -8   4    1.09    0.58   3
  -3   8  -4   16.58    1.31   2
  -3  -8  -4   16.74    1.29   2
   3  -8   4   16.82    1.27   4
   3   8   4   16.93    1.38   4
   3  -8   4   16.15    1.20   3
  -4   8  -4   81.13    2.81   2
   4  -8   4   81.78    2.66   3
  -4  -8  -4   83.36    2.70   2
   4  -8   4   79.54    2.65   4
   4   8   4   77.13    2.83   4
   7  -9  -4    0.34    0.80   3
  -7   9   4   -0.02    0.80   2
  -7  -9   4    0.64    0.85   1
   7   9  -4    0.27    0.77   3
  -7   9   4   -0.15    0.90   1
   6  -9  -4    9.53    1.11   3
  -6  -9   4   10.13    1.12   1
  -6   9   4    7.96    1.09   1
   6   9  -4    9.87    1.13   3
   6  -9  -4    7.54    1.08   2
   5  -9  -4   37.15    1.75   2
  -5   9   4   38.06    1.75   1
   5   9  -4   36.89    1.69   3
  -5  -9   4   41.34    1.82   1
   5  -9  -4   38.36    1.74   3
  -5  -9   4   40.80    1.63   4
   4  -9  -4  171.25    3.74   3
   4  -9  -4  170.34    3.94   2
  -4  -9   4  173.22    3.70   4
  -3   9   4   87.41    2.50   1
  -3  -9   4   87.21    2.40   1
  -3  -9   4   93.67    2.43   4
   3  -9  -4   86.29    2.23   3
   3   9  -4   90.68    2.46   3
   3  -9  -4   90.21    2.51   2
  -2   9   4 1256.24   19.85   1
   2  -9  -4 1257.84   19.65   2
   2   9  -4 1239.22   19.78   3
   2  -9  -4 1271.00   19.26   3
  -2  -9   4 1214.21   19.12   4
  -2  -9   4 1217.71   19.50   1
  -2   9   4 1237.71   16.05   5
  -2   9   4 1209.99   18.61   4
   1  -9  -4   16.88    1.06   2
  -1  -9   4   17.57    1.09   4
   1   9  -4   19.24    1.07   3
  -1   9   4   17.18    0.93   5
  -1   9   4   16.49    0.99   4
  -1   9   4   15.61    1.11   1
  -1  -9   4   17.29    0.92   1
   0   9  -4    6.69    0.73   3
   0  -9  -4   10.17    0.81   2
   0  -9  -4    6.65    0.76   1
   0  -9   4    6.41    0.77   4
   0   9  -4    6.21    0.65   2
   0   9   4    6.22    0.75   4
   1   9   4  355.45    6.58   4
  -1  -9  -4  348.46    6.57   1
  -1  -9  -4  367.80    6.61   2
   1  -9   4  367.62    6.60   4
  -1   9  -4  361.73    6.49   2
  -2  -9  -4    0.24    0.58   1
   2  -9   4    0.29    0.56   3
   2  -9   4    0.16    0.60   4
  -2  -9  -4    0.27    0.54   2
  -2   9  -4   -0.02    0.58   2
   2   9   4    0.06    0.66   4
   3   9   4   25.30    1.69   4
   3  -9   4   26.36    1.52   4
   3  -9   4   27.71    1.49   3
  -3   9  -4   29.88    1.63   2
  -3  -9  -4   27.28    1.49   1
  -3  -9  -4   25.11    1.45   2
  -4  -9  -4    9.66    1.12   2
   4   9   4    6.68    1.22   4
  -4   9  -4    8.79    1.20   2
   4  -9   4    8.81    1.10   3
   4  -9   4    8.14    1.11   4
   7  10  -4   -0.10    0.78   3
   7 -10  -4    1.06    0.87   3
  -7 -10   4   -0.69    0.85   1
  -7  10   4   -0.66    0.83   2
  -6  10   4   86.48    2.79   1
   6  10  -4   82.73    2.77   3
   6 -10  -4   86.55    2.77   3
   6 -10  -4   91.22    2.93   2
  -6 -10   4   82.54    2.80   1
   5 -10  -4    3.62    0.78   3
  -5 -10   4    5.15    0.85   1
  -5 -10   4    4.99    0.78   4
  -5  10   4    4.96    0.92   1
   5  10  -4    4.01    0.80   3
   5 -10  -4    5.68    0.88   2
   4 -10  -4    2.14    0.64   3
  -4  10   4    2.88    0.73   1
   4  10  -4    3.64    0.71   3
   4 -10  -4    3.15    0.76   2
  -4 -10   4    2.53    0.74   1
  -4 -10   4    1.30    0.62   4
   3 -10  -4   68.31    2.23   2
  -3 -10   4   73.59    2.19   4
   3  10  -4   74.15    2.21   3
  -3  10   4   71.95    2.26   1
   3 -10  -4   69.99    1.94   3
  -3 -10   4   72.53    2.17   1
   2 -10  -4  737.43   12.32   2
   2  10  -4  749.77   12.37   3
  -2  10   4  745.56   10.07   5
  -2 -10   4  711.42   12.00   4
  -2 -10   4  738.78   12.09   1
  -2  10   4  743.23   12.44   1
   2 -10  -4  756.79   11.79   3
  -1  10   4   48.32    1.78   1
   1  10  -4   48.10    1.68   3
  -1 -10   4   46.40    1.67   4
  -1  10   4   46.75    1.57   4
  -1  10   4   50.49    1.46   5
  -1 -10   4   49.21    1.41   1
   1 -10  -4   47.99    1.67   2
   0  10  -4  227.75    4.57   3
   0  10   4  213.82    4.37   4
   0 -10   4  227.56    4.53   4
   0 -10  -4  212.96    4.50   1
   0  10  -4  225.64    4.22   2
   0 -10  -4  233.21    4.53   2
   1 -10   4    9.64    0.93   4
   1  10   4    9.92    0.97   4
  -1  10  -4   11.24    0.93   3
  -1 -10  -4    9.94    0.87   2
  -1 -10  -4   10.32    0.91   1
  -1  10  -4   10.63    0.89   2
  -2  10  -4   36.30    1.63   2
  -2 -10  -4   40.11    1.62   2
   2  10   4   36.70    1.79   4
   2 -10   4   37.80    1.66   3
   2 -10   4   38.16    1.69   4
  -2 -10  -4   38.04    1.65   1
  -3 -10  -4   99.05    2.78   1
   3 -10   4   97.14    2.78   4
   3  10   4   87.94    2.92   4
   3 -10   4   92.26    2.78   3
  -3 -10  -4   88.01    2.65   2
  -3  10  -4   86.73    2.79   2
   4  10   4   30.91    1.98   4
  -4  10  -4   29.92    1.86   2
   4 -10   4   29.25    1.70   3
  -4 -10  -4   33.24    1.71   2
   4 -10   4   31.22    1.74   4
   7  11  -4   -0.36    0.82   3
  -7  11   4   -0.10    0.83   2
   7 -11  -4    0.70    0.90   3
  -7 -11   4    1.36    0.84   1
   6 -11  -4   11.58    1.26   2
   6  11  -4   13.83    1.27   3
  -6  11   4   13.68    1.31   1
   6 -11  -4   12.61    1.21   3
  -6 -11   4   10.20    1.20   1
   5 -11  -4   38.56    1.70   3
  -5 -11   4   42.81    1.73   4
   5 -11  -4   40.23    1.88   2
  -5  11   4   39.57    1.85   1
   5  11  -4   39.98    1.78   3
  -5 -11   4   40.72    1.85   1
  -4 -11   4  294.59    5.63   4
   4 -11  -4  283.04    5.88   2
  -4  11   4  280.90    5.83   1
   4 -11  -4  294.33    5.59   3
   4  11  -4  291.47    5.81   3
  -4 -11   4  299.48    5.83   1
   3 -11  -4  555.04    9.21   3
   3 -11  -4  547.17    9.65   2
  -3 -11   4  548.81    9.47   1
  -3 -11   4  540.16    9.30   4
   2  11  -4   44.24    1.67   3
  -2  11   4   47.15    1.79   1
   2 -11  -4   47.61    1.77   2
  -2 -11   4   45.83    1.75   4
  -2  11   4   44.52    1.42   5
  -2 -11   4   45.96    1.59   1
  -1 -11   4    4.88    0.57   1
  -1 -11   4    5.08    0.72   4
   1 -11  -4    4.70    0.69   2
  -1  11   4    4.42    0.69   4
   1  11  -4    5.15    0.69   3
   0  11  -4    5.95    0.74   3
   0  11   4    5.87    0.80   4
   0 -11  -4    6.59    0.80   1
   0 -11   4    6.57    0.82   4
   0 -11  -4    5.27    0.72   2
   0  11  -4    5.75    0.66   2
  -1  11  -4  352.06    6.64   3
  -1  11  -4  338.64    6.29   2
   1  11   4  348.34    6.49   4
  -1 -11  -4  338.42    6.51   1
  -2  11  -4    8.28    0.92   2
   2 -11   4    6.11    0.89   4
  -2 -11  -4    6.46    0.89   1
  -2 -11  -4    6.32    0.84   2
   2 -11   4    7.04    0.89   3
   2  11   4    5.12    0.93   4
  -3 -11  -4    4.45    0.88   1
  -3 -11  -4    4.44    0.83   2
   3  11   4    1.32    0.95   4
   3 -11   4    3.12    0.86   4
  -3  11  -4    2.74    0.86   2
   3 -11   4    4.17    0.86   3
   4  11   4   56.24    2.57   4
   4 -11   4   58.30    2.35   3
  -4 -11  -4   54.72    2.19   2
   4 -11   4   55.47    2.29   4
  -4  11  -4   57.15    2.48   2
   6 -12  -4   12.01    1.30   2
   6  12  -4   13.79    1.22   4
   6  12  -4   12.30    1.25   3
  -6 -12   4   13.43    1.29   1
  -6  12   4   13.91    1.35   1
   6 -12  -4   13.28    1.26   3
  -5 -12   4    0.74    0.73   1
   5 -12  -4    1.70    0.78   2
   5  12  -4    1.77    0.72   3
   5 -12  -4    2.36    0.71   3
  -5  12   4    0.93    0.76   1
  -4 -12   4   80.78    2.44   4
   4 -12  -4   85.18    2.66   2
  -4  12   4   81.16    2.56   1
   4  12  -4   79.53    2.48   3
   4 -12  -4   85.10    2.37   3
  -4 -12   4   83.31    2.52   1
   3 -12  -4    5.61    0.83   2
   3  12  -4    5.15    0.77   3
   3 -12  -4    2.86    0.60   3
  -3  12   4    5.12    0.83   1
  -3 -12   4    4.35    0.75   1
  -3 -12   4    2.81    0.74   4
   2 -12  -4   32.04    1.52   2
  -2  12   4   31.94    1.23   5
  -2 -12   4   30.39    1.49   4
  -2 -12   4   29.30    1.32   1
   2  12  -4   31.70    1.44   3
  -2  12   4   31.45    1.51   1
   1 -12  -4  143.79    3.36   2
  -1 -12   4  139.91    3.37   4
   1  12  -4  144.46    3.37   3
  -1 -12   4  144.19    2.93   1
  -1  12   4  141.65    3.12   4
   1 -12  -4  140.22    3.40   1
   0 -12  -4   27.31    1.34   2
   0  12  -4   27.47    1.37   3
   0  12   4   24.43    1.33   4
   0 -12  -4   25.56    1.35   1
   0 -12   4   26.41    1.37   4
  -1  12  -4  137.43    3.15   2
  -1 -12  -4  135.62    3.34   1
  -1 -12  -4  134.09    3.22   2
   1 -12   4  132.58    3.31   4
   1  12   4  129.29    3.31   4
   2 -12   4   13.93    1.15   3
  -2  12  -4   14.60    1.19   2
  -2 -12  -4   13.40    1.10   2
   2 -12   4   15.75    1.27   4
  -2 -12  -4   13.93    1.17   1
   2  12   4   13.54    1.22   4
   3 -12   4   99.13    2.96   4
  -3  12  -4   98.32    3.03   2
  -3 -12  -4   95.45    2.83   2
   3 -12   4   98.19    3.02   3
  -3 -12  -4  108.31    3.09   1
   3  12   4  108.41    3.31   4
   4 -12   4  102.63    3.13   4
  -4 -12  -4  102.51    3.05   2
   4  12   4  100.99    3.43   4
   4 -12   4  104.57    3.29   3
  -4  12  -4  103.35    3.35   2
   6  13  -4   49.61    2.19   3
   6  13  -4   50.66    2.11   4
  -6  13   4   47.52    2.22   1
  -6 -13   4   52.64    2.27   1
   6 -13  -4   50.84    2.18   3
   6 -13  -4   47.73    2.30   2
   5  13  -4    5.43    0.92   3
  -5 -13   4    7.55    0.99   1
  -5  13   4    6.66    1.04   1
   5 -13  -4    5.87    1.03   2
   5 -13  -4    6.81    0.92   3
   5  13  -4    6.01    0.90   4
  -4 -13   4    3.11    0.78   4
   4 -13  -4    4.10    0.73   3
  -4  13   4    3.32    0.83   1
  -4 -13   4    3.31    0.77   1
   4 -13  -4    4.42    0.85   2
   4  13  -4    2.66    0.73   3
  -3  13   4  203.79    4.49   1
   3 -13  -4  199.47    4.47   2
  -3 -13   4  191.27    4.29   4
   3  13  -4  195.31    4.33   3
  -3 -13   4  197.61    4.23   1
  -2  13   4    0.03    0.54   1
   2  13  -4    0.03    0.50   3
  -2 -13   4    0.52    0.59   4
  -2  13   4   -0.14    0.45   5
  -2 -13   4    0.03    0.47   1
   2 -13  -4   -0.55    0.54   2
   1  13  -4   46.03    1.76   3
   1 -13  -4   46.28    1.83   1
  -1 -13   4   45.87    1.84   4
  -1  13   4   44.53    1.66   4
   1 -13  -4   44.65    1.77   2
   0  13  -4   29.21    1.46   3
   0 -13  -4   31.96    1.47   2
   0  13   4   30.85    1.48   4
   0 -13  -4   33.89    1.56   1
   0 -13   4   29.87    1.52   4
  -1 -13  -4    1.28    0.65   1
   1  13   4    0.19    0.69   4
  -1 -13  -4    1.18    0.62   2
  -1  13  -4    1.38    0.63   3
   1 -13   4    1.52    0.66   4
  -2 -13  -4    3.58    0.75   2
  -2 -13  -4    3.60    0.83   1
  -2  13  -4    3.14    0.80   2
   2  13   4    2.13    0.88   4
   2 -13   4    3.16    0.77   4
   2 -13   4    3.87    0.82   3
   3 -13   4    3.40    0.89   4
  -3 -13  -4    2.72    0.78   2
  -3 -13  -4    3.64    0.92   1
  -3  13  -4    2.46    0.91   2
   3  13   4    2.35    1.04   4
   3 -13   4    1.22    0.82   3
  -4  13  -4    4.53    1.10   2
   4 -13   4    4.50    1.01   4
   4  13   4    2.11    1.16   4
   4 -13   4    3.34    1.02   3
   6  14  -4   11.04    1.24   3
  -6 -14   4    9.84    1.25   1
   6  14  -4   10.62    1.23   4
   6 -14  -4    7.31    1.24   2
   6 -14  -4    7.73    1.12   3
   5  14  -4    9.32    1.05   4
   5 -14  -4   10.19    1.20   2
   5  14  -4    9.05    1.10   3
  -5  14   4    9.26    1.15   1
   5 -14  -4   10.00    1.05   3
  -5 -14   4    8.63    1.08   1
  -4  14   4   93.69    2.89   1
   4 -14  -4   97.38    3.00   2
   4 -14  -4   99.31    2.66   3
  -4 -14   4   97.56    2.85   4
   4  14  -4   94.90    2.81   3
  -4 -14   4  103.47    2.88   1
  -3 -14   4  257.15    5.18   1
   3  14  -4  254.71    5.31   3
  -3  14   4  254.44    5.40   1
   3 -14  -4  254.24    5.42   2
  -3 -14   4  256.00    5.30   4
  -2 -14   4    0.11    0.50   1
  -2  14   4    0.26    0.56   1
  -2 -14   4   -0.49    0.56   4
   2  14  -4   -0.38    0.49   3
  -2  14   4    0.33    0.47   5
   2 -14  -4    0.17    0.59   2
   1 -14  -4   12.25    1.09   1
   1  14  -4   10.40    0.96   3
  -1  14   4   12.35    1.00   4
   1 -14  -4   12.74    1.04   2
  -1 -14   4   13.00    1.09   4
   0 -14   4   43.06    1.81   4
   0  14  -4   41.69    1.75   3
   0  14   4   40.77    1.74   4
   0 -14  -4   41.75    1.71   2
   0 -14  -4   39.99    1.75   1
  -1 -14  -4    0.96    0.58   2
   1  14   4   -0.65    0.67   4
   1 -14   4    0.34    0.62   4
  -1 -14  -4   -0.14    0.60   1
  -1  14  -4    0.32    0.58   3
  -2  14  -4   80.31    2.56   2
   2 -14   4   83.16    2.72   3
   2 -14   4   79.87    2.63   4
   2  14   4   83.89    2.79   4
  -2 -14  -4   84.94    2.71   1
   3 -14   4   20.39    1.50   4
  -3  14  -4   18.38    1.48   2
   3  14   4   20.10    1.66   4
  -3 -14  -4   18.66    1.34   2
  -3 -14  -4   19.31    1.57   1
   3 -14   4   20.98    1.59   3
   6 -15  -4   56.35    2.36   3
  -6 -15   4   54.63    2.44   1
   6 -15  -4   57.02    2.56   2
   6  15  -4   54.13    2.36   3
   6  15  -4   57.20    2.37   4
  -5 -15   4   79.61    2.73   1
  -5  15   4   78.79    2.73   1
   5  15  -4   77.70    2.64   4
   5 -15  -4   75.24    2.51   3
   5  15  -4   79.34    2.67   3
   5 -15  -4   78.17    2.83   2
  -4 -15   4    5.11    0.92   4
   4 -15  -4    4.52    0.95   2
  -4  15   4    5.71    0.99   1
  -4 -15   4    6.06    0.92   1
   4  15  -4    4.38    0.86   3
   3 -15  -4   -0.28    0.65   2
  -3 -15   4   -0.29    0.53   1
  -3 -15   4    0.45    0.64   4
  -3  15   4   -0.64    0.60   1
   3  15  -4    0.24    0.59   3
  -2  15   4    0.15    0.60   1
  -2 -15   4    0.41    0.57   1
   2  15  -4    0.51    0.53   3
   2 -15  -4    0.27    0.62   2
  -2  15   4    0.00    0.48   5
  -2 -15   4    0.62    0.65   4
   1 -15  -4    3.84    0.80   2
  -1 -15   4    5.32    0.87   4
   1 -15  -4    3.99    0.81   1
  -1  15   4    3.43    0.77   4
   1  15  -4    4.24    0.78   3
   0 -15  -4   38.77    1.79   1
   0  15  -4   40.61    1.76   3
   0 -15  -4   41.90    1.75   2
   0 -15   4   41.52    1.85   4
   0  15   4   41.30    1.81   4
   1 -15   4    0.09    0.66   4
  -1 -15  -4    0.66    0.69   1
   1  15   4    0.84    0.76   4
  -1  15  -4    0.36    0.62   3
  -1 -15  -4    1.30    0.65   2
   2 -15   4   85.78    2.84   3
  -2 -15  -4   87.97    2.84   1
  -2 -15  -4   86.41    2.63   2
   2  15   4   82.48    2.89   4
   2 -15   4   92.15    2.88   4
   3  15   4  128.72    3.86   4
   3 -15   4  124.88    3.69   3
  -3  15  -4  126.06    3.63   2
  -3 -15  -4  129.29    3.71   1
   3 -15   4  127.10    3.60   4
   5 -16  -4   32.18    1.99   2
   5  16  -4   35.38    1.90   4
  -5  16   4   33.87    1.91   1
  -5 -16   4   36.31    1.90   1
   5  16  -4   30.81    1.76   3
  -4  16   4   17.57    1.43   1
  -4 -16   4   19.03    1.38   1
   4 -16  -4   18.50    1.48   2
   4  16  -4   17.05    1.33   3
  -4 -16   4   17.76    1.40   4
  -3  16   4    2.60    0.80   1
  -3 -16   4    2.94    0.81   4
  -3 -16   4    3.16    0.78   1
   3  16  -4    2.91    0.77   3
   3 -16  -4    1.60    0.78   2
  -2 -16   4   44.93    1.69   1
   2 -16  -4   44.33    1.96   2
  -2  16   4   44.42    1.95   1
  -2 -16   4   42.99    1.89   4
   2  16  -4   45.29    1.84   3
  -2  16   4   43.26    1.55   5
  -1 -16   4    2.17    0.76   4
   1 -16  -4    2.31    0.76   2
   1 -16  -4    1.83    0.75   1
   1  16  -4    2.67    0.73   3
   0  16   4  142.01    3.52   4
   0 -16  -4  133.24    3.60   1
   0 -16   4  141.13    3.67   4
   0 -16  -4  140.09    3.53   2
   0  16  -4  140.92    3.62   3
   1 -16   4   16.22    1.32   4
  -1  16  -4   15.94    1.31   3
  -1 -16  -4   13.88    1.14   2
  -1 -16  -4   14.83    1.30   1
   1  16   4   14.24    1.29   4
  -2 -16  -4   40.78    2.04   1
   2 -16   4   47.64    2.12   4
  -2  16  -4   42.95    2.07   3
  -2 -16  -4   42.31    1.90   2
   2  16   4   44.94    2.16   4
   3  16   4   69.94    2.89   4
  -3 -16  -4   71.29    2.76   1
   3 -16   4   71.63    2.74   3
   3 -16   4   76.78    2.77   4
   5  17  -4   89.03    2.97   3
   5  17  -4   92.36    3.08   4
   5 -17  -4   85.84    3.14   2
  -5 -17   4   87.67    3.00   1
  -5  17   4   91.37    3.06   1
  -4 -17   4   21.41    1.51   1
  -4 -17   4   21.32    1.57   4
  -4  17   4   21.88    1.60   1
   4  17  -4   21.86    1.48   3
   4 -17  -4   21.41    1.60   2
  -3 -17   4   42.70    1.84   1
   3  17  -4   46.73    1.96   3
   3 -17  -4   46.88    2.09   2
  -3  17   4   45.64    2.03   1
  -3 -17   4   42.36    1.99   4
  -2  17   4    2.55    0.81   1
  -2 -17   4    1.79    0.78   4
   2 -17  -4    2.19    0.79   2
   2  17  -4    1.27    0.67   3
  -2  17   4    2.04    0.61   5
   1  17  -4   67.98    2.40   3
   1 -17  -4   70.95    2.44   2
  -1 -17   4   70.17    2.47   4
   1 -17  -4   71.37    2.50   1
   0 -17   4   32.76    1.73   4
   0  17   4   30.54    1.73   4
   0 -17  -4   31.68    1.63   2
   0 -17  -4   34.38    1.79   1
   0  17  -4   31.19    1.67   3
  -1 -17  -4   16.38    1.30   2
   1  17   4   16.15    1.39   4
  -1 -17  -4   16.71    1.40   1
  -1  17  -4   16.83    1.37   3
   1 -17   4   15.73    1.35   4
   2  17   4   16.02    1.52   4
  -2  17  -4   15.35    1.42   3
  -2 -17  -4   15.14    1.42   1
   2 -17   4   15.75    1.40   4
   4  18  -4    4.21    0.91   3
   4 -18  -4    4.01    0.98   2
  -4 -18   4    3.08    1.05   4
  -4  18   4    3.73    1.03   1
  -4 -18   4    3.37    0.89   1
  -3 -18   4    1.94    0.77   1
   3  18  -4    2.12    0.77   3
  -3 -18   4    1.99    0.80   4
  -3  18   4   -0.30    0.74   1
   3 -18  -4    1.52    0.84   2
  -2 -18   4   93.12    2.98   4
  -2  18   4   92.52    2.99   1
   2 -18  -4   95.01    2.96   2
   2  18  -4   94.01    2.87   3
  -2  18   4   92.33    2.41   5
   1  18  -4    5.05    0.92   3
   1 -18  -4    6.78    0.98   2
   1 -18  -4    4.63    0.98   1
  -1 -18   4    6.43    1.02   4
   0 -18  -4   49.14    2.05   2
   0  18   4   50.21    2.15   4
   0  18  -4   44.77    2.02   3
   0 -18   4   45.48    2.07   4
   0 -18  -4   45.91    2.11   1
  -1 -18  -4   14.67    1.38   1
   1  18   4   13.51    1.37   4
   1 -18   4   12.49    1.28   4
  -1  18  -4   15.56    1.37   3
  -1 -18  -4   14.36    1.26   2
  -2 -18  -4    7.74    1.21   1
   2  18   4    6.53    1.24   4
  -2  18  -4    5.60    1.11   3
   2 -18   4    5.48    1.10   4
   4 -19  -4    0.94    0.86   2
  -4 -19   4    0.01    0.88   4
  -4  19   4   -0.66    0.88   1
  -4 -19   4    0.78    0.85   1
   4  19  -4    0.08    0.74   3
  -3 -19   4    3.18    0.88   1
   3  19  -4    1.26    0.82   3
  -3 -19   4    2.43    0.91   4
  -3  19   4    2.09    0.90   1
   3 -19  -4    2.21    0.89   2
  -2  19   4   28.49    1.42   5
   2  19  -4   32.21    1.72   3
   2 -19  -4   32.12    1.78   2
  -2 -19   4   33.04    1.83   4
  -2  19   4   30.63    1.82   1
  -1 -19   4    4.97    0.99   4
   1  19  -4    5.85    0.98   3
   1 -19  -4    4.43    1.00   2
   1 -19  -4    6.28    1.07   1
   0 -19  -4    5.92    1.10   1
   0  19   4    6.03    1.11   4
   0  19  -4    6.91    1.06   3
   0 -19   4    7.22    1.11   4
   0 -19  -4    6.78    1.04   2
  -1  19  -4    2.01    0.90   3
   1  19   4    1.93    0.98   4
   1 -19   4    1.83    0.89   4
  -1 -19  -4    0.45    0.91   1
   3 -20  -4    2.97    1.00   2
   3  20  -4    3.33    0.94   3
  -3  20   4    1.53    0.97   1
  -3 -20   4    4.81    1.03   1
  -3 -20   4    4.27    1.07   4
  -2 -20   4   13.32    1.37   4
   2  20  -4   15.41    1.32   3
  -2  20   4   16.92    1.48   1
   2 -20  -4   14.24    1.39   2
  -2  20   4   16.86    1.21   5
   1  20  -4   -0.31    0.72   3
   1 -20  -4    0.44    0.83   2
  -1  20   4   -0.22    0.75   1
  -1  20   4   -0.35    0.62   5
  -1 -20   4   -0.66    0.79   4
   0  20  -4   47.23    2.18   3
   0 -20  -4   43.62    2.19   1
   0 -20  -4   40.93    2.00   2
   0 -20   4   44.83    2.20   4
   1 -20   4   22.98    1.72   4
   1  20   4   23.66    1.84   4
  -1 -20  -4   23.70    1.79   1
  -1  20  -4   24.62    1.73   3
  -2  21   4   77.32    2.90   1
  -2 -21   4   72.49    2.83   4
   2 -21  -4   74.44    2.82   2
  -2  21   4   74.06    2.30   5
   2  21  -4   73.62    2.69   3
   1 -21  -4   55.29    2.36   2
  -1  21   4   57.92    2.52   1
  -1 -21   4   53.55    2.44   4
   1  21  -4   54.99    2.38   3
  -1  21   4   60.01    2.08   5
   0 -21   4  137.96    4.05   4
   0  21  -4  149.83    4.15   3
   0 -21  -4  148.35    4.22   1
   7   0  -5   49.51    2.25   3
  -7   0   5   44.70    2.20   1
   6   0  -5   -0.11    0.63   3
  -6   0   5    0.34    0.76   1
   5   0  -5   20.15    1.30   3
  -5   0   5   18.21    1.30   1
   4   0  -5   -0.27    0.48   3
  -4   0   5   -0.08    0.58   1
   4   0  -5   -0.06    0.39   2
   3   0  -5  314.25    5.61   2
  -3   0   5  320.64    5.33   4
   3   0  -5  320.56    5.76   3
  -3   0   5  310.77    5.87   1
  -2   0   5   -0.30    0.47   1
   2   0  -5   -0.03    0.34   2
  -2   0   5   -0.33    0.39   4
   2   0  -5    0.32    0.36   3
  -1   0   5  196.32    3.73   1
  -1   0   5  191.53    3.81   4
   1   0  -5  188.43    3.62   3
   1   0  -5  192.40    3.80   2
   0   0   5    0.15    0.56   4
   0   0   5    0.58    0.45   1
   0   0  -5    0.35    0.35   3
   0   0  -5   -0.08    0.44   2
  -1   0  -5  177.09    3.91   2
  -1   0  -5  181.61    3.50   3
   1   0   5  182.77    4.00   4
   2   0   5   -0.58    0.64   4
  -2   0  -5   -0.08    0.58   2
  -3   0  -5   43.68    1.95   2
   3   0   5   42.27    2.00   4
  -4   0  -5    0.62    0.84   2
   4   0   5   -0.17    0.90   4
   7  -1  -5   73.98    2.75   3
   7   1  -5   75.36    2.76   3
  -7   1   5   78.42    2.82   1
  -7  -1   5   75.86    2.78   1
   6   1  -5    1.80    0.72   3
  -6   1   5    0.27    0.75   1
   6  -1  -5    0.63    0.70   3
  -6  -1   5    1.31    0.77   1
  -5  -1   5    0.21    0.65   1
   5  -1  -5    0.40    0.52   2
  -5   1   5    1.39    0.73   1
   5   1  -5    0.50    0.60   3
   5  -1  -5    0.24    0.59   3
   4   1  -5   12.36    0.88   2
   4  -1  -5   12.46    1.05   3
  -4   1   5   11.05    1.01   1
   4   1  -5   13.46    1.09   3
  -4  -1   5   11.63    1.02   1
   4  -1  -5   11.69    0.89   2
   3   1  -5   12.57    0.86   2
  -3   1   5   13.04    0.99   1
   3  -1  -5   13.62    0.93   2
  -3  -1   5   12.53    0.96   1
  -3   1   5   11.92    0.78   4
   3  -1  -5   11.13    0.92   3
   3   1  -5   11.46    0.94   3
  -3  -1   5   11.39    0.85   4
  -2  -1   5  132.23    2.86   1
   2   1  -5  127.40    2.76   3
  -2   1   5  128.97    2.71   4
   2   1  -5  129.05    2.72   2
  -2   1   5  132.60    2.91   1
   2  -1  -5  126.20    2.68   3
  -2  -1   5  126.74    2.73   4
   2  -1  -5  128.03    2.79   2
   1   1  -5   92.31    2.23   2
  -1  -1   5   85.38    2.10   1
   1   1  -5   89.38    2.11   3
  -1   1   5   91.10    2.21   1
  -1   1   5   90.87    2.31   4
   1  -1  -5   90.12    2.24   2
  -1  -1   5   90.18    2.30   4
   1  -1  -5   91.42    2.01   3
   0   1  -5  244.63    4.46   3
   0  -1  -5  244.99    4.33   3
   0  -1   5  240.05    4.33   1
   0  -1   5  242.30    4.74   4
   0   1   5  243.43    4.46   1
   0   1  -5  242.10    4.69   2
   0  -1  -5  242.34    4.72   2
   0   1   5  249.44    4.77   4
  -1  -1  -5   16.46    1.17   2
   1  -1   5   19.97    1.35   4
  -1  -1  -5   18.32    0.88   3
   1   1   5   18.51    1.32   4
  -1   1  -5   21.52    1.25   2
  -1   1  -5   17.49    0.95   3
  -2  -1  -5   43.22    1.82   2
  -2   1  -5   45.42    1.85   2
   2  -1   5   44.70    1.91   4
   2   1   5   41.95    1.88   4
   3   1   5   13.86    1.31   4
   3  -1   5   14.15    1.31   4
  -3   1  -5   14.87    1.25   2
  -3  -1  -5   14.23    1.25   2
   4   1   5   53.28    2.42   4
  -4  -1  -5   52.43    2.31   2
  -4   1  -5   51.64    2.34   2
   4  -1   5   56.68    2.45   4
   7   2  -5   54.21    2.32   3
   7  -2  -5   50.49    2.25   3
  -7   2   5   50.66    2.25   1
  -7  -2   5   47.97    2.25   1
   6   2  -5   57.84    2.20   3
   6  -2  -5   48.48    2.05   3
  -6   2   5   56.41    2.22   1
  -6  -2   5   53.54    2.20   1
  -5  -2   5   10.19    1.06   1
   5   2  -5   11.69    1.07   3
  -5   2   5   10.01    1.08   1
   5  -2  -5   12.05    0.94   2
   5  -2  -5   13.04    1.04   3
   4  -2  -5    5.08    0.69   3
  -4  -2   5    4.94    0.79   1
  -4   2   5    4.49    0.83   1
   4  -2  -5    3.76    0.61   2
   4   2  -5    5.32    0.74   3
   3  -2  -5   34.11    1.35   2
  -3  -2   5   33.32    1.48   1
   3  -2  -5   33.57    1.31   3
   3   2  -5   33.91    1.21   2
  -3   2   5   36.79    1.55   1
   3   2  -5   34.70    1.38   3
  -3  -2   5   33.40    1.23   4
  -2   2   5   73.84    1.92   4
  -2  -2   5   74.78    2.00   1
   2  -2  -5   77.73    2.02   2
   2  -2  -5   74.27    1.85   3
  -2  -2   5   75.33    1.96   4
  -2   2   5   77.75    2.11   1
   2   2  -5   75.98    1.97   3
   2   2  -5   75.04    1.87   2
  -1  -2   5  403.85    6.95   1
   1   2  -5  408.19    7.04   3
  -1   2   5  411.37    7.13   1
   1   2  -5  411.57    7.03   2
  -1  -2   5  412.56    7.07   4
  -1   2   5  416.14    7.02   4
   1  -2  -5  413.48    6.83   3
   1  -2  -5  418.65    7.17   2
   0   2   5  116.84    2.87   4
   0  -2  -5  120.00    2.83   2
   0   2   5  112.88    2.57   1
   0   2  -5  118.86    2.78   2
   0  -2   5  118.34    2.41   1
   0  -2   5  118.74    2.90   4
   0   2  -5  123.57    2.63   3
   0  -2  -5  120.47    2.38   3
  -1   2  -5   35.68    1.29   3
   1   2   5   36.20    1.30   1
   1   2   5   37.63    1.67   4
  -1  -2  -5   35.73    1.57   2
   1   2   5   35.54    1.05   5
  -1   2  -5   35.77    1.53   2
   1  -2   5   34.70    1.64   4
  -2   2  -5  154.73    3.69   2
   2  -2   5  151.24    3.70   4
  -3   2  -5    6.25    1.00   2
   3  -2   5    6.20    1.03   4
   3   2   5    6.97    1.09   4
  -3  -2  -5    6.17    0.99   2
  -4  -2  -5   48.36    2.24   2
  -4   2  -5   49.34    2.29   2
   4  -2   5   48.31    2.27   4
   4   2   5   46.21    2.29   4
  -7   3   5   16.60    1.34   2
  -7  -3   5   18.69    1.57   1
  -7   3   5   16.53    1.47   1
   7   3  -5   18.27    1.53   3
   7  -3  -5   15.57    1.44   3
  -6   3   5   19.49    1.48   1
   6  -3  -5   16.64    1.36   2
  -6  -3   5   19.40    1.44   1
   6  -3  -5   18.13    1.38   3
   6   3  -5   17.17    1.36   3
   5  -3  -5  189.58    4.30   3
  -5   3   5  196.78    4.45   1
   5   3  -5  208.50    4.47   3
   5  -3  -5  204.03    4.27   2
  -5  -3   5  196.21    4.42   1
   4   3  -5    9.61    0.90   3
   4  -3  -5   10.13    0.84   3
  -4   3   5   10.01    1.00   1
   4  -3  -5    9.95    0.82   2
  -4  -3   5    9.84    0.96   1
   3   3  -5   66.23    1.94   3
   3   3  -5   64.95    1.67   2
  -3  -3   5   65.12    1.78   4
   3  -3  -5   65.34    1.82   3
  -3  -3   5   63.77    1.96   1
  -3   3   5   67.53    2.08   1
   3  -3  -5   64.43    1.90   2
   2  -3  -5  175.37    3.38   3
  -2  -3   5  171.90    3.49   4
   2   3  -5  180.51    3.40   2
  -2  -3   5  177.67    3.58   1
   2   3  -5  176.61    3.59   3
  -2   3   5  176.86    3.42   4
   2  -3  -5  178.45    3.63   2
  -2   3   5  175.65    3.70   1
   1   3  -5  345.75    6.03   2
   1  -3  -5  344.90    5.78   3
   1  -3  -5  338.56    6.17   2
   1   3  -5  357.45    6.13   3
  -1   3   5  345.52    6.06   4
  -1   3   5  348.73    6.19   1
  -1  -3   5  349.59    5.95   1
  -1  -3   5  339.33    6.11   4
   0   3  -5   10.22    0.81   3
   0   3  -5    9.51    0.81   2
   0  -3   5    7.80    0.84   4
   0  -3  -5    9.30    0.82   2
   0   3   5    9.54    0.76   1
   0   3   5    9.04    0.92   4
   1   3   5   94.72    2.29   1
  -1   3  -5   93.42    2.55   2
  -1   3  -5   94.70    2.33   3
   1  -3   5   93.82    2.63   4
   1   3   5   95.24    2.66   4
  -1  -3  -5   96.61    2.60   2
   1   3   5   97.05    1.84   5
   2  -3   5   18.02    1.08   3
  -2  -3  -5   20.95    1.35   2
  -2   3  -5   19.75    1.34   2
   2   3   5   20.80    1.47   4
   2  -3   5   19.76    1.41   4
  -3  -3  -5    9.25    1.10   2
   3   3   5   10.93    1.25   4
   3  -3   5    9.75    1.15   4
  -3   3  -5   11.15    1.15   2
  -4   3  -5   34.81    2.01   2
  -4  -3  -5   37.00    2.00   2
   4  -3   5   36.53    2.04   4
   4   3   5   37.55    2.12   4
  -7   4   5   17.68    1.50   1
   7  -4  -5   17.55    1.47   3
   7   4  -5   18.54    1.53   3
  -7  -4   5   16.08    1.48   1
  -7   4   5   18.62    1.43   2
  -6   4   5    0.39    0.78   1
   6  -4  -5   -0.81    0.61   2
   6   4  -5    0.59    0.66   3
  -6  -4   5    0.29    0.73   1
   6  -4  -5   -0.42    0.60   3
   5  -4  -5    1.13    0.61   3
  -5   4   5    1.01    0.71   1
   5   4  -5    0.46    0.62   3
  -5  -4   5    0.57    0.71   1
   5  -4  -5    0.72    0.56   2
   4   4  -5    0.30    0.51   3
   4  -4  -5    0.80    0.50   3
  -4  -4   5    0.14    0.58   1
   4  -4  -5    0.22    0.46   2
  -4   4   5    0.54    0.65   1
  -3  -4   5   71.46    2.10   1
   3  -4  -5   70.06    2.03   2
   3   4  -5   72.64    2.08   3
   3  -4  -5   69.75    1.90   3
  -3  -4   5   68.24    1.89   4
  -3   4   5   73.50    2.20   1
   2  -4  -5  797.00   12.95   2
   2  -4  -5  795.11   12.71   3
   2   4  -5  823.91   13.08   3
  -2   4   5  804.85   13.14   1
  -2  -4   5  770.24   12.87   1
   2   4  -5  786.37   12.58   2
  -2   4   5  807.85   12.40   4
  -2  -4   5  800.36   12.61   4
  -1   4   5   79.65    2.17   4
   1  -4  -5   81.01    2.16   2
  -1  -4   5   79.45    2.19   4
   1   4  -5   82.35    2.10   3
  -1  -4   5   81.78    1.94   1
   1  -4  -5   81.44    1.75   3
  -1   4   5   79.27    2.13   1
   1   4  -5   83.21    2.05   2
   0   4  -5  349.03    6.28   3
   0   4   5  364.26    5.10   5
   0   4   5  345.38    6.34   4
   0   4  -5  344.66    6.28   2
   0  -4  -5  354.23    6.43   2
   0  -4   5  344.63    6.37   4
   0   4   5  360.08    6.29   1
  -1   4  -5   45.58    1.57   3
  -1   4  -5   47.75    1.75   2
   1   4   5   46.47    1.56   1
  -1  -4  -5   43.11    1.72   2
   1   4   5   48.57    1.26   5
   1  -4   5   45.64    1.80   4
   1   4   5   46.68    1.85   4
   2   4   5    7.32    1.00   4
   2  -4   5    6.66    0.94   4
  -2  -4  -5    6.98    0.92   2
  -2   4  -5    6.73    0.91   2
   2  -4   5    7.75    0.81   3
   3  -4   5    2.45    0.85   4
  -3   4  -5    1.31    0.80   2
  -3  -4  -5    1.14    0.76   2
   3   4   5    1.42    0.89   4
  -4  -4  -5   43.68    2.14   2
   4  -4   5   43.09    2.19   4
  -4   4  -5   42.63    2.18   2
   4   4   5   40.47    2.19   4
   7  -5  -5   36.12    1.96   3
  -7   5   5   37.79    2.05   1
  -7   5   5   38.41    1.88   2
  -7  -5   5   35.48    1.99   1
   7   5  -5   41.29    2.08   3
   6   5  -5   -0.44    0.65   3
   6  -5  -5    0.46    0.68   2
  -6   5   5    0.77    0.80   1
   6  -5  -5    0.75    0.71   3
  -6  -5   5    0.02    0.68   1
  -5   5   5   21.01    1.41   1
  -5  -5   5   19.07    1.38   1
   5   5  -5   18.65    1.36   3
   5  -5  -5   20.40    1.29   2
   5  -5  -5   19.40    1.30   3
  -4  -5   5  199.34    3.82   4
  -4   5   5  192.55    4.27   1
   4   5  -5  191.60    4.17   3
  -4  -5   5  196.04    4.19   1
   4  -5  -5  189.16    4.10   2
   4  -5  -5  187.71    3.99   3
   3  -5  -5   13.25    0.99   2
  -3  -5   5   13.31    1.13   1
  -3  -5   5   15.14    0.98   4
   3  -5  -5   15.20    0.93   3
   3   5  -5   16.28    1.12   3
  -3   5   5   16.20    1.26   1
  -2   5   5    7.05    0.81   1
   2   5  -5    3.44    0.47   2
  -2  -5   5    2.78    0.64   1
   2   5  -5    4.39    0.65   3
  -2   5   5    2.46    0.59   4
   2  -5  -5    4.40    0.63   2
   2  -5  -5    3.23    0.49   3
  -2  -5   5    3.17    0.61   4
  -1   5   5  107.71    2.59   1
   1   5  -5  103.16    2.51   3
  -1   5   5  103.79    2.55   4
  -1  -5   5  103.82    2.28   1
   1  -5  -5  105.76    2.58   2
  -1  -5   5   98.41    2.54   4
   1   5  -5  102.83    2.37   2
   0   5   5  156.70    2.74   5
   0  -5   5  162.72    3.59   4
   0   5  -5  160.07    3.41   2
   0   5  -5  161.44    3.41   3
   0  -5  -5  158.14    3.52   2
   0   5   5  158.58    3.41   1
   0   5   5  164.13    3.57   4
   1   5   5   37.24    1.71   4
  -1   5  -5   38.98    1.47   3
  -1   5  -5   39.04    1.60   2
  -1  -5  -5   38.08    1.59   2
   1  -5   5   37.26    1.66   4
  -2   5  -5    0.72    0.64   2
  -2  -5  -5    1.02    0.62   2
   2   5   5    0.23    0.75   4
   2  -5   5    0.27    0.54   3
   2  -5   5    0.16    0.69   4
   3  -5   5  121.11    3.37   4
   3   5   5  114.83    3.41   4
  -3   5  -5  117.18    3.35   2
  -3  -5  -5  113.24    3.24   2
   4  -5   5   16.61    1.51   4
  -4  -5  -5   15.59    1.43   2
   4   5   5   16.85    1.61   4
  -4   5  -5   20.20    1.65   2
  -7   6   5    1.34    0.83   2
  -7   6   5    3.85    1.06   1
   7   6  -5    1.47    0.90   3
  -7  -6   5    1.29    0.91   1
   7  -6  -5    1.52    0.87   3
   6  -6  -5    1.36    0.73   3
   6   6  -5    0.56    0.72   3
  -6  -6   5    1.79    0.79   1
   6  -6  -5    0.58    0.71   2
  -6   6   5    1.37    0.83   1
  -5   6   5    9.97    1.09   1
   5  -6  -5    9.73    0.98   2
   5  -6  -5    8.94    0.97   3
   5   6  -5    9.80    1.03   3
  -5  -6   5   11.41    1.15   1
  -4  -6   5    3.05    0.62   4
  -4   6   5    1.78    0.74   1
  -4  -6   5    3.00    0.75   1
   4   6  -5    3.02    0.71   3
   4  -6  -5    3.14    0.65   2
   4  -6  -5    3.47    0.67   3
  -3   6   5  150.07    3.51   1
   3   6  -5  149.72    3.38   3
  -3  -6   5  149.18    3.22   4
   3  -6  -5  148.51    3.39   2
  -3  -6   5  152.22    3.33   1
   3  -6  -5  144.99    3.09   3
   2   6  -5  368.06    6.58   3
   2  -6  -5  356.82    6.53   2
  -2  -6   5  359.94    6.35   4
   2  -6  -5  354.23    6.06   3
  -2   6   5  355.73    6.10   4
  -2   6   5  363.37    6.65   1
  -2  -6   5  360.68    6.32   1
  -1  -6   5  333.88    6.35   4
   1  -6  -5  365.84    6.54   2
  -1   6   5  357.69    5.29   5
   1   6  -5  358.06    6.20   2
  -1   6   5  361.25    6.30   4
   1   6  -5  368.72    6.54   3
  -1   6   5  362.54    6.54   1
  -1  -6   5  362.72    6.10   1
   0   6  -5   -0.49    0.49   2
   0   6   5    0.24    0.51   1
   0   6  -5    0.16    0.43   3
   0  -6  -5    2.88    0.59   2
   0   6   5    0.05    0.60   4
   0  -6   5    0.30    0.55   4
   0   6   5   -0.15    0.39   5
  -1   6  -5  110.79    2.85   2
  -1  -6  -5  108.66    2.87   2
  -1  -6  -5  113.78    2.74   1
  -1   6  -5  115.05    2.79   3
   2  -6   5   10.67    1.09   4
  -2   6  -5   10.99    1.08   2
   2   6   5   12.23    1.20   4
   2  -6   5   12.23    0.99   3
  -2  -6  -5   12.44    1.08   2
   3  -6   5    3.08    0.79   3
  -3  -6  -5    2.60    0.85   2
   3   6   5    1.74    0.99   4
   3  -6   5    3.93    0.96   4
  -3   6  -5    2.96    0.84   2
  -4  -6  -5   14.22    1.41   2
   4   6   5   14.67    1.53   4
   4  -6   5   15.18    1.46   4
  -4   6  -5   17.37    1.54   2
   7  -7  -5   17.30    1.46   3
   7   7  -5   15.84    1.50   3
  -7   7   5   18.00    1.44   2
  -7   7   5   16.59    1.55   1
  -7  -7   5   19.42    1.57   1
  -6   7   5  120.54    3.41   1
   6  -7  -5  118.04    3.31   3
   6   7  -5  120.38    3.42   3
   6  -7  -5  117.42    3.31   2
  -6  -7   5  111.86    3.33   1
   5  -7  -5   82.68    2.56   2
  -5  -7   5   83.50    2.63   1
   5   7  -5   80.52    2.56   3
   5  -7  -5   79.31    2.45   3
  -5   7   5   84.00    2.65   1
  -4   7   5  262.96    5.49   1
   4   7  -5  270.82    5.43   3
   4  -7  -5  271.88    5.23   3
  -4  -7   5  279.09    5.45   1
   4  -7  -5  258.92    5.38   2
  -4  -7   5  273.72    5.09   4
  -3  -7   5  151.44    3.32   4
   3   7  -5  149.94    3.45   3
   3  -7  -5  145.97    3.13   3
  -3   7   5  155.64    3.58   1
  -3  -7   5  148.97    3.37   1
   2  -7  -5 1174.07   18.73   2
   2   7  -5 1179.16   18.88   3
  -2   7   5 1166.11   17.86   4
  -2  -7   5 1174.16   18.24   4
  -2   7   5 1160.32   18.96   1
  -2  -7   5 1193.26   18.59   1
  -1   7   5  205.42    4.06   4
   1   7  -5  202.57    3.87   2
  -1   7   5  205.84    4.24   1
  -1  -7   5  200.68    3.75   1
   1   7  -5  209.97    4.23   3
  -1  -7   5  198.24    4.17   4
   1  -7  -5  198.79    4.19   2
  -1   7   5  205.54    3.43   5
   0   7   5   88.27    2.49   4
   0  -7   5   86.62    2.45   4
   0   7  -5   85.13    2.27   2
   0  -7  -5   87.43    2.41   2
   0   7   5   87.93    2.38   1
   0   7   5   85.47    1.91   5
  -1  -7  -5    1.82    0.62   1
  -1  -7  -5    1.30    0.60   2
   1  -7   5    2.07    0.71   4
  -1   7  -5    1.59    0.56   3
  -1   7  -5    1.19    0.62   2
   1   7   5    1.78    0.77   4
   2  -7   5    6.54    0.95   4
  -2  -7  -5    5.65    0.85   2
   2  -7   5    4.82    0.80   3
  -2   7  -5    7.87    0.95   2
   2   7   5    6.02    1.01   4
  -3   7  -5    0.42    0.79   2
   3   7   5    0.23    0.87   4
   3  -7   5    1.97    0.84   4
  -3  -7  -5    0.63    0.73   2
   3  -7   5    0.98    0.75   3
   4   7   5   14.14    1.58   4
   4  -7   5   16.98    1.48   4
  -4  -7  -5   16.81    1.49   2
  -4   7  -5   15.15    1.51   2
  -7   8   5   27.94    1.80   2
  -7   8   5   24.50    1.81   1
   7  -8  -5   26.19    1.77   3
  -7  -8   5   21.94    1.69   1
   7   8  -5   24.30    1.77   3
   6   8  -5   75.40    2.63   3
  -6  -8   5   75.80    2.66   1
   6  -8  -5   72.51    2.58   2
   6  -8  -5   71.45    2.52   3
  -6   8   5   72.87    2.61   1
   5  -8  -5    2.06    0.69   2
  -5  -8   5    0.28    0.71   1
   5  -8  -5    1.12    0.64   3
  -5   8   5    1.13    0.77   1
   5   8  -5    0.79    0.63   3
   4  -8  -5  536.81    9.17   3
  -4  -8   5  552.80    9.01   4
  -4   8   5  513.27    9.49   1
  -4  -8   5  533.45    9.39   1
   4  -8  -5  519.29    9.40   2
   4   8  -5  522.89    9.43   3
  -3  -8   5  136.66    3.20   4
   3   8  -5  137.93    3.30   3
   3  -8  -5  134.57    2.94   3
  -3  -8   5  137.89    3.20   1
  -3   8   5  138.55    3.40   1
   2   8  -5   50.58    1.77   3
   2  -8  -5   50.12    1.79   2
  -2  -8   5   52.17    1.80   4
  -2  -8   5   46.84    1.63   1
  -2   8   5   53.19    1.89   1
  -1  -8   5  202.30    4.27   4
  -1   8   5  203.13    4.31   1
   1  -8  -5  209.63    4.33   2
   1   8  -5  207.91    4.31   3
  -1   8   5  205.10    3.50   5
  -1   8   5  210.02    4.15   4
   0  -8  -5  218.69    4.56   2
   0   8  -5  222.22    4.56   3
   0   8  -5  229.65    4.40   2
   0   8   5  223.88    4.56   4
   0   8   5  225.80    4.60   1
   0   8   5  220.67    3.70   5
   0  -8   5  217.16    4.58   4
  -1   8  -5  264.36    5.23   3
  -1   8  -5  261.91    5.16   2
  -1  -8  -5  249.09    5.10   1
   1   8   5  255.57    5.29   4
   2  -8   5   75.05    2.49   4
   2  -8   5   75.34    2.39   3
  -2  -8  -5   78.83    2.46   2
  -2   8  -5   78.06    2.50   2
   2   8   5   75.25    2.60   4
  -3  -8  -5    1.58    0.74   2
  -3   8  -5    2.19    0.91   2
   3   8   5    1.54    0.97   4
   3  -8   5    2.60    0.88   4
   3  -8   5    1.73    0.81   3
  -4   8  -5   80.09    3.00   2
   4  -8   5   82.45    2.90   4
  -4  -8  -5   85.82    2.91   2
   4   8   5   79.80    3.09   4
   7   9  -5   23.52    1.79   3
  -7  -9   5   25.93    1.78   1
  -7   9   5   22.71    1.82   1
   7  -9  -5   26.31    1.78   3
   6   9  -5    8.36    1.11   3
  -6  -9   5    7.30    1.06   1
   6  -9  -5    6.87    1.04   3
   6  -9  -5    6.82    1.04   2
  -6   9   5    7.92    1.13   1
   5  -9  -5   -0.90    0.58   2
   5  -9  -5   -0.30    0.59   3
  -5   9   5    0.63    0.77   1
   5   9  -5   -0.38    0.60   3
  -5  -9   5    0.96    0.71   1
   4   9  -5  220.27    4.75   3
   4  -9  -5  219.22    4.79   2
   4  -9  -5  227.82    4.52   3
  -4  -9   5  220.19    4.72   1
  -4   9   5  214.48    4.81   1
  -4  -9   5  221.99    4.53   4
   3   9  -5 1327.17   21.64   3
  -3   9   5 1307.47   21.72   1
  -3  -9   5 1370.09   21.46   1
  -3  -9   5 1352.39   20.88   4
   3  -9  -5 1338.76   21.51   2
   3  -9  -5 1378.38   21.16   3
   2  -9  -5   66.83    2.12   2
  -2   9   5   62.39    2.13   1
  -2  -9   5   62.67    2.03   4
   2   9  -5   66.55    2.10   3
  -2  -9   5   69.12    1.92   1
  -1   9   5   -0.11    0.54   4
   1  -9  -5    0.53    0.49   2
  -1  -9   5    0.35    0.50   4
  -1   9   5    0.90    0.56   1
  -1   9   5    0.16    0.44   5
   1   9  -5    0.52    0.52   3
   0  -9   5    3.69    0.75   4
   0  -9  -5    3.24    0.67   2
   0   9   5    3.83    0.77   4
   0   9  -5    3.84    0.67   3
   0   9  -5    4.40    0.69   2
  -1  -9  -5    0.58    0.61   1
  -1   9  -5    0.21    0.54   2
   1   9   5   -0.43    0.65   4
  -1   9  -5    0.21    0.54   3
  -1  -9  -5    1.01    0.58   2
   1  -9   5    0.47    0.62   4
  -2   9  -5   79.88    2.56   2
   2  -9   5   81.06    2.53   3
   2  -9   5   77.88    2.58   4
   2   9   5   84.59    2.78   4
  -2  -9  -5   80.71    2.53   2
  -2  -9  -5   78.75    2.43   1
  -3   9  -5   83.88    2.84   2
   3  -9   5   84.36    2.71   3
   3   9   5   85.11    2.98   4
  -3  -9  -5   74.65    2.60   2
   3  -9   5   78.99    2.73   4
  -7 -10   5   29.19    1.88   1
   7 -10  -5   25.35    1.76   3
   7  10  -5   28.96    1.91   3
  -7  10   5   29.46    2.00   1
  -6 -10   5   18.12    1.48   1
   6 -10  -5   20.14    1.59   2
  -6  10   5   18.71    1.54   1
   6  10  -5   20.62    1.54   3
   6 -10  -5   18.97    1.49   3
   5  10  -5   80.64    2.63   3
   5 -10  -5   78.87    2.67   2
  -5  10   5   83.01    2.72   1
   5 -10  -5   84.56    2.56   3
  -5 -10   5   81.65    2.65   1
   4  10  -5   43.87    1.83   3
  -4  10   5   41.73    1.86   1
  -4 -10   5   44.79    1.79   4
   4 -10  -5   45.73    1.74   3
   4 -10  -5   42.04    1.85   2
  -4 -10   5   42.75    1.87   1
  -3 -10   5  426.49    7.59   4
  -3  10   5  427.43    7.95   1
  -3 -10   5  427.01    7.63   1
   3 -10  -5  412.92    7.83   2
   3  10  -5  424.82    7.82   3
   2  10  -5  159.51    3.67   3
  -2 -10   5  164.54    3.41   1
  -2  10   5  154.96    3.73   1
  -1  10   5   10.23    0.77   5
  -1  10   5    8.89    0.91   4
  -1  10   5    8.92    0.89   1
  -1 -10   5    7.82    0.90   4
   1 -10  -5    9.08    0.87   2
   1  10  -5    8.22    0.87   3
   0 -10   5    3.07    0.72   4
   0  10  -5    3.83    0.69   3
   0 -10  -5    2.21    0.69   1
   0 -10  -5    3.75    0.71   2
   0  10   5    4.52    0.81   4
   1  10   5   37.82    1.82   4
  -1 -10  -5   38.58    1.65   2
   1 -10   5   37.26    1.72   4
  -1 -10  -5   38.14    1.66   1
  -1  10  -5   36.52    1.59   2
  -1  10  -5   38.65    1.67   3
  -2  10  -5    2.88    0.78   3
  -2 -10  -5    1.87    0.77   1
   2 -10   5    2.35    0.80   4
  -2  10  -5    3.35    0.82   2
   2  10   5    3.10    0.94   4
  -2 -10  -5    2.09    0.73   2
   3 -10   5    0.23    0.76   4
  -3 -10  -5    0.56    0.73   2
  -3  10  -5    0.47    0.82   2
   3 -10   5    0.76    0.75   3
   3  10   5    0.27    0.95   4
  -6  11   5   28.50    1.82   1
   6 -11  -5   30.16    1.71   3
  -6 -11   5   28.11    1.75   1
   6 -11  -5   26.54    1.79   2
   6  11  -5   30.84    1.79   3
  -5  11   5   80.68    2.71   1
  -5 -11   5   82.33    2.52   4
   5 -11  -5   76.67    2.68   2
  -5 -11   5   79.22    2.64   1
   5  11  -5   78.53    2.62   3
   5 -11  -5   83.10    2.54   3
  -4 -11   5   32.59    1.58   4
  -4  11   5   34.16    1.72   1
  -4 -11   5   32.87    1.66   1
   4 -11  -5   33.56    1.52   3
   4 -11  -5   32.47    1.67   2
   4  11  -5   32.28    1.61   3
  -3 -11   5   93.17    2.56   1
  -3  11   5   90.96    2.73   1
   3 -11  -5   89.17    2.68   2
  -3 -11   5   86.10    2.58   4
   3  11  -5   90.08    2.63   3
  -2 -11   5  278.50    5.15   1
  -2  11   5  269.28    4.51   5
  -2  11   5  269.93    5.57   1
   1 -11  -5   77.21    2.38   2
  -1  11   5   77.21    1.97   5
  -1 -11   5   81.06    2.45   4
  -1  11   5   81.68    2.32   4
   0  11  -5    1.62    0.62   3
   0 -11  -5    1.60    0.63   2
   0  11   5    1.18    0.69   4
   0 -11  -5    1.73    0.68   1
   0 -11   5    2.48    0.72   4
   1 -11   5    5.74    0.91   4
   1  11   5    6.64    1.00   4
  -1 -11  -5    6.23    0.83   2
  -1  11  -5    5.23    0.83   3
  -1 -11  -5    7.85    0.96   1
  -1  11  -5    5.81    0.84   2
  -2 -11  -5   17.30    1.27   2
  -2 -11  -5   17.47    1.36   1
  -2  11  -5   20.28    1.42   2
  -2  11  -5   19.25    1.39   3
   2  11   5   16.97    1.48   4
   2 -11   5   19.20    1.42   4
   3  11   5    0.30    0.97   4
   3 -11   5    1.06    0.87   4
  -3  11  -5    1.45    0.89   2
   3 -11   5    0.66    0.77   3
  -3 -11  -5    0.79    0.76   2
   6  12  -5   85.22    2.95   3
   6 -12  -5   83.07    2.78   3
   6 -12  -5   85.54    3.04   2
  -6  12   5   84.30    2.97   1
  -6 -12   5   85.63    2.95   1
   5  12  -5   19.59    1.42   3
  -5 -12   5   20.12    1.39   4
  -5  12   5   18.82    1.47   1
  -5 -12   5   19.58    1.48   1
   5 -12  -5   17.35    1.45   2
   5 -12  -5   21.24    1.37   3
  -4 -12   5   18.04    1.36   1
  -4  12   5   18.84    1.39   1
  -4 -12   5   17.20    1.26   4
   4  12  -5   18.27    1.30   3
   4 -12  -5   18.71    1.38   2
  -3  12   5   44.46    1.92   1
   3 -12  -5   40.94    1.83   2
  -3 -12   5   43.42    1.84   4
   3  12  -5   41.84    1.78   3
  -3 -12   5   43.39    1.76   1
  -2 -12   5  129.50    2.93   1
  -2 -12   5  125.04    3.29   4
   2  12  -5  127.18    3.24   3
   2 -12  -5  125.37    3.30   2
  -1  12   5  168.76    3.70   4
  -1  12   5  173.72    3.26   5
   1 -12  -5  165.26    3.91   2
   1  12  -5  167.17    3.93   3
  -1 -12   5  165.43    3.92   4
   0  12  -5  169.03    3.97   3
   0 -12   5  170.05    4.00   4
   0  12   5  168.04    3.90   4
   0 -12  -5  159.38    3.92   1
   0 -12  -5  171.52    3.95   2
  -1 -12  -5   70.40    2.32   2
  -1  12  -5   76.04    2.46   3
  -1 -12  -5   66.46    2.35   1
   1 -12   5   71.98    2.46   4
   1  12   5   79.99    2.61   4
  -2 -12  -5    5.75    1.00   1
  -2  12  -5    6.22    0.99   2
   2  12   5    6.74    1.14   4
  -2  12  -5    5.87    0.98   3
  -2 -12  -5    5.17    0.85   2
   2 -12   5    6.62    1.00   4
  -3  12  -5    6.65    1.16   2
   3 -12   5    7.11    1.12   4
   3 -12   5    6.63    1.11   3
   3  12   5    5.84    1.23   4
  -3 -12  -5    7.94    1.07   2
  -6 -13   5    7.61    1.16   1
   6 -13  -5    6.22    1.21   2
  -6  13   5    8.03    1.26   1
   6 -13  -5    6.53    1.06   3
   6  13  -5    6.20    1.14   3
   5 -13  -5    4.50    1.00   2
  -5  13   5    5.97    1.08   1
   5  13  -5    4.34    0.90   3
  -5 -13   5    6.17    1.02   1
  -5 -13   5    5.54    0.97   4
   4  13  -5   40.65    1.85   3
  -4 -13   5   42.00    1.85   4
  -4  13   5   42.07    1.94   1
   4 -13  -5   41.70    1.98   2
  -4 -13   5   43.96    1.85   1
  -3 -13   5  100.50    2.89   4
  -3  13   5   99.75    3.02   1
   3  13  -5  100.67    2.90   3
  -3 -13   5  104.49    2.74   1
   3 -13  -5  100.75    2.99   2
   2 -13  -5  144.18    3.67   2
  -2 -13   5  147.65    3.66   4
  -2  13   5  148.07    3.02   5
   2  13  -5  141.52    3.56   3
  -2  13   5  147.72    3.72   1
   1  13  -5    6.72    0.86   3
  -1  13   5    5.14    0.87   1
  -1  13   5    5.10    0.83   4
  -1  13   5    5.17    0.72   5
   1 -13  -5    4.87    0.83   2
  -1 -13   5    4.49    0.85   4
   0 -13  -5   47.37    1.89   2
   0 -13   5   46.27    1.96   4
   0  13   5   44.20    1.89   4
   0  13  -5   44.28    1.87   3
   0 -13  -5   46.30    1.93   1
  -1 -13  -5    4.49    0.81   2
  -1 -13  -5    3.72    0.88   1
   1 -13   5    3.70    0.83   4
   1  13   5    3.06    0.95   4
  -1  13  -5    2.95    0.80   3
   2 -13   5    7.59    1.08   4
   2  13   5    5.73    1.17   4
  -2  13  -5    8.08    1.08   2
  -2  13  -5    7.90    1.10   3
  -2 -13  -5    7.36    1.08   1
  -2 -13  -5   10.67    1.09   2
   3 -13   5   61.82    2.50   4
  -3 -13  -5   58.09    2.31   2
  -3  13  -5   61.18    2.54   2
   3  13   5   57.18    2.64   4
   3 -13   5   60.79    2.53   3
   6 -14  -5    6.73    1.11   3
  -6  14   5    8.25    1.31   1
  -6 -14   5    7.24    1.16   1
   6 -14  -5    7.44    1.26   2
   6  14  -5    8.10    1.23   3
  -5 -14   5   27.66    1.68   4
   5 -14  -5   27.66    1.78   2
  -5  14   5   25.92    1.73   1
   5  14  -5   27.74    1.67   3
  -5 -14   5   27.63    1.67   1
  -4 -14   5    2.07    0.78   4
   4 -14  -5    3.73    0.88   2
  -4 -14   5    3.31    0.80   1
  -4  14   5    3.29    0.90   1
   4  14  -5    3.71    0.85   3
   3 -14  -5    4.32    0.91   2
   3  14  -5    5.93    0.90   3
  -3 -14   5    4.31    0.89   4
  -3 -14   5    5.02    0.84   1
  -3  14   5    5.21    0.95   1
   2  14  -5   94.18    2.80   3
  -2  14   5   99.84    2.97   1
   2 -14  -5   94.84    2.90   2
  -2 -14   5   98.53    2.91   4
  -1  14   5  113.28    2.61   5
   1 -14  -5  111.13    3.13   2
   1  14  -5  116.25    3.20   3
  -1  14   5  116.99    3.26   1
  -1 -14   5  114.99    3.24   4
   0  14  -5   20.09    1.38   3
   0 -14  -5   23.19    1.48   1
   0  14   5   22.13    1.46   4
   0 -14   5   20.43    1.43   4
   0 -14  -5   19.56    1.30   2
  -1 -14  -5   36.49    1.78   2
   1  14   5   39.89    1.99   4
  -1 -14  -5   36.11    1.83   1
   1 -14   5   35.99    1.86   4
  -1  14  -5   33.22    1.76   3
  -2 -14  -5   21.39    1.60   1
  -2 -14  -5   24.86    1.54   2
   2 -14   5   20.71    1.53   4
  -2  14  -5   22.26    1.61   3
   2  14   5   21.94    1.72   4
   5 -15  -5    0.08    0.83   2
  -5 -15   5    0.72    0.83   4
  -5  15   5    0.43    0.88   1
   5  15  -5    1.66    0.84   3
  -5 -15   5    1.23    0.80   1
  -4 -15   5   36.83    1.86   4
   4 -15  -5   35.18    1.93   2
   4  15  -5   35.17    1.81   3
  -4 -15   5   39.29    1.82   1
  -4  15   5   34.84    1.90   1
  -3 -15   5   35.84    1.81   4
  -3 -15   5   37.63    1.74   1
   3 -15  -5   38.38    1.93   2
  -3  15   5   36.87    1.91   1
   3  15  -5   38.56    1.82   3
  -2  15   5   14.05    1.25   1
   2  15  -5   10.69    1.09   3
  -2 -15   5   10.62    1.16   4
  -2  15   5   12.97    1.01   5
   2 -15  -5   14.20    1.25   2
  -1 -15   5   31.52    1.77   4
   1 -15  -5   33.70    1.70   2
   1  15  -5   29.15    1.64   3
  -1  15   5   32.24    1.74   1
  -1  15   5   32.77    1.44   5
   0  15   5    7.64    1.08   4
   0 -15  -5    8.08    0.98   2
   0 -15   5    8.64    1.10   4
   0 -15  -5    7.40    1.05   1
   0  15  -5    7.73    1.05   3
  -1 -15  -5    1.59    0.83   1
  -1  15  -5    2.40    0.83   3
   1 -15   5    0.64    0.81   4
  -1 -15  -5    1.56    0.75   2
   1  15   5    1.73    0.98   4
   2 -15   5   97.21    3.13   4
   2  15   5   94.82    3.27   4
  -2  15  -5   87.36    3.03   3
  -2 -15  -5   88.58    3.04   1
  -2 -15  -5   90.03    2.89   2
  -5  16   5   20.62    1.66   1
   5 -16  -5   20.18    1.66   2
  -5 -16   5   22.98    1.66   1
   5  16  -5   24.47    1.67   3
  -5 -16   5   22.66    1.68   4
  -4  16   5   52.84    2.34   1
  -4 -16   5   56.07    2.23   1
  -4 -16   5   54.95    2.29   4
   4  16  -5   51.94    2.20   3
   4 -16  -5   55.81    2.41   2
  -3 -16   5    7.23    1.07   4
   3  16  -5    8.01    1.04   3
  -3 -16   5    8.65    1.01   1
   3 -16  -5    7.87    1.10   2
  -3  16   5   10.04    1.20   1
   2  16  -5   79.46    2.62   3
  -2  16   5   76.75    2.17   5
  -2 -16   5   77.07    2.68   4
   2 -16  -5   78.71    2.69   2
  -2  16   5   75.90    2.67   1
  -1  16   5  124.39    2.89   5
   1  16  -5  129.03    3.55   3
   1 -16  -5  123.94    3.47   2
  -1 -16   5  124.04    3.54   4
  -1  16   5  125.10    3.57   1
   0  16  -5   73.27    2.58   3
   0 -16   5   72.30    2.63   4
   0  16   5   69.38    2.52   4
   0 -16  -5   72.28    2.51   2
   0 -16  -5   68.68    2.57   1
   1 -16   5   19.00    1.52   4
  -1  16  -5   18.54    1.50   3
  -1 -16  -5   20.67    1.47   2
  -1 -16  -5   18.77    1.54   1
   1  16   5   20.52    1.62   4
  -2  16  -5    0.13    0.87   3
  -2 -16  -5    0.96    0.95   1
   2  16   5    0.39    1.03   4
  -2 -16  -5   -0.01    0.81   2
   2 -16   5    0.45    0.90   4
  -4 -17   5    2.72    0.87   1
  -4 -17   5    1.84    0.89   4
  -4  17   5    1.41    0.91   1
   4  17  -5    2.38    0.89   3
   4 -17  -5    1.99    0.93   2
  -3 -17   5    6.03    1.06   4
   3  17  -5    6.96    1.02   3
  -3  17   5    6.42    1.10   1
   3 -17  -5    5.04    1.02   2
   2  17  -5    4.97    0.92   3
  -2  17   5    6.50    0.86   5
  -2 -17   5    5.09    1.03   4
  -2  17   5    6.23    1.03   1
   2 -17  -5    4.61    0.95   2
  -1  17   5   -0.22    0.64   5
  -1 -17   5   -0.36    0.72   4
   1  17  -5    0.78    0.71   3
   1 -17  -5   -0.24    0.69   2
  -1  17   5    0.20    0.73   1
   0  17  -5   51.57    2.25   3
   0  17   5   59.08    2.33   4
   0 -17  -5   53.45    2.35   1
   0 -17   5   54.91    2.37   4
   0 -17  -5   58.58    2.30   2
   1  17   5  155.18    4.17   4
   1 -17   5  149.48    4.14   4
  -1 -17  -5  147.58    4.12   1
  -1  17  -5  150.19    4.13   3
  -1 -17  -5  147.76    3.93   2
   4 -18  -5    2.06    0.96   2
   4  18  -5    2.91    0.93   3
  -4  18   5    3.14    1.06   1
  -4 -18   5    0.93    0.93   4
  -4 -18   5    1.66    0.89   1
  -3  18   5    1.45    0.91   1
   3  18  -5    2.08    0.86   3
  -3 -18   5    2.16    0.89   4
   3 -18  -5    1.73    0.91   2
  -2 -18   5    0.79    0.80   4
   2 -18  -5    1.49    0.88   2
  -2  18   5    0.10    0.78   1
  -2  18   5    1.25    0.71   5
   2  18  -5    0.68    0.73   3
  -1  18   5   57.85    2.44   1
   1 -18  -5   58.48    2.42   2
  -1 -18   5   54.42    2.39   4
   1  18  -5   58.21    2.40   3
  -1  18   5   58.73    2.02   5
   0 -18  -5  163.25    4.37   1
   0  18  -5  159.36    4.27   3
   0 -18  -5  165.15    4.21   2
   0  18   5  157.23    4.15   4
   0 -18   5  151.38    4.24   4
   1 -18   5   33.45    2.01   4
  -1  18  -5   33.78    1.95   3
  -1 -18  -5   33.71    2.03   1
   1  18   5   35.68    2.13   4
  -1 -18  -5   33.00    1.88   2
  -3 -19   5   27.53    1.83   4
  -3  19   5   30.28    1.94   1
   3  19  -5   29.20    1.79   3
   3 -19  -5   29.29    1.91   2
  -2  19   5    1.49    0.90   1
   2 -19  -5    0.68    0.92   2
   2  19  -5    2.38    0.91   3
  -2  19   5    1.72    0.79   5
  -2 -19   5    0.40    0.89   4
  -1  19   5   68.65    2.75   1
  -1 -19   5   65.93    2.69   4
  -1  19   5   67.55    2.24   5
   1  19  -5   74.62    2.77   3
   1 -19  -5   74.05    2.73   2
   0 -19  -5  129.87    3.93   1
   0  19  -5  132.11    3.89   3
   0 -19   5  137.43    3.96   4
   0 -19  -5  136.22    3.83   2
  -7   0   6   -0.43    0.87   1
   7   0  -6   -0.35    0.78   3
  -6   0   6   13.84    1.32   1
   6   0  -6   14.95    1.26   3
  -5   0   6   -1.15    0.66   1
   5   0  -6   -0.28    0.60   3
  -4   0   6  240.65    5.01   1
   4   0  -6  237.39    4.68   2
   4   0  -6  237.98    4.86   3
  -3   0   6    0.20    0.44   4
   3   0  -6    0.46    0.48   3
  -3   0   6    0.60    0.60   1
   3   0  -6    0.19    0.43   2
   2   0  -6   16.81    1.05   2
   2   0  -6   17.00    1.01   3
  -2   0   6   16.99    1.10   1
  -2   0   6   18.17    1.12   4
   1   0  -6   -0.56    0.41   3
  -1   0   6   -0.77    0.57   4
   1   0  -6   -0.07    0.48   2
  -1   0   6   -0.10    0.53   1
   0   0  -6  617.83   10.50   2
   0   0   6  613.53   10.42   4
   0   0  -6  606.18   10.09   3
  -1   0  -6    0.16    0.61   2
   1   0   6   -0.63    0.69   4
  -2   0  -6   25.11    1.54   2
   2   0   6   25.69    1.64   4
  -3   0  -6    0.01    0.82   2
   3   0   6    0.27    0.87   4
   7  -1  -6   57.77    2.44   3
  -7  -1   6   54.67    2.48   1
   7   1  -6   54.45    2.42   3
  -7   1   6   57.53    2.51   1
   6  -1  -6   75.20    2.60   3
   6   1  -6   79.12    2.64   3
  -6   1   6   76.08    2.70   1
  -6  -1   6   74.24    2.66   1
   5   1  -6    1.85    0.77   3
   5  -1  -6    2.08    0.70   3
  -5   1   6    2.24    0.83   1
  -5  -1   6    2.88    0.83   1
  -4  -1   6   68.64    2.27   1
   4  -1  -6   66.83    2.03   2
   4   1  -6   69.75    2.18   3
   4  -1  -6   69.56    2.16   3
  -4   1   6   66.40    2.25   1
   3   1  -6  154.19    3.39   3
   3  -1  -6  157.98    3.39   2
   3   1  -6  152.81    3.27   2
  -3  -1   6  155.26    3.21   4
  -3  -1   6  146.88    3.45   1
   3  -1  -6  153.71    3.34   3
   2   1  -6   73.26    2.01   2
  -2   1   6   70.99    2.03   4
   2   1  -6   70.81    1.96   3
   2  -1  -6   72.01    2.05   2
  -2   1   6   69.14    2.08   1
  -2  -1   6   69.59    2.03   4
  -2  -1   6   70.39    2.04   1
   2  -1  -6   68.63    1.87   3
   1  -1  -6  282.88    5.51   2
   1   1  -6  296.72    5.50   2
   1   1  -6  297.97    5.34   3
  -1  -1   6  287.36    5.29   1
  -1  -1   6  282.66    5.49   4
   1  -1  -6  284.93    5.16   3
  -1   1   6  288.77    5.49   4
  -1   1   6  291.62    5.39   1
   0   1  -6  849.00   13.65   3
   0   1   6  831.77   13.71   4
   0   1  -6  845.47   13.89   2
  -1  -1  -6    0.50    0.62   2
   1  -1   6    1.21    0.76   4
   1   1   6    0.68    0.73   4
  -1   1  -6    0.74    0.62   2
   2   1   6   -0.01    0.79   4
  -2   1  -6   -0.12    0.66   2
  -2  -1  -6    0.51    0.71   2
   2  -1   6   -0.61    0.76   4
  -3  -1  -6  157.31    4.19   2
  -3   1  -6  157.14    4.20   2
   3  -1   6  156.73    4.22   4
  -7   2   6    6.78    1.24   1
   7  -2  -6    7.91    1.18   3
  -7  -2   6    7.25    1.22   1
   7   2  -6    5.71    1.18   3
   6   2  -6    1.60    0.80   3
  -6   2   6    2.52    0.94   1
   6  -2  -6    2.99    0.85   3
  -6  -2   6    1.87    0.88   1
   5  -2  -6   53.64    1.90   2
   5  -2  -6   58.41    2.07   3
   5   2  -6   58.06    2.14   3
  -5  -2   6   55.83    2.15   1
  -5   2   6   54.82    2.17   1
  -4   2   6   21.43    1.39   1
  -4  -2   6   21.91    1.37   1
   4  -2  -6   22.83    1.24   2
   4   2  -6   20.37    1.29   3
   4  -2  -6   20.48    1.25   3
  -3   2   6  146.86    3.46   1
   3   2  -6  142.99    3.28   3
  -3  -2   6  146.88    3.38   1
   3  -2  -6  146.41    3.22   3
  -3  -2   6  148.88    3.16   4
   3  -2  -6  145.80    3.30   2
   3   2  -6  146.07    3.12   2
  -2  -2   6   59.31    1.85   1
  -2   2   6   59.38    1.94   1
   2   2  -6   61.73    1.81   2
   2  -2  -6   62.56    1.74   3
  -2  -2   6   60.22    1.88   4
   2  -2  -6   58.74    1.86   2
  -2   2   6   62.16    1.89   4
   2   2  -6   58.34    1.80   3
  -1  -2   6  278.96    5.04   1
   1   2  -6  277.77    5.24   2
  -1  -2   6  268.24    5.29   4
  -1   2   6  273.29    5.21   1
  -1   2   6  275.12    5.28   4
   1  -2  -6  270.19    5.32   2
   1   2  -6  275.44    5.14   3
   0   2  -6   17.27    1.24   2
   0  -2  -6   11.55    1.02   2
   0   2  -6   15.57    1.03   3
   0   2   6   14.02    1.16   4
   0   2   6   14.46    1.10   1
   0  -2   6   10.65    1.10   4
  -1  -2  -6   53.62    2.04   2
  -1   2  -6   52.62    1.98   2
   1   2   6   51.31    2.11   4
  -1   2  -6   54.35    1.75   3
   1  -2   6   50.96    2.09   4
  -2   2  -6    0.82    0.70   2
   2   2   6   -0.07    0.78   4
  -2  -2  -6   -0.56    0.59   2
   2  -2   6   -0.03    0.71   4
  -3  -2  -6   54.94    2.38   2
   3   2   6   54.14    2.46   4
  -3   2  -6   60.17    2.45   2
   3  -2   6   58.85    2.48   4
  -7   3   6    4.59    1.15   1
   7  -3  -6    4.96    1.07   3
  -7  -3   6    4.86    1.09   1
   7   3  -6    5.83    1.14   3
  -6   3   6   12.50    1.29   1
   6  -3  -6   11.03    1.16   3
   6   3  -6   10.96    1.18   3
  -6  -3   6   10.89    1.22   1
   5  -3  -6  110.36    2.94   2
   5  -3  -6  113.94    3.04   3
  -5   3   6  116.18    3.23   1
   5   3  -6  114.71    3.13   3
   4  -3  -6  162.66    3.64   3
  -4  -3   6  160.68    3.78   1
  -4   3   6  159.29    3.85   1
   4   3  -6  169.19    3.80   3
   4  -3  -6  161.93    3.67   2
  -3   3   6   42.46    1.74   1
   3  -3  -6   40.52    1.58   2
   3  -3  -6   44.65    1.55   3
  -3  -3   6   42.70    1.55   4
   3   3  -6   42.14    1.61   3
  -3  -3   6   41.36    1.65   1
   2  -3  -6   92.23    2.48   2
  -2   3   6   93.76    2.55   1
   2  -3  -6   97.32    2.25   3
  -2   3   6  100.24    2.47   4
  -2  -3   6   92.98    2.44   4
   2   3  -6   93.83    2.42   3
  -2  -3   6   95.40    2.44   1
   2   3  -6   94.43    2.33   2
   1   3  -6  701.64   11.56   3
   1   3  -6  708.45   11.50   2
  -1  -3   6  682.56   11.47   4
  -1   3   6  692.35   11.63   1
  -1   3   6  701.43   11.42   4
  -1  -3   6  688.25   11.31   1
   0   3   6   97.29    2.46   1
   0   3  -6   98.02    2.66   2
   0   3  -6   99.06    2.50   3
   0   3   6  101.47    2.79   4
   0  -3  -6   98.52    2.73   2
   0  -3   6   98.41    2.80   4
  -1  -3  -6   84.87    2.60   2
  -1   3  -6   92.59    2.40   3
  -1   3  -6   89.13    2.63   2
   1  -3   6   87.69    2.73   4
   1   3   6   84.01    2.69   4
  -2   3  -6  105.43    3.14   2
  -2  -3  -6  109.73    3.15   2
   2  -3   6  109.74    3.23   4
   2   3   6  108.52    3.28   4
  -3  -3  -6    3.61    0.99   2
   3   3   6    4.39    1.13   4
  -3   3  -6    5.07    1.06   2
   3  -3   6    4.70    1.10   4
  -7   4   6  102.66    3.35   1
   7  -4  -6   99.30    3.24   3
  -7  -4   6   91.35    3.19   1
  -6  -4   6    6.87    1.12   1
  -6   4   6    8.90    1.21   1
   6  -4  -6    6.57    1.01   3
   6   4  -6    6.58    1.05   3
   6  -4  -6    7.23    1.01   2
  -5   4   6    4.52    0.93   1
   5  -4  -6    4.46    0.79   2
   5   4  -6    4.73    0.87   3
  -5  -4   6    5.08    0.93   1
   5  -4  -6    3.52    0.75   3
  -4   4   6   48.61    1.95   1
   4   4  -6   48.80    1.88   3
  -4  -4   6   51.00    1.94   1
   4  -4  -6   46.26    1.70   3
   4  -4  -6   45.43    1.76   2
   3  -4  -6    0.66    0.52   2
   3  -4  -6    0.58    0.47   3
  -3  -4   6    1.03    0.55   4
  -3  -4   6    0.59    0.59   1
   3   4  -6    1.06    0.55   3
  -3   4   6    1.48    0.66   1
   2  -4  -6  212.37    4.48   2
  -2   4   6  232.79    4.34   4
   2   4  -6  211.61    4.18   2
  -2  -4   6  217.78    4.39   4
   2   4  -6  225.77    4.47   3
  -2  -4   6  219.57    4.31   1
  -2   4   6  216.13    4.54   1
  -1  -4   6  640.95   10.90   4
   1   4  -6  680.78   11.05   3
  -1   4   6  654.32   10.83   4
   1   4  -6  654.49   10.86   2
  -1   4   6  646.05   11.08   1
   0   4   6    8.94    1.00   4
   0   4  -6    8.52    0.87   2
   0  -4  -6    7.22    0.90   2
   0   4   6    7.00    0.80   1
   0  -4   6    8.62    1.02   4
   0   4  -6    8.50    0.80   3
  -1   4  -6   21.94    1.38   2
  -1   4  -6   23.13    1.24   3
   1  -4   6   20.50    1.45   4
   1   4   6   26.19    1.59   4
  -1  -4  -6   21.47    1.37   2
   2   4   6    7.65    1.14   4
  -2   4  -6    7.93    1.04   2
  -2  -4  -6    6.17    0.98   2
   2  -4   6    6.81    1.09   4
  -3  -4  -6    7.00    1.11   2
   3  -4   6    5.91    1.16   4
  -3   4  -6    5.22    1.11   2
   3   4   6    6.26    1.18   4
  -7   5   6    0.98    0.98   1
   7  -5  -6    0.92    0.90   3
  -7  -5   6    0.33    0.90   1
   7   5  -6    0.74    0.88   3
  -6  -5   6   46.95    2.13   1
   6   5  -6   50.91    2.21   3
   6  -5  -6   51.10    2.11   3
   6  -5  -6   48.38    2.08   2
  -6   5   6   50.90    2.26   1
  -5  -5   6    1.00    0.72   1
   5  -5  -6    0.35    0.58   2
   5   5  -6    0.09    0.61   3
  -5   5   6   -0.70    0.67   1
   5  -5  -6    0.40    0.58   3
   4   5  -6   61.29    2.09   3
   4  -5  -6   55.83    1.86   3
  -4  -5   6   60.58    2.08   1
  -4   5   6   58.48    2.18   1
   4  -5  -6   57.31    2.00   2
   3   5  -6   53.24    1.87   3
  -3  -5   6   51.72    1.83   1
  -3  -5   6   56.14    1.84   4
  -3   5   6   54.71    1.99   1
   3  -5  -6   52.97    1.87   2
   3  -5  -6   50.10    1.62   3
  -2   5   6   69.41    2.18   1
  -2  -5   6   68.01    2.01   1
  -2   5   6   73.83    2.10   4
   2   5  -6   71.29    2.14   3
  -2  -5   6   65.99    2.10   4
  -1   5   6   12.26    1.03   1
   1   5  -6   12.78    0.99   2
  -1   5   6   12.32    1.04   4
   1  -5  -6   11.41    0.95   2
   1   5  -6   10.82    0.88   3
  -1  -5   6   12.05    1.03   4
   0   5  -6   13.73    1.09   2
   0   5   6   12.84    1.14   4
   0  -5   6   11.02    1.05   4
   0   5   6   12.07    0.96   1
   0  -5  -6   12.31    1.02   2
   0   5  -6   13.22    1.00   3
   1   5   6  112.14    3.21   4
   1  -5   6  120.64    3.26   4
  -1  -5  -6  115.98    3.15   2
  -1   5  -6  122.17    2.98   3
  -1   5  -6  113.60    3.09   2
  -2   5  -6   -0.24    0.61   3
   2  -5   6    0.13    0.80   4
  -2   5  -6    0.40    0.72   2
  -2  -5  -6    0.77    0.69   2
   2   5   6    0.96    0.87   4
  -3  -5  -6    1.28    0.88   2
   3  -5   6    2.36    1.04   4
   3   5   6    2.95    1.06   4
  -3   5  -6    2.77    0.99   2
   7   6  -6    1.98    0.98   3
  -7  -6   6    2.09    0.99   1
   7  -6  -6    2.62    0.98   3
  -7   6   6    2.16    1.10   1
   6  -6  -6    6.08    1.00   3
  -6   6   6    7.30    1.15   1
  -6  -6   6    6.35    1.09   1
   6  -6  -6    8.07    1.09   2
   6   6  -6    6.29    1.06   3
  -5   6   6    5.72    1.03   1
   5  -6  -6    5.77    0.90   2
   5   6  -6    9.39    1.05   3
  -5  -6   6    7.01    0.98   1
   5  -6  -6    7.28    0.91   3
  -4  -6   6   30.19    1.52   1
   4   6  -6   34.24    1.57   3
  -4   6   6   26.94    1.60   1
   4  -6  -6   26.62    1.44   2
  -4  -6   6   29.36    1.44   4
   4  -6  -6   31.83    1.38   3
  -3   6   6   84.85    2.57   1
   3  -6  -6   84.13    2.13   3
  -3  -6   6   85.67    2.38   4
  -3  -6   6   86.70    2.38   1
   3   6  -6   84.69    2.44   3
   3  -6  -6   83.82    2.48   2
  -2   6   6    7.45    0.85   4
   2  -6  -6    7.98    0.83   2
  -2   6   6    8.11    0.91   1
  -2  -6   6    6.54    0.82   4
   2   6  -6    7.15    0.82   3
  -2  -6   6    6.79    0.77   1
  -1   6   6   22.11    1.28   1
   1  -6  -6   18.47    1.20   2
   1   6  -6   22.01    1.22   3
  -1  -6   6   21.34    1.29   4
  -1   6   6   20.64    1.34   4
   1   6  -6   20.58    1.19   2
   0   6   6   11.41    0.98   1
   0   6   6   11.08    0.80   5
   0  -6   6   10.75    1.07   4
   0   6  -6   12.05    0.98   3
   0   6  -6   11.53    0.97   2
   0   6   6    9.09    1.05   4
   0  -6  -6   11.22    1.02   2
  -1  -6  -6   92.42    2.77   2
   1  -6   6   94.70    2.87   4
  -1   6  -6   96.26    2.74   2
  -1   6  -6   90.20    2.58   3
   1   6   6   97.01    2.61   1
   1   6   6   96.26    2.10   5
   1   6   6   92.28    2.89   4
  -2  -6  -6   16.60    1.34   2
  -2   6  -6   15.82    1.33   2
  -2   6  -6   17.39    1.27   3
   2   6   6   16.13    1.45   4
   2  -6   6   17.23    1.40   4
  -3  -6  -6   19.98    1.58   2
   3  -6   6   21.32    1.70   4
  -3   6  -6   24.02    1.74   2
   3   6   6   22.48    1.82   4
  -7   7   6    4.38    1.19   1
  -7  -7   6    4.44    1.08   1
   7  -7  -6    5.24    1.15   2
   7   7  -6    5.94    1.20   3
   7  -7  -6    4.61    1.13   3
   6   7  -6    0.13    0.75   3
  -6  -7   6   -0.75    0.81   1
   6  -7  -6    0.52    0.75   3
  -6   7   6   -0.35    0.81   1
   6  -7  -6   -0.48    0.72   2
   5  -7  -6  151.40    3.68   3
   5  -7  -6  150.41    3.83   2
   5   7  -6  152.07    3.88   3
  -5   7   6  151.44    3.98   1
  -5  -7   6  159.14    3.91   1
   4  -7  -6    4.03    0.69   3
  -4  -7   6    4.93    0.84   1
   4  -7  -6    3.95    0.76   2
  -4  -7   6    3.95    0.74   4
  -4   7   6    2.92    0.84   1
   4   7  -6    3.56    0.77   3
  -3  -7   6   54.86    1.89   4
   3   7  -6   54.92    1.95   3
  -3  -7   6   56.17    1.89   1
   3  -7  -6   53.25    1.97   2
  -3   7   6   56.25    2.08   1
  -2  -7   6   90.73    2.54   4
  -2  -7   6   94.55    2.38   1
  -2   7   6   90.03    2.64   1
   2   7  -6   96.07    2.62   3
   2  -7  -6   92.75    2.61   2
   1   7  -6    0.08    0.50   3
  -1  -7   6   -0.08    0.52   4
  -1   7   6    0.55    0.63   4
   1  -7  -6    0.63    0.52   2
  -1   7   6   -0.31    0.57   1
   0   7   6    4.41    0.79   1
   0   7   6    2.89    0.81   4
   0  -7   6    3.93    0.80   4
   0   7  -6    3.67    0.71   2
   0  -7  -6    4.30    0.75   2
   0   7   6    3.93    0.65   5
   0   7  -6    3.66    0.72   3
   1   7   6   50.77    2.13   4
   1  -7   6   47.45    2.03   4
   1   7   6   49.43    1.85   1
   1   7   6   46.66    1.47   5
  -1   7  -6   48.01    1.85   3
  -1  -7  -6   47.38    1.95   2
  -1   7  -6   45.62    1.90   2
  -2   7  -6   26.55    1.52   3
   2  -7   6   25.61    1.68   4
   2   7   6   24.11    1.75   4
  -2  -7  -6   23.04    1.53   2
  -2   7  -6   25.33    1.62   2
  -3  -7  -6   15.16    1.37   2
   3  -7   6   16.85    1.53   4
  -3   7  -6   17.15    1.44   3
   3   7   6   16.43    1.66   4
  -3   7  -6   15.62    1.51   2
   7   8  -6    1.61    0.98   3
  -7  -8   6    1.19    0.95   1
   7  -8  -6    1.74    0.95   3
   7  -8  -6    1.51    1.01   2
  -7   8   6    2.00    1.12   1
  -6   8   6   38.20    2.04   1
   6  -8  -6   39.77    2.00   2
  -6  -8   6   38.46    2.03   1
   6   8  -6   42.77    2.09   3
   6  -8  -6   40.66    1.97   3
  -5  -8   6    9.01    1.10   1
  -5   8   6   10.43    1.23   1
   5   8  -6   10.28    1.10   3
   5  -8  -6    7.45    1.03   2
   5  -8  -6   11.20    1.07   3
  -4   8   6    0.71    0.72   1
   4   8  -6    1.48    0.68   3
   4  -8  -6    1.68    0.64   3
  -4  -8   6    0.37    0.66   1
  -4  -8   6    1.41    0.65   4
   4  -8  -6    0.56    0.59   2
   3   8  -6   39.31    1.67   3
  -3  -8   6   41.92    1.72   1
   3  -8  -6   40.34    1.74   2
  -3  -8   6   37.47    1.63   4
  -3   8   6   40.14    1.82   1
   2  -8  -6   72.66    2.31   2
  -2   8   6   71.81    2.36   1
   2   8  -6   75.96    2.34   3
  -2  -8   6   72.17    2.28   4
  -1  -8   6    4.44    0.79   4
   1   8  -6    3.19    0.70   3
  -1   8   6    2.41    0.72   1
   1  -8  -6    3.92    0.74   2
  -1   8   6    3.51    0.80   4
   0  -8  -6   95.51    2.76   2
   0  -8   6   95.21    2.81   4
   0   8   6   98.82    2.74   1
   0   8   6   95.77    2.84   4
   0   8   6  100.37    2.24   5
   0   8  -6  101.22    2.67   2
   0   8  -6   98.12    2.72   3
   1   8   6   53.66    2.24   4
  -1  -8  -6   54.34    2.10   2
   1   8   6   55.09    1.63   5
  -1   8  -6   51.96    1.98   3
   1  -8   6   49.39    2.09   4
  -1   8  -6   52.43    2.03   2
   1   8   6   60.09    2.07   1
  -2  -8  -6   14.05    1.27   2
   2  -8   6   15.88    1.41   4
  -2   8  -6   14.57    1.22   3
   2   8   6   13.27    1.42   4
  -2   8  -6   12.74    1.28   2
   3   8   6    1.39    1.09   4
  -3   8  -6    1.42    1.00   2
   3  -8   6    0.69    0.94   4
  -3  -8  -6    0.91    0.85   2
  -3   8  -6    0.70    0.81   3
   6  -9  -6   18.25    1.48   2
  -6  -9   6   17.83    1.52   1
  -6   9   6   16.65    1.53   1
   6  -9  -6   18.32    1.52   3
   6   9  -6   18.50    1.53   3
  -5  -9   6   19.74    1.53   1
   5  -9  -6   18.72    1.49   2
  -5   9   6   20.75    1.59   1
   5   9  -6   20.84    1.46   3
   5  -9  -6   20.42    1.47   3
  -4  -9   6   65.01    2.22   4
   4  -9  -6   59.96    2.23   2
  -4   9   6   59.89    2.30   1
  -4  -9   6   63.78    2.23   1
   4   9  -6   58.72    2.19   3
  -3  -9   6  151.91    3.62   4
  -3  -9   6  158.38    3.54   1
   3   9  -6  145.04    3.62   3
  -3   9   6  150.74    3.79   1
   3  -9  -6  148.04    3.73   2
   2   9  -6   10.79    1.01   3
   2  -9  -6    7.79    0.91   2
  -2  -9   6    9.00    0.96   4
  -2   9   6   10.04    1.05   1
   1   9  -6   10.41    0.97   3
  -1   9   6   10.14    1.04   4
  -1   9   6   11.46    0.87   5
   1  -9  -6   10.69    1.02   2
  -1  -9   6   11.75    1.06   4
  -1   9   6   10.92    1.03   1
   0   9   6  115.09    3.13   4
   0   9  -6  115.56    3.05   3
   0  -9  -6  109.61    3.06   2
   0   9   6  115.63    3.06   1
   0  -9   6  109.55    3.11   4
   0   9   6  110.63    2.44   5
  -1  -9  -6    2.99    0.78   2
  -1   9  -6    4.56    0.83   3
   1  -9   6    4.37    0.90   4
  -1   9  -6    3.86    0.84   2
   1   9   6    2.88    0.93   4
   1   9   6    4.26    0.84   1
   1   9   6    4.14    0.68   5
  -2  -9  -6    0.34    0.70   2
   2   9   6    0.75    0.94   4
  -2   9  -6   -0.36    0.77   2
  -2   9  -6   -0.24    0.70   3
   2  -9   6   -0.19    0.77   4
  -6  10   6   -0.57    0.92   1
   6  10  -6    1.28    0.88   3
   6 -10  -6    2.13    0.92   2
   6 -10  -6    0.03    0.77   3
  -6 -10   6    0.59    0.85   1
   5 -10  -6    8.07    1.11   2
  -5  10   6    7.04    1.12   1
   5  10  -6    8.01    1.08   3
  -5 -10   6    8.13    1.12   1
  -4 -10   6   12.02    1.09   4
  -4 -10   6   12.70    1.15   1
   4 -10  -6   11.35    1.15   2
   4  10  -6   10.90    1.10   3
  -4  10   6   12.79    1.26   1
  -3  10   6   23.21    1.52   1
   3 -10  -6   22.91    1.43   2
  -3 -10   6   24.88    1.44   1
  -3 -10   6   22.24    1.44   4
   3  10  -6   21.64    1.38   3
  -2 -10   6   65.51    2.27   4
   2  10  -6   68.47    2.28   3
   2 -10  -6   65.78    2.29   2
  -2  10   6   67.16    2.36   1
   1 -10  -6   28.84    1.53   2
  -1 -10   6   30.09    1.58   4
   1  10  -6   28.77    1.51   3
  -1  10   6   30.25    1.32   5
  -1  10   6   30.53    1.63   4
  -1  10   6   29.41    1.58   1
   0  10  -6   30.78    1.56   3
   0 -10  -6   27.36    1.53   2
   0 -10   6   29.29    1.60   4
   0  10   6   28.78    1.68   4
   0  10   6   29.69    1.27   5
   0  10   6   27.52    1.53   1
   1  10   6    6.63    1.11   4
   1  10   6    8.99    1.02   1
  -1  10  -6    7.60    0.98   3
  -1  10  -6    8.41    1.00   2
  -1 -10  -6    8.05    0.98   2
   1 -10   6    8.64    1.10   4
   1  10   6    7.84    0.82   5
  -2 -10  -6   24.68    1.60   2
   2 -10   6   29.80    1.81   4
  -2  10  -6   29.21    1.79   2
  -2  10  -6   26.97    1.65   3
   2  10   6   26.26    1.89   4
   6 -11  -6   29.18    1.76   3
   6  11  -6   32.93    1.98   3
  -6 -11   6   31.12    1.88   1
  -6  11   6   28.70    1.94   1
   6 -11  -6   30.28    1.92   2
  -5 -11   6    2.83    0.93   1
   5  11  -6    2.53    0.85   3
   5 -11  -6    2.52    0.88   2
  -5  11   6    2.30    0.97   1
   4 -11  -6   25.85    1.61   2
  -4 -11   6   27.58    1.64   1
  -4 -11   6   26.05    1.54   4
   4  11  -6   25.68    1.53   3
  -4  11   6   23.11    1.59   1
  -3 -11   6   29.90    1.57   1
  -3 -11   6   29.02    1.57   4
  -3  11   6   27.98    1.67   1
   3 -11  -6   29.22    1.62   2
   3  11  -6   28.58    1.57   3
   2 -11  -6    0.17    0.60   2
  -2 -11   6   -0.22    0.59   4
   2  11  -6    0.07    0.59   3
  -2  11   6    0.39    0.68   1
  -1  11   6    2.75    0.68   5
  -1  11   6    2.76    0.87   4
  -1  11   6    3.09    0.79   1
   1 -11  -6    3.49    0.76   2
   1  11  -6    3.27    0.76   3
  -1 -11   6    4.00    0.84   4
   0  11   6   23.48    1.47   1
   0 -11  -6   22.69    1.45   2
   0  11   6   21.07    1.59   4
   0 -11   6   24.04    1.54   4
   0  11   6   24.47    1.23   5
   0  11  -6   24.59    1.47   3
   1  11   6   -0.09    0.89   4
   1  11   6    1.53    0.63   5
  -1  11  -6    0.96    0.71   3
   1  11   6    2.48    0.79   1
   1 -11   6    0.26    0.76   4
  -1 -11  -6    1.82    0.71   2
  -2  11  -6  129.84    3.69   2
  -2  11  -6  130.16    3.66   3
   2 -11   6  128.88    3.75   4
  -2 -11  -6  133.82    3.68   2
   2  11   6  135.38    3.95   4
   6 -12  -6    6.15    1.18   2
  -6 -12   6    6.76    1.19   1
  -6  12   6    4.17    1.14   1
   6  12  -6    5.47    1.12   3
  -5  12   6  124.82    3.72   1
  -5 -12   6  137.21    3.67   1
   5  12  -6  128.43    3.66   3
   4  12  -6   21.41    1.48   3
   4 -12  -6   19.09    1.50   2
  -4 -12   6   22.18    1.50   1
  -4  12   6   22.83    1.59   1
  -4 -12   6   20.30    1.42   4
  -3 -12   6  144.09    3.71   4
   3  12  -6  141.78    3.73   3
  -3 -12   6  153.55    3.55   1
  -3  12   6  143.30    3.86   1
   3 -12  -6  147.06    3.86   2
  -2 -12   6  196.85    4.59   4
  -2  12   6  192.34    4.64   1
   2  12  -6  205.79    4.62   3
   2 -12  -6  202.53    4.68   2
   1  12  -6   10.87    1.11   3
  -1 -12   6   10.81    1.12   4
   1 -12  -6   11.66    1.12   2
  -1  12   6   13.76    1.00   5
  -1  12   6   11.57    1.16   1
   0  12   6   43.79    2.10   4
   0  12  -6   39.68    1.85   3
   0 -12  -6   39.21    1.88   2
   0  12   6   43.38    1.58   5
   0  12   6   41.23    1.88   1
   0 -12   6   39.14    1.89   4
   1 -12   6    3.06    0.86   4
   1  12   6    3.77    1.09   4
  -1 -12  -6    2.84    0.83   2
  -1  12  -6    4.00    0.88   3
   2 -12   6   -0.68    0.79   4
  -2  12  -6    0.20    0.80   3
   2  12   6   -0.17    1.01   4
  -2 -12  -6   -0.53    0.72   2
   5  13  -6  163.08    4.31   3
  -5 -13   6  165.22    4.22   1
   5 -13  -6  165.28    4.47   2
  -5  13   6  167.99    4.45   1
   4  13  -6   37.32    1.86   3
   4 -13  -6   35.37    1.90   2
  -4 -13   6   34.52    1.80   4
  -4 -13   6   35.63    1.79   1
  -4  13   6   31.15    1.84   1
   3 -13  -6   52.93    2.24   2
   3  13  -6   54.75    2.21   3
  -3  13   6   60.47    2.38   1
  -3 -13   6   60.14    2.31   4
  -2 -13   6  559.82   10.00   4
  -2  13   6  545.48   10.18   1
   2  13  -6  545.10   10.06   3
   2 -13  -6  547.48   10.11   2
  -1  13   6    6.23    0.83   5
  -1 -13   6    7.24    1.05   4
   1 -13  -6    8.59    1.03   2
  -1  13   6    6.93    1.03   1
   1  13  -6    8.94    1.05   3
   0  13   6   20.92    1.61   4
   0  13   6   19.61    1.21   5
   0 -13   6   18.74    1.46   4
   0  13   6   18.50    1.42   1
   0  13  -6   18.52    1.41   3
   0 -13  -6   19.64    1.42   2
  -1  13  -6    0.61    0.77   3
  -1 -13  -6    1.52    0.78   2
   1 -13   6    2.64    0.89   4
  -1 -13  -6    1.40    0.86   1
   1  13   6    1.37    1.00   4
   5 -14  -6    7.55    1.21   2
  -5 -14   6    7.82    1.15   1
  -5 -14   6    7.05    1.16   4
  -5  14   6    7.76    1.24   1
   5  14  -6    8.04    1.18   3
   4  14  -6  107.60    3.28   3
   4 -14  -6  110.36    3.41   2
  -4  14   6  104.51    3.36   1
  -4 -14   6  110.49    3.08   1
  -4 -14   6  106.88    3.22   4
  -3  14   6   -0.58    0.77   1
   3  14  -6   -0.08    0.71   3
   3 -14  -6   -0.80    0.69   2
  -3 -14   6   -0.40    0.73   4
   2  14  -6    4.46    0.93   3
  -2  14   6    4.66    1.02   1
   2 -14  -6    3.90    0.95   2
  -2 -14   6    5.58    1.02   4
   1 -14  -6  108.10    3.21   2
  -1  14   6  105.80    2.63   5
   1  14  -6  107.49    3.21   3
  -1  14   6  104.37    3.22   1
  -1 -14   6  105.68    3.24   4
   0 -14  -6   16.55    1.37   2
   0 -14   6   16.71    1.41   4
   0  14   6   19.01    1.45   1
   0  14   6   16.83    1.46   4
   0  14  -6   16.20    1.37   3
   0  14   6   18.09    1.22   5
  -1 -14  -6  184.30    4.59   2
  -1  14  -6  182.02    4.65   3
   1  14   6  189.36    4.79   4
  -1 -14  -6  185.77    4.67   1
   1 -14   6  179.42    4.65   4
  -5 -15   6   22.22    1.67   4
   5 -15  -6   19.05    1.60   2
  -5  15   6   19.32    1.68   1
   5  15  -6   19.35    1.58   3
  -5 -15   6   17.99    1.53   1
   4 -15  -6    0.23    0.78   2
  -4 -15   6    1.65    0.78   1
  -4 -15   6    0.64    0.83   4
   4  15  -6    0.89    0.78   3
  -4  15   6   -0.05    0.82   1
   3 -15  -6   48.73    2.25   2
   3  15  -6   52.73    2.22   3
  -3  15   6   46.84    2.26   1
  -3 -15   6   48.91    2.19   4
  -2  15   6   39.23    2.05   1
   2 -15  -6   36.90    1.94   2
  -2 -15   6   38.09    2.01   4
   2  15  -6   37.08    1.90   3
  -1 -15   6    2.02    0.88   4
  -1  15   6    0.64    0.67   5
   1  15  -6    1.66    0.82   3
  -1  15   6    1.04    0.86   1
   1 -15  -6    1.83    0.80   2
   0  15  -6  119.68    3.59   3
   0  15   6  131.27    3.70   4
   0  15   6  126.44    3.69   1
   0  15   6  132.37    3.06   5
   0 -15   6  126.72    3.72   4
   0 -15  -6  125.30    3.61   2
  -1 -15  -6  394.21    7.92   2
   1  15   6  398.87    8.05   4
  -1 -15  -6  382.59    8.01   1
  -1  15  -6  391.24    8.07   3
   1 -15   6  397.40    8.03   4
   4  16  -6   13.13    1.36   3
   4 -16  -6   11.48    1.38   2
  -4  16   6   12.24    1.42   1
  -4 -16   6   12.31    1.34   4
  -3 -16   6   44.20    2.19   4
   3 -16  -6   45.71    2.28   2
  -3  16   6   47.72    2.31   1
   3  16  -6   47.82    2.20   3
  -2 -16   6  211.44    5.05   4
   2 -16  -6  207.76    5.07   2
  -2  16   6  205.07    4.11   5
   2  16  -6  206.23    4.97   3
  -2  16   6  201.22    5.05   1
  -1 -16   6   10.28    1.28   4
  -1  16   6   13.32    1.41   1
   1 -16  -6   10.73    1.25   2
   1  16  -6   11.09    1.28   3
  -1  16   6   12.75    1.14   5
   0  16  -6  114.78    3.54   3
   0 -16  -6  118.41    3.54   2
   0  16   6  117.51    2.95   5
   0  16   6  113.17    3.54   4
   0  16   6  116.43    3.60   1
   0 -16   6  125.28    3.72   4
   3  17  -6    2.16    0.92   3
   3 -17  -6    1.99    0.99   2
  -3 -17   6    2.34    0.96   4
  -3  17   6    1.03    0.98   1
   2 -17  -6   27.76    1.84   2
  -2  17   6   28.72    1.56   5
  -2  17   6   27.70    1.91   1
   2  17  -6   28.43    1.82   3
  -2 -17   6   29.69    1.91   4
  -1 -17   6  495.52    9.67   4
  -1  17   6  499.99    9.84   1
  -1  17   6  500.54    7.98   5
   1 -17  -6  501.24    9.72   2
   1  17  -6  515.00    9.83   3
   2 -18  -6   11.82    1.37   2
  -2  18   6   10.77    1.17   5
  -2 -18   6   12.49    1.41   4
  -2  18   6   11.82    1.46   1
   2  18  -6   14.51    1.43   3
   7   0  -7   30.44    1.94   3
  -7   0   7   25.55    1.93   1
   6   0  -7    0.17    0.76   3
  -6   0   7    0.96    0.90   1
  -5   0   7   31.70    1.79   1
   5   0  -7   34.35    1.74   3
  -4   0   7    0.01    0.69   1
   4   0  -7    0.46    0.59   3
   3   0  -7   92.69    2.55   2
   3   0  -7   97.42    2.59   3
  -3   0   7   96.90    2.72   1
   2   0  -7    0.22    0.52   3
   2   0  -7    0.00    0.51   2
  -2   0   7   -0.01    0.60   4
  -2   0   7   -0.85    0.63   1
  -1   0   7  299.69    5.95   4
   1   0  -7  300.99    5.94   2
   0   0  -7    0.08    0.63   2
   0   0   7   -0.62    0.75   4
   1   0   7    1.56    0.90   4
  -1   0  -7    1.32    0.77   2
   2   0   7    0.94    0.91   4
  -2   0  -7    0.16    0.81   2
   7  -1  -7   11.99    1.39   3
  -7   1   7   12.24    1.52   1
   7   1  -7   11.72    1.41   3
  -7  -1   7   12.13    1.48   1
  -6   1   7    1.24    0.92   1
   6  -1  -7    0.06    0.77   3
   6   1  -7   -0.73    0.76   3
  -6  -1   7   -0.22    0.86   1
  -5  -1   7    1.67    0.83   1
   5  -1  -7    3.11    0.84   3
   5   1  -7    4.52    0.91   3
  -5   1   7    2.57    0.90   1
  -4  -1   7    6.26    0.98   1
   4  -1  -7    6.33    0.83   2
  -4   1   7    8.18    1.03   1
   4  -1  -7    5.96    0.85   3
  -3   1   7   53.33    2.01   1
   3   1  -7   55.46    1.91   3
   3  -1  -7   54.61    1.89   2
  -3  -1   7   53.78    1.98   1
   3  -1  -7   54.44    1.85   3
   3   1  -7   55.02    1.85   2
  -2  -1   7   89.02    2.48   1
  -2   1   7   85.79    2.50   1
  -2  -1   7   86.97    2.51   4
  -2   1   7   89.80    2.52   4
   2   1  -7   88.42    2.44   2
   2   1  -7   89.05    2.38   3
   2  -1  -7   87.20    2.49   2
  -1  -1   7  186.52    4.29   4
  -1   1   7  202.32    4.37   4
   1  -1  -7  188.91    4.27   2
   1   1  -7  192.21    4.23   2
   0  -1  -7   92.54    2.82   2
   0   1   7   95.83    2.94   4
   0   1  -7   95.63    2.83   2
   0  -1   7   94.89    2.92   4
   1   1   7   99.08    3.18   4
  -1   1  -7  104.13    3.11   2
   1  -1   7  105.09    3.24   4
  -2   1  -7    5.99    1.07   2
   2  -1   7    7.23    1.20   4
  -2  -1  -7    6.44    1.14   2
   2   1   7    7.63    1.28   4
   7  -2  -7    6.25    1.18   3
  -7  -2   7    5.68    1.18   1
  -7   2   7    6.14    1.32   1
   7   2  -7    5.08    1.15   3
   6   2  -7   15.72    1.39   3
  -6   2   7   16.84    1.54   1
  -6  -2   7   17.90    1.50   1
   6  -2  -7   17.15    1.41   3
   5  -2  -7    0.42    0.66   3
  -5  -2   7    0.86    0.82   1
   5   2  -7    1.33    0.75   3
  -5   2   7   -1.03    0.74   1
  -4   2   7   87.51    2.75   1
   4  -2  -7   88.75    2.58   2
  -4  -2   7   90.06    2.70   1
   4  -2  -7   91.53    2.59   3
   4   2  -7   87.74    2.62   3
   3   2  -7    8.69    0.88   3
   3  -2  -7    8.51    0.91   2
  -3  -2   7   11.42    0.97   4
  -3   2   7   10.66    1.08   1
  -3  -2   7   10.51    1.07   1
   3  -2  -7    9.74    0.90   3
   2   2  -7    8.17    0.81   3
  -2  -2   7    8.27    0.95   4
  -2   2   7    5.97    0.91   1
   2   2  -7    7.78    0.81   2
   2  -2  -7    6.74    0.86   2
  -2   2   7    8.04    0.93   4
  -2  -2   7    6.40    0.87   1
  -1   2   7   29.79    1.51   1
   1   2  -7   34.39    1.52   3
  -1  -2   7   30.74    1.64   4
  -1   2   7   32.12    1.70   4
   1   2  -7   32.10    1.58   2
   1  -2  -7   31.45    1.56   2
   0   2   7  105.13    3.13   4
   0  -2   7  105.85    3.12   4
   0  -2  -7  100.54    2.97   2
   0   2  -7  112.72    3.08   2
   1  -2   7  119.21    3.50   4
   1   2   7  124.24    3.55   4
  -1   2  -7  120.42    3.41   2
  -2  -2  -7   20.11    1.58   2
   2   2   7   20.75    1.66   4
  -2   2  -7   19.83    1.62   2
   2  -2   7   16.55    1.52   4
   7  -3  -7   20.58    1.72   3
   7   3  -7   20.43    1.70   3
  -7   3   7   18.86    1.73   1
  -7  -3   7   18.50    1.68   1
  -6  -3   7    7.54    1.21   1
  -6   3   7    7.18    1.26   1
   6  -3  -7    5.63    1.03   3
   6   3  -7    8.70    1.18   3
   5   3  -7   22.68    1.53   3
  -5  -3   7   23.44    1.60   1
  -5   3   7   24.33    1.65   1
   5  -3  -7   20.81    1.39   2
   5  -3  -7   23.05    1.41   3
  -4  -3   7  122.84    3.26   1
   4   3  -7  123.63    3.24   3
   4  -3  -7  124.17    3.20   2
  -4   3   7  121.85    3.36   1
   4  -3  -7  118.40    3.06   3
   3   3  -7    1.23    0.59   3
   3  -3  -7    0.87    0.61   2
  -3  -3   7    0.72    0.71   1
  -3   3   7    1.72    0.75   1
  -3  -3   7    1.59    0.65   4
   2  -3  -7   45.51    1.79   2
  -2  -3   7   47.18    1.76   1
  -2   3   7   42.69    1.80   1
   2   3  -7   45.85    1.70   2
   2   3  -7   47.99    1.73   3
  -2  -3   7   44.19    1.77   4
  -2   3   7   48.84    1.85   4
   1   3  -7   36.08    1.66   2
   1  -3  -7   33.94    1.62   2
  -1  -3   7   32.91    1.67   4
  -1   3   7   37.33    1.81   4
   1   3  -7   35.84    1.60   3
  -1   3   7   35.11    1.63   1
   0  -3  -7  337.93    6.74   2
   0   3  -7  345.58    6.67   2
   0  -3   7  333.15    6.73   4
   0   3   7  345.71    6.74   4
   1  -3   7    0.95    0.90   4
   1   3   7    1.94    0.93   4
  -1  -3  -7    0.72    0.73   2
  -1   3  -7    1.06    0.77   2
  -2  -3  -7   14.19    1.37   2
   2  -3   7   14.57    1.50   4
  -2   3  -7   15.03    1.42   2
   2   3   7   12.15    1.44   4
  -7   4   7    7.75    1.36   1
   7   4  -7    9.25    1.35   3
   7  -4  -7    9.85    1.27   3
  -7  -4   7   10.37    1.39   1
  -6  -4   7  136.30    3.86   1
   6   4  -7  139.34    3.90   3
  -6   4   7  136.17    3.95   1
   6  -4  -7  133.71    3.69   3
  -5   4   7   16.29    1.42   1
  -5  -4   7   16.61    1.36   1
   5  -4  -7   15.33    1.23   2
   5  -4  -7   14.29    1.18   3
   5   4  -7   15.18    1.28   3
  -4   4   7   25.76    1.61   1
   4  -4  -7   26.32    1.49   2
   4   4  -7   25.94    1.52   3
   4  -4  -7   28.42    1.42   3
  -4  -4   7   27.21    1.57   1
   3  -4  -7  107.20    2.95   2
  -3  -4   7  111.73    2.85   4
  -3  -4   7  112.21    2.92   1
  -3   4   7  103.82    3.01   1
   3   4  -7  110.17    2.91   3
  -2   4   7   29.44    1.57   4
  -2  -4   7   30.72    1.52   4
  -2   4   7   31.11    1.56   1
   2  -4  -7   29.05    1.48   2
   2   4  -7   30.35    1.43   3
  -1   4   7   60.50    2.22   4
   1   4  -7   62.34    2.10   2
   1  -4  -7   56.07    2.09   2
  -1   4   7   62.64    2.13   1
  -1  -4   7   60.19    2.21   4
   1   4  -7   60.90    2.06   3
   0   4   7   67.30    2.48   4
   0   4  -7   67.21    2.33   2
   0   4  -7   67.88    2.15   3
   0  -4  -7   64.51    2.35   2
   0  -4   7   63.38    2.40   4
   1   4   7  133.63    3.78   4
   1  -4   7  135.62    3.77   4
  -1   4  -7  135.17    3.63   2
  -1  -4  -7  137.34    3.70   2
   2  -4   7    2.78    1.03   4
   2   4   7    0.08    0.96   4
  -2   4  -7    0.43    0.84   2
  -2  -4  -7    1.32    0.86   2
  -6   5   7   72.31    2.81   1
  -6  -5   7   76.28    2.79   1
   6   5  -7   77.22    2.80   3
   6  -5  -7   71.26    2.61   3
   5   5  -7    8.88    1.10   3
  -5  -5   7    9.66    1.14   1
   5  -5  -7    9.01    1.05   2
   5  -5  -7    7.49    0.97   3
  -5   5   7    9.23    1.19   1
  -4  -5   7    0.29    0.69   1
   4   5  -7   -0.12    0.62   3
   4  -5  -7    1.94    0.71   2
  -4   5   7    0.99    0.82   1
  -3  -5   7   36.38    1.62   4
  -3  -5   7   35.27    1.62   1
   3  -5  -7   34.55    1.66   2
   3   5  -7   37.13    1.66   3
  -3   5   7   39.45    1.82   1
   2  -5  -7   97.46    2.80   2
  -2  -5   7   96.37    2.75   4
   2   5  -7   95.70    2.67   3
  -2   5   7  102.35    2.84   1
   1   5  -7   50.38    1.88   2
  -1   5   7   50.85    2.05   4
   1  -5  -7   41.52    1.84   2
  -1   5   7   46.41    1.87   1
  -1  -5   7   46.20    1.94   4
   1   5  -7   50.47    1.90   3
   0  -5  -7   11.52    1.14   2
   0   5  -7   16.00    1.24   2
   0   5   7   12.94    1.27   4
   0  -5   7   12.73    1.25   4
   0   5  -7   14.09    1.14   3
   1  -5   7   18.73    1.51   4
  -1  -5  -7   16.77    1.37   2
   1   5   7   20.13    1.61   4
  -1   5  -7   19.70    1.48   2
  -2   5  -7   63.05    2.55   2
   2   5   7   61.87    2.69   4
  -2  -5  -7   63.60    2.55   2
   2  -5   7   60.37    2.59   4
  -6  -6   7   15.35    1.53   1
   6  -6  -7   15.45    1.41   2
   6   6  -7   13.87    1.41   3
  -6   6   7   15.93    1.51   1
   6  -6  -7   15.43    1.39   3
   5  -6  -7    2.52    0.83   3
  -5   6   7    1.21    0.94   1
   5  -6  -7    1.74    0.80   2
  -5  -6   7    2.94    0.90   1
   5   6  -7    1.98    0.84   3
  -4   6   7   28.47    1.72   1
  -4  -6   7   26.58    1.53   1
   4  -6  -7   24.76    1.53   2
   4   6  -7   26.52    1.54   3
  -3   6   7   62.90    2.28   1
  -3  -6   7   60.48    2.12   4
  -3  -6   7   61.54    2.06   1
   3   6  -7   64.16    2.16   3
   3  -6  -7   57.12    2.14   2
   2  -6  -7   79.83    2.54   2
  -2  -6   7   82.21    2.54   4
   2   6  -7   87.09    2.53   3
  -2   6   7   86.65    2.64   1
  -1   6   7    2.52    0.85   4
  -1  -6   7    2.17    0.78   4
   1  -6  -7    1.10    0.64   2
   1   6  -7    1.04    0.65   3
  -1   6   7    1.78    0.75   1
   0   6  -7  126.16    3.29   2
   0   6   7  121.37    3.18   1
   0  -6  -7  122.40    3.37   2
   0   6   7  120.31    3.39   4
   0   6  -7  119.60    3.16   3
   0  -6   7  122.52    3.43   4
   1  -6   7  113.23    3.43   4
  -1   6  -7  113.31    3.12   3
   1   6   7  114.85    3.48   4
  -1   6  -7  114.38    3.28   2
  -1  -6  -7  113.77    3.35   2
  -2   6  -7  113.87    3.49   2
   2   6   7  112.09    3.65   4
  -2  -6  -7  102.88    3.36   2
   2  -6   7  117.92    3.63   4
   6  -7  -7    8.60    1.21   2
  -6   7   7   11.54    1.39   1
   6  -7  -7   10.90    1.27   3
  -6  -7   7    6.96    1.20   1
   6   7  -7   10.29    1.29   3
   5  -7  -7   20.96    1.54   2
   5   7  -7   20.99    1.53   3
  -5   7   7   20.02    1.63   1
  -5  -7   7   22.94    1.63   1
   4  -7  -7  214.38    4.88   2
   4   7  -7  207.87    4.77   3
  -4   7   7  212.68    4.96   1
  -4  -7   7  211.98    4.69   1
  -3  -7   7    1.78    0.70   4
  -3  -7   7    3.24    0.75   1
   3   7  -7    1.59    0.68   3
   3  -7  -7    1.70    0.70   2
  -3   7   7    2.47    0.87   1
   2  -7  -7    3.52    0.77   2
  -2  -7   7    2.60    0.77   4
  -2   7   7    2.13    0.81   1
   2   7  -7    2.79    0.74   3
  -1   7   7   38.16    1.84   4
   1  -7  -7   35.00    1.70   2
   1   7  -7   39.54    1.74   3
  -1   7   7   34.62    1.70   1
  -1  -7   7   37.66    1.80   4
   0   7   7   -0.27    0.70   1
   0   7  -7   -0.34    0.63   3
   0   7  -7    0.81    0.70   2
   0  -7  -7    0.20    0.67   2
   0  -7   7    0.40    0.74   4
   0   7   7    0.83    0.84   4
   1   7   7   45.13    2.25   4
  -1  -7  -7   43.09    2.02   2
  -1   7  -7   43.64    1.92   3
  -1   7  -7   41.97    2.00   2
   1  -7   7   42.41    2.14   4
  -2  -7  -7   18.21    1.54   2
   2   7   7   14.70    1.64   4
   2  -7   7   14.46    1.52   4
  -2   7  -7   14.42    1.46   2
   6  -8  -7    6.73    1.12   2
  -6  -8   7    7.47    1.21   1
  -6   8   7    6.24    1.18   1
   6  -8  -7    7.81    1.13   3
   6   8  -7    5.94    1.15   3
  -5   8   7   52.68    2.36   1
   5   8  -7   51.41    2.23   3
  -5  -8   7   52.34    2.30   1
   5  -8  -7   53.26    2.28   2
  -4   8   7  137.43    3.81   1
   4   8  -7  139.71    3.70   3
  -4  -8   7  148.25    3.69   1
   4  -8  -7  145.78    3.82   2
  -3   8   7   36.02    1.84   1
  -3  -8   7   40.69    1.80   4
   3   8  -7   37.40    1.74   3
   3  -8  -7   36.39    1.80   2
  -2   8   7   14.37    1.26   1
  -2  -8   7   14.22    1.22   4
   2  -8  -7   14.68    1.21   2
   2   8  -7   13.54    1.16   3
  -1  -8   7    0.54    0.74   4
  -1   8   7    0.93    0.74   1
  -1   8   7    2.22    0.84   4
   1  -8  -7    0.49    0.65   2
   1   8  -7    1.62    0.69   3
   0  -8  -7    0.83    0.71   2
   0   8   7    0.80    0.86   4
   0   8   7    0.04    0.75   1
   0  -8   7   -0.48    0.75   4
   0   8  -7   -0.38    0.66   3
   1   8   7    6.29    1.19   4
  -1  -8  -7    6.07    1.00   2
   1  -8   7    5.69    1.07   4
  -1   8  -7    7.00    1.03   3
  -1   8  -7    6.23    1.03   2
  -6  -9   7   17.30    1.56   1
  -6   9   7   15.61    1.58   1
   6   9  -7   16.84    1.53   3
   6  -9  -7   16.20    1.53   2
   5   9  -7  219.11    5.18   3
   5  -9  -7  216.92    5.18   2
  -5  -9   7  221.44    5.09   1
  -5   9   7  217.09    5.29   1
   4  -9  -7    0.40    0.68   2
  -4  -9   7    0.18    0.75   1
  -4   9   7    0.35    0.79   1
  -4  -9   7   -0.36    0.64   4
   4   9  -7    0.17    0.70   3
  -3   9   7    1.36    0.81   1
  -3  -9   7    1.64    0.74   4
   3   9  -7    1.01    0.71   3
   3  -9  -7    0.28    0.64   2
   2   9  -7   43.44    1.93   3
  -2   9   7   44.84    2.03   1
  -2  -9   7   48.01    2.03   4
   2  -9  -7   44.38    1.96   2
  -1   9   7   10.69    1.18   1
   1   9  -7   13.02    1.14   3
   1  -9  -7   12.37    1.17   2
  -1   9   7   11.93    1.23   4
  -1  -9   7   13.31    1.24   4
   0  -9   7   66.13    2.53   4
   0   9   7   68.96    2.59   4
   0  -9  -7   66.43    2.46   2
   0   9   7   69.48    2.44   1
   0   9  -7   69.25    2.42   3
  -1   9  -7   20.82    1.53   3
   1   9   7   19.72    1.67   4
  -1  -9  -7   20.48    1.52   2
   1  -9   7   20.21    1.60   4
   6  10  -7    5.99    1.19   3
  -6 -10   7   10.50    1.34   1
   6 -10  -7    6.75    1.19   2
  -6  10   7    8.95    1.37   1
  -5  10   7   64.10    2.67   1
   5  10  -7   65.58    2.58   3
   5 -10  -7   67.78    2.66   2
  -5 -10   7   74.28    2.73   1
   4 -10  -7    1.94    0.81   2
   4  10  -7    0.48    0.76   3
  -4 -10   7    2.53    0.87   1
  -4  10   7    0.59    0.85   1
  -4 -10   7    1.12    0.82   4
   3 -10  -7    4.59    0.90   2
   3  10  -7    5.07    0.93   3
  -3  10   7    3.80    1.02   1
  -3 -10   7    6.37    0.98   4
  -2 -10   7    2.59    0.82   4
  -2  10   7    0.64    0.79   1
   2 -10  -7    1.55    0.74   2
   2  10  -7    1.16    0.77   3
  -1  10   7  184.29    4.44   1
  -1 -10   7  180.55    4.40   4
   1 -10  -7  185.73    4.48   2
   1  10  -7  176.61    4.32   3
   0 -10   7    2.19    0.86   4
   0  10   7    2.41    0.73   5
   0  10   7    2.26    0.87   1
   0  10   7    1.23    0.95   4
   0  10  -7    1.21    0.78   3
   0 -10  -7    1.28    0.80   2
  -1 -10  -7   51.76    2.28   2
   1  10   7   58.65    2.57   4
   1 -10   7   51.70    2.37   4
  -1  10  -7   56.49    2.30   3
  -5  11   7   28.03    1.91   1
   5 -11  -7   28.23    1.87   2
  -5 -11   7   30.86    1.96   1
   5  11  -7   33.79    1.89   3
   4  11  -7   53.73    2.26   3
  -4 -11   7   55.61    2.27   1
   4 -11  -7   52.20    2.29   2
  -4 -11   7   55.77    2.25   4
  -4  11   7   52.81    2.37   1
   3 -11  -7    5.25    0.97   2
   3  11  -7    4.98    0.95   3
  -3 -11   7    5.56    1.02   4
  -3  11   7    5.50    1.10   1
  -2 -11   7   28.09    1.68   4
   2  11  -7   27.89    1.69   3
  -2  11   7   28.08    1.75   1
   2 -11  -7   27.47    1.66   2
  -1 -11   7   48.30    2.16   4
   1 -11  -7   45.35    2.06   2
  -1  11   7   49.32    2.16   1
   1  11  -7   50.18    2.11   3
   0 -11  -7   82.30    2.84   2
   0  11   7   84.02    2.84   1
   0  11  -7   89.21    2.88   3
   0  11   7   83.75    2.96   4
   0 -11   7   81.96    2.90   4
   0  11   7   86.02    2.33   5
   1  11   7   11.32    1.54   4
   1 -11   7   14.34    1.45   4
  -1  11  -7   15.39    1.40   3
  -1 -11  -7   10.93    1.27   2
  -5 -12   7   39.52    2.06   1
   5 -12  -7   39.90    2.20   2
  -5  12   7   37.84    2.13   1
   5  12  -7   37.30    2.01   3
   4  12  -7    9.64    1.21   3
   4 -12  -7   13.10    1.34   2
  -4 -12   7   13.28    1.31   4
  -4  12   7   10.63    1.34   1
   3  12  -7   33.25    1.82   3
   3 -12  -7   31.98    1.84   2
  -3 -12   7   34.35    1.90   4
  -3  12   7   35.15    1.98   1
   2  12  -7   28.48    1.76   3
  -2  12   7   27.06    1.78   1
  -2 -12   7   27.55    1.72   4
   2 -12  -7   26.44    1.67   2
  -1  12   7   75.25    2.74   1
   1  12  -7   79.25    2.70   3
  -1 -12   7   71.22    2.69   4
   1 -12  -7   73.35    2.66   2
   0 -12   7   22.06    1.63   4
   0  12   7   23.02    1.39   5
   0  12   7   23.08    1.86   4
   0  12   7   21.06    1.64   1
   0  12  -7   20.98    1.55   3
   0 -12  -7   24.23    1.70   2
  -4  13   7   19.59    1.65   1
  -4 -13   7   19.93    1.62   4
   4  13  -7   20.15    1.57   3
   4 -13  -7   21.36    1.70   2
   3 -13  -7  174.70    4.58   2
  -3 -13   7  178.70    4.51   4
   3  13  -7  177.47    4.50   3
   2 -13  -7  118.49    3.57   2
  -2  13   7  118.39    3.61   1
  -2 -13   7  116.63    3.54   4
   2  13  -7  120.58    3.52   3
  -1 -13   7   61.91    2.53   4
   1 -13  -7   57.96    2.43   2
  -1  13   7   59.30    2.48   1
   1  13  -7   58.09    2.41   3
   0  13   7   67.39    2.66   1
   0  13  -7   66.40    2.62   3
   0 -13  -7   67.74    2.64   2
   0  13   7   60.30    2.68   4
   0 -13   7   64.93    2.66   4
   0  13   7   65.29    2.16   5
   4  14  -7    4.44    1.02   3
   4 -14  -7    3.69    1.07   2
  -4 -14   7    5.66    1.07   4
  -4  14   7    3.63    1.08   1
  -3 -14   7    5.14    1.07   4
  -3  14   7    5.71    1.20   1
   3 -14  -7    5.38    1.10   2
   3  14  -7    4.06    1.02   3
   2  14  -7    3.01    1.01   3
  -2  14   7    6.60    1.20   1
  -2 -14   7    4.26    1.06   4
   2 -14  -7    3.73    1.00   2
  -1  14   7   64.73    2.64   1
  -1  14   7   65.23    2.15   5
   1  14  -7   61.62    2.54   3
  -1 -14   7   64.43    2.64   4
   1 -14  -7   57.92    2.49   2
   3  15  -7   18.26    1.55   3
  -3  15   7   17.86    1.66   1
   3 -15  -7   17.77    1.55   2
  -3 -15   7   16.52    1.53   4
  -2  15   7   43.56    2.35   1
   2 -15  -7   47.02    2.31   2
  -2 -15   7   46.63    2.34   4
   2  15  -7   41.53    2.19   3
  -1  15   7    2.85    0.93   5
  -1  15   7    4.29    1.13   1
   1 -15  -7    3.12    1.01   2
  -1 -15   7    3.03    1.05   4
  -6   0   8  135.54    4.00   1
   6   0  -8  133.07    3.84   3
  -5   0   8    0.20    0.87   1
   5   0  -8    1.26    0.82   3
  -4   0   8    6.62    1.11   1
   4   0  -8    6.30    0.95   3
  -3   0   8   -0.09    0.76   1
   3   0  -8   -0.35    0.60   2
  -2   0   8   13.45    1.19   4
   2   0  -8   13.56    1.14   2
   1   0  -8    0.06    0.69   2
  -1   0   8   -0.09    0.77   4
   0   0  -8  102.04    3.12   2
   0   0   8   95.19    3.16   4
   1   0   8    1.77    1.00   4
  -1   0  -8    1.04    0.84   2
   6   1  -8   20.20    1.71   3
  -6   1   8   20.86    1.72   1
  -6  -1   8   18.32    1.72   1
   6  -1  -8   19.23    1.57   3
   5  -1  -8   11.63    1.24   3
   5   1  -8    9.90    1.23   3
  -5  -1   8    7.76    1.21   1
  -5   1   8   11.61    1.36   1
   4   1  -8    5.72    0.92   3
  -4  -1   8    4.17    0.98   1
   4  -1  -8    4.61    0.91   3
  -4   1   8    4.44    1.02   1
   3  -1  -8    6.35    0.90   2
   3   1  -8    5.69    0.89   3
  -3  -1   8    6.60    1.04   1
  -3   1   8    7.06    1.04   1
   2  -1  -8   40.23    1.80   2
  -2  -1   8   43.47    1.92   4
   2   1  -8   42.02    1.80   2
  -2   1   8   45.53    1.90   4
  -1   1   8   44.33    2.06   4
   1  -1  -8   39.21    1.86   2
   1   1  -8   37.09    1.83   2
  -1  -1   8   42.43    1.99   4
   0  -1  -8    0.31    0.74   2
   0  -1   8    0.02    0.86   4
   0   1   8    1.72    1.00   4
   0   1  -8    0.73    0.81   2
   1   1   8    4.46    1.19   4
   1  -1   8    6.19    1.21   4
  -1   1  -8    7.46    1.17   2
  -1  -1  -8    6.48    1.12   2
   6  -2  -8   35.37    2.02   3
  -6   2   8   34.98    2.12   1
  -6  -2   8   39.99    2.19   1
   6   2  -8   39.01    2.12   3
   5   2  -8  219.83    5.07   3
  -5  -2   8  217.54    5.15   1
  -5   2   8  217.06    5.21   1
   5  -2  -8  220.11    4.97   3
  -4   2   8   27.50    1.72   1
  -4  -2   8   26.41    1.60   1
   4   2  -8   25.08    1.54   3
  -3   2   8    7.57    1.10   1
  -3  -2   8    9.61    1.11   1
   3  -2  -8    6.43    0.91   2
   3   2  -8    7.22    0.98   3
  -2  -2   8   17.30    1.37   4
  -2   2   8   16.07    1.33   1
   2  -2  -8   16.36    1.24   2
   2   2  -8   18.25    1.29   2
  -1  -2   8    0.81    0.78   4
   1  -2  -8    1.03    0.72   2
  -1   2   8    1.91    0.86   4
   1   2  -8    0.12    0.68   2
   0   2  -8   11.01    1.25   2
   0  -2   8   12.26    1.34   4
   0  -2  -8   12.88    1.30   2
   0   2   8   11.37    1.34   4
  -1  -2  -8   10.80    1.30   2
   1  -2   8   12.49    1.44   4
  -1   2  -8   11.52    1.33   2
   1   2   8    9.72    1.39   4
   6   3  -8   69.57    2.75   3
  -6   3   8   70.56    2.85   1
  -6  -3   8   62.36    2.69   1
   6  -3  -8   64.56    2.57   3
   5  -3  -8   62.27    2.34   3
  -5  -3   8   64.70    2.58   1
   5   3  -8   66.72    2.51   3
  -5   3   8   69.12    2.67   1
  -4  -3   8   11.06    1.22   1
   4  -3  -8   11.59    1.14   2
  -4   3   8   10.77    1.28   1
   4   3  -8   12.40    1.20   3
   3  -3  -8  168.82    4.14   2
   3   3  -8  175.06    4.04   3
   2   3  -8   73.24    2.33   3
  -2  -3   8   74.13    2.48   4
   2  -3  -8   68.89    2.42   2
  -2   3   8   77.41    2.53   1
   1  -3  -8    3.88    0.87   2
   1   3  -8    3.57    0.85   2
  -1   3   8    3.12    0.99   4
  -1  -3   8    3.17    0.93   4
   0  -3  -8  149.97    4.03   2
   0  -3   8  149.18    4.09   4
   0   3   8  151.17    4.10   4
   0   3  -8  152.97    4.00   2
  -6   4   8   81.26    3.10   1
  -6  -4   8   77.11    2.97   1
   6   4  -8   87.41    3.13   3
   6  -4  -8   79.80    2.82   3
  -5   4   8   38.91    2.10   1
   5   4  -8   41.37    2.03   3
  -5  -4   8   36.24    1.97   1
   4   4  -8   17.84    1.49   3
  -4   4   8   17.52    1.50   1
  -4  -4   8   17.78    1.42   1
   4  -4  -8   15.89    1.32   2
   3  -4  -8   22.11    1.46   2
   3   4  -8   21.89    1.45   3
  -3   4   8   23.13    1.59   1
   2   4  -8   78.55    2.48   3
  -2   4   8   86.68    2.70   1
   2  -4  -8   81.40    2.66   2
  -2  -4   8   81.35    2.65   4
  -1   4   8    0.80    0.85   4
   1  -4  -8    0.70    0.70   2
  -1  -4   8   -0.03    0.79   4
   0   4   8   10.96    1.37   4
   0  -4  -8    7.50    1.09   2
   0  -4   8    8.25    1.21   4
   0   4  -8    8.69    1.16   2
   6   5  -8   -0.01    0.91   3
  -6  -5   8    0.75    1.00   1
  -6   5   8    0.80    1.05   1
   5   5  -8    1.45    0.84   3
  -5   5   8   -0.34    0.87   1
  -5  -5   8    0.33    0.88   1
   5  -5  -8   -0.03    0.75   2
  -4  -5   8  103.16    3.04   1
   4   5  -8  107.07    3.12   3
  -4   5   8  101.19    3.23   1
   4  -5  -8  101.59    3.09   2
  -3  -5   8   16.84    1.29   4
  -3   5   8   18.92    1.49   1
   3   5  -8   14.47    1.24   3
   3  -5  -8   13.06    1.23   2
   2   5  -8    0.01    0.66   3
   2  -5  -8    0.30    0.63   2
  -2  -5   8    0.80    0.74   4
  -2   5   8   -0.98    0.72   1
  -1  -5   8    9.33    1.19   4
   1   5  -8    8.58    1.04   3
  -1   5   8   11.29    1.28   4
   1  -5  -8    7.76    1.02   2
   0   5   8   33.41    2.02   4
   0  -5  -8   30.51    1.82   2
   0   5  -8   31.07    1.90   2
   0  -5   8   33.47    1.96   4
   5  -6  -8   43.39    2.08   2
  -5  -6   8   44.34    2.11   1
  -5   6   8   44.62    2.27   1
   5   6  -8   45.45    2.16   3
   4   6  -8   26.43    1.67   3
  -4  -6   8   28.01    1.68   1
   4  -6  -8   27.57    1.68   2
  -4   6   8   28.48    1.83   1
   3   6  -8    0.08    0.71   3
  -3  -6   8    1.39    0.81   4
   3  -6  -8    0.69    0.73   2
  -3   6   8   -0.73    0.78   1
  -2  -6   8   34.08    1.79   4
   2   6  -8   34.06    1.70   3
   2  -6  -8   33.26    1.76   2
  -2   6   8   37.24    1.90   1
   1   6  -8   17.50    1.45   3
  -1   6   8   18.25    1.52   4
   1  -6  -8   16.16    1.37   2
  -1  -6   8   17.69    1.45   4
   0  -6   8   15.56    1.45   4
   0   6   8   14.81    1.51   4
   0  -6  -8   12.03    1.28   2
   5   7  -8   25.23    1.75   3
  -5  -7   8   24.13    1.78   1
   5  -7  -8   27.50    1.73   2
  -5   7   8   25.13    1.90   1
   4   7  -8   -0.03    0.73   3
   4  -7  -8    0.07    0.73   2
  -4   7   8    0.42    0.93   1
  -3   7   8  123.20    3.55   1
   3  -7  -8  117.63    3.47   2
  -3  -7   8  130.75    3.50   4
   3   7  -8  122.10    3.40   3
   2   7  -8   55.63    2.17   3
   2  -7  -8   53.96    2.22   2
  -2   7   8   52.31    2.24   1
  -2  -7   8   57.43    2.28   4
   1  -7  -8   37.65    1.92   2
   1   7  -8   40.86    1.98   3
  -1   7   8   38.80    1.94   1
  -1  -7   8   40.32    2.04   4
   0  -7  -8   27.39    1.75   2
   0  -7   8   26.34    1.81   4
   0   7   8   27.17    1.97   4
   5  -8  -8    9.05    1.21   2
  -5  -8   8   13.12    1.40   1
  -5   8   8   11.15    1.45   1
   5   8  -8   12.21    1.35   3
   4  -8  -8    2.38    0.89   2
   4   8  -8    3.62    0.93   3
  -4   8   8    1.76    1.00   1
  -3   8   8    0.60    0.90   1
  -3  -8   8    1.25    0.81   4
   3  -8  -8    0.20    0.71   2
   3   8  -8   -0.27    0.72   3
  -2   8   8   24.95    1.69   1
  -2  -8   8   23.34    1.58   4
   2  -8  -8   22.12    1.56   2
   2   8  -8   24.01    1.58   3
  -1  -8   8  163.86    4.27   4
   1  -8  -8  154.91    4.21   2
  -1   8   8  158.41    4.14   1
   1   8  -8  172.84    4.18   3
   0   8  -8   19.37    1.53   3
   0  -8   8   17.72    1.57   4
   0  -8  -8   17.68    1.48   2
   0   8   8   21.11    1.70   4
  -5  -9   8   14.31    1.44   1
   5   9  -8   16.32    1.50   3
  -5   9   8   12.72    1.53   1
   5  -9  -8   13.28    1.43   2
   4  -9  -8   39.66    2.07   2
  -4   9   8   41.13    2.16   1
   4   9  -8   36.78    1.96   3
   3   9  -8    2.50    0.90   3
   3  -9  -8    3.22    0.95   2
  -3  -9   8    3.49    0.95   4
  -3   9   8    4.44    1.10   1
  -2  -9   8   91.63    3.02   4
  -2   9   8   86.39    2.95   1
   2   9  -8   91.28    2.92   3
   2  -9  -8   83.73    2.95   2
  -1  -9   8   50.58    2.31   4
   1   9  -8   53.54    2.26   3
   1  -9  -8   51.83    2.31   2
  -4  10   8   42.72    2.28   1
   4 -10  -8   46.30    2.28   2
   4  10  -8   48.56    2.24   3
   3  10  -8    4.14    0.97   3
   3 -10  -8    3.96    1.00   2
  -3 -10   8    5.47    1.08   4
  -3  10   8    3.78    1.11   1
  -2  10   8   46.31    2.21   1
  -2 -10   8   47.23    2.24   4
   2 -10  -8   46.36    2.20   2
   2  10  -8   46.99    2.17   3
  -1  10   8   14.01    1.45   1
  -1 -10   8   15.63    1.47   4
   1  10  -8   14.95    1.41   3
   1 -10  -8   16.89    1.48   2
   4  11  -8   39.00    2.08   3
   4 -11  -8   36.69    2.09   2
  -4  11   8   40.05    2.21   1
   3 -11  -8    5.05    1.07   2
  -3  11   8    9.10    1.29   1
   3  11  -8    6.54    1.12   3
  -3 -11   8    8.63    1.21   4
  -2 -11   8    6.25    1.13   4
   2  11  -8    5.75    1.11   3
  -2  11   8    6.30    1.18   1
   2 -11  -8    6.12    1.11   2
  -4   0   9   -0.45    0.92   1
   2   0  -9    0.27    0.73   2
  -4  -1   9   64.33    2.54   1
  -4   1   9   65.78    2.62   1
   2  -1  -9   40.16    1.94   2
  -4   2   9   21.31    1.73   1
   3  -2  -9   88.08    2.91   2
   2  -2  -9   26.50    1.64   2
  -2  -2   9   27.19    1.74   4
  -4   3   9    4.89    1.16   1
   4   3  -9    5.93    1.10   3
   3  -3  -9    3.19    0.94   2
  -3   3   9    4.36    1.12   1
   2  -3  -9   93.02    3.07   2
  -2  -3   9  102.14    3.18   4
   4   4  -9   41.94    2.12   3
  -4   4   9   41.46    2.22   1
   4  -4  -9   38.92    2.02   2
  -3   4   9    7.69    1.28   1
   3  -4  -9    7.41    1.11   2
   2  -4  -9   25.01    1.66   2
  -2  -4   9   22.03    1.66   4
   3   5  -9   -0.48    0.81   3
   3  -5  -9    1.32    0.82   2
  -3   5   9   -1.23    0.92   1
   0   0   0    0.00    0.00   0
;
_shelx_hkl_checksum              82394
_olex2_submission_special_instructions 'No special instructions were received'
#END Tags that were not found in dictionaries
loop_
_space_group_symop_operation_xyz
'x, y, z'
'-x+1/2, y+1/2, -z+1/2'
'-x, -y, -z'
'x-1/2, -y-1/2, z-1/2'
loop_
_atom_site_label
_atom_site_type_symbol
_atom_site_fract_x
_atom_site_fract_y
_atom_site_fract_z
_atom_site_U_iso_or_equiv
_atom_site_adp_type
_atom_site_occupancy
_atom_site_site_symmetry_order
_atom_site_calc_flag
_atom_site_refinement_flags_posn
_atom_site_refinement_flags_occupancy
_atom_site_disorder_assembly
_atom_site_disorder_group
C1 C 0.5469(3) 0.40926(7) 0.1916(2) 0.0156(3) Uani 0.650(3) 1 d . P A 1
C2 C 0.4469(4) 0.40250(10) 0.3536(3) 0.0186(3) Uani 0.650(3) 1 d . P A 1
H2 H 0.3101 0.4356 0.3485 0.022 Uiso 0.650(3) 1 calc R P A 1
C3 C 0.5452(7) 0.3480(2) 0.5219(6) 0.0155(7) Uani 0.650(3) 1 d . P A 1
H3 H 0.4795 0.3468 0.6345 0.019 Uiso 0.650(3) 1 calc R P A 1
C4 C 0.7322(9) 0.2960(3) 0.5327(7) 0.0187(6) Uani 0.650(3) 1 d . P A 1
H4 H 0.7881 0.2560 0.6422 0.022 Uiso 0.650(3) 1 calc R P A 1
C5 C 0.8378(7) 0.3047(2) 0.3732(6) 0.0259(8) Uani 0.650(3) 1 d . P A 1
H5 H 0.9778 0.2723 0.3829 0.031 Uiso 0.650(3) 1 calc R P A 1
C6 C 0.7463(4) 0.35885(8) 0.2014(3) 0.0179(3) Uani 0.650(3) 1 d . P A 1
H6 H 0.8177 0.3616 0.0927 0.021 Uiso 0.650(3) 1 calc R P A 1
C7 C 0.4380(2) 0.46705(6) 0.00739(17) 0.0150(3) Uani 0.650(3) 1 d . P A 1
C8 C 0.1783(6) 0.4447(2) -0.1625(6) 0.0138(8) Uani 0.650(3) 1 d . P A 1
H81 H 0.1354 0.4800 -0.2896 0.021 Uiso 0.650(3) 1 calc GR P A 1
H82 H 0.0505 0.4499 -0.0975 0.021 Uiso 0.650(3) 1 calc GR P A 1
H83 H 0.1823 0.3898 -0.2095 0.021 Uiso 0.650(3) 1 calc GR P A 1
C1' C 0.6390(6) 0.42166(15) 0.2300(4) 0.0161(6) Uiso 0.350(3) 1 d . P A 2
C2' C 0.5098(7) 0.4137(2) 0.3703(6) 0.0204(9) Uiso 0.350(3) 1 d . P A 2
H2' H 0.3907 0.4529 0.3711 0.024 Uiso 0.350(3) 1 calc R P A 2
C3' C 0.555(2) 0.3481(6) 0.5105(17) 0.038(3) Uiso 0.350(3) 1 d . P A 2
H3' H 0.4594 0.3394 0.5995 0.046 Uiso 0.350(3) 1 calc R P A 2
C4' C 0.7489(18) 0.2954(6) 0.5128(14) 0.0183(14) Uiso 0.350(3) 1 d . P A 2
H4' H 0.7988 0.2550 0.6212 0.022 Uiso 0.350(3) 1 calc R P A 2
C5' C 0.8654(11) 0.2989(3) 0.3731(9) 0.0085(8) Uiso 0.350(3) 1 d . P A 2
H5' H 0.9772 0.2582 0.3665 0.010 Uiso 0.350(3) 1 calc R P A 2
C6' C 0.8171(7) 0.3646(2) 0.2369(6) 0.0194(8) Uiso 0.350(3) 1 d . P A 2
H6' H 0.9096 0.3709 0.1447 0.023 Uiso 0.350(3) 1 calc R P A 2
C7' C 0.6042(4) 0.49412(13) 0.0896(3) 0.0173(6) Uiso 0.350(3) 1 d . P A 2
C8' C 0.8159(19) 0.5531(6) 0.1662(17) 0.036(3) Uiso 0.350(3) 1 d . P A 2
H81' H 0.7691 0.5999 0.0715 0.054 Uiso 0.350(3) 1 calc GR P A 2
H82' H 0.9695 0.5293 0.1594 0.054 Uiso 0.350(3) 1 calc GR P A 2
H83' H 0.8477 0.5685 0.3178 0.054 Uiso 0.350(3) 1 calc GR P A 2
loop_
_atom_site_aniso_label
_atom_site_aniso_U_11
_atom_site_aniso_U_22
_atom_site_aniso_U_33
_atom_site_aniso_U_23
_atom_site_aniso_U_13
_atom_site_aniso_U_12
C1 0.0143(6) 0.0140(5) 0.0171(5) -0.0001(4) 0.0045(4) -0.0022(4)
C2 0.0197(7) 0.0186(6) 0.0193(6) 0.0015(5) 0.0093(5) 0.0022(6)
C3 0.0188(9) 0.0174(9) 0.0114(8) 0.0029(4) 0.0069(6) 0.0008(4)
C4 0.0208(11) 0.0199(9) 0.0148(11) 0.0041(7) 0.0061(7) -0.0007(6)
C5 0.0211(12) 0.0211(10) 0.0332(11) -0.0028(6) 0.0080(8) 0.0067(7)
C6 0.0174(7) 0.0183(6) 0.0185(6) -0.0021(4) 0.0072(6) -0.0019(5)
C7 0.0151(5) 0.0155(5) 0.0133(5) -0.0001(4) 0.0042(4) 0.0004(4)
C8 0.0101(8) 0.0134(9) 0.0140(9) -0.0017(4) 0.0003(4) -0.0044(4)
loop_
_atom_type_symbol
_atom_type_description
_atom_type_scat_dispersion_real
_atom_type_scat_dispersion_imag
_atom_type_scat_source
C C 0.0033 0.0016 'International Tables Vol C Tables 4.2.6.8 and 6.1.1.4'
H H 0.0000 0.0000 'International Tables Vol C Tables 4.2.6.8 and 6.1.1.4'
loop_
_geom_angle_atom_site_label_1
_geom_angle_atom_site_label_2
_geom_angle_atom_site_label_3
_geom_angle
_geom_angle_site_symmetry_1
C2 C1 C6 118.44(11) .
C2 C1 C7 120.68(11) .
C6 C1 C7 120.84(11) .
C1 C2 H2 119.7 .
C3 C2 C1 120.6(2) .
C3 C2 H2 119.7 .
C2 C3 H3 118.6 .
C4 C3 C2 122.7(3) .
C4 C3 H3 118.6 .
C3 C4 H4 121.8 .
C3 C4 C5 116.3(3) .
C5 C4 H4 121.8 .
C4 C5 H5 118.6 .
C6 C5 C4 122.9(3) .
C6 C5 H5 118.6 .
C1 C6 H6 120.6 .
C5 C6 C1 118.85(17) .
C5 C6 H6 120.6 .
C1 C7 C8 114.89(17) .
C7 C7 C1 122.17(13) 3_665
C7 C7 C8 122.94(18) 3_665
C7 C8 H81 109.5 .
C7 C8 H82 109.5 .
C7 C8 H83 109.5 .
H81 C8 H82 109.5 .
H81 C8 H83 109.5 .
H82 C8 H83 109.5 .
C2' C1' C7' 120.6(2) .
C6' C1' C2' 118.5(3) .
C6' C1' C7' 120.6(2) .
C1' C2' H2' 119.8 .
C1' C2' C3' 120.3(5) .
C3' C2' H2' 119.8 .
C2' C3' H3' 121.7 .
C2' C3' C4' 116.7(8) .
C4' C3' H3' 121.7 .
C3' C4' H4' 117.9 .
C5' C4' C3' 124.1(8) .
C5' C4' H4' 117.9 .
C4' C5' H5' 121.4 .
C4' C5' C6' 117.2(6) .
C6' C5' H5' 121.4 .
C1' C6' H6' 118.7 .
C5' C6' C1' 122.6(3) .
C5' C6' H6' 118.7 .
C7' C7' C1' 122.1(3) 3_665
C7' C7' C8' 122.2(5) 3_665
C8' C7' C1' 115.7(4) .
C7' C8' H81' 109.5 .
C7' C8' H82' 109.5 .
C7' C8' H83' 109.5 .
H81' C8' H82' 109.5 .
H81' C8' H83' 109.5 .
H82' C8' H83' 109.5 .
loop_
_geom_bond_atom_site_label_1
_geom_bond_atom_site_label_2
_geom_bond_distance
_geom_bond_site_symmetry_2
C1 C2 1.3929(19) .
C1 C6 1.4026(19) .
C1 C7 1.4956(15) .
C2 H2 0.9500 .
C2 C3 1.385(3) .
C3 H3 0.9500 .
C3 C4 1.363(5) .
C4 H4 0.9500 .
C4 C5 1.404(5) .
C5 H5 0.9500 .
C5 C6 1.392(4) .
C6 H6 0.9500 .
C7 C7 1.342(2) 3_665
C7 C8 1.526(3) .
C8 H81 0.9800 .
C8 H82 0.9800 .
C8 H83 0.9800 .
C1' C2' 1.390(4) .
C1' C6' 1.388(4) .
C1' C7' 1.501(3) .
C2' H2' 0.9500 .
C2' C3' 1.402(9) .
C3' H3' 0.9500 .
C3' C4' 1.418(10) .
C4' H4' 0.9500 .
C4' C5' 1.326(7) .
C5' H5' 0.9500 .
C5' C6' 1.387(6) .
C6' H6' 0.9500 .
C7' C7' 1.333(4) 3_665
C7' C8' 1.497(9) .
C8' H81' 0.9800 .
C8' H82' 0.9800 .
C8' H83' 0.9800 .
loop_
_geom_torsion_atom_site_label_1
_geom_torsion_atom_site_label_2
_geom_torsion_atom_site_label_3
_geom_torsion_atom_site_label_4
_geom_torsion
_geom_torsion_site_symmetry_4
C1 C2 C3 C4 -3.5(5) .
C2 C1 C6 C5 -0.6(3) .
C2 C1 C7 C7 108.63(18) 3_665
C2 C1 C7 C8 -72.1(2) .
C2 C3 C4 C5 5.4(6) .
C3 C4 C5 C6 -5.0(6) .
C4 C5 C6 C1 2.7(5) .
C6 C1 C2 C3 0.9(3) .
C6 C1 C7 C7 -73.46(19) 3_665
C6 C1 C7 C8 105.8(2) .
C7 C1 C2 C3 178.9(2) .
C7 C1 C6 C5 -178.6(2) .
C1' C2' C3' C4' 4.8(12) .
C2' C1' C6' C5' 2.0(5) .
C2' C1' C7' C7' -75.1(4) 3_665
C2' C1' C7' C8' 103.7(6) .
C2' C3' C4' C5' -8.8(16) .
C3' C4' C5' C6' 9.0(13) .
C4' C5' C6' C1' -5.5(8) .
C6' C1' C2' C3' -1.8(7) .
C6' C1' C7' C7' 110.6(3) 3_665
C6' C1' C7' C8' -70.6(6) .
C7' C1' C2' C3' -176.2(6) .
C7' C1' C6' C5' 176.4(4) .
