#------------------------------------------------------------------------------
#$Date: 2016-03-24 14:28:49 +0200 (Thu, 24 Mar 2016) $
#$Revision: 179665 $
#$URL: svn://www.crystallography.net/cod/cif/4/51/18/4511878.cif $
#------------------------------------------------------------------------------
#
# This file is available in the Crystallography Open Database (COD),
# http://www.crystallography.net/
#
# All data on this site have been placed in the public domain by the
# contributors.
#
data_4511878
loop_
_publ_author_name
'Harada, Jun'
'Ogawa, Keiichiro'
_publ_section_title
;
 What Molecules Are Likely or Unlikely To Undergo Pedal Motions in
 Crystals?
;
_journal_issue                   10
_journal_name_full               'Crystal Growth &amp; Design'
_journal_page_first              5182
_journal_paper_doi               10.1021/cg500962y
_journal_volume                  14
_journal_year                    2014
_chemical_formula_moiety         'C16 H16'
_chemical_formula_sum            'C16 H16'
_chemical_formula_weight         208.29
_chemical_name_systematic
;
 ?
;
_space_group_crystal_system      monoclinic
_space_group_IT_number           14
_space_group_name_Hall           '-P 2yn'
_space_group_name_H-M_alt        'P 1 21/n 1'
_symmetry_space_group_name_Hall  '-P 2yn'
_symmetry_space_group_name_H-M   'P 1 21/n 1'
_atom_sites_solution_hydrogens   geom
_atom_sites_solution_primary     direct
_audit_creation_date             2014-06-26
_audit_creation_method
;
Olex2 1.2
(compiled 2014.06.23 svn.r2946 for OlexSys, GUI svn.r4855)
;
_cell_angle_alpha                90
_cell_angle_beta                 112.747(1)
_cell_angle_gamma                90
_cell_formula_units_Z            2
_cell_length_a                   5.8389(4)
_cell_length_b                   17.2035(12)
_cell_length_c                   6.6533(5)
_cell_measurement_reflns_used    3871
_cell_measurement_temperature    300
_cell_measurement_theta_max      29.919
_cell_measurement_theta_min      2.368
_cell_volume                     616.34(8)
_computing_cell_refinement       'SAINT v6.28A (Bruker, 2002)'
_computing_data_collection       'SMART v5.054 (Bruker, 1998)'
_computing_data_reduction        'SAINT v6.28A (Bruker, 2002)'
_computing_molecular_graphics    'Ortep-3 for Windows (Farrugia, 2012)'
_computing_publication_material  'Olex2 (Dolomanov et al., 2009)'
_computing_structure_refinement  'ShelXL (Sheldrick, 2008)'
_computing_structure_solution    'ShelXS (Sheldrick, 2008)'
_diffrn_ambient_temperature      300
_diffrn_detector_area_resol_mean 8.192
_diffrn_measured_fraction_theta_full 0.999
_diffrn_measured_fraction_theta_max 0.999
_diffrn_measurement_device_type  'Bruker SMART 1000'
_diffrn_measurement_method       \w_scan
_diffrn_radiation_type           MoK\a
_diffrn_radiation_wavelength     0.71073
_diffrn_reflns_av_R_equivalents  0.0190
_diffrn_reflns_av_unetI/netI     0.0123
_diffrn_reflns_Laue_measured_fraction_full 0.999
_diffrn_reflns_Laue_measured_fraction_max 0.999
_diffrn_reflns_limit_h_max       8
_diffrn_reflns_limit_h_min       -8
_diffrn_reflns_limit_k_max       24
_diffrn_reflns_limit_k_min       -24
_diffrn_reflns_limit_l_max       9
_diffrn_reflns_limit_l_min       -9
_diffrn_reflns_number            9481
_diffrn_reflns_point_group_measured_fraction_full 0.999
_diffrn_reflns_point_group_measured_fraction_max 0.999
_diffrn_reflns_theta_full        25.242
_diffrn_reflns_theta_max         30.022
_diffrn_reflns_theta_min         2.368
_diffrn_source                   'sealed X-ray tube'
_exptl_absorpt_coefficient_mu    0.063
_exptl_absorpt_correction_T_max  1
_exptl_absorpt_correction_T_min  0.951598
_exptl_absorpt_correction_type   multi-scan
_exptl_absorpt_process_details
'SADABS v.2.03 (Bruker,200?) was used for absorption correction. R(int) was 0.0391 before and 0.0200 after correction. The Ratio of minimum to maximum transmission is 0.9516. The \l/2 correction factor is 0.0015.'
_exptl_crystal_colour            colourless
_exptl_crystal_colour_primary    colourless
_exptl_crystal_density_diffrn    1.122
_exptl_crystal_description       block
_exptl_crystal_F_000             224
_exptl_crystal_size_max          0.6
_exptl_crystal_size_mid          0.5
_exptl_crystal_size_min          0.2
_refine_diff_density_max         0.145
_refine_diff_density_min         -0.159
_refine_diff_density_rms         0.033
_refine_ls_extinction_method     none
_refine_ls_goodness_of_fit_ref   1.063
_refine_ls_hydrogen_treatment    constr
_refine_ls_matrix_type           full
_refine_ls_number_parameters     108
_refine_ls_number_reflns         1808
_refine_ls_number_restraints     251
_refine_ls_restrained_S_all      1.031
_refine_ls_R_factor_all          0.0563
_refine_ls_R_factor_gt           0.0463
_refine_ls_shift/su_max          0.000
_refine_ls_shift/su_mean         0.000
_refine_ls_structure_factor_coef Fsqd
_refine_ls_weighting_details
'w=1/[\s^2^(Fo^2^)+(0.0696P)^2^+0.0561P] where P=(Fo^2^+2Fc^2^)/3'
_refine_ls_weighting_scheme      calc
_refine_ls_wR_factor_gt          0.1319
_refine_ls_wR_factor_ref         0.1422
_reflns_Friedel_coverage         0.000
_reflns_number_gt                1474
_reflns_number_total             1808
_reflns_threshold_expression     'I > 2\s(I)'
_cod_data_source_file            cg500962y_si_001.cif
_cod_data_source_block           aaMeESTrt
_cod_depositor_comments
'Adding full bibliography for 4511872--4511883.cif.'
_cod_database_code               4511878
#BEGIN Tags that were not found in dictionaries:
_shelxl_version_number           2013-4
_shelx_space_group_comment
;
The symmetry employed for this shelxl refinement is uniquely defined
by the following loop, which should always be used as a source of
symmetry information in preference to the above space-group names.
They are only intended as comments.
;
_shelx_estimated_absorpt_t_max   0.988
_shelx_estimated_absorpt_t_min   0.963
_olex2_refinement_description
;
1. Fixed Uiso
 At 1.2 times of:
  All C(H) groups
 At 1.5 times of:
  All C(H,H,H) groups
2. Restrained distances
 C7-C7_$1 \\sim C7'-C7'_$1
 with sigma of 0.02
3. Uiso/Uaniso restraints and constraints
All non-hydrogen atoms have similar U: within 1.7A with sigma of 0.04 and sigma
for terminal atoms of 0.08
4. Rigid body (RIGU) restrains
 All non-hydrogen atoms
 with sigma for 1-2 distances of 0.004 and sigma for 1-3 distances of 0.004
5. Same fragment restrains
{C1, C2, C3, C4, C5, C6, C7, C8}
as
{C1', C2', C3', C4', C5', C6', C7', C8'}
6. Others
 Sof(C1')=Sof(C2')=Sof(H2')=Sof(C3')=Sof(H3')=Sof(C4')=Sof(H4')=Sof(C5')=
 Sof(H5')=Sof(C6')=Sof(H6')=Sof(C7')=Sof(C8')=Sof(H81')=Sof(H82')=Sof(H83')=1-
 FVAR(1)
 Sof(C1)=Sof(C2)=Sof(H2)=Sof(C3)=Sof(H3)=Sof(C4)=Sof(H4)=Sof(C5)=Sof(H5)=
 Sof(C6)=Sof(H6)=Sof(C7)=Sof(C8)=Sof(H81)=Sof(H82)=Sof(H83)=FVAR(1)
7.a Aromatic/amide H refined with riding coordinates:
 C2(H2), C3(H3), C4(H4), C5(H5), C6(H6), C2'(H2'), C3'(H3'), C4'(H4'),
 C5'(H5'), C6'(H6')
7.b Idealised Me refined as rotating group:
 C8(H81,H82,H83), C8'(H81',H82',H83')
;
_shelx_res_file
;
TITL (E)-alpha,alpha'-dimethylstilbene at r.t. in P2(1)/n
CELL 0.71073   5.8389  17.2035   6.6533  90.000 112.747  90.000
ZERR    2.00   0.0004   0.0012   0.0005   0.000   0.001   0.000
LATT 1
SYMM 0.5-X, 0.5+Y, 0.5-Z
SFAC C  H
UNIT 32 32
LIST 4
L.S. 6
BOND $H
CONF
FMAP 2
PLAN 20
ACTA
SIZE 0.2 0.5 0.6
TEMP 27
RIGU
SIMU
EQIV $1 1-x, 1-y, -z
SADI C7 C7_$1 C7' C7'_$1
WGHT    0.069600    0.056100
FVAR       1.76673   0.64988
PART 1
C1    1    0.547480    0.409685    0.185569    21.00000    0.04130    0.03944 =
         0.04753   -0.00061    0.01335   -0.00454
C2    1    0.454891    0.401886    0.345261    21.00000    0.05621    0.05350 =
         0.05414    0.00734    0.02515    0.00838
AFIX  43
H2    2    0.324506    0.433273    0.343635    21.00000   -1.20000
AFIX   0
C3    1    0.556947    0.346557    0.510991    21.00000    0.07454    0.06876 =
         0.04866    0.01822    0.02673    0.00395
AFIX  43
H3    2    0.498249    0.343621    0.622313    21.00000   -1.20000
AFIX   0
C4    1    0.739564    0.297107    0.512937    21.00000    0.06021    0.04493 =
         0.04891    0.01504    0.00219   -0.00093
AFIX  43
H4    2    0.794737    0.257608    0.616003    21.00000   -1.20000
AFIX   0
C5    1    0.838162    0.306518    0.363303    21.00000    0.06581    0.05011 =
         0.08604    0.00113    0.01368    0.01524
AFIX  43
H5    2    0.974637    0.276597    0.372834    21.00000   -1.20000
AFIX   0
C6    1    0.741270    0.360332    0.192236    21.00000    0.05253    0.04911 =
         0.05550   -0.00242    0.02183    0.00133
AFIX  43
H6    2    0.805224    0.363177    0.084302    21.00000   -1.20000
AFIX   0
C7    1    0.439989    0.467479    0.005153    21.00000    0.04069    0.04161 =
         0.04101   -0.00072    0.01171   -0.00257
C8    1    0.186835    0.446014   -0.165081    21.00000    0.03791    0.04360 =
         0.04801    0.00114   -0.00015   -0.01386
AFIX 137
H81   2    0.145778    0.480562   -0.287343    21.00000   -1.50000
H82   2    0.063944    0.450398   -0.102866    21.00000   -1.50000
H83   2    0.190862    0.393523   -0.212574    21.00000   -1.50000
AFIX   0
PART 2
SAME C1 > C8
C1'   1    0.637120    0.422342    0.224758   -21.00000    0.04454
C2'   1    0.516688    0.414793    0.366068   -21.00000    0.06100
AFIX  43
H2'   2    0.410829    0.454403    0.371480   -21.00000   -1.20000
AFIX   0
C3'   1    0.546202    0.351970    0.497575   -21.00000    0.07457
AFIX  43
H3'   2    0.447745    0.344801    0.577502   -21.00000   -1.20000
AFIX   0
C4'   1    0.727746    0.299461    0.507477   -21.00000    0.08014
AFIX  43
H4'   2    0.772922    0.261143    0.614376   -21.00000   -1.20000
AFIX   0
C5'   1    0.846977    0.302286    0.359670   -21.00000    0.04817
AFIX  43
H5'   2    0.947422    0.261834    0.349155   -21.00000   -1.20000
AFIX   0
C6'   1    0.808180    0.367350    0.232147   -21.00000    0.05864
AFIX  43
H6'   2    0.901724    0.374238    0.147745   -21.00000   -1.20000
AFIX   0
C7'   1    0.601816    0.494371    0.088600   -21.00000    0.04661
C8'   1    0.810250    0.552023    0.165596   -21.00000    0.09200
AFIX 137
H81'  2    0.773678    0.594520    0.064483   -21.00000   -1.50000
H82'  2    0.961407    0.527264    0.174997   -21.00000   -1.50000
H83'  2    0.829208    0.571220    0.306640   -21.00000   -1.50000
PART 0
AFIX   0
HKLF 4

REM  (E)-alpha,alpha'-dimethylstilbene at r.t. in P2(1)/n
REM R1 =  0.0463 for    1474 Fo > 4sig(Fo)  and  0.0563 for all    1808 data
REM    108 parameters refined using    251 restraints

END

WGHT      0.0696      0.0561

REM Highest difference peak  0.145,  deepest hole -0.159,  1-sigma level  0.033
Q1    1   0.5076  0.4407  0.1058  11.00000  0.05    0.14
Q2    1   0.5452  0.4875 -0.0380  11.00000  0.05    0.14
Q3    1   0.6762  0.3957  0.2017  11.00000  0.05    0.14
Q4    1   0.7643  0.3250  0.2593  11.00000  0.05    0.13
Q5    1   0.4622  0.3922  0.2324  11.00000  0.05    0.11
Q6    1   0.7016  0.3352  0.5430  11.00000  0.05    0.10
Q7    1   0.9403  0.5196  0.2535  11.00000  0.05    0.10
Q8    1   0.8319  0.3162  0.4621  11.00000  0.05    0.08
Q9    1   0.5667  0.3891  0.4837  11.00000  0.05    0.08
Q10   1   0.7609  0.3543 -0.0196  11.00000  0.05    0.07
Q11   1   0.0262  0.4837 -0.4322  11.00000  0.05    0.07
Q12   1   0.2825  0.4787  0.3810  11.00000  0.05    0.07
Q13   1   0.7004  0.1863  0.5391  11.00000  0.05    0.07
Q14   1   0.1696  0.5005 -0.5020  11.00000  0.05    0.06
Q15   1  -0.1353  0.4586 -0.4280  11.00000  0.05    0.06
Q16   1   1.1365  0.3353  0.1452  11.00000  0.05    0.06
Q17   1   0.3161  0.4585 -0.0770  11.00000  0.05    0.06
Q18   1   0.6445  0.3540 -0.0251  11.00000  0.05    0.06
Q19   1   0.9981  0.3461 -0.0444  11.00000  0.05    0.06
Q20   1   0.8045  0.2189  0.5214  11.00000  0.05    0.06
;
_shelx_res_checksum              96784
_shelx_hkl_file
;
  -1   0   0    0.07    0.13   3
  -1   0   0    0.19    0.11   2
   1   0   0    0.17    0.13   1
  -1   0   0    0.15    0.08   4
  -2   0   0   27.72    0.69   2
  -2   0   0   28.19    0.82   3
  -2   0   0   26.54    0.74   4
   2   0   0   27.03    0.79   1
  -3   0   0   -0.22    0.33   3
  -3   0   0    0.11    0.23   4
   3   0   0    0.17    0.34   1
  -4   0   0  120.89    2.72   3
   4   0   0  120.75    2.37   2
  -4   0   0  120.11    2.63   4
   4   0   0  123.89    2.62   1
  -5   0   0   -0.63    0.47   3
   5   0   0    0.10    0.51   1
   5   0   0   -0.09    0.36   2
  -6   0   0    1.56    0.68   3
   6   0   0    1.33    0.63   1
   6   0   0    1.43    0.52   2
   7   0   0    0.35    0.68   1
  -7   0   0    0.88    0.76   3
   0  -1   0    0.03    0.02   1
   0  -1   0    0.02    0.02   3
   0  -1   0    0.01    0.02   2
   0  -1   0    0.04    0.03   4
   1  -1   0 5543.96  103.65   4
  -1  -1   0 5708.89   87.96   2
  -1  -1   0 5457.53   94.19   3
   1  -1   0 5455.88   89.03   2
   1  -1   0 5295.73   93.24   1
   1   1   0 5610.34   93.56   1
   2  -1   0   10.49    0.53   1
  -2  -1   0   10.99    0.48   2
   2  -1   0    9.59    0.41   2
  -2   1   0    9.16    0.51   4
   2   1   0   10.28    0.57   1
  -2   1   0    8.53    0.56   3
  -2  -1   0   11.55    0.54   3
   3  -1   0 1200.38   19.53   2
   3  -1   0 1220.48   20.84   1
   3   1   0 1236.36   20.83   1
  -3  -1   0 1234.19   21.12   3
  -3   1   0 1210.83   21.10   3
  -3   1   0 1205.12   22.85   4
   4  -1   0   34.92    0.99   2
  -4  -1   0   33.37    1.26   3
   4   1   0   34.54    1.03   2
   4   1   0   33.69    1.19   1
  -4   1   0   35.63    1.17   4
   4  -1   0   34.62    1.22   1
  -4   1   0   38.30    1.28   3
  -5   1   0   46.98    1.62   3
  -5  -1   0   48.32    1.63   3
   5  -1   0   47.06    1.53   1
   5   1   0   46.00    1.33   2
   5   1   0   48.08    1.54   1
   5  -1   0   47.79    1.29   2
   6   1   0    9.14    0.75   2
  -6  -1   0   11.35    1.00   3
  -6   1   0   10.25    0.96   3
   6  -1   0   11.14    0.93   1
   6   1   0   11.22    0.93   1
  -7   1   0    5.67    0.96   3
  -7  -1   0    4.90    0.94   3
   7   1   0    5.35    0.85   1
   7  -1   0    4.89    0.85   1
   0  -2   0  462.01    8.18   3
   0  -2   0  475.83    8.93   4
   0  -2   0  461.01    7.74   2
   0  -2   0  462.30    8.10   1
  -1  -2   0 3363.39   58.52   3
  -1  -2   0 3353.65   54.54   2
   1   2   0 3508.55   58.16   1
  -1   2   0 3447.78   58.58   3
   1  -2   0 3446.58   56.61   2
   1  -2   0 3434.03   64.00   4
  -2   2   0 1168.92   22.75   4
   2  -2   0 1222.74   19.41   2
  -2  -2   0 1225.72   19.49   2
   2  -2   0 1215.96   20.66   1
   2   2   0 1215.61   20.65   1
  -2   2   0 1208.99   20.89   3
  -2  -2   0 1235.45   20.91   3
  -3  -2   0    6.79    0.53   3
  -3   2   0    7.25    0.66   4
   3  -2   0    7.03    0.48   2
   3  -2   0    7.32    0.53   1
  -3   2   0    7.96    0.55   3
   3   2   0    7.39    0.52   1
  -3  -2   0    7.75    0.60   2
   4  -2   0   30.88    0.89   2
  -4   2   0   31.11    1.15   4
   4   2   0   31.33    1.14   1
   4   2   0   31.35    0.99   2
   4  -2   0   30.79    1.14   1
  -4  -2   0   30.42    1.18   3
  -4   2   0   30.39    1.17   3
   5  -2   0   18.80    1.07   1
  -5   2   0   20.66    1.16   3
   5   2   0   20.16    1.05   1
  -5  -2   0   17.84    1.13   3
   5  -2   0   19.72    0.83   2
   5   2   0   19.26    0.92   2
  -6  -2   0    0.61    0.64   3
   6   2   0    0.31    0.61   1
  -6   2   0   -0.44    0.60   3
   6  -2   0    0.42    0.60   1
   6   2   0   -0.95    0.47   2
  -7   2   0    1.47    0.80   3
  -7  -2   0    0.91    0.81   3
   7  -2   0    2.16    0.74   1
   7   2   0    2.44    0.77   1
   0  -3   0   -0.08    0.08   1
   0  -3   0   -0.13    0.08   2
   0  -3   0   -0.15    0.11   4
   0  -3   0   -0.07    0.08   3
  -1  -3   0   41.40    0.95   3
  -1  -3   0   38.84    0.94   4
   1  -3   0   41.69    1.08   4
  -1   3   0   42.02    0.94   3
   1  -3   0   41.86    0.94   1
  -2   3   0  899.35   15.59   3
  -2  -3   0  901.84   15.62   3
   2  -3   0  881.92   16.99   4
   2   3   0  906.48   15.41   1
   2  -3   0  913.73   15.43   1
   2  -3   0  896.72   14.46   2
  -2  -3   0  903.97   14.57   2
  -3  -3   0  161.53    3.22   3
   3   3   0  158.08    3.08   1
   3  -3   0  162.50    2.77   2
   3  -3   0  161.51    3.13   1
  -3   3   0  159.27    3.19   3
  -3  -3   0  152.59    2.97   2
  -3   3   0  159.90    3.39   4
   4   3   0   51.81    1.36   2
   4   3   0   52.22    1.47   1
  -4  -3   0   50.69    1.54   3
  -4   3   0   51.75    1.54   3
  -4   3   0   52.50    1.56   4
   4  -3   0   52.49    1.20   2
   4  -3   0   50.28    1.48   1
  -5  -3   0   21.41    1.19   3
   5  -3   0   20.22    1.09   1
  -5   3   0   20.98    1.15   3
   5  -3   0   19.11    0.81   2
   5   3   0   21.23    1.08   1
   5   3   0   20.73    0.96   2
   6   3   0    0.03    0.51   2
   6   3   0    0.01    0.61   1
  -6  -3   0    0.10    0.63   3
  -6   3   0   -0.31    0.59   3
   6  -3   0    0.66    0.59   1
   7   3   0    1.97    0.76   1
   7  -3   0    2.34    0.76   1
   7   3   0    1.44    0.68   2
  -7  -3   0    1.93    0.85   3
  -7   3   0    1.16    0.77   3
   0  -4   0 1924.05   35.64   4
   0  -4   0 1886.12   32.66   3
   0  -4   0 1921.38   32.35   1
   0  -4   0 1892.69   30.56   2
   1  -4   0 7672.52  139.48   1
  -1  -4   0 8315.86  131.37   2
   1   4   0 8539.46  115.83   5
  -1   4   0 8168.60  141.04   3
  -1  -4   0 8517.43  154.95   4
   1   4   0 8449.30  139.93   1
   1  -4   0 8329.39  153.76   4
  -2  -4   0  156.86    3.02   3
   2   4   0  152.89    2.92   1
   2  -4   0  152.61    2.60   2
  -2  -4   0  154.77    2.83   2
   2  -4   0  159.88    3.28   4
   2  -4   0  159.00    2.96   1
  -2   4   0  153.32    2.99   3
  -3   4   0  114.17    2.61   4
   3  -4   0  110.77    2.37   1
  -3  -4   0  115.70    2.47   3
   3  -4   0  114.24    2.02   2
  -3  -4   0  113.34    2.29   2
   3   4   0  112.56    2.33   1
  -3   4   0  113.82    2.42   3
  -4   4   0   89.78    2.28   4
   4  -4   0   91.19    1.78   2
   4   4   0   91.14    2.12   1
  -4  -4   0   96.44    2.28   3
   4   4   0   88.75    2.00   2
  -4   4   0   89.88    2.23   3
   4  -4   0   90.49    2.16   1
   5   4   0    8.72    0.68   2
  -5   4   0    9.43    0.81   3
  -5  -4   0    9.75    0.82   3
   5   4   0    8.31    0.75   1
   5  -4   0    9.22    0.78   1
   6   4   0    0.45    0.53   2
   6  -4   0   -0.20    0.58   1
   6   4   0   -0.39    0.59   1
  -6   4   0   -0.63    0.58   3
  -6  -4   0    0.96    0.66   3
  -7   4   0    2.88    0.85   3
  -7  -4   0    5.70    0.97   3
   7   4   0    4.37    0.85   1
   7   4   0    3.04    0.78   2
   7  -4   0    5.38    0.86   1
   0  -5   0    0.06    0.12   2
   0  -5   0   -0.30    0.16   4
   0  -5   0   -0.11    0.11   3
  -1   5   0 1407.85   24.11   3
  -1  -5   0 1420.40   22.51   2
   1  -5   0 1425.24   26.38   4
  -1  -5   0 1413.71   26.35   4
  -1  -5   0 1379.78   24.12   3
   1  -5   0 1388.11   23.86   1
  -2  -5   0  101.88    2.12   4
   2  -5   0  103.61    2.09   1
  -2  -5   0  102.59    2.14   3
   2   5   0  105.62    2.08   1
   2  -5   0  103.31    2.37   4
  -2   5   0  101.44    2.12   3
  -2  -5   0  100.87    2.03   2
   3   5   0   22.62    0.88   1
  -3   5   0   22.95    0.91   3
   3  -5   0   22.44    0.88   1
  -3  -5   0   22.69    0.88   2
  -3   5   0   21.82    1.02   4
   3  -5   0   23.10    0.60   2
  -3  -5   0   22.96    0.93   3
  -4   5   0  274.24    5.66   4
   4   5   0  270.56    5.11   1
   4   5   0  272.93    4.89   2
   4  -5   0  271.47    5.19   1
  -4  -5   0  272.23    5.32   3
  -4   5   0  268.69    5.28   3
   4  -5   0  268.92    4.58   2
  -5   5   0    3.03    0.65   3
   5   5   0    3.24    0.63   1
   5  -5   0    4.28    0.66   1
  -5   5   0    4.01    0.62   4
  -5  -5   0    3.56    0.66   3
   5   5   0    3.90    0.57   2
   6  -5   0    2.94    0.71   1
   6   5   0    1.03    0.66   1
   6   5   0    1.66    0.61   2
  -6  -5   0    2.12    0.74   3
  -6   5   0    0.70    0.68   3
  -7   5   0    6.62    1.00   3
  -7  -5   0    8.11    1.04   3
   7   5   0    5.08    0.85   2
   7  -5   0    8.17    0.95   1
   0  -6   0    0.95    0.16   2
   0  -6   0    0.89    0.16   1
   0  -6   0    0.85    0.16   3
   0  -6   0    0.82    0.22   4
  -1  -6   0   77.65    1.83   4
   1  -6   0   88.89    1.67   1
   1  -6   0   83.07    1.95   4
  -1   6   0   77.26    1.64   3
  -1  -6   0   83.28    1.61   2
  -1  -6   0   80.48    1.62   1
  -1  -6   0   79.55    1.68   3
   2   6   0  117.51    2.29   1
   2  -6   0  117.89    2.33   1
  -2  -6   0  114.47    2.37   3
  -2  -6   0  111.46    2.40   4
  -2   6   0  114.36    2.35   3
  -2  -6   0  116.10    2.26   2
   2  -6   0  116.60    2.65   4
  -3   6   0   49.43    1.37   3
  -3  -6   0   48.67    1.36   3
  -3  -6   0   46.43    1.30   2
   3  -6   0   46.61    1.30   1
   3   6   0   48.42    1.30   1
  -4   6   0   13.21    1.01   4
  -4   6   0   13.36    0.93   3
  -4  -6   0   12.82    0.92   3
   4  -6   0   11.89    0.88   1
   4   6   0   13.34    0.92   1
  -4  -6   0   12.63    0.86   2
   5  -6   0   22.29    1.11   1
   5   6   0   21.21    1.07   2
   5   6   0   21.61    1.12   1
  -5   6   0   20.64    1.33   4
  -5   6   0   19.98    1.18   3
  -5  -6   0   21.78    1.20   3
   6  -6   0   12.23    1.06   1
   6   6   0   10.84    0.93   1
   6   6   0   10.98    0.89   2
  -6  -6   0   11.73    1.06   3
  -6   6   0   10.58    0.99   3
  -7  -6   0    6.75    1.02   3
  -7   6   0    6.54    1.00   3
   7   6   0    6.13    0.88   2
   7  -6   0    6.90    0.93   1
   0  -7   0   -0.09    0.15   3
   0  -7   0    0.07    0.22   4
   0  -7   0    0.04    0.15   2
   0  -7   0   -0.08    0.14   1
  -1  -7   0  117.65    2.24   1
   1  -7   0  115.84    2.27   1
  -1   7   0  116.73    2.28   3
   1  -7   0  117.49    2.64   4
  -1  -7   0  117.81    2.19   2
  -1  -7   0  115.66    2.31   3
  -1  -7   0  115.43    2.52   4
  -2  -7   0    6.14    0.45   3
  -2   7   0    7.21    0.56   3
  -2  -7   0    5.58    0.38   4
   2  -7   0    7.43    0.68   4
  -2  -7   0    5.64    0.43   2
   2  -7   0    5.56    0.42   1
   2   7   0    6.42    0.53   1
  -3  -7   0   59.11    1.57   3
  -3  -7   0   58.85    1.53   2
   3   7   0   58.97    1.51   1
   3  -7   0   59.37    1.73   4
   3  -7   0   58.00    1.51   1
  -3   7   0   60.91    1.57   3
  -4   7   0   29.70    1.38   4
   4   7   0   28.33    1.17   1
  -4  -7   0   28.24    1.19   3
  -4   7   0   27.03    1.19   3
   4  -7   0   27.55    1.13   1
  -4  -7   0   29.04    1.17   2
  -5   7   0    0.37    0.57   3
   5  -7   0    0.43    0.52   1
   5   7   0    0.43    0.55   1
  -5   7   0    0.07    0.53   4
   5   7   0   -0.45    0.49   2
  -5  -7   0    0.78    0.55   3
   6   7   0    1.31    0.65   1
  -6   7   0    0.05    0.64   3
  -6  -7   0    0.03    0.67   3
   6   7   0    0.08    0.60   2
   6  -7   0    1.19    0.65   1
   7  -7   0    1.52    0.77   1
  -7  -7   0    1.56    0.87   3
   7   7   0    1.53    0.78   2
  -7   7   0    0.71    0.79   3
   0  -8   0  627.42   11.03   1
   0  -8   0  643.80   11.17   3
   0  -8   0  646.49   12.31   4
   0  -8   0  643.30   10.39   2
   1  -8   0  246.79    4.52   1
   1  -8   0  245.49    5.15   4
  -1  -8   0  251.42    4.33   2
  -1   8   0  250.23    4.56   3
  -1  -8   0  255.57    4.61   3
  -1  -8   0  249.64    4.50   1
  -1  -8   0  250.67    5.03   4
  -2  -8   0  171.90    3.26   2
  -2   8   0  175.25    3.41   3
  -2  -8   0  176.10    3.43   3
  -2  -8   0  176.09    3.60   4
   2  -8   0  176.10    3.85   4
   2   8   0  173.59    3.30   1
   2  -8   0  175.76    3.38   1
   3   8   0    4.51    0.50   1
  -3  -8   0    4.90    0.52   3
   3  -8   0    5.26    0.59   4
   3  -8   0    5.46    0.54   1
  -3  -8   0    4.41    0.51   2
  -3   8   0    4.46    0.50   3
  -4   8   0    2.89    0.59   3
   4  -8   0    2.81    0.54   1
   4   8   0    1.69    0.54   1
  -4  -8   0    2.38    0.52   3
  -4   8   0    1.67    0.60   4
  -4  -8   0    2.35    0.56   2
  -5  -8   0    0.59    0.58   3
  -5   8   0    0.74    0.56   3
   5   8   0    0.60    0.55   1
   5  -8   0   -0.03    0.52   1
   5   8   0   -0.48    0.50   2
  -5   8   0    0.33    0.56   4
  -6   8   0   23.16    1.33   3
   6   8   0   24.11    1.29   2
  -6  -8   0   24.69    1.42   3
   6  -8   0   22.71    1.32   1
  -7  -8   0    4.16    0.94   3
   7   8   0    4.51    0.90   2
  -7   8   0    5.30    1.01   3
   7  -8   0    6.35    0.96   1
   1  -9   0   16.44    0.48   2
  -1  -9   0   17.21    0.68   3
  -1  -9   0   17.08    0.78   4
  -1  -9   0   17.18    0.67   2
  -1  -9   0   17.60    0.68   1
   1  -9   0   16.10    0.87   4
   1  -9   0   15.68    0.67   1
  -1   9   0   16.78    0.65   3
  -2  -9   0    0.31    0.29   2
  -2  -9   0    0.57    0.29   3
   2   9   0    1.12    0.26   5
  -2  -9   0    0.45    0.27   4
  -2   9   0    0.93    0.30   3
   2   9   0    0.87    0.29   1
   2  -9   0    0.93    0.40   4
   2  -9   0    0.54    0.29   1
   3  -9   0   32.08    1.34   4
  -3  -9   0   33.52    1.19   3
   3   9   0   32.54    1.13   1
  -3  -9   0   33.96    1.18   2
  -3   9   0   34.07    1.19   3
  -3  -9   0   31.37    1.01   4
   3  -9   0   34.29    1.16   1
  -4  -9   0   19.65    1.08   3
  -4  -9   0   18.19    1.06   2
  -4   9   0   17.32    1.35   4
   4  -9   0   21.16    1.06   1
   4   9   0   17.95    1.01   1
  -4   9   0   19.21    1.08   3
   5   9   0    3.72    0.64   2
   5  -9   0    2.12    0.64   1
  -5   9   0    3.03    0.67   3
  -5   9   0    2.64    0.69   4
   5   9   0    2.89    0.65   1
  -5  -9   0    2.19    0.66   3
  -6  -9   0    8.29    0.98   3
   6  -9   0   10.46    1.01   1
  -6   9   0    9.84    0.99   3
   6   9   0    9.31    0.90   2
   7   9   0    0.32    0.79   2
  -7   9   0    1.06    0.84   3
  -7  -9   0    1.59    0.86   3
   7  -9   0    2.47    0.81   1
   0 -10   0   68.36    1.85   4
   0 -10   0   69.55    1.59   3
   0 -10   0   69.15    1.53   1
   0 -10   0   69.26    1.43   2
  -1 -10   0   13.04    0.67   1
   1 -10   0   12.32    0.45   2
  -1 -10   0   12.17    0.63   3
   1 -10   0   11.97    0.62   1
  -1  10   0   12.04    0.59   3
  -1 -10   0   12.56    0.77   4
   1 -10   0   11.26    0.84   4
  -1 -10   0   11.50    0.62   2
  -2 -10   0    8.11    0.72   4
   2  10   0    9.44    0.70   1
   2  10   0    9.47    0.58   5
  -2 -10   0    9.86    0.68   3
   2 -10   0    9.64    0.85   4
   2 -10   0   10.03    0.70   1
  -2 -10   0    9.38    0.69   2
  -2  10   0    8.76    0.67   3
  -3 -10   0  210.13    4.24   3
  -3  10   0  212.67    4.21   3
  -3 -10   0  211.28    4.05   2
  -3 -10   0  210.63    4.32   4
   3 -10   0  211.65    4.74   4
   3  10   0  209.87    4.09   1
   3 -10   0  211.70    4.17   1
   4 -10   0    1.07    0.49   1
  -4  10   0    1.78    0.54   3
   4  10   0    1.56    0.54   1
  -4  10   0    0.58    0.59   4
  -4 -10   0    0.85    0.53   2
  -4 -10   0    0.98    0.51   3
  -5  10   0    0.50    0.64   4
   5  10   0    0.25    0.57   1
  -5 -10   0   -0.61    0.55   3
  -5  10   0    0.06    0.57   3
   5  10   0   -0.26    0.52   2
   5 -10   0    0.09    0.54   1
   6 -10   0    0.21    0.65   1
   6  10   0    0.53    0.67   2
  -6  10   0    0.40    0.70   3
  -6 -10   0   -0.28    0.69   3
   0 -11   0    0.20    0.23   1
   0 -11   0   -0.48    0.32   4
   0 -11   0   -0.02    0.23   2
  -1 -11   0  190.33    4.14   4
  -1  11   0  190.49    3.69   3
  -1 -11   0  195.11    3.64   1
   1 -11   0  190.80    3.27   2
   1 -11   0  186.37    3.65   1
   1 -11   0  190.64    4.28   4
  -1 -11   0  195.16    3.74   3
  -1 -11   0  193.74    3.52   2
   2  11   0  267.20    4.17   5
  -2 -11   0  266.14    5.13   3
   2 -11   0  268.72    5.04   1
  -2  11   0  268.39    5.10   3
  -2 -11   0  268.35    4.87   2
   2 -11   0  269.70    5.79   4
   2  11   0  268.04    4.97   1
  -2 -11   0  275.06    5.53   4
  -3  11   0    0.46    0.43   3
  -3 -11   0   -0.15    0.40   3
   3 -11   0    0.41    0.54   4
   3  11   0    0.06    0.43   1
  -3 -11   0    0.60    0.47   2
   3 -11   0    0.25    0.41   1
  -4 -11   0    2.39    0.59   3
   4 -11   0    2.49    0.56   1
  -4  11   0    2.55    0.67   4
   4  11   0    2.87    0.59   1
  -4  11   0    2.58    0.59   3
  -4 -11   0    1.98    0.60   2
   5 -11   0   11.26    0.99   1
  -5  11   0   10.72    1.04   4
  -5  11   0   10.86    0.95   3
   5  11   0   12.78    1.04   2
  -5 -11   0   11.02    0.96   3
   6 -11   0    8.70    0.96   1
   6  11   0    6.65    0.90   2
  -6 -11   0    6.50    0.96   3
  -6  11   0    7.53    0.98   3
   0 -12   0   72.28    2.06   4
   0 -12   0   74.19    1.57   2
   0  12   0   72.22    1.69   3
   0 -12   0   74.41    1.68   1
  -1 -12   0   18.45    0.85   1
   1 -12   0   15.21    1.06   4
   1 -12   0   14.94    0.59   2
  -1 -12   0   17.49    0.85   3
  -1 -12   0   16.09    0.98   4
  -1  12   0   16.22    0.77   3
   1 -12   0   15.08    0.76   1
  -1 -12   0   17.68    0.82   2
  -2 -12   0  466.51    8.53   3
   2 -12   0  471.65    9.54   4
   2  12   0  464.75    8.33   1
  -2  12   0  459.75    8.48   3
  -2 -12   0  473.11    8.06   2
   2 -12   0  474.10    8.42   1
   2  12   0  458.73    6.95   5
  -2 -12   0  471.91    9.25   4
  -3 -12   0   27.03    1.17   2
  -3  12   0   25.28    1.13   3
   3 -12   0   26.01    1.37   4
   3 -12   0   26.47    1.11   1
  -3 -12   0   26.39    1.13   3
   3  12   0   25.34    1.08   1
  -4 -12   0    3.06    0.59   3
  -4  12   0    2.38    0.59   3
   4  12   0    2.61    0.59   1
  -4  12   0    2.95    0.73   4
   4 -12   0    2.64    0.58   1
   4  12   0    2.49    0.59   2
   5 -12   0   33.72    1.44   1
  -5 -12   0   32.35    1.48   3
  -5  12   0   33.97    1.80   4
  -5  12   0   33.34    1.50   3
   5  12   0   34.06    1.44   2
   6  12   0    0.38    0.69   2
  -6 -12   0   -0.13    0.69   3
  -6  12   0    0.04    0.72   3
   6 -12   0   -0.36    0.67   1
   0 -13   0    0.24    0.30   1
   0  13   0   -0.26    0.30   3
   0 -13   0    0.13    0.44   4
   0 -13   0    0.31    0.31   2
  -1 -13   0  196.44    4.35   4
   1 -13   0  196.34    3.82   1
  -1  13   0  195.24    3.85   3
  -1 -13   0  195.87    3.79   1
  -1 -13   0  192.91    3.66   2
  -1 -13   0  199.83    3.90   3
   1 -13   0  194.61    3.40   2
   1 -13   0  194.08    4.48   4
  -2 -13   0    4.94    0.58   3
  -2  13   0    5.38    0.58   3
   2  13   0    5.06    0.48   5
   2 -13   0    5.19    0.77   4
   2  13   0    5.11    0.54   1
   2 -13   0    6.20    0.58   1
  -2 -13   0    5.46    0.62   2
  -2 -13   0    3.96    0.58   4
  -3 -13   0   34.37    1.32   2
   3 -13   0   32.14    1.22   1
  -3 -13   0   34.35    1.29   3
   3  13   0   31.02    1.20   1
   3 -13   0   31.56    1.53   4
  -3  13   0   33.83    1.28   3
  -4  13   0    1.85    0.75   4
  -4 -13   0    2.45    0.59   3
  -4  13   0    2.38    0.61   3
   4  13   0    2.04    0.59   2
   4 -13   0    2.93    0.59   1
   5 -13   0    1.55    0.64   1
  -5  13   0    0.92    0.79   4
  -5 -13   0    0.90    0.62   3
   5  13   0    1.44    0.64   2
  -5  13   0    0.37    0.64   3
  -6 -13   0    2.74    0.85   3
   6  13   0    2.24    0.80   2
   6 -13   0    2.94    0.79   1
  -6  13   0    1.72    0.80   3
   0 -14   0   74.22    1.68   2
   0  14   0   74.08    1.81   3
   0 -14   0   73.52    2.23   4
   0 -14   0   74.64    1.79   1
  -1 -14   0   24.54    1.04   1
   1 -14   0   23.80    1.32   4
  -1 -14   0   21.19    1.01   3
  -1  14   0   23.52    0.98   3
   1 -14   0   22.86    0.96   1
  -1 -14   0   22.59    0.99   2
  -1 -14   0   21.29    1.22   4
  -2 -14   0   91.04    2.45   4
   2 -14   0   91.12    2.68   4
   2  14   0   90.35    2.11   1
  -2 -14   0   94.16    2.20   2
   2 -14   0   91.62    2.17   1
  -2  14   0   88.38    2.20   3
  -2 -14   0   89.47    2.22   3
   2  14   0   88.12    1.80   5
  -3 -14   0   39.77    1.43   2
  -3  14   0   37.01    1.38   3
   3 -14   0   37.64    1.34   1
   3  14   0   35.49    1.30   1
   3 -14   0   35.47    1.66   4
  -3 -14   0   36.96    1.36   3
  -4  14   0   10.65    0.89   3
   4  14   0   10.85    0.87   2
  -4  14   0    9.13    1.04   4
   4 -14   0    9.93    0.84   1
  -4 -14   0    9.54    0.85   3
   5  14   0    0.99    0.68   2
   5 -14   0    0.97    0.62   1
  -5  14   0   -0.26    0.66   3
  -5 -14   0    0.03    0.59   3
  -5  14   0    0.81    0.81   4
  -6  14   0   -1.23    0.89   4
   6  14   0    0.06    0.71   2
  -6  14   0    0.71    0.74   3
  -6 -14   0    0.68    0.73   3
   6 -14   0    0.37    0.69   1
   0 -15   0    1.06    0.41   1
   0  15   0    0.37    0.39   3
   0 -15   0    0.35    0.56   4
   0 -15   0    0.73    0.40   2
  -1 -15   0  128.84    3.28   4
   1 -15   0  128.85    2.80   1
  -1 -15   0  130.40    2.72   2
  -1 -15   0  130.46    2.87   3
  -1  15   0  129.40    2.82   3
   1 -15   0  127.03    3.37   4
  -1 -15   0  127.79    2.78   1
  -2  15   0   33.25    1.34   3
   2 -15   0   37.20    1.72   4
  -2 -15   0   36.17    1.32   3
  -2 -15   0   36.51    1.53   4
   2  15   0   37.91    1.27   1
   2  15   0   35.34    1.12   5
  -2 -15   0   36.47    1.35   2
   2 -15   0   36.88    1.29   1
  -3 -15   0    1.48    0.51   3
   3 -15   0    1.00    0.50   1
   3 -15   0    1.21    0.67   4
  -3  15   0    0.82    0.54   3
  -3 -15   0    1.41    0.59   2
   4  15   0   27.33    1.34   2
   4 -15   0   27.35    1.30   1
  -4  15   0   28.06    1.36   3
  -4  15   0   33.81    1.85   4
  -4 -15   0   25.76    1.31   3
  -5  15   0    4.63    1.04   4
  -5 -15   0    4.97    0.83   3
   5  15   0    4.85    0.82   2
  -5  15   0    5.16    0.86   3
   5 -15   0    6.03    0.83   1
   0 -16   0   18.09    0.94   2
   0 -16   0   20.37    1.00   1
   0  16   0   19.84    1.01   3
   0 -16   0   20.27    1.34   4
  -1 -16   0  372.25    7.04   3
   1 -16   0  370.72    7.99   4
  -1  16   0  370.34    7.00   3
   1 -16   0  361.94    6.92   1
  -1 -16   0  382.39    6.62   2
  -1 -16   0  373.90    6.90   1
  -1 -16   0  381.35    7.87   4
   2  16   0  194.53    3.36   5
   2 -16   0  196.85    4.04   1
   2 -16   0  193.01    4.78   4
  -2  16   0  194.92    4.09   3
   2  16   0  197.38    3.97   1
  -2 -16   0  197.63    3.95   2
  -2 -16   0  199.56    4.13   3
  -2 -16   0  198.76    4.52   4
  -3  16   0    2.58    0.61   3
   3 -16   0    2.92    0.79   4
   3 -16   0    2.73    0.59   1
  -3 -16   0    2.94    0.60   3
  -4  16   0   14.31    1.15   3
   4 -16   0   14.80    1.07   1
  -4  16   0   17.33    1.65   4
  -4 -16   0   16.55    1.12   3
   4  16   0   16.21    1.14   2
  -5  16   0    2.44    0.80   3
  -5 -16   0    2.95    0.78   3
   5 -16   0    3.23    0.76   1
   5  16   0    1.61    0.75   2
  -5  16   0    2.09    0.99   4
   0 -17   0   -0.22    0.46   1
   0  17   0   -0.39    0.47   3
   0 -17   0   -0.38    0.65   4
   1 -17   0  125.74    2.85   1
  -1 -17   0  129.01    3.37   4
  -1 -17   0  130.11    2.87   1
  -1 -17   0  123.07    2.92   3
   1 -17   0  127.45    3.50   4
  -1  17   0  124.83    2.89   3
  -1 -17   0  127.51    2.79   2
  -2 -17   0    6.92    0.72   3
   2 -17   0    5.50    0.91   4
  -2  17   0    6.60    0.73   3
  -2 -17   0    6.03    0.73   2
  -2 -17   0    6.08    0.80   4
   2 -17   0    6.81    0.71   1
   3 -17   0   11.26    1.12   4
  -3 -17   0   10.77    0.94   3
   3 -17   0    9.92    0.83   1
   3  17   0   11.01    0.86   2
  -3  17   0   11.29    1.00   3
  -4  17   0   17.30    1.23   3
  -4 -17   0   15.76    1.14   3
  -4  17   0   18.47    1.75   4
   4  17   0   16.56    1.18   2
   4 -17   0   18.07    1.15   1
  -5  17   0    4.97    1.12   4
  -5 -17   0    5.11    0.87   3
   5  17   0    5.10    0.90   2
   5 -17   0    5.61    0.87   1
   0 -18   0  143.38    3.14   1
   0 -18   0  143.52    3.79   4
   0  18   0  144.98    3.20   3
   1 -18   0    0.88    0.49   1
  -1 -18   0    1.97    0.71   4
  -1  18   0    1.21    0.54   3
  -1 -18   0    1.11    0.53   3
   1 -18   0    1.09    0.75   4
  -1 -18   0    1.58    0.56   1
  -2 -18   0    0.31    0.50   3
   2 -18   0   -0.12    0.65   4
   2 -18   0    0.05    0.48   1
  -2 -18   0   -0.27    0.59   4
  -2  18   0   -0.18    0.50   3
   2  18   0    0.81    0.47   2
   3  18   0   11.43    0.91   2
  -3  18   0   11.34    0.92   3
   3 -18   0   11.43    1.19   4
   3 -18   0   10.80    0.94   1
  -3 -18   0   11.95    0.99   3
   4  18   0    4.55    0.79   2
  -4 -18   0    4.03    0.78   3
  -4  18   0    4.11    1.11   4
   4 -18   0    2.98    0.72   1
  -5 -18   0    5.85    0.92   3
   5 -18   0    7.25    0.95   1
   5  18   0    5.26    0.92   2
  -5  18   0    7.30    1.25   4
   0 -19   0    2.06    0.57   1
   0 -19   0    1.21    0.77   4
   0  19   0    1.11    0.52   3
  -1 -19   0    0.07    0.67   4
   1 -19   0   -0.41    0.70   4
   1  19   0    1.13    0.51   3
   1 -19   0    0.41    0.46   1
  -1 -19   0   -0.19    0.52   1
  -1  19   0   -0.65    0.47   3
   2 -19   0    4.21    0.93   4
  -2 -19   0    5.69    0.71   3
   2 -19   0    5.70    0.73   1
  -2  19   0    4.91    0.72   3
  -2 -19   0    5.42    0.86   4
   2  19   0    6.38    0.71   2
   3  19   0    0.79    0.61   2
  -3 -19   0    0.97    0.64   3
  -3  19   0    1.24    0.96   4
   3 -19   0    1.35    0.63   1
  -4 -19   0    0.94    0.68   3
   4 -19   0    0.79    0.64   1
  -4  19   0    0.83    1.07   4
   4  19   0    0.21    0.68   2
   0  20   0   86.62    2.31   3
   0 -20   0   90.89    2.34   1
   0 -20   0   86.24    2.84   4
  -1 -20   0   12.17    0.93   1
   1 -20   0   12.32    1.22   4
   1  20   0   12.70    0.99   3
   1 -20   0   11.94    0.92   1
  -1 -20   0   12.15    1.12   4
   2 -20   0    7.03    0.78   1
  -2 -20   0    4.85    0.74   3
   2  20   0    5.05    0.71   2
   2 -20   0    5.19    1.01   4
  -3 -20   0    2.58    0.73   3
   3 -20   0    2.49    0.73   1
  -3  20   0    5.37    1.21   4
   3  20   0    2.73    0.74   2
   4 -20   0    0.81    0.69   1
  -4 -20   0    1.22    0.70   3
  -4  20   0    2.46    1.21   4
   4  20   0    0.69    0.74   2
   0 -21   0    0.52    0.80   4
   0 -21   0    1.12    0.60   1
   1 -21   0    0.58    0.54   1
  -1 -21   0   -0.52    0.74   4
   1 -21   0    0.19    0.82   4
  -2 -21   0    0.57    0.64   3
   2 -21   0    1.19    0.87   4
   2 -21   0    0.36    0.59   1
  -3 -21   0   18.75    1.31   3
   3  21   0   19.08    1.28   2
   3 -21   0   17.97    1.24   1
  -3  21   0   29.47    2.15   4
   0 -22   0    5.04    1.09   4
   0 -22   0    6.33    0.82   1
   1 -22   0    1.52    0.62   1
   1 -22   0    1.29    0.90   4
  -1 -22   0   -0.42    0.86   4
  -2 -22   0    5.73    0.85   3
   2 -22   0    4.36    1.06   4
   2 -22   0    3.94    0.74   1
   3 -22   0    1.80    0.73   1
   3  22   0    3.56    0.81   2
  -3 -22   0    3.40    0.80   3
  -3  22   0    3.86    1.24   4
   0 -23   0   -0.85    0.82   4
   1 -23   0    4.92    0.80   1
  -1 -23   0    3.38    1.07   4
   1 -23   0    4.34    1.08   4
  -2  23   0    6.64    1.29   4
   2 -23   0    1.27    0.67   1
   0 -24   0    0.59    0.98   4
  -1 -24   0    1.06    1.05   4
  -7   0   1    5.61    0.91   3
   7   0  -1    6.12    0.88   1
  -6   0   1   -0.71    0.61   3
   6   0  -1    0.07    0.64   1
   6   0  -1   -0.81    0.44   2
  -5   0   1  113.00    2.72   3
  -5   0   1  111.06    2.40   2
   5   0  -1  112.70    2.62   1
  -4   0   1    0.21    0.37   3
  -4   0   1    0.08    0.27   2
   4   0  -1    0.10    0.41   1
  -3   0   1  143.76    2.87   3
   3   0  -1  142.41    2.82   1
  -3   0   1  143.52    2.60   2
   2   0  -1    0.03    0.21   1
  -2   0   1   -0.07    0.17   3
   2   0  -1    0.25    0.14   4
   1   0  -1 6128.81  115.31   4
  -1   0   1 5988.33   97.75   2
  -1   0   1 6256.95  105.08   3
   1   0  -1 6126.09  103.76   1
   0   0   1   -0.05    0.08   2
   0   0  -1    0.15    0.07   3
   0   0   1    0.33    0.07   1
   0   0  -1    0.18    0.14   4
  -1   0  -1 8216.76  153.62   4
   1   0   1 8213.75  139.62   1
   1   0   1 8537.85  131.15   2
  -1   0  -1 8087.28  140.72   3
   2   0   1    0.12    0.22   1
  -2   0  -1   -0.19    0.23   3
  -2   0  -1    0.05    0.25   4
   2   0   1   -0.07    0.18   2
   3   0   1    4.14    0.41   2
  -3   0  -1    4.68    0.47   4
  -3   0  -1    4.88    0.50   3
   3   0   1    4.43    0.46   1
   4   0   1   -0.32    0.34   2
  -4   0  -1   -0.55    0.43   4
   4   0   1   -0.05    0.43   1
  -4   0  -1    0.21    0.45   3
   5   0   1    8.57    0.66   2
  -5   0  -1    9.60    0.86   3
   5   0   1    8.74    0.74   1
   6   0   1    1.75    0.62   1
   6   0   1   -0.20    0.51   2
  -6   0  -1    0.65    0.66   3
  -7   0  -1    1.63    0.86   3
   7   0   1    3.79    0.81   1
   7   1  -1    0.15    0.72   1
  -7  -1   1    0.92    0.71   3
  -7   1   1    0.94    0.71   3
   7  -1  -1    1.04    0.72   1
   6   1  -1   20.08    1.22   1
  -6   1   1   20.28    1.27   3
   6   1  -1   20.82    1.01   2
   6  -1  -1   18.10    0.94   2
  -6  -1   1   20.32    1.30   3
   6  -1  -1   19.25    1.23   1
   5  -1  -1    5.59    0.74   1
   5   1  -1    9.72    0.80   1
  -5  -1   1    6.83    0.63   2
  -5  -1   1    6.88    0.75   3
   5  -1  -1    9.33    0.67   2
  -5   1   1    8.77    0.77   3
   4   1  -1   54.52    1.50   1
  -4   1   1   51.52    1.35   4
   4  -1  -1   52.28    1.47   1
  -4   1   1   53.78    1.28   2
  -4  -1   1   54.70    1.52   3
  -4   1   1   49.84    1.50   3
  -4  -1   1   53.25    1.33   2
   3  -1  -1   66.94    1.58   1
  -3   1   1   68.20    1.60   3
   3  -1  -1   68.42    1.55   4
  -3   1   1   66.93    1.38   2
  -3  -1   1   68.23    1.44   2
   3   1  -1   67.16    1.57   1
  -3  -1   1   71.28    1.61   3
   2  -1  -1  668.63   12.66   4
  -2  -1   1  668.57   11.63   3
  -2  -1   1  681.34   10.85   2
   2   1  -1  665.86   11.52   1
  -2   1   1  659.66   10.80   2
   2  -1  -1  669.08   11.51   1
  -2   1   1  671.00   11.64   3
  -1   1   1 4488.81   76.64   3
   1  -1  -1 4520.60   75.98   1
  -1  -1   1 4495.38   77.07   3
   1   1  -1 4443.11   75.81   1
   1   1  -1 4306.40   84.60   4
  -1   1   1 4527.57   71.88   2
   1  -1  -1 4458.00   83.84   4
  -1  -1   1 4602.83   71.43   2
   0   1  -1  124.64    2.54   4
   0  -1  -1  127.74    2.55   4
   0  -1  -1  126.14    2.28   3
   0  -1   1  127.52    2.14   2
   0  -1   1  129.71    2.26   1
   0   1  -1  122.36    2.34   3
  -1   1  -1 1282.03   24.40   4
   1   1   1 1304.12   20.83   2
   1  -1   1 1307.71   22.13   1
  -1  -1  -1 1285.74   22.36   3
   1   1   1 1326.14   22.18   1
  -1  -1  -1 1305.98   24.43   4
   1  -1   1 1307.08   20.83   2
  -1   1  -1 1303.47   22.37   3
  -2  -1  -1   68.72    1.62   4
  -2   1  -1   71.13    1.56   3
   2  -1   1   69.32    1.49   1
  -2  -1  -1   70.32    1.58   3
   2   1   1   70.09    1.47   1
   2   1   1   68.45    1.43   2
   2  -1   1   71.39    1.41   2
  -2   1  -1   67.69    1.68   4
  -3   1  -1  124.96    2.66   3
  -3  -1  -1  123.01    2.67   3
   3   1   1  126.43    2.40   2
   3  -1   1  127.63    2.56   1
  -3  -1  -1  123.62    2.72   4
   3   1   1  124.55    2.52   1
   3  -1   1  124.65    2.36   2
  -3   1  -1  125.46    2.80   4
   4  -1   1  159.39    3.04   2
   4   1   1  159.31    3.08   2
  -4   1  -1  161.87    3.54   4
  -4  -1  -1  160.39    3.47   4
  -4  -1  -1  161.62    3.46   3
   4  -1   1  160.65    3.30   1
  -4   1  -1  161.30    3.45   3
   4   1   1  161.07    3.27   1
   5   1   1    1.47    0.53   1
   5   1   1    0.76    0.46   2
  -5  -1  -1    2.61    0.63   3
  -5   1  -1    1.75    0.60   3
   5  -1   1    1.81    0.54   1
   5  -1   1    1.76    0.46   2
   6   1   1    0.31    0.54   2
   6  -1   1    0.50    0.57   1
  -6   1  -1    0.99    0.67   3
   6   1   1    1.32    0.60   1
  -6  -1  -1    1.21    0.69   3
  -7  -1  -1    2.28    0.89   3
  -7   1  -1    2.88    0.92   3
   7  -1   1    3.70    0.78   1
   7   2  -1    4.32    0.86   1
   7   2  -1    4.48    0.70   2
  -7   2   1    4.24    0.88   3
   7  -2  -1    4.71    0.83   1
  -7  -2   1    5.46    0.92   3
  -6  -2   1    0.37    0.68   3
  -6   2   1    0.34    0.63   3
   6   2  -1    0.43    0.50   2
   6   2  -1    0.91    0.65   1
   6  -2  -1   -0.52    0.63   1
  -5   2   1   20.06    1.10   3
   5   2  -1   22.04    1.12   1
  -5  -2   1   19.24    0.97   2
   5  -2  -1   17.97    1.11   1
  -5  -2   1   19.65    1.16   3
   5  -2  -1   19.61    0.78   2
  -4  -2   1  172.56    3.51   3
  -4   2   1  169.50    3.56   4
  -4  -2   1  168.52    3.22   2
  -4   2   1  173.97    3.52   3
  -4   2   1  169.71    3.10   2
   4  -2  -1  171.32    3.43   1
   4   2  -1  170.27    3.43   1
   3  -2  -1  215.58    4.24   4
  -3   2   1  208.61    4.02   3
   3  -2  -1  213.51    3.95   1
  -3  -2   1  209.15    4.01   3
  -3  -2   1  209.88    3.73   2
   3   2  -1  209.15    3.95   1
  -3   2   1  209.76    3.60   2
   2   2  -1   28.38    0.85   1
   2  -2  -1   29.35    0.84   1
  -2   2   1   31.19    0.66   2
  -2  -2   1   30.12    0.78   2
  -2   2   1   28.69    0.83   3
  -2  -2   1   29.64    0.81   3
   2  -2  -1   30.38    0.87   4
  -1   2   1  970.41   16.75   3
   1  -2  -1  977.64   18.32   4
   1   2  -1  957.88   13.74   5
  -1  -2   1 1011.91   16.86   3
  -1   2   1  965.61   15.74   2
   1   2  -1  959.97   16.58   1
   1  -2  -1  968.53   16.60   1
   1   2  -1  960.84   18.43   4
  -1  -2   1  988.41   15.63   2
   0  -2  -1 5953.87  105.39   4
   0   2   1 5739.78   90.01   2
   0   2  -1 5472.11  105.15   4
   0  -2   1 5402.32   89.99   2
   0  -2   1 5667.84   95.62   1
   1   2   1   -0.07    0.16   1
  -1   2  -1   -0.04    0.18   3
  -1  -2  -1   -0.04    0.19   3
   1   2   1   -0.03    0.17   2
   1  -2   1   -0.06    0.17   1
  -1   2  -1    0.30    0.21   4
  -1  -2  -1    0.69    0.26   4
   1  -2   1    0.10    0.16   2
  -2  -2  -1  121.68    2.60   4
   2  -2   1  122.03    2.22   2
   2   2   1  121.63    2.34   1
   2   2   1  121.90    2.29   2
   2  -2   1  123.44    2.41   1
  -2  -2  -1  125.57    2.52   3
  -2   2  -1  124.48    2.69   4
  -2   2  -1  127.45    2.48   3
  -3   2  -1   60.24    1.64   4
   3   2   1   59.64    1.38   2
   3   2   1   59.44    1.41   1
  -3  -2  -1   57.82    1.51   4
   3  -2   1   58.86    1.31   2
   3  -2   1   58.04    1.46   1
  -3  -2  -1   55.76    1.55   3
  -3   2  -1   61.14    1.55   3
   4  -2   1    8.78    0.67   2
  -4   2  -1    9.15    0.73   3
  -4  -2  -1    8.25    0.72   3
   4   2   1   10.40    0.73   2
  -4   2  -1    8.85    0.68   4
   4  -2   1    9.18    0.82   1
   4   2   1    8.82    0.77   1
   5   2   1   16.27    0.94   2
  -5  -2  -1   17.90    1.16   3
  -5   2  -1   16.66    1.11   3
   5  -2   1   16.46    0.88   2
   5  -2   1   18.07    1.03   1
   5   2   1   17.85    1.00   1
   6  -2   1    3.30    0.68   1
   6   2   1    2.54    0.65   2
  -6  -2  -1    4.26    0.82   3
  -6   2  -1    2.85    0.74   3
   6   2   1    3.56    0.69   1
  -7   2  -1   10.72    1.17   3
  -7  -2  -1    7.42    1.10   3
   7  -2   1    8.04    0.95   1
  -7   3   1    2.17    0.78   3
   7   3  -1    1.43    0.78   1
   7   3  -1    0.71    0.61   2
  -7  -3   1    2.30    0.81   3
   7  -3  -1    1.76    0.73   1
  -6   3   1   13.27    1.14   3
   6   3  -1   14.51    1.13   1
  -6  -3   1   13.15    1.06   3
   6   3  -1   14.55    0.95   2
   6  -3  -1   12.04    0.99   1
   5  -3  -1   11.15    0.83   1
   5  -3  -1   10.80    0.63   2
  -5  -3   1   10.66    0.87   2
  -5  -3   1   11.77    0.87   3
   5   3  -1   11.44    0.84   1
  -5   3   1   10.68    0.95   3
   4  -3  -1   -0.28    0.43   1
  -4  -3   1    0.02    0.37   3
  -4   3   1    0.42    0.38   3
   4   3  -1    0.22    0.44   1
  -4  -3   1    0.24    0.32   2
   4  -3  -1    0.30    0.32   4
   3  -3  -1   24.97    0.91   4
  -3  -3   1   26.62    0.84   2
   3   3  -1   23.29    0.94   1
  -3  -3   1   26.68    0.94   3
  -3   3   1   22.13    0.91   3
  -3   3   1   24.32    0.66   2
   3  -3  -1   25.54    0.89   1
  -2  -3   1  727.90   12.48   3
  -2  -3   1  721.54   11.68   2
  -2   3   1  718.29   12.50   3
   2   3  -1  717.92   12.37   1
   2  -3  -1  711.47   12.34   1
  -2   3   1  709.06   11.61   2
   2  -3  -1  724.33   13.64   4
  -1  -3   1 1887.48   32.43   3
   1   3  -1 1859.26   35.38   4
  -1  -3   1 1931.47   30.10   2
   1  -3  -1 1936.22   35.25   4
  -1  -3   1 1801.15   31.92   1
  -1   3   1 1871.41   30.51   2
  -1   3   1 1910.80   32.26   3
   1  -3  -1 1886.22   31.99   1
   0  -3  -1 8495.67  155.85   3
   0   3  -1 9821.76  170.31   4
   0   3   1 8717.88  145.45   2
   0  -3   1 8571.34  154.35   1
   0  -3  -1 9623.52  170.35   4
   0  -3   1 9702.69  145.90   2
   1   3   1 5990.31   92.44   2
   1  -3   1 5712.71   92.67   2
  -1   3  -1 5866.87   99.43   3
   1   3   1 5881.63   99.05   1
   1  -3   1 5873.49   98.25   1
  -1   3  -1 5619.75  108.19   4
  -1  -3  -1 5866.99  108.44   4
   2   3   1    0.31    0.25   1
   2   3   1    0.11    0.25   2
  -2  -3  -1    0.38    0.27   4
  -2   3  -1    0.21    0.29   4
   2  -3   1    0.65    0.21   2
  -2  -3  -1    0.43    0.27   3
   2  -3   1    0.42    0.26   1
  -2   3  -1   -0.33    0.26   3
  -3  -3  -1   94.54    2.17   3
   3  -3   1   93.91    2.06   1
   3  -3   1   93.87    1.83   2
   3   3   1   94.44    1.95   2
  -3  -3  -1   92.81    2.11   4
   3   3   1   93.28    1.99   1
  -3   3  -1   92.15    2.12   3
  -3   3  -1   95.87    2.29   4
  -4   3  -1    1.37    0.47   4
   4  -3   1    0.83    0.46   1
   4  -3   1    1.50    0.35   2
  -4  -3  -1    0.78    0.47   3
   4   3   1    1.44    0.42   2
   4   3   1    0.80    0.45   1
  -4   3  -1    1.45    0.51   3
   5  -3   1   26.03    1.18   1
   5   3   1   25.61    1.12   2
  -5   3  -1   24.90    1.26   3
   5   3   1   25.67    1.14   1
   5  -3   1   25.84    1.00   2
  -5  -3  -1   25.79    1.32   3
  -6  -3  -1    0.43    0.65   3
   6  -3   1    0.36    0.57   1
   6   3   1   -0.63    0.53   2
  -6   3  -1   -0.21    0.59   3
   6   3   1    1.48    0.60   1
   7   3   1    1.30    0.74   2
  -7   3  -1    3.12    0.90   3
  -7  -3  -1    2.47    0.92   3
   7  -3   1    2.75    0.79   1
   7   4  -1    0.54    0.74   1
  -7   4   1    0.00    0.71   3
  -7  -4   1    1.64    0.78   3
   7   4  -1    0.26    0.62   2
   7  -4  -1    2.43    0.75   1
   6   4  -1   33.81    1.46   1
   6  -4  -1   32.27    1.44   1
  -6  -4   1   32.72    1.53   3
   6   4  -1   34.57    1.32   2
  -6   4   1   33.31    1.51   3
   5   4  -1   34.12    1.33   1
  -5   4   1   36.19    1.41   3
  -5  -4   1   33.38    1.39   3
  -5   4   1   34.98    1.33   4
   5  -4  -1   34.12    1.35   1
  -5  -4   1   34.85    1.28   2
   4   4  -1   12.14    0.87   1
  -4   4   1   13.97    0.85   3
  -4  -4   1   11.63    0.74   2
   4  -4  -1   11.12    0.50   2
   4  -4  -1   10.75    0.84   1
   4  -4  -1   10.79    0.74   4
  -4  -4   1   12.61    0.81   3
  -3  -4   1  490.46    8.25   2
   3   4  -1  496.81    8.72   1
   3  -4  -1  495.43    8.71   1
   3  -4  -1  494.18    9.56   4
  -3   4   1  491.48    8.83   3
  -3  -4   1  502.35    8.82   3
  -3   4   1  479.40    8.01   2
  -2  -4   1 1144.28   18.57   2
  -2   4   1 1156.06   19.89   3
  -2  -4   1 1152.62   19.86   3
   2   4  -1 1133.32   19.68   1
   2  -4  -1 1162.22   19.66   1
   2  -4  -1 1170.89   21.73   4
   1   4  -1  809.11   15.71   4
  -1  -4   1  829.17   14.27   1
  -1   4   1  832.18   14.40   3
   1  -4  -1  853.63   15.80   4
  -1  -4   1  839.11   14.41   3
  -1   4   1  817.85   13.53   2
  -1  -4   1  848.59   13.46   2
   1  -4  -1  848.08   14.25   1
   0  -4  -1  207.10    3.58   1
   0  -4   1  216.31    3.63   1
   0  -4  -1  202.69    3.68   3
   0  -4   1  202.78    3.39   2
   0   4  -1  193.34    4.04   4
   0   4  -1  199.45    3.60   3
   0  -4  -1  198.50    4.06   4
   0   4   1  203.31    3.40   2
   1   4   1 3620.01   57.03   2
   1  -4   1 3584.33   60.59   1
  -1   4  -1 3619.54   66.80   4
  -1  -4  -1 3473.79   61.20   3
   1  -4   1 3579.56   57.17   2
  -1  -4  -1 3617.72   66.86   4
   1   4   1 3606.17   61.00   1
  -1   4  -1 3631.11   61.30   3
  -2   4  -1 1282.39   21.63   3
   2   4   1 1247.69   21.33   1
  -2  -4  -1 1228.91   23.51   4
   2  -4   1 1245.58   20.07   2
  -2   4  -1 1233.21   23.63   4
   2   4   1 1267.47   20.18   2
   2  -4   1 1273.99   21.42   1
   3   4   1    4.99    0.44   2
   3  -4   1    4.70    0.35   2
   3   4   1    4.99    0.45   1
   3  -4   1    5.04    0.48   1
  -3   4  -1    4.34    0.48   3
  -3  -4  -1    3.99    0.41   4
  -3   4  -1    4.35    0.49   4
  -3  -4  -1    5.02    0.50   3
   4   4   1    4.19    0.51   2
  -4   4  -1    4.76    0.61   3
  -4  -4  -1    3.88    0.59   3
  -4   4  -1    4.56    0.61   4
   4  -4   1    4.40    0.43   2
   4   4   1    3.94    0.55   1
   4  -4   1    4.73    0.57   1
   5   4   1    0.73    0.50   2
   5  -4   1    1.34    0.53   1
  -5   4  -1    0.20    0.54   3
   5   4   1    0.62    0.53   1
  -5  -4  -1    1.58    0.61   3
  -6   4  -1    0.55    0.62   3
   6   4   1   -0.42    0.57   2
  -6  -4  -1    0.26    0.64   3
   6  -4   1    1.22    0.63   1
  -7  -4  -1    3.05    0.93   3
   7   4   1    2.17    0.79   2
   7  -4   1    1.60    0.79   1
  -7   4  -1    2.01    0.87   3
   7   5  -1   -0.37    0.75   1
   7  -5  -1    1.33    0.72   1
   7   5  -1    1.41    0.67   2
  -7   5   1    0.48    0.77   3
  -7  -5   1    0.31    0.75   3
  -6   5   1    0.67    0.64   3
   6   5  -1    0.11    0.64   1
   6   5  -1    0.32    0.54   2
  -6  -5   1   -0.85    0.61   3
   6  -5  -1    0.38    0.61   1
  -5   5   1   29.21    1.28   3
  -5  -5   1   29.05    1.20   2
   5  -5  -1   27.27    1.23   1
  -5  -5   1   30.49    1.31   3
   5   5  -1   29.07    1.23   1
  -5   5   1   30.37    1.32   4
   4  -5  -1    4.95    0.53   4
   4   5  -1    5.25    0.59   1
   4  -5  -1    5.65    0.59   1
  -4  -5   1    4.67    0.55   3
   4  -5  -1    4.59    0.38   2
  -4  -5   1    5.09    0.52   2
  -4   5   1    5.35    0.56   3
  -3  -5   1  579.12   10.28   3
   3   5  -1  584.67   10.17   1
   3  -5  -1  584.21   10.16   1
  -3   5   1  568.80   10.30   3
   3  -5  -1  582.37   11.21   4
  -3  -5   1  571.74    9.64   2
  -2   5   1  605.46   10.58   3
   2  -5  -1  607.75   10.44   1
  -2  -5   1  609.32    9.91   2
   2  -5  -1  596.17   11.59   4
  -2  -5   1  598.11   10.54   3
   2   5  -1  599.26   10.45   1
  -1   5   1 2338.65   37.66   2
   1   5  -1 2276.54   43.63   4
   1  -5  -1 2405.47   43.68   4
  -1  -5   1 2355.81   39.58   1
   1  -5  -1 2359.85   39.59   1
  -1  -5   1 2407.94   37.29   2
  -1   5   1 2257.71   39.94   3
  -1  -5   1 2315.88   40.02   3
   0  -5  -1  830.06   15.65   4
   0  -5  -1  828.73   14.15   1
   0   5   1  810.31   13.28   2
   0   5  -1  825.46   15.64   4
   0  -5  -1  822.46   14.29   3
   0  -5   1  855.83   13.31   2
   0  -5   1  819.30   14.13   1
   0   5  -1  822.35   14.28   3
   1   5   1  159.05    2.83   2
  -1  -5  -1  160.23    3.06   3
  -1  -5  -1  173.61    3.32   4
  -1   5  -1  150.98    3.39   4
   1   5   1  158.61    2.86   1
  -1   5  -1  154.05    2.94   3
   1  -5   1  160.57    2.70   2
   1  -5   1  155.73    2.98   1
  -2  -5  -1 1462.77   27.93   4
   2   5   1 1512.28   23.95   2
   2   5   1 1488.24   25.33   1
  -2  -5  -1 1483.98   25.72   3
  -2   5  -1 1472.64   28.06   4
   2  -5   1 1501.43   25.43   1
  -2   5  -1 1511.96   25.66   3
   2  -5   1 1500.18   23.83   2
   3  -5   1   11.29    0.72   1
  -3   5  -1   13.41    1.00   4
   3   5   1   13.07    0.74   1
  -3  -5  -1   12.78    0.73   4
  -3  -5  -1   12.58    0.78   3
   3   5   1   12.27    0.77   2
   3  -5   1   13.31    0.59   2
  -3   5  -1   12.62    0.81   3
  -4  -5  -1   21.94    1.12   3
  -4   5  -1   22.97    1.30   4
   4   5   1   19.92    0.99   1
   4   5   1   21.59    0.98   2
   4  -5   1   21.57    0.81   2
   4  -5   1   21.55    1.02   1
  -4   5  -1   19.63    1.10   3
  -5   5  -1    9.23    0.85   3
   5   5   1    8.97    0.75   1
   5   5   1    7.22    0.72   2
  -5  -5  -1    8.41    0.85   3
  -5   5  -1    8.19    0.82   4
   5  -5   1    8.30    0.77   1
  -6  -5  -1    0.68    0.71   3
   6   5   1   -0.68    0.58   2
  -6   5  -1    0.81    0.66   3
   6  -5   1    0.90    0.62   1
   7   5   1   -0.12    0.73   2
  -7  -5  -1    0.78    0.85   3
   7  -5   1    1.28    0.79   1
  -7   5  -1    0.03    0.74   3
   7   6  -1    2.76    0.76   2
   7  -6  -1    4.21    0.83   1
  -7  -6   1    3.47    0.86   3
  -7   6   1    3.22    0.89   3
   7   6  -1    2.33    0.84   1
   6  -6  -1   14.13    1.10   1
   6   6  -1   13.78    1.12   1
  -6   6   1   13.89    1.17   3
   6   6  -1   13.38    1.00   2
  -6  -6   1   12.68    1.16   3
  -5   6   1   -0.20    0.50   3
   5   6  -1    0.54    0.54   1
  -5   6   1    0.42    0.48   4
  -5  -6   1   -0.01    0.47   2
   5  -6  -1   -0.14    0.48   1
  -5  -6   1   -0.01    0.50   3
  -4   6   1    0.09    0.40   3
   4  -6  -1    0.79    0.44   1
  -4  -6   1    0.44    0.39   2
  -4  -6   1    0.37    0.40   3
   4   6  -1    0.92    0.49   1
   4  -6  -1    0.77    0.42   4
  -3  -6   1  128.19    2.68   3
  -3  -6   1  127.31    2.57   2
  -3   6   1  129.77    2.71   3
   3   6  -1  127.87    2.65   1
   3  -6  -1  126.77    2.64   1
   3  -6  -1  129.55    2.96   4
   2  -6  -1    3.49    0.43   4
   2   6  -1    4.40    0.36   1
   2  -6  -1    4.03    0.36   1
   2   6  -1    4.31    0.32   5
  -2  -6   1    4.24    0.34   3
  -2  -6   1    3.65    0.37   2
   2   6  -1    3.45    0.27   4
  -2   6   1    7.21    0.57   3
   1   6  -1   19.60    0.75   4
   1  -6  -1   21.46    0.88   4
  -1  -6   1   21.61    0.71   1
  -1  -6   1   21.07    0.69   2
  -1   6   1   20.88    0.68   3
   1  -6  -1   20.63    0.61   1
  -1   6   1   22.30    0.52   2
  -1  -6   1   20.04    0.62   3
   0   6   1  871.48   13.98   2
   0   6  -1  860.83   16.47   4
   0  -6  -1  871.74   15.06   3
   0  -6  -1  886.40   16.49   4
   0   6  -1  867.29   14.99   3
   0  -6   1  880.63   14.01   2
   0  -6   1  860.53   14.89   1
   0  -6  -1  861.89   14.84   1
   1   6   1    3.05    0.25   1
  -1   6  -1    3.94    0.30   3
  -1  -6  -1    2.62    0.36   4
   1  -6   1    3.45    0.23   2
  -1   6  -1    3.31    0.42   4
  -1  -6  -1    3.81    0.36   3
   1  -6   1    4.02    0.35   1
   1   6   1    2.90    0.33   2
  -2  -6  -1  315.09    5.80   3
   2  -6   1  316.92    5.15   2
  -2  -6  -1  311.82    6.14   4
  -2   6  -1  308.03    5.68   3
   2   6   1  311.34    5.37   2
   2   6   1  309.37    5.54   1
   2  -6   1  316.49    5.68   1
  -2   6  -1  307.15    6.35   4
   3   6   1    5.05    0.48   1
   3  -6   1    5.46    0.35   2
   3   6   1    4.19    0.48   2
  -3   6  -1    4.05    0.53   4
  -3  -6  -1    4.66    0.53   3
   3  -6   1    3.99    0.48   1
  -3   6  -1    3.81    0.50   3
  -4  -6  -1  157.95    3.50   3
   4   6   1  158.21    3.21   2
  -4   6  -1  161.18    3.80   4
  -4   6  -1  158.26    3.45   3
   4  -6   1  163.74    3.40   1
   4   6   1  158.95    3.25   1
  -5   6  -1    0.34    0.54   3
  -5   6  -1   -0.52    0.58   4
   5  -6   1    0.31    0.53   1
   5   6   1    0.49    0.53   2
  -5  -6  -1    0.22    0.57   3
   5   6   1    0.65    0.52   1
  -6  -6  -1    1.64    0.74   3
   6  -6   1    1.13    0.67   1
   6   6   1    1.23    0.67   2
  -6   6  -1    1.01    0.71   3
   7   7  -1    5.06    0.85   2
  -7  -7   1    5.49    0.98   3
   7   7  -1    4.77    0.94   1
  -7   7   1    5.04    0.96   3
   7  -7  -1    6.00    0.89   1
   6  -7  -1    1.19    0.65   1
   6   7  -1    1.50    0.69   1
  -6   7   1    1.02    0.69   3
   6   7  -1    0.98    0.59   2
  -6  -7   1    0.97    0.67   3
   5   7  -1   42.88    1.50   1
   5  -7  -1   40.60    1.46   1
  -5  -7   1   43.39    1.50   2
  -5   7   1   42.61    1.67   4
  -5  -7   1   40.06    1.51   3
  -5   7   1   40.34    1.52   3
   4  -7  -1   16.23    1.00   4
  -4  -7   1   15.78    0.92   3
  -4  -7   1   15.41    0.90   2
   4   7  -1   15.41    0.98   1
  -4   7   1   16.59    0.97   3
   4  -7  -1   15.71    0.91   1
  -3   7   1    0.44    0.33   3
  -3  -7   1    0.05    0.31   3
  -3  -7   1   -0.20    0.31   2
   3   7  -1    0.30    0.34   1
   3  -7  -1    0.06    0.34   1
   3  -7  -1    0.52    0.36   4
  -2  -7   1  291.71    5.09   2
   2   7  -1  277.34    5.71   4
   2   7  -1  293.74    5.31   1
  -2  -7   1  294.41    5.34   3
   2  -7  -1  298.09    5.99   4
   2  -7  -1  297.41    5.29   1
   2   7  -1  298.40    4.45   5
  -2   7   1  298.51    5.40   3
   1  -7  -1  135.21    2.99   4
  -1  -7   1  132.22    2.85   4
  -1   7   1  132.79    2.61   3
  -1  -7   1  135.78    2.47   2
  -1  -7   1  137.07    2.53   3
  -1  -7   1  135.76    2.59   1
   1  -7  -1  132.12    2.50   1
  -1   7   1  132.72    2.27   2
   0  -7   1  368.65    7.12   4
   0  -7  -1  359.32    7.12   4
   0  -7   1  359.87    6.37   1
   0   7  -1  358.69    6.32   3
   0  -7  -1  361.15    6.46   3
   0  -7  -1  364.51    6.26   1
   0   7   1  356.32    5.94   2
   0  -7   1  356.08    5.96   2
   1   7   1 1735.44   24.35   5
   1  -7   1 1725.35   29.45   1
   1   7   1 1722.71   29.40   1
   1  -7   1 1742.28   27.68   2
   1   7   1 1770.21   27.74   2
  -1  -7  -1 1732.35   32.47   4
  -1   7  -1 1704.27   29.69   3
  -1  -7  -1 1739.56   29.79   3
  -2   7  -1  422.56    8.41   4
   2  -7   1  419.71    6.85   2
  -2  -7  -1  423.45    7.65   3
   2   7   1  419.09    7.36   1
  -2   7  -1  421.33    7.53   3
   2   7   1  414.19    7.10   2
  -2  -7  -1  416.79    8.18   4
   2  -7   1  424.36    7.52   1
  -3  -7  -1  134.50    2.93   3
   3  -7   1  132.36    2.81   1
   3   7   1  129.20    2.68   1
   3   7   1  133.84    2.71   2
  -3   7  -1  134.84    3.22   4
  -3  -7  -1  133.34    2.90   4
   3  -7   1  130.53    2.37   2
  -3   7  -1  133.44    2.85   3
   4   7   1   65.62    1.77   2
   4  -7   1   67.49    1.86   1
  -4   7  -1   65.66    1.91   3
   4   7   1   63.54    1.72   1
  -4  -7  -1   67.29    1.96   3
  -4   7  -1   69.40    2.18   4
   5  -7   1    8.87    0.83   1
   5   7   1    9.27    0.80   2
  -5   7  -1    9.91    0.94   4
  -5   7  -1    8.70    0.84   3
  -5  -7  -1    9.78    0.92   3
  -6  -7  -1    3.92    0.88   3
   6  -7   1    5.45    0.84   1
  -6   7  -1    4.30    0.82   3
   6   7   1    4.57    0.79   2
   7   8  -1   16.32    1.39   1
   7   8  -1   19.89    1.33   2
  -7  -8   1   16.63    1.38   3
   7  -8  -1   17.93    1.30   1
  -7   8   1   16.30    1.35   3
   6   8  -1    1.42    0.68   1
  -6  -8   1   -0.51    0.61   3
   6   8  -1    1.85    0.60   2
   6  -8  -1    0.93    0.63   1
  -6   8   1    1.47    0.68   3
  -5  -8   1   37.85    1.47   3
  -5   8   1   40.83    1.68   4
  -5   8   1   35.88    1.48   3
   5   8  -1   36.78    1.44   1
   5  -8  -1   35.63    1.39   1
  -5  -8   1   39.21    1.47   2
  -4  -8   1  180.91    3.79   3
   4   8  -1  184.54    3.75   1
  -4  -8   1  182.02    3.64   2
   4  -8  -1  181.17    4.17   4
   4  -8  -1  184.25    3.75   1
  -4   8   1  187.46    3.85   3
   3   8  -1   54.69    1.45   1
   3  -8  -1   54.73    1.43   1
  -3  -8   1   53.98    1.44   3
  -3   8   1   54.33    1.49   3
  -3  -8   1   55.24    1.46   2
   3  -8  -1   53.31    1.66   4
  -2   8   1   24.96    0.89   3
   2   8  -1   25.64    0.77   5
   2  -8  -1   23.42    1.02   4
  -2  -8   1   25.31    0.86   2
   2  -8  -1   26.26    0.84   1
   2   8  -1   22.22    0.85   1
  -2  -8   1   24.71    0.81   3
  -1  -8   1  114.24    2.19   3
  -1  -8   1  115.68    2.51   4
  -1  -8   1  110.61    2.15   2
   1  -8  -1  108.92    2.15   1
  -1   8   1  112.95    2.27   3
   1  -8  -1  111.28    2.63   4
  -1  -8   1  111.28    2.25   1
  -1   8   1  108.91    1.94   2
   0  -8   1  942.79   17.72   4
   0  -8   1  929.52   15.99   1
   0  -8  -1  927.20   15.89   1
   0  -8  -1  931.36   17.73   4
   0  -8  -1  939.81   16.18   3
   0  -8   1  942.82   15.03   2
   0   8   1  919.13   14.99   2
   0   8  -1  924.26   16.06   3
  -1   8  -1   56.24    1.26   3
   1   8   1   56.23    1.27   2
   1   8   1   54.76    1.18   1
   1   8   1   54.75    1.02   5
  -1   8  -1   51.28    1.64   4
   1  -8   1   52.68    1.33   1
  -1  -8  -1   53.81    1.39   3
   1  -8   1   54.07    1.10   2
  -1  -8  -1   51.16    1.50   4
  -2  -8  -1  799.54   15.41   4
  -2  -8  -1  813.71   14.27   3
   2   8   1  806.79   13.91   1
   2  -8   1  812.64   13.02   2
   2  -8   1  820.54   14.08   1
   2   8   1  807.38   13.27   2
  -2   8  -1  808.55   14.14   3
  -2   8  -1  807.61   15.64   4
   3   8   1   10.85    0.92   2
  -3   8  -1    8.16    0.69   3
  -3  -8  -1    9.12    0.79   4
  -3  -8  -1   13.05    1.00   3
   3   8   1    7.60    0.62   1
  -3   8  -1    8.96    0.81   4
   3  -8   1   11.16    0.86   1
  -4   8  -1   81.43    2.17   3
  -4   8  -1   85.27    2.51   4
   4   8   1   83.00    2.06   2
  -4  -8  -1   81.89    2.26   3
   4   8   1   78.99    1.97   1
   4  -8   1   81.98    2.13   1
  -5   8  -1    8.45    0.84   3
  -5  -8  -1    8.63    0.88   3
  -5   8  -1    7.79    0.91   4
   5   8   1    8.13    0.78   2
   5  -8   1    8.67    0.83   1
  -6  -8  -1   29.99    1.61   3
   6  -8   1   30.17    1.47   1
   6   8   1   30.60    1.46   2
  -6   8  -1   26.16    1.47   3
   7  -9  -1   11.54    1.08   1
  -7  -9   1   11.37    1.17   3
  -7   9   1   11.74    1.17   3
   7   9  -1   11.46    1.05   2
  -6   9   1   -0.25    0.63   3
  -6  -9   1    0.00    0.61   3
   6   9  -1    0.67    0.56   2
   6   9  -1   -0.56    0.62   1
   6  -9  -1    0.28    0.61   1
  -5   9   1   17.85    1.33   4
   5  -9  -1   16.53    1.03   1
  -5   9   1   16.26    1.11   3
  -5  -9   1   13.89    1.08   2
   5   9  -1   13.92    1.08   1
  -5  -9   1   14.28    1.05   3
  -4  -9   1   61.25    1.77   3
   4  -9  -1   61.92    1.74   1
   4  -9  -1   64.76    2.02   4
  -4  -9   1   62.06    1.75   2
  -4   9   1   66.23    1.84   3
   4   9  -1   67.02    1.80   1
  -3  -9   1   74.23    1.81   2
   3  -9  -1   74.02    2.11   4
  -3  -9   1   79.90    1.85   3
  -3   9   1   74.40    1.86   3
   3  -9  -1   72.62    1.79   1
   3   9  -1   73.54    1.80   1
   2   9  -1  253.50    4.73   1
   2   9  -1  254.43    3.97   5
  -2  -9   1  255.32    4.55   2
   2  -9  -1  253.77    5.39   4
  -2  -9   1  261.05    5.13   4
   2  -9  -1  253.82    4.70   1
  -2   9   1  258.25    4.82   3
  -2  -9   1  253.50    4.74   3
  -1   9   1  841.59   13.46   2
  -1  -9   1  841.29   13.65   2
  -1  -9   1  862.40   14.54   3
  -1   9   1  834.23   14.60   3
   1  -9  -1  834.68   16.10   4
  -1  -9   1  828.77   15.95   4
   1  -9  -1  827.85   14.37   1
  -1  -9   1  830.83   14.45   1
   0  -9  -1   24.01    0.87   3
   0  -9   1   22.19    0.72   2
   0  -9  -1   22.67    1.01   4
   0   9   1   24.49    0.74   2
   0   9  -1   24.64    0.69   3
   0  -9   1   22.72    1.02   4
   1  -9   1    1.70    0.31   1
  -1  -9  -1    1.51    0.32   3
  -1  -9  -1    0.87    0.36   4
   1  -9   1    0.98    0.20   2
  -1   9  -1    2.07    0.28   3
  -1   9  -1    0.20    0.39   4
   1   9   1    1.29    0.28   2
   2  -9   1   15.93    0.90   1
   2   9   1   18.73    0.89   2
  -2  -9  -1   16.58    0.92   3
  -2   9  -1   16.71    1.20   4
  -2   9  -1   16.91    0.83   3
   2   9   1   17.72    0.78   1
  -2  -9  -1   14.18    0.92   4
  -3   9  -1  599.40   10.76   3
   3   9   1  590.44   10.51   1
   3   9   1  598.96   10.13   2
  -3   9  -1  609.91   11.95   4
  -3  -9  -1  606.85   10.90   3
   3  -9   1  598.63   10.70   1
  -3  -9  -1  591.92   11.55   4
  -4   9  -1    0.25    0.58   4
  -4  -9  -1   -0.71    0.48   3
   4   9   1    0.18    0.47   2
   4  -9   1    1.04    0.50   1
  -4   9  -1   -0.17    0.49   3
  -5   9  -1   16.84    1.15   3
  -5   9  -1   20.60    1.54   4
   5   9   1   19.46    1.13   2
  -5  -9  -1   18.43    1.25   3
   5  -9   1   18.51    1.15   1
   6   9   1    3.19    0.82   2
   6  -9   1    4.60    0.84   1
  -6   9  -1    4.31    0.88   3
  -6  -9  -1    3.96    0.91   3
  -7 -10   1    1.78    0.84   3
  -7  10   1    0.22    0.79   3
   7  10  -1    1.60    0.80   2
   7 -10  -1    1.41    0.79   1
  -6  10   1    0.10    0.67   3
   6  10  -1    0.05    0.55   2
  -6 -10   1   -0.75    0.62   3
   6  10  -1   -0.71    0.62   1
   6 -10  -1   -0.99    0.58   1
  -5 -10   1    7.06    0.79   2
  -5 -10   1    8.76    0.82   3
   5  10  -1    7.84    0.81   1
  -5  10   1    9.63    0.91   4
  -5  10   1    9.18    0.86   3
   5 -10  -1    8.01    0.79   1
  -4 -10   1   29.63    1.22   2
   4  10  -1   29.46    1.22   1
  -4 -10   1   29.29    1.20   3
   4 -10  -1   29.86    1.19   1
  -4  10   1   29.69    1.25   3
   4 -10  -1   28.06    1.38   4
   3 -10  -1   11.96    0.76   1
  -3 -10   1   12.23    0.76   3
   3 -10  -1   11.23    0.94   4
  -3 -10   1   10.67    0.79   2
  -3  10   1   13.24    0.83   3
   3  10  -1   12.78    0.80   1
   2  10  -1   17.39    0.68   5
  -2 -10   1   16.67    0.80   2
   2  10  -1   16.11    0.77   1
   2 -10  -1   15.10    0.97   4
  -2  10   1   17.80    0.82   3
  -2 -10   1   17.19    0.76   3
   2 -10  -1   17.28    0.76   1
  -2 -10   1   18.69    0.91   4
  -1 -10   1   35.81    1.06   1
  -1  10   1   32.55    0.79   2
  -1 -10   1   35.22    1.18   4
  -1 -10   1   31.46    0.98   2
   1 -10  -1   32.70    1.29   4
   1 -10  -1   31.65    0.93   1
  -1  10   1   34.74    1.02   3
  -1 -10   1   33.39    0.98   3
   0  10   1   17.20    0.70   2
   0 -10  -1   17.64    0.79   3
   0  10  -1   18.34    0.64   3
   0 -10  -1   17.02    0.65   1
   0 -10   1   20.40    1.02   4
   0 -10   1   16.48    0.64   2
   0 -10   1   17.42    0.75   1
   0 -10  -1   14.81    0.92   4
   1  10   1  258.25    4.51   2
  -1 -10  -1  265.58    4.65   1
   1 -10   1  255.71    4.35   2
  -1  10  -1  261.46    4.75   3
  -1 -10  -1  258.05    4.90   3
  -1 -10  -1  255.19    5.35   4
   1 -10   1  256.08    4.80   1
   1 -10   1  254.04    5.46   4
  -2  10  -1  241.62    5.26   4
  -2 -10  -1  235.50    4.67   3
   2  10   1  242.35    4.39   1
   2  10   1  234.25    4.32   2
  -2 -10  -1  238.35    4.98   4
   2 -10   1  239.98    4.57   1
  -2  10  -1  237.01    4.53   3
   3  10   1  173.11    3.49   1
   3  10   1  180.41    3.53   2
  -3  10  -1  178.00    3.66   3
   3 -10   1  178.06    3.67   1
  -3 -10  -1  169.02    3.82   4
  -3  10  -1  187.61    4.30   4
  -3 -10  -1  178.07    3.79   3
  -4 -10  -1    1.48    0.57   3
   4 -10   1    1.42    0.54   1
  -4  10  -1    1.38    0.56   3
   4  10   1    0.73    0.50   2
  -4  10  -1    1.14    0.63   4
  -5 -10  -1    0.75    0.65   3
  -5  10  -1    0.49    0.74   4
   5  10   1    1.46    0.62   2
  -5  10  -1    0.83    0.62   3
   5 -10   1    1.76    0.64   1
  -6  10  -1   10.31    1.04   3
   6  10   1   12.16    1.07   2
   6 -10   1   12.31    1.09   1
  -6 -10  -1   11.35    1.15   3
   7 -11  -1    1.96    0.82   1
  -7 -11   1    1.55    0.88   3
  -7  11   1    1.63    0.90   3
   7  11  -1    1.78    0.82   2
   6  11  -1    0.27    0.70   1
  -6  11   1   -0.80    0.64   3
  -6 -11   1    0.72    0.68   3
   6  11  -1    0.41    0.58   2
   6 -11  -1    0.03    0.63   1
  -5 -11   1    6.05    0.77   3
  -5  11   1    6.46    0.80   3
  -5 -11   1    7.13    0.83   2
   5  11  -1    7.28    0.84   1
   5 -11  -1    6.63    0.77   1
   4  11  -1    6.46    0.71   1
  -4 -11   1    7.81    0.69   3
   4 -11  -1    7.58    0.68   1
  -4  11   1    6.91    0.72   3
   4 -11  -1    5.82    0.79   4
  -4 -11   1    6.04    0.70   2
  -3 -11   1    4.37    0.56   2
  -3  11   1    4.49    0.56   3
   3  11  -1    4.23    0.53   1
   3 -11  -1    3.64    0.63   4
   3 -11  -1    4.12    0.50   1
  -3 -11   1    4.40    0.50   3
  -2 -11   1  190.39    3.58   2
   2  11  -1  188.51    3.09   5
  -2 -11   1  191.62    4.04   4
   2  11  -1  187.31    3.67   1
   2 -11  -1  183.14    3.63   1
   2 -11  -1  188.70    4.29   4
  -2 -11   1  189.79    3.67   3
  -2  11   1  188.18    3.75   3
  -1 -11   1   40.79    1.36   4
  -1 -11   1   41.75    1.15   2
  -1  11   1   41.47    0.93   2
  -1 -11   1   41.37    1.20   1
   1 -11  -1   42.82    1.10   1
  -1 -11   1   41.98    1.14   3
   1 -11  -1   40.01    1.48   4
  -1  11   1   40.42    1.18   3
   0  11   1  146.72    2.67   2
   0 -11   1  143.88    2.69   2
   0  11  -1  142.78    2.81   3
   0 -11   1  147.31    3.39   4
   0 -11  -1  142.35    2.97   3
   0 -11  -1  146.45    2.79   1
   0 -11   1  145.98    2.91   1
   0 -11  -1  147.45    3.39   4
   1  11   1  182.44    3.36   2
  -1  11  -1  184.64    3.51   3
  -1 -11  -1  180.44    3.67   3
  -1 -11  -1  187.33    4.05   4
   1 -11   1  180.57    3.19   2
  -1 -11  -1  185.50    3.43   1
   1 -11   1  181.94    4.15   4
   1 -11   1  181.08    3.58   1
   2  11   1    4.91    0.53   2
  -2 -11  -1    3.43    0.54   4
  -2 -11  -1    4.43    0.55   3
   2  11   1    4.97    0.46   1
  -2  11  -1    4.30    0.48   3
  -2  11  -1    4.60    0.67   4
   3 -11   1  165.44    3.50   1
  -3 -11  -1  164.39    3.61   3
   3  11   1  165.67    3.36   2
  -3  11  -1  162.36    3.48   3
  -3  11  -1  171.90    4.13   4
  -4  11  -1    2.67    0.61   3
  -4 -11  -1    1.77    0.59   3
   4 -11   1    1.49    0.55   1
  -4  11  -1    1.53    0.67   4
   4  11   1    1.19    0.54   2
  -5  11  -1   13.22    1.14   3
  -5 -11  -1   15.51    1.19   3
   5  11   1   13.04    1.08   2
   5 -11   1   14.04    1.09   1
  -5  11  -1   11.28    1.16   4
  -6 -11  -1    8.85    1.08   3
  -6  11  -1    8.75    1.00   3
   6  11   1    9.07    1.00   2
   6 -11   1    8.03    0.98   1
   6 -12  -1    6.97    0.89   1
  -6  12   1    3.92    0.89   3
   6  12  -1    6.65    0.85   2
  -6 -12   1    6.52    0.89   3
   5  12  -1    4.72    0.76   1
  -5 -12   1    4.26    0.71   3
  -5  12   1    4.60    0.75   3
  -5 -12   1    4.19    0.75   2
   5 -12  -1    5.28    0.73   1
  -4 -12   1   31.18    1.35   2
  -4  12   1   35.92    1.41   3
   4 -12  -1   34.36    1.59   4
  -4 -12   1   34.84    1.32   3
   4 -12  -1   34.70    1.30   1
   4  12  -1   32.82    1.34   1
  -3  12   1    3.20    0.55   3
  -3 -12   1    3.51    0.58   2
   3 -12  -1    5.03    0.73   4
  -3 -12   1    4.87    0.53   3
   3  12  -1    4.44    0.57   1
   3 -12  -1    4.89    0.54   1
  -2 -12   1    3.19    0.48   1
  -2 -12   1    2.28    0.50   4
  -2 -12   1    2.56    0.46   2
  -2 -12   1    3.08    0.42   3
  -2  12   1    2.59    0.45   3
   2 -12  -1    3.07    0.42   1
   2 -12  -1    2.90    0.59   4
  -1 -12   1  182.56    3.51   1
  -1 -12   1  179.13    3.46   3
   1 -12  -1  180.63    3.40   1
  -1  12   1  178.22    3.07   2
  -1  12   1  177.51    3.54   3
  -1 -12   1  170.04    3.92   4
  -1 -12   1  178.49    3.33   2
   1 -12  -1  172.49    4.06   4
   0 -12   1  105.27    2.74   4
   0  12  -1  105.72    2.21   3
   0 -12  -1  104.15    2.72   4
   0  12   1  109.24    2.12   2
   0 -12  -1  107.56    2.39   3
   0 -12  -1  109.78    2.20   1
   0 -12   1  107.64    2.12   2
   0 -12   1  107.88    2.31   1
  -1 -12  -1    3.33    0.53   4
  -1 -12  -1    4.05    0.40   1
  -1 -12  -1    3.13    0.47   3
   1 -12   1    3.55    0.33   2
  -1  12  -1    3.91    0.41   3
   1  12   1    5.02    0.46   2
   1 -12   1    3.82    0.64   4
   1 -12   1    3.90    0.47   1
  -2 -12  -1   82.15    2.12   3
   2  12   1   83.46    1.96   2
  -2  12  -1   84.31    2.01   3
   2  12   1   79.73    1.87   1
   2 -12   1   89.03    2.09   1
  -2  12  -1   90.68    2.63   4
  -2 -12  -1   79.41    2.27   4
   3  12   1  127.83    2.78   2
   3 -12   1  128.46    2.89   1
  -3  12  -1  124.62    2.85   3
  -3 -12  -1  129.50    3.00   3
  -3  12  -1  128.23    3.46   4
   4 -12   1    0.20    0.51   1
  -4  12  -1   -0.31    0.61   4
   4  12   1   -0.44    0.51   2
  -4  12  -1    0.16    0.52   3
  -4 -12  -1    0.50    0.53   3
   5 -12   1    6.40    0.83   1
   5  12   1    5.35    0.81   2
  -5 -12  -1    4.38    0.82   3
  -5  12  -1    5.98    1.01   4
  -5  12  -1    4.28    0.79   3
  -6 -12  -1    0.40    0.78   3
   6 -12   1    0.95    0.71   1
   6  12   1   -0.46    0.70   2
   6 -13  -1   -0.07    0.64   1
  -6 -13   1    1.00    0.69   3
  -6  13   1    0.13    0.71   3
   6  13  -1    0.71    0.71   2
  -6  13   1   -0.82    0.77   4
   5  13  -1    4.14    0.77   1
  -5 -13   1    4.09    0.76   2
  -5  13   1    4.67    0.80   3
   5 -13  -1    5.07    0.75   1
  -5 -13   1    4.64    0.72   3
   4  13  -1    9.89    0.83   1
  -4 -13   1    8.18    0.81   2
  -4  13   1    9.53    0.84   3
   4 -13  -1    9.49    0.87   1
  -4 -13   1    9.20    0.76   3
   4 -13  -1    9.19    0.98   4
  -3 -13   1   49.63    1.49   3
  -3 -13   1   50.40    1.57   2
   3 -13  -1   49.19    1.46   1
   3 -13  -1   46.16    1.85   4
  -3  13   1   48.68    1.55   3
   3  13  -1   49.77    1.50   1
  -2 -13   1    0.40    0.34   3
   2 -13  -1    0.15    0.34   1
  -2 -13   1   -0.27    0.46   4
  -2 -13   1   -0.29    0.37   2
  -2  13   1    0.58    0.39   3
   2 -13  -1   -0.13    0.51   4
  -2 -13   1    0.43    0.42   1
   1 -13  -1    4.90    0.65   4
  -1  13   1    4.17    0.46   3
  -1 -13   1    4.01    0.42   3
  -1 -13   1    2.43    0.59   4
  -1 -13   1    4.21    0.47   2
  -1 -13   1    4.63    0.50   1
   1 -13  -1    4.05    0.43   1
   0  13  -1    0.09    0.26   3
   0 -13   1   -0.23    0.27   2
   0 -13   1   -0.28    0.47   4
   0  13   1   -0.63    0.27   2
   0 -13  -1    0.04    0.41   4
   0 -13   1    0.12    0.31   1
   0 -13  -1    0.16    0.26   1
   0 -13  -1    0.42    0.34   3
   1  13   1  260.40    4.71   2
  -1  13  -1  260.38    4.96   3
  -1 -13  -1  265.54    5.68   4
   1 -13   1  262.01    5.04   1
  -1 -13  -1  266.18    4.88   1
  -1 -13  -1  267.13    5.15   3
   1 -13   1  265.24    4.53   2
   1 -13   1  268.50    5.80   4
  -2 -13  -1  491.08    9.70   4
  -2  13  -1  492.13   10.00   4
  -2 -13  -1  489.68    8.97   3
  -2  13  -1  472.45    8.78   3
   2  13   1  481.82    8.31   2
   2 -13   1  478.45    8.80   1
  -3  13  -1   17.60    1.47   4
  -3 -13  -1   13.20    1.00   3
   3  13   1   14.97    0.98   2
   3 -13   1   15.36    0.96   1
  -3  13  -1   15.25    0.97   3
  -4  13  -1    0.35    0.55   3
  -4  13  -1   -0.33    0.67   4
   4 -13   1    0.30    0.53   1
  -4 -13  -1    0.17    0.55   3
   4  13   1    0.53    0.57   2
   5  13   1   -0.37    0.61   2
   5 -13   1    0.34    0.62   1
  -5  13  -1   -0.38    0.78   4
  -5  13  -1    0.00    0.64   3
  -5 -13  -1   -0.29    0.62   3
   6 -13   1   -0.31    0.70   1
   6  13   1   -0.50    0.75   2
  -6 -13  -1    0.39    0.72   3
   6 -14  -1   -0.67    0.68   1
   6  14  -1    0.11    0.70   2
  -6  14   1    0.91    0.89   4
  -6  14   1   -0.33    0.72   3
  -6 -14   1   -0.41    0.67   3
  -5 -14   1    4.67    0.81   2
  -5  14   1    7.03    0.94   4
  -5  14   1    4.00    0.79   3
   5 -14  -1    5.10    0.75   1
  -5 -14   1    4.71    0.72   3
   4 -14  -1   -0.17    0.47   1
   4  14  -1    0.61    0.57   1
   4 -14  -1   -0.53    0.65   4
  -4 -14   1    0.46    0.49   3
  -4 -14   1   -1.12    0.52   2
  -4  14   1    0.00    0.55   3
   3 -14  -1   16.28    0.92   1
   3  14  -1   15.35    0.96   1
  -3  14   1   16.29    1.00   3
   3 -14  -1   14.81    1.24   4
  -3 -14   1   13.83    0.99   2
  -3 -14   1   15.48    0.90   3
  -2 -14   1  120.68    2.66   3
  -2 -14   1  120.32    2.69   1
  -2 -14   1  126.16    3.08   4
   2 -14  -1  120.31    3.23   4
  -2 -14   1  121.23    2.63   2
   2 -14  -1  119.79    2.62   1
  -2  14   1  120.63    2.74   3
  -1 -14   1    4.93    0.55   1
  -1 -14   1    4.53    0.50   2
   1 -14  -1    7.00    0.60   1
  -1 -14   1    3.56    0.68   4
  -1 -14   1    4.96    0.50   3
   1 -14  -1    6.07    0.72   4
  -1  14   1    5.55    0.54   3
   0 -14   1   58.57    2.01   4
   0  14  -1   58.86    1.49   3
   0  14   1   60.60    1.44   2
   0 -14  -1   61.59    1.95   4
   0 -14  -1   59.43    1.47   1
   0 -14  -1   57.41    1.66   3
   0 -14   1   57.82    1.58   1
   0 -14   1   57.83    1.42   2
   1 -14   1  139.96    3.05   1
  -1 -14  -1  143.02    3.15   3
  -1 -14  -1  147.30    2.93   1
   1 -14   1  143.86    3.65   4
   1  14   1  148.05    2.90   2
  -1  14  -1  138.84    2.97   3
  -1 -14  -1  144.02    3.50   4
  -2  14  -1    3.97    0.76   4
   2 -14   1    3.81    0.59   1
  -2  14  -1    3.58    0.53   3
  -2 -14  -1    2.86    0.58   3
   2  14   1    3.58    0.56   2
  -2 -14  -1    3.95    0.62   4
   3 -14   1    0.34    0.49   1
  -3  14  -1    1.03    0.70   4
  -3 -14  -1    0.16    0.47   3
  -3  14  -1   -0.27    0.46   3
   3  14   1    0.12    0.49   2
   4 -14   1   16.44    1.10   1
   4  14   1   17.52    1.14   2
  -4  14  -1   16.82    1.19   3
  -4  14  -1   18.19    1.61   4
  -4 -14  -1   17.65    1.16   3
   5  14   1    2.24    0.74   2
   5 -14   1    4.36    0.79   1
  -5 -14  -1    3.31    0.79   3
  -5  14  -1    2.90    0.99   4
  -6  15   1    0.24    0.77   3
   6  15  -1    1.24    0.76   2
   6 -15  -1    0.28    0.70   1
  -6 -15   1    1.24    0.72   3
  -6  15   1    1.25    0.95   4
  -5 -15   1    0.54    0.60   3
  -5  15   1    3.08    0.86   4
  -5  15   1    0.68    0.68   3
  -5 -15   1    0.91    0.69   2
   5 -15  -1    1.31    0.61   1
   4  15  -1    8.97    0.86   1
   4 -15  -1    8.90    0.79   1
   4 -15  -1    6.38    0.97   4
  -4 -15   1    8.73    0.79   3
  -4 -15   1    7.28    0.85   2
  -4  15   1    7.35    0.84   3
   3 -15  -1   10.95    1.04   4
   3  15  -1   12.37    0.93   1
   3 -15  -1   13.13    0.87   1
  -3 -15   1   12.05    0.86   3
  -3 -15   1   12.84    0.99   2
  -3  15   1   10.34    0.91   3
   3  15  -1   11.82    0.81   5
   2 -15  -1    0.54    0.60   4
  -2 -15   1    0.07    0.45   2
  -2  15   1   -0.09    0.43   3
  -2 -15   1   -0.74    0.54   4
   2 -15  -1    0.19    0.38   1
  -2 -15   1    0.20    0.41   3
  -2 -15   1   -0.32    0.44   1
  -1 -15   1    8.47    0.89   4
  -1 -15   1    9.18    0.85   3
  -1 -15   1    8.46    0.69   1
  -1 -15   1    8.70    0.75   2
  -1  15   1    8.86    0.68   3
   1 -15  -1    9.18    0.89   4
   1 -15  -1    8.83    0.67   1
   0 -15   1   41.04    1.79   4
   0  15   1   42.71    1.23   2
   0 -15  -1   44.23    1.26   1
   0  15  -1   42.02    1.27   3
   0 -15   1   41.98    1.37   1
   0 -15   1   41.88    1.20   2
   0 -15  -1   44.86    1.72   4
   0  15   1   43.27    1.39   3
   1 -15   1   64.96    1.79   1
  -1  15  -1   65.05    1.70   3
  -1 -15  -1   70.14    1.73   1
  -1 -15  -1   68.12    2.11   4
   1 -15   1   58.89    2.22   4
   1  15   1   64.10    1.70   2
  -1 -15  -1   64.58    1.84   3
  -2 -15  -1   26.23    1.34   4
  -2  15  -1   26.00    1.66   4
  -2  15  -1   25.38    1.11   3
   2  15   1   24.25    1.11   2
   2 -15   1   26.00    1.14   1
  -2 -15  -1   27.24    1.20   3
  -3  15  -1    4.69    0.91   4
   3  15   1    4.10    0.66   2
  -3 -15  -1    4.38    0.68   3
   3 -15   1    3.91    0.66   1
   4 -15   1   11.38    1.03   1
  -4 -15  -1   10.81    0.98   3
   4  15   1   10.86    0.94   2
  -4  15  -1   13.08    1.28   4
   5  15   1    8.88    0.94   2
  -5  15  -1    5.81    1.16   4
  -5 -15  -1    8.39    0.98   3
   5 -15   1    9.72    0.97   1
  -5  16   1    6.81    1.09   4
  -5 -16   1    4.86    0.91   2
  -5 -16   1    5.23    0.81   3
  -5  16   1    5.23    0.90   3
   5 -16  -1    7.28    0.85   1
  -4  16   1   -0.02    0.60   3
   4 -16  -1    0.23    0.52   1
   4  16  -1   -0.25    0.59   1
  -4 -16   1    0.52    0.51   3
  -4 -16   1   -0.22    0.61   2
   4 -16  -1   -0.66    0.68   4
  -3 -16   1    1.38    0.50   3
   3  16  -1    1.32    0.55   1
  -3 -16   1    1.17    0.59   2
   3  16  -1    1.34    0.49   5
   3 -16  -1    1.80    0.54   1
  -3  16   1    1.26    0.55   3
   3 -16  -1    1.87    0.76   4
  -2 -16   1   29.74    1.66   4
   2 -16  -1   31.03    1.15   1
  -2 -16   1   31.47    1.22   3
  -2  16   1   29.66    1.26   3
  -2 -16   1   29.30    1.27   1
   2 -16  -1   29.78    1.59   4
  -2 -16   1   31.18    1.25   2
  -1 -16   1   65.93    1.76   3
  -1  16   1   62.04    1.77   3
  -1 -16   1   63.01    1.78   1
   1 -16  -1   61.24    2.17   4
  -1 -16   1   60.77    1.66   2
   1 -16  -1   62.58    1.65   1
  -1 -16   1   60.35    2.22   4
   0 -16  -1  173.77    4.22   4
   0  16  -1  171.35    3.51   3
   0 -16   1  173.50    4.26   4
   0 -16  -1  175.53    3.47   1
   0 -16   1  168.75    3.29   2
   0  16   1  174.10    3.66   3
  -1  16  -1   15.14    1.40   4
   1 -16   1    8.90    0.74   1
  -1  16  -1    8.99    0.69   3
  -1 -16  -1   11.31    1.10   4
   1  16   1    9.08    0.71   2
  -1 -16  -1   10.58    0.70   1
  -1 -16  -1    9.55    0.78   3
  -2  16  -1   29.70    1.78   4
   2 -16   1   29.51    1.24   1
  -2 -16  -1   28.34    1.27   3
   2  16   1   29.61    1.22   2
  -2 -16  -1   31.11    1.44   4
  -3  16  -1    0.75    0.78   4
   3  16   1    0.23    0.55   2
   3 -16   1    0.49    0.53   1
  -3 -16  -1    0.21    0.55   3
   4 -16   1    0.58    0.62   1
   4  16   1   -0.66    0.60   2
  -4 -16  -1    0.43    0.61   3
  -4  16  -1   -1.15    0.82   4
   5 -16   1    2.15    0.75   1
  -5 -16  -1    1.58    0.73   3
   5  16   1    1.69    0.77   2
  -5  16  -1    0.66    1.01   4
  -5 -17   1    3.60    0.90   2
  -5  17   1    4.93    1.08   4
   5 -17  -1    3.29    0.76   1
  -5  17   1    3.80    0.88   3
  -5 -17   1    3.88    0.77   3
   4 -17  -1    1.78    0.85   4
  -4 -17   1    3.15    0.76   2
  -4  17   1    1.87    0.71   3
  -4 -17   1    2.13    0.63   3
   4 -17  -1    2.33    0.63   1
   3 -17  -1    2.01    0.79   4
  -3  17   1    2.06    0.61   3
  -3 -17   1    2.67    0.68   2
   3  17  -1    2.00    0.59   1
  -3 -17   1    2.82    0.58   3
   3 -17  -1    3.16    0.59   1
   3  17  -1    1.97    0.52   5
   2 -17  -1   36.62    1.29   1
  -2  17   1   33.06    1.38   3
  -2 -17   1   36.03    1.34   3
  -2 -17   1   32.68    1.37   1
  -2 -17   1   35.19    1.36   2
   2 -17  -1   36.00    1.79   4
  -1  17   1   11.78    0.93   3
   1 -17  -1   13.94    0.89   1
   1  17  -1   14.10    0.89   3
  -1 -17   1   12.81    1.12   4
   1 -17  -1   14.02    1.28   4
  -1 -17   1   12.28    0.92   2
  -1 -17   1   13.02    1.00   1
   0  17   1   44.15    1.51   3
   0 -17   1   44.18    1.99   4
   0 -17   1   45.88    1.51   1
   0 -17  -1   48.63    1.45   1
   0 -17  -1   44.61    1.87   4
   1  17   1   15.21    0.97   2
  -1  17  -1   21.15    1.62   4
   1 -17   1   16.64    1.00   1
  -1 -17  -1   14.40    1.21   4
  -1 -17  -1   17.43    1.07   3
   2 -17   1    4.30    0.65   1
  -2 -17  -1    3.23    0.72   4
  -2  17  -1    3.92    0.89   4
  -2 -17  -1    3.67    0.63   3
   2  17   1    4.12    0.64   2
   3 -17   1    7.89    0.82   1
   3  17   1    8.11    0.82   2
  -3  17  -1   10.70    1.24   4
  -3 -17  -1    8.17    0.88   3
  -4 -17  -1    0.96    0.68   3
   4 -17   1    1.17    0.65   1
  -4  17  -1    0.71    0.95   4
   4  17   1    0.36    0.65   2
   5 -18  -1    1.28    0.72   1
  -5  18   1    2.00    0.82   3
  -5  18   1    3.22    1.07   4
  -5 -18   1    1.69    0.71   3
  -4  18   1   16.08    1.23   3
   4 -18  -1   15.62    1.49   4
  -4 -18   1   16.84    1.11   3
  -4 -18   1   15.36    1.21   2
   4 -18  -1   16.40    1.10   1
   3  18  -1    0.61    0.55   1
  -3 -18   1    1.40    0.57   3
   3 -18  -1    1.34    0.54   1
   3 -18  -1    0.54    0.75   4
  -3  18   1   -0.12    0.55   3
  -3 -18   1    0.03    0.58   2
   3  18  -1    1.18    0.51   5
  -2  18   1   20.17    1.17   3
  -2 -18   1   20.53    1.18   1
  -2 -18   1   21.89    1.11   3
  -2 -18   1   22.15    1.17   2
   2 -18  -1   21.19    1.07   1
   2 -18  -1   20.56    1.50   4
  -1 -18   1   49.43    1.66   1
  -1 -18   1   53.73    1.60   2
  -1 -18   1   55.21    2.24   4
  -1  18   1   48.80    1.66   3
   1 -18  -1   51.73    2.10   4
   1 -18  -1   53.69    1.57   1
   0  18   1    2.23    0.58   3
   0 -18  -1    3.10    0.55   1
   0 -18  -1    3.19    0.79   4
   0 -18   1    1.85    0.83   4
   0 -18   1    2.89    0.59   1
   1 -18   1    0.08    0.47   1
   1  18   1    0.13    0.46   2
  -1  18  -1    1.49    0.77   4
  -1 -18  -1    0.22    0.63   4
  -1 -18  -1    1.06    0.55   3
   2  18   1    2.11    0.59   2
  -2 -18  -1    1.65    0.66   4
  -2 -18  -1    1.20    0.58   3
  -2  18  -1    1.48    0.89   4
   2 -18   1    1.49    0.57   1
  -3  18  -1    7.14    1.20   4
   3 -18   1    6.35    0.81   1
   3  18   1    6.26    0.79   2
  -3 -18  -1    6.08    0.82   3
   4 -18   1    0.73    0.65   1
  -4 -18  -1    1.98    0.74   3
   4  18   1    1.70    0.71   2
  -4  18  -1    0.00    0.99   4
  -4 -19   1    3.30    0.74   3
  -4  19   1    1.74    0.78   3
  -4 -19   1    2.07    0.78   2
   4 -19  -1    2.64    0.69   1
   4 -19  -1    3.30    1.00   4
   3 -19  -1   27.07    1.26   1
  -3 -19   1   25.88    1.34   2
  -3 -19   1   28.16    1.33   3
  -3  19   1   27.81    1.36   3
   3 -19  -1   27.66    1.73   4
  -2 -19   1    9.42    0.85   2
  -2 -19   1    9.92    0.81   3
   2 -19  -1   10.09    0.87   1
  -2  19   1    9.69    0.87   3
   2 -19  -1    9.27    1.08   4
   1 -19  -1   40.08    1.96   4
  -1 -19   1   39.83    1.54   1
  -1 -19   1   42.66    1.48   2
  -1  19   1   39.50    1.52   3
   1 -19  -1   42.53    1.43   1
   1  19  -1   51.12    2.04   4
   0 -19  -1   12.13    1.14   4
   0  19   1   13.23    1.01   3
   0 -19   1   14.53    1.02   1
   1 -19   1    4.12    0.66   1
  -1  19  -1    7.05    1.05   4
  -1 -19  -1    3.30    0.67   3
  -1 -19  -1    4.67    0.85   4
   2 -19   1    1.21    0.58   1
  -2 -19  -1    0.76    0.59   3
  -2  19  -1    1.06    0.94   4
   2  19   1    0.32    0.54   2
   3 -19   1    6.01    0.85   1
   3  19   1    6.61    0.82   2
  -3  19  -1    7.93    1.32   4
  -3 -19  -1    6.16    0.86   3
  -4  19  -1    4.30    1.26   4
   4  19   1    5.59    0.88   2
   4 -19   1    4.36    0.84   1
  -4 -19  -1    5.23    0.90   3
   4 -20  -1   10.35    0.96   1
  -4 -20   1    8.94    0.94   3
  -4  20   1    8.97    1.05   3
   4 -20  -1    6.06    1.18   4
  -4 -20   1    7.89    1.04   2
   3 -20  -1    4.17    0.75   1
   3 -20  -1    5.23    1.05   4
  -3 -20   1    4.94    0.79   3
  -3 -20   1    4.64    0.81   2
  -3  20   1    3.44    0.77   3
   2  20  -1    1.27    0.53   1
   2  20  -1    0.14    0.44   5
  -2 -20   1   -0.53    0.57   2
  -2  20   1   -0.22    0.56   3
   2 -20  -1   -0.74    0.71   4
   2 -20  -1    0.24    0.50   1
   1 -20  -1   -0.25    0.46   1
   1 -20  -1   -0.07    0.72   4
   1  20  -1    1.22    0.69   4
  -1  20   1    0.48    0.55   3
  -1 -20   1   -0.74    0.54   1
   0 -20  -1   51.01    2.17   4
   0  20   1   50.83    1.77   3
   0  20  -1   61.07    2.47   4
   0 -20   1   51.73    1.75   1
   1 -20   1   18.90    1.10   1
  -1 -20  -1   18.98    1.19   3
  -1  20  -1   22.96    1.87   4
  -1 -20  -1   18.23    1.46   4
   2 -20   1    1.11    0.59   1
  -2  20  -1    1.79    1.05   4
   2  20   1    0.28    0.59   2
  -2 -20  -1    0.87    0.64   3
  -3 -20  -1    0.16    0.63   3
   3  20   1   -0.83    0.61   2
   3 -20   1   -0.70    0.62   1
  -3  20  -1   -0.79    1.04   4
   4 -21  -1    5.79    0.88   1
   4  21  -1    9.06    0.94   2
   4 -21  -1    5.26    1.16   4
   3 -21  -1   18.33    1.61   4
  -3 -21   1   17.69    1.27   2
   3 -21  -1   18.39    1.25   1
  -3  21   1   17.50    1.27   3
  -2 -21   1   13.22    1.01   2
  -2  21   1   11.49    1.04   3
   2 -21  -1   11.35    1.26   4
   2 -21  -1   10.80    0.95   1
  -1 -21   1    3.11    0.72   1
  -1  21   1    2.99    0.69   3
   1  21  -1    6.23    0.97   4
   1 -21  -1    3.70    0.93   4
   0  21  -1    2.45    0.91   4
   0 -21  -1   -0.38    0.73   4
   0 -21   1    0.10    0.58   1
   0  21   1    0.76    0.57   3
   1  21   1   20.75    1.21   3
  -1  21  -1   22.08    1.97   4
   1 -21   1   18.51    1.13   1
  -1 -21  -1   17.18    1.44   4
  -2  21  -1    1.33    1.11   4
   2 -21   1    0.18    0.59   1
  -2 -21  -1    1.07    0.68   3
  -3  21  -1    3.91    1.30   4
   3  21   1    2.72    0.76   2
  -3 -21  -1    4.10    0.86   3
   3 -21   1    3.61    0.79   1
   3 -22  -1    0.08    0.90   4
   3 -22  -1    0.45    0.67   1
  -2  22   1    5.33    0.80   3
   2 -22  -1    4.60    0.73   1
   2 -22  -1    5.52    1.05   4
  -1 -22   1    7.93    0.91   1
   1  22  -1   10.94    1.22   4
   1 -22  -1    5.73    1.05   4
  -1  22   1    8.28    0.88   3
   0 -22   1   -0.43    0.59   1
   0 -22  -1   -0.01    0.79   4
   0  22   1    0.33    0.59   3
   0  22  -1    0.47    0.91   4
   1 -22   1    1.99    0.68   1
  -1  22  -1    3.69    1.19   4
  -1 -22  -1    2.00    0.90   4
   1  22   1    3.50    0.71   3
   2 -22   1   10.98    1.01   1
  -2  22  -1   14.13    1.68   4
  -2 -22  -1   11.31    1.08   3
   2 -23  -1    2.29    0.97   4
   1 -23  -1    1.41    0.87   4
  -1 -23   1   -0.22    0.69   1
   0 -23   1   13.39    1.19   1
   0 -23  -1   12.56    1.33   4
   0  23   1   11.66    1.09   3
   0  23  -1   18.76    1.67   4
  -1  23  -1   15.43    1.69   4
   1 -23   1   12.17    1.05   1
  -1 -23  -1   10.86    1.26   4
   1  23   1   11.58    1.03   3
   0  24  -1    0.74    1.13   4
   0 -24  -1   -0.14    0.88   4
   0 -24   1   -0.44    0.68   1
  -8   0   2    0.80    0.79   3
   8   0  -2    1.55    0.82   1
  -7   0   2   -0.20    0.70   3
   7   0  -2    0.23    0.70   1
  -6   0   2   39.94    1.66   3
   6   0  -2   42.24    1.65   1
   5   0  -2   -0.80    0.56   1
  -5   0   2    0.05    0.41   2
  -5   0   2   -0.77    0.52   3
  -4   0   2  233.15    4.15   2
   4   0  -2  237.19    4.47   1
  -4   0   2  227.82    4.51   3
  -3   0   2    0.09    0.19   2
   3   0  -2   -0.09    0.19   4
   3   0  -2   -0.12    0.28   1
   2   0  -2 2357.50   39.46   1
  -2   0   2 2353.27   39.85   3
  -2   0   2 2265.39   37.12   2
   2   0  -2 2350.59   43.51   4
  -1   0   2    0.18    0.15   2
   1   0  -2    0.12    0.15   1
   1   0  -2   -0.50    0.26   4
   1   0  -2   -0.06    0.13   5
   1   0   2   -0.03    0.14   1
   1   0   2    0.08    0.19   2
  -1   0  -2   -0.23    0.17   3
  -1   0  -2    0.06    0.28   4
  -2   0  -2   11.04    0.64   3
   2   0   2   10.67    0.53   1
  -2   0  -2   10.81    0.82   4
   2   0   2   11.32    0.61   2
  -3   0  -2   -0.25    0.42   4
   3   0   2    0.13    0.30   2
   3   0   2    0.12    0.32   1
  -3   0  -2    0.39    0.38   3
  -4   0  -2   10.76    0.93   3
   4   0   2   11.48    0.81   2
   4   0   2   10.35    0.79   1
  -4   0  -2    9.59    0.81   4
   5   0   2    0.45    0.53   2
  -5   0  -2   -0.07    0.56   3
   5   0   2    1.22    0.52   1
  -6   0  -2   10.85    1.07   3
  -8   1   2    0.56    0.80   3
   8   1  -2    1.39    0.86   1
  -8  -1   2    0.78    0.80   3
   8  -1  -2    1.69    0.79   1
   7   1  -2    0.89    0.75   1
  -7   1   2    2.29    0.77   3
  -7  -1   2    2.80    0.80   3
   7  -1  -2    1.90    0.75   1
  -6  -1   2   49.67    1.84   3
   6  -1  -2   54.42    1.82   1
   6   1  -2   52.51    1.81   1
  -6   1   2   51.79    1.86   3
  -6  -1   2   51.87    1.64   2
  -5   1   2   47.51    1.63   3
   5  -1  -2   47.79    1.60   1
  -5   1   2   46.02    1.36   2
  -5  -1   2   46.63    1.43   2
  -5  -1   2   48.90    1.61   3
   5   1  -2   48.24    1.62   1
  -4   1   2   25.74    0.86   2
  -4  -1   2   26.84    0.92   2
   4  -1  -2   24.70    1.06   1
   4   1  -2   24.41    1.05   1
   4  -1  -2   25.67    0.87   4
  -4  -1   2   24.85    1.01   3
  -4   1   2   25.48    1.02   3
  -3  -1   2    0.46    0.23   2
   3   1  -2    0.33    0.21   4
  -3   1   2    0.58    0.21   2
  -3  -1   2    0.68    0.27   3
   3   1  -2    0.67    0.34   1
   3  -1  -2    0.63    0.24   4
   3  -1  -2    1.05    0.33   1
  -3   1   2    0.19    0.27   3
   2  -1  -2  267.27    5.31   4
  -2  -1   2  273.51    4.84   3
  -2  -1   2  268.60    4.56   2
  -2   1   2  269.05    4.51   2
   2  -1  -2  267.00    4.83   1
  -2   1   2  272.48    4.87   3
   2   1  -2  271.07    5.26   4
   2   1  -2  269.83    4.85   1
  -1   1   2 4376.57   69.17   2
  -1  -1   2 4449.67   74.89   3
   1   1  -2 4305.95   60.86   5
   1   1  -2 4317.78   80.98   4
   1   1  -2 4369.64   73.54   1
   1  -1  -2 4392.86   80.98   4
   1  -1  -2 4332.66   73.69   1
  -1   1   2 4298.92   74.30   3
  -1  -1   2 4356.99   69.13   2
   0   1  -2  297.21    5.93   4
   0   1   2  299.24    5.01   2
   0  -1  -2  307.95    5.32   3
   0  -1   2  303.02    5.25   1
   0  -1  -2  298.04    5.93   4
   0   1   2  298.58    5.23   1
   0   1  -2  299.49    5.28   3
   0  -1   2  305.41    5.01   2
  -1   1  -2  204.35    4.26   4
  -1  -1  -2  203.99    4.23   4
   1  -1   2  208.48    3.57   2
  -1   1  -2  208.82    3.78   3
  -1  -1  -2  207.56    3.81   3
   1   1   2  206.48    3.59   2
   1   1   2  205.96    3.66   1
   1  -1   2  207.40    3.70   1
   2   1   2    5.10    0.36   1
  -2  -1  -2    4.88    0.50   4
  -2   1  -2    4.47    0.41   3
  -2   1  -2    4.63    0.50   4
   2   1   2    4.69    0.39   2
  -2  -1  -2    5.53    0.43   3
   2  -1   2    4.93    0.37   1
   2  -1   2    4.86    0.37   2
  -3   1  -2   25.66    1.05   3
  -3  -1  -2   26.70    1.06   3
  -3  -1  -2   27.02    1.18   4
  -3   1  -2   27.53    1.27   4
   3  -1   2   26.54    0.94   1
   3  -1   2   28.00    0.94   2
   3   1   2   27.84    0.98   2
   3   1   2   25.71    0.94   1
  -4  -1  -2   17.71    1.05   3
  -4   1  -2   14.24    1.19   4
   4   1   2   16.53    0.91   2
   4  -1   2   18.18    0.91   2
  -4  -1  -2   15.85    1.04   4
   4  -1   2   17.33    0.90   1
  -4   1  -2   14.87    1.05   3
   4   1   2   16.45    0.92   1
   5   1   2    4.09    0.63   2
  -5   1  -2    3.64    0.71   3
   5  -1   2    3.46    0.62   2
   5  -1   2    3.84    0.63   1
  -5  -1  -2    3.33    0.70   3
   5   1   2    4.13    0.61   1
   6  -1   2    6.37    0.81   1
  -6   1  -2    8.19    0.98   3
   6   1   2    5.99    0.83   2
  -6  -1  -2    6.54    0.93   3
  -8   2   2    2.68    0.93   3
   8   2  -2    2.63    0.91   1
   8  -2  -2    6.54    0.94   1
  -8  -2   2    3.01    0.89   3
   7   2  -2    1.50    0.57   2
  -7  -2   2    0.74    0.69   3
  -7   2   2    1.21    0.77   3
   7  -2  -2    1.39    0.74   1
   7   2  -2    0.68    0.76   1
  -6   2   2    6.92    0.85   3
  -6  -2   2    5.82    0.86   3
   6  -2  -2    5.88    0.85   1
   6   2  -2    6.61    0.86   1
  -6  -2   2    5.33    0.73   2
  -5  -2   2   -0.29    0.53   3
  -5   2   2    0.68    0.53   3
   5   2  -2    2.02    0.65   1
  -5  -2   2   -0.42    0.47   2
  -5   2   2   -0.53    0.38   2
   5  -2  -2   -0.11    0.59   1
  -4   2   2   46.39    1.15   2
   4   2  -2   46.22    1.40   1
  -4  -2   2   45.61    1.26   2
  -4   2   2   46.79    1.39   3
   4  -2  -2   45.94    1.29   4
   4  -2  -2   46.90    1.40   1
  -4  -2   2   46.88    1.38   3
  -3  -2   2  385.95    6.56   2
   3   2  -2  384.91    6.97   1
  -3  -2   2  391.59    6.99   3
  -3   2   2  387.96    6.45   2
   3  -2  -2  393.84    7.58   4
   3  -2  -2  392.13    6.94   1
  -3   2   2  385.65    7.03   3
  -2  -2   2   74.58    1.50   2
  -2  -2   2   74.17    1.51   3
  -2   2   2   74.44    1.40   2
   2  -2  -2   73.25    1.74   4
  -2   2   2   75.27    1.59   3
   2   2  -2   74.07    1.66   4
   2  -2  -2   74.48    1.56   1
   2   2  -2   76.55    1.61   1
   1  -2  -2   88.91    2.05   4
   1   2  -2   91.73    2.04   4
  -1  -2   2   92.28    1.78   1
  -1   2   2   90.85    1.77   3
   1  -2  -2   90.97    1.72   1
  -1   2   2   91.61    1.67   2
  -1  -2   2   92.55    1.71   2
   0  -2   2  780.19   12.38   2
   0   2  -2  754.02   13.34   3
   0  -2  -2  782.63   13.26   3
   0  -2   2  772.38   13.10   1
   0  -2  -2  753.78   14.54   4
   0   2   2  773.14   12.38   2
   0   2  -2  750.17   14.53   4
  -1  -2  -2   75.01    1.84   4
  -1   2  -2   75.30    1.56   3
  -1  -2  -2   73.52    1.62   3
   1   2   2   73.91    1.43   1
   1  -2   2   77.50    1.51   2
   1  -2   2   76.10    1.54   1
  -1   2  -2   74.23    1.90   4
   1   2   2   74.85    1.55   2
   2   2   2  411.57    6.93   2
  -2  -2  -2  418.01    7.45   3
  -2   2  -2  412.79    8.16   4
   2   2   2  412.10    7.20   1
   2  -2   2  411.67    7.28   1
   2  -2   2  414.53    6.88   2
  -2  -2  -2  405.60    8.09   4
  -2   2  -2  409.21    7.39   3
   3  -2   2  134.88    2.59   2
   3   2   2  132.89    2.66   2
  -3   2  -2  133.49    3.15   4
   3   2   2  132.66    2.67   1
  -3   2  -2  134.27    2.85   3
   3  -2   2  132.06    2.74   1
  -3  -2  -2  134.69    3.05   4
  -3  -2  -2  133.29    2.89   3
  -4   2  -2  146.77    3.25   3
   4  -2   2  143.17    2.88   2
   4   2   2  144.60    2.97   2
   4  -2   2  145.62    3.08   1
  -4   2  -2  144.66    3.47   4
  -4  -2  -2  146.47    3.27   3
   4   2   2  146.13    3.03   1
   5   2   2    5.35    0.70   2
  -5   2  -2    5.57    0.79   3
   5  -2   2    5.19    0.64   2
  -5  -2  -2    6.46    0.80   3
   5  -2   2    6.10    0.71   1
  -6  -2  -2    0.99    0.73   3
   6   2   2    1.22    0.69   2
   6  -2   2    0.64    0.62   1
  -6   2  -2    0.40    0.70   3
   8   3  -2    1.46    0.86   1
  -8  -3   2    1.42    0.86   3
   8  -3  -2    3.07    0.84   1
  -8   3   2    1.35    0.87   3
  -7   3   2   -1.30    0.66   3
   7   3  -2    0.05    0.72   1
   7  -3  -2    0.66    0.69   1
  -7  -3   2    0.81    0.69   3
   6  -3  -2   -1.05    0.63   1
  -6  -3   2   -0.42    0.55   2
  -6  -3   2   -0.80    0.62   3
  -6   3   2    0.71    0.63   3
   6   3  -2   -0.20    0.62   1
   5  -3  -2  143.55    3.18   1
   5   3  -2  145.04    3.19   1
  -5  -3   2  142.85    3.02   2
  -5  -3   2  145.60    3.28   3
  -5   3   2  147.49    3.26   3
  -4   3   2   48.30    1.16   2
   4  -3  -2   48.80    1.41   4
  -4   3   2   50.63    1.46   3
   4   3  -2   49.11    1.46   1
   4  -3  -2   48.50    1.43   1
  -4  -3   2   50.93    1.44   3
  -4  -3   2   49.03    1.35   2
   3   3  -2   88.26    1.97   1
  -3  -3   2   90.26    1.86   2
   3  -3  -2   87.46    1.92   1
   3  -3  -2   88.38    2.09   4
  -3  -3   2   90.83    1.93   3
  -3   3   2   87.32    1.68   2
  -3   3   2   87.65    1.97   3
  -2   3   2  359.16    6.27   3
   2  -3  -2  354.61    6.88   4
   2  -3  -2  350.56    6.16   1
  -2   3   2  348.50    5.74   2
   2   3  -2  344.06    6.21   1
  -2  -3   2  344.44    6.18   3
  -2  -3   2  349.68    5.88   2
   2   3  -2  349.35    6.75   4
  -1   3   2   55.62    1.19   3
   1   3  -2   55.67    1.40   4
  -1  -3   2   55.30    1.16   2
  -1   3   2   54.39    1.11   2
   1  -3  -2   56.06    1.12   1
   1  -3  -2   56.26    1.47   4
  -1  -3   2   56.97    1.22   1
   0  -3  -2   97.91    2.20   4
   0   3   2   95.47    1.81   2
   0   3  -2   93.76    2.20   4
   0  -3  -2   96.28    1.92   3
   0  -3   2   95.82    1.79   2
   0  -3   2   99.80    1.88   1
   1   3   2  164.23    2.93   1
  -1  -3  -2  166.49    3.17   3
   1  -3   2  164.28    3.08   1
   1  -3   2  163.48    2.92   2
  -1   3  -2  167.42    3.07   3
  -1   3  -2  165.07    3.56   4
  -1  -3  -2  166.41    3.50   4
  -2  -3  -2  139.93    3.09   4
   2   3   2  142.37    2.70   2
   2   3   2  139.57    2.63   1
  -2   3  -2  140.57    2.80   3
  -2   3  -2  140.02    3.20   4
   2  -3   2  142.68    2.60   2
  -2  -3  -2  140.57    2.87   3
   2  -3   2  136.89    2.75   1
  -3   3  -2   13.51    0.84   3
   3  -3   2   15.44    0.80   1
  -3   3  -2   16.69    1.18   4
   3  -3   2   15.57    0.76   2
  -3  -3  -2   16.59    0.90   3
   3   3   2   15.07    0.74   1
   3   3   2   15.98    0.84   2
  -3  -3  -2   16.60    0.97   4
  -4   3  -2    4.95    0.66   3
   4  -3   2    4.82    0.61   1
   4   3   2    5.54    0.61   2
   4   3   2    4.64    0.56   1
  -4   3  -2    3.97    0.70   4
   4  -3   2    3.99    0.52   2
  -4  -3  -2    5.29    0.69   3
  -5   3  -2   19.93    1.24   3
  -5  -3  -2   20.18    1.26   3
   5  -3   2   20.87    1.13   1
   5  -3   2   20.15    1.07   2
   5   3   2   18.28    1.11   2
  -6   3  -2   11.40    1.07   3
   6   3   2   10.01    0.93   2
   6  -3   2   12.41    1.10   1
  -6  -3  -2    7.80    1.05   3
   7  -4  -2    4.78    0.83   1
  -7   4   2    4.07    0.87   3
  -7  -4   2    4.78    0.80   2
  -7  -4   2    5.28    0.89   3
   7   4  -2    4.44    0.89   1
  -6  -4   2   53.04    1.73   2
   6  -4  -2   51.09    1.81   1
   6   4  -2   53.31    1.79   1
  -6   4   2   56.46    1.90   3
   5   4  -2   85.97    2.18   1
   5  -4  -2   80.47    2.20   1
  -5  -4   2   82.97    2.07   2
  -5   4   2   85.81    2.22   3
  -5  -4   2   81.97    2.23   3
  -4   4   2    1.05    0.27   2
  -4   4   2    1.70    0.45   3
   4   4  -2    1.94    0.50   1
  -4  -4   2    0.85    0.39   2
   4  -4  -2    1.15    0.40   4
   4  -4  -2    0.52    0.47   1
  -4  -4   2    1.32    0.44   3
   3   4  -2   84.33    1.94   1
  -3  -4   2   83.36    1.84   2
  -3   4   2   85.82    1.95   3
   3  -4  -2   86.69    2.10   4
  -3   4   2   86.63    1.62   2
   3  -4  -2   87.24    1.90   1
  -3  -4   2   86.86    1.90   3
   2  -4  -2  262.32    4.66   1
  -2   4   2  262.67    4.77   3
   2  -4  -2  254.94    5.26   4
  -2   4   2  259.43    4.31   2
  -2  -4   2  264.52    4.51   2
   2   4  -2  250.87    5.09   4
  -2  -4   2  263.67    4.67   3
   2   4  -2  260.16    4.73   1
   2   4  -2  262.95    3.96   5
  -1   4   2    4.17    0.25   2
   1  -4  -2    4.86    0.35   1
  -1   4   2    4.22    0.38   3
   1   4  -2    3.85    0.33   4
   1  -4  -2    4.52    0.41   4
  -1  -4   2    4.05    0.30   1
  -1  -4   2    3.64    0.27   2
   0  -4  -2  986.96   18.80   4
   0   4   2 1001.53   15.99   2
   0  -4   2  990.94   16.98   1
   0  -4  -2  992.26   17.17   3
   0  -4   2 1000.95   15.98   2
   0   4  -2  994.33   18.79   4
  -1  -4  -2  404.62    7.19   3
   1  -4   2  399.37    6.62   2
  -1   4  -2  392.75    7.92   4
  -1  -4  -2  405.10    7.86   4
   1  -4   2  404.57    7.06   1
  -1   4  -2  395.83    7.05   3
   1   4   2  403.86    6.71   2
   2  -4   2   47.40    1.24   1
  -2  -4  -2   46.68    1.40   4
   2   4   2   45.93    1.08   1
   2   4   2   47.99    1.28   2
   2  -4   2   47.12    1.15   2
  -2   4  -2   45.84    1.57   4
  -2   4  -2   45.35    1.24   3
  -3   4  -2   51.27    1.50   3
  -3  -4  -2   54.11    1.57   4
  -3   4  -2   53.72    1.84   4
   3   4   2   52.03    1.34   1
   3  -4   2   55.37    1.34   2
   3  -4   2   51.26    1.44   1
  -3  -4  -2   55.15    1.59   3
   3   4   2   55.29    1.48   2
  -4   4  -2   32.21    1.36   3
   4   4   2   35.23    1.29   2
   4  -4   2   36.04    1.17   2
  -4   4  -2   33.33    1.65   4
  -4  -4  -2   37.98    1.45   3
   4  -4   2   38.36    1.31   1
   4   4   2   32.92    1.19   1
  -5   4  -2   25.57    1.28   3
   5   4   2   23.60    1.20   2
  -5  -4  -2   25.44    1.39   3
   5  -4   2   24.98    1.20   1
  -6   4  -2    1.04    0.71   3
   6   4   2    0.58    0.67   2
   6  -4   2   -0.06    0.63   1
  -6  -4  -2   -0.86    0.73   3
   7  -5  -2   26.23    1.41   1
  -7   5   2   24.53    1.44   3
   7   5  -2   25.81    1.47   1
  -7  -5   2   22.80    1.35   2
   6  -5  -2   13.49    1.15   1
  -6  -5   2   14.64    1.06   2
  -6   5   2   17.06    1.18   3
  -6  -5   2   13.52    1.16   3
   6   5  -2   17.53    1.17   1
  -5  -5   2    4.07    0.69   3
   5  -5  -2    4.47    0.71   1
  -5   5   2    6.94    0.71   3
  -5  -5   2    5.71    0.64   2
   5   5  -2    6.30    0.72   1
  -4   5   2    0.10    0.38   3
  -4  -5   2   -0.10    0.37   3
   4  -5  -2   -0.16    0.36   4
   4   5  -2    1.27    0.50   1
   4  -5  -2    0.23    0.46   1
  -4  -5   2   -0.12    0.36   2
  -3  -5   2   25.35    0.91   2
  -3   5   2   25.23    0.96   3
   3  -5  -2   27.47    1.06   4
  -3   5   2   24.14    0.65   2
   3  -5  -2   26.02    1.00   1
  -3  -5   2   24.18    0.89   3
   3   5  -2   24.67    0.95   1
  -2   5   2 1571.47   25.06   2
  -2  -5   2 1589.71   26.90   3
  -2   5   2 1572.06   26.96   3
   2   5  -2 1544.51   22.13   5
   2  -5  -2 1595.74   26.64   1
  -2  -5   2 1603.66   25.19   2
   2   5  -2 1530.76   26.69   1
   2   5  -2 1531.14   29.33   4
   2  -5  -2 1579.94   29.49   4
   1  -5  -2   40.94    0.87   1
  -1   5   2   39.03    1.00   3
   1  -5  -2   40.60    1.22   4
  -1  -5   2   40.69    0.96   2
  -1   5   2   39.35    0.88   2
  -1  -5   2   39.71    1.01   1
   1   5  -2   39.47    1.16   4
   0   5  -2  910.72   17.36   4
   0  -5  -2  938.03   17.39   4
   0  -5  -2  917.11   15.87   3
   0  -5   2  911.68   15.68   1
   0  -5   2  903.45   14.74   2
   0   5   2  913.43   14.76   2
  -1  -5  -2 1931.09   33.13   3
  -1   5  -2 1901.83   36.19   4
   1   5   2 1957.04   30.87   2
  -1  -5  -2 1948.62   36.15   4
   1  -5   2 1935.84   30.80   2
   1  -5   2 1911.93   32.75   1
  -1   5  -2 1930.25   33.04   3
   2   5   2  108.82    2.20   2
  -2   5  -2  104.59    2.64   4
   2  -5   2  104.21    2.23   1
  -2   5  -2  104.07    2.22   3
   2  -5   2  107.09    2.05   2
   2   5   2  104.69    2.04   1
  -2  -5  -2  104.86    2.47   4
  -2  -5  -2  107.75    2.38   3
  -3  -5  -2   30.50    1.24   3
  -3   5  -2   21.93    1.14   3
   3   5   2   30.28    1.14   2
   3  -5   2   28.46    0.96   2
  -3  -5  -2   27.77    1.18   4
  -3   5  -2   26.77    1.48   4
   3  -5   2   31.14    1.11   1
   4  -5   2   47.49    1.35   2
  -4  -5  -2   51.34    1.71   3
  -4   5  -2   46.44    1.93   4
  -4   5  -2   46.91    1.62   3
   4  -5   2   50.27    1.55   1
  -5  -5  -2   -0.02    0.63   3
   5  -5   2   -0.05    0.54   1
   5   5   2    0.43    0.57   2
  -5   5  -2    0.06    0.52   3
  -6   5  -2   12.79    1.12   3
  -6  -5  -2   13.07    1.23   3
   6   5   2   13.65    1.07   2
   6  -5   2   13.56    1.15   1
  -7  -6   2    6.63    0.88   2
   7   6  -2    7.85    0.98   1
   7  -6  -2    7.93    0.94   1
  -7   6   2    7.20    0.97   3
  -7  -6   2    6.61    0.94   3
  -6  -6   2   11.72    0.90   2
   6  -6  -2   12.33    0.98   1
  -6   6   2   12.64    1.09   3
  -6  -6   2   11.49    0.96   3
   6   6  -2   14.22    1.12   1
   5  -6  -2   22.23    1.16   1
  -5  -6   2   23.10    1.16   3
  -5  -6   2   23.88    1.12   2
   5   6  -2   21.54    1.15   1
  -5   6   2   23.85    1.17   3
   4   6  -2   98.87    2.33   1
   4  -6  -2   98.53    2.50   4
  -4   6   2  102.08    2.36   3
   4  -6  -2   98.63    2.29   1
  -4  -6   2   99.78    2.30   3
  -4  -6   2   98.95    2.23   2
  -3   6   2  205.38    4.02   3
  -3  -6   2  209.98    3.94   3
   3  -6  -2  205.40    3.92   1
   3  -6  -2  209.21    4.43   4
   3   6  -2  203.43    3.97   1
  -3  -6   2  202.24    3.80   2
   2   6  -2  681.54    9.86   5
  -2   6   2  679.56   11.96   3
   2   6  -2  665.53   12.92   4
   2   6  -2  678.05   11.84   1
   2  -6  -2  689.67   13.16   4
  -2  -6   2  685.92   11.84   3
  -2   6   2  671.08   10.98   2
   2  -6  -2  698.93   11.77   1
  -2  -6   2  685.50   11.22   2
   1  -6  -2   44.68    0.94   1
  -1  -6   2   43.58    1.13   1
  -1   6   2   43.65    1.12   3
  -1   6   2   42.13    0.97   2
   1  -6  -2   45.13    1.35   4
   1   6  -2   44.18    1.29   4
  -1  -6   2   45.46    1.06   2
   0  -6  -2 1624.56   30.50   4
   0   6   2 1627.99   25.96   2
   0  -6   2 1651.11   27.61   1
   0   6  -2 1589.89   30.48   4
   0  -6   2 1634.32   25.96   2
   0  -6  -2 1618.18   27.91   3
  -1   6  -2 1220.24   23.71   4
  -1  -6  -2 1260.98   23.66   4
  -1   6  -2 1270.66   21.54   3
   1  -6   2 1261.94   21.42   1
   1  -6   2 1253.88   20.09   2
  -1  -6  -2 1244.32   21.68   3
   1   6   2 1260.36   20.19   2
  -2  -6  -2   62.72    1.76   4
   2  -6   2   62.51    1.38   2
  -2   6  -2   63.90    1.54   3
  -2  -6  -2   64.40    1.68   3
  -2   6  -2   61.11    1.96   4
   2  -6   2   67.31    1.60   1
   2   6   2   62.80    1.55   2
   2   6   2   63.56    1.35   1
  -3  -6  -2  731.37   14.08   4
  -3   6  -2  715.99   12.98   3
   3  -6   2  737.10   11.98   2
   3   6   2  733.59   12.20   2
   3  -6   2  727.86   12.88   1
  -3   6  -2  727.82   14.32   4
  -3  -6  -2  750.01   13.15   3
  -4   6  -2   37.30    1.42   3
   4  -6   2   39.03    1.40   1
  -4  -6  -2   41.08    1.58   3
  -4   6  -2   37.00    1.80   4
   5   6   2    6.54    0.80   2
  -5   6  -2    8.28    0.84   3
  -5   6  -2    7.15    0.98   4
  -5  -6  -2    9.22    0.94   3
   5  -6   2    7.89    0.83   1
  -6   6  -2    1.10    0.71   3
   6   6   2    0.72    0.71   2
  -6  -6  -2    0.34    0.77   3
   6  -6   2    0.72    0.70   1
  -7  -7   2    5.74    0.93   3
  -7   7   2    4.44    0.89   3
   7   7  -2    6.07    0.95   1
  -7  -7   2    3.31    0.82   2
   7  -7  -2    4.61    0.84   1
  -6  -7   2    2.12    0.68   3
  -6   7   2    2.04    0.68   3
   6  -7  -2    2.04    0.68   1
   6   7  -2    1.81    0.72   1
  -6  -7   2    2.84    0.66   2
  -5  -7   2   26.33    1.20   3
  -5   7   2   26.58    1.25   3
   5  -7  -2   27.17    1.27   4
  -5  -7   2   26.57    1.19   2
   5  -7  -2   25.72    1.18   1
   5   7  -2   26.64    1.25   1
  -4   7   2   51.14    1.54   3
   4   7  -2   51.49    1.53   1
  -4  -7   2   50.27    1.47   3
   4  -7  -2   47.54    1.61   4
  -4  -7   2   49.37    1.45   2
   4  -7  -2   47.96    1.48   1
   3  -7  -2   50.44    1.56   4
   3   7  -2   48.43    1.36   1
  -3  -7   2   46.87    1.33   2
  -3  -7   2   49.17    1.28   3
   3  -7  -2   47.14    1.31   1
  -3   7   2   48.27    1.37   3
   2  -7  -2  339.71    6.92   4
  -2   7   2  337.11    6.23   3
   2   7  -2  337.19    6.68   4
  -2  -7   2  347.46    5.88   2
  -2  -7   2  343.79    6.08   3
   2  -7  -2  341.88    6.06   1
  -2   7   2  346.28    5.59   2
   2   7  -2  341.16    6.17   1
   2   7  -2  340.38    5.16   5
   1  -7  -2  930.37   16.18   1
  -1  -7   2  960.34   15.40   2
  -1  -7   2  960.18   16.38   3
   1  -7  -2  961.45   18.13   4
  -1   7   2  947.84   15.27   2
   1   7  -2  947.24   18.00   4
  -1   7   2  944.58   16.49   3
  -1  -7   2  950.74   16.33   1
   0  -7   2  203.39    3.81   1
   0  -7   2  207.40    3.55   2
   0   7  -2  199.97    4.31   4
   0  -7  -2  202.00    3.89   3
   0  -7  -2  202.57    4.32   4
   0   7   2  207.36    3.56   2
  -1   7  -2  202.21    4.51   4
  -1  -7  -2  214.61    4.07   3
   1  -7   2  209.98    3.96   1
  -1  -7  -2  207.39    4.42   4
   1  -7   2  210.98    3.61   2
   1   7   2  212.33    3.75   2
  -1   7  -2  208.65    3.84   3
  -2  -7  -2   59.75    1.60   3
  -2  -7  -2   57.61    1.69   4
   2   7   2   58.36    1.51   2
  -2   7  -2   56.56    1.94   4
   2  -7   2   59.93    1.29   2
   2  -7   2   58.23    1.52   1
   2   7   2   57.06    1.27   1
  -2   7  -2   57.13    1.48   3
  -3  -7  -2   29.15    1.36   3
   3  -7   2   23.92    0.92   2
   3   7   2   27.76    1.21   2
  -3   7  -2   27.94    1.22   3
   3  -7   2   27.04    1.17   1
  -3   7  -2   29.46    1.64   4
  -3  -7  -2   20.73    1.23   4
  -4   7  -2   10.21    0.97   4
  -4  -7  -2    9.02    0.87   3
   4  -7   2   10.21    0.81   1
   4   7   2    8.50    0.77   2
  -4   7  -2   10.13    0.82   3
  -5   7  -2    2.11    0.81   4
   5  -7   2    2.60    0.69   1
   5   7   2    2.03    0.66   2
  -5  -7  -2    2.03    0.75   3
  -5   7  -2    2.90    0.69   3
  -6  -7  -2    9.32    1.13   3
   6   7   2   10.86    1.05   2
   6  -7   2   11.33    1.05   1
  -6   7  -2   10.36    1.05   3
   7  -8  -2    4.56    0.83   1
  -7   8   2    2.72    0.87   3
  -7  -8   2    3.68    0.83   3
   7   8  -2    3.39    0.89   1
  -7  -8   2    3.83    0.82   2
  -6  -8   2   24.00    1.27   3
   6   8  -2   22.86    1.30   1
   6  -8  -2   20.84    1.23   1
  -6   8   2   23.39    1.33   3
  -6  -8   2   24.68    1.28   2
  -5   8   2   33.20    1.40   3
  -5  -8   2   33.76    1.32   3
   5  -8  -2   31.90    1.43   4
  -5  -8   2   31.16    1.31   2
   5   8  -2   34.27    1.39   1
   5  -8  -2   32.37    1.30   1
   4  -8  -2   22.65    1.04   1
  -4   8   2   25.86    1.12   3
  -4  -8   2   23.37    1.01   3
  -4  -8   2   23.98    1.05   2
   4   8  -2   25.60    1.14   1
   4  -8  -2   23.52    1.18   4
   3  -8  -2   66.22    1.93   4
  -3  -8   2   65.80    1.64   2
  -3  -8   2   65.34    1.58   3
  -3   8   2   66.43    1.70   3
   3  -8  -2   65.81    1.61   1
   3   8  -2   66.97    1.67   1
  -2   8   2   90.98    2.03   3
   2   8  -2   91.42    2.15   4
  -2  -8   2   90.19    2.04   1
   2  -8  -2   93.33    2.37   4
  -2  -8   2   96.04    1.99   2
  -2  -8   2   90.70    1.87   3
   2  -8  -2   92.19    1.90   1
  -1   8   2  202.53    3.43   2
   1  -8  -2  201.33    4.32   4
  -1  -8   2  198.18    3.57   2
  -1  -8   2  202.06    3.60   3
  -1  -8   2  196.38    3.77   1
  -1   8   2  204.22    3.82   3
   1   8  -2  192.58    4.18   4
   1  -8  -2  198.30    3.58   1
   0  -8  -2   12.40    0.84   4
   0  -8  -2   13.00    0.73   3
   0  -8   2   11.82    0.68   1
   0   8   2   11.69    0.62   2
   0   8  -2   12.09    0.91   4
   0   8  -2   11.55    0.49   3
   0  -8   2   12.37    0.57   2
  -1   8  -2    0.00    0.24   3
   1  -8   2   -0.10    0.22   2
   1   8   2   -0.13    0.31   2
   1  -8   2    0.15    0.30   1
  -1  -8  -2    0.23    0.38   4
  -1   8  -2    0.14    0.39   4
  -1  -8  -2   -0.04    0.31   3
  -2   8  -2   63.34    2.16   4
   2  -8   2   70.54    1.74   1
  -2  -8  -2   72.82    1.84   3
   2   8   2   69.71    1.73   2
  -2   8  -2   68.21    1.69   3
  -2  -8  -2   71.17    1.93   4
   2  -8   2   69.50    1.45   2
   3   8   2   96.62    2.27   2
  -3  -8  -2  100.62    2.48   3
  -3  -8  -2   94.68    2.43   4
   3  -8   2   94.44    1.92   2
  -3   8  -2   94.17    2.30   3
  -3   8  -2   98.05    2.82   4
   3  -8   2   97.82    2.33   1
   4  -8   2   42.97    1.51   1
  -4   8  -2   43.60    1.53   3
   4   8   2   44.82    1.52   2
  -4   8  -2   46.31    1.93   4
  -4  -8  -2   43.77    1.66   3
   5  -8   2    5.29    0.76   1
  -5   8  -2    3.54    0.93   4
  -5   8  -2    4.49    0.76   3
  -5  -8  -2    5.16    0.87   3
   5   8   2    6.62    0.82   2
  -6  -8  -2    1.33    0.86   3
   6   8   2   -0.16    0.71   2
   6  -8   2    0.17    0.68   1
  -7  -9   2   -0.14    0.69   3
  -7   9   2    0.13    0.76   3
   7  -9  -2    0.79    0.69   1
   7   9  -2    0.06    0.79   1
  -7  -9   2   -0.99    0.62   2
  -6  -9   2    2.52    0.70   2
  -6   9   2    2.71    0.72   3
   6  -9  -2    2.62    0.68   1
  -6  -9   2    2.82    0.68   3
   6   9  -2    3.68    0.78   1
   5  -9  -2    4.09    0.70   4
   5   9  -2    3.62    0.71   1
  -5   9   2    5.03    0.71   3
   5  -9  -2    5.09    0.68   1
  -5  -9   2    5.79    0.72   2
  -5  -9   2    4.60    0.64   3
   4  -9  -2    0.24    0.43   1
  -4  -9   2    0.19    0.42   2
   4  -9  -2    0.48    0.47   4
   4   9  -2    0.22    0.49   1
  -4   9   2    0.84    0.47   3
  -4  -9   2    0.29    0.37   3
  -3  -9   2   19.04    0.82   3
  -3  -9   2   20.07    0.91   2
   3  -9  -2   19.03    0.83   1
  -3   9   2   18.57    0.92   3
   3   9  -2   19.03    0.91   1
   3  -9  -2   19.61    1.07   4
   2  -9  -2   55.52    1.74   4
  -2  -9   2   54.87    1.45   1
   2   9  -2   53.88    1.55   4
  -2   9   2   54.93    1.44   3
  -2  -9   2   57.18    1.29   3
   2  -9  -2   54.20    1.31   1
   1  -9  -2  253.13    4.51   1
  -1  -9   2  256.13    4.54   3
  -1   9   2  252.84    4.76   3
   1   9  -2  252.10    5.24   4
   1  -9  -2  253.38    5.36   4
  -1  -9   2  253.02    4.72   1
  -1   9   2  253.59    4.29   2
  -1  -9   2  252.41    4.46   2
   0  -9   2  460.29    7.65   2
   0  -9  -2  457.34    8.30   3
   0  -9  -2  465.66    7.93   1
   0   9  -2  448.97    9.12   4
   0  -9   2  453.36    8.17   1
   0   9  -2  454.30    8.03   3
   0  -9  -2  461.69    9.14   4
   0   9   2  477.36    7.65   2
  -1  -9  -2   29.82    1.09   3
   1  -9   2   26.84    1.01   1
  -1   9  -2   27.66    1.33   4
   1   9   2   26.80    0.94   2
  -1  -9  -2   26.47    1.18   4
  -1   9  -2   28.80    0.84   3
   1  -9   2   27.16    0.80   2
   2   9   2    3.76    0.58   2
  -2  -9  -2    4.36    0.57   3
  -2   9  -2    3.33    0.49   3
  -2  -9  -2    4.01    0.61   4
   2  -9   2    4.56    0.38   2
  -2   9  -2    3.01    0.70   4
   2  -9   2    4.24    0.56   1
   3  -9   2   92.03    2.23   1
  -3   9  -2   90.12    2.73   4
  -3  -9  -2   87.90    2.32   3
  -3   9  -2   88.54    2.19   3
   3   9   2   86.65    2.15   2
  -3  -9  -2   86.81    2.36   4
   4  -9   2    0.56    0.53   1
  -4  -9  -2    1.27    0.60   3
  -4   9  -2    0.77    0.67   4
  -4   9  -2    0.71    0.55   3
   4   9   2    0.66    0.56   2
  -5  -9  -2   13.42    1.10   3
  -5   9  -2   11.48    1.07   3
   5  -9   2   11.93    1.05   1
   5   9   2   13.13    1.11   2
  -5   9  -2   10.83    1.18   4
   6  -9   2    0.49    0.69   1
  -6  -9  -2    0.98    0.78   3
   6   9   2   -0.86    0.72   2
   7 -10  -2    1.73    0.75   1
  -7 -10   2    0.09    0.71   2
  -7  10   2    0.51    0.81   3
  -7 -10   2   -0.58    0.70   3
   7  10  -2   -0.47    0.81   1
  -6 -10   2    1.83    0.68   2
  -6 -10   2    3.38    0.71   3
  -6  10   2    2.75    0.76   3
   6  10  -2    3.24    0.78   1
   6 -10  -2    3.66    0.72   1
  -5 -10   2    9.50    0.85   2
   5 -10  -2   10.23    0.90   1
   5  10  -2    9.92    0.90   1
  -5 -10   2    9.78    0.90   3
   5 -10  -2    9.93    0.94   4
  -5  10   2   10.46    0.90   3
  -4  10   2    1.51    0.52   3
   4 -10  -2    2.08    0.49   1
  -4 -10   2    2.21    0.53   2
  -4 -10   2    1.61    0.44   3
   4  10  -2    1.20    0.56   1
   4 -10  -2    1.82    0.59   4
   3 -10  -2   10.97    0.72   1
   3 -10  -2   10.19    0.95   4
  -3  10   2   11.73    0.81   3
  -3 -10   2    9.58    0.78   2
   3  10  -2   11.13    0.69   5
  -3 -10   2   10.76    0.68   3
   3  10  -2    9.87    0.77   1
  -2 -10   2   65.89    1.47   3
  -2 -10   2   65.18    1.60   2
  -2  10   2   63.00    1.63   3
  -2 -10   2   65.97    1.66   1
   2 -10  -2   63.62    1.96   4
   2 -10  -2   65.40    1.50   1
   2  10  -2   64.43    1.77   4
  -1  10   2    9.72    0.69   3
  -1 -10   2    9.08    0.69   1
  -1 -10   2    6.03    0.48   2
   1  10  -2    6.64    0.59   4
  -1 -10   2    8.24    0.57   3
   1 -10  -2    7.68    0.51   1
  -1  10   2    7.77    0.60   2
   1 -10  -2    7.16    0.67   4
   0 -10  -2    0.19    0.40   4
   0  10  -2    0.15    0.20   3
   0  10  -2   -0.15    0.36   4
   0 -10   2    0.96    0.31   1
   0 -10   2    0.77    0.27   2
   0 -10  -2    0.43    0.30   3
   0  10   2    0.51    0.27   2
   0 -10  -2    0.67    0.19   1
  -1 -10  -2   12.51    0.99   4
  -1  10  -2   15.20    1.16   4
   1 -10   2   14.56    0.62   2
  -1  10  -2   13.95    0.66   3
   1  10   2   12.52    0.75   2
   1 -10   2   12.63    0.78   1
  -1 -10  -2   11.61    0.82   3
  -2  10  -2 1290.04   24.55   4
   2 -10   2 1285.19   22.11   1
   2 -10   2 1286.00   20.55   2
  -2  10  -2 1270.98   22.16   3
  -2 -10  -2 1255.36   24.31   4
  -2 -10  -2 1296.55   22.41   3
  -3 -10  -2   18.74    1.13   3
  -3  10  -2   19.99    1.55   4
   3  10   2   21.17    1.09   2
  -3  10  -2   21.01    1.10   3
   3 -10   2   20.60    1.07   1
   4  10   2   20.68    1.16   2
  -4 -10  -2   20.82    1.23   3
  -4  10  -2   20.29    1.54   4
   4 -10   2   21.23    1.13   1
  -4  10  -2   18.83    1.13   3
  -5  10  -2    8.20    1.10   4
   5 -10   2    9.32    0.94   1
  -5 -10  -2    8.17    1.00   3
   5  10   2    8.67    0.91   2
   6  10   2    3.21    0.87   2
  -6 -10  -2    5.43    1.02   3
   6 -10   2    3.58    0.84   1
   7 -11  -2    2.67    0.80   1
  -7  11   2    1.65    0.92   3
  -7 -11   2    2.05    0.82   2
  -7 -11   2    2.03    0.82   3
   7  11  -2    0.48    0.85   1
  -6  11   2    0.61    0.67   3
  -6 -11   2   -0.01    0.65   2
   6 -11  -2    0.92    0.61   1
  -6 -11   2   -0.42    0.56   3
   6  11  -2   -0.23    0.67   1
   5 -11  -2   10.19    0.99   4
  -5 -11   2   10.15    0.82   3
  -5 -11   2   11.00    0.91   2
   5  11  -2   12.16    0.97   1
   5 -11  -2   12.82    0.95   1
  -5  11   2   10.60    0.94   3
   4 -11  -2  104.07    2.88   4
   4  11  -2  102.21    2.50   1
  -4 -11   2  102.92    2.48   2
  -4  11   2  101.98    2.55   3
  -4 -11   2  102.55    2.40   3
   3 -11  -2   44.64    1.31   1
   3  11  -2   45.06    1.40   1
  -3 -11   2   43.69    1.41   2
   3  11  -2   44.37    1.21   5
   3 -11  -2   43.14    1.68   4
  -3 -11   2   43.75    1.26   3
  -3  11   2   47.25    1.46   3
  -2 -11   2    1.33    0.40   2
  -2 -11   2    1.79    0.43   1
   2 -11  -2    1.11    0.32   1
  -2 -11   2    1.29    0.30   3
  -2  11   2    1.16    0.37   3
   2  11  -2    1.93    0.41   4
   2 -11  -2    1.04    0.48   4
  -1  11   2  655.84   10.72   2
  -1 -11   2  656.97   11.59   1
   1 -11  -2  663.15   12.99   4
   1 -11  -2  659.26   11.38   1
  -1  11   2  655.24   11.71   3
   1  11  -2  648.82   12.83   4
  -1 -11   2  660.56   10.93   2
  -1 -11   2  671.76   11.49   3
   0 -11   2   24.46    0.83   2
   0 -11   2   25.09    0.94   1
   0  11   2   24.96    0.83   2
   0  11  -2   24.49    0.78   3
   0  11  -2   23.59    1.27   4
   0 -11  -2   24.13    1.01   3
   0 -11  -2   22.39    1.16   4
   0 -11  -2   24.63    0.76   1
  -1  11  -2   15.77    0.72   3
  -1 -11  -2   14.27    1.05   4
   1 -11   2   15.73    0.67   2
  -1  11  -2   17.86    1.29   4
   1  11   2   15.41    0.79   2
  -1 -11  -2   13.28    0.87   3
   1 -11   2   14.99    0.83   1
   2  11   2    1.19    0.51   2
  -2  11  -2    1.39    0.65   4
  -2 -11  -2    0.12    0.56   4
  -2 -11  -2    0.56    0.55   3
   2 -11   2   -0.13    0.52   1
  -3 -11  -2   54.42    1.78   3
   3 -11   2   53.70    1.67   1
  -3  11  -2   56.31    2.18   4
   3  11   2   54.48    1.66   2
  -3  11  -2   54.41    1.64   3
   4 -11   2   16.89    1.09   1
  -4  11  -2   20.00    1.56   4
  -4 -11  -2   18.81    1.20   3
   4  11   2   19.36    1.16   2
  -5  11  -2   19.05    1.75   4
  -5 -11  -2   20.83    1.36   3
   5  11   2   18.60    1.27   2
   5 -11   2   20.57    1.28   1
   7  12  -2   13.03    1.26   1
  -7  12   2   12.97    1.30   3
  -7 -12   2   13.62    1.21   3
  -7 -12   2   13.69    1.25   2
   7 -12  -2   14.36    1.30   1
  -6 -12   2    9.78    1.00   2
  -6 -12   2    9.85    0.95   3
  -6  12   2    9.72    1.03   3
   6 -12  -2   10.48    0.96   1
   6  12  -2    9.35    1.02   1
  -5 -12   2    0.90    0.60   2
   5 -12  -2    0.97    0.68   4
   5  12  -2    1.07    0.67   1
  -5  12   2    0.97    0.64   3
  -5 -12   2    1.55    0.55   3
   5 -12  -2    2.04    0.59   1
  -4  12   2   -0.06    0.53   3
  -4 -12   2   -0.18    0.42   3
   4  12  -2   -0.29    0.52   1
   4 -12  -2   -0.72    0.57   4
   4 -12  -2    0.35    0.45   1
  -4 -12   2   -0.66    0.49   2
   3  12  -2   22.18    0.93   5
  -3 -12   2   23.80    0.96   3
   3  12  -2   23.59    1.07   1
  -3 -12   2   22.37    1.10   2
   3 -12  -2   22.40    1.33   4
   3 -12  -2   23.51    0.98   1
  -3  12   2   22.93    1.09   3
  -2  12   2    6.04    0.55   3
  -2 -12   2    5.87    0.54   3
   2 -12  -2    6.34    0.75   4
  -2 -12   2    6.44    0.60   1
  -2 -12   2    6.87    0.60   2
   2 -12  -2    6.21    0.48   1
   2  12  -2    6.17    0.59   4
  -1 -12   2   15.90    0.84   1
  -1  12   2   14.33    0.64   2
   1  12  -2   15.87    1.14   4
   1 -12  -2   12.79    1.06   4
   1 -12  -2   12.32    0.61   1
  -1 -12   2   13.49    0.78   2
   0 -12   2   52.10    1.43   1
   0 -12   2   50.83    1.29   2
   0  12   2   50.36    1.27   2
   0 -12  -2   51.10    1.75   4
   0 -12  -2   50.02    1.48   3
   0  12  -2   52.13    1.25   3
   0  12  -2   51.95    1.83   4
   0 -12  -2   52.72    1.23   1
  -1 -12  -2    1.44    0.53   4
   1 -12   2    1.56    0.33   2
  -1 -12  -2    1.03    0.47   3
   1  12   2    1.93    0.42   2
   1 -12   2    1.32    0.48   1
  -1  12  -2    1.16    0.58   4
   2  12   2   32.24    1.21   2
  -2 -12  -2   29.85    1.37   4
   2 -12   2   30.60    1.25   1
  -2 -12  -2   31.13    1.33   3
  -2  12  -2   33.02    1.70   4
  -3  12  -2   75.26    2.55   4
  -3 -12  -2   71.51    2.12   3
   3  12   2   71.23    1.95   2
   3 -12   2   72.60    2.02   1
  -4  12  -2   16.04    1.29   4
  -4 -12  -2   14.17    1.14   3
   4 -12   2   13.92    1.06   1
   4  12   2   14.28    1.10   2
  -5 -12  -2    8.87    0.99   3
  -5  12  -2    8.15    1.19   4
   5 -12   2    9.76    0.98   1
   5  12   2    8.50    0.95   2
  -6 -13   2    7.04    0.88   3
  -6 -13   2    7.39    0.96   2
  -6  13   2    7.20    0.99   3
   6 -13  -2    8.75    0.93   1
   6  13  -2    6.76    0.99   1
  -5  13   2    2.50    0.73   3
   5 -13  -2    4.25    0.68   1
  -5 -13   2    4.45    0.66   3
   5  13  -2    3.43    0.78   1
  -5 -13   2    3.28    0.74   2
   5 -13  -2    2.60    0.81   4
   4 -13  -2   -1.25    0.60   4
  -4 -13   2    1.00    0.46   3
  -4 -13   2   -0.45    0.55   2
  -4  13   2    0.61    0.57   3
   4  13  -2    0.49    0.56   1
   4 -13  -2    1.20    0.50   1
   3  13  -2   39.16    1.20   5
  -3  13   2   36.71    1.37   3
   3  13  -2   41.85    1.38   1
   3 -13  -2   38.20    1.72   4
  -3 -13   2   38.53    1.25   3
   3 -13  -2   38.90    1.28   1
  -3 -13   2   38.74    1.41   2
   2 -13  -2   -0.37    0.31   1
  -2  13   2    0.45    0.36   3
  -2 -13   2   -0.34    0.38   2
  -2 -13   2    0.08    0.31   3
   2  13  -2   -0.03    0.41   4
  -2 -13   2    0.33    0.42   1
   2 -13  -2   -0.83    0.46   4
   1  13  -2    5.70    0.66   4
  -1 -13   2    6.24    0.54   2
   1 -13  -2    5.26    0.71   4
  -1  13   2    7.19    0.59   3
   1 -13  -2    6.42    0.50   1
  -1 -13   2    6.98    0.61   1
   0 -13  -2    3.15    0.49   3
   0 -13   2    3.05    0.47   1
   0 -13  -2    3.13    0.61   4
   0 -13  -2    4.32    0.37   1
   0  13   2    3.43    0.42   2
   0 -13   2    3.00    0.40   2
   0  13  -2    3.16    0.61   4
   1 -13   2   57.35    1.64   1
  -1 -13  -2   57.19    1.89   4
  -1  13  -2   59.50    2.14   4
   1 -13   2   57.10    1.35   2
   1  13   2   57.51    1.52   2
  -1 -13  -2   56.85    1.71   3
  -2  13  -2   26.27    1.58   4
   2 -13   2   27.80    1.18   1
  -2 -13  -2   25.90    1.28   4
  -2 -13  -2   26.34    1.24   3
   2  13   2   25.58    1.11   2
  -3 -13  -2    0.46    0.54   3
   3  13   2    0.49    0.51   2
   3 -13   2    0.98    0.53   1
  -3  13  -2    0.15    0.70   4
   4 -13   2   18.39    1.16   1
   4  13   2   19.25    1.21   2
  -4  13  -2   16.63    1.63   4
  -4 -13  -2   17.15    1.22   3
   5 -13   2    0.82    0.68   1
   5  13   2    0.35    0.68   2
  -5  13  -2   -0.48    0.87   4
  -5 -13  -2    0.79    0.73   3
  -6 -14   2    1.05    0.69   3
  -6  14   2    0.70    0.78   3
   6 -14  -2    1.63    0.71   1
  -6 -14   2    0.79    0.79   2
   6  14  -2    1.10    0.82   1
   5  14  -2    7.35    0.91   1
  -5  14   2    6.18    0.88   3
   5 -14  -2    7.63    0.80   1
   5 -14  -2    5.80    0.99   4
  -5 -14   2    5.92    0.84   2
  -5 -14   2    5.87    0.71   3
   4 -14  -2    1.20    0.54   1
  -4 -14   2    1.04    0.49   3
  -4  14   2    1.58    0.62   3
   4 -14  -2   -0.32    0.70   4
  -4 -14   2    0.08    0.62   2
   4  14  -2    1.34    0.60   1
  -3 -14   2   10.46    0.77   3
   3  14  -2   12.32    0.93   1
  -3 -14   2   10.64    0.83   2
   3 -14  -2   10.44    1.03   4
  -3  14   2   11.89    0.94   3
   3 -14  -2   11.88    0.85   1
   3  14  -2   11.92    0.82   5
  -2 -14   2    7.05    0.67   1
  -2  14   2    7.75    0.65   3
   2 -14  -2    5.94    0.52   1
   2 -14  -2    6.98    0.81   4
  -2 -14   2    7.40    0.65   2
  -2 -14   2    7.25    0.56   3
   2  14  -2    7.35    0.73   4
   1 -14  -2    0.26    0.28   1
   1 -14  -2   -0.02    0.48   4
  -1 -14   2    0.04    0.37   2
   1  14  -2    0.09    0.46   4
  -1  14   2    0.19    0.37   3
  -1 -14   2    0.59    0.42   1
   0 -14   2    2.12    0.48   1
   0 -14  -2    2.05    0.62   4
   0 -14   2    2.54    0.42   2
   0 -14  -2    2.46    0.36   1
   0 -14  -2    2.23    0.50   3
   0  14   2    2.34    0.42   2
   0  14  -2    2.63    0.62   4
  -1  14  -2   74.28    2.47   4
   1 -14   2   74.90    1.96   1
   1  14   2   73.65    1.80   2
  -1 -14  -2   73.91    2.27   4
  -1 -14  -2   73.29    2.02   3
  -2 -14  -2   -0.12    0.49   4
  -2 -14  -2   -0.43    0.46   3
   2 -14   2    0.40    0.47   1
  -2  14  -2   -0.47    0.60   4
   2  14   2    0.20    0.46   2
  -3 -14  -2   42.89    1.63   3
   3  14   2   38.93    1.49   2
   3 -14   2   40.65    1.52   1
  -3  14  -2   44.26    2.09   4
   4 -14   2    1.74    0.67   1
   4  14   2    0.67    0.64   2
  -4 -14  -2    0.50    0.63   3
  -4  14  -2    0.55    0.87   4
   5  14   2   15.62    1.26   2
  -5  14  -2   15.96    1.50   4
   5 -14   2   17.80    1.26   1
  -5 -14  -2   18.00    1.34   3
  -6 -15   2    2.58    0.73   3
   6  15  -2    0.29    0.83   1
   6 -15  -2    0.92    0.72   1
  -6  15   2    0.65    0.81   3
  -6 -15   2    0.22    0.80   2
   5 -15  -2    8.21    1.08   4
   5  15  -2    9.24    1.01   1
   5 -15  -2   10.26    0.89   1
  -5 -15   2    9.25    0.99   2
  -5 -15   2    8.56    0.83   3
  -5  15   2    9.29    1.00   3
   4  15  -2    4.03    0.73   1
   4 -15  -2    4.82    0.66   1
  -4 -15   2    4.42    0.63   3
   4 -15  -2    3.32    0.90   4
  -4 -15   2    3.66    0.73   2
  -4  15   2    3.19    0.69   3
   3  15  -2   44.35    1.32   5
  -3 -15   2   49.59    1.62   2
  -3  15   2   45.63    1.58   3
   3 -15  -2   46.68    1.98   4
   3 -15  -2   44.57    1.44   1
  -3 -15   2   44.21    1.40   3
   3  15  -2   47.93    1.57   1
   2 -15  -2   14.79    1.19   4
  -2  15   2   12.15    0.89   3
   2 -15  -2   12.42    0.79   1
  -2 -15   2   13.37    0.97   1
  -2 -15   2   13.22    0.90   2
   2  15  -2   14.74    1.27   4
  -2 -15   2   14.21    0.84   3
  -1  15   2    0.45    0.41   3
  -1 -15   2   -0.12    0.41   1
   1 -15  -2    0.22    0.31   1
   1  15  -2   -0.58    0.48   4
  -1 -15   2    0.10    0.39   2
   1 -15  -2   -0.26    0.52   4
   0 -15  -2   76.84    2.41   4
   0 -15   2   77.56    1.81   2
   0 -15  -2   77.73    2.07   3
   0  15  -2   78.68    2.57   4
   0  15   2   76.28    1.77   2
   1  15   2    1.27    0.46   2
   1 -15   2    1.48    0.50   1
  -1  15  -2    0.45    0.63   4
  -1 -15  -2    0.67    0.49   3
  -1 -15  -2    0.57    0.56   4
  -2 -15  -2    5.63    0.72   3
   2  15   2    5.42    0.64   2
  -2  15  -2    5.47    0.92   4
  -2 -15  -2    5.70    0.75   4
   2 -15   2    5.21    0.67   1
  -3 -15  -2    1.74    0.65   3
   3 -15   2    2.61    0.64   1
  -3  15  -2    2.28    0.91   4
   3  15   2    1.96    0.63   2
  -4 -15  -2    7.15    0.91   3
  -4  15  -2    6.22    1.17   4
   4 -15   2    8.28    0.91   1
   4  15   2    6.04    0.86   2
  -5 -15  -2    1.29    0.77   3
   5  15   2    0.54    0.75   2
   5 -15   2    1.40    0.73   1
  -5  15  -2   -0.99    0.95   4
   6 -16  -2    8.13    0.98   1
  -6 -16   2    8.04    0.96   3
  -6 -16   2    7.53    1.08   2
  -6  16   2    7.72    1.11   3
  -5 -16   2   12.16    1.03   3
  -5 -16   2   10.19    1.03   2
   5 -16  -2    9.77    1.18   4
   5 -16  -2   10.63    0.94   1
  -5  16   2   12.27    1.11   3
   5  16  -2   11.42    1.09   1
   4 -16  -2    2.50    0.87   4
  -4 -16   2    2.94    0.58   3
   4  16  -2    3.53    0.73   1
   4 -16  -2    3.44    0.64   1
  -4  16   2    3.05    0.72   3
  -4 -16   2    2.21    0.67   2
   3 -16  -2    0.31    0.67   4
  -3 -16   2   -0.28    0.43   3
   3  16  -2    0.40    0.53   1
   3  16  -2   -0.07    0.45   5
   3 -16  -2   -0.47    0.45   1
  -3  16   2   -0.01    0.49   3
  -3 -16   2   -0.12    0.52   2
   2 -16  -2    0.62    0.39   1
  -2 -16   2    0.08    0.52   1
   2 -16  -2    0.96    0.63   4
  -2  16   2    0.41    0.48   3
  -2 -16   2    0.74    0.40   3
   2  16  -2    0.01    0.54   4
  -2 -16   2    1.39    0.50   2
   1  16  -2   16.79    1.46   4
  -1  16   2   18.17    1.01   3
  -1 -16   2   17.42    0.95   2
   1 -16  -2   18.92    0.86   1
   1 -16  -2   16.96    1.27   4
  -1 -16   2   17.30    1.04   1
   0  16  -2   30.08    1.79   4
   0 -16  -2   26.06    1.46   4
   0 -16   2   25.71    1.04   2
   0 -16  -2   26.11    1.21   3
   0 -16   2   27.29    1.17   1
   1 -16   2    0.68    0.48   1
  -1  16  -2    1.06    0.71   4
  -1 -16  -2    0.62    0.51   3
   1  16   2    0.48    0.45   2
  -1 -16  -2    0.43    0.56   4
  -2  16  -2    0.67    0.74   4
  -2 -16  -2    0.46    0.54   4
  -2 -16  -2   -0.31    0.51   3
   2 -16   2   -0.13    0.51   1
   2  16   2   -0.51    0.46   2
  -3  16  -2    0.17    0.84   4
   3 -16   2    1.49    0.64   1
  -3 -16  -2    1.35    0.65   3
   3  16   2    1.34    0.63   2
   4 -16   2    0.55    0.67   1
   4  16   2    0.48    0.69   2
  -4  16  -2   -0.69    0.92   4
  -4 -16  -2    1.64    0.73   3
  -5  17   2    3.89    0.90   3
   5 -17  -2    4.21    0.76   1
   5  17  -2    2.05    0.89   1
   5 -17  -2    3.28    1.00   4
  -5 -17   2    3.00    0.87   2
   4 -17  -2    8.81    0.82   1
  -4 -17   2    7.91    0.89   2
   4  17  -2    9.29    0.93   1
   4 -17  -2    7.00    1.06   4
  -4  17   2    6.53    0.87   3
  -3 -17   2    5.65    0.76   2
   3 -17  -2    5.20    0.64   1
  -3  17   2    5.94    0.75   3
   3  17  -2    5.51    0.65   5
   3 -17  -2    6.24    0.96   4
   3  17  -2    6.19    0.75   1
  -2 -17   2    2.70    0.64   1
  -2  17   2    3.46    0.62   3
   2 -17  -2    2.95    0.50   1
   2  17  -2    2.20    0.68   4
   2 -17  -2    4.03    0.83   4
  -2 -17   2    3.53    0.61   2
  -1  17   2    1.01    0.51   3
   1  17  -2    0.16    0.65   4
   1 -17  -2    1.36    0.68   4
  -1 -17   2    0.94    0.48   2
  -1 -17   2    1.07    0.54   1
   0 -17   2    9.03    0.77   1
   0 -17  -2   10.46    0.99   4
   0  17  -2    8.31    1.01   4
   0  17   2   10.66    0.90   3
   1  17   2   10.05    0.86   2
  -1 -17  -2   10.38    0.97   4
  -1  17  -2   10.02    1.14   4
   1 -17   2   10.08    0.86   1
  -1 -17  -2   10.71    0.96   3
  -2 -17  -2    0.10    0.54   3
  -2 -17  -2   -0.41    0.56   4
   2 -17   2   -0.31    0.50   1
   2  17   2   -0.25    0.51   2
  -2  17  -2    0.74    0.78   4
   3 -17   2    0.41    0.62   1
  -3  17  -2   -0.35    0.91   4
  -3 -17  -2    0.63    0.65   3
   3  17   2    0.25    0.61   2
   4 -17   2    0.06    0.64   1
   4  17   2   -0.19    0.69   2
  -4 -17  -2    0.03    0.69   3
  -4  17  -2   -0.47    0.93   4
   5 -18  -2    1.77    0.98   4
  -5  18   2    0.65    0.86   3
   5 -18  -2    2.89    0.73   1
  -5 -18   2    1.26    0.83   2
   4  18  -2    8.36    0.95   1
   4 -18  -2    7.12    1.13   4
  -4  18   2    7.53    0.92   3
   4 -18  -2    8.84    0.83   1
  -4 -18   2    6.55    0.90   2
   3  18  -2   -0.29    0.54   1
  -3 -18   2   -0.30    0.55   2
   3 -18  -2   -0.38    0.44   1
   3 -18  -2    0.26    0.74   4
   3  18  -2   -0.25    0.49   5
  -3  18   2   -0.02    0.56   3
  -2 -18   2   20.84    1.12   2
  -2 -18   2   18.93    1.16   1
  -2  18   2   19.52    1.13   3
   2 -18  -2   19.52    1.48   4
   2 -18  -2   20.69    1.00   1
  -1 -18   2   16.71    0.99   2
   1  18  -2   18.75    1.67   4
  -1 -18   2   15.50    1.08   1
   1 -18  -2   16.75    1.35   4
  -1  18   2   14.64    1.00   3
   0 -18  -2   -0.05    0.62   4
   0 -18   2    0.59    0.52   1
   0  18   2   -0.32    0.47   3
   0  18  -2    0.14    0.75   4
  -1  18  -2    8.23    1.17   4
  -1 -18  -2    9.02    0.96   4
   1  18   2    8.18    0.73   2
  -1 -18  -2    9.17    0.86   3
   1 -18   2    7.82    0.76   1
  -2  18  -2   13.04    1.38   4
  -2 -18  -2   12.08    1.02   3
   2 -18   2   13.77    1.03   1
   2  18   2   12.45    0.93   2
   3 -18   2    7.07    0.90   1
  -3  18  -2    6.77    1.29   4
   3  18   2    6.24    0.83   2
  -3 -18  -2    5.79    0.89   3
   4  18   2    5.33    0.93   2
  -4  18  -2    5.88    1.34   4
   4 -18   2    6.91    0.93   1
  -4 -18  -2    8.15    1.02   3
   5 -19  -2    0.08    0.66   1
   5 -19  -2   -1.36    0.91   4
  -5 -19   2   -1.31    0.78   2
  -5  19   2    0.01    0.80   3
   4  19  -2   23.33    1.41   1
  -4 -19   2   24.39    1.41   2
  -4  19   2   25.34    1.43   3
   4 -19  -2   25.16    1.82   4
   4 -19  -2   25.52    1.28   1
  -3  19   2    0.46    0.59   3
  -3 -19   2    0.26    0.61   2
   3 -19  -2    0.33    0.79   4
   3  19  -2    0.27    0.53   5
   3  19  -2    0.89    0.61   1
   3 -19  -2    1.10    0.53   1
   2 -19  -2   -0.03    0.74   4
  -2 -19   2   -0.37    0.51   2
  -2 -19   2   -0.43    0.56   1
  -2  19   2   -0.30    0.55   3
  -1 -19   2    9.46    0.89   1
  -1 -19   2    8.54    0.77   2
   1 -19  -2   10.59    1.12   4
  -1  19   2    9.67    0.86   3
   1  19  -2    8.97    1.11   4
   0  19  -2   -0.40    0.82   4
   0 -19   2    1.88    0.62   1
   0  19   2    0.98    0.56   3
   0 -19  -2    1.43    0.75   4
   1 -19   2    1.06    0.56   1
  -1 -19  -2    0.66    0.69   4
  -1  19  -2    0.20    0.90   4
  -1 -19  -2    0.34    0.60   3
   2 -19   2    1.66    0.65   1
   2  19   2    1.70    0.65   2
  -2 -19  -2    2.32    0.70   3
  -2  19  -2    2.17    1.04   4
  -3 -19  -2    7.36    0.96   3
  -3  19  -2    5.60    1.32   4
   3  19   2    6.81    0.89   2
   3 -19   2    6.11    0.88   1
   4 -20  -2    4.68    0.81   1
  -4 -20   2    4.55    0.91   2
   4 -20  -2    4.11    1.10   4
  -4  20   2    4.24    0.88   3
   3 -20  -2   -0.01    0.80   4
   3  20  -2    1.06    0.56   5
   3 -20  -2   -0.20    0.53   1
   3  20  -2    0.51    0.63   1
  -3 -20   2    0.21    0.64   2
  -3  20   2    0.01    0.61   3
  -2  20   2   -0.20    0.58   3
   2 -20  -2    0.06    0.77   4
  -2 -20   2    0.02    0.62   1
  -2 -20   2   -0.15    0.57   2
  -1 -20   2   34.92    1.52   1
   1  20  -2   39.86    2.19   4
  -1  20   2   33.03    1.47   3
   1 -20  -2   34.57    1.89   4
   0  20   2    2.03    0.64   3
   0  20  -2    1.32    0.93   4
   0 -20   2    2.04    0.66   1
   0 -20  -2    2.06    0.83   4
  -1 -20  -2   12.79    1.21   4
  -1 -20  -2   13.75    1.17   3
   1 -20   2   13.98    1.05   1
  -1  20  -2   14.78    1.55   4
   2  20   2   11.16    0.96   2
  -2 -20  -2   12.32    1.07   3
  -2  20  -2   12.63    1.51   4
   2 -20   2   11.63    1.06   1
  -3  20  -2   -0.84    1.15   4
  -3 -20  -2    1.38    0.76   3
   3  20   2   -0.75    0.68   2
   3 -20   2    0.66    0.72   1
   4 -21  -2    9.46    1.33   4
  -4  21   2   10.28    1.09   3
   4 -21  -2   10.35    0.99   1
  -4 -21   2    9.89    1.11   2
   3  21  -2    2.46    0.65   5
   3  21  -2    2.61    0.76   1
  -3 -21   2    1.84    0.74   2
   3 -21  -2    2.00    0.95   4
  -3  21   2    1.99    0.74   3
  -2 -21   2    1.07    0.70   1
  -2 -21   2    0.87    0.64   2
   2 -21  -2    1.49    0.86   4
  -2  21   2    1.26    0.66   3
  -1 -21   2    1.45    0.70   1
  -1  21   2    1.47    0.66   3
   1  21  -2    2.15    0.96   4
   1 -21  -2    1.23    0.82   4
   0 -21  -2    9.19    1.14   4
   0  21   2   10.18    0.95   3
   0  21  -2   10.19    1.34   4
   0 -21   2    9.44    0.94   1
  -1  21  -2    8.37    1.39   4
   1 -21   2    8.57    0.91   1
  -1 -21  -2    7.42    1.11   4
   2 -21   2   15.56    1.17   1
  -2 -21  -2   17.51    1.33   3
  -2  21  -2   18.36    1.75   4
   3 -22  -2   24.26    1.84   4
  -3 -22   2   23.67    1.43   2
  -3  22   2   22.56    1.41   3
  -2  22   2    0.98    0.67   3
   2 -22  -2    0.73    0.85   4
  -2 -22   2    1.76    0.76   1
   1 -22  -2    0.12    0.80   4
  -1 -22   2    0.91    0.71   1
   1  22  -2    0.47    0.95   4
  -1  22   2    0.28    0.63   3
   0  22   2   23.65    1.36   3
   0 -22   2   22.23    1.36   1
   0  22  -2   26.49    2.21   4
   0 -22  -2   23.76    1.67   4
   1 -22   2   12.57    1.09   1
   1  22   2   15.05    1.19   3
  -1  22  -2   15.63    1.67   4
  -1 -22  -2   12.20    1.28   4
  -2 -22  -2    0.69    0.75   3
  -2  22  -2   -0.24    1.14   4
   2 -22   2    0.82    0.66   1
   2 -23  -2    1.14    0.93   4
  -2  23   2    1.16    0.70   3
  -1  23   2    0.10    0.62   3
   1 -23  -2   -0.14    0.89   4
  -1 -23   2   -0.45    0.68   1
   1  23  -2   -2.19    0.90   4
   0  23  -2    0.64    1.10   4
   0 -23  -2   -0.22    0.87   4
   0  23   2   -0.40    0.62   3
   0 -23   2    0.34    0.71   1
  -1 -23  -2    8.30    1.19   4
  -1  23  -2    8.28    1.50   4
   1  23   2    7.28    0.93   3
   1 -23   2    7.16    0.96   1
  -8   0   3    0.19    0.77   3
   8   0  -3   -1.17    0.77   1
  -7   0   3    2.12    0.76   3
   7   0  -3    3.09    0.82   1
   6   0  -3   -0.11    0.65   1
  -6   0   3    0.17    0.59   3
  -6   0   3   -0.12    0.50   2
  -5   0   3    6.85    0.64   2
   5   0  -3    6.62    0.80   1
  -5   0   3    6.10    0.76   3
   4   0  -3    0.27    0.46   1
  -4   0   3    0.73    0.38   3
  -4   0   3    0.30    0.31   2
   4   0  -3   -0.14    0.30   4
  -3   0   3  156.46    3.08   3
   3   0  -3  156.99    3.12   1
   3   0  -3  159.22    3.37   4
  -3   0   3  158.95    2.91   2
  -2   0   3    0.29    0.21   2
   2   0  -3    0.24    0.27   1
  -2   0   3    0.29    0.21   3
   2   0  -3   -0.17    0.33   4
  -1   0   3  261.76    4.47   2
   1   0  -3  261.05    3.86   5
   1   0  -3  261.03    4.64   1
   1   0  -3  259.89    5.32   4
  -1   0   3  264.32    4.65   3
   0   0  -3    0.14    0.15   3
   0   0   3    0.19    0.15   1
   0   0   3    0.09    0.23   2
   0   0  -3   -0.03    0.35   4
  -1   0  -3   24.99    1.17   4
   1   0   3   24.36    0.87   2
  -1   0  -3   24.28    0.85   3
   1   0   3   27.27    0.73   1
  -2   0  -3   -0.09    0.51   4
   2   0   3    0.23    0.27   1
  -2   0  -3    0.08    0.33   3
   2   0   3   -0.04    0.34   2
  -3   0  -3    1.25    0.61   4
   3   0   3    1.46    0.45   2
  -3   0  -3    2.15    0.48   3
   3   0   3    1.44    0.40   1
  -4   0  -3    0.26    0.63   4
  -4   0  -3    0.10    0.50   3
   4   0   3   -0.14    0.49   2
  -5   0  -3   20.73    1.38   3
   5   0   3   21.44    1.33   2
  -6   0  -3   -0.40    0.77   3
   8   1  -3    1.28    0.87   1
  -8  -1   3    2.49    0.88   3
   8  -1  -3    2.17    0.87   1
  -8   1   3    2.19    0.86   3
   7   1  -3    1.47    0.79   1
  -7  -1   3    1.21    0.71   3
  -7   1   3    2.38    0.75   3
   7  -1  -3    2.16    0.78   1
  -6  -1   3    1.43    0.58   2
  -6   1   3    2.16    0.70   3
   6   1  -3    1.59    0.71   1
  -6  -1   3    0.20    0.62   3
   6  -1  -3    1.74    0.70   1
  -5   1   3  320.39    5.61   2
   5  -1  -3  320.31    6.05   1
  -5   1   3  315.28    6.11   3
  -5  -1   3  320.22    6.11   3
   5   1  -3  309.55    6.04   1
  -5  -1   3  307.51    5.65   2
  -4  -1   3   22.24    0.94   3
  -4   1   3   23.75    0.85   2
   4   1  -3   22.02    0.88   4
  -4   1   3   22.65    0.98   3
  -4  -1   3   23.30    0.90   2
   4  -1  -3   23.15    1.03   1
   4  -1  -3   23.35    0.98   4
   4   1  -3   23.80    1.06   1
   3  -1  -3   52.42    1.32   1
   3   1  -3   45.85    1.31   1
  -3  -1   3   48.24    1.23   3
   3   1  -3   53.84    1.38   4
  -3  -1   3   48.29    1.21   2
  -3   1   3   46.84    1.16   2
  -3   1   3   48.34    1.27   3
   3  -1  -3   50.28    1.41   4
  -2   1   3  346.92    5.87   2
  -2  -1   3  352.56    5.91   2
   2  -1  -3  353.72    6.22   1
  -2  -1   3  351.74    6.22   3
   2   1  -3  348.95    6.93   4
   2  -1  -3  351.99    6.96   4
  -2   1   3  352.81    6.27   3
   2   1  -3  353.28    6.26   1
   1  -1  -3  103.54    2.00   1
  -1   1   3  104.92    2.03   3
   1  -1  -3  106.68    2.47   4
   1   1  -3  105.79    2.50   4
  -1   1   3  108.40    2.02   2
  -1  -1   3  104.73    2.06   1
  -1  -1   3  106.14    2.02   2
  -1  -1   3  106.64    1.97   3
   0   1   3  314.27    5.64   1
   0   1   3  321.02    5.50   2
   0   1  -3  323.19    5.72   3
   0  -1  -3  333.37    6.55   4
   0   1  -3  328.01    6.55   4
   0  -1  -3  330.41    5.80   3
   0  -1   3  322.60    5.49   2
   0  -1   3  324.86    5.70   1
   1  -1   3  323.89    5.64   2
   1   1   3  330.79    5.78   1
  -1  -1  -3  331.93    6.72   4
  -1   1  -3  327.07    6.73   4
   1   1   3  330.67    5.67   2
  -1  -1  -3  332.81    5.98   3
  -1   1  -3  333.78    5.94   3
   1  -1   3  331.04    5.84   1
   2  -1   3  266.29    4.92   1
   2  -1   3  274.82    4.80   2
   2   1   3  270.17    4.87   1
   2   1   3  271.49    4.81   2
  -2   1  -3  265.54    5.06   3
  -2  -1  -3  273.53    5.70   4
  -2  -1  -3  266.96    5.10   3
  -2   1  -3  271.40    5.73   4
   3  -1   3    8.02    0.68   1
   3  -1   3    8.45    0.63   2
  -3  -1  -3    9.00    0.82   4
   3   1   3    8.96    0.67   2
   3   1   3    7.38    0.63   1
  -3   1  -3    8.26    0.68   3
  -3  -1  -3    9.36    0.70   3
  -3   1  -3    8.54    0.84   4
   4  -1   3    2.28    0.53   1
   4  -1   3    2.15    0.57   2
   4   1   3    2.37    0.59   2
  -4  -1  -3    2.62    0.67   4
  -4   1  -3    1.13    0.70   4
  -4   1  -3    2.38    0.61   3
  -4  -1  -3    2.15    0.62   3
  -5   1  -3   59.15    2.03   3
  -5  -1  -3   63.09    2.12   3
   5   1   3   63.15    2.00   2
   5  -1   3   62.23    1.94   2
  -6  -1  -3   -0.06    0.78   3
   6   1   3    0.03    0.76   2
  -6   1  -3   -0.03    0.79   3
  -8  -2   3    2.25    0.85   3
  -8   2   3    1.87    0.85   3
   8  -2  -3    3.63    0.90   1
   8   2  -3    1.65    0.88   1
  -7   2   3   12.36    1.15   3
   7  -2  -3   13.57    1.19   1
  -7  -2   3   15.31    1.26   3
   7   2  -3   13.54    1.22   1
  -6  -2   3  110.98    2.85   3
   6   2  -3  113.17    2.82   1
  -6  -2   3  116.18    2.66   2
  -6   2   3  111.61    2.87   3
   5  -2  -3   66.01    1.93   1
  -5  -2   3   67.65    1.80   2
  -5  -2   3   66.39    1.93   3
  -5   2   3   67.42    1.69   2
  -5   2   3   64.28    1.91   3
   5   2  -3   69.22    1.96   1
   4  -2  -3   32.79    1.19   1
  -4   2   3   33.31    1.00   2
  -4  -2   3   32.51    1.14   3
   4   2  -3   32.87    1.27   1
  -4  -2   3   33.76    1.09   2
  -4   2   3   33.78    1.18   3
   4  -2  -3   35.82    1.22   4
   3   2  -3  147.15    3.15   4
   3   2  -3  144.74    2.98   1
  -3   2   3  148.71    2.97   3
  -3  -2   3  146.23    2.89   3
  -3  -2   3  150.59    2.82   2
   3  -2  -3  149.38    2.93   1
   3  -2  -3  152.79    3.26   4
  -3   2   3  147.14    2.71   2
   2  -2  -3 2408.39   40.31   1
   2  -2  -3 2354.31   44.49   4
  -2   2   3 2394.75   37.93   2
  -2  -2   3 2385.29   40.70   3
   2   2  -3 2367.16   44.44   4
   2   2  -3 2347.76   40.33   1
  -2  -2   3 2368.16   37.98   2
  -2   2   3 2428.39   40.71   3
  -1   2   3  952.23   16.73   3
   1  -2  -3  984.26   18.45   4
   1   2  -3  968.51   18.42   4
  -1  -2   3  961.64   16.60   1
  -1   2   3  972.97   15.66   2
   1  -2  -3  973.80   16.55   1
  -1  -2   3  981.93   15.68   2
   0  -2   3  139.74    2.59   1
   0  -2  -3  142.60    2.66   3
   0   2  -3  133.48    3.13   4
   0   2  -3  133.53    2.51   3
   0  -2   3  137.74    2.55   2
   0   2   3  135.87    2.57   2
   0  -2  -3  139.85    3.11   4
  -1  -2  -3  432.93    7.73   3
  -1   2  -3  423.65    8.60   4
  -1  -2  -3  434.28    8.59   4
  -1   2  -3  433.42    7.64   3
   1  -2   3  432.58    7.25   2
   1  -2   3  433.84    7.58   1
   1   2   3  429.16    7.46   1
   1   2   3  437.77    7.29   2
  -2  -2  -3  300.13    5.52   3
   2  -2   3  291.99    5.32   1
  -2  -2  -3  291.81    6.06   4
  -2   2  -3  291.04    6.13   4
   2   2   3  287.13    5.15   2
   2  -2   3  289.11    5.11   2
   2   2   3  287.93    5.20   1
  -2   2  -3  292.04    5.41   3
  -3   2  -3   14.00    0.95   3
  -3  -2  -3   18.91    1.00   3
   3  -2   3   16.45    0.90   2
   3  -2   3   15.69    0.81   1
  -3   2  -3   13.70    1.30   4
  -3  -2  -3   16.21    1.13   4
   3   2   3   16.49    0.95   2
  -4   2  -3   11.87    1.06   3
   4  -2   3   16.93    1.02   2
   4  -2   3   13.54    0.93   1
   4   2   3   14.16    1.04   2
  -4  -2  -3   13.79    1.09   3
  -4   2  -3   13.74    1.10   4
  -5   2  -3    5.74    0.82   3
  -5  -2  -3    3.74    0.87   3
   5  -2   3    5.25    0.77   2
   5   2   3    4.63    0.79   2
   6   2   3    9.47    1.07   2
  -6   2  -3    9.13    1.07   3
  -6  -2  -3    8.97    1.15   3
  -8   3   3    1.07    0.87   3
   8  -3  -3    0.78    0.77   1
  -8  -3   3    1.06    0.78   3
   8   3  -3   -0.79    0.78   1
   7  -3  -3    4.55    0.85   1
  -7  -3   3    5.06    0.86   3
  -7   3   3    4.10    0.80   3
   7   3  -3    5.02    0.89   1
  -6  -3   3   95.54    2.59   3
  -6  -3   3   93.06    2.37   2
   6   3  -3   94.96    2.50   1
  -6   3   3   98.71    2.59   3
   5   3  -3  108.89    2.60   1
  -5  -3   3  110.59    2.46   2
   5  -3  -3  102.73    2.55   1
  -5  -3   3  104.86    2.55   3
  -5   3   3  107.75    2.61   3
  -4   3   3  178.59    3.63   3
   4  -3  -3  180.53    3.87   4
  -4  -3   3  178.41    3.41   2
   4  -3  -3  176.34    3.56   1
  -4   3   3  174.30    3.23   2
   4   3  -3  175.64    3.63   1
  -4  -3   3  178.57    3.56   3
   3  -3  -3  744.33   14.13   4
  -3   3   3  734.53   11.95   2
   3  -3  -3  733.39   12.75   1
  -3  -3   3  733.15   12.11   2
   3   3  -3  735.59   12.83   1
  -3  -3   3  737.37   12.83   3
  -3   3   3  732.27   12.92   3
   3   3  -3  731.39   13.96   4
   2  -3  -3  177.47    3.89   4
  -2  -3   3  180.12    3.28   2
   2   3  -3  181.74    2.89   5
   2  -3  -3  177.74    3.34   1
  -2   3   3  183.10    3.43   3
   2   3  -3  183.05    3.44   1
   2   3  -3  184.10    3.83   4
  -2   3   3  183.74    3.17   2
  -2  -3   3  177.61    3.29   3
  -1   3   3   57.16    1.22   2
  -1  -3   3   55.97    1.24   2
  -1   3   3   50.58    1.27   3
   1  -3  -3   54.86    1.57   4
   1   3  -3   54.51    1.61   4
  -1  -3   3   55.24    1.27   1
   1  -3  -3   53.74    1.13   1
   0  -3   3  539.21    9.37   1
   0   3   3  539.45    8.92   2
   0  -3   3  542.12    8.90   2
   0  -3  -3  548.81    9.52   3
   0   3  -3  530.26   10.52   4
  -1   3  -3    0.26    0.23   3
  -1   3  -3    0.00    0.43   4
   1  -3   3    0.22    0.23   1
   1  -3   3   -0.31    0.26   2
  -1  -3  -3    0.17    0.26   3
  -1  -3  -3   -0.03    0.44   4
   1   3   3    1.40    0.34   2
  -2   3  -3   13.91    1.16   4
   2  -3   3   12.07    0.81   2
  -2   3  -3   13.37    0.75   3
   2   3   3   12.69    0.56   1
   2  -3   3   14.03    0.75   1
  -2  -3  -3   10.77    1.05   4
  -2  -3  -3   11.54    0.86   3
   2   3   3   12.66    0.81   2
  -3  -3  -3  163.92    3.49   3
   3   3   3  160.64    3.25   2
   3  -3   3  156.91    3.27   1
   3  -3   3  170.22    3.19   2
  -3   3  -3  164.30    3.90   4
  -3  -3  -3  160.58    3.74   4
  -3   3  -3  154.72    3.39   3
  -4   3  -3   40.74    1.57   3
   4   3   3   43.21    1.53   2
   4  -3   3   45.35    1.45   2
  -4   3  -3   40.73    1.92   4
  -4  -3  -3   45.83    1.66   3
   4  -3   3   43.93    1.45   1
  -5  -3  -3    5.11    0.92   3
  -5   3  -3    6.94    0.86   3
   5   3   3    6.49    0.84   2
   5  -3   3    5.07    0.77   1
  -6   3  -3   13.17    1.17   3
  -6  -3  -3   13.88    1.28   3
   6   3   3   11.76    1.13   2
  -8  -4   3    1.46    0.83   3
   8   4  -3    1.41    0.86   1
  -8   4   3    1.20    0.85   3
   8  -4  -3    1.44    0.80   1
   7  -4  -3    7.60    0.92   1
   7   4  -3    6.52    0.94   1
  -7   4   3    6.46    0.93   3
  -7  -4   3    6.46    0.88   3
  -7  -4   3    5.92    0.80   2
  -6   4   3    6.01    0.77   3
  -6  -4   3    4.96    0.69   2
   6  -4  -3    4.25    0.80   1
   6   4  -3    6.65    0.82   1
  -6  -4   3    3.92    0.76   3
   5  -4  -3   -0.43    0.56   1
  -5  -4   3   -0.26    0.49   3
   5   4  -3    2.10    0.60   1
  -5  -4   3    0.35    0.48   2
  -5   4   3    0.83    0.51   3
   4  -4  -3  155.70    3.19   1
  -4  -4   3  156.07    3.09   2
  -4   4   3  152.61    3.26   3
   4   4  -3  154.35    3.27   1
  -4   4   3  156.43    2.86   2
  -4  -4   3  152.77    3.18   3
   4  -4  -3  157.69    3.52   4
  -3  -4   3   39.27    1.14   2
   3  -4  -3   38.39    1.35   4
  -3   4   3   39.24    0.96   2
   3  -4  -3   38.57    1.14   1
   3   4  -3   39.15    1.18   4
  -3  -4   3   37.19    1.07   3
   3   4  -3   41.81    1.23   1
  -3   4   3   39.88    1.18   3
   2   4  -3   41.04    1.13   1
  -2   4   3   41.31    0.97   2
  -2   4   3   42.27    1.09   3
  -2  -4   3   39.42    1.06   2
  -2  -4   3   40.31    0.93   3
   2   4  -3   41.53    0.98   5
   2  -4  -3   40.19    1.02   1
   2   4  -3   41.46    1.35   4
   2  -4  -3   39.46    1.33   4
  -1   4   3  595.49   10.46   3
  -1  -4   3  609.08   10.38   1
   1  -4  -3  585.53   10.23   1
  -1   4   3  591.10    9.76   2
   1   4  -3  596.87   11.53   4
  -1  -4   3  603.21    9.80   2
   1  -4  -3  597.44   11.59   4
   0  -4   3    6.17    0.51   2
   0  -4   3    6.92    0.52   1
   0  -4  -3    6.28    0.52   3
   0   4  -3    6.60    0.57   4
   0   4   3    7.09    0.58   2
   0  -4  -3    7.11    0.62   4
  -1   4  -3    1.27    0.28   3
  -1  -4  -3    1.08    0.32   3
   1   4   3    1.08    0.35   2
   1  -4   3    0.93    0.30   2
  -1   4  -3    0.77    0.47   4
   1  -4   3    1.10    0.28   1
  -1  -4  -3    0.84    0.45   4
  -2  -4  -3   13.05    0.81   3
  -2   4  -3   12.16    0.88   4
  -2   4  -3   10.62    0.74   3
   2   4   3   10.10    0.81   2
  -2  -4  -3   11.62    0.95   4
   2  -4   3   12.31    0.76   2
   2  -4   3   12.70    0.70   1
  -3  -4  -3    0.70    0.50   3
  -3   4  -3   -0.61    0.62   4
  -3   4  -3   -0.38    0.46   3
   3  -4   3    0.75    0.44   2
   3   4   3   -0.53    0.46   2
  -3  -4  -3    0.21    0.53   4
   3  -4   3    0.57    0.44   1
  -4  -4  -3    3.43    0.72   3
   4  -4   3    2.17    0.59   1
  -4   4  -3    2.01    0.79   4
  -4   4  -3    3.46    0.66   3
   4  -4   3    2.65    0.57   2
   4   4   3    3.02    0.66   2
  -5  -4  -3    0.07    0.75   3
  -5   4  -3    2.68    0.68   3
   5  -4   3    1.14    0.63   1
   5   4   3    1.82    0.71   2
  -6  -4  -3   16.46    1.41   3
   6   4   3   19.79    1.51   2
   8   5  -3    4.22    1.01   1
   8  -5  -3    5.52    0.91   1
  -8  -5   3    3.59    0.89   3
  -8   5   3    3.16    0.92   3
  -7   5   3    1.39    0.76   3
  -7  -5   3    2.02    0.71   3
   7   5  -3    1.39    0.77   1
   7  -5  -3    1.16    0.71   1
  -7  -5   3    1.29    0.65   2
   6   5  -3    0.81    0.63   1
   6  -5  -3    0.27    0.62   1
  -6  -5   3    0.17    0.51   2
  -6   5   3    0.93    0.62   3
  -6  -5   3   -0.35    0.54   3
  -5   5   3    6.59    0.70   3
   5   5  -3    5.41    0.73   1
  -5  -5   3    5.30    0.65   2
  -5  -5   3    4.56    0.64   3
   5  -5  -3    5.91    0.73   1
   4   5  -3    8.36    0.71   1
  -4  -5   3    6.66    0.58   3
  -4  -5   3    6.41    0.59   2
  -4   5   3    7.19    0.64   3
  -4   5   3    7.23    0.55   2
   4  -5  -3    6.64    0.63   1
   4  -5  -3    6.88    0.67   4
  -3  -5   3  143.50    2.82   2
  -3  -5   3  144.07    2.81   3
   3   5  -3  145.16    2.96   1
   3   5  -3  145.79    3.11   4
  -3   5   3  142.20    2.95   3
  -3   5   3  143.38    2.57   2
   3  -5  -3  141.63    2.84   1
   3  -5  -3  141.10    3.28   4
   2  -5  -3   32.69    1.21   4
  -2  -5   3   34.23    0.82   3
  -2   5   3   35.36    1.00   3
   2   5  -3   36.27    1.23   4
   2   5  -3   30.14    0.99   1
   2   5  -3   34.37    0.88   5
  -2   5   3   35.33    0.87   2
   2  -5  -3   33.15    0.90   1
  -2  -5   3   32.47    0.96   2
  -1   5   3  190.26    3.35   2
   1  -5  -3  189.32    4.12   4
  -1  -5   3  191.19    3.41   2
  -1   5   3  192.79    3.60   3
  -1  -5   3  189.17    3.58   1
   1   5  -3  187.76    4.06   4
   0  -5  -3   37.74    1.32   4
   0   5  -3   40.28    1.42   4
   0  -5  -3   38.44    1.08   3
   0  -5   3   38.58    1.04   1
   0  -5   3   37.03    0.99   2
   0   5   3   36.98    1.05   2
   1  -5   3  265.57    4.86   1
  -1  -5  -3  254.76    5.50   4
   1   5   3  264.52    4.67   2
  -1   5  -3  261.54    4.75   3
   1  -5   3  267.75    4.59   2
  -1   5  -3  262.57    5.59   4
  -1  -5  -3  267.39    4.99   3
   2  -5   3    0.22    0.33   1
  -2  -5  -3    0.21    0.37   3
   2   5   3   -0.75    0.38   2
  -2   5  -3   -0.76    0.52   4
  -2  -5  -3    0.07    0.48   4
  -2   5  -3   -0.94    0.33   3
   2  -5   3    0.21    0.33   2
  -3   5  -3   11.84    0.93   3
  -3  -5  -3   15.42    1.08   3
  -3  -5  -3   14.25    1.03   4
   3   5   3   12.65    0.96   2
   3  -5   3   15.36    0.92   1
  -3   5  -3   13.56    1.06   4
   3  -5   3   16.34    0.94   2
   4  -5   3   67.48    1.81   2
  -4   5  -3   67.19    1.97   3
   4  -5   3   64.98    1.87   1
  -4  -5  -3   69.50    2.12   3
  -4   5  -3   66.03    2.40   4
   5  -5   3    0.31    0.59   1
  -5  -5  -3   -0.59    0.68   3
   5   5   3    1.04    0.69   2
  -5   5  -3    1.06    0.63   3
   7  -6  -3    0.75    0.69   1
  -7  -6   3    0.13    0.61   2
  -7   6   3    0.06    0.70   3
   7   6  -3    0.06    0.73   1
  -7  -6   3    0.50    0.65   3
   6  -6  -3    0.76    0.63   1
  -6   6   3    1.26    0.62   3
   6   6  -3    2.07    0.71   1
  -6  -6   3    1.27    0.58   2
  -6  -6   3    1.03    0.59   3
  -5   6   3   46.65    1.59   3
  -5  -6   3   44.61    1.50   2
  -5  -6   3   45.83    1.52   3
   5  -6  -3   45.80    1.54   1
   5   6  -3   46.84    1.62   1
   5  -6  -3   45.36    1.60   4
   4   6  -3  145.90    3.14   1
  -4  -6   3  146.68    3.04   3
  -4   6   3  143.30    3.14   3
   4  -6  -3  146.03    3.45   4
   4  -6  -3  146.09    3.06   1
  -4  -6   3  143.25    3.00   2
   3  -6  -3  121.20    2.49   1
  -3   6   3  121.16    2.59   3
   3   6  -3  120.92    2.71   4
  -3  -6   3  119.41    2.49   2
  -3  -6   3  120.95    2.43   3
  -3   6   3  115.58    2.17   2
   3  -6  -3  120.11    2.92   4
   3   6  -3  121.52    2.60   1
  -2  -6   3  171.68    3.11   3
  -2  -6   3  169.72    3.35   1
   2  -6  -3  168.42    3.80   4
   2   6  -3  168.50    3.66   4
   2  -6  -3  176.37    3.18   1
  -2  -6   3  168.50    3.19   2
  -2   6   3  171.02    3.00   2
  -2   6   3  172.04    3.35   3
   1   6  -3   45.19    1.48   4
  -1   6   3   45.09    1.10   2
  -1  -6   3   44.00    1.20   1
  -1  -6   3   52.46    1.18   2
  -1   6   3   49.23    1.23   3
   1  -6  -3   45.31    1.48   4
   0   6   3  131.59    2.52   2
   0  -6  -3  129.82    2.70   3
   0  -6   3  130.56    2.47   2
   0   6  -3  131.83    3.11   4
   0  -6  -3  131.48    3.10   4
   0  -6   3  133.65    2.64   1
   1  -6   3  155.16    3.04   1
  -1   6  -3  153.17    3.60   4
  -1  -6  -3  152.06    3.14   3
  -1  -6  -3  152.89    3.51   4
   1   6   3  151.53    2.95   2
   1  -6   3  153.68    2.84   2
  -1   6  -3  150.00    2.87   3
  -2  -6  -3  131.93    2.88   3
  -2   6  -3  125.33    2.66   3
  -2  -6  -3  134.02    3.15   4
   2  -6   3  129.72    2.74   1
   2   6   3  131.02    2.72   2
   2  -6   3  127.76    2.53   2
  -2   6  -3  129.49    3.34   4
  -3   6  -3    9.34    0.70   3
  -3   6  -3    9.63    0.98   4
   3  -6   3    9.98    0.78   2
  -3  -6  -3   10.71    1.03   4
   3  -6   3    9.23    0.72   1
   3   6   3    8.23    0.74   2
  -3  -6  -3    9.67    0.82   3
   4   6   3   33.29    1.39   2
  -4   6  -3   31.82    1.86   4
  -4   6  -3   38.15    1.43   3
  -4  -6  -3   35.58    1.56   3
   4  -6   3   32.21    1.35   1
  -5  -6  -3    0.07    0.72   3
   5   6   3    1.27    0.70   2
   5  -6   3    1.03    0.62   1
  -7   7   3    9.76    1.06   3
  -7  -7   3   10.45    1.00   2
   7   7  -3   10.66    1.08   1
  -7  -7   3    8.25    0.94   3
   7  -7  -3   10.20    1.01   1
  -6  -7   3    1.51    0.61   2
   6   7  -3    3.47    0.75   1
  -6   7   3    1.63    0.66   3
   6  -7  -3    1.92    0.65   1
  -5  -7   3    4.44    0.63   2
  -5   7   3    4.69    0.66   3
   5  -7  -3    3.48    0.62   4
   5   7  -3    4.58    0.71   1
  -5  -7   3    4.41    0.61   3
   5  -7  -3    4.58    0.67   1
  -4  -7   3    2.79    0.48   3
  -4  -7   3    2.21    0.53   2
   4  -7  -3    3.35    0.58   1
   4  -7  -3    3.56    0.63   4
   4   7  -3    3.52    0.59   1
  -4   7   3    4.69    0.59   3
  -3  -7   3    3.87    0.37   3
   3   7  -3    3.93    0.44   5
  -3  -7   3    3.34    0.46   2
   3   7  -3    3.75    0.49   1
   3   7  -3    4.03    0.47   4
  -3   7   3    4.27    0.48   3
   3  -7  -3    2.90    0.56   4
  -3   7   3    3.65    0.27   2
   3  -7  -3    3.29    0.46   1
  -2   7   3    4.17    0.41   3
  -2   7   3    4.61    0.33   2
   2   7  -3    4.85    0.49   4
   2  -7  -3    4.21    0.55   4
  -2  -7   3    4.02    0.35   3
  -2  -7   3    4.57    0.45   1
   2  -7  -3    5.40    0.39   1
  -1  -7   3   56.59    1.40   1
  -1  -7   3   56.63    1.33   2
   1  -7  -3   54.32    1.69   4
  -1   7   3   55.21    1.25   2
  -1   7   3   56.86    1.41   3
   1   7  -3   53.99    1.66   4
   0   7  -3   28.35    1.28   4
   0  -7   3   28.56    0.93   1
   0   7   3   29.06    0.93   2
   0  -7  -3   27.38    0.99   3
   0  -7   3   28.40    0.90   2
   0  -7  -3   26.78    1.20   4
   1  -7   3   23.82    0.82   2
  -1  -7  -3   21.06    1.17   4
  -1   7  -3   22.89    0.73   3
   1   7   3   22.36    0.94   2
  -1  -7  -3   23.31    0.99   3
  -1   7  -3   24.02    1.35   4
   1  -7   3   24.07    0.91   1
   2   7   3  216.70    4.09   2
  -2   7  -3  211.79    4.13   3
   2  -7   3  217.96    4.24   1
  -2   7  -3  218.67    4.93   4
  -2  -7  -3  213.21    4.75   4
   2  -7   3  217.74    3.90   2
  -2  -7  -3  217.79    4.39   3
   3  -7   3    6.48    0.54   2
  -3   7  -3    6.69    0.90   4
  -3  -7  -3    6.41    0.73   4
  -3  -7  -3    6.74    0.73   3
   3  -7   3    6.58    0.68   1
   3   7   3    6.07    0.68   2
   4  -7   3    3.55    0.66   1
  -4  -7  -3    3.93    0.77   3
  -4   7  -3    3.55    0.88   4
   4   7   3    4.28    0.70   2
   5  -7   3   16.76    1.18   1
  -5  -7  -3   15.17    1.31   3
   5   7   3   15.01    1.19   2
  -7   8   3    0.58    0.71   3
  -7  -8   3    0.01    0.66   3
  -7  -8   3   -0.22    0.66   2
   7   8  -3   -0.06    0.76   1
   7  -8  -3   -0.34    0.63   1
   6   8  -3   -0.34    0.63   1
  -6  -8   3    0.76    0.57   3
  -6  -8   3    0.33    0.57   2
  -6   8   3    0.52    0.59   3
   6  -8  -3    0.61    0.60   1
   5  -8  -3    4.04    0.66   4
  -5  -8   3    3.39    0.63   2
   5   8  -3    3.99    0.72   1
   5  -8  -3    4.66    0.65   1
  -5   8   3    3.68    0.64   3
  -5  -8   3    4.49    0.60   3
   4  -8  -3    0.78    0.54   4
   4   8  -3    1.37    0.53   1
  -4   8   3    1.04    0.50   3
  -4  -8   3    0.62    0.49   2
  -4  -8   3    1.30    0.42   3
   4  -8  -3    0.75    0.48   1
   3   8  -3    2.94    0.47   1
  -3   8   3    2.09    0.43   3
   3   8  -3    2.86    0.45   4
   3   8  -3    2.74    0.41   5
  -3  -8   3    1.98    0.33   3
   3  -8  -3    2.05    0.43   1
  -3  -8   3    1.63    0.42   2
   3  -8  -3    2.39    0.55   4
  -2  -8   3    8.03    0.41   3
  -2  -8   3    7.61    0.54   2
  -2   8   3    7.58    0.58   2
   2  -8  -3    8.33    0.55   1
  -2  -8   3    8.41    0.72   1
  -2   8   3    8.75    0.66   3
   2  -8  -3    6.96    0.68   4
   2   8  -3    8.33    0.59   4
   1   8  -3    5.98    0.57   4
  -1   8   3    5.78    0.41   2
   1  -8  -3    5.87    0.64   4
  -1   8   3    7.12    0.63   3
  -1  -8   3    6.31    0.49   1
  -1  -8   3    5.64    0.44   2
   0  -8  -3    5.20    0.61   4
   0  -8  -3    5.97    0.50   3
   0  -8   3    6.42    0.59   1
   0   8   3    6.91    0.48   2
   0   8  -3    5.93    0.60   4
   0  -8   3    6.59    0.45   2
   1   8   3   13.25    0.81   2
  -1  -8  -3   13.51    1.00   4
   1  -8   3   12.74    0.66   2
  -1  -8  -3   13.45    0.85   3
   1  -8   3   13.14    0.76   1
  -1   8  -3   14.13    1.21   4
  -2  -8  -3    0.11    0.54   4
  -2  -8  -3   -0.11    0.47   3
   2  -8   3   -0.12    0.44   1
   2   8   3   -0.36    0.47   2
   2  -8   3   -0.46    0.33   2
  -2   8  -3   -0.45    0.60   4
  -3   8  -3    6.08    0.90   4
  -3  -8  -3    5.63    0.72   3
   3   8   3    4.64    0.64   2
   3  -8   3    5.29    0.50   2
   3  -8   3    5.81    0.66   1
  -3  -8  -3    5.46    0.70   4
  -4   8  -3    6.63    1.03   4
  -4  -8  -3    6.39    0.84   3
   4  -8   3    7.24    0.78   1
   4   8   3    6.29    0.78   2
  -5  -8  -3    2.51    0.85   3
  -5   8  -3    1.20    1.02   4
   5   8   3    3.18    0.79   2
   5  -8   3    4.26    0.75   1
  -7  -9   3    0.14    0.70   3
  -7  -9   3    0.51    0.70   2
   7   9  -3   -0.54    0.73   1
   7  -9  -3    0.13    0.64   1
  -7   9   3    0.25    0.74   3
  -6  -9   3    0.34    0.61   2
  -6   9   3    1.06    0.65   3
   6  -9  -3    1.30    0.62   1
   6   9  -3    0.74    0.71   1
  -6  -9   3    0.98    0.56   3
   5   9  -3   -0.21    0.58   1
   5  -9  -3    0.02    0.53   4
  -5  -9   3    0.19    0.43   3
   5  -9  -3    0.63    0.50   1
  -5   9   3   -0.26    0.54   3
  -5  -9   3   -0.34    0.49   2
   4   9  -3   -0.64    0.47   1
  -4   9   3   -0.75    0.44   3
   4  -9  -3   -0.76    0.48   4
  -4  -9   3   -0.18    0.34   3
  -4  -9   3   -0.90    0.43   2
   4  -9  -3   -0.50    0.41   1
  -3   9   3   22.46    1.03   3
   3   9  -3   22.20    1.16   4
  -3  -9   3   19.18    1.02   2
   3  -9  -3   19.22    0.89   1
   3   9  -3   20.67    0.90   5
   3  -9  -3   17.64    1.21   4
  -3  -9   3   19.81    0.79   3
   3   9  -3   19.91    1.01   1
  -2  -9   3   52.73    1.49   1
  -2  -9   3   51.77    1.15   3
   2  -9  -3   51.21    1.77   4
   2  -9  -3   53.74    1.26   1
  -2   9   3   54.39    1.48   3
  -2  -9   3   52.45    1.42   2
  -2   9   3   52.83    1.21   2
   2   9  -3   56.50    1.65   4
   1   9  -3   69.81    2.05   4
  -1   9   3   74.55    1.78   3
   1  -9  -3   70.23    2.09   4
   1  -9  -3   72.49    1.41   1
  -1  -9   3   71.99    1.64   2
  -1  -9   3   71.40    1.74   1
  -1   9   3   71.77    1.55   2
   0  -9  -3   96.61    2.25   3
   0   9  -3   98.62    2.61   4
   0  -9  -3   96.91    2.57   4
   0   9   3   95.97    2.04   2
   0  -9   3   98.54    2.17   1
   0  -9   3   98.85    2.01   2
  -1   9  -3   -0.11    0.48   4
   1  -9   3   -0.61    0.34   1
   1   9   3   -0.11    0.37   2
  -1  -9  -3   -0.10    0.46   4
   1  -9   3    0.13    0.29   2
  -1  -9  -3   -0.29    0.36   3
  -2  -9  -3    3.66    0.61   3
   2   9   3    3.80    0.59   2
   2  -9   3    4.69    0.44   2
  -2  -9  -3    4.12    0.65   4
   2  -9   3    4.65    0.60   1
  -2   9  -3    4.75    0.81   4
   3  -9   3   56.82    1.72   1
  -3  -9  -3   55.25    1.83   3
  -3  -9  -3   57.92    1.88   4
  -3   9  -3   58.81    2.24   4
   4  -9   3    0.10    0.54   1
   4   9   3   -0.13    0.58   2
  -4  -9  -3   -0.32    0.56   3
  -4   9  -3   -0.76    0.77   4
  -5   9  -3   -1.40    0.91   4
   5   9   3   -0.44    0.68   2
   5  -9   3   -0.01    0.63   1
  -5  -9  -3    0.44    0.72   3
  -7 -10   3    0.05    0.68   2
   7  10  -3    0.17    0.80   1
   7 -10  -3    1.78    0.72   1
  -7 -10   3    0.40    0.68   3
  -7  10   3   -0.60    0.73   3
   6 -10  -3    0.06    0.56   1
   6  10  -3   -0.38    0.68   1
  -6  10   3   -0.75    0.63   3
  -6 -10   3   -0.36    0.57   2
  -6 -10   3   -0.21    0.52   3
  -5 -10   3   18.93    1.02   3
   5 -10  -3   20.17    1.07   1
   5 -10  -3   18.06    1.27   4
   5  10  -3   15.79    1.18   1
  -5 -10   3   17.46    1.12   2
  -5  10   3   17.56    1.18   3
   4  10  -3   -0.26    0.50   1
   4 -10  -3   -0.54    0.55   4
  -4 -10   3   -0.26    0.50   2
  -4  10   3   -0.95    0.47   3
   4 -10  -3   -0.44    0.41   1
  -4 -10   3    0.00    0.35   3
  -3 -10   3  213.70    4.05   3
   3 -10  -3  214.78    4.90   4
   3  10  -3  211.57    4.51   4
   3 -10  -3  210.23    4.09   1
  -3  10   3  214.23    4.32   3
   3  10  -3  214.30    4.26   1
   3  10  -3  213.47    3.61   5
  -3 -10   3  217.66    4.14   2
  -2 -10   3    0.32    0.38   1
  -2 -10   3   -0.31    0.34   2
  -2 -10   3    0.12    0.21   3
   2 -10  -3   -0.31    0.49   4
  -2  10   3    0.22    0.33   3
  -2  10   3    0.14    0.24   2
   2 -10  -3   -0.07    0.26   1
   2  10  -3    0.38    0.40   4
  -1 -10   3   20.67    0.92   1
   1  10  -3   23.92    1.28   4
  -1  10   3   21.10    0.82   2
   1 -10  -3   21.52    1.27   4
   1 -10  -3   21.18    0.61   1
  -1  10   3   21.33    0.96   3
  -1 -10   3   20.08    0.84   2
   0 -10  -3   -0.25    0.32   3
   0  10  -3    0.09    0.43   4
   0 -10  -3   -0.37    0.44   4
   0 -10   3    0.14    0.29   2
   0 -10   3   -0.02    0.31   1
   0  10   3    0.22    0.33   2
   1  10   3   34.30    1.20   2
  -1  10  -3   37.12    1.72   4
   1 -10   3   36.71    1.25   1
   1 -10   3   37.14    1.09   2
  -1 -10  -3   37.76    1.54   4
  -1 -10  -3   37.66    1.34   3
   2 -10   3    4.84    0.45   2
  -2 -10  -3    4.22    0.62   3
  -2 -10  -3    3.81    0.65   4
   2  10   3    3.58    0.58   2
  -2  10  -3    4.09    0.80   4
   2 -10   3    4.56    0.60   1
   3  10   3   60.10    1.83   2
   3 -10   3   63.45    1.85   1
  -3  10  -3   62.17    2.35   4
  -3 -10  -3   61.51    1.96   3
   4  10   3   12.52    0.99   2
   4 -10   3   13.49    1.05   1
  -4 -10  -3   13.96    1.16   3
  -4  10  -3   12.35    1.28   4
  -5 -10  -3    1.35    0.76   3
  -5  10  -3   -0.02    1.04   4
   5  10   3    0.86    0.75   2
   5 -10   3    1.41    0.69   1
  -7  11   3    1.00    0.80   3
  -7 -11   3    0.04    0.68   3
   7  11  -3    0.00    0.83   1
   7 -11  -3    0.67    0.66   1
  -7 -11   3   -0.24    0.71   2
  -6 -11   3    1.30    0.68   2
  -6 -11   3    1.80    0.62   3
  -6  11   3    2.24    0.78   3
   6  11  -3    1.89    0.77   1
   6 -11  -3    2.95    0.68   1
   5 -11  -3   10.97    1.02   4
   5  11  -3    9.55    0.96   1
  -5 -11   3   10.94    0.89   3
  -5 -11   3   10.64    0.89   2
   5 -11  -3   11.33    0.92   1
  -5  11   3    9.81    0.94   3
   4 -11  -3   23.69    1.05   1
   4 -11  -3   20.49    1.38   4
  -4 -11   3   22.79    0.99   3
   4  11  -3   21.52    1.20   1
  -4 -11   3   21.43    1.18   2
  -4  11   3   22.35    1.20   3
  -3 -11   3   14.73    1.02   2
   3 -11  -3   14.63    1.26   4
  -3  11   3   18.12    1.01   3
   3  11  -3   15.68    0.87   5
  -3 -11   3   14.00    0.77   3
   3  11  -3   17.87    1.00   1
   3 -11  -3   13.35    0.89   1
  -2  11   3   96.36    2.26   3
   2 -11  -3   93.71    1.97   1
  -2 -11   3   93.58    2.18   2
   2  11  -3   94.41    2.47   4
   2 -11  -3   89.37    2.65   4
  -2 -11   3   95.09    2.25   1
  -2 -11   3   96.89    1.92   3
  -1 -11   3   36.51    1.15   2
  -1  11   3   36.26    1.06   2
   1  11  -3   37.70    1.55   4
   1 -11  -3   36.35    1.56   4
  -1  11   3   37.45    1.26   3
   1 -11  -3   36.16    0.89   1
  -1 -11   3   35.80    1.22   1
   0 -11  -3  120.20    2.74   3
   0 -11  -3  122.78    3.14   4
   0  11   3  121.71    2.46   2
   0 -11   3  117.72    2.44   2
   0  11  -3  124.69    3.17   4
  -1 -11  -3   18.20    1.22   4
  -1  11  -3   18.47    1.40   4
  -1 -11  -3   15.19    0.98   3
   1 -11   3   15.98    0.93   1
   1  11   3   16.01    0.91   2
   1 -11   3   17.98    0.80   2
  -2  11  -3   19.95    1.57   4
   2  11   3   19.38    1.06   2
  -2 -11  -3   19.78    1.28   4
   2 -11   3   20.50    1.07   1
  -2 -11  -3   21.39    1.15   3
  -3 -11  -3    8.75    0.86   3
   3  11   3    8.29    0.81   2
   3 -11   3    9.54    0.84   1
  -3  11  -3    9.48    1.07   4
   4  11   3    1.39    0.68   2
  -4  11  -3    1.00    0.91   4
   4 -11   3    1.09    0.64   1
  -4 -11  -3    1.30    0.70   3
   5 -11   3   17.85    1.25   1
  -5 -11  -3   16.76    1.36   3
  -5  11  -3   14.76    1.54   4
   5  11   3   15.23    1.27   2
  -7 -12   3    0.42    0.79   2
  -7  12   3   -0.54    0.79   3
   7 -12  -3    1.46    0.71   1
  -7 -12   3    0.60    0.74   3
   7  12  -3   -0.59    0.87   1
  -6 -12   3   -0.67    0.61   2
  -6 -12   3    0.10    0.59   3
   6 -12  -3   -0.31    0.56   1
   6  12  -3   -0.64    0.67   1
  -6  12   3   -0.66    0.65   3
   5 -12  -3    9.17    0.79   1
   5 -12  -3    9.05    1.00   4
  -5 -12   3    8.45    0.73   3
   5  12  -3    8.32    0.95   1
  -5  12   3    6.77    0.87   3
  -5 -12   3    7.09    0.83   2
   4 -12  -3    6.52    0.68   1
  -4 -12   3    4.98    0.73   2
   4  12  -3    5.50    0.76   1
   4 -12  -3    6.48    0.88   4
  -4 -12   3    6.40    0.61   3
  -4  12   3    6.99    0.77   3
   3 -12  -3    5.36    0.85   4
  -3 -12   3    5.21    0.68   2
  -3  12   3    6.13    0.66   3
   3  12  -3    6.50    0.63   5
   3  12  -3    6.17    0.68   1
  -3 -12   3    5.52    0.50   3
   3 -12  -3    6.32    0.56   1
  -2 -12   3    5.00    0.60   1
   2 -12  -3    2.87    0.73   4
   2  12  -3    5.09    0.63   4
  -2 -12   3    4.30    0.56   2
  -2  12   3    4.21    0.54   3
   2 -12  -3    3.44    0.41   1
   1  12  -3   44.60    1.73   4
  -1 -12   3   43.89    1.38   1
  -1  12   3   42.80    1.18   2
  -1  12   3   43.53    1.40   3
  -1 -12   3   41.82    1.27   2
   1 -12  -3   41.51    1.71   4
   0 -12   3   45.89    1.42   1
   0 -12  -3   44.35    1.47   3
   0 -12  -3   44.90    1.74   4
   0 -12   3   44.93    1.26   2
   0  12   3   45.94    1.30   2
   0  12  -3   47.34    1.88   4
   1 -12   3   40.32    1.38   1
   1 -12   3   41.31    1.17   2
   1  12   3   41.41    1.31   2
  -1 -12  -3   41.19    1.46   3
  -1  12  -3   43.23    1.87   4
  -1 -12  -3   39.09    1.65   4
  -2 -12  -3   11.63    1.13   4
  -2  12  -3   11.88    1.08   4
  -2 -12  -3   11.40    1.01   3
   2  12   3   10.13    0.80   2
   2 -12   3   11.24    0.95   1
   3  12   3    0.81    0.58   2
  -3 -12  -3    0.29    0.56   3
  -3  12  -3   -0.05    0.77   4
   3 -12   3   -0.06    0.55   1
  -4  12  -3   22.13    1.82   4
   4 -12   3   22.71    1.33   1
   4  12   3   21.46    1.32   2
  -4 -12  -3   22.84    1.41   3
  -5 -12  -3   -0.71    0.69   3
   5  12   3   -0.09    0.75   2
  -5  12  -3   -1.05    1.04   4
   5 -12   3    1.28    0.73   1
  -6 -13   3    1.04    0.63   3
  -6  13   3    0.87    0.73   3
   6 -13  -3    1.88    0.66   1
  -6 -13   3    0.57    0.68   2
   6  13  -3   -0.12    0.78   1
  -5  13   3   -0.92    0.60   3
   5  13  -3   -0.44    0.64   1
  -5 -13   3    0.14    0.58   2
  -5 -13   3    0.31    0.49   3
   5 -13  -3    0.55    0.56   1
   5 -13  -3   -0.48    0.67   4
   4 -13  -3    3.56    0.82   4
   4 -13  -3    2.97    0.58   1
  -4 -13   3    3.74    0.54   3
  -4  13   3    3.55    0.71   3
  -4 -13   3    2.99    0.69   2
   4  13  -3    3.53    0.71   1
  -3  13   3  100.51    2.52   3
   3  13  -3  103.42    2.15   5
   3 -13  -3  100.41    2.27   1
   3 -13  -3  100.49    2.96   4
  -2 -13   3   33.45    1.30   1
  -2  13   3   35.70    1.29   3
   2  13  -3   37.06    1.57   4
   2 -13  -3   32.87    1.03   1
  -2 -13   3   34.56    1.25   2
   2 -13  -3   31.48    1.59   4
   1  13  -3    1.60    0.57   4
  -1  13   3    1.15    0.37   2
   1 -13  -3    0.74    0.56   4
  -1  13   3    1.29    0.44   3
  -1 -13   3    1.29    0.42   2
  -1 -13   3    0.89    0.46   1
   0  13  -3   94.18    2.74   4
   0 -13  -3   92.06    2.31   3
   0 -13   3   89.25    2.03   2
   0  13   3   88.90    2.02   2
   0 -13  -3   90.53    2.67   4
   0 -13   3   91.56    2.23   1
   1 -13   3   -0.17    0.33   2
  -1 -13  -3   -0.73    0.42   3
  -1  13  -3   -0.62    0.56   4
   1 -13   3   -0.02    0.43   1
  -1 -13  -3    0.20    0.56   4
   1  13   3    0.44    0.44   2
   2  13   3   48.39    1.57   2
  -2 -13  -3   49.43    1.86   4
   2 -13   3   49.06    1.63   1
  -2 -13  -3   47.80    1.72   3
  -3  13  -3   30.91    1.88   4
   3 -13   3   29.38    1.38   1
   3  13   3   27.26    1.34   2
  -3 -13  -3   30.92    1.46   3
   4 -13   3    1.70    0.73   1
   4  13   3    1.76    0.77   2
  -4 -13  -3    1.69    0.73   3
  -4  13  -3    1.94    1.02   4
   6  14  -3   -0.26    0.81   1
  -6 -14   3    0.91    0.76   2
  -6  14   3    1.34    0.80   3
   6 -14  -3    1.74    0.67   1
   5 -14  -3    0.24    0.74   4
  -5  14   3    0.67    0.67   3
   5  14  -3    0.76    0.70   1
   5 -14  -3    0.43    0.54   1
  -5 -14   3    1.77    0.68   2
  -4 -14   3  163.93    3.55   2
   4  14  -3  152.40    3.55   1
   4 -14  -3  157.82    3.40   1
   4 -14  -3  160.15    4.18   4
   3  14  -3    1.16    0.54   1
  -3  14   3    0.10    0.48   3
   3 -14  -3    0.35    0.63   4
   3 -14  -3   -0.15    0.40   1
  -3 -14   3    0.21    0.52   2
   3  14  -3    0.00    0.46   5
   2  14  -3    2.96    0.64   4
  -2 -14   3    2.83    0.54   2
  -2 -14   3    2.74    0.55   1
   2 -14  -3    2.47    0.68   4
   2 -14  -3    1.90    0.37   1
  -2  14   3    2.43    0.54   3
  -1  14   3  101.10    2.49   3
  -1 -14   3  103.35    2.32   2
   1  14  -3  104.88    2.91   4
  -1 -14   3  102.44    2.48   1
   1 -14  -3  100.92    2.94   4
   0 -14   3    0.10    0.37   2
   0 -14   3    0.07    0.40   1
   0  14  -3    0.49    0.62   4
   0 -14  -3    0.63    0.59   4
   0 -14  -3    0.43    0.46   3
   0  14   3    0.31    0.41   2
  -1  14  -3   25.02    1.66   4
  -1 -14  -3   22.79    1.19   3
  -1 -14  -3   23.29    1.37   4
   1  14   3   23.09    1.06   2
   1 -14   3   21.08    1.11   1
  -2 -14  -3    0.71    0.59   4
   2  14   3    0.51    0.52   2
  -2  14  -3   -0.02    0.72   4
  -2 -14  -3    1.03    0.61   3
   2 -14   3    0.16    0.53   1
  -3 -14  -3    4.43    0.80   3
   3  14   3    4.07    0.75   2
  -3  14  -3    4.16    1.02   4
   3 -14   3    4.08    0.75   1
   4  14   3   29.57    1.52   2
  -4  14  -3   30.35    2.11   4
   4 -14   3   30.92    1.54   1
  -4 -14  -3   28.10    1.54   3
  -6 -15   3   15.11    1.30   2
   6 -15  -3   16.04    1.17   1
   6  15  -3   14.45    1.27   1
  -6  15   3   15.15    1.39   3
   5  15  -3    3.08    0.83   1
   5 -15  -3    4.47    0.70   1
  -5  15   3    2.98    0.80   3
   5 -15  -3    3.18    0.89   4
  -5 -15   3    3.42    0.77   2
   4 -15  -3   13.30    0.98   1
  -4  15   3   14.03    1.09   3
  -4 -15   3   13.93    1.14   2
   4 -15  -3   14.33    1.37   4
   4  15  -3   11.47    1.06   1
  -3 -15   3    2.72    0.64   2
   3 -15  -3    3.02    0.51   1
   3 -15  -3    1.91    0.77   4
   3  15  -3    3.26    0.64   1
  -3  15   3    2.95    0.62   3
   3  15  -3    2.62    0.55   5
  -2 -15   3    9.72    0.81   1
   2  15  -3    9.25    0.88   4
  -2  15   3   10.26    0.89   3
  -2 -15   3    9.86    0.77   2
   2 -15  -3   10.11    0.98   4
   1 -15  -3   79.45    2.59   4
  -1  15   3   82.27    2.19   3
  -1 -15   3   79.07    2.01   2
   1  15  -3   84.53    2.62   4
   0  15   3   72.70    1.78   2
   0 -15   3   68.57    1.77   2
   0  15  -3   71.97    2.48   4
   0 -15  -3   70.21    2.04   3
   0 -15  -3   73.60    2.40   4
  -1 -15  -3   70.24    2.11   3
  -1 -15  -3   71.73    2.36   4
  -1  15  -3   75.93    2.62   4
   1  15   3   72.00    1.90   2
  -2 -15  -3    7.07    0.84   3
   2  15   3    7.27    0.77   2
  -2  15  -3    6.85    1.05   4
   2 -15   3    6.83    0.77   1
  -2 -15  -3    6.35    0.84   4
   3  15   3    1.58    0.68   2
   3 -15   3    2.02    0.71   1
  -3 -15  -3    0.65    0.66   3
  -3  15  -3    1.33    0.96   4
  -4  15  -3   19.61    1.69   4
  -4 -15  -3   20.75    1.42   3
   4  15   3   20.97    1.38   2
   4 -15   3   21.82    1.40   1
  -6  16   3   -0.61    0.79   3
  -6 -16   3    1.46    0.82   2
   6 -16  -3    1.52    0.94   4
   6 -16  -3    0.98    0.73   1
   6  16  -3    0.56    0.90   1
   5 -16  -3    2.77    0.94   4
   5 -16  -3    4.52    0.71   1
  -5  16   3    3.43    0.86   3
  -5 -16   3    3.05    0.80   2
   5  16  -3    4.27    0.89   1
  -4  16   3    1.89    0.66   3
   4 -16  -3    1.15    0.80   4
   4  16  -3    1.93    0.68   1
   4 -16  -3    1.89    0.56   1
  -4 -16   3    2.63    0.71   2
   3 -16  -3   10.25    1.09   4
  -3 -16   3   10.12    0.88   2
   3  16  -3   11.69    0.81   5
  -3  16   3   11.57    0.99   3
   3 -16  -3   11.21    0.83   1
   3  16  -3   10.65    0.90   1
  -2  16   3    7.02    0.74   3
  -2 -16   3    7.23    0.76   1
  -2 -16   3    7.39    0.73   2
   2 -16  -3    6.39    0.94   4
   2  16  -3    7.03    0.86   4
  -1 -16   3   -0.35    0.47   1
   1 -16  -3    0.05    0.62   4
  -1  16   3    0.14    0.47   3
  -1 -16   3    0.68    0.46   2
   1  16  -3   -0.72    0.59   4
   0  16   3    4.84    0.58   2
   0 -16  -3    4.20    0.80   4
   0 -16   3    3.31    0.54   2
   0  16  -3    5.46    0.91   4
   0 -16  -3    5.08    0.69   3
   0 -16   3    4.91    0.65   1
  -1  16  -3    2.71    0.86   4
   1 -16   3    3.02    0.60   1
  -1 -16  -3    2.38    0.65   3
   1  16   3    3.64    0.61   2
  -1 -16  -3    2.45    0.72   4
  -2 -16  -3   -0.07    0.59   3
   2 -16   3    0.66    0.60   1
  -2 -16  -3    1.38    0.63   4
   2  16   3    0.01    0.55   2
  -2  16  -3   -0.14    0.83   4
   3 -16   3    8.71    0.96   1
   3  16   3    8.79    0.93   2
  -3 -16  -3    8.26    1.00   3
  -3  16  -3    9.79    1.37   4
  -4 -16  -3    1.12    0.80   3
   4 -16   3    1.28    0.73   1
  -4  16  -3    0.80    1.10   4
   4  16   3    1.21    0.78   2
   5 -17  -3    1.26    0.93   4
  -5 -17   3    0.94    0.75   2
   5 -17  -3    2.26    0.68   1
   5  17  -3    1.44    0.84   1
  -5  17   3    1.87    0.82   3
   4 -17  -3   13.05    1.28   4
  -4  17   3   11.49    1.00   3
   4  17  -3   11.13    1.01   1
   4 -17  -3   13.62    0.98   1
  -4 -17   3   11.31    0.99   2
   3  17  -3   18.50    1.14   1
  -3  17   3   17.00    1.14   3
   3  17  -3   17.39    0.98   5
   3 -17  -3   17.11    1.44   4
  -3 -17   3   18.45    1.15   2
  -2 -17   3    3.83    0.66   2
   2  17  -3    3.37    0.77   4
   2 -17  -3    3.49    0.83   4
  -2 -17   3    2.91    0.66   1
  -2  17   3    3.46    0.65   3
  -1 -17   3    0.45    0.48   2
   1  17  -3   -0.45    0.64   4
  -1  17   3   -0.02    0.50   3
  -1 -17   3   -0.14    0.48   1
   1 -17  -3    0.66    0.64   4
   0 -17  -3    0.51    0.69   4
   0 -17   3    0.32    0.51   1
   0  17  -3   -0.14    0.72   4
  -1 -17  -3    3.52    0.77   4
  -1 -17  -3    3.21    0.69   3
  -1  17  -3    1.68    0.89   4
   1  17   3    2.80    0.61   2
   1 -17   3    2.51    0.60   1
   2  17   3   12.90    1.07   2
  -2 -17  -3   13.40    1.17   3
  -2  17  -3   14.33    1.44   4
   2 -17   3   13.54    1.07   1
   3 -17   3   18.33    1.30   1
  -3 -17  -3   21.50    1.40   3
   3  17   3   20.03    1.34   2
  -3  17  -3   20.50    2.06   4
  -5  18   3   10.35    1.13   3
   5  18  -3    7.46    1.08   1
   5 -18  -3    8.64    1.28   4
  -5 -18   3   11.05    1.11   2
   5 -18  -3   11.79    1.08   1
  -4  18   3    8.60    0.95   3
  -4 -18   3    9.83    0.97   2
   4  18  -3    9.27    0.98   1
   4 -18  -3    8.42    0.81   1
   4 -18  -3    8.46    1.18   4
   3  18  -3   19.23    1.18   1
   3 -18  -3   19.59    1.56   4
   3  18  -3   18.67    1.03   5
  -3  18   3   16.48    1.15   3
  -3 -18   3   19.10    1.19   2
   2 -18  -3   16.20    1.42   4
  -2 -18   3   16.21    1.08   2
  -2 -18   3   15.33    1.15   1
  -2  18   3   14.70    1.06   3
   2  18  -3   15.75    1.60   4
  -1 -18   3   19.80    1.18   1
   1 -18  -3   20.21    1.46   4
  -1 -18   3   20.63    1.11   2
   1  18  -3   17.78    1.69   4
  -1  18   3   21.62    1.17   3
   0  18  -3   -0.83    0.75   4
   0  18   3   -1.02    0.50   3
   0 -18   3    0.28    0.52   1
   0 -18  -3    0.18    0.67   4
   1  18   3    0.77    0.57   2
   1 -18   3    1.02    0.59   1
  -1 -18  -3    2.04    0.75   4
  -1  18  -3    2.19    0.96   4
  -1 -18  -3    1.27    0.63   3
  -2  18  -3   23.90    2.01   4
   2  18   3   19.26    1.24   2
   2 -18   3   18.11    1.23   1
  -2 -18  -3   18.50    1.34   3
   3 -18   3   12.51    1.12   1
  -3  18  -3   15.00    1.67   4
   3  18   3   14.64    1.25   2
  -3 -18  -3   15.44    1.34   3
  -5  19   3   40.65    1.89   3
   5 -19  -3   36.90    2.23   4
  -5 -19   3   39.08    1.84   2
   5  19  -3   37.19    1.84   1
   4 -19  -3   -0.04    0.84   4
  -4  19   3    0.86    0.69   3
   4  19  -3    1.03    0.71   1
  -4 -19   3    0.34    0.66   2
  -3 -19   3    2.37    0.71   2
   3  19  -3    2.38    0.63   5
   3 -19  -3    2.59    0.92   4
   3  19  -3    2.89    0.73   1
  -3  19   3    2.17    0.71   3
  -2  19   3    2.93    0.69   3
  -2 -19   3    2.60    0.66   2
   2 -19  -3    3.70    0.92   4
  -2 -19   3    3.79    0.77   1
   1  19  -3    2.01    0.87   4
   1 -19  -3    2.57    0.84   4
  -1 -19   3    3.20    0.70   1
  -1  19   3    2.65    0.66   3
   0  19   3   19.33    1.22   3
   0 -19   3   17.94    1.16   1
   0  19  -3   20.80    1.84   4
   0 -19  -3   18.96    1.42   4
  -1 -19  -3   16.90    1.26   3
   1 -19   3   18.42    1.18   1
  -1  19  -3   19.19    1.89   4
  -1 -19  -3   17.17    1.40   4
   2  19   3    1.24    0.71   2
  -2 -19  -3    0.39    0.73   3
  -2  19  -3    0.44    1.12   4
   2 -19   3    1.14    0.67   1
  -3 -19  -3    0.05    0.77   3
   3  19   3   -1.19    0.66   2
  -4  20   3    4.62    0.89   3
   4  20  -3    5.69    0.93   1
   4 -20  -3    4.90    1.15   4
  -4 -20   3    6.52    0.94   2
   3  20  -3   -0.28    0.55   5
  -3 -20   3   -0.15    0.63   2
   3 -20  -3   -0.09    0.81   4
  -3  20   3   -0.16    0.61   3
   3  20  -3    0.71    0.65   1
  -2  20   3    9.79    0.94   3
  -2 -20   3    9.91    0.90   2
  -2 -20   3   10.01    0.99   1
   2 -20  -3   10.47    1.22   4
   1 -20  -3    1.02    0.76   4
   1  20  -3   -0.34    0.84   4
  -1  20   3    0.61    0.62   3
  -1 -20   3    0.10    0.64   1
   0 -20   3    4.85    0.82   1
   0  20   3    3.26    0.75   3
   0 -20  -3    4.13    0.91   4
   0  20  -3    3.87    1.08   4
  -1  20  -3    7.92    1.37   4
   1 -20   3    7.91    0.91   1
  -1 -20  -3    8.22    0.99   3
  -1 -20  -3    8.94    1.09   4
  -2  20  -3   -0.07    1.13   4
   2 -20   3   -0.35    0.65   1
  -2 -20  -3    0.06    0.74   3
   2  20   3   -0.42    0.69   2
  -3 -21   3   -0.07    0.66   2
   3  21  -3    0.66    0.70   1
  -3  21   3    0.40    0.64   3
   3 -21  -3    1.49    0.88   4
   3  21  -3   -0.41    0.59   5
   2 -21  -3    0.64    0.84   4
  -2 -21   3   -1.38    0.62   1
  -2  21   3   -0.63    0.61   3
   1  21  -3    1.51    0.95   4
  -1 -21   3    1.01    0.72   1
   1 -21  -3    0.72    0.83   4
  -1  21   3    1.95    0.71   3
   0 -21   3    3.24    0.81   1
   0 -21  -3    2.37    0.89   4
   0  21  -3    1.63    1.05   4
   0  21   3    1.88    0.74   3
  -1  21  -3    1.06    1.16   4
  -1 -21  -3    1.73    0.77   3
   1 -21   3    2.64    0.77   1
  -1 -21  -3    2.67    0.91   4
   3  22  -3    0.51    0.64   5
  -3  22   3    0.27    0.70   3
   3 -22  -3    0.37    0.92   4
   3  22  -3    0.44    0.71   1
  -3 -22   3   -0.30    0.69   2
  -2 -22   3    1.63    0.81   1
  -2  22   3    1.33    0.70   3
   2 -22  -3    2.07    1.00   4
   1 -22  -3    0.13    0.83   4
  -1  22   3   -0.69    0.60   3
  -1 -22   3   -1.38    0.65   1
   1  22  -3   -0.43    0.95   4
   0 -22  -3    0.15    0.88   4
   0 -22   3    0.46    0.74   1
   0  22   3    0.88    0.71   3
   0  22  -3   -0.15    1.04   4
  -1 -22  -3    1.32    0.89   4
   1 -22   3    1.49    0.74   1
   8   0  -4    6.47    1.02   1
  -8   0   4    6.55    1.01   3
  -7   0   4   -0.34    0.60   3
   7   0  -4    0.43    0.70   1
  -6   0   4   81.37    2.28   3
  -6   0   4   82.31    2.10   2
   6   0  -4   82.35    2.29   1
  -5   0   4    0.82    0.42   2
  -5   0   4    0.47    0.47   3
   5   0  -4    0.07    0.55   1
  -4   0   4   12.91    0.78   3
   4   0  -4   12.51    0.91   1
  -4   0   4   12.12    0.71   2
   4   0  -4   13.70    0.89   4
   3   0  -4    0.04    0.38   4
   3   0  -4    0.37    0.36   1
  -3   0   4    0.15    0.26   3
  -3   0   4    0.00    0.24   2
   2   0  -4   56.58    1.69   4
  -2   0   4   55.85    1.33   2
   2   0  -4   56.20    1.34   1
  -2   0   4   55.22    1.27   3
  -1   0   4    0.11    0.24   2
   1   0  -4    0.21    0.22   1
  -1   0   4   -0.07    0.15   3
   1   0  -4   -0.13    0.18   5
   1   0  -4    0.32    0.44   4
   0   0   4   25.51    0.91   2
   0   0  -4   27.09    1.35   4
   0   0  -4   25.92    0.78   3
   0   0   4   25.67    0.78   1
  -1   0  -4    0.01    0.59   4
   1   0   4   -0.23    0.26   1
  -1   0  -4   -0.10    0.29   3
   1   0   4   -0.20    0.37   2
   2   0   4    1.04    0.47   2
  -2   0  -4    0.78    0.66   4
  -2   0  -4    0.00    0.39   3
  -3   0  -4   -0.90    0.64   4
   3   0   4    0.67    0.51   2
  -3   0  -4    0.16    0.49   3
  -4   0  -4   67.87    2.11   3
  -4   0  -4   64.76    2.36   4
   4   0   4   70.47    2.06   2
   5   0   4   -1.21    0.72   2
  -5   0  -4   -0.27    0.73   3
   8   1  -4    3.01    0.92   1
  -8  -1   4    2.80    0.90   3
  -8   1   4    2.88    0.89   3
   8  -1  -4    2.58    0.89   1
  -7  -1   4   17.95    1.22   3
   7   1  -4   19.08    1.33   1
   7  -1  -4   19.97    1.32   1
  -7   1   4   16.92    1.21   3
  -6   1   4    2.45    0.63   3
  -6  -1   4    2.23    0.64   3
   6   1  -4    2.91    0.72   1
   6  -1  -4    2.44    0.70   1
  -6  -1   4    1.87    0.55   2
  -5   1   4   36.25    1.22   2
  -5   1   4   35.01    1.32   3
   5   1  -4   35.12    1.42   1
  -5  -1   4   37.35    1.31   3
   5  -1  -4   36.18    1.39   1
  -5  -1   4   37.31    1.26   2
   4   1  -4   16.67    0.98   4
  -4   1   4   17.05    0.80   2
   4  -1  -4   18.16    0.97   4
  -4  -1   4   19.11    0.84   3
   4   1  -4   17.42    1.02   1
  -4  -1   4   19.38    0.84   2
  -4   1   4   17.55    0.89   3
   4  -1  -4   19.07    0.98   1
  -3  -1   4   24.07    0.85   2
   3   1  -4   23.61    1.08   4
   3  -1  -4   23.41    0.95   1
  -3  -1   4   23.87    0.81   3
   3   1  -4   24.77    0.95   1
  -3   1   4   23.74    0.86   3
   3  -1  -4   24.08    1.12   4
  -3   1   4   22.97    0.81   2
   2  -1  -4  207.46    4.46   4
  -2  -1   4  208.75    3.78   3
   2   1  -4  208.31    3.87   1
   2  -1  -4  206.54    3.83   1
  -2   1   4  206.66    3.70   2
  -2  -1   4  201.88    3.70   2
  -2   1   4  207.13    3.84   3
   2   1  -4  205.82    4.44   4
  -1   1   4   30.94    0.86   3
  -1  -1   4   30.67    0.95   2
  -1   1   4   30.75    0.96   2
   1  -1  -4   30.98    0.83   1
   1  -1  -4   31.35    1.30   4
  -1  -1   4   31.18    0.78   3
   1   1  -4   31.88    1.39   4
  -1  -1   4   30.87    0.92   1
   1  -1  -4   30.91    0.70   5
   0   1   4    7.37    0.64   2
   0   1  -4    9.31    0.47   3
   0  -1   4    8.84    0.57   1
   0   1  -4    8.57    0.76   4
   0  -1  -4    8.65    0.76   4
   0  -1  -4    8.63    0.51   3
   0   1   4    7.95    0.45   1
   0  -1   4    7.96    0.64   2
   1  -1   4  274.50    4.99   1
   1   1   4  279.70    4.95   2
  -1  -1  -4  276.60    5.91   4
  -1   1  -4  268.73    5.06   3
  -1  -1  -4  267.41    5.12   3
  -1   1  -4  276.86    5.94   4
   1   1   4  278.94    4.91   1
   1  -1   4  277.85    4.93   2
  -2  -1  -4   49.19    1.48   3
   2  -1   4   51.91    1.50   2
  -2   1  -4   52.23    1.47   3
   2   1   4   48.85    1.49   2
  -2  -1  -4   50.62    1.90   4
  -2   1  -4   51.94    1.96   4
   2  -1   4   48.55    1.31   1
   3   1   4   13.34    1.01   2
  -3   1  -4   13.23    0.96   3
  -3   1  -4   12.37    1.08   4
  -3  -1  -4   13.89    1.05   3
   3  -1   4   13.37    1.05   2
  -3  -1  -4   13.47    1.23   4
  -4   1  -4    1.14    0.81   4
   4  -1   4   -0.27    0.62   2
   4   1   4   -0.03    0.63   2
  -4   1  -4    0.11    0.58   3
  -4  -1  -4   -0.54    0.65   3
   5   1   4    3.02    0.87   2
  -5  -1  -4    2.86    0.89   3
   5  -1   4    3.99    0.86   2
   8  -2  -4    3.50    0.94   1
  -8   2   4    2.96    0.89   3
   8   2  -4    2.31    0.92   1
  -8  -2   4    2.26    0.84   3
  -7  -2   4    0.32    0.64   3
   7   2  -4    0.13    0.72   1
   7  -2  -4    0.04    0.70   1
  -7   2   4    0.66    0.64   3
   6   2  -4    0.09    0.62   1
  -6  -2   4    0.89    0.50   2
   6  -2  -4    0.14    0.62   1
  -6  -2   4    0.35    0.53   3
  -6   2   4    0.31    0.55   3
  -5   2   4   58.90    1.77   3
  -5   2   4   57.92    1.57   2
  -5  -2   4   63.26    1.70   2
  -5  -2   4   64.04    1.76   3
   5  -2  -4   61.32    1.79   1
   5   2  -4   60.28    1.84   1
   4  -2  -4  189.37    3.76   1
   4   2  -4  190.18    4.03   4
  -4   2   4  188.64    3.50   2
  -4   2   4  187.70    3.79   3
   4  -2  -4  184.25    4.13   4
  -4  -2   4  186.88    3.59   2
   4   2  -4  190.04    3.83   1
  -4  -2   4  184.98    3.70   3
   3   2  -4   38.52    1.21   1
  -3  -2   4   40.04    1.13   2
  -3  -2   4   41.17    1.07   3
   3  -2  -4   40.45    1.17   1
  -3   2   4   38.84    1.15   3
   3  -2  -4   39.85    1.42   4
   3   2  -4   39.89    1.35   4
  -3   2   4   39.28    1.05   2
   2   2  -4  100.13    2.09   1
   2   2  -4   97.62    1.77   5
  -2  -2   4   97.81    1.92   3
  -2   2   4   98.68    2.05   3
  -2  -2   4   96.53    2.03   2
  -2   2   4  100.34    2.00   2
   2  -2  -4   98.68    2.01   1
   2  -2  -4   97.88    2.50   4
   2   2  -4   99.79    2.49   4
  -1  -2   4  271.45    4.79   3
  -1  -2   4  267.11    4.74   2
  -1   2   4  269.75    4.93   3
  -1   2   4  268.43    4.74   2
  -1  -2   4  276.96    4.93   1
   1   2  -4  267.24    5.69   4
   1  -2  -4  272.14    4.80   1
   1  -2  -4  274.55    5.70   4
   0  -2   4   27.19    0.86   1
   0   2  -4   28.18    0.74   3
   0  -2   4   27.02    0.93   2
   0  -2  -4   26.48    0.85   3
   0  -2  -4   28.17    1.31   4
   0   2  -4   27.84    1.39   4
   0   2   4   26.69    0.70   1
   0   2   4   26.69    0.96   2
   1   2   4   53.65    1.47   2
  -1  -2  -4   52.87    1.88   4
  -1   2  -4   55.57    1.33   3
  -1   2  -4   55.39    1.96   4
   1  -2   4   51.58    1.44   2
   1  -2   4   54.08    1.32   1
  -1  -2  -4   54.05    1.44   3
   2  -2   4    5.23    0.59   2
  -2  -2  -4    5.01    0.56   3
  -2   2  -4    3.63    0.48   3
   2  -2   4    4.20    0.45   1
  -2   2  -4    4.77    0.80   4
   2   2   4    3.46    0.56   2
  -2  -2  -4    3.28    0.74   4
   3  -2   4    3.43    0.60   2
  -3   2  -4    2.41    0.56   3
  -3   2  -4    3.58    0.84   4
  -3  -2  -4    2.89    0.59   3
   3   2   4    1.81    0.58   2
  -3  -2  -4    3.12    0.74   4
   4  -2   4   -1.01    0.58   2
  -4  -2  -4   -1.21    0.62   3
  -4   2  -4    0.16    0.78   4
   4   2   4    0.69    0.65   2
   5   2   4   -0.43    0.74   2
  -5  -2  -4   -0.69    0.73   3
  -8   3   4    0.43    0.79   3
   8  -3  -4    1.42    0.81   1
   8   3  -4    0.76    0.85   1
  -8  -3   4    2.23    0.83   3
   7   3  -4   15.42    1.27   1
   7  -3  -4   13.21    1.16   1
  -7   3   4   13.31    1.17   3
  -7  -3   4   13.33    1.00   2
  -6  -3   4   17.12    1.08   3
   6   3  -4   18.94    1.23   1
  -6   3   4   16.63    1.10   3
  -6  -3   4   18.63    1.08   2
   6  -3  -4   18.96    1.16   1
  -5  -3   4   22.90    1.11   3
   5  -3  -4   23.82    1.19   1
   5   3  -4   25.14    1.31   1
  -5   3   4   25.32    1.01   2
  -5  -3   4   23.60    1.10   2
  -5   3   4   24.40    1.20   3
  -4   3   4   40.91    1.21   2
   4   3  -4   44.58    1.48   1
   4  -3  -4   44.78    1.40   1
  -4  -3   4   44.44    1.31   3
  -4   3   4   44.93    1.40   3
   4  -3  -4   42.17    1.56   4
  -4  -3   4   47.22    1.36   2
  -3  -3   4   13.80    0.71   2
  -3  -3   4   13.14    0.61   3
  -3   3   4   12.13    0.62   2
   3  -3  -4   13.72    0.76   1
  -3   3   4   13.68    0.71   3
   3   3  -4   14.18    0.80   1
   3   3  -4   14.24    0.93   4
   3  -3  -4   15.38    0.99   4
  -2   3   4   38.25    1.04   3
   2   3  -4   36.05    0.94   5
  -2  -3   4   36.26    1.05   2
   2   3  -4   35.15    1.08   1
   2  -3  -4   35.07    0.99   1
   2  -3  -4   34.19    1.34   4
   2   3  -4   35.15    1.42   4
  -2  -3   4   35.25    0.84   3
  -2   3   4   35.34    1.00   2
  -1  -3   4   42.12    1.14   1
   1  -3  -4   42.38    0.98   1
  -1  -3   4   43.03    1.15   2
  -1   3   4   44.86    1.18   2
   1   3  -4   43.11    1.62   4
  -1   3   4   42.98    1.11   3
   1  -3  -4   43.04    1.54   4
   0  -3   4    7.94    0.62   2
   0  -3   4    8.62    0.61   1
   0   3  -4    9.13    0.81   4
   0   3   4    7.86    0.55   2
   0  -3  -4    8.26    0.58   3
   0  -3  -4    9.43    0.79   4
  -1  -3  -4   16.09    1.21   4
   1   3   4   16.32    0.89   2
   1  -3   4   15.37    0.84   2
  -1   3  -4   17.31    0.70   3
  -1  -3  -4   17.14    0.82   3
   1  -3   4   15.46    0.71   1
  -1   3  -4   18.97    1.37   4
  -2   3  -4   14.82    1.40   4
   2  -3   4   15.78    0.79   1
   2   3   4   14.21    0.95   2
   2  -3   4   16.22    0.96   2
  -2  -3  -4   16.28    0.90   3
  -2  -3  -4   15.33    1.21   4
  -2   3  -4   14.49    0.83   3
   3   3   4    1.79    0.62   2
   3  -3   4    2.11    0.56   2
  -3   3  -4    2.10    0.82   4
   3  -3   4    3.38    0.52   1
  -3  -3  -4    2.07    0.57   3
  -3  -3  -4    2.90    0.73   4
  -4  -3  -4    2.59    0.77   3
   4   3   4    3.64    0.76   2
   4  -3   4    4.24    0.74   2
  -4   3  -4    3.27    0.93   4
   5   3   4   -0.13    0.79   2
  -5  -3  -4    0.96    0.81   3
   8  -4  -4    2.20    0.83   1
   8   4  -4   -0.28    0.81   1
  -8  -4   4   -0.50    0.70   3
  -8   4   4    0.16    0.75   3
   7  -4  -4   -0.57    0.67   1
  -7   4   4   -0.01    0.64   3
   7   4  -4    0.36    0.74   1
  -7  -4   4    0.16    0.65   3
  -7  -4   4    0.88    0.61   2
  -6  -4   4    0.80    0.53   2
  -6  -4   4    0.92    0.54   3
  -6   4   4    0.18    0.54   3
   6   4  -4    0.30    0.64   1
   6  -4  -4    0.33    0.59   1
   5  -4  -4   82.52    2.16   1
   5   4  -4   83.88    2.28   1
  -5  -4   4   85.42    2.14   3
  -5  -4   4   85.25    2.13   2
  -5   4   4   82.71    2.23   3
  -4  -4   4   60.58    1.64   2
  -4  -4   4   60.21    1.57   3
   4   4  -4   61.09    1.79   1
  -4   4   4   60.64    1.71   3
   4  -4  -4   62.64    1.67   1
  -4   4   4   59.82    1.47   2
   4  -4  -4   62.13    1.92   4
  -3   4   4    8.97    0.57   2
   3  -4  -4    9.33    0.87   4
  -3  -4   4    9.53    0.59   3
  -3  -4   4    9.84    0.67   2
   3  -4  -4   10.19    0.71   1
   3   4  -4    9.67    0.77   1
   3   4  -4    9.30    0.70   4
  -3   4   4   12.83    0.72   3
   2  -4  -4  140.28    3.26   4
   2   4  -4  135.72    2.34   5
  -2   4   4  134.81    2.58   2
   2   4  -4  137.53    3.22   4
  -2  -4   4  134.12    2.66   2
   2  -4  -4  135.08    2.60   1
   2   4  -4  134.25    2.76   1
  -2   4   4  137.54    2.76   3
  -1   4   4   25.40    0.94   2
   1   4  -4   26.16    1.39   4
   1  -4  -4   32.41    1.30   4
  -1   4   4   28.73    0.89   3
  -1  -4   4   26.23    0.92   2
  -1  -4   4   26.63    0.96   1
   0   4  -4   11.98    0.89   4
   0  -4  -4   12.63    0.68   3
   0  -4  -4   11.65    1.04   4
   0  -4   4   11.94    0.67   1
   0   4   4   10.97    0.76   2
   0  -4   4   12.80    0.72   2
  -1   4  -4    5.92    0.77   4
   1  -4   4    5.84    0.48   1
  -1  -4  -4    6.19    0.52   3
   1   4   4    5.61    0.54   2
  -1  -4  -4    4.99    0.73   4
   1  -4   4    4.66    0.49   2
  -2  -4  -4    3.99    0.71   4
  -2   4  -4    2.94    0.78   4
  -2  -4  -4    4.17    0.55   3
   2  -4   4    3.46    0.51   2
   2  -4   4    4.03    0.50   1
   2   4   4    2.81    0.58   2
   3   4   4   10.00    0.85   2
  -3  -4  -4   10.28    0.99   4
  -3  -4  -4   10.88    0.98   3
   3  -4   4   11.12    0.79   2
  -3   4  -4   10.55    1.10   4
   3  -4   4    9.85    0.82   1
  -4   4  -4    0.44    0.85   4
   4  -4   4    0.53    0.59   2
   4   4   4    1.03    0.66   2
  -4  -4  -4    0.27    0.64   3
   5   4   4   51.17    1.99   2
  -5  -4  -4   46.30    1.99   3
  -8  -5   4    0.51    0.77   3
   8   5  -4    0.57    0.87   1
  -8   5   4    0.61    0.80   3
   8  -5  -4    0.88    0.76   1
   7  -5  -4    0.05    0.67   1
  -7  -5   4   -0.34    0.58   2
  -7  -5   4    0.52    0.67   3
  -7   5   4   -0.85    0.62   3
   7   5  -4    0.35    0.79   1
   6   5  -4   14.98    1.17   1
  -6   5   4   14.48    1.06   3
   6  -5  -4   13.34    1.05   1
  -6  -5   4   15.87    1.10   3
  -6  -5   4   12.58    1.02   2
  -5  -5   4   89.63    2.24   3
  -5   5   4   87.15    2.33   3
   5   5  -4   89.50    2.38   1
   5  -5  -4   88.97    2.49   4
  -5  -5   4   91.98    2.25   2
   4  -5  -4  174.80    3.53   1
   4  -5  -4  176.56    4.05   4
   4   5  -4  174.22    3.69   1
  -4   5   4  175.63    3.67   3
  -4  -5   4  173.41    3.47   3
  -4  -5   4  176.27    3.50   2
  -4   5   4  171.26    3.23   2
  -3   5   4   33.56    1.15   3
  -3  -5   4   35.38    0.95   3
   3  -5  -4   34.88    1.07   1
  -3   5   4   32.17    0.95   2
   3   5  -4   33.65    1.22   1
  -3  -5   4   35.18    1.13   2
   3  -5  -4   33.76    1.38   4
   3   5  -4   32.12    1.44   4
   2   5  -4    4.05    0.61   4
  -2  -5   4    2.90    0.39   2
  -2   5   4    2.82    0.40   3
  -2   5   4    3.05    0.37   2
   2   5  -4    2.75    0.37   5
   2  -5  -4    2.91    0.35   1
   2  -5  -4    3.19    0.59   4
   2   5  -4    3.03    0.43   1
  -1  -5   4  803.40   13.91   1
   1  -5  -4  805.65   15.56   4
  -1  -5   4  794.72   13.13   2
  -1   5   4  802.50   14.01   3
   1   5  -4  813.58   15.51   4
  -1   5   4  785.89   13.11   2
   0  -5   4   74.82    1.68   2
   0   5  -4   76.41    2.23   4
   0   5   4   71.62    1.72   2
   0  -5  -4   70.15    2.13   4
   0  -5  -4   70.09    1.73   3
   0  -5   4   74.49    1.71   1
  -1  -5  -4    0.91    0.36   3
   1  -5   4    1.06    0.35   1
   1  -5   4    1.08    0.36   2
   1   5   4   -0.05    0.40   2
  -1  -5  -4    0.02    0.54   4
  -1   5  -4    0.62    0.59   4
   2  -5   4  173.16    3.36   2
   2  -5   4  171.77    3.50   1
  -2  -5  -4  174.89    3.67   3
   2   5   4  173.78    3.48   2
  -2   5  -4  174.51    4.25   4
  -2  -5  -4  167.59    4.05   4
   3  -5   4    3.86    0.61   1
   3  -5   4    4.21    0.59   2
  -3  -5  -4    3.32    0.66   3
  -3   5  -4    2.87    0.89   4
   3   5   4    4.21    0.69   2
  -3  -5  -4    3.55    0.72   4
   4  -5   4    1.43    0.59   1
  -4   5  -4    1.31    0.94   4
  -4  -5  -4    1.45    0.73   3
   4   5   4    1.24    0.69   2
  -5  -5  -4   -0.10    0.78   3
   5   5   4    0.89    0.81   2
  -7  -6   4    3.94    0.78   3
  -7   6   4    3.08    0.84   3
  -7  -6   4    3.86    0.76   2
   7   6  -4    3.88    0.90   1
   7  -6  -4    3.44    0.81   1
  -6  -6   4    0.34    0.50   3
  -6   6   4    0.34    0.59   3
   6  -6  -4    0.54    0.58   1
   6   6  -4    0.20    0.67   1
  -6  -6   4   -0.36    0.50   2
   5  -6  -4    1.46    0.57   4
   5   6  -4    0.49    0.60   1
  -5  -6   4    0.27    0.45   3
  -5  -6   4    0.47    0.49   2
   5  -6  -4    0.45    0.54   1
  -5   6   4    0.32    0.52   3
   4  -6  -4  337.49    7.09   4
   4   6  -4  334.04    6.40   1
  -4   6   4  339.85    6.44   3
   4  -6  -4  336.09    6.23   1
  -4  -6   4  338.71    6.22   3
  -4  -6   4  332.62    6.09   2
   3   6  -4  368.53    6.70   1
  -3   6   4  357.29    6.71   3
   3  -6  -4  363.85    6.50   1
  -3  -6   4  365.06    6.46   3
  -3   6   4  355.00    6.10   2
   3   6  -4  362.65    5.61   5
   3  -6  -4  365.34    7.51   4
   3   6  -4  361.64    7.33   4
  -3  -6   4  353.93    6.36   2
  -2   6   4  276.60    4.88   2
  -2  -6   4  292.83    5.31   1
  -2   6   4  283.83    5.30   3
   2  -6  -4  280.11    5.03   1
  -2  -6   4  281.73    5.04   2
   2   6  -4  283.51    5.92   4
   2  -6  -4  276.78    6.00   4
   1  -6  -4   10.67    0.87   4
  -1   6   4   14.00    0.73   3
  -1   6   4   12.68    0.71   2
   1   6  -4   14.64    1.19   4
  -1  -6   4   13.25    0.76   1
  -1  -6   4   10.29    0.74   2
   0   6   4  165.85    3.17   2
   0  -6  -4  165.39    3.34   3
   0  -6   4  164.41    3.11   2
   0   6  -4  168.33    3.91   4
   0  -6  -4  156.88    3.83   4
   0  -6   4  164.73    3.26   1
   1  -6   4    7.17    0.65   1
  -1  -6  -4    8.37    0.74   3
  -1   6  -4    8.43    0.87   4
  -1  -6  -4    8.01    0.82   4
   1  -6   4    7.72    0.56   2
   1   6   4    8.11    0.66   2
  -2  -6  -4    0.59    0.48   3
   2  -6   4    0.62    0.41   2
  -2   6  -4    0.41    0.68   4
   2  -6   4    1.13    0.45   1
   2   6   4    0.77    0.49   2
  -2  -6  -4    0.72    0.60   4
   3   6   4   18.34    1.12   2
  -3  -6  -4   18.08    1.27   4
  -3  -6  -4   19.42    1.16   3
   3  -6   4   18.31    1.05   1
  -3   6  -4   16.42    1.61   4
   3  -6   4   19.15    1.00   2
  -4  -6  -4   -0.23    0.61   3
   4   6   4   -0.57    0.61   2
  -4   6  -4   -1.42    0.82   4
   4  -6   4    0.96    0.58   1
  -5  -6  -4    3.58    0.92   3
   5   6   4    3.38    0.91   2
  -7  -7   4    3.22    0.75   3
   7   7  -4    2.82    0.89   1
  -7  -7   4    3.23    0.77   2
  -7   7   4    3.00    0.82   3
   7  -7  -4    3.75    0.81   1
   6  -7  -4    8.29    0.83   1
  -6   7   4    5.61    0.81   3
  -6  -7   4    7.30    0.76   3
   6   7  -4    6.54    0.91   1
  -6  -7   4    8.63    0.84   2
  -5  -7   4    3.48    0.66   2
   5  -7  -4    4.18    0.66   1
   5   7  -4    4.13    0.74   1
  -5   7   4    4.24    0.71   3
  -5  -7   4    3.97    0.58   3
   5  -7  -4    4.35    0.73   4
   4  -7  -4   28.55    1.21   1
   4   7  -4   31.51    1.34   1
  -4   7   4   30.32    1.31   3
  -4  -7   4   27.62    1.25   2
  -4  -7   4   28.59    1.14   3
   4  -7  -4   29.69    1.50   4
   3   7  -4  714.54   10.50   5
   3   7  -4  719.07   13.81   4
  -3   7   4  715.60   12.70   3
  -3  -7   4  711.80   11.95   2
  -3   7   4  714.59   11.63   2
  -3  -7   4  709.69   12.39   3
   3  -7  -4  710.70   14.04   4
   3  -7  -4  709.13   12.39   1
   3   7  -4  707.70   12.59   1
   2  -7  -4    9.61    0.74   1
   2  -7  -4   11.19    1.06   4
   2   7  -4   15.15    1.24   4
  -2   7   4   13.05    0.70   2
  -2  -7   4   14.62    0.85   1
  -2   7   4   13.34    0.80   3
  -2  -7   4   11.49    0.77   2
  -1   7   4   10.32    0.68   2
  -1  -7   4    9.77    0.70   2
  -1   7   4    7.38    0.69   3
   1  -7  -4    8.87    0.84   4
  -1  -7   4   11.40    0.74   1
   1   7  -4   13.06    1.18   4
   0  -7   4  107.23    2.19   2
   0  -7  -4  105.19    2.37   3
   0  -7  -4  102.08    2.80   4
   0   7   4  102.68    2.22   2
   0   7  -4  107.73    2.87   4
   0  -7   4  101.40    2.28   1
  -1   7  -4    1.67    0.67   4
   1  -7   4    1.17    0.41   1
  -1  -7  -4    2.07    0.64   4
   1  -7   4    1.12    0.37   2
  -1  -7  -4    1.50    0.45   3
   1   7   4    0.69    0.46   2
   2  -7   4   19.29    0.98   1
  -2   7  -4   18.98    1.57   4
   2  -7   4   17.03    0.90   2
  -2  -7  -4   17.95    1.06   3
  -2  -7  -4   19.31    1.27   4
   2   7   4   17.79    1.03   2
   3  -7   4   10.05    0.80   2
  -3  -7  -4    9.72    0.92   4
  -3  -7  -4    9.59    0.88   3
  -3   7  -4    8.76    1.12   4
   3  -7   4   10.08    0.80   1
   3   7   4    9.92    0.86   2
  -4   7  -4    4.73    1.10   4
   4   7   4    6.27    0.88   2
   4  -7   4    5.72    0.78   1
  -4  -7  -4    7.41    0.91   3
  -5  -7  -4   -0.81    0.75   3
   5   7   4    0.16    0.78   2
  -7  -8   4    0.93    0.72   2
   7   8  -4    1.77    0.87   1
  -7   8   4    2.72    0.83   3
   7  -8  -4    2.24    0.75   1
  -7  -8   4    2.12    0.74   3
   6  -8  -4    2.65    0.66   1
  -6   8   4    2.34    0.71   3
   6   8  -4    1.56    0.75   1
  -6  -8   4    1.33    0.64   2
  -6  -8   4    2.08    0.60   3
  -5  -8   4    0.13    0.54   2
  -5  -8   4    0.77    0.45   3
  -5   8   4    0.29    0.56   3
   5   8  -4    0.07    0.61   1
   5  -8  -4    0.62    0.55   1
   5  -8  -4    0.82    0.60   4
  -4  -8   4    3.67    0.48   3
  -4   8   4    2.71    0.62   3
  -4  -8   4    2.78    0.62   2
   4  -8  -4    3.47    0.74   4
   4   8  -4    4.55    0.71   1
   4  -8  -4    3.66    0.60   1
  -3  -8   4    3.53    0.61   2
   3  -8  -4    2.31    0.72   4
   3   8  -4    4.66    0.69   4
   3  -8  -4    2.70    0.55   1
   3   8  -4    4.50    0.56   5
  -3   8   4    4.28    0.41   2
   2   8  -4    5.58    0.68   4
  -2   8   4    4.37    0.44   2
  -2  -8   4    5.98    0.58   1
   2  -8  -4    4.16    0.71   4
  -2   8   4    5.13    0.53   3
  -2  -8   4    5.46    0.54   2
   2  -8  -4    5.51    0.40   1
  -1   8   4   30.11    0.97   2
  -1   8   4   21.78    1.05   3
  -1  -8   4   26.85    0.98   2
  -1  -8   4   27.49    1.03   1
   1  -8  -4   24.45    1.32   4
   1   8  -4   31.51    1.49   4
   0  -8  -4   14.59    1.18   4
   0  -8   4   18.10    0.85   1
   0  -8  -4   16.66    0.91   3
   0  -8   4   16.54    0.80   2
   0   8  -4   19.67    1.41   4
   0   8   4   16.98    0.88   2
   1  -8   4    2.11    0.41   2
   1   8   4    1.30    0.48   2
  -1  -8  -4    1.50    0.48   3
   1  -8   4    1.74    0.46   1
  -1  -8  -4    1.19    0.62   4
  -1   8  -4    1.84    0.70   4
  -2  -8  -4    1.78    0.63   4
   2  -8   4    1.25    0.49   1
  -2   8  -4    1.60    0.75   4
  -2  -8  -4    1.25    0.51   3
   2  -8   4    1.37    0.42   2
   2   8   4    0.98    0.55   2
  -3   8  -4    1.01    0.87   4
   3  -8   4    1.22    0.56   1
  -3  -8  -4    0.45    0.59   3
   3   8   4    0.77    0.61   2
  -3  -8  -4    1.15    0.65   4
   4   8   4   11.79    1.04   2
  -4   8  -4   11.08    1.33   4
  -4  -8  -4   12.87    1.19   3
   4  -8   4   12.01    1.10   1
   5   8   4   10.81    1.12   2
  -5  -8  -4    9.66    1.14   3
  -7   9   4   -0.45    0.70   3
  -7  -9   4   -0.37    0.64   2
   7   9  -4    0.85    0.80   1
  -7  -9   4    0.17    0.63   3
   7  -9  -4    0.48    0.67   1
  -6   9   4    0.87    0.64   3
  -6  -9   4    1.65    0.66   2
   6   9  -4    1.16    0.73   1
   6  -9  -4    1.21    0.63   1
  -6  -9   4    1.32    0.57   3
  -5   9   4    8.85    0.86   3
  -5  -9   4    8.37    0.84   2
   5  -9  -4   10.24    0.97   4
   5   9  -4    9.47    0.94   1
  -5  -9   4    8.75    0.69   3
   5  -9  -4   10.13    0.81   1
  -4   9   4   72.33    2.04   3
  -4  -9   4   71.42    2.01   2
   4  -9  -4   72.02    1.90   1
   4  -9  -4   70.67    2.34   4
   4   9  -4   74.63    2.08   1
  -3  -9   4   11.95    1.00   2
   3   9  -4   13.72    0.92   5
   3   9  -4   12.61    1.00   1
  -3   9   4   12.96    1.01   3
   3  -9  -4   13.23    0.90   1
   3  -9  -4   12.59    1.05   4
   3   9  -4   16.91    1.34   4
  -2   9   4  437.19    8.08   3
  -2   9   4  449.28    7.39   2
   2   9  -4  444.85    8.90   4
   2  -9  -4  432.36    9.06   4
  -2  -9   4  436.55    8.02   1
   2  -9  -4  432.87    7.66   1
  -2  -9   4  436.17    7.62   2
  -1  -9   4   24.88    0.97   2
   1  -9  -4   23.42    1.34   4
  -1  -9   4   24.49    1.02   1
  -1   9   4   24.53    0.93   2
   1   9  -4   26.18    1.45   4
   0   9   4    4.87    0.54   2
   0  -9   4    4.63    0.53   1
   0  -9  -4    4.78    0.55   3
   0  -9  -4    4.50    0.73   4
   0   9  -4    5.12    0.75   4
   0  -9   4    4.44    0.48   2
  -1  -9  -4  129.38    2.96   3
  -1  -9  -4  126.16    3.32   4
   1  -9   4  128.20    2.85   1
   1  -9   4  128.49    2.61   2
  -1   9  -4  134.47    3.51   4
   2  -9   4    0.62    0.49   1
  -2   9  -4   -0.96    0.70   4
  -2  -9  -4    1.37    0.53   3
  -2  -9  -4    0.36    0.58   4
   2  -9   4    0.87    0.40   2
   2   9   4    0.10    0.52   2
   3  -9   4    4.40    0.68   1
  -3  -9  -4    4.93    0.76   3
   3   9   4    4.23    0.73   2
  -3   9  -4    2.42    0.98   4
  -4   9  -4    0.63    1.00   4
   4   9   4    1.58    0.77   2
  -4  -9  -4    0.75    0.70   3
   4  -9   4    2.05    0.69   1
  -7 -10   4   -0.49    0.65   2
   7  10  -4   -0.81    0.80   1
  -7  10   4    0.28    0.76   3
   7 -10  -4   -0.21    0.65   1
  -6 -10   4   13.95    1.14   2
   6 -10  -4   13.99    1.04   1
  -6  10   4   13.56    1.18   3
   6  10  -4   14.19    1.17   1
   5 -10  -4    1.64    0.56   1
   5  10  -4    0.81    0.67   1
  -5 -10   4    1.94    0.63   2
  -5  10   4    0.90    0.63   3
   5 -10  -4    1.93    0.71   4
  -4  10   4    1.36    0.55   3
  -4 -10   4    1.48    0.58   2
   4 -10  -4    0.56    0.68   4
   4 -10  -4    1.34    0.51   1
   4  10  -4    1.11    0.60   1
   3  10  -4   24.62    1.05   5
  -3  10   4   25.19    1.22   3
   3  10  -4   24.17    1.18   1
  -3 -10   4   18.81    1.17   2
   3 -10  -4   20.95    1.47   4
   3 -10  -4   22.80    0.97   1
   3  10  -4   23.70    1.54   4
   2 -10  -4  393.08    8.33   4
  -2 -10   4  394.68    6.97   2
   2  10  -4  402.71    8.13   4
  -2  10   4  386.63    6.69   2
  -2  10   4  400.16    7.40   3
  -2 -10   4  394.18    7.34   1
   1 -10  -4   29.08    1.49   4
  -1  10   4   30.21    1.03   2
  -1 -10   4   30.11    1.06   2
   1  10  -4   33.03    1.59   4
  -1  10   4   23.91    1.16   3
  -1 -10   4   28.68    1.12   1
   0 -10  -4   58.66    2.03   4
   0 -10  -4   58.03    1.69   3
   0 -10   4   55.78    1.61   1
   0 -10   4   57.73    1.50   2
   0  10   4   57.33    1.56   2
   0  10  -4   60.05    2.15   4
  -1 -10  -4    8.00    0.87   4
   1  10   4    8.58    0.72   2
   1 -10   4    8.68    0.71   1
  -1 -10  -4    8.56    0.76   3
   1 -10   4    8.81    0.76   2
  -1  10  -4   10.16    1.02   4
  -2  10  -4   14.42    1.26   4
  -2 -10  -4   13.06    1.06   3
  -2 -10  -4   14.20    1.17   4
   2 -10   4   13.85    0.99   1
   2 -10   4   14.91    0.82   2
   2  10   4   13.13    1.00   2
   3  10   4   12.36    1.00   2
  -3 -10  -4   13.90    1.12   3
   3 -10   4   13.46    1.06   1
  -3  10  -4   12.28    1.36   4
   4 -10   4    3.40    0.76   1
   4  10   4    2.51    0.82   2
  -4  10  -4    0.72    1.11   4
  -4 -10  -4    2.23    0.78   3
  -7  11   4   -0.05    0.75   3
   7 -11  -4    0.76    0.70   1
   7  11  -4   -1.28    0.79   1
  -7 -11   4   -0.64    0.71   2
  -6  11   4    0.23    0.67   3
   6  11  -4    0.97    0.77   1
  -6 -11   4    0.81    0.65   2
   6 -11  -4    0.56    0.61   1
   5 -11  -4   10.08    0.90   1
  -5 -11   4    9.33    0.88   2
  -5  11   4    9.34    0.92   3
   5 -11  -4    9.12    0.99   4
   5  11  -4    8.47    0.93   1
   4 -11  -4   44.43    1.88   4
  -4 -11   4   43.00    1.57   2
   4 -11  -4   43.33    1.39   1
   4  11  -4   43.28    1.59   1
  -3  11   4  260.68    5.16   3
   3  11  -4  254.05    4.32   5
   3 -11  -4  253.30    4.81   1
  -3 -11   4  257.79    4.94   2
   3  11  -4  251.47    5.09   1
   3  11  -4  264.59    5.58   4
   2  11  -4    5.57    0.71   4
   2 -11  -4    4.52    0.80   4
  -2  11   4    5.20    0.61   3
  -2 -11   4    5.52    0.63   1
  -2 -11   4    4.42    0.60   2
   1  11  -4   -0.19    0.54   4
   1 -11  -4   -0.83    0.51   4
  -1  11   4   -0.24    0.35   2
  -1  11   4   -1.17    0.38   3
  -1 -11   4    0.36    0.37   2
  -1 -11   4    0.75    0.44   1
   0 -11   4    8.88    0.63   2
   0  11   4    7.56    0.65   2
   0 -11  -4    7.95    0.71   3
   0  11  -4    8.42    0.90   4
   0 -11   4    8.58    0.79   1
   0 -11  -4    7.38    0.88   4
   1 -11   4  146.65    2.90   2
  -1  11  -4  147.43    3.83   4
  -1 -11  -4  142.07    3.69   4
   1  11   4  140.39    3.03   2
   2 -11   4   -0.13    0.49   1
  -2 -11  -4    0.81    0.60   4
  -2 -11  -4   -0.54    0.52   3
  -2  11  -4   -0.20    0.78   4
   2  11   4    0.08    0.53   2
  -3  11  -4    1.24    1.02   4
   3  11   4    1.75    0.72   2
   3 -11   4    3.33    0.72   1
  -3 -11  -4    3.24    0.73   3
   4  11   4   14.51    1.17   2
   4 -11   4   19.97    1.33   1
  -4 -11  -4   16.70    1.33   3
  -4  11  -4   14.66    1.61   4
  -7  12   4   -0.31    0.76   3
  -7 -12   4   -1.35    0.68   2
   7  12  -4   -0.91    0.81   1
   7 -12  -4    0.04    0.65   1
   6 -12  -4    0.63    0.60   1
  -6  12   4    0.34    0.71   3
   6  12  -4   -0.93    0.71   1
  -6 -12   4   -0.35    0.63   2
   5 -12  -4    0.99    0.53   1
   5  12  -4   -0.64    0.66   1
  -5  12   4   -0.43    0.60   3
   5 -12  -4    1.15    0.69   4
  -5 -12   4    0.11    0.58   2
  -4 -12   4   33.27    1.42   2
   4  12  -4   32.73    1.42   1
  -4  12   4   32.88    1.44   3
   4 -12  -4   34.42    1.23   1
   4 -12  -4   32.96    1.70   4
   3  12  -4    5.61    0.68   1
   3 -12  -4    5.20    0.54   1
   3  12  -4    6.42    0.65   5
  -3  12   4    6.27    0.70   3
  -3 -12   4    4.87    0.67   2
   3 -12  -4    4.88    0.87   4
  -2  12   4   19.38    1.06   3
  -2 -12   4   17.36    1.03   1
  -2 -12   4   17.22    1.00   2
   2 -12  -4   16.45    1.32   4
   2  12  -4   18.15    1.35   4
  -1  12   4   44.58    1.53   3
  -1  12   4   43.80    1.30   2
  -1 -12   4   43.08    1.36   2
   1  12  -4   45.66    1.89   4
  -1 -12   4   45.14    1.48   1
   1 -12  -4   44.89    1.88   4
   0 -12  -4   20.61    1.38   4
   0 -12   4   20.75    1.03   1
   0 -12   4   22.43    0.96   2
   0 -12  -4   20.27    1.10   3
   0  12   4   21.15    1.01   2
   0  12  -4   21.59    1.58   4
   1 -12   4   21.40    0.97   2
  -1  12  -4   24.23    1.70   4
  -1 -12  -4   22.86    1.20   3
   1 -12   4   21.83    1.11   1
   1  12   4   22.13    1.11   2
  -1 -12  -4   21.93    1.46   4
  -2  12  -4    2.24    0.90   4
   2  12   4    2.29    0.64   2
   2 -12   4    2.56    0.62   1
  -2 -12  -4    2.59    0.67   3
  -2 -12  -4    1.12    0.71   4
   3 -12   4   21.17    1.29   1
   3  12   4   22.37    1.31   2
  -3  12  -4   23.07    2.01   4
  -3 -12  -4   21.30    1.37   3
  -4 -12  -4    9.71    1.06   3
  -4  12  -4    7.96    1.42   4
   4 -12   4    8.85    1.00   1
   4  12   4    8.66    1.04   2
  -6  13   4    5.71    0.91   3
   6 -13  -4    4.61    0.77   1
   6  13  -4    3.72    0.92   1
  -6 -13   4    3.05    0.83   2
  -5 -13   4    2.38    0.69   2
   5  13  -4    1.61    0.75   1
   5 -13  -4    3.56    0.85   4
   5 -13  -4    3.73    0.67   1
  -5  13   4    3.23    0.77   3
   4 -13  -4    8.83    0.99   4
   4  13  -4    7.93    0.85   1
  -4 -13   4    8.04    0.84   2
   4 -13  -4    8.79    0.78   1
  -4  13   4    7.76    0.85   3
   3 -13  -4   26.72    1.60   4
  -3 -13   4   25.96    1.27   2
   3  13  -4   28.85    1.28   1
   3  13  -4   27.55    1.13   5
  -3  13   4   27.14    1.26   3
   2 -13  -4    1.40    0.69   4
  -2  13   4    2.37    0.55   3
  -2 -13   4    2.27    0.55   2
  -2 -13   4    2.17    0.58   1
   2  13  -4    1.57    0.62   4
  -1  13   4   26.59    1.23   3
  -1  13   4   26.12    1.05   2
   1  13  -4   28.38    1.66   4
  -1 -13   4   28.30    1.14   2
   1 -13  -4   27.16    1.55   4
  -1 -13   4   28.77    1.22   1
   0 -13  -4    3.07    0.75   4
   0  13  -4    2.91    0.77   4
   0 -13  -4    3.17    0.60   3
   0 -13   4    3.55    0.52   2
   0 -13   4    3.70    0.59   1
   0  13   4    4.01    0.57   2
  -1 -13  -4    0.67    0.64   4
   1 -13   4    1.01    0.43   2
  -1  13  -4   -0.12    0.72   4
   1  13   4    0.46    0.53   2
  -1 -13  -4    0.44    0.53   3
   1 -13   4    1.21    0.53   1
  -2 -13  -4    0.51    0.67   4
   2  13   4    0.49    0.60   2
   2 -13   4    0.70    0.58   1
  -2  13  -4    0.80    0.87   4
  -2 -13  -4    0.21    0.58   3
   3  13   4    0.23    0.69   2
  -3 -13  -4    0.67    0.69   3
  -3  13  -4   -1.03    0.99   4
   3 -13   4   -0.72    0.64   1
   4  13   4    1.26    0.81   2
  -4 -13  -4    1.45    0.78   3
  -4  13  -4   -0.33    1.15   4
   4 -13   4    1.56    0.76   1
  -6  14   4    1.61    0.81   3
   6 -14  -4    2.83    0.72   1
  -6 -14   4    1.64    0.80   2
   6  14  -4    1.16    0.84   1
   5  14  -4    4.86    0.87   1
   5 -14  -4    5.71    0.71   1
  -5 -14   4    3.43    0.77   2
   5 -14  -4    4.41    0.89   4
  -5  14   4    4.87    0.85   3
   4  14  -4   11.94    1.08   1
   4 -14  -4   14.65    1.33   4
   4 -14  -4   12.23    0.87   1
  -4  14   4   12.83    1.09   3
  -4 -14   4   14.45    1.11   2
   3 -14  -4   64.68    2.39   4
   3  14  -4   66.17    1.72   5
  -3 -14   4   65.06    1.93   2
   3  14  -4   66.77    1.98   1
  -3  14   4   64.92    1.98   3
  -2  14   4    1.13    0.54   3
   2 -14  -4    0.77    0.67   4
  -2 -14   4    0.86    0.56   1
  -2 -14   4    1.10    0.51   2
   2  14  -4    1.10    0.61   4
  -1 -14   4    3.18    0.62   1
  -1  14   4    2.79    0.60   3
  -1 -14   4    3.08    0.54   2
   1  14  -4    2.72    0.73   4
   1 -14  -4    3.58    0.78   4
   0 -14  -4    6.90    0.93   4
   0  14  -4    7.87    1.01   4
   0 -14   4    6.24    0.63   2
   0 -14  -4    7.22    0.79   3
   0 -14   4    7.89    0.75   1
   0  14   4    7.11    0.69   2
  -1  14  -4    4.62    0.96   4
   1  14   4    3.80    0.66   2
   1 -14   4    4.40    0.66   1
  -1 -14  -4    3.23    0.78   4
  -1 -14  -4    3.61    0.70   3
   2 -14   4   14.48    1.07   1
   2  14   4   15.48    1.11   2
  -2  14  -4   15.65    1.45   4
  -2 -14  -4   14.10    1.18   3
  -2 -14  -4   16.93    1.41   4
   3 -14   4    0.13    0.67   1
  -3 -14  -4    0.39    0.71   3
   3  14   4   -0.27    0.67   2
  -3  14  -4   -1.35    1.06   4
  -6  15   4    2.08    0.88   3
   6 -15  -4    1.41    0.93   4
   6  15  -4    1.96    0.93   1
   6 -15  -4    2.83    0.74   1
  -6 -15   4    1.69    0.82   2
   5 -15  -4    7.80    1.10   4
   5  15  -4    7.96    0.98   1
   5 -15  -4    9.31    0.83   1
  -5 -15   4    8.65    0.95   2
  -5  15   4    7.71    0.98   3
  -4 -15   4    1.97    0.68   2
   4 -15  -4    2.24    0.80   4
   4  15  -4    1.40    0.56   5
  -4  15   4    0.80    0.64   3
   4  15  -4    1.51    0.66   1
   3  15  -4   10.17    0.88   1
   3  15  -4    8.23    0.75   5
  -3 -15   4    8.49    0.82   2
  -3  15   4    9.14    0.83   3
   3 -15  -4    9.92    1.06   4
  -2  15   4   -0.26    0.48   3
  -2 -15   4    0.19    0.53   1
   2  15  -4   -0.02    0.60   4
   2 -15  -4   -0.20    0.66   4
  -2 -15   4    0.01    0.47   2
  -1 -15   4    0.27    0.52   1
  -1 -15   4    0.08    0.45   2
  -1  15   4    0.34    0.52   3
   1  15  -4    0.16    0.62   4
   1 -15  -4   -0.02    0.64   4
   0  15   4   32.61    1.28   2
   0 -15  -4   30.47    1.40   3
   0  15  -4   32.97    1.94   4
   0 -15   4   32.72    1.35   1
   0 -15   4   32.14    1.23   2
   0 -15  -4   34.14    1.74   4
  -1 -15  -4    0.59    0.69   4
   1 -15   4    0.34    0.52   1
  -1  15  -4    0.55    0.82   4
   1  15   4    0.31    0.55   2
  -1 -15  -4    0.39    0.59   3
   2  15   4   10.04    0.94   2
  -2  15  -4   10.43    1.41   4
  -2 -15  -4   11.23    1.04   3
  -2 -15  -4   11.77    1.13   4
   2 -15   4    9.27    0.93   1
   3 -15   4   28.59    1.51   1
  -3  15  -4   27.01    2.28   4
  -3 -15  -4   27.83    1.58   3
   3  15   4   27.25    1.50   2
   6 -16  -4   13.89    1.44   4
  -6  16   4   14.96    1.34   3
  -6 -16   4   13.02    1.21   2
   6 -16  -4   11.73    1.03   1
   6  16  -4   12.50    1.31   1
  -5 -16   4    3.07    0.80   2
   5  16  -4    2.45    0.84   1
  -5  16   4    3.90    0.87   3
   5 -16  -4    2.55    0.94   4
   4 -16  -4   11.50    1.17   4
  -4 -16   4   11.45    0.99   2
   4  16  -4   11.62    1.00   1
   4  16  -4    9.56    0.82   5
  -4  16   4   10.57    0.98   3
   3 -16  -4    1.25    0.74   4
   3  16  -4    1.66    0.61   1
  -3  16   4    1.20    0.59   3
   3  16  -4    0.59    0.51   5
  -3 -16   4    0.21    0.59   2
  -2 -16   4    7.72    0.77   2
  -2  16   4    7.90    0.81   3
   2 -16  -4    6.91    0.98   4
  -2 -16   4    8.42    0.84   1
   1 -16  -4    3.68    0.86   4
  -1 -16   4    3.72    0.61   2
  -1  16   4    3.95    0.68   3
  -1 -16   4    3.13    0.66   1
   1  16  -4    3.49    0.84   4
   0  16   4   26.93    1.21   2
   0 -16  -4   29.39    1.66   4
   0  16  -4   30.14    1.94   4
   0 -16  -4   24.49    1.32   3
   0 -16   4   26.56    1.27   1
  -1  16  -4    0.60    0.90   4
   1 -16   4    1.02    0.61   1
  -1 -16  -4    1.20    0.66   3
   1  16   4    0.96    0.61   2
  -1 -16  -4    1.25    0.72   4
   2  16   4   10.96    0.98   2
   2 -16   4    9.67    0.99   1
  -2  16  -4   12.02    1.52   4
  -2 -16  -4   11.53    1.10   3
  -3 -16  -4    5.72    0.99   3
   3 -16   4    6.16    0.93   1
  -3  16  -4    4.43    1.39   4
   3  16   4    5.80    0.92   2
  -5 -17   4   15.34    1.29   2
  -5  17   4   14.98    1.34   3
   5 -17  -4   16.79    1.66   4
   5  17  -4   17.16    1.34   1
  -4  17   4    0.89    0.68   3
   4  17  -4    2.01    0.72   1
   4  17  -4    1.99    0.63   5
   4 -17  -4    2.22    0.86   4
  -4 -17   4    1.70    0.70   2
   3  17  -4    9.05    0.81   5
  -3 -17   4    8.86    0.91   2
  -3  17   4   10.55    0.96   3
   3 -17  -4   10.71    1.19   4
   3  17  -4   10.69    0.95   1
  -2  17   4    0.81    0.58   3
   2  17  -4    0.56    0.70   4
  -2 -17   4   -0.10    0.58   1
  -2 -17   4    0.63    0.56   2
   2 -17  -4    1.09    0.76   4
   1  17  -4    9.78    1.11   4
  -1 -17   4    8.85    0.80   2
   1 -17  -4    8.46    1.07   4
  -1 -17   4    8.00    0.85   1
  -1  17   4    8.27    0.86   3
   0 -17   4    3.19    0.69   1
   0 -17  -4    2.05    0.79   4
   0  17  -4    1.96    0.93   4
   1 -17   4    3.96    0.75   1
  -1 -17  -4    4.83    0.84   3
   1  17   4    4.82    0.77   2
  -1 -17  -4    5.54    0.91   4
  -1  17  -4    3.58    1.15   4
  -2  17  -4    3.43    1.27   4
  -2 -17  -4    4.57    0.92   3
   2  17   4    4.99    0.84   2
   2 -17   4    5.10    0.85   1
  -5  18   4    3.36    0.92   3
   5  18  -4    2.66    0.91   1
  -5 -18   4    3.66    0.89   2
   5 -18  -4    2.98    1.07   4
  -4 -18   4    0.12    0.65   2
  -4  18   4    0.04    0.64   3
   4 -18  -4   -0.18    0.78   4
   4  18  -4    1.52    0.64   5
   4  18  -4    0.08    0.69   1
   3  18  -4    1.05    0.56   5
   3 -18  -4    1.64    0.83   4
  -3 -18   4    0.66    0.63   2
  -3  18   4    0.55    0.63   3
   3  18  -4    1.28    0.65   1
  -2 -18   4   15.37    1.17   1
   2 -18  -4   16.19    1.46   4
   2  18  -4   16.97    1.69   4
  -2 -18   4   17.05    1.16   2
  -2  18   4   16.85    1.16   3
   1 -18  -4    5.17    0.99   4
   1  18  -4    4.00    0.98   4
  -1  18   4    5.68    0.82   3
  -1 -18   4    3.78    0.76   1
  -1 -18   4    5.53    0.72   2
   0 -18   4    9.89    0.92   1
   0  18   4    9.15    0.92   3
   0 -18  -4    7.83    1.05   4
   0  18  -4    5.70    1.13   4
   1 -18   4    0.38    0.65   1
  -1  18  -4    0.43    1.03   4
   1  18   4    0.55    0.65   2
  -1 -18  -4    0.27    0.70   3
  -1 -18  -4    0.68    0.75   4
   2  18   4    1.77    0.77   2
  -2 -18  -4    2.19    0.83   3
  -2  18  -4    1.67    1.20   4
   2 -18   4    3.08    0.79   1
  -4  19   4   -0.22    0.66   3
   4  19  -4   -1.06    0.62   1
  -4 -19   4    0.55    0.70   2
   4  19  -4   -0.49    0.57   5
   4 -19  -4    0.14    0.85   4
   3 -19  -4    0.15    0.78   4
  -3  19   4    0.35    0.62   3
   3  19  -4   -0.51    0.54   5
   3  19  -4    0.71    0.65   1
  -3 -19   4   -0.86    0.60   2
   2 -19  -4    2.11    0.91   4
  -2 -19   4    2.54    0.77   1
  -2  19   4    3.47    0.73   3
  -2 -19   4    2.60    0.70   2
  -1  19   4   -0.20    0.58   3
  -1 -19   4    0.26    0.62   1
   1  19  -4   -0.50    0.82   4
   1 -19  -4   -0.39    0.73   4
   0  19   4    1.91    0.70   3
   0  19  -4    0.59    0.94   4
   0 -19  -4    1.45    0.82   4
   0 -19   4    0.24    0.65   1
  -1 -19  -4    0.48    0.74   3
  -1 -19  -4   -0.45    0.77   4
   1 -19   4   -0.11    0.62   1
  -1  19  -4    0.10    1.08   4
  -2  19  -4   -0.64    1.18   4
  -2 -19  -4    0.97    0.80   3
   2  19   4    1.97    0.77   2
   2 -19   4    1.49    0.72   1
   4  20  -4    3.28    0.85   1
  -4  20   4    1.51    0.79   3
  -4 -20   4    2.14    0.80   2
   4 -20  -4    1.86    0.97   4
   4  20  -4    3.07    0.73   5
  -3  20   4   -0.69    0.63   3
   3  20  -4    0.74    0.62   5
  -3 -20   4    0.48    0.65   2
   3 -20  -4    1.03    0.85   4
   3  20  -4    0.72    0.70   1
  -2 -20   4    0.18    0.71   1
   2 -20  -4    0.30    0.79   4
  -2 -20   4    0.38    0.63   2
  -2  20   4    0.54    0.65   3
   1  20  -4   -1.23    0.87   4
   1 -20  -4   -0.14    0.77   4
  -1 -20   4   -0.47    0.65   1
  -1  20   4   -0.44    0.60   3
   0  20  -4    5.75    1.24   4
   0  20   4    7.06    0.95   3
   0 -20   4    4.81    0.90   1
   0 -20  -4    5.92    1.08   4
  -1 -20  -4    6.25    1.11   4
  -1  20  -4    5.52    1.36   4
   1 -20   4    5.96    0.91   1
  -1 -20  -4    5.44    0.95   3
   3 -21  -4    1.46    0.94   4
   3  21  -4    1.21    0.67   5
  -3  21   4    0.19    0.69   3
   3  21  -4    1.04    0.75   1
  -3 -21   4   -0.29    0.70   2
  -2  21   4    7.63    0.98   3
   2 -21  -4    7.14    1.17   4
  -2 -21   4    5.26    0.95   1
   1  21  -4    3.36    1.14   4
  -1 -21   4    3.91    0.89   1
   1 -21  -4    1.67    0.96   4
  -1  21   4    2.89    0.79   3
   0  21  -4   17.20    1.68   4
   0 -21   4   16.59    1.34   1
   0  21   4   18.11    1.39   3
   0 -21  -4   16.98    1.66   4
   8   0  -5    0.34    0.80   1
  -8   0   5   -0.47    0.72   3
   7   0  -5    2.72    0.83   1
  -7   0   5    2.47    0.71   3
   6   0  -5    0.57    0.62   1
  -6   0   5    0.64    0.48   2
  -6   0   5    0.04    0.49   3
  -5   0   5    0.70    0.42   2
   5   0  -5    1.58    0.58   1
  -5   0   5    2.04    0.49   3
   4   0  -5   -0.23    0.48   4
  -4   0   5   -0.06    0.33   2
   4   0  -5   -0.05    0.46   1
  -4   0   5   -0.11    0.36   3
   3   0  -5   98.56    2.64   4
  -3   0   5   99.74    2.15   2
   3   0  -5  103.02    2.25   1
  -3   0   5   98.48    2.14   3
  -2   0   5    0.16    0.23   3
   2   0  -5    0.16    0.31   1
  -2   0   5   -0.18    0.31   2
   2   0  -5   -0.52    0.52   4
   1   0  -5   77.20    1.45   5
   1   0  -5   77.97    1.71   1
  -1   0   5   78.32    1.83   2
   1   0  -5   80.04    2.40   4
  -1   0   5   79.25    1.68   3
   0   0   5   -0.44    0.39   2
   0   0  -5    0.32    0.66   4
   0   0  -5   -0.05    0.28   3
   1   0   5   74.61    1.94   2
  -1   0  -5   77.30    2.51   4
   2   0   5   -0.62    0.51   2
  -2   0  -5    0.44    0.74   4
  -3   0  -5    4.69    0.93   4
   3   0   5    5.51    0.78   2
   4   0   5    0.04    0.75   2
  -8  -1   5    0.02    0.75   3
  -8   1   5    0.63    0.77   3
   8  -1  -5   -0.02    0.79   1
   8   1  -5   -0.12    0.84   1
   7  -1  -5    7.14    0.97   1
  -7   1   5    7.00    0.88   3
   7   1  -5    6.20    0.94   1
  -7  -1   5    7.13    0.87   3
  -6  -1   5    0.56    0.49   2
  -6  -1   5    0.45    0.54   3
   6   1  -5    0.17    0.62   1
   6  -1  -5    0.55    0.61   1
  -6   1   5    0.01    0.52   3
  -5  -1   5    0.31    0.40   2
  -5   1   5   -0.17    0.41   3
  -5  -1   5    0.25    0.41   3
   5  -1  -5    0.03    0.53   1
  -5   1   5   -0.10    0.37   2
   5   1  -5   -0.05    0.54   1
   4  -1  -5    0.09    0.46   1
  -4  -1   5   -0.08    0.35   2
   4  -1  -5    0.06    0.51   4
   4   1  -5    0.21    0.47   1
   4   1  -5    0.57    0.49   4
  -4   1   5    0.34    0.37   3
  -4   1   5   -0.31    0.31   2
  -4  -1   5   -0.19    0.33   3
   3   1  -5    9.83    0.78   1
   3   1  -5    8.89    0.80   4
  -3  -1   5    7.52    0.60   3
   3  -1  -5    7.26    0.77   4
   3  -1  -5    8.70    0.63   1
  -3   1   5    8.39    0.65   2
  -3  -1   5    8.02    0.68   2
  -3   1   5    8.34    0.65   3
   2  -1  -5   43.15    1.18   1
  -2  -1   5   42.96    1.06   3
   2   1  -5   40.48    1.65   4
  -2   1   5   41.49    1.23   2
  -2   1   5   43.87    1.14   3
  -2  -1   5   44.68    1.26   2
   2   1  -5   43.07    1.22   1
   2  -1  -5   43.76    1.67   4
   1  -1  -5    6.37    0.55   1
  -1   1   5    6.11    0.55   2
  -1  -1   5    6.31    0.54   2
  -1  -1   5    6.03    0.49   3
  -1  -1   5    6.73    0.50   1
  -1   1   5    6.63    0.59   3
   1  -1  -5    6.58    0.48   5
   1   1  -5    4.66    0.79   4
   1  -1  -5    5.11    0.79   4
   0  -1  -5   81.87    2.51   4
   0  -1   5   79.88    1.93   2
   0  -1   5   79.00    1.79   1
   0  -1  -5   78.92    1.81   3
   0   1  -5   80.38    2.55   4
   0   1   5   81.11    1.94   2
   1  -1   5   17.10    1.00   2
  -1   1  -5   15.71    1.48   4
   1   1   5   16.70    1.00   2
  -1  -1  -5   17.43    1.43   4
  -1  -1  -5   15.92    0.86   3
  -2   1  -5   11.49    1.15   4
   2   1   5   13.19    1.05   2
   2  -1   5   13.24    1.05   2
  -2  -1  -5   13.62    0.89   3
  -2  -1  -5   13.44    1.33   4
  -3  -1  -5    1.59    0.79   4
   3  -1   5    0.17    0.63   2
  -3   1  -5    1.33    0.87   4
   3   1   5    0.47    0.63   2
   4  -1   5   17.24    1.46   2
   4   1   5   15.48    1.17   2
   8  -2  -5    0.51    0.80   1
  -8  -2   5    0.10    0.79   3
   8   2  -5    0.18    0.83   1
  -8   2   5    1.01    0.78   3
  -7   2   5    5.61    0.84   3
  -7  -2   5    5.45    0.83   3
   7  -2  -5    5.89    0.91   1
   7   2  -5    6.87    0.96   1
  -6   2   5    1.86    0.61   3
  -6  -2   5    3.85    0.64   3
   6  -2  -5    2.40    0.69   1
   6   2  -5    2.69    0.73   1
  -6  -2   5    3.37    0.61   2
  -5  -2   5    0.26    0.44   3
   5   2  -5    0.16    0.59   1
  -5   2   5    0.87    0.40   2
  -5  -2   5    1.02    0.45   2
   5  -2  -5    0.83    0.55   1
  -5   2   5    0.66    0.49   3
  -4   2   5    0.45    0.39   3
   4   2  -5    0.11    0.49   4
  -4  -2   5    0.49    0.34   3
  -4  -2   5    0.13    0.38   2
   4  -2  -5    0.22    0.50   4
   4  -2  -5    0.58    0.48   1
  -4   2   5    0.13    0.34   2
   4   2  -5   -0.05    0.48   1
   3  -2  -5   28.36    1.36   4
  -3   2   5   29.58    0.99   2
   3  -2  -5   29.63    1.07   1
  -3  -2   5   29.48    1.04   2
  -3   2   5   28.33    0.99   3
   3   2  -5   29.50    1.10   1
  -3  -2   5   29.22    0.90   3
   3   2  -5   29.20    1.36   4
   2   2  -5   44.52    1.12   5
   2   2  -5   45.21    1.29   1
   2  -2  -5   47.44    1.74   4
   2  -2  -5   47.96    1.23   1
  -2  -2   5   47.51    1.31   2
  -2   2   5   46.67    1.31   2
  -2  -2   5   45.77    1.09   3
  -2   2   5   47.14    1.24   3
   2   2  -5   44.32    1.76   4
   1  -2  -5  126.66    2.47   1
  -1   2   5  131.07    2.61   3
   1  -2  -5  129.64    3.30   4
  -1   2   5  129.45    2.65   2
  -1  -2   5  123.41    2.62   1
  -1  -2   5  128.65    2.43   3
   1   2  -5  128.55    3.35   4
  -1  -2   5  131.04    2.65   2
   0  -2  -5   57.89    2.09   4
   0  -2  -5   54.55    1.45   3
   0  -2   5   52.56    1.53   2
   0   2   5   54.93    1.56   2
   0   2  -5   59.20    2.13   4
   0  -2   5   55.03    1.44   1
  -1   2  -5   20.06    1.50   4
  -1  -2  -5   20.36    0.94   3
   1   2   5   23.10    1.10   2
   1  -2   5   18.27    1.03   2
  -1  -2  -5   20.45    1.43   4
  -2   2  -5   23.43    1.67   4
  -2  -2  -5   24.89    1.53   4
   2  -2   5   27.21    1.25   2
  -2  -2  -5   26.01    1.15   3
   2   2   5   22.44    1.20   2
  -3  -2  -5    1.95    0.61   3
  -3   2  -5    2.87    0.94   4
   3  -2   5    2.10    0.68   2
  -3  -2  -5    2.74    0.84   4
   3   2   5    1.65    0.67   2
   4  -2   5    3.90    0.86   2
  -4   2  -5    3.60    1.11   4
   4   2   5    5.28    0.93   2
  -8  -3   5    8.57    1.04   3
  -8   3   5    8.11    1.04   3
   8   3  -5    7.40    1.09   1
   8  -3  -5    9.46    1.10   1
   7   3  -5    3.26    0.88   1
  -7  -3   5    2.79    0.73   3
   7  -3  -5    2.71    0.79   1
  -7   3   5    2.44    0.72   3
  -7  -3   5    2.39    0.69   2
   6   3  -5    0.27    0.63   1
  -6  -3   5    0.66    0.53   2
  -6  -3   5   -0.10    0.49   3
   6  -3  -5    0.67    0.60   1
  -6   3   5    0.53    0.52   3
   5  -3  -5   62.34    1.79   1
  -5  -3   5   61.91    1.71   3
  -5   3   5   57.18    1.58   2
  -5  -3   5   60.19    1.73   2
  -5   3   5   61.25    1.80   3
  -4  -3   5   -0.10    0.38   2
   4  -3  -5    0.45    0.50   4
  -4   3   5   -0.02    0.32   2
   4   3  -5   -0.55    0.49   4
   4  -3  -5   -0.06    0.45   1
   4   3  -5    0.40    0.50   1
  -4  -3   5    0.28    0.33   3
  -4   3   5   -0.05    0.39   3
   3   3  -5    6.03    0.74   4
   3  -3  -5    7.24    0.57   1
   3   3  -5    6.67    0.62   1
  -3  -3   5    6.90    0.52   3
   3  -3  -5    7.00    0.78   4
  -3   3   5    6.49    0.53   3
  -3  -3   5    8.88    0.71   2
  -3   3   5    7.74    0.54   2
  -2   3   5   55.11    1.45   3
   2   3  -5   56.47    1.30   5
   2  -3  -5   55.05    1.89   4
  -2   3   5   56.45    1.47   2
   2  -3  -5   57.30    1.37   1
   2   3  -5   54.59    1.48   1
  -2  -3   5   55.71    1.48   2
   2   3  -5   52.78    1.98   4
  -1  -3   5  265.84    4.77   2
  -1  -3   5  260.02    4.91   1
  -1   3   5  266.26    4.78   2
   1  -3  -5  256.50    4.68   1
  -1   3   5  258.02    4.90   3
   1   3  -5  267.83    5.81   4
   1  -3  -5  268.01    5.80   4
   0  -3   5   41.64    1.33   2
   0   3  -5   42.28    1.88   4
   0   3   5   43.27    1.36   2
   0  -3   5   44.18    1.27   1
   0  -3  -5   44.22    1.81   4
   0  -3  -5   41.68    1.26   3
  -1  -3  -5   18.21    1.37   4
  -1  -3  -5   21.06    0.97   3
   1  -3   5   20.88    1.02   2
   1  -3   5   19.35    0.85   1
   1   3   5   21.20    1.08   2
  -1   3  -5   20.46    1.53   4
   2  -3   5    5.09    0.67   2
  -2   3  -5    4.32    0.96   4
  -2  -3  -5    4.42    0.61   3
  -2  -3  -5    4.81    0.87   4
   2   3   5    4.87    0.69   2
   3  -3   5    0.12    0.59   2
  -3  -3  -5    0.97    0.74   4
  -3   3  -5    0.76    0.90   4
  -3  -3  -5    0.51    0.56   3
   3   3   5    0.92    0.64   2
   4  -3   5    6.77    0.90   2
  -4  -3  -5    6.22    0.88   3
  -4   3  -5    5.61    1.20   4
   4   3   5    5.35    0.96   2
   7   4  -5    6.53    0.98   1
  -7   4   5    6.97    0.90   3
   7  -4  -5    7.22    0.94   1
  -7  -4   5    7.14    0.86   2
  -7  -4   5    7.84    0.92   3
  -6   4   5   -0.22    0.52   3
  -6  -4   5    0.59    0.52   3
   6  -4  -5   -0.04    0.58   1
   6   4  -5   -0.25    0.64   1
  -6  -4   5    0.24    0.51   2
   5   4  -5    0.76    0.64   1
   5  -4  -5    0.69    0.58   4
  -5  -4   5    0.80    0.46   3
  -5  -4   5    0.88    0.50   2
  -5   4   5    0.81    0.52   3
   5  -4  -5    0.50    0.54   1
  -4   4   5   11.87    0.87   3
   4  -4  -5   11.14    1.00   4
  -4  -4   5   11.60    0.84   2
  -4  -4   5   11.81    0.73   3
   4   4  -5   11.03    0.84   1
   4   4  -5    9.46    0.96   4
  -4   4   5   10.69    0.72   2
   4  -4  -5   11.59    0.84   1
   3  -4  -5   20.01    1.25   4
   3  -4  -5   20.68    0.88   1
   3   4  -5   18.63    0.98   1
   3   4  -5   18.45    1.25   4
  -3   4   5   19.14    0.88   3
  -3  -4   5   19.33    0.92   2
  -3   4   5   17.64    0.83   2
  -2  -4   5  386.23    6.79   2
   2   4  -5  393.68    5.95   5
   2  -4  -5  386.87    8.10   4
  -2   4   5  385.97    7.11   3
  -2   4   5  389.64    6.72   2
   2   4  -5  391.87    7.10   1
   2   4  -5  396.82    8.08   4
   2  -4  -5  387.51    6.88   1
   1   4  -5    1.65    0.70   4
  -1  -4   5    1.71    0.41   1
   1  -4  -5   -0.04    0.61   4
  -1   4   5    1.58    0.34   3
  -1   4   5    1.24    0.43   2
  -1  -4   5    1.18    0.42   2
   0   4  -5   73.80    2.45   4
   0  -4  -5   72.47    2.37   4
   0  -4   5   73.44    1.82   2
   0  -4  -5   73.55    1.82   3
   0   4   5   71.31    1.84   2
   0  -4   5   75.25    1.78   1
  -1  -4  -5   12.66    0.83   3
   1  -4   5   12.36    0.76   1
   1   4   5   10.93    0.80   2
   1  -4   5   13.17    0.87   2
  -1   4  -5   11.66    1.09   4
  -1  -4  -5   11.46    1.02   4
  -2  -4  -5    8.64    0.97   4
  -2  -4  -5   10.75    0.93   3
  -2   4  -5   10.03    1.14   4
   2   4   5    9.60    0.84   2
   2  -4   5    8.65    0.75   2
  -3  -4  -5    1.87    0.76   4
  -3   4  -5    2.15    1.01   4
   3   4   5    2.02    0.73   2
  -3  -4  -5    1.68    0.62   3
   3  -4   5    1.23    0.60   2
  -4   4  -5    9.27    1.38   4
   4   4   5   10.56    1.10   2
  -4  -4  -5   12.07    1.07   3
   4  -4   5    9.00    0.95   2
  -7  -5   5    3.60    0.73   3
   7   5  -5    2.27    0.87   1
  -7  -5   5    2.22    0.71   2
   7  -5  -5    2.16    0.78   1
  -7   5   5    2.50    0.77   3
  -6  -5   5    0.90    0.54   3
   6  -5  -5    0.56    0.60   1
  -6   5   5    0.27    0.55   3
  -6  -5   5    0.38    0.55   2
   6   5  -5    0.58    0.70   1
   5  -5  -5    1.58    0.62   4
  -5   5   5    1.80    0.59   3
  -5  -5   5    1.71    0.57   2
   5   5  -5    1.03    0.68   1
   5  -5  -5    2.14    0.60   1
  -5  -5   5    1.79    0.49   3
   4  -5  -5   43.71    1.36   1
  -4  -5   5   45.33    1.45   2
   4   5  -5   43.12    1.53   1
   4  -5  -5   43.05    1.72   4
  -4   5   5   41.36    1.22   2
  -4   5   5   42.99    1.46   3
   3  -5  -5   35.55    1.11   1
   3  -5  -5   36.03    1.56   4
  -3   5   5   33.45    1.19   3
   3   5  -5   32.29    1.61   4
  -3   5   5   32.28    1.09   2
  -3  -5   5   35.15    1.22   2
   3   5  -5   35.44    1.27   1
   3   5  -5   33.86    1.11   5
  -2   5   5   45.45    1.29   2
   2  -5  -5   43.31    1.14   1
   2   5  -5   47.67    1.35   1
  -2   5   5   47.84    1.35   3
   2  -5  -5   43.50    1.82   4
  -2  -5   5   44.40    1.36   2
   2   5  -5   43.28    1.86   4
   2   5  -5   47.00    1.19   5
   1  -5  -5   18.74    1.32   4
  -1   5   5   20.16    0.97   2
  -1   5   5   21.42    0.89   3
  -1  -5   5   20.83    0.96   1
  -1  -5   5   19.29    0.93   2
   1   5  -5   22.62    1.53   4
   0   5  -5  112.84    3.16   4
   0  -5  -5  114.16    2.54   3
   0   5   5  115.68    2.50   2
   0  -5  -5  109.98    3.08   4
   0  -5   5  112.06    2.46   1
   0  -5   5  111.66    2.43   2
   1  -5   5   26.38    1.05   1
   1  -5   5   28.65    1.14   2
  -1   5  -5   26.57    1.72   4
  -1  -5  -5   26.45    1.50   4
  -1  -5  -5   28.92    1.16   3
   1   5   5   29.38    1.23   2
   2  -5   5    0.57    0.49   2
  -2   5  -5    0.55    0.83   4
   2   5   5    0.58    0.56   2
   2  -5   5    0.28    0.43   1
  -2  -5  -5    0.86    0.49   3
  -2  -5  -5    0.54    0.65   4
  -3  -5  -5   14.71    1.14   3
  -3   5  -5   15.22    1.40   4
   3   5   5   13.88    1.06   2
   3  -5   5   13.50    1.09   2
  -3  -5  -5   12.77    1.15   4
  -4   5  -5   -0.22    1.14   4
   4   5   5    1.77    0.82   2
  -4  -5  -5    1.61    0.76   3
   7   6  -5   -0.19    0.79   1
   7  -6  -5   -0.56    0.66   1
  -7  -6   5   -0.14    0.61   3
  -7   6   5    0.39    0.68   3
  -7  -6   5   -0.91    0.58   2
  -6  -6   5    0.53    0.52   3
   6   6  -5   -0.79    0.66   1
   6  -6  -5    0.86    0.60   1
  -6   6   5    0.36    0.59   3
  -6  -6   5   -0.28    0.54   2
   5  -6  -5    2.88    0.63   1
  -5  -6   5    3.60    0.65   2
  -5   6   5    2.57    0.65   3
   5  -6  -5    4.71    0.76   4
   5   6  -5    2.89    0.75   1
   4  -6  -5   21.36    1.34   4
   4  -6  -5   19.13    0.99   1
   4   6  -5   16.96    1.16   1
  -4  -6   5   20.22    1.08   2
  -4   6   5   18.28    1.06   3
  -4   6   5   16.26    0.83   2
   3   6  -5   18.57    0.97   5
   3   6  -5   18.71    1.06   1
  -3   6   5   18.38    1.01   3
  -3   6   5   18.45    0.90   2
   3   6  -5   16.37    1.44   4
   3  -6  -5   21.55    1.31   4
  -3  -6   5   20.43    1.00   2
   3  -6  -5   20.38    0.89   1
  -2   6   5   57.70    1.52   2
  -2   6   5   57.36    1.59   3
  -2  -6   5   58.74    1.69   1
  -2  -6   5   60.34    1.60   2
   2  -6  -5   54.45    2.04   4
   2   6  -5   53.76    2.16   4
   1  -6  -5  143.71    3.76   4
  -1  -6   5  147.35    3.10   1
   1   6  -5  151.72    3.77   4
  -1  -6   5  150.10    3.01   2
  -1   6   5  148.00    3.10   3
  -1   6   5  151.96    3.00   2
   0  -6  -5    5.80    0.58   3
   0  -6   5    6.14    0.58   2
   0  -6  -5    4.88    0.80   4
   0  -6   5    6.34    0.56   1
   0   6   5    5.88    0.60   2
   0   6  -5    5.02    0.83   4
   1   6   5   29.40    1.26   2
   1  -6   5   30.35    1.13   1
  -1  -6  -5   31.32    1.25   3
  -1   6  -5   30.75    1.81   4
   1  -6   5   31.00    1.16   2
  -1  -6  -5   31.42    1.57   4
   2   6   5   -0.08    0.54   2
  -2  -6  -5    0.02    0.46   3
   2  -6   5    0.00    0.43   1
  -2   6  -5   -0.65    0.78   4
   2  -6   5    0.44    0.46   2
  -2  -6  -5    0.07    0.61   4
   3   6   5   -0.09    0.63   2
  -3  -6  -5    0.11    0.59   3
  -3  -6  -5   -0.99    0.66   4
   3  -6   5    0.02    0.52   2
  -3   6  -5   -0.87    0.90   4
  -4   6  -5    0.87    1.19   4
  -4  -6  -5    2.30    0.85   3
   4   6   5    2.79    0.85   2
   7  -7  -5    2.82    0.78   1
  -7   7   5    3.79    0.83   3
   7   7  -5    1.79    0.89   1
  -7  -7   5    3.07    0.76   2
  -6  -7   5   11.65    0.95   2
   6  -7  -5    9.45    0.89   1
   6   7  -5   11.40    1.07   1
  -6   7   5    9.84    0.93   3
   5   7  -5   37.41    1.59   1
  -5   7   5   38.19    1.53   3
   5  -7  -5   41.01    1.72   4
  -5  -7   5   40.36    1.51   2
   5  -7  -5   39.87    1.43   1
  -4  -7   5  110.81    2.63   2
   4  -7  -5  113.76    2.51   1
   4   7  -5  111.00    2.75   1
   4  -7  -5  114.54    3.12   4
  -4   7   5  109.29    2.69   3
  -3   7   5   89.99    2.24   3
   3  -7  -5   90.17    1.99   1
   3   7  -5   86.48    2.66   4
   3   7  -5   87.61    1.95   5
   3  -7  -5   89.06    2.66   4
  -3   7   5   90.24    1.98   2
   3   7  -5   87.40    2.23   1
  -3  -7   5   92.88    2.21   2
  -2  -7   5  428.02    7.80   1
  -2  -7   5  418.74    7.42   2
   2  -7  -5  421.37    8.86   4
   2   7  -5  421.79    8.77   4
  -2   7   5  420.26    7.28   2
  -2   7   5  434.67    7.84   3
  -1  -7   5  201.95    3.83   2
  -1   7   5  194.33    3.98   3
   1   7  -5  206.56    4.70   4
  -1   7   5  198.89    3.78   2
  -1  -7   5  196.23    3.97   1
   1  -7  -5  193.03    4.70   4
   0  -7  -5   16.60    0.95   3
   0   7   5   14.85    0.96   2
   0  -7  -5   15.36    1.30   4
   0  -7   5   14.66    0.87   2
   0   7  -5   15.82    1.41   4
   0  -7   5   14.94    0.88   1
  -1   7  -5    1.10    0.81   4
  -1  -7  -5    2.15    0.53   3
   1  -7   5    2.25    0.50   1
   1  -7   5    1.79    0.48   2
  -1  -7  -5    3.06    0.76   4
   1   7   5    1.85    0.58   2
   2   7   5    7.22    0.79   2
  -2   7  -5    6.49    1.10   4
   2  -7   5    7.48    0.70   1
  -2  -7  -5    5.95    0.74   3
  -2  -7  -5    7.70    0.93   4
   2  -7   5    6.07    0.63   2
   3   7   5    0.41    0.65   2
  -3   7  -5   -1.20    0.94   4
   3  -7   5    0.07    0.54   1
  -3  -7  -5    0.54    0.62   3
   3  -7   5    0.30    0.52   2
  -3  -7  -5    1.17    0.75   4
  -4   7  -5   -1.28    1.10   4
  -4  -7  -5   -0.91    0.70   3
   4   7   5   -0.66    0.76   2
   7  -8  -5    2.64    0.75   1
   7   8  -5    2.35    0.93   1
  -7   8   5    1.96    0.80   3
  -7  -8   5    1.77    0.75   2
  -6  -8   5   24.36    1.34   2
   6   8  -5   22.21    1.44   1
   6  -8  -5   23.87    1.26   1
  -6   8   5   22.29    1.31   3
   5  -8  -5    1.35    0.66   4
  -5  -8   5    2.30    0.62   2
   5   8  -5    1.11    0.69   1
   5  -8  -5    1.61    0.57   1
  -5   8   5    0.89    0.59   3
  -4  -8   5  200.76    4.09   2
   4  -8  -5  195.98    4.78   4
   4   8  -5  201.68    4.25   1
   4  -8  -5  202.58    3.99   1
  -3   8   5   28.21    1.28   3
   3   8  -5   25.34    1.15   5
  -3  -8   5   27.19    1.25   2
   3   8  -5   25.21    1.25   1
  -3   8   5   24.82    1.07   2
   3  -8  -5   25.45    1.57   4
   3   8  -5   23.92    1.82   4
   3  -8  -5   27.41    1.13   1
   2   8  -5  140.61    3.55   4
  -2   8   5  142.25    3.04   3
  -2  -8   5  140.48    3.04   1
  -2   8   5  140.21    2.79   2
  -2  -8   5  136.89    2.93   2
   2  -8  -5  127.19    3.54   4
  -1   8   5   29.30    1.10   2
   1   8  -5   29.00    1.58   4
  -1   8   5   27.18    1.14   3
  -1  -8   5   27.71    1.13   1
   1  -8  -5   25.79    1.54   4
  -1  -8   5   29.12    1.12   2
   0  -8   5   69.35    1.76   2
   0   8   5   68.84    1.85   2
   0   8  -5   68.82    2.40   4
   0  -8  -5   72.01    1.93   3
   0  -8   5   68.99    1.85   1
   0  -8  -5   71.76    2.38   4
   1  -8   5   78.41    1.91   2
  -1  -8  -5   77.05    2.11   3
  -1   8  -5   78.12    2.70   4
   1  -8   5   75.46    1.99   1
  -1  -8  -5   78.01    2.52   4
  -2  -8  -5    8.93    0.98   4
   2  -8   5    8.48    0.70   2
  -2  -8  -5    9.04    0.86   3
   2   8   5    8.39    0.84   2
   2  -8   5    9.39    0.78   1
  -2   8  -5    9.38    1.22   4
   3  -8   5    0.69    0.60   1
  -3  -8  -5    0.32    0.60   3
   3   8   5    0.28    0.67   2
  -3   8  -5   -1.44    0.99   4
   4   8   5   14.13    1.21   2
  -4  -8  -5   14.12    1.20   3
  -4   8  -5   14.12    1.65   4
  -7   9   5    4.60    0.93   3
  -7  -9   5    3.86    0.85   2
   7  -9  -5    6.07    0.88   1
   7   9  -5    3.60    0.97   1
   6   9  -5    0.71    0.77   1
  -6  -9   5    1.07    0.65   2
  -6   9   5    0.03    0.62   3
   6  -9  -5    0.85    0.62   1
   5   9  -5    2.22    0.73   1
  -5   9   5    2.34    0.66   3
  -5  -9   5    2.46    0.64   2
   5  -9  -5    2.81    0.60   1
   5  -9  -5    4.30    0.79   4
   4  -9  -5   29.53    1.27   1
   4   9  -5   31.28    1.40   1
  -4  -9   5   29.67    1.36   2
  -4   9   5   27.37    1.35   3
   4  -9  -5   30.72    1.65   4
  -3  -9   5  611.99   10.52   2
   3   9  -5  607.31   11.05   1
   3   9  -5  615.55   12.20   4
   3   9  -5  610.88    9.25   5
  -2   9   5   13.05    0.93   3
  -2  -9   5   12.56    0.93   1
  -2   9   5   13.54    0.92   2
   2   9  -5   11.30    0.99   4
   2  -9  -5   10.66    1.00   4
  -2  -9   5   11.68    0.88   2
   1   9  -5    0.75    0.66   4
  -1   9   5   -1.03    0.44   3
   1  -9  -5    0.46    0.62   4
  -1  -9   5    0.95    0.44   2
  -1   9   5    0.59    0.43   2
  -1  -9   5    0.17    0.44   1
   0  -9  -5    8.42    0.73   3
   0  -9   5    9.15    0.73   1
   0   9   5    8.68    0.74   2
   0  -9  -5    9.41    0.99   4
   0   9  -5    8.42    0.99   4
   0  -9   5    8.51    0.68   2
   1  -9   5    2.88    0.55   1
  -1  -9  -5    3.23    0.61   3
  -1  -9  -5    2.67    0.76   4
   1  -9   5    2.92    0.51   2
   1   9   5    2.72    0.63   2
  -1   9  -5    3.28    0.92   4
  -2   9  -5   20.37    1.89   4
   2   9   5   20.79    1.24   2
   2  -9   5   20.80    1.00   2
  -2  -9  -5   21.28    1.44   4
   2  -9   5   21.21    1.11   1
  -2  -9  -5   24.05    1.28   3
   3   9   5   12.46    1.07   2
  -3  -9  -5   12.66    1.06   3
  -3   9  -5   10.77    1.44   4
   3  -9   5   14.15    1.11   1
   4   9   5    3.27    0.94   2
  -4  -9  -5    4.14    0.93   3
  -4   9  -5    1.25    1.27   4
   7 -10  -5    2.82    0.74   1
  -7 -10   5   -0.45    0.68   2
  -7  10   5    0.45    0.77   3
   7  10  -5   -1.31    0.80   1
  -6  10   5    7.29    0.95   3
   6  10  -5    6.42    1.00   1
  -6 -10   5    7.12    0.90   2
   6 -10  -5    7.56    0.83   1
  -5 -10   5   10.78    0.93   2
   5 -10  -5   13.57    0.97   1
  -5  10   5   12.11    1.00   3
   5  10  -5   11.73    1.01   1
   5 -10  -5   11.50    1.07   4
  -4  10   5   11.36    0.92   3
   4 -10  -5   13.97    1.31   4
  -4 -10   5   12.66    0.96   2
   4 -10  -5   13.24    0.96   1
   4  10  -5   14.37    1.12   1
   3  10  -5   39.53    1.80   4
  -3  10   5   37.97    1.46   3
   3  10  -5   36.55    1.31   5
  -3 -10   5   38.59    1.47   2
   3 -10  -5   33.41    1.80   4
   3  10  -5   37.89    1.46   1
  -2  10   5   46.52    1.40   2
  -2  10   5   45.60    1.53   3
   2 -10  -5   43.14    1.91   4
  -2 -10   5   42.16    1.45   2
   2  10  -5   45.86    1.93   4
  -1  10   5    5.76    0.75   3
  -1 -10   5    9.59    0.79   2
   1  10  -5    9.44    0.98   4
  -1  10   5    9.57    0.81   2
  -1 -10   5    9.11    0.74   1
   1 -10  -5    9.83    0.99   4
   0  10   5    3.19    0.58   2
   0 -10  -5    3.35    0.77   4
   0  10  -5    2.48    0.84   4
   0 -10   5    2.75    0.52   2
   0 -10  -5    3.26    0.60   3
   0 -10   5    2.25    0.54   1
  -1 -10  -5    3.55    0.80   4
  -1 -10  -5    3.53    0.65   3
   1 -10   5    3.84    0.54   2
   1  10   5    2.30    0.63   2
  -1  10  -5    1.44    0.90   4
   1 -10   5    2.68    0.56   1
   2  10   5    3.53    0.74   2
  -2  10  -5    3.21    1.11   4
   2 -10   5    3.18    0.64   1
   2 -10   5    3.29    0.56   2
  -2 -10  -5    3.44    0.81   4
  -2 -10  -5    3.52    0.74   3
   3  10   5   -0.42    0.70   2
  -3 -10  -5   -0.23    0.67   3
   3 -10   5    0.24    0.62   1
  -3  10  -5   -1.30    1.06   4
   7 -11  -5    2.05    0.73   1
  -7  11   5    2.08    0.85   3
  -7 -11   5    2.10    0.81   2
   7  11  -5    1.47    0.93   1
  -6 -11   5    1.93    0.76   2
   6  11  -5    1.31    0.83   1
   6 -11  -5    1.96    0.66   1
  -6  11   5    1.29    0.76   3
   5  11  -5    8.98    0.97   1
   5 -11  -5    9.06    0.79   1
  -5 -11   5    7.85    0.89   2
   5 -11  -5    9.17    1.04   4
  -5  11   5    9.10    0.93   3
  -4  11   5   -0.13    0.54   3
   4 -11  -5    0.97    0.71   4
   4  11  -5    1.14    0.61   1
  -4 -11   5    0.24    0.55   2
   3  11  -5   22.30    1.20   1
  -3 -11   5   21.43    1.19   2
   3  11  -5   22.34    1.10   5
   3  11  -5   24.16    1.57   4
   3 -11  -5   22.90    1.55   4
  -3  11   5   22.47    1.20   3
  -2  11   5   77.81    1.89   2
  -2 -11   5   75.57    2.03   2
  -2  11   5   76.69    2.11   3
   2 -11  -5   79.59    2.61   4
   2  11  -5   76.95    2.56   4
   1 -11  -5   22.79    1.49   4
   1  11  -5   24.37    1.70   4
  -1 -11   5   21.76    1.11   1
  -1  11   5   18.09    1.15   3
  -1 -11   5   21.84    1.04   2
  -1  11   5   22.91    1.04   2
   0 -11  -5    4.54    0.67   3
   0  11   5    3.91    0.62   2
   0 -11  -5    4.32    0.83   4
   0  11  -5    4.72    0.94   4
   0 -11   5    4.46    0.62   1
   0 -11   5    4.65    0.57   2
  -1 -11  -5    2.44    0.76   4
   1 -11   5    2.89    0.59   1
  -1 -11  -5    2.85    0.64   3
   1 -11   5    2.49    0.54   2
   1  11   5    1.97    0.62   2
  -1  11  -5    2.84    0.98   4
  -2  11  -5    3.75    1.19   4
   2 -11   5    4.01    0.69   1
  -2 -11  -5    5.02    0.79   3
   2  11   5    3.31    0.77   2
  -2 -11  -5    4.01    0.84   4
   3 -11   5    0.58    0.66   1
  -3 -11  -5    0.80    0.72   3
  -3  11  -5   -0.82    1.12   4
   3  11   5   -0.99    0.68   2
   6 -12  -5    7.21    0.82   1
  -6 -12   5    5.30    0.87   2
  -6  12   5    4.65    0.91   3
   6  12  -5    6.97    1.04   1
  -5  12   5    1.75    0.68   3
   5 -12  -5    1.93    0.57   1
   5 -12  -5    1.83    0.77   4
   5  12  -5    1.65    0.74   1
  -5 -12   5    2.57    0.71   2
  -4  12   5    9.71    0.88   3
   4  12  -5    8.97    0.90   1
   4 -12  -5    9.13    1.06   4
  -4 -12   5    9.27    0.89   2
   3 -12  -5    4.56    0.88   4
   3  12  -5    4.13    0.72   1
  -3  12   5    4.11    0.68   3
   3  12  -5    4.46    0.66   5
   3  12  -5    4.52    0.82   4
  -3 -12   5    4.08    0.69   2
  -2 -12   5   12.06    0.96   2
   2 -12  -5   11.47    1.12   4
  -2 -12   5   11.69    1.01   1
  -2  12   5   11.74    1.00   3
   2  12  -5   12.32    1.08   4
  -1 -12   5   19.59    1.02   2
   1  12  -5   19.68    1.69   4
  -1  12   5   20.86    1.06   2
  -1 -12   5   21.39    1.14   1
   1 -12  -5   20.23    1.50   4
  -1  12   5   20.51    1.17   3
   0 -12   5   48.98    1.50   2
   0 -12  -5   49.12    2.08   4
   0  12   5   44.13    1.54   2
   0 -12  -5   50.40    1.70   3
   0  12  -5   50.23    2.27   4
   0 -12   5   48.21    1.61   1
  -1 -12  -5   12.49    1.09   3
   1 -12   5   13.09    0.97   1
  -1 -12  -5   16.66    1.39   4
  -1  12  -5   15.36    1.43   4
   1 -12   5   15.59    0.95   2
   1  12   5   14.46    1.07   2
  -2 -12  -5    0.61    0.74   4
   2  12   5   -0.06    0.64   2
  -2  12  -5   -1.70    1.02   4
  -2 -12  -5   -0.20    0.62   3
   2 -12   5   -0.34    0.57   1
   3  12   5    1.41    0.81   2
  -3 -12  -5    2.72    0.82   3
  -3  12  -5    0.37    1.26   4
   3 -12   5    2.01    0.72   1
  -6  13   5   -0.16    0.73   3
   6  13  -5    0.03    0.81   1
   6 -13  -5    1.01    0.62   1
  -6 -13   5    0.05    0.69   2
   5  13  -5    0.12    0.70   1
  -5 -13   5    0.07    0.65   2
  -5  13   5   -0.59    0.63   3
   5 -13  -5    0.50    0.73   4
   4 -13  -5    8.63    1.06   4
   4  13  -5    7.81    0.86   1
  -4 -13   5    9.50    0.89   2
   4  13  -5    7.98    0.77   5
  -4  13   5    9.22    0.90   3
  -3  13   5   21.23    1.21   3
  -3 -13   5   20.25    1.19   2
   3 -13  -5   23.13    1.56   4
   3  13  -5   22.13    1.10   5
   3  13  -5   22.70    1.22   1
  -2 -13   5   45.89    1.58   2
   2 -13  -5   45.14    2.05   4
   2  13  -5   46.32    2.10   4
  -2 -13   5   43.03    1.62   1
  -2  13   5   45.40    1.62   3
  -1 -13   5    7.21    0.71   2
  -1  13   5    6.30    0.66   2
  -1  13   5    7.59    0.78   3
   1  13  -5    7.85    1.02   4
   1 -13  -5    6.97    0.98   4
  -1 -13   5    6.46    0.77   1
   0 -13   5    4.57    0.60   2
   0  13   5    3.91    0.66   2
   0 -13  -5    4.56    0.73   3
   0 -13  -5    4.71    0.90   4
   0  13  -5    3.88    0.96   4
   0 -13   5    4.19    0.66   1
   1  13   5    0.07    0.59   2
  -1  13  -5   -1.39    0.89   4
   1 -13   5    0.09    0.52   1
  -1 -13  -5   -0.09    0.56   3
  -1 -13  -5   -0.01    0.71   4
  -2  13  -5    0.27    1.21   4
   2 -13   5    2.32    0.69   1
  -2 -13  -5    2.17    0.86   4
   2  13   5    2.11    0.77   2
  -2 -13  -5    2.66    0.78   3
  -3 -13  -5    8.09    1.05   3
   3 -13   5    7.10    0.93   1
   3  13   5    6.84    1.00   2
  -3  13  -5    8.32    1.60   4
   6  14  -5    0.26    0.88   1
  -6  14   5    0.91    0.83   3
  -6 -14   5    1.23    0.75   2
   5  14  -5    2.99    0.84   1
  -5  14   5    3.34    0.82   3
   5 -14  -5    3.08    0.91   4
  -5 -14   5    2.12    0.75   2
   4  14  -5    3.13    0.74   1
  -4  14   5    3.63    0.75   3
   4 -14  -5    4.19    0.91   4
  -4 -14   5    3.99    0.75   2
   4  14  -5    3.46    0.66   5
  -3  14   5    1.25    0.62   3
   3 -14  -5    1.46    0.79   4
   3  14  -5    3.32    0.66   1
   3  14  -5    2.34    0.59   5
  -3 -14   5    1.20    0.61   2
   2 -14  -5   11.22    1.15   4
  -2 -14   5   10.75    0.92   1
  -2  14   5   10.84    0.91   3
  -2 -14   5   10.41    0.86   2
   2  14  -5   11.16    1.10   4
  -1 -14   5   12.28    0.94   2
   1  14  -5   11.37    1.16   4
  -1 -14   5   10.04    0.90   1
   1 -14  -5   10.83    1.13   4
  -1  14   5   11.57    1.07   3
   0 -14  -5    2.79    0.69   3
   0 -14  -5    1.49    0.81   4
   0 -14   5    2.05    0.62   1
   0 -14   5    2.56    0.59   2
   0  14  -5    1.43    0.92   4
   0  14   5    2.71    0.64   2
  -1 -14  -5   10.32    1.12   4
  -1 -14  -5   10.04    0.97   3
   1  14   5    7.93    0.88   2
   1 -14   5   10.77    0.91   1
  -1  14  -5    8.80    1.35   4
   2 -14   5    3.46    0.73   1
  -2 -14  -5    3.49    0.83   3
  -2 -14  -5    3.96    0.94   4
  -2  14  -5    1.21    1.31   4
   2  14   5    2.73    0.80   2
   6  15  -5   -1.08    0.84   1
  -6 -15   5    0.59    0.76   2
  -6  15   5   -1.43    0.71   3
   6 -15  -5    0.71    0.89   4
   5 -15  -5    0.52    0.80   4
   5  15  -5    0.17    0.74   1
  -5  15   5   -0.88    0.67   3
  -5 -15   5   -0.31    0.67   2
   4  15  -5    2.52    0.75   1
  -4 -15   5    1.96    0.70   2
   4 -15  -5    2.30    0.88   4
   4  15  -5    2.98    0.67   5
  -4  15   5    2.02    0.69   3
   3  15  -5    5.00    0.77   1
  -3  15   5    5.17    0.79   3
   3 -15  -5    4.43    0.96   4
  -3 -15   5    3.88    0.73   2
   3  15  -5    5.26    0.70   5
  -2 -15   5    0.49    0.59   2
   2 -15  -5    1.00    0.79   4
  -2 -15   5    1.69    0.66   1
  -2  15   5    1.52    0.63   3
   2  15  -5    1.35    0.79   4
  -1 -15   5    4.51    0.69   2
  -1  15   5    6.37    0.81   3
  -1 -15   5    5.85    0.80   1
   1  15  -5    4.63    0.99   4
   1 -15  -5    4.09    0.94   4
   0 -15   5    6.06    0.70   2
   0 -15  -5    5.43    0.98   4
   0 -15  -5    5.81    0.82   3
   0  15   5    5.99    0.77   2
   0  15  -5    7.44    1.17   4
   0 -15   5    5.11    0.77   1
  -1  15  -5    0.19    1.05   4
   1  15   5    0.08    0.64   2
  -1 -15  -5   -1.01    0.60   3
   1 -15   5    0.49    0.60   1
  -1 -15  -5    0.40    0.77   4
   2  15   5    9.06    1.03   2
   2 -15   5    9.13    0.96   1
  -2 -15  -5   10.20    1.10   3
  -2  15  -5   10.57    1.61   4
  -5 -16   5   -0.57    0.69   2
   5 -16  -5    0.90    0.85   4
  -5  16   5   -0.71    0.69   3
   5  16  -5    0.27    0.77   1
   4  16  -5    4.42    0.74   5
   4  16  -5    4.50    0.84   1
  -4 -16   5    4.36    0.85   2
   4 -16  -5    6.44    1.07   4
  -4  16   5    3.78    0.79   3
  -3  16   5    2.28    0.71   3
  -3 -16   5    1.95    0.67   2
   3  16  -5    2.61    0.71   1
   3 -16  -5    2.30    0.87   4
   3  16  -5    3.22    0.65   5
   2 -16  -5    4.29    0.99   4
   2  16  -5    4.93    0.97   4
  -2 -16   5    4.08    0.73   2
  -2 -16   5    5.90    0.85   1
  -2  16   5    4.75    0.80   3
  -1 -16   5   27.63    1.31   2
  -1  16   5   33.96    1.52   3
  -1 -16   5   28.97    1.42   1
   1 -16  -5   30.43    1.84   4
   1  16  -5   29.67    2.04   4
   0  16   5   14.35    1.10   2
   0  16  -5   12.62    1.41   4
   0 -16  -5   13.66    1.30   4
   0 -16  -5   12.28    1.04   3
   0 -16   5   11.54    1.07   1
   1  16   5    1.83    0.74   2
  -1 -16  -5    2.54    0.79   3
  -1 -16  -5    3.41    0.94   4
   1 -16   5    1.74    0.69   1
  -1  16  -5    3.21    1.23   4
  -2 -16  -5    1.78    0.81   3
   2 -16   5   -0.45    0.66   1
  -2  16  -5    1.11    1.32   4
   2  16   5    0.59    0.77   2
  -5  17   5   -0.56    0.73   3
  -5 -17   5   -0.26    0.70   2
   5  17  -5    0.60    0.82   1
   5 -17  -5    1.17    0.91   4
  -4  17   5    1.37    0.72   3
   4  17  -5    1.55    0.66   5
  -4 -17   5    0.90    0.75   2
   4  17  -5    1.10    0.74   1
   4 -17  -5    2.60    0.95   4
   3  17  -5    2.60    0.74   1
  -3 -17   5    0.81    0.65   2
   3 -17  -5    1.74    0.87   4
   3  17  -5    1.08    0.61   5
  -3  17   5    1.22    0.69   3
   2 -17  -5    5.05    1.07   4
   2  17  -5    6.25    1.05   4
  -2 -17   5    4.83    0.79   2
  -2  17   5    6.07    0.86   3
  -2 -17   5    6.31    0.89   1
  -1 -17   5   -0.44    0.62   1
  -1  17   5    0.87    0.69   3
   1 -17  -5   -0.55    0.78   4
  -1 -17   5    0.04    0.57   2
   1  17  -5    0.26    0.89   4
   0 -17  -5    5.88    1.07   4
   0  17  -5    4.20    1.18   4
   0 -17   5    5.48    0.84   1
   0  17   5    6.16    0.88   3
   1 -17   5   13.23    1.20   1
  -1 -17  -5   11.85    1.32   4
   1  17   5   13.26    1.09   2
  -1 -17  -5   14.97    1.34   3
  -1  17  -5   12.12    1.66   4
  -4 -18   5    0.42    0.71   2
   4  18  -5   -0.57    0.68   1
   4  18  -5    0.11    0.63   5
  -4  18   5   -0.77    0.66   3
   4 -18  -5   -0.10    0.80   4
  -3  18   5    0.53    0.64   3
   3  18  -5   -0.08    0.58   5
  -3 -18   5    0.27    0.65   2
   3 -18  -5    0.88    0.86   4
   3  18  -5    0.14    0.63   1
   2 -18  -5    0.63    0.85   4
  -2  18   5    1.10    0.68   3
   2  18  -5   -0.57    0.83   4
  -2 -18   5    0.72    0.65   2
  -2 -18   5   -0.42    0.66   1
   1 -18  -5    7.75    1.15   4
   1  18  -5    7.70    1.24   4
  -1 -18   5    6.49    0.92   1
  -1  18   5    8.77    1.00   3
   0  18  -5    8.34    1.39   4
   0  18   5   11.27    1.10   3
   0 -18   5   10.37    1.04   1
   0 -18  -5    9.45    1.23   4
   1  18   5   17.07    1.32   2
  -1 -18  -5   17.05    1.45   3
  -1 -18  -5   13.92    1.45   4
   1 -18   5   16.95    1.31   1
  -1  18  -5   15.75    1.79   4
   4  19  -5   -0.53    0.72   1
   4 -19  -5    1.32    0.93   4
  -4 -19   5    1.68    0.79   2
  -4  19   5    0.69    0.77   3
   4  19  -5    0.54    0.64   5
   3 -19  -5    3.51    0.97   4
   3  19  -5    3.69    0.73   5
   3  19  -5    5.49    0.89   1
  -3  19   5    2.50    0.80   3
  -3 -19   5    4.11    0.85   2
  -2 -19   5   -0.91    0.68   1
   2 -19  -5    0.05    0.83   4
  -2 -19   5   -0.72    0.63   2
  -2  19   5   -0.27    0.67   3
   1 -19  -5    5.10    1.11   4
  -1 -19   5    6.40    0.97   1
   1  19  -5    5.10    1.22   4
  -1  19   5    5.26    0.92   3
   0  19   5   32.20    1.68   3
   0  19  -5   29.10    2.42   4
   0 -19  -5   24.50    1.88   4
   0 -19   5   26.64    1.56   1
   3  20  -5    2.86    0.82   1
  -3  20   5    1.04    0.81   3
  -3 -20   5    1.17    0.79   2
   3  20  -5    1.64    0.71   5
   3 -20  -5    2.63    1.00   4
   2 -20  -5    0.39    0.91   4
  -2  20   5   -1.07    0.72   3
  -2 -20   5    0.48    0.75   2
  -2 -20   5   -0.98    0.76   1
  -1 -20   5   25.33    1.59   1
  -1  20   5   28.83    1.62   3
   1  20  -5   28.85    2.44   4
   1 -20  -5   28.47    2.03   4
  -7   0   6    0.66    0.66   3
   7   0  -6    0.10    0.73   1
  -6   0   6    1.37    0.56   2
  -6   0   6    1.69    0.59   3
   6   0  -6    0.33    0.67   1
   5   0  -6   -0.99    0.53   1
  -5   0   6   -0.51    0.41   2
  -5   0   6   -0.34    0.42   3
   4   0  -6   96.22    2.33   1
  -4   0   6   94.65    2.20   3
   4   0  -6   95.63    2.70   4
  -4   0   6   94.02    2.23   2
   3   0  -6   -0.62    0.42   1
   3   0  -6    0.04    0.61   4
  -3   0   6    0.18    0.33   3
  -3   0   6    0.19    0.40   2
  -2   0   6   12.04    0.86   2
   2   0  -6   13.25    1.26   4
   2   0  -6   12.83    0.80   1
   1   0  -6   -0.14    0.76   4
  -1   0   6    0.05    0.48   2
   0   0   6  398.62    7.13   2
   1   0   6   -0.28    0.54   2
  -1   0  -6   -0.45    0.79   4
  -2   0  -6    1.36    0.88   4
   2   0   6   -0.03    0.60   2
   3   0   6   -0.71    0.71   2
  -3   0  -6   -0.16    0.96   4
  -7  -1   6    8.88    0.92   3
  -7   1   6    8.20    0.95   3
   7  -1  -6    8.12    1.00   1
   7   1  -6    7.28    0.99   1
   6  -1  -6   10.09    0.94   1
  -6   1   6   10.04    0.86   3
  -6  -1   6   10.43    0.84   2
  -6  -1   6    9.24    0.83   3
   6   1  -6   11.38    0.99   1
  -5  -1   6    1.31    0.51   2
   5   1  -6    1.45    0.64   1
  -5   1   6    0.80    0.47   2
  -5   1   6    0.70    0.47   3
   5  -1  -6    0.91    0.60   1
  -5  -1   6    0.45    0.45   3
  -4  -1   6    3.19    0.48   3
   4   1  -6    2.74    0.62   1
   4  -1  -6    2.93    0.73   4
  -4   1   6    3.41    0.53   3
   4   1  -6    2.82    0.69   4
  -4  -1   6    4.27    0.59   2
   4  -1  -6    2.82    0.61   1
  -4   1   6    3.40    0.52   2
  -3  -1   6   75.49    1.86   2
   3  -1  -6   73.16    1.83   1
   3   1  -6   74.91    1.89   1
   3  -1  -6   72.89    2.33   4
  -3   1   6   72.91    1.76   3
  -3   1   6   72.14    1.82   2
   3   1  -6   73.89    2.33   4
  -2   1   6   15.79    0.92   2
   2  -1  -6   15.01    0.80   1
  -2   1   6   15.70    0.78   3
   2  -1  -6   15.36    1.31   4
  -2  -1   6   17.02    0.95   2
   2   1  -6   17.14    0.87   1
   2   1  -6   14.70    1.34   4
   1   1  -6  146.29    2.95   1
  -1  -1   6  145.08    3.08   2
   1   1  -6  148.06    3.85   4
  -1   1   6  149.65    3.08   2
   1  -1  -6  148.82    3.86   4
   1   1  -6  143.39    2.50   5
  -1   1   6  145.88    2.97   3
   0   1  -6  127.11    3.51   4
   0  -1  -6  120.10    3.49   4
   0  -1   6  119.96    2.78   2
   1  -1   6    3.70    0.66   2
  -1  -1  -6    2.80    0.92   4
  -1   1  -6    3.39    0.95   4
   1   1   6    4.75    0.70   2
  -2   1  -6   -0.45    0.80   4
  -2  -1  -6   -0.28    0.79   4
   2   1   6   -0.21    0.61   2
   2  -1   6    0.25    0.59   2
  -3   1  -6   28.31    1.97   4
  -3  -1  -6   28.07    1.91   4
   3  -1   6   29.45    1.59   2
   3   1   6   32.26    1.60   2
   7  -2  -6    0.52    0.75   1
  -7  -2   6   -0.07    0.61   3
   7   2  -6   -0.27    0.76   1
  -7   2   6    0.72    0.67   3
   6  -2  -6   -0.39    0.60   1
  -6  -2   6    0.12    0.52   2
   6   2  -6    0.43    0.67   1
  -6   2   6    0.25    0.52   3
  -5   2   6   12.28    0.93   3
  -5  -2   6   13.35    0.96   2
  -5   2   6   14.78    0.95   2
   5  -2  -6   11.78    0.98   1
   5   2  -6   12.27    1.06   1
   4  -2  -6    0.19    0.60   4
   4   2  -6   -0.02    0.51   1
  -4   2   6   -0.11    0.41   3
  -4  -2   6    0.00    0.42   2
   4  -2  -6    0.02    0.48   1
  -4   2   6    0.34    0.39   2
   4   2  -6    0.45    0.58   4
   3   2  -6   18.91    0.97   1
  -3   2   6   20.43    0.94   2
   3  -2  -6   18.29    1.28   4
   3   2  -6   19.58    1.29   4
  -3   2   6   18.24    0.87   3
  -3  -2   6   19.80    0.97   2
   3  -2  -6   18.80    0.95   1
  -2  -2   6   41.12    1.35   2
   2   2  -6   43.67    1.14   5
  -2   2   6   42.56    1.36   2
  -2   2   6   41.77    1.24   3
   2   2  -6   41.91    1.30   1
   2  -2  -6   43.56    1.84   4
   2   2  -6   40.03    1.81   4
   1  -2  -6   18.06    1.50   4
   1   2  -6   19.04    1.57   4
  -1   2   6   20.91    1.07   2
  -1   2   6   21.99    0.98   3
  -1  -2   6   16.76    1.08   2
   0   2   6    2.21    0.57   2
   0  -2  -6    0.15    0.82   4
   0  -2   6   -0.47    0.52   2
   0   2  -6    1.26    0.83   4
   1   2   6   22.38    1.21   2
  -1   2  -6   25.44    1.79   4
   1  -2   6   20.82    1.16   2
  -1  -2  -6   21.96    1.61   4
   2  -2   6    1.96    0.67   2
  -2   2  -6    1.02    0.96   4
  -2  -2  -6    1.53    0.86   4
   2   2   6    2.36    0.71   2
   3   2   6    1.24    0.78   2
  -3  -2  -6    1.66    0.96   4
  -3   2  -6    2.66    1.10   4
   3  -2   6    1.73    0.79   2
   7  -3  -6    2.30    0.83   1
  -7  -3   6    1.60    0.71   2
  -7   3   6    1.77    0.75   3
   7   3  -6    1.78    0.85   1
   6   3  -6    1.80    0.72   1
  -6   3   6    1.02    0.58   3
  -6  -3   6    1.89    0.61   2
   6  -3  -6    1.70    0.69   1
  -5  -3   6    9.87    0.81   2
   5  -3  -6   10.70    0.94   1
   5   3  -6   12.36    1.07   1
  -5   3   6   12.27    0.89   2
   5  -3  -6   11.18    0.98   4
  -5   3   6   11.02    0.89   3
   4  -3  -6   37.53    1.68   4
  -4   3   6   39.31    1.34   3
   4   3  -6   38.11    1.42   1
  -4   3   6   37.60    1.23   2
   4   3  -6   36.53    1.58   4
   4  -3  -6   37.59    1.30   1
  -4  -3   6   36.74    1.35   2
   3   3  -6    6.49    0.67   1
  -3   3   6    6.94    0.58   3
   3  -3  -6    8.87    0.94   4
  -3   3   6    7.60    0.62   2
   3   3  -6    7.85    0.88   4
  -3  -3   6    6.93    0.64   2
   3  -3  -6    6.68    0.59   1
  -2   3   6    9.16    0.73   2
  -2  -3   6    9.22    0.71   2
   2   3  -6    9.21    0.80   1
   2   3  -6    9.91    0.63   5
   2  -3  -6   10.19    0.99   4
   2   3  -6   10.59    1.06   4
  -2   3   6    8.34    0.77   3
  -1  -3   6  150.31    3.16   2
   1  -3  -6  146.61    3.94   4
   1   3  -6  155.26    4.00   4
  -1   3   6  153.14    3.13   3
  -1  -3   6  149.46    3.14   1
   0  -3  -6   36.56    1.91   4
   0   3   6   43.37    1.47   2
   0   3  -6   42.03    2.01   4
   0  -3   6   37.82    1.42   2
  -1   3  -6    8.15    1.15   4
   1  -3   6    8.91    0.80   2
   1   3   6    8.24    0.83   2
  -1  -3  -6    7.63    1.06   4
  -2   3  -6   16.54    1.48   4
  -2  -3  -6   12.75    1.23   4
   2   3   6   15.19    1.18   2
   2  -3   6   13.54    1.08   2
  -3   3  -6    0.43    1.06   4
  -3  -3  -6   -0.09    0.86   4
   3   3   6    0.77    0.76   2
   3  -3   6   -0.30    0.70   2
  -7  -4   6    4.92    0.83   2
   7  -4  -6    4.84    0.87   1
   7   4  -6    4.06    0.92   1
  -7   4   6    4.52    0.85   3
   6   4  -6    1.52    0.77   1
  -6   4   6    1.74    0.64   3
  -6  -4   6    2.15    0.64   2
   6  -4  -6    2.14    0.67   1
  -5  -4   6    6.08    0.73   2
  -5   4   6    7.96    0.77   3
   5   4  -6    7.15    0.85   1
   5  -4  -6    7.17    0.76   1
   5  -4  -6    6.11    0.88   4
   4  -4  -6   13.46    0.92   1
  -4   4   6   16.04    0.97   3
   4   4  -6   15.29    1.04   1
   4   4  -6   14.27    1.16   4
  -4   4   6   15.73    0.86   2
  -4  -4   6   16.02    1.01   2
   4  -4  -6   16.20    1.23   4
  -3  -4   6    1.27    0.46   2
  -3   4   6    0.47    0.41   2
   3  -4  -6    0.65    0.41   1
   3  -4  -6    0.77    0.67   4
   3   4  -6    0.34    0.47   1
  -3   4   6    0.44    0.38   3
   3   4  -6    0.36    0.65   4
  -2   4   6   78.23    1.94   2
   2  -4  -6   78.68    2.52   4
   2   4  -6   77.57    2.58   4
   2   4  -6   80.39    1.72   5
  -2  -4   6   77.28    1.98   2
   2   4  -6   80.36    1.98   1
  -2   4   6   77.73    1.96   3
  -1   4   6  300.64    5.67   3
  -1  -4   6  300.47    5.52   2
  -1  -4   6  299.05    5.66   1
   1  -4  -6  297.48    6.70   4
   0  -4  -6    9.07    0.69   3
   0  -4  -6    9.04    1.07   4
   0   4  -6    8.37    1.06   4
   0  -4   6    8.37    0.76   2
   0   4   6    8.70    0.77   2
  -1  -4  -6   19.60    1.49   4
   1   4   6   20.44    1.19   2
   1  -4   6   19.51    1.12   2
  -1   4  -6   22.51    1.72   4
   2   4   6    2.27    0.72   2
  -2  -4  -6    1.81    0.85   4
  -2   4  -6    1.58    1.04   4
   2  -4   6    2.86    0.68   2
   3  -4   6   -0.81    0.63   2
  -3  -4  -6    0.05    0.83   4
   3   4   6    0.48    0.75   2
  -3   4  -6    0.74    1.08   4
  -7   5   6    0.26    0.68   3
   7   5  -6   -0.43    0.78   1
  -7  -5   6   -0.85    0.64   2
   7  -5  -6   -0.51    0.67   1
   6  -5  -6    9.92    0.91   1
  -6  -5   6   10.18    0.92   2
   6   5  -6    9.75    1.02   1
  -6   5   6   10.11    0.92   3
   5  -5  -6    1.50    0.71   4
   5  -5  -6    2.48    0.61   1
  -5  -5   6    2.30    0.60   2
   5   5  -6    2.28    0.70   1
  -5   5   6    1.76    0.59   3
  -4   5   6   21.61    1.06   3
   4  -5  -6   17.45    1.29   4
  -4   5   6   19.68    0.92   2
   4   5  -6   19.59    1.27   4
   4   5  -6   21.37    1.14   1
  -4  -5   6   20.43    1.10   2
   4  -5  -6   21.05    1.01   1
  -3   5   6   14.01    0.85   2
  -3   5   6   14.42    0.90   3
   3  -5  -6   14.77    1.26   4
  -3  -5   6   15.15    0.96   2
   3   5  -6   14.88    0.96   1
   3   5  -6   14.16    1.29   4
  -2  -5   6   55.54    1.68   2
  -2   5   6   55.93    1.59   2
   2   5  -6   60.49    1.45   5
  -2   5   6   57.94    1.63   3
   2   5  -6   61.25    2.25   4
   2   5  -6   58.88    1.64   1
   2  -5  -6   57.66    2.19   4
  -1  -5   6   11.02    0.81   2
  -1   5   6   17.53    1.02   2
   1   5  -6   16.99    1.48   4
  -1  -5   6   14.95    0.93   1
   1  -5  -6   11.75    1.14   4
  -1   5   6   14.55    0.89   3
   0  -5  -6    1.37    0.48   3
   0   5  -6    1.77    0.86   4
   0  -5   6    0.86    0.52   2
   0  -5  -6    0.55    0.77   4
   0  -5   6    1.39    0.48   1
   0   5   6    1.91    0.59   2
  -1  -5  -6   16.28    1.46   4
  -1   5  -6   19.01    1.68   4
   1   5   6   16.81    1.13   2
  -1  -5  -6   16.24    1.05   3
   1  -5   6   17.41    1.05   2
  -2  -5  -6    0.80    0.83   4
   2   5   6    0.88    0.66   2
   2  -5   6    1.24    0.58   2
  -2   5  -6   -0.58    0.98   4
  -3   5  -6    0.07    1.16   4
  -3  -5  -6    0.92    0.85   4
   3  -5   6    0.24    0.65   2
   3   5   6    0.25    0.74   2
   7   6  -6    0.02    0.82   1
   7  -6  -6   -0.10    0.71   1
  -7  -6   6   -0.56    0.66   2
  -7   6   6   -0.61    0.66   3
   6   6  -6   -0.81    0.68   1
  -6   6   6   -0.65    0.56   3
   6  -6  -6    0.31    0.59   1
  -6  -6   6    0.31    0.57   2
   5   6  -6    4.04    0.80   1
   5  -6  -6    5.28    0.69   1
  -5   6   6    5.06    0.72   3
  -5  -6   6    5.30    0.72   2
  -4   6   6    0.71    0.39   2
   4   6  -6   -0.23    0.55   1
  -4  -6   6    1.02    0.51   2
  -4   6   6    0.69    0.47   3
   4  -6  -6    0.33    0.63   4
   4  -6  -6    0.61    0.47   1
  -3   6   6   22.51    1.00   2
   3   6  -6   23.89    1.13   1
   3  -6  -6   23.43    1.45   4
   3   6  -6   22.02    1.54   4
  -3   6   6   23.73    1.09   3
  -3  -6   6   24.36    1.15   2
   3   6  -6   24.16    1.01   5
   2   6  -6   20.66    0.97   1
   2   6  -6   18.47    1.51   4
  -2   6   6   20.63    0.98   2
  -2  -6   6   17.44    1.03   2
   2   6  -6   21.75    0.90   5
  -2   6   6   19.45    0.98   3
   2  -6  -6   19.15    1.46   4
   1  -6  -6    1.32    0.82   4
  -1   6   6    3.06    0.57   2
  -1  -6   6    3.03    0.56   1
   1   6  -6    3.02    0.87   4
  -1   6   6    4.22    0.53   3
  -1  -6   6    4.39    0.60   2
   0   6  -6    0.99    0.83   4
   0  -6   6    1.49    0.51   2
   0  -6  -6    1.55    0.49   3
   0  -6   6    1.08    0.47   1
   0   6   6    1.24    0.57   2
   0  -6  -6    0.00    0.71   4
   1  -6   6    7.31    0.73   2
  -1  -6  -6    5.60    0.94   4
   1   6   6    7.44    0.81   2
  -1  -6  -6    7.44    0.76   3
  -1   6  -6    6.62    1.16   4
  -2  -6  -6    0.71    0.78   4
   2  -6   6    2.16    0.62   2
   2   6   6    1.30    0.70   2
  -2  -6  -6    1.71    0.62   3
  -2   6  -6    1.64    1.11   4
   3  -6   6    4.88    0.78   2
  -3   6  -6    3.53    1.33   4
   3   6   6    4.30    0.88   2
   7   7  -6   -0.73    0.80   1
  -7  -7   6    0.63    0.70   2
  -7   7   6    0.69    0.74   3
   7  -7  -6    0.28    0.72   1
   6  -7  -6   -0.39    0.58   1
  -6  -7   6   -0.28    0.58   2
  -6   7   6   -0.95    0.57   3
   6   7  -6   -0.98    0.70   1
   5  -7  -6   20.15    1.44   4
  -5  -7   6   18.27    1.13   2
   5   7  -6   16.95    1.24   1
   5  -7  -6   19.01    1.06   1
  -5   7   6   16.52    1.16   3
  -4  -7   6    0.87    0.52   2
   4  -7  -6    0.56    0.65   4
   4   7  -6   -0.23    0.57   1
  -4   7   6   -0.35    0.46   3
   3   7  -6   35.56    1.83   4
   3  -7  -6   36.22    1.72   4
  -3   7   6   37.07    1.34   3
   3   7  -6   37.62    1.24   5
   3   7  -6   37.16    1.38   1
  -3  -7   6   37.41    1.37   2
  -3   7   6   38.47    1.25   2
  -2   7   6   13.66    0.92   3
   2   7  -6   12.26    1.14   4
  -2   7   6   12.55    0.87   2
  -2  -7   6   13.30    1.03   1
  -2  -7   6   12.35    0.92   2
   2  -7  -6   13.15    1.14   4
  -1   7   6    0.71    0.50   2
  -1  -7   6    0.54    0.49   1
   1  -7  -6    0.27    0.73   4
  -1   7   6    0.91    0.44   3
   1   7  -6    0.72    0.80   4
  -1  -7   6    2.11    0.52   2
   0  -7  -6   -0.04    0.45   3
   0   7   6   -0.32    0.49   2
   0  -7   6    0.17    0.46   1
   0  -7  -6   -0.37    0.68   4
   0  -7   6   -0.05    0.46   2
   0   7  -6    0.03    0.82   4
   1  -7   6    3.86    0.63   2
   1   7   6    3.16    0.70   2
   1  -7   6    4.48    0.64   1
  -1  -7  -6    4.36    0.94   4
  -1  -7  -6    4.04    0.66   3
  -1   7  -6    3.07    1.05   4
  -2   7  -6    6.22    1.26   4
  -2  -7  -6    7.69    0.87   3
   2   7   6    6.41    0.89   2
  -2  -7  -6    5.68    1.01   4
   2  -7   6    6.53    0.75   2
  -3   7  -6   -0.61    1.19   4
   3   7   6    0.04    0.80   2
  -3  -7  -6    1.54    0.75   3
   7   8  -6   -0.68    0.84   1
  -7   8   6    0.17    0.73   3
   7  -8  -6    1.55    0.73   1
  -7  -8   6   -0.47    0.70   2
  -6  -8   6    2.36    0.72   2
  -6   8   6    2.21    0.72   3
   6   8  -6    3.82    0.90   1
   6  -8  -6    1.83    0.68   1
   5  -8  -6    1.42    0.55   1
  -5  -8   6    1.16    0.61   2
   5   8  -6    0.56    0.69   1
   5  -8  -6    1.72    0.75   4
  -5   8   6    1.28    0.64   3
  -4  -8   6    0.34    0.52   2
   4   8  -6   -0.44    0.57   1
   4  -8  -6    0.20    0.67   4
  -4   8   6   -0.12    0.50   3
   3   8  -6   10.96    0.94   1
  -3  -8   6   12.66    0.97   2
  -3   8   6   11.94    0.84   2
  -3   8   6   12.70    0.95   3
   3   8  -6   11.59    1.10   4
   3  -8  -6   13.03    1.24   4
   3   8  -6    9.84    0.75   5
  -2   8   6   19.62    1.04   3
  -2  -8   6   19.84    1.06   2
   2  -8  -6   19.81    1.47   4
  -2   8   6   19.16    1.00   2
   2   8  -6   19.25    1.56   4
  -2  -8   6   20.65    1.15   1
  -1  -8   6    0.16    0.45   2
   1   8  -6   -0.19    0.75   4
  -1  -8   6   -0.04    0.48   1
  -1   8   6   -0.13    0.47   2
  -1   8   6    0.16    0.42   3
   1  -8  -6    0.13    0.68   4
   0  -8   6   30.90    1.30   1
   0  -8   6   32.94    1.27   2
   0   8  -6   31.72    1.89   4
   0   8   6   31.87    1.37   2
   0  -8  -6   33.13    1.36   3
   0  -8  -6   34.74    1.82   4
  -1  -8  -6   25.31    1.29   3
   1   8   6   24.51    1.31   2
   1  -8   6   23.09    1.18   1
  -1   8  -6   25.83    1.91   4
   1  -8   6   24.21    1.17   2
  -1  -8  -6   24.44    1.60   4
  -2  -8  -6    5.57    1.01   4
   2  -8   6    5.01    0.70   2
   2   8   6    4.37    0.84   2
  -2  -8  -6    4.74    0.80   3
  -2   8  -6    4.44    1.23   4
  -3  -8  -6    0.66    0.74   3
  -3   8  -6   -0.73    1.20   4
   3   8   6   -0.28    0.80   2
  -7   9   6   -0.44    0.72   3
   7  -9  -6    0.12    0.68   1
   7   9  -6   -0.39    0.87   1
  -7  -9   6   -0.90    0.68   2
   6  -9  -6    1.64    0.66   1
   6   9  -6    0.82    0.83   1
  -6   9   6    0.75    0.72   3
  -6  -9   6    2.57    0.73   2
   5  -9  -6    7.18    1.00   4
  -5   9   6    8.51    0.89   3
   5   9  -6    6.81    0.93   1
  -5  -9   6    6.84    0.84   2
  -4  -9   6   19.39    1.16   2
   4  -9  -6   21.28    1.50   4
  -4   9   6   17.38    1.13   3
   4   9  -6   18.86    1.22   1
   3  -9  -6    7.40    1.00   4
   3   9  -6    9.35    0.76   5
  -3   9   6    7.49    0.75   3
   3   9  -6    7.35    1.02   4
   3   9  -6    8.86    0.82   1
  -3  -9   6    8.76    0.79   2
   2   9  -6   12.54    1.18   4
  -2  -9   6   11.76    0.91   2
  -2  -9   6   11.11    0.99   1
   2  -9  -6   13.58    1.33   4
  -2   9   6   11.65    0.89   2
  -2   9   6   11.20    0.91   3
  -1   9   6   -0.28    0.43   3
   1   9  -6   -0.35    0.77   4
  -1  -9   6   -0.41    0.47   1
   1  -9  -6   -0.05    0.69   4
  -1  -9   6   -0.16    0.45   2
  -1   9   6   -0.29    0.47   2
   0   9  -6   16.05    1.61   4
   0  -9   6   16.45    1.02   2
   0  -9  -6   17.39    1.46   4
   0   9   6   16.02    1.10   2
   0  -9   6   16.12    1.04   1
   0  -9  -6   17.14    1.09   3
  -1  -9  -6   -0.30    0.55   3
   1   9   6    0.05    0.59   2
  -1  -9  -6    0.15    0.74   4
   1  -9   6    0.12    0.50   2
  -1   9  -6   -0.93    0.93   4
   1  -9   6   -0.49    0.48   1
   2   9   6    0.58    0.72   2
  -2   9  -6   -1.03    1.07   4
   2  -9   6   -0.14    0.53   2
  -2  -9  -6    0.66    0.80   4
  -2  -9  -6    0.72    0.65   3
  -3   9  -6    0.50    1.28   4
  -3  -9  -6    1.46    0.76   3
   3   9   6    1.83    0.85   2
  -6 -10   6    1.75    0.72   2
  -6  10   6    0.11    0.71   3
   6  10  -6    0.96    0.84   1
  -5 -10   6    0.26    0.61   2
   5 -10  -6    1.20    0.77   4
  -5  10   6    1.09    0.66   3
   5  10  -6    0.33    0.70   1
   4 -10  -6    6.62    1.00   4
  -4 -10   6    5.96    0.79   2
  -4  10   6    5.64    0.77   3
   4  10  -6    5.86    0.83   1
   3  10  -6   23.48    1.23   1
  -3 -10   6   23.01    1.23   2
   3 -10  -6   23.45    1.62   4
  -3  10   6   25.28    1.27   3
   3  10  -6   23.78    1.13   5
   3  10  -6   24.80    1.77   4
  -2  10   6    5.68    0.64   2
  -2  10   6    5.63    0.69   3
   2  10  -6    3.00    0.93   4
   2 -10  -6    6.57    0.97   4
  -2 -10   6    6.49    0.69   2
  -2 -10   6    6.08    0.74   1
  -1 -10   6    4.56    0.63   2
   1  10  -6    4.32    0.98   4
  -1  10   6    4.64    0.66   3
   1 -10  -6    5.62    0.92   4
  -1  10   6    4.50    0.67   2
  -1 -10   6    4.30    0.68   1
   0 -10  -6    1.10    0.57   3
   0 -10  -6    0.27    0.74   4
   0 -10   6    0.66    0.50   2
   0 -10   6    0.62    0.52   1
   0  10   6    0.74    0.58   2
   0  10  -6    0.62    0.92   4
  -1 -10  -6   -0.17    0.56   3
  -1 -10  -6    0.99    0.79   4
  -1  10  -6   -0.59    0.95   4
   1 -10   6    1.58    0.59   1
   1  10   6    1.20    0.65   2
   1 -10   6    0.54    0.52   2
   2 -10   6    0.93    0.61   1
   2  10   6    0.89    0.75   2
  -2 -10  -6    1.71    0.85   4
  -2 -10  -6    0.79    0.67   3
  -2  10  -6   -0.50    1.14   4
  -6 -11   6    6.11    0.93   2
  -6  11   6    6.12    0.98   3
   6  11  -6    5.55    1.05   1
   5  11  -6    0.00    0.68   1
  -5 -11   6    0.49    0.65   2
   5 -11  -6    0.80    0.76   4
  -5  11   6   -0.53    0.64   3
  -4 -11   6   14.08    1.11   2
   4  11  -6   13.19    1.05   1
  -4  11   6   13.18    1.09   3
   4 -11  -6   12.27    1.23   4
   3  11  -6    9.08    1.10   4
  -3 -11   6   10.80    0.91   2
  -3  11   6   11.93    0.95   3
   3 -11  -6   13.09    1.26   4
   3  11  -6   11.71    0.88   5
   3  11  -6   14.19    1.08   1
  -2 -11   6    7.97    0.78   2
   2  11  -6    7.90    1.10   4
  -2  11   6    9.64    0.83   3
  -2 -11   6    7.42    0.82   1
  -2  11   6    8.80    0.75   2
   2 -11  -6    9.14    1.10   4
  -1 -11   6    0.31    0.55   1
  -1 -11   6   -0.35    0.47   2
  -1  11   6   -0.11    0.52   3
   1 -11  -6    0.80    0.74   4
  -1  11   6    0.38    0.52   2
   1  11  -6   -0.87    0.78   4
   0 -11   6    1.20    0.59   1
   0  11   6    0.76    0.60   2
   0 -11  -6    1.74    0.81   4
   0  11  -6    0.86    0.93   4
   0 -11   6    1.73    0.55   2
   0 -11  -6    1.10    0.62   3
  -1 -11  -6    0.14    0.59   3
  -1 -11  -6    0.03    0.75   4
   1  11   6   -0.43    0.62   2
  -1  11  -6   -1.38    0.96   4
   1 -11   6    0.13    0.51   2
   1 -11   6   -0.31    0.51   1
   2  11   6   13.30    1.15   2
  -2 -11  -6   13.45    1.29   4
  -2 -11  -6   13.99    1.26   3
   2 -11   6   13.78    1.09   1
  -2  11  -6   13.82    1.67   4
  -6  12   6    0.52    0.77   3
   6  12  -6    0.99    0.89   1
  -6 -12   6    1.75    0.82   2
  -5 -12   6   18.34    1.27   2
   5  12  -6   16.84    1.38   1
   5 -12  -6   20.30    1.55   4
  -5  12   6   17.93    1.33   3
  -4  12   6    0.06    0.60   3
   4  12  -6   -0.06    0.59   5
   4 -12  -6    1.87    0.82   4
  -4 -12   6    1.05    0.63   2
   4  12  -6    1.22    0.67   1
  -3 -12   6   33.31    1.47   2
   3  12  -6   34.90    1.49   1
   3 -12  -6   34.13    1.90   4
  -3  12   6   33.60    1.52   3
   3  12  -6   34.70    1.35   5
   3  12  -6   33.84    1.89   4
  -2 -12   6   47.31    1.67   2
   2 -12  -6   51.18    2.25   4
   2  12  -6   48.15    2.19   4
  -2  12   6   52.80    1.76   3
  -2 -12   6   48.73    1.75   1
  -1 -12   6    1.45    0.57   2
  -1  12   6    1.61    0.63   3
   1 -12  -6    2.56    0.87   4
  -1 -12   6    1.24    0.61   1
   1  12  -6    0.24    0.91   4
  -1  12   6    2.32    0.61   2
   0  12  -6   16.53    1.48   4
   0 -12  -6   16.24    1.50   4
   0 -12  -6   15.97    1.18   3
   0  12   6   16.26    1.17   2
   0 -12   6   14.00    1.08   1
   0 -12   6   15.91    1.01   2
   1  12   6    0.46    0.68   2
   1 -12   6    0.52    0.57   1
  -1  12  -6   -1.56    1.02   4
  -1 -12  -6    1.35    0.68   3
   1 -12   6    1.40    0.56   2
  -1 -12  -6    0.59    0.80   4
   2 -12   6    2.44    0.73   1
  -2 -12  -6    3.12    0.86   3
   2  12   6    2.31    0.84   2
  -2  12  -6    1.21    1.30   4
  -2 -12  -6    4.14    1.01   4
  -6  13   6    3.38    0.92   3
  -6 -13   6    2.72    0.86   2
   6  13  -6    2.11    0.96   1
   5  13  -6   12.18    1.16   1
   5 -13  -6   11.26    1.26   4
  -5  13   6   12.04    1.10   3
  -5 -13   6    9.93    1.01   2
   4 -13  -6    2.23    0.87   4
   4  13  -6    1.16    0.63   5
  -4 -13   6    1.39    0.66   2
  -4  13   6    1.24    0.67   3
   4  13  -6    1.49    0.71   1
  -3 -13   6    3.76    0.76   2
   3 -13  -6    3.79    0.95   4
  -3  13   6    4.54    0.79   3
   3  13  -6    4.35    0.76   1
   3  13  -6    4.04    0.70   5
  -2 -13   6   42.95    1.61   2
  -2 -13   6   41.98    1.67   1
  -2  13   6   44.50    1.68   3
   2  13  -6   44.07    2.19   4
   2 -13  -6   45.54    2.19   4
  -1  13   6    0.77    0.57   2
  -1  13   6    0.83    0.62   3
  -1 -13   6    0.98    0.57   2
   1  13  -6   -0.44    0.87   4
  -1 -13   6   -0.26    0.58   1
   1 -13  -6    0.18    0.83   4
   0 -13  -6    0.09    0.62   3
   0 -13  -6    0.06    0.82   4
   0 -13   6    0.20    0.59   1
   0  13   6    0.24    0.60   2
   0 -13   6    0.14    0.53   2
   0  13  -6    1.24    1.05   4
  -1 -13  -6    0.19    0.70   3
   1 -13   6    0.53    0.63   1
   1  13   6    0.45    0.70   2
  -1  13  -6   -0.90    1.11   4
  -1 -13  -6    1.35    0.89   4
  -2 -13  -6    0.39    0.76   3
   2  13   6   -0.69    0.78   2
  -2  13  -6   -1.67    1.25   4
   2 -13   6    1.01    0.69   1
  -5  14   6    0.32    0.72   3
  -5 -14   6   -0.29    0.65   2
   5  14  -6   -0.49    0.74   1
   5 -14  -6    0.81    0.85   4
   4  14  -6   14.67    1.11   5
   4 -14  -6   15.12    1.49   4
   4  14  -6   15.45    1.27   1
  -4 -14   6   14.41    1.16   2
  -4  14   6   15.14    1.23   3
  -3 -14   6    0.67    0.64   2
  -3  14   6    0.69    0.67   3
   3 -14  -6    0.77    0.83   4
   3  14  -6    1.51    0.66   1
   3  14  -6    2.48    0.66   5
   2 -14  -6    6.10    1.09   4
  -2  14   6    6.20    0.86   3
  -2 -14   6    5.59    0.81   2
  -2 -14   6    5.23    0.86   1
   2  14  -6    4.25    1.06   4
   1  14  -6   12.98    1.44   4
   1 -14  -6   15.46    1.42   4
  -1 -14   6   14.53    1.15   1
  -1 -14   6   14.17    1.07   2
  -1  14   6   15.98    1.25   3
   0 -14   6    1.69    0.71   1
   0  14   6    1.66    0.67   2
   0 -14  -6    1.09    0.88   4
   0  14  -6    1.09    1.10   4
   0 -14  -6    2.55    0.75   3
   0 -14   6    1.30    0.59   2
   1 -14   6    7.51    0.90   1
   1  14   6    6.46    0.96   2
  -1 -14  -6    7.39    1.16   4
  -1 -14  -6    7.53    1.00   3
  -1  14  -6    3.47    1.45   4
   5  15  -6    2.49    0.92   1
   5 -15  -6    3.09    0.99   4
  -5  15   6    1.92    0.82   3
  -5 -15   6    1.47    0.78   2
   4  15  -6    1.17    0.68   5
   4 -15  -6    2.65    0.91   4
   4  15  -6    1.07    0.74   1
  -4  15   6    1.52    0.75   3
  -4 -15   6    1.92    0.74   2
   3 -15  -6    5.72    1.09   4
   3  15  -6    5.76    0.81   5
  -3  15   6    5.82    0.89   3
  -3 -15   6    5.15    0.85   2
   3  15  -6    7.39    0.93   1
  -2 -15   6    4.62    0.88   1
   2  15  -6    5.00    1.14   4
  -2  15   6    4.93    0.86   3
  -2 -15   6    3.65    0.78   2
   2 -15  -6    6.43    1.14   4
  -1 -15   6    2.83    0.69   2
   1  15  -6    0.19    1.00   4
  -1 -15   6    3.06    0.77   1
  -1  15   6    4.65    0.84   3
   1 -15  -6    3.39    1.01   4
   0 -15   6    4.91    0.87   1
   0  15   6    5.88    0.87   2
   0  15  -6    3.24    1.31   4
   0 -15  -6    6.29    1.13   4
  -1 -15  -6   50.31    2.08   3
   1  15   6   46.30    1.97   2
   1 -15   6   45.00    1.87   1
  -1 -15  -6   50.13    2.48   4
  -5 -16   6    2.47    0.85   2
   5 -16  -6    4.25    1.04   4
   4 -16  -6    1.56    0.88   4
   4  16  -6    0.41    0.71   1
  -4  16   6    0.14    0.69   3
  -4 -16   6    0.48    0.70   2
   4  16  -6    0.57    0.65   5
   3 -16  -6    7.39    1.18   4
   3  16  -6    4.98    0.81   5
  -3 -16   6    4.42    0.83   2
  -3  16   6    5.59    0.91   3
   3  16  -6    7.14    0.93   1
  -2 -16   6   34.16    1.65   1
   2 -16  -6   36.53    2.13   4
   2  16  -6   36.36    2.25   4
  -2 -16   6   33.19    1.52   2
  -2  16   6   36.83    1.69   3
  -1  16   6    4.22    0.89   3
   1 -16  -6    4.29    1.09   4
   1  16  -6    2.99    1.16   4
  -1 -16   6    3.16    0.73   2
  -1 -16   6    3.30    0.84   1
   0 -16   6   20.11    1.44   1
   0  16   6   29.09    1.58   3
   0  16   6   22.19    1.49   2
   0 -16  -6   23.75    1.91   4
   0  16  -6   22.10    1.95   4
  -4  17   6    0.02    0.74   3
  -4 -17   6    0.56    0.71   2
   4  17  -6   -0.26    0.73   1
   4  17  -6    0.34    0.69   5
   4 -17  -6    0.98    0.90   4
  -3  17   6    0.76    0.76   3
   3 -17  -6    1.06    0.91   4
   3  17  -6    1.89    0.75   1
  -3 -17   6    1.21    0.72   2
   3  17  -6    1.65    0.68   5
   2 -17  -6    0.74    0.91   4
   2  17  -6   -0.83    0.98   4
  -2 -17   6    0.89    0.69   2
  -2  17   6   -0.15    0.73   3
  -2 -17   6   -0.71    0.73   1
  -1  17   6   45.70    1.97   3
   1 -17  -6   43.78    2.32   4
  -1 -17   6   38.69    1.65   2
  -1 -17   6   36.81    1.78   1
   1  17  -6   39.80    2.58   4
   0 -17  -6    7.51    1.31   4
   0  17  -6    5.72    1.50   4
   0  17   6   12.04    1.16   3
   0 -17   6    6.59    1.03   1
   3  18  -6    3.27    0.84   1
   3 -18  -6    3.43    1.03   4
  -3  18   6    1.12    0.82   3
   3  18  -6    3.06    0.77   5
  -3 -18   6    1.97    0.76   2
  -2  18   6    0.53    0.82   3
   2  18  -6    0.94    1.08   4
  -2 -18   6    2.36    0.76   2
   2 -18  -6    1.40    1.00   4
  -2 -18   6    0.81    0.86   1
   1 -18  -6    1.78    1.00   4
  -1  18   6    0.35    0.80   3
   1  18  -6    0.04    1.18   4
  -1 -18   6    0.56    0.82   1
   7   0  -7   -1.19    0.75   1
   6   0  -7   -0.10    0.67   1
  -6   0   7    0.42    0.54   2
   5   0  -7    0.23    0.59   1
  -5   0   7   -0.11    0.50   2
   4   0  -7    0.42    0.68   4
  -4   0   7    0.16    0.45   2
   4   0  -7   -0.39    0.52   1
   3   0  -7   31.04    1.65   4
  -3   0   7   32.59    1.24   2
   3   0  -7   29.47    1.19   1
   2   0  -7    0.49    0.79   4
  -2   0   7   -0.38    0.48   2
  -1   0   7   20.97    1.21   2
   1   0  -7   23.22    1.70   4
   0   0  -7   -0.17    0.88   4
   0   0   7    0.60    0.61   2
  -1   0  -7    8.33    1.24   4
   1   0   7    9.34    0.94   2
   2   0   7   -0.13    0.72   2
  -2   0  -7    0.42    1.00   4
   7   1  -7   -1.52    0.76   1
   7  -1  -7   -0.46    0.74   1
   6   1  -7   -0.91    0.65   1
  -6  -1   7    0.60    0.55   2
   6  -1  -7    0.31    0.66   1
  -5  -1   7    4.83    0.69   2
  -5   1   7    4.00    0.65   2
   5   1  -7    3.66    0.74   1
   5  -1  -7    4.16    0.73   1
   4   1  -7    0.63    0.69   4
   4  -1  -7    1.52    0.72   4
  -4   1   7    0.64    0.47   2
   4  -1  -7    0.27    0.55   1
  -4  -1   7    0.64    0.47   2
   4   1  -7   -0.63    0.55   1
   3  -1  -7    0.13    0.70   4
  -3  -1   7    0.05    0.46   2
  -3   1   7    0.15    0.44   2
   3   1  -7    0.69    0.72   4
   3   1  -7    0.01    0.49   1
  -2  -1   7   13.08    1.00   2
   2   1  -7   14.90    1.41   4
   2  -1  -7   14.34    1.40   4
  -2   1   7   13.91    0.98   2
   1   1  -7   74.70    2.66   4
  -1   1   7   72.07    2.03   2
  -1  -1   7   72.01    2.05   2
   1  -1  -7   69.62    2.62   4
   0  -1  -7   18.80    1.64   4
   0   1   7   19.27    1.22   2
   0   1  -7   18.97    1.70   4
   0  -1   7   18.88    1.21   2
   1   1   7   18.32    1.27   2
  -1   1  -7   20.84    1.77   4
   1  -1   7   15.59    1.21   2
  -1  -1  -7   16.13    1.61   4
   2  -1   7    1.63    0.79   2
  -2   1  -7    3.18    1.13   4
  -2  -1  -7    2.75    1.07   4
   2   1   7    3.53    0.84   2
   7   2  -7   -0.48    0.83   1
   7  -2  -7   -0.54    0.74   1
   6   2  -7    1.92    0.80   1
  -6  -2   7    2.32    0.65   2
   6  -2  -7    1.98    0.72   1
   5   2  -7   -0.28    0.60   1
   5  -2  -7   -0.29    0.55   1
  -5  -2   7    0.23    0.53   2
  -5   2   7    0.15    0.46   2
   4   2  -7   32.12    1.35   1
   4  -2  -7   33.14    1.69   4
  -4  -2   7   34.37    1.34   2
   4  -2  -7   32.62    1.29   1
  -4   2   7   31.64    1.24   2
   3  -2  -7    1.88    0.78   4
  -3  -2   7    2.18    0.56   2
   3   2  -7    2.01    0.77   4
   3   2  -7    1.98    0.56   1
  -3   2   7    2.40    0.54   2
  -2  -2   7   11.40    0.98   2
   2   2  -7   12.96    1.19   4
  -2   2   7   10.74    0.92   2
   2  -2  -7   10.98    1.17   4
  -1   2   7    2.42    0.62   2
   1  -2  -7    0.63    0.90   4
  -1  -2   7    0.97    0.64   2
   1   2  -7    3.24    0.95   4
   0   2  -7    2.01    0.95   4
   0  -2   7    0.50    0.60   2
   0   2   7    0.87    0.66   2
   0  -2  -7    0.51    0.87   4
   1   2   7    4.71    0.83   2
  -1   2  -7    3.22    1.09   4
  -1  -2  -7    5.08    1.08   4
   1  -2   7    4.04    0.78   2
  -2   2  -7    4.01    1.16   4
   2   2   7    2.60    0.83   2
   2  -2   7    1.41    0.76   2
  -2  -2  -7    2.75    1.08   4
  -7   3   7    1.58    0.77   3
   7   3  -7    1.45    0.92   1
  -7  -3   7    2.14    0.77   2
   7  -3  -7    2.66    0.85   1
   6   3  -7    0.46    0.74   1
  -6  -3   7    0.72    0.61   2
   6  -3  -7   -0.06    0.65   1
  -6   3   7    0.17    0.60   3
  -5   3   7    3.44    0.58   2
   5  -3  -7    3.38    0.67   1
  -5  -3   7    3.37    0.67   2
  -5   3   7    1.99    0.58   3
   5   3  -7    3.03    0.74   1
   5  -3  -7    3.21    0.76   4
  -4   3   7   16.68    1.04   3
  -4   3   7   17.69    0.96   2
  -4  -3   7   16.60    1.07   2
   4  -3  -7   19.05    1.39   4
   4   3  -7   19.89    1.38   4
   4   3  -7   15.52    1.07   1
   3   3  -7    2.44    0.81   4
  -3   3   7    2.84    0.55   2
   3  -3  -7    2.86    0.82   4
  -3  -3   7    3.06    0.59   2
   3   3  -7    2.41    0.59   1
   2   3  -7    4.04    0.93   4
   2   3  -7    3.98    0.54   5
  -2  -3   7    4.09    0.69   2
  -2   3   7    3.35    0.61   2
   2  -3  -7    3.65    0.91   4
   2   3  -7    4.09    0.59   1
  -1  -3   7   12.52    1.06   2
   1  -3  -7   14.64    1.36   4
  -1   3   7   15.04    1.04   2
   1   3  -7   16.41    1.56   4
   0   3  -7   86.33    2.98   4
   0  -3  -7   77.68    2.84   4
   0   3   7   80.22    2.27   2
   0  -3   7   82.87    2.26   2
  -1  -3  -7    3.00    1.01   4
   1  -3   7    2.46    0.71   2
   1   3   7    2.57    0.76   2
  -1   3  -7    3.96    1.14   4
   2  -3   7    0.64    0.70   2
   2   3   7    1.79    0.80   2
  -2   3  -7    0.62    1.06   4
  -2  -3  -7    2.37    0.99   4
  -7   4   7    0.60    0.72   3
   7  -4  -7    0.77    0.78   1
  -7  -4   7   -0.37    0.66   2
   7   4  -7   -0.40    0.86   1
  -6   4   7    9.10    0.92   3
   6  -4  -7   11.29    0.98   1
  -6  -4   7   11.92    1.01   2
   6   4  -7    8.39    1.06   1
  -5   4   7    3.73    0.66   3
   5  -4  -7    3.60    0.79   4
  -5  -4   7    2.80    0.66   2
   5   4  -7    2.01    0.73   1
  -4   4   7    0.52    0.45   2
   4  -4  -7    0.52    0.71   4
   4   4  -7   -0.05    0.56   1
  -4  -4   7    0.75    0.55   2
   4   4  -7    0.94    0.71   4
  -4   4   7    0.35    0.49   3
   3   4  -7   23.68    1.16   1
   3  -4  -7   26.00    1.59   4
  -3   4   7   25.50    1.12   2
   3   4  -7   22.57    1.50   4
  -3   4   7   25.25    1.09   3
  -3  -4   7   24.65    1.18   2
   2  -4  -7   17.12    1.47   4
  -2  -4   7   16.35    1.07   2
  -2   4   7   19.64    1.05   2
   2   4  -7   17.33    0.94   5
   2   4  -7   19.79    1.04   1
   2   4  -7   19.81    1.55   4
  -1   4   7   17.62    1.07   2
   1   4  -7   19.95    1.66   4
  -1  -4   7   13.85    1.09   2
   1  -4  -7   16.78    1.54   4
   0  -4  -7    0.96    0.92   4
   0   4  -7    1.67    0.99   4
   0   4   7    1.43    0.67   2
   0  -4   7    1.74    0.67   2
   1   4   7   19.70    1.30   2
   1  -4   7   17.56    1.20   2
  -1  -4  -7   16.99    1.62   4
  -1   4  -7   18.93    1.91   4
   2   4   7   -0.01    0.76   2
  -2   4  -7   -0.37    1.12   4
  -2  -4  -7   -0.07    0.95   4
   2  -4   7    0.11    0.69   2
   7  -5  -7   -1.09    0.72   1
  -7   5   7    0.66    0.75   3
  -7  -5   7   -0.21    0.72   2
   7   5  -7    1.19    0.89   1
  -6   5   7    1.28    0.68   3
   6  -5  -7    1.55    0.72   1
  -6  -5   7    1.35    0.70   2
   6   5  -7    0.88    0.81   1
  -5  -5   7    1.84    0.63   2
  -5   5   7    0.79    0.59   3
   5  -5  -7    1.96    0.80   4
   5   5  -7    0.77    0.71   1
   4  -5  -7    0.15    0.69   4
  -4  -5   7    0.42    0.55   2
  -4   5   7    0.73    0.50   3
  -4   5   7    0.69    0.45   2
   4   5  -7    0.93    0.71   4
   4   5  -7    0.05    0.60   1
  -3  -5   7    1.23    0.54   2
   3  -5  -7    1.53    0.78   4
   3   5  -7    1.27    0.79   4
  -3   5   7    1.11    0.48   3
  -3   5   7    1.25    0.50   2
   3   5  -7    1.09    0.57   1
  -2   5   7   21.50    1.10   3
   2   5  -7   18.25    0.98   5
  -2   5   7   20.29    1.07   2
   2   5  -7   21.04    1.65   4
   2  -5  -7   19.00    1.53   4
  -2  -5   7   19.04    1.13   2
   2   5  -7   21.82    1.09   1
  -1   5   7    5.51    0.72   2
   1   5  -7    6.11    1.09   4
  -1   5   7    5.24    0.62   3
  -1  -5   7    3.12    0.70   2
   1  -5  -7    3.97    0.99   4
   0  -5  -7    0.38    0.84   4
   0   5  -7   -0.30    0.93   4
   0   5   7    0.32    0.62   2
   0  -5   7   -0.23    0.57   2
   1   5   7    0.86    0.72   2
   1  -5   7    1.01    0.63   2
  -1  -5  -7    0.51    0.86   4
  -1   5  -7   -0.04    1.05   4
   2   5   7   14.51    1.18   2
  -2  -5  -7   13.24    1.36   4
  -2   5  -7   14.58    1.65   4
   2  -5   7   15.16    1.21   2
  -7   6   7   -0.21    0.72   3
   7   6  -7   -0.70    0.83   1
   7  -6  -7   -0.26    0.76   1
  -7  -6   7   -0.99    0.70   2
  -6  -6   7    3.00    0.78   2
   6   6  -7    2.71    0.89   1
  -6   6   7    2.97    0.76   3
   5  -6  -7    0.03    0.74   4
  -5   6   7   -0.33    0.58   3
   5   6  -7   -0.99    0.67   1
  -5  -6   7    0.24    0.58   2
  -4  -6   7    1.41    0.62   2
   4  -6  -7    1.62    0.75   4
   4   6  -7    0.58    0.62   1
  -4   6   7    0.84    0.47   2
  -4   6   7    0.62    0.52   3
  -3   6   7    5.21    0.65   3
   3   6  -7    5.88    0.65   5
  -3  -6   7    5.41    0.72   2
   3   6  -7    6.30    0.72   1
   3  -6  -7    5.50    0.96   4
   3   6  -7    6.15    0.99   4
  -3   6   7    6.41    0.66   2
   2  -6  -7    9.45    1.14   4
   2   6  -7    9.12    0.79   1
   2   6  -7    9.62    0.72   5
  -2  -6   7    8.29    0.80   2
  -2   6   7    9.99    0.78   2
   2   6  -7    8.95    1.15   4
  -2   6   7    9.63    0.86   3
   1  -6  -7   -0.68    0.79   4
   1   6  -7    1.07    0.90   4
  -1   6   7    0.06    0.52   2
  -1   6   7    0.19    0.47   3
  -1  -6   7   -0.70    0.51   2
   0  -6  -7   13.26    1.33   4
   0  -6   7   13.02    1.08   2
   0   6   7   13.94    1.14   2
   0   6  -7   14.34    1.46   4
  -1  -6  -7    8.36    1.19   4
   1   6   7    9.83    1.02   2
   1  -6   7   10.41    0.92   2
  -1   6  -7   10.64    1.45   4
   2   6   7    4.74    0.92   2
  -2   6  -7    3.76    1.33   4
  -2  -6  -7    4.71    1.10   4
   2  -6   7    4.30    0.79   2
  -6   7   7    2.95    0.77   3
  -6  -7   7    1.57    0.72   2
   6   7  -7    1.09    0.84   1
  -5  -7   7    7.98    0.90   2
   5   7  -7    6.29    0.95   1
   5  -7  -7    8.80    1.12   4
  -5   7   7    7.71    0.89   3
   4  -7  -7   21.85    1.50   4
   4   7  -7   21.08    1.25   1
  -4  -7   7   22.69    1.30   2
  -4   7   7   18.45    1.14   3
  -3   7   7    1.88    0.56   3
  -3  -7   7    2.49    0.62   2
   3   7  -7    3.20    0.64   1
   3  -7  -7    2.06    0.80   4
   3   7  -7    2.41    0.88   4
   3   7  -7    3.29    0.60   5
  -3   7   7    2.79    0.57   2
   2   7  -7   -0.29    0.81   4
  -2  -7   7    0.51    0.55   2
   2   7  -7    0.57    0.51   1
  -2   7   7    0.57    0.48   2
   2   7  -7    1.40    0.50   5
   2  -7  -7    0.20    0.74   4
  -2   7   7    0.66    0.49   3
  -1   7   7    4.88    0.75   2
  -1  -7   7    4.43    0.68   2
  -1  -7   7    4.97    0.71   1
   1  -7  -7    4.38    1.01   4
  -1   7   7    4.88    0.65   3
   1   7  -7    3.99    1.06   4
   0  -7   7    1.14    0.61   2
   0  -7  -7    1.03    0.92   4
   0   7  -7    0.53    1.02   4
   0   7   7    1.57    0.67   2
   1   7   7   13.03    1.10   2
  -1   7  -7   12.57    1.54   4
  -1  -7  -7   11.81    1.33   4
   1  -7   7   11.77    0.96   2
   2  -7   7   -0.57    0.64   2
  -2  -7  -7    0.72    0.95   4
  -2   7  -7   -1.57    1.22   4
   2   7   7    0.12    0.80   2
   6   8  -7    4.42    0.97   1
  -6  -8   7    3.73    0.85   2
  -6   8   7    3.37    0.82   3
  -5   8   7    3.70    0.79   3
   5   8  -7    3.79    0.87   1
  -5  -8   7    4.43    0.81   2
   5  -8  -7    4.90    0.99   4
  -4   8   7   29.44    1.39   3
  -4  -8   7   33.54    1.52   2
   4  -8  -7   31.13    1.85   4
   4   8  -7   30.05    1.44   1
   3  -8  -7    9.19    1.09   4
   3   8  -7    9.80    0.79   5
  -3   8   7    9.90    0.82   3
   3   8  -7   10.55    1.20   4
   3   8  -7   10.68    0.94   1
  -3  -8   7    8.77    0.85   2
  -3   8   7   10.91    0.88   2
   2  -8  -7   -0.18    0.76   4
  -2   8   7    0.34    0.49   2
   2   8  -7    1.51    0.51   1
   2   8  -7   -0.34    0.85   4
  -2  -8   7    0.01    0.49   2
  -2   8   7    0.36    0.49   3
   2   8  -7    0.70    0.48   5
   1  -8  -7   -0.03    0.78   4
  -1   8   7    0.46    0.51   3
  -1   8   7    0.29    0.59   2
  -1  -8   7    0.68    0.55   2
   1   8  -7   -0.08    0.95   4
  -1  -8   7    0.35    0.53   1
   0  -8  -7    3.36    1.02   4
   0   8   7    4.17    0.76   2
   0  -8   7    2.97    0.67   2
   0   8  -7    2.90    1.13   4
   1   8   7    0.31    0.71   2
  -1  -8  -7    0.47    0.91   4
  -1   8  -7    1.00    1.17   4
   1  -8   7    0.44    0.64   2
  -6   9   7    0.69    0.73   3
   6   9  -7    0.14    0.83   1
  -6  -9   7    0.24    0.68   2
   5   9  -7   25.87    1.52   1
  -5  -9   7   23.15    1.38   2
  -5   9   7   25.90    1.43   3
   5  -9  -7   24.74    1.75   4
  -4   9   7    4.32    0.73   3
   4   9  -7    3.15    0.76   1
  -4  -9   7    4.07    0.77   2
   4  -9  -7    2.89    0.99   4
  -3  -9   7    0.91    0.58   2
  -3   9   7   -0.54    0.47   2
  -3   9   7   -0.42    0.50   3
   3   9  -7    0.20    0.85   4
   3   9  -7   -0.55    0.53   1
   3  -9  -7    0.77    0.77   4
   3   9  -7   -1.16    0.50   5
   2  -9  -7    5.33    1.03   4
  -2   9   7    4.76    0.68   2
  -2  -9   7    4.92    0.72   2
   2   9  -7    4.12    1.06   4
  -2   9   7    6.02    0.72   3
  -1  -9   7    5.45    0.78   1
  -1   9   7    6.37    0.76   3
  -1   9   7    5.07    0.78   2
  -1  -9   7    7.60    0.78   2
   1   9  -7    5.70    1.17   4
   1  -9  -7    7.01    1.10   4
   0  -9  -7    9.11    0.90   3
   0   9  -7    7.83    1.33   4
   0   9   7    8.13    0.91   2
   0  -9   7    7.66    0.83   2
   0  -9  -7    6.97    1.13   4
   1   9   7   -0.08    0.73   2
  -1   9  -7   -1.92    1.12   4
   1  -9   7    1.25    0.64   2
  -1  -9  -7    1.09    0.91   4
   6  10  -7   -0.91    0.80   1
  -6 -10   7    0.24    0.69   2
  -6  10   7   -0.42    0.69   3
   5  10  -7   -0.45    0.75   1
  -5  10   7    1.21    0.72   3
   5 -10  -7    1.13    0.86   4
  -5 -10   7   -0.01    0.68   2
  -4 -10   7    3.80    0.77   2
   4 -10  -7    3.55    1.02   4
  -4  10   7    2.50    0.69   3
   4  10  -7    2.90    0.77   1
   3  10  -7    0.17    0.58   5
   3 -10  -7    1.22    0.84   4
  -3  10   7    0.48    0.59   3
  -3 -10   7    0.46    0.57   2
   3  10  -7    0.20    0.84   4
   3  10  -7    0.07    0.60   1
  -2  10   7    1.59    0.58   2
  -2 -10   7    2.07    0.64   2
   2 -10  -7    3.70    0.95   4
  -2 -10   7    2.94    0.73   1
  -2  10   7    3.06    0.67   3
   2  10  -7    0.83    0.99   4
  -1 -10   7   14.00    1.12   1
  -1  10   7   14.90    1.16   3
  -1 -10   7   15.72    1.07   2
  -1  10   7   15.55    1.19   2
   1  10  -7   14.19    1.47   4
   1 -10  -7   16.16    1.54   4
   0 -10  -7   -0.25    0.60   3
   0  10   7    0.48    0.67   2
   0 -10  -7    1.54    0.91   4
   0  10  -7   -0.10    1.06   4
   0 -10   7    0.15    0.62   1
   0 -10   7   -0.09    0.55   2
  -1  10  -7    2.72    1.30   4
  -1 -10  -7    3.64    0.82   3
   1  10   7    2.98    0.88   2
  -1 -10  -7    4.07    1.06   4
   1 -10   7    4.15    0.75   2
  -6 -11   7   -0.10    0.71   2
   6  11  -7   -1.33    0.81   1
  -6  11   7    0.35    0.76   3
  -5 -11   7    2.60    0.77   2
  -5  11   7    1.37    0.75   3
   5 -11  -7    2.32    0.94   4
   5  11  -7    0.37    0.80   1
  -4 -11   7    5.99    0.86   2
   4 -11  -7    7.97    1.16   4
   4  11  -7    6.24    0.91   1
  -4  11   7    5.25    0.83   3
  -3 -11   7    1.33    0.66   2
   3  11  -7    0.39    0.60   5
   3  11  -7   -0.81    0.87   4
   3  11  -7   -0.68    0.59   1
  -3  11   7   -0.61    0.59   3
   3 -11  -7   -0.32    0.82   4
   2  11  -7    2.02    1.09   4
  -2  11   7    4.23    0.68   2
   2 -11  -7    4.13    1.02   4
  -2 -11   7    3.39    0.81   1
  -2  11   7    3.50    0.72   3
  -2 -11   7    4.47    0.73   2
   1 -11  -7    8.49    1.20   4
  -1  11   7    7.50    0.89   3
  -1 -11   7    7.47    0.83   2
  -1 -11   7    7.65    0.90   1
  -1  11   7    6.76    0.85   2
   1  11  -7    7.26    1.30   4
   0 -11  -7   12.85    1.07   3
   0  11   7   13.41    1.08   2
   0 -11   7   12.16    0.96   2
   0 -11  -7   11.85    1.32   4
   0 -11   7   11.39    1.01   1
   0  11  -7   12.00    1.54   4
   1  11   7    0.27    0.80   2
   1 -11   7    0.76    0.63   2
  -1 -11  -7   -0.55    0.70   3
  -1 -11  -7    0.34    0.91   4
  -1  11  -7   -1.41    1.24   4
  -5 -12   7    3.37    0.81   2
   5 -12  -7    6.48    1.10   4
  -5  12   7    3.68    0.85   3
   5  12  -7    5.14    0.98   1
   4 -12  -7    2.34    0.95   4
   4  12  -7    0.76    0.74   1
  -4  12   7    1.62    0.72   3
  -4 -12   7    1.14    0.69   2
   3  12  -7    0.28    0.66   1
  -3  12   7   -0.02    0.65   3
   3  12  -7   -0.98    0.61   5
  -3 -12   7    0.72    0.65   2
   3 -12  -7    0.75    0.91   4
   3  12  -7   -1.10    0.96   4
  -2  12   7    4.43    0.81   3
   2  12  -7    2.55    1.13   4
  -2 -12   7    3.39    0.76   2
   2 -12  -7    5.02    1.09   4
  -2 -12   7    3.67    0.85   1
  -1 -12   7   21.99    1.36   1
   1  12  -7   25.96    2.06   4
  -1  12   7   24.57    1.39   2
  -1 -12   7   23.70    1.29   2
  -1  12   7   26.72    1.45   3
   1 -12  -7   28.43    1.94   4
   0  12   7    2.40    0.80   2
   0 -12   7    3.96    0.71   2
   0 -12   7    2.31    0.76   1
   0 -12  -7    3.74    1.02   4
   0  12  -7    2.71    1.30   4
   5  13  -7    2.46    0.89   1
   5 -13  -7    4.37    1.04   4
  -5 -13   7    2.80    0.85   2
  -5  13   7    2.59    0.79   3
   4  13  -7   -0.44    0.66   5
   4 -13  -7    0.51    0.87   4
  -4 -13   7   -0.58    0.65   2
  -4  13   7   -0.28    0.67   3
   4  13  -7   -0.33    0.72   1
  -3  13   7   25.33    1.52   3
   3 -13  -7   29.17    1.97   4
   3  13  -7   26.30    1.43   1
  -3 -13   7   23.26    1.40   2
   3  13  -7   27.50    1.38   5
   2  13  -7   13.28    1.49   4
  -2 -13   7   14.58    1.19   2
  -2 -13   7   13.14    1.15   1
  -2  13   7   14.06    1.23   3
   2 -13  -7   15.00    1.49   4
   1 -13  -7    1.50    1.02   4
  -1 -13   7    0.92    0.74   1
   1  13  -7   -0.48    1.06   4
  -1 -13   7    1.37    0.63   2
  -1  13   7    0.13    0.67   2
  -1  13   7    1.94    0.73   3
   0  13   7    7.18    1.01   2
   0  13  -7    3.55    1.48   4
   0 -13   7    6.72    0.83   2
   0 -13  -7    8.02    1.29   4
   0  13   7   10.45    1.01   3
   0 -13   7    6.16    0.95   1
   4  14  -7   -0.25    0.70   5
  -4 -14   7   -0.78    0.67   2
  -4  14   7   -0.24    0.69   3
   4 -14  -7    1.15    0.94   4
   4  14  -7   -0.50    0.71   1
   3  14  -7    4.67    0.84   1
  -3 -14   7    2.50    0.78   2
  -3  14   7    4.23    0.88   3
   3  14  -7    4.09    0.81   5
   3 -14  -7    2.79    1.05   4
  -2 -14   7    6.93    1.00   1
  -2 -14   7    6.92    0.92   2
   2 -14  -7    7.33    1.27   4
   2  14  -7    6.12    1.27   4
  -2  14   7    6.68    0.95   3
   1 -14  -7    4.68    1.17   4
  -1  14   7    4.32    0.89   3
   1  14  -7    3.77    1.29   4
  -1 -14   7    3.63    0.89   1
  -1 -14   7    4.09    0.79   2
   0  14   7    7.73    1.06   2
   0 -14  -7    8.71    1.34   4
   0 -14   7    6.28    1.04   1
   0  14  -7    4.84    1.50   4
   0  14   7   10.12    1.05   3
   4  15  -7   -0.30    0.72   1
   4  15  -7   -0.39    0.67   5
  -4 -15   7   -0.78    0.68   2
  -4  15   7   -1.03    0.68   3
   4 -15  -7    1.04    0.89   4
   3  15  -7    4.37    0.84   1
  -3  15   7    3.31    0.86   3
   3  15  -7    2.33    0.77   5
  -3 -15   7    3.44    0.83   2
   3 -15  -7    3.58    1.07   4
   2  15  -7   -0.50    1.10   4
   2 -15  -7    2.50    1.05   4
  -2  15   7    1.01    0.79   3
  -2 -15   7    1.73    0.72   2
  -2 -15   7    1.75    0.85   1
   1  15  -7   -1.74    1.08   4
  -1 -15   7   -1.04    0.73   1
  -1 -15   7    1.53    0.71   2
  -1  15   7   -0.80    0.72   3
   1 -15  -7    1.36    1.04   4
  -2  16   7   -0.55    0.74   3
  -2 -16   7    0.06    0.81   1
  -2 -16   7   -0.14    0.70   2
   2 -16  -7    1.62    1.01   4
   2  16  -7   -1.28    1.04   4
  -6   0   8    7.57    0.94   2
   6   0  -8    8.05    1.01   1
  -5   0   8   -0.11    0.54   2
  -4   0   8    1.04    0.56   2
   4   0  -8    1.97    0.82   4
   3   0  -8   -0.74    0.80   4
  -3   0   8    0.35    0.54   2
   2   0  -8    5.14    1.07   4
  -2   0   8    4.19    0.73   2
   1   0  -8    0.46    0.95   4
  -1   0   8    0.57    0.66   2
   0   0   8    7.49    0.93   2
   0   0  -8    9.44    1.37   4
   1   0   8   -0.35    0.74   2
  -1   0  -8    0.19    1.01   4
   6   1  -8    0.91    0.83   1
   6  -1  -8    0.11    0.76   1
  -6  -1   8    0.90    0.71   2
  -5  -1   8    5.00    0.78   2
   5   1  -8    3.22    0.81   1
  -5   1   8    3.47    0.70   2
  -4  -1   8    0.12    0.50   2
  -4   1   8    0.12    0.51   2
   4   1  -8    0.64    0.75   4
   4  -1  -8    0.64    0.76   4
   3  -1  -8    0.54    0.79   4
  -3   1   8    0.42    0.54   2
   3   1  -8    0.28    0.83   4
  -3  -1   8    0.71    0.56   2
   2  -1  -8    0.91    0.91   4
   2   1  -8    1.11    0.90   4
  -2   1   8   -0.13    0.57   2
  -2  -1   8   -0.39    0.58   2
   1  -1  -8    3.98    1.07   4
  -1   1   8    3.10    0.77   2
  -1  -1   8    4.08    0.79   2
   1   1  -8    5.67    1.17   4
   0   1   8    2.23    0.79   2
   0  -1   8    2.28    0.75   2
   0  -1  -8    1.41    1.07   4
   0   1  -8    0.69    1.07   4
  -1  -1  -8    1.52    1.08   4
   1  -1   8    1.38    0.79   2
   1   1   8    0.33    0.77   2
  -1   1  -8    2.18    1.12   4
   6   2  -8    0.41    0.80   1
  -6  -2   8   -0.09    0.66   2
  -5   2   8    7.83    0.84   2
   5   2  -8    7.17    0.92   1
  -5  -2   8    9.29    0.94   2
  -4   2   8    1.79    0.57   2
   4  -2  -8    3.30    0.89   4
  -4  -2   8    0.80    0.56   2
   4   2  -8    0.58    0.81   4
  -3   2   8    3.42    0.65   2
  -3  -2   8    3.70    0.68   2
   3  -2  -8    4.96    1.01   4
   3   2  -8    3.10    0.96   4
  -2   2   8    0.56    0.60   2
  -2  -2   8   -0.13    0.60   2
   2  -2  -8    1.34    0.92   4
   2   2  -8    1.77    0.92   4
   1   2  -8    1.24    1.00   4
  -1  -2   8    0.63    0.66   2
   1  -2  -8    0.59    0.98   4
  -1   2   8    0.42    0.67   2
   0  -2  -8    1.35    1.02   4
   0   2  -8    2.38    1.15   4
   0   2   8    1.37    0.76   2
   0  -2   8    2.50    0.77   2
   1  -2   8    0.71    0.72   2
  -1  -2  -8    0.58    1.03   4
  -1   2  -8    0.19    1.10   4
   1   2   8   -0.33    0.75   2
   6   3  -8    2.87    0.89   1
  -6  -3   8    1.71    0.78   2
   5   3  -8    3.81    0.85   1
   5  -3  -8    5.10    0.94   4
  -5   3   8    3.66    0.70   2
  -5  -3   8    2.97    0.75   2
   4  -3  -8    2.12    0.86   4
   4   3  -8   -0.44    0.64   1
  -4   3   8    0.87    0.54   2
   4   3  -8    0.50    0.79   4
  -4  -3   8    0.34    0.57   2
  -3   3   8   13.03    0.98   2
  -3  -3   8   13.25    1.04   2
   3   3  -8   12.57    1.27   4
   3  -3  -8   13.52    1.30   4
   2   3  -8    7.02    1.15   4
   2  -3  -8    3.99    1.04   4
  -2   3   8    5.37    0.77   2
  -2  -3   8    5.64    0.79   2
   1  -3  -8   -0.09    0.92   4
  -1   3   8    0.29    0.63   2
  -1  -3   8    0.06    0.64   2
   1   3  -8   -0.37    0.90   4
   0   3  -8    7.41    1.32   4
   0  -3   8    9.94    0.98   2
   0   3   8    8.13    1.00   2
   0  -3  -8    7.93    1.30   4
  -1   3  -8    0.52    1.13   4
  -1  -3  -8    1.10    1.05   4
   1  -3   8    0.35    0.73   2
   1   3   8   -0.75    0.71   2
  -6  -4   8   10.08    1.07   2
   6   4  -8   10.53    1.14   1
   5  -4  -8    9.36    1.12   4
  -5  -4   8    9.88    0.98   2
   5   4  -8    7.96    0.99   1
  -4  -4   8    1.23    0.65   2
   4  -4  -8    1.69    0.83   4
   4   4  -8    0.90    0.83   4
  -4   4   8    0.99    0.54   2
   4   4  -8   -0.15    0.66   1
   3   4  -8    9.82    1.19   4
   3  -4  -8    9.19    1.18   4
  -3   4   8    9.41    0.84   2
  -3  -4   8   10.84    0.94   2
   2   4  -8   12.73    1.35   4
   2  -4  -8   12.39    1.34   4
  -2   4   8   12.97    1.05   2
  -2  -4   8   14.43    1.11   2
   1   4  -8    0.72    0.96   4
   1  -4  -8   -0.05    0.92   4
  -1   4   8    0.06    0.61   2
  -1  -4   8    0.20    0.64   2
   0   4  -8    3.60    1.20   4
   0  -4  -8    4.93    1.18   4
   0   4   8    4.91    0.90   2
   0  -4   8    4.40    0.83   2
   1  -4   8    5.43    0.89   2
  -1  -4  -8    3.87    1.14   4
   1   4   8    2.89    0.91   2
  -1   4  -8    3.54    1.31   4
  -6  -5   8    1.61    0.78   2
   6   5  -8    0.41    0.82   1
   5   5  -8    1.69    0.79   1
  -5  -5   8    1.91    0.73   2
   5  -5  -8    2.18    0.89   4
   4   5  -8   16.95    1.22   1
  -4  -5   8   15.94    1.19   2
   4  -5  -8   19.41    1.53   4
  -4   5   8   16.39    1.03   2
   4   5  -8   16.66    1.47   4
   3   5  -8    2.79    0.70   1
   3   5  -8    3.53    0.97   4
   3  -5  -8    4.45    1.02   4
  -3  -5   8    2.91    0.71   2
  -3   5   8    2.68    0.64   2
   2   5  -8    3.88    1.06   4
  -2   5   8    3.93    0.72   2
   2  -5  -8    4.90    1.12   4
  -2  -5   8    5.06    0.80   2
   1  -5  -8    1.99    1.02   4
  -1  -5   8    1.33    0.68   2
   1   5  -8    1.07    1.04   4
  -1   5   8    0.93    0.67   2
   0   5  -8    4.90    1.25   4
   0  -5  -8    3.15    1.12   4
   0  -5   8    3.94    0.82   2
   0   5   8    3.69    0.86   2
  -6  -6   8    1.79    0.80   2
   6   6  -8   -0.20    0.84   1
  -5  -6   8    1.93    0.77   2
   5   6  -8    1.21    0.78   1
   5  -6  -8    1.85    0.93   4
   4  -6  -8    8.33    1.11   4
  -4  -6   8    7.30    0.90   2
   4   6  -8    6.12    0.87   1
  -4   6   8    6.28    0.73   2
  -3  -6   8    6.50    0.86   2
   3   6  -8    7.62    0.87   1
   3  -6  -8    8.48    1.19   4
   3   6  -8    8.82    1.18   4
  -3   6   8    8.95    0.83   2
   2   6  -8    7.16    1.20   4
  -2  -6   8    6.88    0.85   2
  -2   6   8    7.69    0.84   2
   2  -6  -8    6.17    1.17   4
   1   6  -8    1.23    1.10   4
  -1  -6   8    3.96    0.78   2
  -1   6   8    2.21    0.71   2
   1  -6  -8    3.50    1.11   4
   0  -6   8    4.51    0.83   2
   0  -6  -8    5.39    1.18   4
   0   6   8    4.80    0.89   2
   0   6  -8    4.34    1.30   4
   5   7  -8    4.69    0.94   1
  -5  -7   8    5.23    0.88   2
   5  -7  -8    6.53    1.17   4
  -4  -7   8    0.73    0.68   2
   4   7  -8    0.35    0.69   1
   4  -7  -8    1.67    0.87   4
   3   7  -8    9.86    1.24   4
  -3  -7   8    9.66    0.93   2
   3   7  -8   10.15    0.95   1
  -3   7   8    7.71    0.80   2
   3  -7  -8   10.21    1.25   4
   2   7  -8    2.48    0.69   1
   2  -7  -8    3.68    1.01   4
   2   7  -8    4.43    1.18   4
  -2  -7   8    3.31    0.76   2
  -2   7   8    2.61    0.69   2
   2   7  -8    3.70    0.69   5
  -1  -7   8   -0.40    0.60   2
   1  -7  -8    0.86    1.01   4
  -1   7   8   -0.02    0.63   2
   1   7  -8   -0.54    1.08   4
   0   7  -8   -0.46    1.11   4
   0  -7  -8    1.17    1.01   4
   0  -7   8    0.25    0.67   2
   0   7   8    0.51    0.77   2
  -5   8   8    0.17    0.68   3
  -5  -8   8   -0.93    0.64   2
   5   8  -8   -1.11    0.72   1
   5  -8  -8    0.88    0.94   4
   4   8  -8    0.13    0.73   1
  -4   8   8   -0.30    0.60   3
  -4  -8   8    0.24    0.67   2
   4  -8  -8    1.14    0.88   4
   3  -8  -8    2.47    0.95   4
  -3  -8   8    1.25    0.68   2
   3   8  -8    2.30    0.72   1
   3   8  -8    1.74    0.66   5
   3   8  -8    3.04    1.03   4
  -3   8   8    2.37    0.64   2
   2   8  -8    2.62    0.67   1
   2   8  -8    2.41    0.65   5
   2   8  -8    0.04    1.07   4
  -2   8   8    1.94    0.67   2
   2  -8  -8    2.86    1.03   4
  -2  -8   8    1.59    0.67   2
   1  -8  -8   13.79    1.47   4
   1   8  -8   12.70    1.59   4
  -1  -8   8   14.36    1.13   2
  -1   8   8   12.24    1.04   2
   0  -8   8    2.06    0.71   2
   0   8  -8    1.62    1.28   4
   0  -8  -8    2.85    1.11   4
   0   8   8    2.45    0.86   2
  -5  -9   8    1.95    0.78   2
   5  -9  -8    1.05    0.96   4
   5   9  -8    1.15    0.86   1
  -5   9   8    0.67    0.72   3
  -4  -9   8    3.75    0.82   2
   4   9  -8    4.67    0.87   1
   4  -9  -8    3.34    1.08   4
  -4   9   8    1.96    0.72   3
   3   9  -8   -0.17    0.63   1
  -3  -9   8   -0.46    0.59   2
   3  -9  -8    0.40    0.84   4
  -3   9   8   -0.86    0.57   3
   3   9  -8   -1.49    0.57   5
   3   9  -8    0.90    1.00   4
   2   9  -8    3.59    1.24   4
   2   9  -8    5.61    0.80   1
   2  -9  -8    4.71    1.09   4
  -2   9   8    4.31    0.77   2
  -2  -9   8    5.95    0.85   2
   2   9  -8    5.60    0.78   5
  -2   9   8    4.62    0.80   3
  -1   9   8    9.91    1.00   2
  -1  -9   8   11.50    1.00   2
   1  -9  -8   11.85    1.42   4
   1   9  -8   11.34    1.55   4
   0   9  -8   -0.03    1.21   4
   0   9   8    0.02    0.79   2
   0  -9  -8    1.00    1.02   4
   0  -9   8    1.08    0.69   2
   5  10  -8   -1.00    0.80   1
   5 -10  -8    1.82    0.97   4
  -5 -10   8    0.33    0.72   2
  -5  10   8    0.33    0.73   3
  -4  10   8   -0.10    0.62   3
   4 -10  -8    0.29    0.93   4
   4  10  -8   -0.60    0.71   1
  -4 -10   8    0.09    0.68   2
   3  10  -8    0.26    0.66   1
   3  10  -8   -1.43    0.99   4
  -3 -10   8   -0.21    0.67   2
   3 -10  -8    1.79    0.95   4
  -3  10   8   -0.15    0.62   3
   3  10  -8    0.28    0.65   5
   2  10  -8   16.19    1.12   1
   2  10  -8   14.32    1.07   5
  -2 -10   8   12.56    1.06   2
  -2  10   8   11.76    0.98   2
   2 -10  -8   13.51    1.44   4
  -2  10   8   11.22    1.04   3
   2  10  -8   11.10    1.49   4
   1 -10  -8    4.24    1.12   4
  -1  10   8    3.35    0.79   3
  -1  10   8    1.39    0.75   2
  -1 -10   8    3.54    0.77   2
   1  10  -8    2.91    1.29   4
  -4  11   8    6.13    0.91   3
   4 -11  -8    6.20    1.23   4
   4  11  -8    6.44    0.99   1
  -4 -11   8    4.40    0.88   2
  -3  11   8    1.92    0.75   3
   3  11  -8    2.00    0.75   5
   3  11  -8    1.82    1.14   4
   3  11  -8    1.04    0.72   1
  -3 -11   8    1.68    0.74   2
   3 -11  -8    2.41    1.04   4
  -2 -11   8    0.04    0.64   2
   2  11  -8    0.21    1.10   4
   2 -11  -8    1.35    0.99   4
   2  11  -8    1.34    0.63   5
  -2  11   8    0.30    0.61   2
  -2  11   8   -0.66    0.66   3
  -1  11   8    5.06    0.87   3
  -1  11   8    4.64    0.88   2
   1 -11  -8    7.38    1.27   4
  -1 -11   8    5.91    0.85   2
   1  11  -8    5.16    1.39   4
  -3  12   8    2.51    0.82   3
   3  12  -8    1.39    1.16   4
   3  12  -8    2.64    0.80   1
  -3 -12   8    4.17    0.86   2
   3 -12  -8    4.84    1.18   4
   3  12  -8    2.70    0.80   5
  -2  12   8    0.84    0.72   3
   2  12  -8   -0.59    1.12   4
  -2 -12   8    0.35    0.66   2
   2  12  -8    1.47    0.66   5
   2 -12  -8    0.55    1.04   4
  -5   0   9   25.58    1.46   2
   4   0  -9    0.55    0.91   4
  -4   0   9    0.23    0.60   2
   3   0  -9    4.95    1.12   4
  -3   0   9    4.45    0.80   2
  -2   0   9    0.13    0.64   2
   2   0  -9   -0.41    0.97   4
   1   0  -9    0.22    1.04   4
  -1   0   9   -0.17    0.74   2
  -5  -1   9    8.91    1.00   2
  -5   1   9    7.41    0.93   2
  -4  -1   9    7.90    0.91   2
  -4   1   9    8.69    0.92   2
   4   1  -9    7.91    1.18   4
   4  -1  -9    8.79    1.23   4
   3  -1  -9    3.94    1.09   4
   3   1  -9    4.50    1.14   4
  -3  -1   9    3.33    0.78   2
  -3   1   9    5.03    0.82   2
   2  -1  -9    0.94    1.05   4
  -2   1   9    1.99    0.72   2
  -2  -1   9    1.10    0.70   2
   2   1  -9    2.43    1.10   4
  -1  -1   9    0.53    0.69   2
   1  -1  -9    0.88    1.10   4
  -1   1   9    0.52    0.75   2
   1   1  -9    0.12    1.08   4
  -5  -2   9    0.88    0.76   2
  -5   2   9    0.28    0.66   2
   4  -2  -9    3.18    1.02   4
   4   2  -9    1.25    0.91   4
  -4   2   9    1.53    0.65   2
  -4  -2   9    1.19    0.72   2
   3   2  -9    6.96    1.23   4
   3  -2  -9    5.46    1.18   4
  -3  -2   9    7.06    0.89   2
  -3   2   9    7.19    0.85   2
  -2  -2   9    5.65    0.87   2
  -2   2   9    6.51    0.89   2
   2  -2  -9    6.99    1.24   4
   2   2  -9    7.75    1.33   4
  -4  -3   9    0.45    0.68   2
   4   3  -9    0.25    0.91   4
   4  -3  -9    1.47    0.96   4
  -4   3   9    0.71    0.59   2
   3  -3  -9    5.98    1.19   4
  -3  -3   9    5.78    0.87   2
  -3   3   9    5.11    0.79   2
   3   3  -9    4.71    1.14   4
   2   3  -9    5.37    1.23   4
  -2  -3   9    3.32    0.80   2
   2  -3  -9    4.52    1.16   4
  -2   3   9    4.18    0.81   2
   4  -4  -9    5.95    1.16   4
   4   4  -9    6.17    1.13   4
  -4  -4   9    5.90    0.92   2
  -4   4   9    4.08    0.72   2
  -3  -4   9   -0.26    0.63   2
  -3   4   9    0.54    0.62   2
   3  -4  -9    1.54    1.03   4
   3   4  -9    0.73    0.94   4
   2  -4  -9    1.02    1.01   4
  -2  -4   9    0.30    0.69   2
  -2   4   9    0.30    0.65   2
   2   4  -9   -0.14    0.98   4
  -4   5   9    2.35    0.67   2
   4  -5  -9    3.21    0.99   4
  -4  -5   9    1.61    0.79   2
  -3   5   9    0.27    0.64   2
   3  -5  -9    0.55    0.93   4
  -3  -5   9    0.10    0.64   2
   3   5  -9    1.66    0.99   4
   2   5  -9   -0.68    1.02   4
  -2   5   9    1.08    0.69   2
   2  -5  -9    2.02    1.04   4
  -2  -5   9    0.77    0.69   2
  -4  -6   9    0.40    0.71   2
  -3  -6   9    1.67    0.75   2
  -3   6   9    1.43    0.69   2
   3  -6  -9    2.50    1.07   4
   3   6  -9    2.03    1.05   4
   0   0   0    0.00    0.00   0
;
_shelx_hkl_checksum              92313
_olex2_submission_special_instructions 'No special instructions were received'
#END Tags that were not found in dictionaries
loop_
_space_group_symop_operation_xyz
'x, y, z'
'-x+1/2, y+1/2, -z+1/2'
'-x, -y, -z'
'x-1/2, -y-1/2, z-1/2'
loop_
_atom_site_label
_atom_site_type_symbol
_atom_site_fract_x
_atom_site_fract_y
_atom_site_fract_z
_atom_site_U_iso_or_equiv
_atom_site_adp_type
_atom_site_occupancy
_atom_site_site_symmetry_order
_atom_site_calc_flag
_atom_site_refinement_flags_posn
_atom_site_refinement_flags_occupancy
_atom_site_disorder_assembly
_atom_site_disorder_group
C1 C 0.5475(4) 0.40968(9) 0.1856(3) 0.0439(4) Uani 0.650(4) 1 d . P A 1
C2 C 0.4549(6) 0.40189(15) 0.3453(4) 0.0535(5) Uani 0.650(4) 1 d . P A 1
H2 H 0.3245 0.4333 0.3436 0.064 Uiso 0.650(4) 1 calc R P A 1
C3 C 0.5569(12) 0.3466(3) 0.5110(9) 0.0631(15) Uani 0.650(4) 1 d . P A 1
H3 H 0.4982 0.3436 0.6223 0.076 Uiso 0.650(4) 1 calc R P A 1
C4 C 0.7396(9) 0.2971(2) 0.5129(7) 0.0571(12) Uani 0.650(4) 1 d . P A 1
H4 H 0.7947 0.2576 0.6160 0.068 Uiso 0.650(4) 1 calc R P A 1
C5 C 0.8382(12) 0.3065(3) 0.3633(10) 0.0721(16) Uani 0.650(4) 1 d . P A 1
H5 H 0.9746 0.2766 0.3728 0.086 Uiso 0.650(4) 1 calc R P A 1
C6 C 0.7413(5) 0.36033(13) 0.1922(4) 0.0521(5) Uani 0.650(4) 1 d . P A 1
H6 H 0.8052 0.3632 0.0843 0.063 Uiso 0.650(4) 1 calc R P A 1
C7 C 0.4400(2) 0.46748(8) 0.0052(2) 0.0423(4) Uani 0.650(4) 1 d . P A 1
C8 C 0.1868(5) 0.44601(17) -0.1651(5) 0.0483(8) Uani 0.650(4) 1 d . P A 1
H81 H 0.1458 0.4806 -0.2873 0.072 Uiso 0.650(4) 1 calc GR P A 1
H82 H 0.0639 0.4504 -0.1029 0.072 Uiso 0.650(4) 1 calc GR P A 1
H83 H 0.1909 0.3935 -0.2126 0.072 Uiso 0.650(4) 1 calc GR P A 1
C1' C 0.6371(7) 0.42234(19) 0.2248(5) 0.0445(8) Uiso 0.350(4) 1 d . P A 2
C2' C 0.5167(10) 0.4148(3) 0.3661(10) 0.0610(16) Uiso 0.350(4) 1 d . P A 2
H2' H 0.4108 0.4544 0.3715 0.073 Uiso 0.350(4) 1 calc R P A 2
C3' C 0.546(3) 0.3520(7) 0.498(2) 0.075(4) Uiso 0.350(4) 1 d . P A 2
H3' H 0.4477 0.3448 0.5775 0.089 Uiso 0.350(4) 1 calc R P A 2
C4' C 0.728(2) 0.2995(7) 0.5075(18) 0.080(4) Uiso 0.350(4) 1 d . P A 2
H4' H 0.7729 0.2611 0.6144 0.096 Uiso 0.350(4) 1 calc R P A 2
C5' C 0.8470(17) 0.3023(5) 0.3597(13) 0.0482(16) Uiso 0.350(4) 1 d . P A 2
H5' H 0.9474 0.2618 0.3492 0.058 Uiso 0.350(4) 1 calc R P A 2
C6' C 0.8082(9) 0.3674(3) 0.2321(9) 0.0586(14) Uiso 0.350(4) 1 d . P A 2
H6' H 0.9017 0.3742 0.1477 0.070 Uiso 0.350(4) 1 calc R P A 2
C7' C 0.6018(5) 0.49437(16) 0.0886(4) 0.0466(9) Uiso 0.350(4) 1 d . P A 2
C8' C 0.8103(19) 0.5520(6) 0.1656(18) 0.092(4) Uiso 0.350(4) 1 d . P A 2
H81' H 0.7737 0.5945 0.0645 0.138 Uiso 0.350(4) 1 calc GR P A 2
H82' H 0.9614 0.5273 0.1750 0.138 Uiso 0.350(4) 1 calc GR P A 2
H83' H 0.8292 0.5712 0.3066 0.138 Uiso 0.350(4) 1 calc GR P A 2
loop_
_atom_site_aniso_label
_atom_site_aniso_U_11
_atom_site_aniso_U_22
_atom_site_aniso_U_33
_atom_site_aniso_U_23
_atom_site_aniso_U_13
_atom_site_aniso_U_12
C1 0.0413(8) 0.0394(7) 0.0475(7) -0.0006(5) 0.0134(6) -0.0045(6)
C2 0.0562(12) 0.0535(11) 0.0541(10) 0.0073(8) 0.0252(9) 0.0084(10)
C3 0.075(2) 0.069(2) 0.0487(14) 0.0182(10) 0.0267(11) 0.0040(10)
C4 0.0602(15) 0.0449(11) 0.0489(12) 0.0150(7) 0.0022(7) -0.0009(6)
C5 0.0658(17) 0.0501(15) 0.086(2) 0.0011(9) 0.0137(9) 0.0152(9)
C6 0.0525(11) 0.0491(9) 0.0555(11) -0.0024(7) 0.0218(10) 0.0013(8)
C7 0.0407(7) 0.0416(7) 0.0410(7) -0.0007(5) 0.0117(5) -0.0026(5)
C8 0.0379(8) 0.0436(9) 0.0480(10) 0.0011(5) -0.0001(5) -0.0139(5)
loop_
_atom_type_symbol
_atom_type_description
_atom_type_scat_dispersion_real
_atom_type_scat_dispersion_imag
_atom_type_scat_source
C C 0.0033 0.0016 'International Tables Vol C Tables 4.2.6.8 and 6.1.1.4'
H H 0.0000 0.0000 'International Tables Vol C Tables 4.2.6.8 and 6.1.1.4'
loop_
_geom_angle_atom_site_label_1
_geom_angle_atom_site_label_2
_geom_angle_atom_site_label_3
_geom_angle
_geom_angle_site_symmetry_1
C2 C1 C6 118.11(16) .
C2 C1 C7 121.15(15) .
C6 C1 C7 120.72(15) .
C1 C2 H2 120.0 .
C1 C2 C3 120.0(3) .
C3 C2 H2 120.0 .
C2 C3 H3 119.2 .
C4 C3 C2 121.7(4) .
C4 C3 H3 119.2 .
C3 C4 H4 120.7 .
C5 C4 C3 118.6(3) .
C5 C4 H4 120.7 .
C4 C5 H5 119.1 .
C4 C5 C6 121.9(4) .
C6 C5 H5 119.1 .
C1 C6 C5 119.5(3) .
C1 C6 H6 120.3 .
C5 C6 H6 120.3 .
C1 C7 C8 114.94(15) .
C7 C7 C1 122.13(16) 3_665
C7 C7 C8 122.93(18) 3_665
C7 C8 H81 109.5 .
C7 C8 H82 109.5 .
C7 C8 H83 109.5 .
H81 C8 H82 109.5 .
H81 C8 H83 109.5 .
H82 C8 H83 109.5 .
C2' C1' C7' 120.1(3) .
C6' C1' C2' 118.0(4) .
C6' C1' C7' 121.5(3) .
C1' C2' H2' 118.6 .
C3' C2' C1' 122.8(7) .
C3' C2' H2' 118.6 .
C2' C3' H3' 121.4 .
C2' C3' C4' 117.2(9) .
C4' C3' H3' 121.4 .
C3' C4' H4' 119.2 .
C3' C4' C5' 121.6(9) .
C5' C4' H4' 119.2 .
C4' C5' H5' 121.5 .
C6' C5' C4' 116.9(8) .
C6' C5' H5' 121.5 .
C1' C6' C5' 122.2(5) .
C1' C6' H6' 118.9 .
C5' C6' H6' 118.9 .
C7' C7' C1' 121.6(4) 3_665
C7' C7' C8' 122.5(5) 3_665
C8' C7' C1' 115.9(5) .
C7' C8' H81' 109.5 .
C7' C8' H82' 109.5 .
C7' C8' H83' 109.5 .
H81' C8' H82' 109.5 .
H81' C8' H83' 109.5 .
H82' C8' H83' 109.5 .
loop_
_geom_bond_atom_site_label_1
_geom_bond_atom_site_label_2
_geom_bond_distance
_geom_bond_site_symmetry_2
C1 C2 1.372(3) .
C1 C6 1.402(3) .
C1 C7 1.497(2) .
C2 H2 0.9300 .
C2 C3 1.403(4) .
C3 H3 0.9300 .
C3 C4 1.360(6) .
C4 H4 0.9300 .
C4 C5 1.339(6) .
C5 H5 0.9300 .
C5 C6 1.405(5) .
C6 H6 0.9300 .
C7 C7 1.336(3) 3_665
C7 C8 1.520(2) .
C8 H81 0.9600 .
C8 H82 0.9600 .
C8 H83 0.9600 .
C1' C2' 1.381(6) .
C1' C6' 1.363(6) .
C1' C7' 1.501(4) .
C2' H2' 0.9300 .
C2' C3' 1.359(10) .
C3' H3' 0.9300 .
C3' C4' 1.375(11) .
C4' H4' 0.9300 .
C4' C5' 1.408(10) .
C5' H5' 0.9300 .
C5' C6' 1.369(8) .
C6' H6' 0.9300 .
C7' C7' 1.326(5) 3_665
C7' C8' 1.498(9) .
C8' H81' 0.9600 .
C8' H82' 0.9600 .
C8' H83' 0.9600 .
loop_
_geom_torsion_atom_site_label_1
_geom_torsion_atom_site_label_2
_geom_torsion_atom_site_label_3
_geom_torsion_atom_site_label_4
_geom_torsion
_geom_torsion_site_symmetry_4
C1 C2 C3 C4 -3.2(8) .
C2 C1 C6 C5 -1.7(5) .
C2 C1 C7 C7 107.5(2) 3_665
C2 C1 C7 C8 -73.1(3) .
C2 C3 C4 C5 6.0(9) .
C3 C4 C5 C6 -6.7(9) .
C4 C5 C6 C1 4.7(8) .
C6 C1 C2 C3 1.0(5) .
C6 C1 C7 C7 -74.4(2) 3_665
C6 C1 C7 C8 105.0(2) .
C7 C1 C2 C3 179.2(4) .
C7 C1 C6 C5 -179.9(4) .
C1' C2' C3' C4' 8.4(17) .
C2' C1' C6' C5' 5.9(8) .
C2' C1' C7' C7' -77.4(5) 3_665
C2' C1' C7' C8' 102.7(6) .
C2' C3' C4' C5' -11(2) .
C3' C4' C5' C6' 11.6(17) .
C4' C5' C6' C1' -8.8(12) .
C6' C1' C2' C3' -5.7(10) .
C6' C1' C7' C7' 110.4(5) 3_665
C6' C1' C7' C8' -69.6(7) .
C7' C1' C2' C3' -178.2(9) .
C7' C1' C6' C5' 178.3(6) .
