#------------------------------------------------------------------------------
#$Date: 2016-03-24 14:28:49 +0200 (Thu, 24 Mar 2016) $
#$Revision: 179665 $
#$URL: svn://www.crystallography.net/cod/cif/4/51/18/4511876.cif $
#------------------------------------------------------------------------------
#
# This file is available in the Crystallography Open Database (COD),
# http://www.crystallography.net/
#
# All data on this site have been placed in the public domain by the
# contributors.
#
data_4511876
loop_
_publ_author_name
'Harada, Jun'
'Ogawa, Keiichiro'
_publ_section_title
;
 What Molecules Are Likely or Unlikely To Undergo Pedal Motions in
 Crystals?
;
_journal_issue                   10
_journal_name_full               'Crystal Growth &amp; Design'
_journal_page_first              5182
_journal_paper_doi               10.1021/cg500962y
_journal_volume                  14
_journal_year                    2014
_chemical_formula_moiety         'C18 H22'
_chemical_formula_sum            'C18 H22'
_chemical_formula_weight         238.35
_chemical_name_systematic
;
 ?
;
_space_group_crystal_system      monoclinic
_space_group_IT_number           14
_space_group_name_Hall           '-P 2yn'
_space_group_name_H-M_alt        'P 1 21/n 1'
_symmetry_space_group_name_Hall  '-P 2yn'
_symmetry_space_group_name_H-M   'P 1 21/n 1'
_atom_sites_solution_hydrogens   geom
_atom_sites_solution_primary     direct
_audit_creation_date             2014-06-26
_audit_creation_method
;
Olex2 1.2
(compiled 2014.06.23 svn.r2946 for OlexSys, GUI svn.r4855)
;
_cell_angle_alpha                90
_cell_angle_beta                 97.286(1)
_cell_angle_gamma                90
_cell_formula_units_Z            2
_cell_length_a                   10.5992(6)
_cell_length_b                   6.5465(4)
_cell_length_c                   10.7201(6)
_cell_measurement_reflns_used    3442
_cell_measurement_temperature    300
_cell_measurement_theta_max      26.922
_cell_measurement_theta_min      2.546
_cell_volume                     737.84(7)
_computing_cell_refinement       'SAINT v6.02A (Bruker, 2001)'
_computing_data_collection       'SMART v5.054 (Bruker, 1998)'
_computing_data_reduction        'SAINT v6.02A (Bruker, 2001)'
_computing_molecular_graphics    'XP (Bruker, 1998)'
_computing_publication_material  'Olex2 (Dolomanov et al., 2009)'
_computing_structure_refinement  'ShelXL (Sheldrick, 2008)'
_computing_structure_solution    'ShelXS (Sheldrick, 2008)'
_diffrn_ambient_temperature      300
_diffrn_detector_area_resol_mean 8.192
_diffrn_measured_fraction_theta_full 1.000
_diffrn_measured_fraction_theta_max 1.000
_diffrn_measurement_device_type  'Bruker SMART 1000'
_diffrn_measurement_method       \w_scan
_diffrn_radiation_type           MoK\a
_diffrn_radiation_wavelength     0.71073
_diffrn_reflns_av_R_equivalents  0.0091
_diffrn_reflns_av_unetI/netI     0.0080
_diffrn_reflns_Laue_measured_fraction_full 1.000
_diffrn_reflns_Laue_measured_fraction_max 1.000
_diffrn_reflns_limit_h_max       13
_diffrn_reflns_limit_h_min       -13
_diffrn_reflns_limit_k_max       8
_diffrn_reflns_limit_k_min       -8
_diffrn_reflns_limit_l_max       13
_diffrn_reflns_limit_l_min       -13
_diffrn_reflns_number            9429
_diffrn_reflns_point_group_measured_fraction_full 1.000
_diffrn_reflns_point_group_measured_fraction_max 1.000
_diffrn_reflns_theta_full        25.242
_diffrn_reflns_theta_max         27.529
_diffrn_reflns_theta_min         2.546
_diffrn_source                   'sealed X-ray tube'
_exptl_absorpt_coefficient_mu    0.060
_exptl_absorpt_correction_type   multi-scan
_exptl_absorpt_process_details
'SADABS v.2.03 was used for absorption correction.'
_exptl_crystal_colour            colourless
_exptl_crystal_colour_primary    colourless
_exptl_crystal_density_diffrn    1.073
_exptl_crystal_description       block
_exptl_crystal_F_000             260
_exptl_crystal_size_max          0.6
_exptl_crystal_size_mid          0.25
_exptl_crystal_size_min          0.25
_exptl_transmission_factor_max   0.973607
_exptl_transmission_factor_min   0.882674
_refine_diff_density_max         0.285
_refine_diff_density_min         -0.225
_refine_diff_density_rms         0.044
_refine_ls_extinction_coef       0.05(2)
_refine_ls_extinction_expression Fc^*^=kFc[1+0.001xFc^2^\l^3^/sin(2\q)]^-1/4^
_refine_ls_extinction_method     SHELXL
_refine_ls_goodness_of_fit_ref   1.101
_refine_ls_hydrogen_treatment    constr
_refine_ls_matrix_type           full
_refine_ls_number_parameters     165
_refine_ls_number_reflns         1701
_refine_ls_number_restraints     419
_refine_ls_restrained_S_all      1.025
_refine_ls_R_factor_all          0.0794
_refine_ls_R_factor_gt           0.0681
_refine_ls_shift/su_max          0.000
_refine_ls_shift/su_mean         0.000
_refine_ls_structure_factor_coef Fsqd
_refine_ls_weighting_details
'w=1/[\s^2^(Fo^2^)+(0.1590P)^2^+0.0875P] where P=(Fo^2^+2Fc^2^)/3'
_refine_ls_weighting_scheme      calc
_refine_ls_wR_factor_gt          0.2382
_refine_ls_wR_factor_ref         0.2559
_reflns_Friedel_coverage         0.000
_reflns_number_gt                1287
_reflns_number_total             1701
_reflns_threshold_expression     'I > 2\s(I)'
_cod_data_source_file            cg500962y_si_001.cif
_cod_data_source_block           2266MeDPErt
_cod_depositor_comments
'Adding full bibliography for 4511872--4511883.cif.'
_cod_database_code               4511876
#BEGIN Tags that were not found in dictionaries:
_shelxl_version_number           2013-4
_shelx_space_group_comment
;
The symmetry employed for this shelxl refinement is uniquely defined
by the following loop, which should always be used as a source of
symmetry information in preference to the above space-group names.
They are only intended as comments.
;
_shelx_estimated_absorpt_t_max   0.985
_shelx_estimated_absorpt_t_min   0.965
_olex2_refinement_description
;
1. Others
 Fixed Uiso: H3(0.087) H4(0.115) H5(0.09) H7A(0.064) H7B(0.064) H8A(0.138)
 H8B(0.138) H8C(0.138) H9A(0.102) H9B(0.102) H9C(0.102) H3'(0.08) H4'(0.08)
 H5'(0.074) H71'(0.061) H72'(0.061) H81'(0.133) H82'(0.133) H83'(0.133)
 H91'(0.12) H92'(0.12) H93'(0.12)
 Fixed X: H3(0.4471) H4(0.5891) H5(0.6884) H7A(0.3735) H7B(0.4739) H8A(0.3321)
 H8B(0.373) H8C(0.2701) H9A(0.6371) H9B(0.6563) H9C(0.7592) H3'(0.4673)
 H4'(0.616) H5'(0.7105) H71'(0.6336) H72'(0.5382) H81'(0.3915) H82'(0.4408)
 H83'(0.3191) H91'(0.6785) H92'(0.6895) H93'(0.7922)
 Fixed Y: H3(0.3024) H4(0.0394) H5(-0.0488) H7A(0.4348) H7B(0.3037)
 H8A(0.5809) H8B(0.6304) H8C(0.4623) H9A(0.1807) H9B(-0.0415) H9C(0.1264)
 H3'(0.3035) H4'(0.0528) H5'(-0.0284) H71'(0.5186) H72'(0.653) H81'(0.6531)
 H82'(0.6878) H83'(0.5547) H91'(0.2135) H92'(-0.0125) H93'(0.149)
 Fixed Z: H3(0.9283) H4(0.9409) H5(0.7704) H7A(0.5069) H7B(0.447) H8A(0.6576)
 H8B(0.8001) H8C(0.7614) H9A(0.4703) H9B(0.5238) H9C(0.5629) H3'(0.9358)
 H4'(0.9444) H5'(0.7701) H71'(0.5253) H72'(0.5899) H81'(0.6802) H82'(0.8228)
 H83'(0.784) H91'(0.4783) H92'(0.5269) H93'(0.5786)
;
_shelx_res_file
;
TITL 2,2',6,6'-Tetramethyldiphenylethane at rt in P2(1)/n
CELL 0.71073  10.5992   6.5465  10.7201  90.000  97.286  90.000
ZERR    2.00   0.0006   0.0004   0.0006   0.000   0.001   0.000
LATT  1
SYMM 0.5-X, 0.5+Y, 0.5-Z
SFAC C H
UNIT 36 44
L.S. 5
BOND $H
CONF
LIST 4
ACTA
TEMP 27
FMAP 2
PLAN 20
EQIV $1 1-x, 1-y, 1-z
SADI C7 C7_$1 C7' C7'_$1
SADI C1 C7_$1 C1' C7'_$1
SIZE 0.25 0.25 0.6
RIGU
SIMU
WGHT    0.159000    0.087500
EXTI    0.046784
FVAR       2.44553   0.69951
PART 1
C1    1    0.505899    0.306471    0.639065    21.00000    0.04186    0.05302 =
         0.06066    0.01207    0.00387   -0.00757
C2    1    0.450588    0.363681    0.745562    21.00000    0.05272    0.06511 =
         0.06258    0.01500    0.01240   -0.00656
C3    1    0.483832    0.264032    0.857564    21.00000    0.05732    0.09709 =
         0.06465    0.02278    0.01551   -0.00715
AFIX  43
H3    2    0.447113    0.302403    0.928326    21.00000   -1.20000
AFIX   0
C4    1    0.569960    0.109902    0.865537    21.00000    0.08709    0.12067 =
         0.08325    0.05502    0.02437    0.01661
AFIX  43
H4    2    0.589052    0.039358    0.940867    21.00000   -1.20000
AFIX   0
C5    1    0.629274    0.056911    0.763539    21.00000    0.05960    0.07525 =
         0.09119    0.03616    0.00910    0.00355
AFIX  43
H5    2    0.688356   -0.048810    0.770377    21.00000   -1.20000
AFIX   0
C6    1    0.602013    0.158586    0.652035    21.00000    0.04872    0.05318 =
         0.06608    0.01046    0.00661   -0.00848
C7    1    0.463382    0.402506    0.512365    21.00000    0.04814    0.05428 =
         0.05732    0.01089    0.00532   -0.00429
AFIX  23
H7A   2    0.373533    0.434778    0.506941    21.00000   -1.20000
H7B   2    0.473911    0.303729    0.447036    21.00000   -1.20000
AFIX   0
C8    1    0.346945    0.523991    0.740713    21.00000    0.08866    0.09757 =
         0.09806    0.03093    0.04677    0.02509
AFIX  33
H8A   2    0.332103    0.580896    0.657612    21.00000   -1.50000
H8B   2    0.372987    0.630351    0.800090    21.00000   -1.50000
H8C   2    0.270086    0.462283    0.761367    21.00000   -1.50000
AFIX   0
C9    1    0.669754    0.100830    0.542373    21.00000    0.06053    0.05795 =
         0.08620    0.01471    0.01533    0.01211
AFIX  33
H9A   2    0.637143    0.180740    0.470349    21.00000   -1.50000
H9B   2    0.656259   -0.041546    0.523807    21.00000   -1.50000
H9C   2    0.759171    0.126371    0.562853    21.00000   -1.50000
AFIX   0
PART 2
SAME C1 > C9
C1'   1    0.551605    0.361229    0.659225   -21.00000    0.04208    0.06083 =
         0.04567    0.01177    0.00521   -0.00499
C2'   1    0.484593    0.400341    0.761866   -21.00000    0.05076    0.06753 =
         0.05576    0.00103    0.00741   -0.00935
C3'   1    0.509822    0.279498    0.866513   -21.00000    0.05711    0.08502 =
         0.05644    0.01215    0.00194   -0.02160
AFIX  43
H3'   2    0.467333    0.303508    0.935849   -21.00000   -1.20000
AFIX   0
C4'   1    0.595305    0.126373    0.870417   -21.00000    0.04826    0.08285 =
         0.06488    0.02310   -0.01178   -0.01426
AFIX  43
H4'   2    0.616027    0.052775    0.944381   -21.00000   -1.20000
AFIX   0
C5'   1    0.652176    0.078213    0.765506   -21.00000    0.04151    0.06279 =
         0.07864    0.02029    0.00035   -0.01062
AFIX  43
H5'   2    0.710538   -0.028446    0.770104   -21.00000   -1.20000
AFIX   0
C6'   1    0.625303    0.182666    0.654836   -21.00000    0.03754    0.05056 =
         0.06233    0.01014    0.00396   -0.00594
C7'   1    0.551080    0.518742    0.555377   -21.00000    0.05233    0.04872 =
         0.05172    0.00546    0.01121   -0.00640
AFIX  23
H71'  2    0.633638    0.518569    0.525337   -21.00000   -1.20000
H72'  2    0.538215    0.652990    0.589919   -21.00000   -1.20000
AFIX   0
C8'   1    0.401187    0.591915    0.762238   -21.00000    0.09885    0.09837 =
         0.07697    0.00168    0.04541    0.02059
AFIX  33
H81'  2    0.391491    0.653096    0.680194   -21.00000   -1.50000
H82'  2    0.440770    0.687757    0.822761   -21.00000   -1.50000
H83'  2    0.319127    0.554726    0.783991   -21.00000   -1.50000
AFIX   0
C9'   1    0.703615    0.128131    0.549966   -21.00000    0.04047    0.13130 =
         0.06750   -0.02501    0.00526    0.00662
AFIX  33
H91'  2    0.678546    0.213464    0.478270   -21.00000   -1.50000
H92'  2    0.689478   -0.012480    0.526887   -21.00000   -1.50000
H93'  2    0.792210    0.149014    0.578602   -21.00000   -1.50000
AFIX   0
HKLF 4

REM  2,2',6,6'-Tetramethyldiphenylethane at rt in P2(1)/n
REM R1 =  0.0681 for    1287 Fo > 4sig(Fo)  and  0.0794 for all    1701 data
REM    165 parameters refined using    419 restraints

END

WGHT      0.1592      0.0873

REM Highest difference peak  0.285,  deepest hole -0.225,  1-sigma level  0.044
Q1    1   0.6090  0.0514  0.4642  11.00000  0.05    0.29
Q2    1   0.7483 -0.0258  0.5722  11.00000  0.05    0.28
Q3    1   0.7472  0.2647  0.5105  11.00000  0.05    0.22
Q4    1   0.3274  0.5557  0.8403  11.00000  0.05    0.20
Q5    1   0.2655  0.4662  0.6604  11.00000  0.05    0.19
Q6    1   0.3580  0.6560  0.7057  11.00000  0.05    0.18
Q7    1   0.5729  0.2452  0.6482  11.00000  0.05    0.15
Q8    1   0.4286  0.7242  0.7306  11.00000  0.05    0.15
Q9    1   0.4832  0.3559  0.6925  11.00000  0.05    0.14
Q10   1   0.6262  0.1230  0.6007  11.00000  0.05    0.12
Q11   1   0.4194  0.4697  0.7470  11.00000  0.05    0.12
Q12   1   0.6127  0.0780  0.8164  11.00000  0.05    0.11
Q13   1   0.6204  0.1349  0.7041  11.00000  0.05    0.11
Q14   1   0.4617  0.3125  0.8070  11.00000  0.05    0.10
Q15   1   0.6434  0.1371  0.9762  11.00000  0.05    0.08
Q16   1   0.4848  0.3513  0.5763  11.00000  0.05    0.08
Q17   1   0.6767 -0.1267  0.7260  11.00000  0.05    0.07
Q18   1   0.5000  0.5000  0.5000  10.50000  0.05    0.07
Q19   1   0.5326  0.2186  0.8668  11.00000  0.05    0.07
Q20   1   0.7239  0.0078  1.0371  11.00000  0.05    0.07
;
_shelx_res_checksum              1167
_shelx_hkl_file
;
   0   0  -1    4.76    0.43   1
   0   0  -2 6432.10   46.53   1
   0   0  -3    0.07    0.45   1
   0   0  -4  836.98    7.48   1
   0   0  -5    0.39    0.63   1
   0   0  -6   13.55    1.49   1
   0   0  -7   -0.86    0.85   1
   0   0  -8 1451.54   13.41   1
   0   1   0    0.49    0.32   1
   0   1  -1  781.59    6.76   1
   0   1   1  748.69    7.89   1
   0   1  -2   76.08    2.08   1
   0   1  -3  368.39    4.84   1
   0   1  -4   30.43    1.84   1
   0  -1  -5  229.18    2.98   1
   0   1  -5  231.28    4.46   1
   0  -1  -6  141.00    2.61   1
   0   1  -6  135.09    3.64   1
   0  -1  -7   47.40    1.90   1
   0   1  -7   44.78    2.65   1
   0   1  -8  194.94    5.05   1
   0   1  -9   55.25    3.64   1
   0   1 -10   13.12    2.05   1
   0   2   0  642.63    6.32   1
   0   2  -1 1790.05   13.65   1
   0   2   1 1790.13   13.01   1
   0   2  -2  220.01    4.01   1
   0   2   2  227.07    2.73   1
   0   2  -3  682.27    7.96   1
   0   2  -4 6691.96   42.11   1
   0   2  -5    4.45    1.24   1
   0   2  -6  813.14   10.23   1
   0   2  -7   44.62    2.86   1
   0   2  -8    6.88    1.76   1
   0   2  -9   -0.38    1.48   1
   0   2 -10    2.25    1.71   1
   0   2 -11   -1.21    1.48   1
   0   3   0   -0.31    0.64   1
   0   3  -1  107.39    3.25   1
   0   3   1  108.91    2.75   1
   0   3  -2   48.70    2.46   1
   0   3   2   53.69    1.85   1
   0   3  -3    3.23    1.08   1
   0   3   3    6.31    0.67   1
   0   3  -4  275.00    5.80   1
   0   3  -5   16.79    2.06   1
   0   3  -6   37.76    2.90   1
   0   3  -7   39.08    3.15   1
   0   3  -8  100.67    4.52   1
   0   3  -9   55.19    3.83   1
   0   3 -10   -0.79    1.61   1
   0   3 -11    6.08    2.21   1
   0   3 -12    7.32    2.44   1
   0   4   0 1204.68   11.98   1
   0   4  -1  698.00    9.13   1
   0   4   1  694.47    8.16   1
   0   4  -2    4.05    1.31   1
   0   4   2    4.64    1.02   1
   0   4  -3   65.83    3.35   1
   0   4   3   67.74    2.20   1
   0   4  -4   52.32    3.41   1
   0   4  -5   53.27    3.54   1
   0   4  -6   13.78    2.22   1
   0   4  -7   83.57    4.50   1
   0   4  -8   23.48    2.87   1
   0   4  -9   50.04    4.06   1
   0   4 -10    0.92    1.92   1
   0   4 -11    8.04    2.47   1
   0   4 -12    0.00    2.10   1
   0   5   0   -0.27    1.08   1
   0   5  -1    3.21    1.44   1
   0   5   1    1.88    1.14   1
   0   5  -2  286.40    6.64   1
   0   5   2  285.27    5.41   1
   0   5  -3   25.88    3.02   1
   0   5   3   23.45    2.09   1
   0   5  -4  105.65    4.87   1
   0   5  -5   20.06    2.74   1
   0   5  -6    0.55    1.74   1
   0   5  -7   90.14    5.10   1
   0   5  -8   47.39    4.13   1
   0   5  -9   10.33    2.67   1
   0   5 -10    1.69    2.15   1
   0   5 -11    7.79    2.77   1
   0   6   0    2.72    1.57   1
   0   6  -1   13.75    2.26   1
   0   6   1   12.77    1.87   1
   0   6  -2   18.09    2.52   1
   0   6   2   18.23    2.01   1
   0   6  -3  284.97    7.60   1
   0   6  -4  106.49    5.22   1
   0   6  -5  124.43    5.76   1
   0   6  -6   -0.04    2.00   1
   0   6  -7    1.74    2.05   1
   0   6  -8    5.30    2.48   1
   0   6  -9   -0.43    2.18   1
   0   7   0   -2.06    1.38   1
   0   7  -1   -1.13    1.61   1
   0   7   1    1.38    1.59   1
   0   7  -2   33.04    3.57   1
   0   7  -3    2.71    1.98   1
   0   7  -4   85.30    5.27   1
   0   7  -5    1.01    2.20   1
   0   7  -6   40.68    4.49   1
   0   7  -7    2.02    2.38   1
   0   8  -1    3.91    2.22   1
   0   8  -2    3.76    2.26   1
   0   8  -3    1.19    2.26   1
   0   8  -4    1.00    2.36   1
   1   0  -9   24.18    2.58   1
   1   0  -8   -2.80    1.27   1
   1   0  -7  504.62    6.80   1
   1   0  -6    0.20    0.69   1
   1   0  -5  683.50    7.08   1
   1   0  -4    1.42    0.55   1
   1   0  -313281.85   80.31   1
   1   0  -2    0.58    0.34   1
   1   0  -110019.98   73.00   1
  -1   0  -1  407.27    3.96   1
  -1   0  -2    2.26    0.46   1
  -1   0  -3   39.00    1.49   1
  -1   0  -4    0.12    0.52   1
  -1   0  -5  916.61    8.55   1
  -1   0  -6    0.02    0.72   1
  -1   0  -7    3.76    1.06   1
   1   1 -10    0.46    1.51   1
   1   1  -9 1327.18   14.67   1
   1   1  -8    0.68    1.24   1
   1  -1  -7   82.98    2.55   1
   1   1  -7   80.09    3.30   1
   1  -1  -6  241.74    3.64   1
   1   1  -6  242.84    4.88   1
   1  -1  -5 2043.33   14.53   1
   1   1  -5 2013.03   16.04   1
   1  -1  -4  669.97    5.85   1
   1   1  -4  681.00    7.41   1
   1  -1  -3 1137.19    9.00   1
   1   1  -3 1158.09    9.90   1
   1  -1  -2  211.74    2.53   1
   1   1  -2  211.76    3.34   1
  -1   1   111068.67   75.65   1
   1   1  -111025.77   67.40   1
  -1   1   0 1537.44   11.38   1
   1   1   0 1541.20   11.51   1
  -1   1  -123365.67  138.14   1
  -1   1  -2    0.77    0.60   1
  -1   1  -3 1220.47   10.47   1
  -1   1  -4 3426.83   23.35   1
  -1  -1  -5 1569.24   11.62   1
  -1   1  -5 1560.60   13.53   1
  -1  -1  -6   -0.22    0.56   1
  -1   1  -6    1.03    0.91   1
  -1  -1  -7    0.08    0.67   1
  -1   1  -7   -0.51    0.92   1
  -1   1  -8  154.35    4.48   1
  -1   1  -9  207.66    5.58   1
  -1   1 -10    3.12    1.72   1
   1   2 -11    0.23    1.61   1
   1   2 -10    0.08    1.52   1
   1   2  -9   -3.08    1.27   1
   1   2  -8   10.89    1.97   1
   1   2  -7    1.19    1.25   1
   1   2  -6    9.52    1.49   1
   1   2  -5   65.58    2.96   1
   1   2  -4  180.90    4.38   1
   1  -2  -3 1011.24    7.97   1
   1   2  -3 1012.46   10.02   1
  -1   2   2 1602.58   11.67   1
   1   2  -2 1619.23   13.20   1
  -1   2   1  169.52    2.79   1
   1   2  -1  168.84    3.32   1
  -1   2   0 7365.32   44.33   1
   1   2   0 7466.88   45.04   1
   1   2   1  566.29    5.34   1
  -1   2  -2   12.15    1.49   1
   1   2   2   12.57    0.97   1
  -1   2  -3  424.67    6.21   1
  -1   2  -4  411.87    6.58   1
  -1   2  -5  202.17    4.83   1
  -1   2  -6   40.83    2.68   1
  -1   2  -7    1.85    1.23   1
  -1   2  -8    9.89    1.87   1
  -1   2  -9    0.80    1.53   1
  -1   2 -10  150.22    5.48   1
  -1   2 -11    0.46    1.62   1
   1   3 -12   17.46    2.90   1
   1   3 -11   -0.63    1.86   1
   1   3 -10    0.41    1.73   1
   1   3  -9  109.35    5.00   1
   1   3  -8    5.74    1.72   1
   1   3  -7    9.50    1.83   1
   1   3  -6   55.44    3.19   1
   1   3  -5  897.13   11.34   1
   1   3  -4   98.87    3.59   1
  -1   3   3  835.90    7.29   1
   1   3  -3  813.77    9.81   1
  -1   3   2  602.03    6.28   1
   1   3  -2  602.77    7.88   1
  -1   3   1  160.10    3.28   1
   1   3  -1  154.55    3.60   1
  -1   3   0  341.10    5.19   1
   1   3   0  337.04    5.06   1
   1   3   1  193.82    3.54   1
  -1   3  -2   31.76    2.13   1
   1   3   2   34.27    1.55   1
  -1   3  -3    0.29    0.90   1
   1   3   3    0.65    0.48   1
  -1   3  -4  117.93    4.02   1
  -1   3  -5  264.52    6.07   1
  -1   3  -6    0.05    1.15   1
  -1   3  -7   -0.07    1.30   1
  -1   3  -8  206.08    6.27   1
  -1   3  -9    1.68    1.68   1
  -1   3 -10   14.40    2.49   1
  -1   3 -11    2.27    1.97   1
  -1   3 -12   -0.91    1.90   1
   1   4 -12   -1.88    1.86   1
   1   4 -11    6.02    2.37   1
   1   4 -10    2.21    2.07   1
   1   4  -9    5.73    2.14   1
   1   4  -8   11.47    2.39   1
   1   4  -7  196.06    6.21   1
   1   4  -6   -0.73    1.53   1
   1   4  -5   12.02    1.97   1
  -1   4   4   28.37    1.50   1
   1   4  -4   26.02    2.67   1
  -1   4   3   72.35    2.36   1
   1   4  -3   70.73    3.38   1
  -1   4   2  140.95    3.41   1
   1   4  -2  138.40    4.20   1
  -1   4   1  646.78    7.93   1
   1   4  -1  648.80    8.70   1
  -1   4   0   15.56    1.69   1
   1   4   0   17.97    1.85   1
  -1   4  -1   -1.76    0.97   1
   1   4   1    1.07    0.81   1
  -1   4  -2    2.13    1.21   1
   1   4   2    4.63    0.99   1
  -1   4  -3   80.61    3.63   1
   1   4   3   81.49    2.46   1
  -1   4  -4  221.29    5.83   1
  -1   4  -5   71.76    3.79   1
  -1   4  -6   18.27    2.35   1
  -1   4  -7   53.08    3.80   1
  -1   4  -8    7.21    2.12   1
  -1   4  -9   41.54    3.74   1
  -1   4 -10    1.92    2.04   1
  -1   4 -11    2.04    2.04   1
  -1   4 -12    3.59    2.32   1
   1   5 -11   -0.86    2.09   1
   1   5 -10   21.95    3.25   1
   1   5  -9   15.43    2.93   1
   1   5  -8   12.07    2.73   1
   1   5  -7    4.68    2.29   1
   1   5  -6   -0.70    1.67   1
   1   5  -5   13.38    2.53   1
   1   5  -4   19.58    2.50   1
  -1   5   3   27.12    2.08   1
   1   5  -3   28.31    2.84   1
  -1   5   2   -0.76    0.99   1
   1   5  -2    0.45    1.25   1
  -1   5   1   19.14    2.19   1
   1   5  -1   18.44    2.24   1
  -1   5   0   60.38    3.08   1
   1   5   0   62.57    3.15   1
  -1   5  -1  223.85    5.70   1
   1   5   1  219.91    5.06   1
  -1   5  -2   17.84    2.21   1
   1   5   2   20.55    2.23   1
  -1   5  -3   10.21    2.10   1
   1   5   3    9.46    1.42   1
  -1   5  -4  782.70   12.18   1
  -1   5  -5    1.51    1.74   1
  -1   5  -6   14.28    2.55   1
  -1   5  -7    1.21    2.08   1
  -1   5  -8    5.83    2.34   1
  -1   5  -9    2.37    2.32   1
  -1   5 -10    0.83    2.23   1
  -1   5 -11   13.42    3.09   1
   1   6  -9    6.44    2.75   1
   1   6  -8   -0.02    2.30   1
   1   6  -7    7.28    2.68   1
   1   6  -6    2.41    2.10   1
   1   6  -5   20.40    3.05   1
   1   6  -4    1.08    1.94   1
   1   6  -3  203.03    6.55   1
  -1   6   2   20.52    2.16   1
   1   6  -2   26.06    3.06   1
  -1   6   1    9.05    1.79   1
   1   6  -1    9.15    2.03   1
  -1   6   0   19.13    2.27   1
   1   6   0   19.64    2.32   1
  -1   6  -1   18.70    2.41   1
   1   6   1   20.74    2.59   1
  -1   6  -2    0.73    1.69   1
   1   6   2    2.23    1.48   1
  -1   6  -3  440.06    9.39   1
  -1   6  -4   -0.59    1.84   1
  -1   6  -5   44.47    4.40   1
  -1   6  -6    0.33    2.17   1
  -1   6  -7   -0.65    2.04   1
  -1   6  -8    1.52    2.26   1
  -1   6  -9    6.91    2.79   1
   1   7  -7    9.09    2.83   1
   1   7  -6    8.13    2.78   1
   1   7  -5   46.39    4.51   1
   1   7  -4   97.11    5.52   1
   1   7  -3   11.76    2.59   1
   1   7  -2   28.65    3.51   1
  -1   7   1    0.04    1.52   1
   1   7  -1   -0.85    1.68   1
  -1   7   0   -0.01    1.54   1
   1   7   0   -0.12    1.79   1
  -1   7  -1   -0.75    1.60   1
   1   7   1    0.28    1.57   1
  -1   7  -2    7.10    2.33   1
  -1   7  -3   19.12    2.97   1
  -1   7  -4   14.51    2.76   1
  -1   7  -5   14.10    2.97   1
  -1   7  -6    0.89    2.26   1
  -1   7  -7    4.49    2.75   1
   1   8  -4    1.87    2.71   1
   1   8  -3   39.46    4.27   1
   1   8  -2   13.69    3.02   1
   1   8  -1    7.69    2.62   1
  -1   8   0    0.90    1.96   1
  -1   8  -1    0.02    1.88   1
  -1   8  -2   -0.92    2.08   1
  -1   8  -3   -2.62    2.07   1
  -1   8  -4    2.64    2.50   1
   2   0  -9    0.11    1.27   1
   2   0  -8 2304.33   18.71   1
   2   0  -7    0.36    0.84   1
   2   0  -6  481.94    6.34   1
   2   0  -5   -0.58    0.63   1
   2   0  -4 1223.68   10.18   1
   2   0  -3   -0.12    0.49   1
   2   0  -2    6.43    0.67   1
   2   0  -1    0.82    0.49   1
   2   0   018286.93  110.98   1
  -2   0  -1    0.86    0.54   1
  -2   0  -2 3169.39   20.89   1
  -2   0  -3    0.06    0.51   1
  -2   0  -4 2465.87   17.19   1
  -2   0  -5   -0.49    0.74   1
  -2   0  -6  334.43    5.16   1
  -2   0  -7   -0.31    0.87   1
  -2   0  -8   64.48    3.06   1
   2   1 -10   37.32    3.11   1
   2   1  -9  625.35    9.58   1
   2  -1  -8   10.07    1.32   1
   2   1  -8    8.30    1.72   1
   2  -1  -7  660.61    7.24   1
   2   1  -7  665.76    9.00   1
   2  -1  -6  104.90    2.60   1
   2   1  -6  110.79    3.43   1
   2  -1  -5  971.36    8.46   1
   2   1  -5  985.31   10.25   1
   2  -1  -4   27.05    1.48   1
   2   1  -4   27.80    1.91   1
   2  -1  -3 4493.30   28.42   1
   2   1  -3 4445.84   28.57   1
   2  -1  -2   19.47    1.33   1
   2   1  -2   18.47    1.45   1
  -2   1   1 4916.00   30.89   1
   2   1  -1 4914.04   30.73   1
   2   1   0 8503.48   51.87   1
  -2   1  -130494.34  172.25   1
  -2   1  -2 1945.57   14.42   1
   2   1   2 1958.76   13.88   1
  -2   1  -3  336.22    4.97   1
   2   1   3  346.24    3.79   1
  -2  -1  -4 1755.85   12.61   1
  -2   1  -4 1723.17   14.07   1
  -2  -1  -5  749.78    6.64   1
  -2   1  -5  734.80    8.51   1
  -2  -1  -6  145.00    2.78   1
  -2   1  -6  146.44    3.92   1
  -2   1  -7    5.47    1.30   1
  -2   1  -8    2.68    1.48   1
  -2   1  -9  114.11    4.53   1
   2   2 -11    4.44    1.86   1
   2   2 -10   27.17    3.11   1
   2   2  -9   14.04    2.26   1
   2   2  -8  205.06    5.85   1
   2   2  -7    7.29    1.59   1
   2  -2  -6    3.53    0.69   1
   2   2  -6    2.94    1.19   1
   2  -2  -5 1095.51    8.73   1
   2   2  -5 1103.65   11.89   1
   2  -2  -4 2572.77   17.36   1
   2   2  -4 2553.21   19.94   1
   2  -2  -3  405.05    4.61   1
   2   2  -3  391.66    5.96   1
  -2   2   2   34.88    1.58   1
   2   2  -2   35.17    1.94   1
  -2   2   1 5172.41   31.97   1
   2   2  -1 5176.33   32.35   1
  -2   2   0 3675.82   24.13   1
   2   2   0 3722.39   24.17   1
  -2   2  -1  117.89    3.02   1
   2   2   1  116.66    2.53   1
   2   2   2 2387.37   16.47   1
  -2   2  -3  898.11    9.69   1
   2   2   3  897.66    7.35   1
  -2   2  -4  106.28    3.26   1
  -2   2  -5   69.91    2.92   1
  -2   2  -6   38.57    2.52   1
  -2   2  -7    4.48    1.34   1
  -2   2  -8   26.47    2.70   1
  -2   2  -9  251.82    6.61   1
  -2   2 -10   31.97    3.44   1
   2   3 -12   16.74    2.98   1
   2   3 -11    2.86    2.14   1
   2   3 -10   51.23    3.85   1
   2   3  -9    0.11    1.56   1
   2   3  -8   -0.50    1.45   1
   2   3  -7   -0.46    1.30   1
   2   3  -6   17.06    2.01   1
   2  -3  -5  347.74    4.24   1
   2   3  -5  348.60    6.96   1
   2  -3  -4   76.69    2.26   1
   2   3  -4   73.56    3.22   1
  -2   3   3 1035.10    8.97   1
  -2   3   2  418.75    5.33   1
   2   3  -2  401.48    6.24   1
  -2   3   1    0.20    0.75   1
   2   3  -1   -0.08    0.79   1
  -2   3   0 2305.34   17.53   1
   2   3   0 2320.48   17.31   1
  -2   3  -1  764.31    8.82   1
   2   3   1  755.19    7.71   1
  -2   3  -2  341.36    6.05   1
   2   3   2  342.96    4.51   1
  -2   3  -3  257.72    5.27   1
   2   3   3  271.67    3.58   1
  -2   3  -4   11.07    1.63   1
  -2   3  -5   92.74    3.92   1
  -2   3  -6   66.84    3.54   1
  -2   3  -7   79.19    3.99   1
  -2   3  -8   22.42    2.71   1
  -2   3  -9   19.03    2.60   1
  -2   3 -10   23.40    2.87   1
  -2   3 -11    2.24    1.98   1
   2   4 -12    8.81    2.70   1
   2   4 -11   15.49    3.06   1
   2   4 -10   -1.49    1.76   1
   2   4  -9    0.42    1.80   1
   2   4  -8  144.04    5.82   1
   2   4  -7    2.28    1.76   1
   2   4  -6    3.77    1.78   1
   2   4  -5  119.95    4.81   1
  -2   4   4  275.16    4.28   1
   2   4  -4  267.10    6.48   1
  -2   4   3  179.61    3.70   1
   2   4  -3  178.03    4.94   1
  -2   4   2  140.54    3.56   1
   2   4  -2  140.58    4.43   1
  -2   4   1   39.48    2.38   1
   2   4  -1   46.79    2.79   1
  -2   4   0  146.13    4.00   1
   2   4   0  144.65    3.88   1
  -2   4  -1  161.73    4.41   1
   2   4   1  152.08    3.66   1
  -2   4  -2  213.29    5.30   1
   2   4   2  219.04    4.10   1
  -2   4  -3  567.36    8.66   1
   2   4   3  623.78    6.82   1
  -2   4  -4  188.59    5.51   1
  -2   4  -5  246.38    6.57   1
  -2   4  -6   21.77    2.56   1
  -2   4  -7   19.03    2.50   1
  -2   4  -8   17.01    2.53   1
  -2   4  -9   14.30    2.58   1
  -2   4 -10   12.98    2.63   1
  -2   4 -11   -0.11    2.07   1
   2   5 -11   -0.36    2.26   1
   2   5 -10    2.13    2.27   1
   2   5  -9    4.50    2.28   1
   2   5  -8   69.01    4.65   1
   2   5  -7   14.51    2.80   1
   2   5  -6  193.90    6.68   1
   2   5  -5   25.72    2.91   1
  -2   5   4  107.59    3.11   1
   2   5  -4  111.80    4.82   1
  -2   5   3    7.35    1.33   1
   2   5  -3    6.78    1.92   1
  -2   5   2    6.35    1.32   1
   2   5  -2   10.49    1.77   1
  -2   5   1    4.62    1.35   1
   2   5  -1    3.97    1.37   1
  -2   5   0    1.49    1.22   1
   2   5   0    1.96    1.18   1
  -2   5  -1  154.67    4.96   1
   2   5   1  156.67    4.30   1
  -2   5  -2  362.82    7.56   1
   2   5   2  358.62    6.08   1
  -2   5  -3  106.58    4.62   1
   2   5   3  103.12    3.28   1
  -2   5  -4  593.94   10.20   1
  -2   5  -5  104.16    4.66   1
  -2   5  -6   59.52    4.31   1
  -2   5  -7   18.79    2.85   1
  -2   5  -8    0.23    1.91   1
  -2   5  -9   12.59    2.79   1
  -2   5 -10   -0.39    1.95   1
   2   6  -9    2.24    2.39   1
   2   6  -8    1.78    2.43   1
   2   6  -7    8.51    2.65   1
   2   6  -6   16.32    3.05   1
   2   6  -5  100.26    5.31   1
   2   6  -4   74.28    4.51   1
  -2   6   3    0.30    1.25   1
   2   6  -3    0.63    1.65   1
  -2   6   2   27.16    2.66   1
   2   6  -2   29.83    2.99   1
  -2   6   1    0.90    1.43   1
   2   6  -1    0.94    1.50   1
  -2   6   0   -0.34    1.39   1
   2   6   0    0.41    1.33   1
  -2   6  -1    2.34    1.63   1
   2   6   1    1.61    1.32   1
  -2   6  -2   57.21    3.96   1
   2   6   2   57.11    3.23   1
  -2   6  -3   65.38    4.33   1
  -2   6  -4    3.73    2.08   1
  -2   6  -5   65.22    4.59   1
  -2   6  -6    1.22    2.03   1
  -2   6  -7   14.92    2.95   1
  -2   6  -8   36.71    4.26   1
  -2   6  -9    4.24    2.64   1
   2   7  -7    1.22    2.46   1
   2   7  -6   12.17    2.95   1
   2   7  -5   10.06    2.69   1
   2   7  -4   17.79    3.01   1
   2   7  -3    7.03    2.36   1
   2   7  -2   81.00    4.69   1
  -2   7   1    0.96    1.63   1
   2   7  -1    1.01    1.85   1
  -2   7   0    6.96    2.13   1
   2   7   0    7.21    2.12   1
  -2   7  -1   -0.64    1.60   1
  -2   7  -2    0.03    1.79   1
  -2   7  -3   -0.54    1.96   1
  -2   7  -4    0.71    2.08   1
  -2   7  -5    6.07    2.65   1
  -2   7  -6    2.36    2.43   1
  -2   7  -7   14.33    3.29   1
   2   8  -4   14.33    3.13   1
   2   8  -3   60.59    4.91   1
   2   8  -2    0.97    2.18   1
   2   8  -1    3.08    2.23   1
  -2   8   0   -1.04    1.97   1
  -2   8  -1    1.22    2.03   1
  -2   8  -2   -1.45    2.04   1
  -2   8  -3    0.51    2.18   1
  -2   8  -4    1.36    2.42   1
   3   0  -9   90.87    3.64   1
   3   0  -8    0.38    1.05   1
   3   0  -7   26.17    2.07   1
   3   0  -6   -0.25    0.73   1
   3   0  -5 2945.70   20.96   1
   3   0  -4   -0.70    0.67   1
   3   0  -3 2585.56   18.08   1
   3   0  -2    1.44    0.61   1
   3   0  -1   -0.39    0.51   1
   3   0   0    0.64    0.59   1
   3   0   1 3532.26   22.90   1
  -3   0  -2   -0.20    0.61   1
  -3   0  -3  789.48    7.64   1
  -3   0  -4   -0.17    0.70   1
  -3   0  -5 2961.62   20.75   1
  -3   0  -6    0.45    0.93   1
  -3   0  -7   41.52    2.36   1
  -3   0  -8   -1.08    0.95   1
   3   1 -10   29.21    3.03   1
   3   1  -9  618.45    9.74   1
   3  -1  -8    9.97    1.35   1
   3   1  -8    8.68    1.63   1
   3  -1  -7  432.50    6.01   1
   3   1  -7  432.15    7.28   1
   3  -1  -6    4.11    0.91   1
   3   1  -6    5.09    1.16   1
   3  -1  -5  670.81    7.06   1
   3   1  -5  680.44    8.33   1
   3  -1  -4  895.05    8.36   1
   3   1  -4  875.18    9.25   1
   3  -1  -3  961.92    8.50   1
   3   1  -3  952.30    9.27   1
   3  -1  -2 3193.30   20.95   1
   3   1  -2 3206.55   21.63   1
   3  -1  -1 3700.01   23.90   1
   3   1  -1 3712.29   24.19   1
  -3   1   0 8710.94   51.30   1
   3   1   0 8748.63   51.68   1
  -3   1  -1 1077.48    9.54   1
   3   1   1 1081.20    8.91   1
  -3   1  -2  213.82    3.98   1
   3   1   2  221.10    3.42   1
  -3   1  -3  740.09    8.10   1
   3   1   3  736.72    6.76   1
  -3   1  -4  151.66    3.78   1
   3   1   4  151.34    2.98   1
  -3  -1  -5  578.92    6.14   1
  -3   1  -5  572.95    7.64   1
  -3  -1  -6   15.25    1.65   1
  -3   1  -6   13.54    1.67   1
  -3   1  -7    4.47    1.39   1
  -3   1  -8   54.47    3.33   1
  -3   1  -9   -0.33    1.50   1
   3   2 -12    1.46    2.02   1
   3   2 -11    4.12    2.04   1
   3   2 -10   24.01    2.74   1
   3   2  -9   12.46    2.43   1
   3   2  -8 1147.47   14.14   1
   3   2  -7   39.72    2.78   1
   3  -2  -6   18.25    1.57   1
   3   2  -6   18.95    2.23   1
   3  -2  -5   55.49    2.16   1
   3   2  -5   55.25    2.85   1
   3  -2  -4   10.25    1.03   1
   3   2  -4   11.21    1.46   1
   3  -2  -3  189.49    3.37   1
  -3   2   2  386.85    5.01   1
   3   2  -2  386.04    5.71   1
  -3   2   1   99.28    2.80   1
   3   2  -1  100.53    3.01   1
  -3   2   0 4947.35   31.43   1
   3   2   0 4987.78   31.32   1
  -3   2  -1   34.26    2.33   1
   3   2   1   37.36    2.07   1
  -3   2  -2 1048.16   10.56   1
   3   2   2 1064.94    8.99   1
  -3   2  -3   35.88    2.37   1
   3   2   3   34.87    1.61   1
  -3   2  -4   71.69    3.02   1
   3   2   4   70.58    1.90   1
  -3   2  -5   61.62    3.06   1
   3   2   5   61.46    1.88   1
  -3   2  -6   17.38    1.92   1
  -3   2  -7   16.86    2.08   1
  -3   2  -8    0.97    1.48   1
  -3   2  -9    0.54    1.76   1
  -3   2 -10    5.71    2.12   1
   3   3 -12    6.31    2.36   1
   3   3 -11   16.35    2.75   1
   3   3 -10   14.72    2.53   1
   3   3  -9    1.78    1.78   1
   3   3  -8   22.53    2.89   1
   3   3  -7    0.67    1.51   1
   3   3  -6    0.63    1.28   1
   3  -3  -5  169.33    3.48   1
   3   3  -5  168.74    4.97   1
   3  -3  -4    0.31    0.68   1
   3   3  -4    0.40    1.07   1
  -3   3   3  666.65    7.21   1
   3   3  -3  665.49    9.02   1
  -3   3   2  178.84    3.71   1
   3   3  -2  179.45    4.37   1
  -3   3   1   95.49    2.97   1
   3   3  -1   96.54    3.24   1
  -3   3   0 3198.37   22.97   1
   3   3   0 3204.97   22.65   1
  -3   3  -1 1180.37   11.94   1
   3   3   1 1171.99   10.66   1
  -3   3  -2   53.38    2.78   1
   3   3   2   51.30    2.21   1
  -3   3  -3  200.31    4.99   1
   3   3   3  202.42    3.48   1
  -3   3  -4  162.75    4.77   1
   3   3   4  154.15    2.80   1
  -3   3  -5    0.66    1.29   1
  -3   3  -6   88.23    4.14   1
  -3   3  -7   20.01    2.42   1
  -3   3  -8  107.35    4.81   1
  -3   3  -9   32.53    3.48   1
  -3   3 -10   58.90    4.25   1
  -3   3 -11    5.13    2.22   1
   3   4 -12   22.91    3.35   1
   3   4 -11    6.86    2.47   1
   3   4 -10    0.19    1.88   1
   3   4  -9   28.91    3.46   1
   3   4  -8    8.94    2.25   1
   3   4  -7   45.86    3.74   1
   3   4  -6    6.06    2.10   1
   3   4  -5  212.31    6.29   1
  -3   4   4  609.75    7.16   1
   3   4  -4  604.46    9.87   1
  -3   4   3    4.40    1.03   1
   3   4  -3    4.49    1.45   1
  -3   4   2    9.76    1.43   1
   3   4  -2    9.36    1.54   1
  -3   4   1    9.90    1.38   1
  -3   4   0    2.98    1.15   1
   3   4   0    2.47    1.08   1
  -3   4  -1    8.88    1.59   1
   3   4   1    9.51    1.30   1
  -3   4  -2  204.05    5.31   1
   3   4   2  203.23    4.17   1
  -3   4  -3  307.95    6.77   1
   3   4   3  306.32    4.85   1
  -3   4  -4   10.43    2.04   1
  -3   4  -5  689.01   11.13   1
  -3   4  -6    6.98    1.94   1
  -3   4  -7   22.00    2.74   1
  -3   4  -8    0.18    1.71   1
  -3   4  -9   11.16    2.49   1
  -3   4 -10    0.44    1.91   1
  -3   4 -11   -1.44    1.84   1
   3   5 -11   -1.46    2.12   1
   3   5 -10    1.62    2.25   1
   3   5  -9    7.20    2.55   1
   3   5  -8    5.08    2.31   1
   3   5  -7   38.57    3.71   1
   3   5  -6   36.72    3.81   1
   3   5  -5   14.51    2.58   1
  -3   5   4  144.74    3.95   1
   3   5  -4  145.39    5.59   1
  -3   5   3    6.54    1.42   1
   3   5  -3    2.86    1.62   1
  -3   5   2   63.20    2.97   1
   3   5  -2   65.56    3.52   1
  -3   5   1    6.22    1.51   1
   3   5  -1    5.89    1.53   1
  -3   5   0   54.67    3.24   1
   3   5   0   49.97    2.90   1
  -3   5  -1   16.85    2.17   1
   3   5   1   16.65    2.08   1
  -3   5  -2   13.21    2.14   1
   3   5   2   13.53    1.62   1
  -3   5  -3  173.44    5.79   1
  -3   5  -4  798.96   12.40   1
  -3   5  -5  100.01    5.01   1
  -3   5  -6    6.68    2.23   1
  -3   5  -7   -0.68    1.85   1
  -3   5  -8   -0.84    1.84   1
  -3   5  -9   19.01    3.09   1
  -3   5 -10    1.18    2.18   1
   3   6  -9    1.37    2.38   1
   3   6  -8   38.66    4.23   1
   3   6  -7   24.30    3.26   1
   3   6  -6    7.33    2.42   1
   3   6  -5   34.16    3.80   1
   3   6  -4   19.52    2.78   1
  -3   6   3    6.34    1.61   1
   3   6  -3    9.18    2.13   1
  -3   6   2   -0.44    1.33   1
   3   6  -2    0.43    1.61   1
  -3   6   1   34.55    3.08   1
   3   6  -1   32.17    2.99   1
  -3   6   0    3.80    1.76   1
   3   6   0    5.28    1.69   1
  -3   6  -1    1.04    1.62   1
   3   6   1    3.01    1.52   1
  -3   6  -2    2.66    1.93   1
  -3   6  -3   25.69    2.92   1
  -3   6  -4   17.55    2.79   1
  -3   6  -5    1.13    2.08   1
  -3   6  -6   10.62    2.69   1
  -3   6  -7   -1.16    2.08   1
  -3   6  -8   21.76    3.39   1
   3   7  -7   12.30    3.29   1
   3   7  -6    2.99    2.40   1
   3   7  -5    2.42    2.34   1
   3   7  -4   11.22    2.78   1
   3   7  -3   20.22    3.00   1
  -3   7   2    0.24    1.56   1
   3   7  -2    0.24    1.79   1
  -3   7   1   19.25    2.51   1
   3   7  -1   22.73    2.76   1
  -3   7   0   13.85    2.46   1
   3   7   0   15.13    2.47   1
  -3   7  -1    8.23    2.27   1
  -3   7  -2    0.84    1.83   1
  -3   7  -3   -2.15    1.71   1
  -3   7  -4    9.95    2.71   1
  -3   7  -5   -0.37    2.19   1
  -3   7  -6   -3.04    1.99   1
   3   8  -4   26.97    3.80   1
   3   8  -3   17.46    3.28   1
   3   8  -2    1.03    2.27   1
   3   8  -1    8.42    2.50   1
  -3   8   0    2.03    2.10   1
  -3   8  -1   -0.51    2.10   1
  -3   8  -2    4.34    2.45   1
  -3   8  -3   -2.45    2.15   1
   4   0  -9    0.72    1.21   1
   4   0  -8   11.56    1.63   1
   4   0  -7    0.00    0.92   1
   4   0  -6  165.57    4.11   1
   4   0  -5   -0.75    0.73   1
   4   0  -4 4060.48   27.22   1
   4   0  -3    0.43    0.77   1
   4   0  -2 1842.66   14.46   1
   4   0  -1   -0.03    0.60   1
   4   0   0  142.60    3.18   1
   4   0   1   -0.35    0.68   1
  -4   0  -2 1115.14   10.07   1
  -4   0  -3   -0.52    0.69   1
  -4   0  -4    1.26    0.87   1
  -4   0  -5   -0.85    0.89   1
  -4   0  -6  156.85    4.01   1
  -4   0  -7    1.00    1.06   1
  -4   0  -8   35.97    2.50   1
   4   1 -11   -0.04    1.46   1
   4   1 -10    1.80    1.53   1
   4   1  -9  155.32    5.11   1
   4  -1  -8   67.80    3.07   1
   4   1  -8   72.08    3.50   1
   4  -1  -7  533.37    7.22   1
   4   1  -7  544.56    8.37   1
   4  -1  -6   26.35    1.90   1
   4   1  -6   27.36    2.28   1
   4  -1  -5  489.40    6.45   1
   4   1  -5  484.64    7.25   1
   4  -1  -4 2574.11   18.53   1
   4   1  -4 2570.13   19.66   1
   4  -1  -3   52.11    2.26   1
   4   1  -3   53.15    2.43   1
   4  -1  -2    1.05    0.69   1
   4   1  -2    0.22    0.73   1
   4  -1  -1  276.78    4.42   1
   4   1  -1  278.28    4.54   1
  -4   1   0  542.68    6.56   1
   4   1   0  544.52    6.40   1
  -4   1  -1  252.02    4.55   1
   4   1   1  257.97    4.24   1
  -4   1  -2  852.29    8.99   1
   4   1   2  864.37    8.29   1
  -4   1  -3    3.30    1.10   1
   4   1   3    2.96    0.89   1
  -4   1  -4  758.75    9.00   1
   4   1   4  744.84    7.52   1
  -4   1  -5  152.28    4.17   1
   4   1   5  145.71    3.34   1
  -4   1  -6  223.23    5.17   1
  -4   1  -7    6.07    1.43   1
  -4   1  -8   20.04    2.14   1
  -4   1  -9   -0.96    1.36   1
   4   2 -12    1.55    1.93   1
   4   2 -11    1.23    1.71   1
   4   2 -10   83.46    4.45   1
   4   2  -9  554.17   10.19   1
   4   2  -8  690.75   10.76   1
   4  -2  -7  104.38    3.21   1
   4   2  -7  110.37    4.36   1
   4  -2  -6  198.50    4.01   1
   4   2  -6  196.05    5.27   1
   4  -2  -5  106.26    3.06   1
   4   2  -5  103.61    3.72   1
   4  -2  -4    8.23    1.14   1
   4   2  -4    8.87    1.42   1
   4  -2  -3    1.19    0.84   1
   4   2  -3    0.43    0.85   1
   4  -2  -2   48.94    2.47   1
   4   2  -2   49.50    2.54   1
  -4   2   1 3320.24   23.01   1
   4   2  -1 3346.04   23.48   1
  -4   2   0 2555.71   19.09   1
   4   2   0 2578.25   18.83   1
  -4   2  -1 7277.98   44.85   1
   4   2   1 7331.37   44.04   1
  -4   2  -2  764.40    9.10   1
   4   2   2  798.49    8.01   1
  -4   2  -3  279.47    5.54   1
   4   2   3  276.00    4.29   1
  -4   2  -4    7.43    1.45   1
   4   2   4    8.16    1.05   1
  -4   2  -5  243.23    5.71   1
   4   2   5  245.76    4.05   1
  -4   2  -6    0.30    1.14   1
   4   2   6    0.79    0.78   1
  -4   2  -7   12.16    1.96   1
  -4   2  -8    3.66    1.77   1
  -4   2  -9   62.87    4.01   1
  -4   2 -10   20.02    2.59   1
   4   3 -12    0.56    2.06   1
   4   3 -11    0.81    1.86   1
   4   3 -10    0.02    1.77   1
   4   3  -9   97.71    5.09   1
   4   3  -8   23.28    2.92   1
   4   3  -7  368.31    7.94   1
   4  -3  -6   81.00    3.00   1
   4   3  -6   82.13    4.10   1
   4  -3  -5    2.97    1.12   1
   4   3  -5    2.91    1.51   1
   4  -3  -4  412.66    5.95   1
   4   3  -4  407.58    7.51   1
  -4   3   3   23.47    2.29   1
   4   3  -3   22.62    2.25   1
  -4   3   2  524.41    7.07   1
   4   3  -2  521.68    7.79   1
  -4   3   1  141.44    3.85   1
   4   3  -1  140.88    4.01   1
  -4   3   0  377.94    6.37   1
   4   3   0  381.94    6.19   1
  -4   3  -1 1277.47   13.09   1
   4   3   1 1297.52   12.06   1
  -4   3  -2    0.72    1.11   1
   4   3   2    0.42    0.79   1
  -4   3  -3  467.61    7.95   1
   4   3   3  467.21    6.06   1
  -4   3  -4  857.90   11.35   1
   4   3   4  870.35    8.32   1
  -4   3  -5   71.39    3.82   1
  -4   3  -6   24.51    2.89   1
  -4   3  -7    0.17    1.59   1
  -4   3  -8   -0.30    1.74   1
  -4   3  -9    0.14    1.94   1
  -4   3 -10    3.90    2.12   1
  -4   3 -11    3.64    2.14   1
   4   4 -12   31.54    3.91   1
   4   4 -11    1.13    2.13   1
   4   4 -10    4.83    2.25   1
   4   4  -9    3.65    2.18   1
   4   4  -8    2.47    2.13   1
   4   4  -7    8.86    2.22   1
   4   4  -6  143.55    5.65   1
   4   4  -5  600.50   10.27   1
   4  -4  -4  116.25    3.86   1
   4   4  -4  107.09    4.62   1
  -4   4   3  185.64    4.40   1
   4   4  -3  185.26    5.45   1
  -4   4   2  136.01    3.92   1
   4   4  -2  140.66    4.56   1
  -4   4   1    2.99    1.33   1
   4   4  -1    1.39    1.26   1
  -4   4   0  108.38    4.01   1
   4   4   0  106.60    3.79   1
  -4   4  -1    8.55    1.67   1
   4   4   1    7.72    1.39   1
  -4   4  -2   59.63    3.54   1
   4   4   2   59.42    2.67   1
  -4   4  -3  494.63    8.85   1
   4   4   3  498.77    6.76   1
  -4   4  -4  812.46   11.92   1
  -4   4  -5  555.99   10.17   1
  -4   4  -6    5.58    1.96   1
  -4   4  -7    5.16    2.03   1
  -4   4  -8    1.87    1.98   1
  -4   4  -9   16.91    2.88   1
  -4   4 -10   19.17    3.10   1
  -4   4 -11   -1.02    2.13   1
   4   5 -10   -1.49    2.02   1
   4   5  -9    3.11    2.28   1
   4   5  -8   -1.91    1.78   1
   4   5  -7   15.12    2.77   1
   4   5  -6   30.42    3.58   1
   4   5  -5    3.28    1.99   1
  -4   5   4   62.23    3.15   1
   4   5  -4   60.80    4.07   1
  -4   5   3  279.82    5.82   1
   4   5  -3  282.76    7.20   1
  -4   5   2    0.18    1.14   1
   4   5  -2   -0.45    1.30   1
  -4   5   1   18.18    2.03   1
   4   5  -1   18.54    2.17   1
  -4   5   0   19.47    2.16   1
   4   5   0   20.39    2.37   1
  -4   5  -1   15.52    2.08   1
   4   5   1   15.92    1.86   1
  -4   5  -2    0.39    1.61   1
   4   5   2    2.10    1.20   1
  -4   5  -3   74.47    4.46   1
  -4   5  -4   16.69    2.56   1
  -4   5  -5    1.34    1.83   1
  -4   5  -6    4.15    2.08   1
  -4   5  -7   14.67    2.78   1
  -4   5  -8    0.50    1.97   1
  -4   5  -9   23.13    3.33   1
   4   6  -9   -2.87    2.25   1
   4   6  -8   22.04    3.52   1
   4   6  -7   24.39    3.64   1
   4   6  -6   10.54    2.64   1
   4   6  -5   12.62    2.65   1
   4   6  -4   42.16    3.84   1
  -4   6   3    2.71    1.44   1
   4   6  -3    2.24    1.81   1
  -4   6   2   11.59    2.00   1
   4   6  -2   14.35    2.39   1
  -4   6   1   57.10    3.53   1
   4   6  -1   58.43    3.72   1
  -4   6   0    2.44    1.68   1
   4   6   0    2.50    1.53   1
  -4   6  -1    1.18    1.64   1
   4   6   1    1.97    1.46   1
  -4   6  -2   31.55    3.39   1
  -4   6  -3    0.43    1.83   1
  -4   6  -4    0.14    1.94   1
  -4   6  -5    0.16    1.94   1
  -4   6  -6   17.09    2.99   1
  -4   6  -7   -1.05    2.10   1
  -4   6  -8   48.56    4.73   1
   4   7  -7   15.59    3.42   1
   4   7  -6    9.60    2.79   1
   4   7  -5   -0.22    2.02   1
   4   7  -4    3.61    2.26   1
   4   7  -3   -1.42    1.80   1
  -4   7   2    8.48    2.05   1
   4   7  -2   10.80    2.40   1
  -4   7   1    2.43    1.80   1
   4   7  -1    4.61    1.99   1
  -4   7   0   14.28    2.57   1
   4   7   0   13.11    2.50   1
  -4   7  -1    1.59    1.99   1
  -4   7  -2    4.15    2.21   1
  -4   7  -3   23.49    3.25   1
  -4   7  -4    7.67    2.69   1
  -4   7  -5   -2.53    2.15   1
  -4   7  -6   -1.63    2.37   1
   4   8  -2    4.56    2.43   1
  -4   8   0    2.76    2.13   1
  -4   8  -1   -0.46    2.15   1
   5   0 -10    0.40    1.30   1
   5   0  -9    3.12    1.41   1
   5   0  -8   -1.14    1.06   1
   5   0  -7   42.12    2.69   1
   5   0  -6   -0.82    0.81   1
   5   0  -5  698.52    8.80   1
   5   0  -4   -0.30    0.89   1
   5   0  -3 2676.92   20.13   1
   5   0  -2    0.77    0.78   1
   5   0  -1    8.84    1.17   1
   5   0   0   -0.64    0.78   1
   5   0   1 1560.22   13.26   1
   5   0   2    0.24    0.82   1
  -5   0  -3    5.38    1.16   1
  -5   0  -4    0.31    0.89   1
  -5   0  -5  468.40    6.93   1
  -5   0  -6    0.23    1.08   1
  -5   0  -7   59.71    3.03   1
   5   1 -11    0.63    1.60   1
   5   1 -10   10.65    2.09   1
   5   1  -9  101.93    4.44   1
   5  -1  -8  243.91    5.47   1
   5   1  -8  248.68    6.16   1
   5  -1  -7    0.32    1.03   1
   5   1  -7    0.36    1.08   1
   5  -1  -6   36.48    2.34   1
   5   1  -6   40.66    2.70   1
   5  -1  -5   41.17    2.42   1
   5   1  -5   41.60    2.68   1
   5  -1  -4  166.13    4.14   1
   5   1  -4  174.31    4.54   1
   5  -1  -3  403.19    6.00   1
   5   1  -3  393.52    6.31   1
   5  -1  -2   21.65    2.03   1
   5   1  -2   24.45    2.03   1
   5  -1  -1  613.13    7.61   1
   5   1  -1  623.41    7.68   1
   5  -1   0 1141.50   11.04   1
   5   1   0 1141.67   10.84   1
  -5   1  -1    3.00    1.09   1
   5   1   1    5.93    1.12   1
  -5   1  -2 1091.75   11.25   1
   5   1   2 1108.48   10.45   1
  -5   1  -3   32.45    2.34   1
   5   1   3   33.67    2.36   1
  -5   1  -4  195.20    4.71   1
   5   1   4  198.15    4.18   1
  -5   1  -5    4.26    1.33   1
   5   1   5    4.54    1.15   1
  -5   1  -6   84.51    3.55   1
   5   1   6   85.15    3.27   1
  -5   1  -7    7.73    1.66   1
   5   1   7    5.13    1.42   1
  -5   1  -8   22.67    2.62   1
  -5   1  -9   11.22    2.05   1
   5   2 -12    8.70    2.40   1
   5   2 -11   42.73    3.81   1
   5   2 -10   19.46    2.64   1
   5   2  -9   11.20    2.28   1
   5   2  -8  394.98    8.45   1
   5  -2  -7   29.54    2.42   1
   5   2  -7   32.09    3.08   1
   5  -2  -6  264.21    5.27   1
   5   2  -6  252.02    6.13   1
   5  -2  -5   -0.11    0.95   1
   5   2  -5    0.27    1.10   1
   5  -2  -4   14.63    1.54   1
   5   2  -4   14.09    1.72   1
   5  -2  -3  202.30    4.40   1
   5   2  -3  204.18    4.92   1
   5  -2  -2    9.65    1.36   1
  -5   2   1  275.54    5.30   1
   5   2  -1  277.26    5.20   1
  -5   2   0  145.61    4.15   1
   5   2   0  150.54    3.90   1
  -5   2  -1    3.09    1.16   1
   5   2   1    3.85    1.07   1
  -5   2  -2    2.48    1.24   1
   5   2   2    1.65    1.05   1
  -5   2  -3  160.95    4.63   1
   5   2   3  174.41    4.02   1
  -5   2  -4  355.31    6.88   1
   5   2   4  364.05    5.54   1
  -5   2  -5   38.82    2.88   1
   5   2   5   37.51    2.54   1
  -5   2  -6   11.22    1.89   1
   5   2   6   12.60    1.42   1
  -5   2  -7    6.90    1.87   1
  -5   2  -8    1.44    1.67   1
  -5   2  -9   -0.14    1.71   1
  -5   2 -10   24.25    2.86   1
   5   3 -12   -1.27    1.96   1
   5   3 -11   -1.89    1.81   1
   5   3 -10   12.81    2.62   1
   5   3  -9   45.53    3.87   1
   5   3  -8  218.45    6.90   1
   5   3  -7  245.66    7.08   1
   5  -3  -6   -0.01    1.19   1
   5   3  -6    0.84    1.61   1
   5  -3  -5  507.63    7.49   1
   5   3  -5  506.10    9.25   1
   5  -3  -4  668.99    8.38   1
   5   3  -4  672.07   10.13   1
   5  -3  -3   19.29    2.31   1
   5   3  -3   16.86    1.93   1
  -5   3   2   36.06    2.55   1
   5   3  -2   35.23    2.55   1
  -5   3   1   80.70    3.29   1
   5   3  -1   78.47    3.38   1
  -5   3   0  674.39    9.06   1
   5   3   0  698.04    9.07   1
  -5   3  -1  969.00   11.51   1
   5   3   1  982.13   10.58   1
  -5   3  -2  230.30    5.67   1
   5   3   2  232.05    4.74   1
   5   3   3  245.54    4.63   1
  -5   3  -4  327.99    7.15   1
   5   3   4  320.85    5.30   1
  -5   3  -5  287.69    6.96   1
  -5   3  -6  271.85    7.03   1
  -5   3  -7   10.46    2.21   1
  -5   3  -8   12.03    2.40   1
  -5   3  -9    6.46    2.21   1
  -5   3 -10    8.10    2.40   1
  -5   3 -11   -1.57    1.97   1
   5   4 -11    3.52    2.32   1
   5   4 -10    1.85    2.17   1
   5   4  -9   11.94    2.79   1
   5   4  -8   22.35    3.11   1
   5   4  -7   19.37    2.81   1
   5   4  -6   73.17    4.44   1
   5  -4  -5  335.57    6.27   1
   5   4  -5  343.97    8.15   1
   5  -4  -4   20.34    2.04   1
   5   4  -4   17.10    2.47   1
  -5   4   3   57.40    3.08   1
   5   4  -3   59.87    3.57   1
  -5   4   2  103.78    3.77   1
   5   4  -2  103.60    4.14   1
  -5   4   1    1.37    1.27   1
   5   4  -1   -0.42    1.12   1
  -5   4   0    1.15    1.28   1
   5   4   0    0.69    1.19   1
  -5   4  -1  438.81    8.08   1
   5   4   1  446.06    7.41   1
  -5   4  -2  241.27    6.44   1
   5   4   2  246.09    5.35   1
  -5   4  -3   11.91    2.21   1
   5   4   3   13.71    1.60   1
  -5   4  -4  168.39    5.86   1
  -5   4  -5  193.76    6.06   1
  -5   4  -6   34.64    3.44   1
  -5   4  -7   -0.27    1.70   1
  -5   4  -8   16.93    2.77   1
  -5   4  -9    4.32    2.31   1
  -5   4 -10    2.25    2.32   1
   5   5 -10    4.14    2.66   1
   5   5  -9    0.12    2.30   1
   5   5  -8   -1.93    2.11   1
   5   5  -7   -0.35    1.79   1
   5   5  -6    9.97    2.52   1
   5   5  -5   97.10    5.04   1
   5   5  -4   65.29    4.20   1
  -5   5   3   61.94    3.21   1
   5   5  -3   62.51    3.98   1
  -5   5   2    0.45    1.23   1
   5   5  -2    0.15    1.47   1
  -5   5   1   25.04    2.67   1
   5   5  -1   22.24    2.47   1
  -5   5   0   94.35    4.25   1
   5   5   0   92.61    4.13   1
  -5   5  -1   21.70    2.54   1
   5   5   1   22.44    2.53   1
  -5   5  -2    7.67    1.98   1
   5   5   2    6.85    1.56   1
  -5   5  -3    1.45    1.72   1
  -5   5  -4   26.61    3.15   1
  -5   5  -5   65.16    4.38   1
  -5   5  -6    1.60    1.95   1
  -5   5  -7    0.66    1.97   1
  -5   5  -8    0.47    2.07   1
  -5   5  -9   30.58    3.77   1
   5   6  -9    6.08    2.84   1
   5   6  -8   17.77    3.39   1
   5   6  -7    2.05    2.39   1
   5   6  -6    2.80    2.24   1
   5   6  -5   11.86    2.60   1
   5   6  -4   13.40    2.77   1
  -5   6   3    0.89    1.53   1
   5   6  -3    1.71    1.82   1
  -5   6   2   44.91    3.40   1
   5   6  -2   46.22    3.74   1
  -5   6   1   -0.06    1.52   1
   5   6  -1    0.51    1.57   1
  -5   6   0    4.54    1.98   1
   5   6   0    4.51    1.76   1
  -5   6  -1   37.19    3.41   1
   5   6   1   37.69    3.16   1
  -5   6  -2    0.71    1.75   1
  -5   6  -3    0.10    1.81   1
  -5   6  -4   15.24    2.79   1
  -5   6  -5   64.74    4.67   1
  -5   6  -6    2.28    2.29   1
  -5   6  -7    1.96    2.45   1
   5   7  -6    1.70    2.73   1
   5   7  -5    4.86    2.72   1
   5   7  -4    0.39    2.04   1
   5   7  -3   11.58    2.73   1
  -5   7   2    0.81    1.85   1
   5   7  -2    0.29    1.78   1
  -5   7   1   19.64    2.72   1
   5   7  -1   20.24    2.88   1
  -5   7   0   -0.11    1.95   1
   5   7   0    1.02    1.70   1
  -5   7  -1    0.74    1.91   1
  -5   7  -2    6.45    2.43   1
  -5   7  -3   18.95    3.12   1
  -5   7  -4    0.49    2.25   1
  -5   7  -5    0.23    2.39   1
   6   0 -10   32.62    3.19   1
   6   0  -9   -1.62    1.34   1
   6   0  -8    5.76    1.63   1
   6   0  -7    0.72    1.10   1
   6   0  -6   43.27    2.71   1
   6   0  -5   -0.46    0.95   1
   6   0  -4  499.63    7.73   1
   6   0  -3   -0.41    0.98   1
   6   0  -2   34.07    2.47   1
   6   0  -1   -0.43    0.85   1
   6   0   0  804.23    9.34   1
   6   0   1   -0.23    0.93   1
   6   0   2   53.62    2.70   1
   6   0   3    0.28    0.95   1
   6   0   4   13.04    1.70   1
  -6   0  -5    0.75    1.12   1
  -6   0  -6   57.42    3.10   1
  -6   0  -7    0.37    1.20   1
   6   1 -11   10.71    2.32   1
   6   1 -10    4.79    1.85   1
   6  -1  -9   12.07    1.90   1
   6   1  -9   12.04    2.16   1
   6  -1  -8   64.17    3.31   1
   6   1  -8   62.10    3.65   1
   6  -1  -7   32.27    2.65   1
   6   1  -7   32.58    2.80   1
   6  -1  -6    3.17    1.27   1
   6   1  -6    5.02    1.39   1
   6  -1  -5    9.70    1.48   1
   6  -1  -4  714.82    9.20   1
   6   1  -4  706.70    9.59   1
   6  -1  -3  189.94    4.59   1
   6   1  -3  192.83    4.77   1
   6  -1  -2  341.07    6.08   1
   6   1  -2  356.10    6.31   1
   6  -1  -1   14.13    1.55   1
   6   1  -1   15.63    1.64   1
   6  -1   0 1315.65   13.11   1
   6   1   0 1312.48   12.88   1
   6  -1   1  521.20    7.62   1
   6   1   1  520.55    7.35   1
  -6   1  -2  201.63    4.83   1
   6   1   2  206.01    4.61   1
  -6   1  -3    0.45    1.07   1
   6   1   3    0.38    0.92   1
  -6   1  -4    0.34    1.23   1
   6   1   4    0.36    1.04   1
  -6   1  -5   72.27    3.47   1
   6   1   5   75.10    3.29   1
  -6   1  -6    0.72    1.26   1
   6   1   6   -0.24    1.12   1
  -6   1  -7    2.07    1.45   1
   6   1   7    0.85    1.27   1
  -6   1  -8   36.50    3.14   1
   6   2 -12    1.55    2.09   1
   6   2 -11    5.39    2.16   1
   6   2 -10    3.24    1.96   1
   6   2  -9  118.58    5.25   1
   6   2  -8   33.47    3.27   1
   6  -2  -7  241.49    5.52   1
   6   2  -7  250.42    6.69   1
   6  -2  -6   10.46    1.66   1
   6   2  -6   10.44    1.93   1
   6  -2  -5  187.28    4.93   1
   6   2  -5  186.94    5.51   1
   6  -2  -4  505.21    7.69   1
   6   2  -4  510.40    8.55   1
   6  -2  -3 1085.88   11.59   1
   6   2  -3 1109.69   12.64   1
   6  -2  -2   42.37    2.74   1
   6   2  -2   42.39    2.81   1
   6  -2  -1  362.79    6.43   1
   6   2  -1  368.52    6.54   1
  -6   2   0   16.25    1.76   1
   6   2   0   14.79    1.65   1
  -6   2  -1   66.66    3.27   1
   6   2   1   67.09    3.00   1
  -6   2  -2   21.64    2.58   1
   6   2   2   22.98    2.32   1
  -6   2  -3  171.09    5.08   1
   6   2   3  189.55    4.52   1
  -6   2  -4  295.81    6.79   1
   6   2   4  305.93    5.72   1
  -6   2  -5  633.83    9.88   1
   6   2   5  658.61    8.30   1
  -6   2  -6   90.20    4.23   1
   6   2   6   90.37    3.53   1
  -6   2  -7    2.93    1.72   1
  -6   2  -8   -0.71    1.49   1
  -6   2  -9   -1.38    1.63   1
   6   3 -12    3.17    2.71   1
   6   3 -11    2.64    2.17   1
   6   3 -10   -0.58    1.86   1
   6   3  -9   75.93    4.67   1
   6   3  -8  395.95    9.37   1
   6  -3  -6  134.46    4.72   1
   6   3  -6  131.98    5.32   1
   6  -3  -5  454.39    7.65   1
   6   3  -5  441.58    8.92   1
   6  -3  -4  791.84   10.06   1
   6   3  -4  795.89   11.76   1
   6  -3  -3    8.71    1.60   1
   6   3  -3    9.88    1.83   1
   6  -3  -2    3.31    1.47   1
   6   3  -2    5.62    1.44   1
  -6   3   1   -0.33    1.11   1
   6   3  -1    1.42    1.19   1
  -6   3   0  493.29    8.16   1
   6   3   0  510.88    7.95   1
  -6   3  -1    9.08    1.92   1
   6   3   1   11.63    1.61   1
  -6   3  -2  285.42    6.69   1
   6   3   2  287.36    5.72   1
  -6   3  -3  133.13    4.98   1
   6   3   3  130.55    4.16   1
  -6   3  -4  146.24    5.35   1
   6   3   4  148.51    4.13   1
  -6   3  -6   14.28    2.41   1
  -6   3  -7    3.59    1.89   1
  -6   3  -8    1.15    1.90   1
  -6   3  -9    4.05    2.15   1
  -6   3 -10   -0.80    2.00   1
   6   4 -11    1.94    2.44   1
   6   4 -10    1.53    2.25   1
   6   4  -9   43.13    4.25   1
   6   4  -8  124.68    5.83   1
   6   4  -7   42.40    4.07   1
   6   4  -6    1.24    1.93   1
   6  -4  -5   35.78    3.35   1
   6   4  -5   35.13    3.58   1
   6  -4  -4  105.49    4.29   1
   6   4  -4  100.22    4.72   1
   6  -4  -3  103.63    4.31   1
   6   4  -3  101.21    4.44   1
  -6   4   2   62.54    3.37   1
   6   4  -2   64.20    3.73   1
  -6   4   1   14.00    1.99   1
   6   4  -1   12.53    1.67   1
  -6   4   0   80.08    3.91   1
   6   4   0   77.17    3.82   1
  -6   4  -1  393.38    7.95   1
   6   4   1  417.65    7.49   1
  -6   4  -2  146.94    5.34   1
   6   4   2  155.93    4.61   1
  -6   4  -3   -1.43    1.58   1
   6   4   3   -0.14    1.10   1
  -6   4  -4  128.19    5.28   1
  -6   4  -5    2.09    1.85   1
  -6   4  -6   17.08    2.73   1
  -6   4  -7    6.00    2.27   1
  -6   4  -8   16.00    2.98   1
  -6   4  -9   12.81    3.01   1
   6   5 -10    6.99    2.81   1
   6   5  -9    1.17    2.39   1
   6   5  -8   -2.06    2.05   1
   6   5  -7   27.33    3.50   1
   6   5  -6    1.09    1.94   1
   6   5  -5   12.22    2.62   1
   6  -5  -4   13.21    2.05   1
   6   5  -4   14.86    2.55   1
  -6   5   3    0.07    1.39   1
   6   5  -3    1.09    1.61   1
  -6   5   2    1.34    1.46   1
   6   5  -2    2.65    1.67   1
  -6   5   1   95.51    4.37   1
   6   5  -1   97.46    4.60   1
  -6   5   0    6.08    1.90   1
   6   5   0    5.42    1.87   1
  -6   5  -1   10.78    2.18   1
   6   5   1   11.36    2.02   1
  -6   5  -2    5.53    2.11   1
   6   5   2    5.33    1.71   1
  -6   5  -3   35.00    3.51   1
  -6   5  -4   20.93    2.91   1
  -6   5  -5   13.01    2.73   1
  -6   5  -6   14.47    2.83   1
  -6   5  -7    2.65    2.22   1
  -6   5  -8    1.27    2.41   1
   6   6  -8    4.02    2.75   1
   6   6  -7   -0.12    2.32   1
   6   6  -6   -1.16    2.07   1
   6   6  -5   13.52    2.83   1
   6   6  -4   28.37    3.36   1
  -6   6   3    4.48    1.73   1
   6   6  -3    2.83    1.95   1
  -6   6   2   15.35    2.40   1
   6   6  -2   15.87    2.61   1
  -6   6   1    1.04    1.81   1
   6   6  -1    0.13    1.61   1
  -6   6   0   28.32    3.32   1
   6   6   0   32.40    3.22   1
  -6   6  -1   11.72    2.48   1
   6   6   1   10.39    2.12   1
  -6   6  -2    0.33    1.88   1
  -6   6  -3   22.65    3.11   1
  -6   6  -4   33.17    3.99   1
  -6   6  -5   -0.91    2.15   1
  -6   6  -6    1.09    2.33   1
   6   7  -5    9.62    3.01   1
   6   7  -4   16.24    3.21   1
   6   7  -3   21.09    3.27   1
  -6   7   2    1.54    1.95   1
   6   7  -2    3.41    2.07   1
  -6   7   1    1.24    1.91   1
   6   7  -1    2.87    1.98   1
  -6   7   0    1.89    2.20   1
  -6   7  -1    1.06    2.11   1
  -6   7  -2    6.68    2.78   1
  -6   7  -3    9.40    2.80   1
  -6   7  -4   -1.37    2.28   1
   7   0 -10   -1.74    1.42   1
   7   0  -9   36.88    3.30   1
   7   0  -8    0.74    1.39   1
   7   0  -7  199.73    5.69   1
   7   0  -6   -0.66    1.11   1
   7   0  -5    3.15    1.37   1
   7   0  -4    0.05    1.12   1
   7   0  -3  156.61    4.53   1
   7   0  -2   -0.13    1.02   1
   7   0  -1  410.24    7.01   1
   7   0   0   -0.20    1.06   1
   7   0   1  630.95    8.89   1
   7   0   2   -0.03    1.08   1
   7   0   3  154.82    4.47   1
   7   0   4    0.09    1.20   1
   7   0   5  114.42    4.25   1
   7   0   6   -1.68    1.29   1
   7   0   7   -2.11    1.46   1
   7   1 -11   12.48    2.44   1
   7   1 -10   29.64    3.34   1
   7  -1  -9   29.92    2.91   1
   7   1  -9   28.95    3.10   1
   7  -1  -8   34.65    2.93   1
   7   1  -8   34.29    3.21   1
   7  -1  -7    6.57    1.61   1
   7   1  -7    6.61    1.82   1
   7  -1  -6   42.07    3.00   1
   7   1  -6   43.59    3.15   1
   7  -1  -5   21.64    2.21   1
   7   1  -5   21.54    2.54   1
   7  -1  -4  380.89    7.03   1
   7   1  -4  391.76    7.42   1
   7  -1  -3   21.10    2.13   1
   7   1  -3   21.92    2.47   1
   7  -1  -2   36.92    2.78   1
   7   1  -2   36.01    2.89   1
   7  -1  -1   97.30    3.79   1
   7   1  -1   98.79    3.79   1
   7  -1   0    7.32    1.56   1
   7   1   0    0.80    1.26   1
   7  -1   1  119.65    4.04   1
   7   1   1  118.88    4.06   1
   7  -1   2   -0.81    1.08   1
   7   1   2    0.39    1.11   1
  -7   1  -3   -1.16    1.10   1
   7   1   3    0.64    1.15   1
  -7   1  -4   12.43    1.95   1
   7   1   4   13.93    1.83   1
  -7   1  -5  119.55    4.49   1
   7   1   5  131.43    4.54   1
  -7   1  -6  100.68    4.26   1
   7   1   6  100.74    4.14   1
  -7   1  -7   12.14    2.09   1
   7   1   7   10.77    1.83   1
  -7   1  -8    2.90    1.73   1
   7   2 -12    1.43    2.17   1
   7   2 -11   14.56    2.75   1
   7   2 -10    3.71    2.04   1
   7   2  -9    0.74    1.66   1
   7  -2  -8    6.92    1.65   1
   7   2  -8    7.43    2.01   1
   7  -2  -7   64.29    3.59   1
   7   2  -7   67.04    4.10   1
   7  -2  -6   34.14    3.01   1
   7   2  -6   31.35    3.17   1
   7  -2  -5    1.62    1.70   1
   7   2  -5    5.30    1.81   1
   7  -2  -4  762.75   10.09   1
   7   2  -4  752.45   10.93   1
   7  -2  -3   16.72    2.04   1
   7   2  -3   17.10    2.15   1
   7  -2  -2   32.91    2.89   1
   7   2  -2   29.84    2.65   1
   7  -2  -1   18.11    2.03   1
   7   2  -1   19.97    2.20   1
   7  -2   0  103.83    4.02   1
   7   2   0  108.58    3.96   1
  -7   2  -1    5.84    1.56   1
   7   2   1    7.48    1.60   1
  -7   2  -2  202.15    5.52   1
   7   2   2  216.42    5.27   1
  -7   2  -3   24.86    3.07   1
   7   2   3   39.36    2.65   1
  -7   2  -4  473.51    8.85   1
   7   2   4  484.04    7.79   1
  -7   2  -5   21.47    2.67   1
   7   2   5   21.68    2.25   1
  -7   2  -6  115.91    4.82   1
  -7   2  -7    0.08    1.62   1
  -7   2  -8    6.86    2.12   1
  -7   2  -9   -1.22    1.74   1
   7   3 -11   11.84    2.77   1
   7   3 -10    0.85    2.04   1
   7   3  -9   15.92    2.82   1
   7   3  -8   53.27    4.08   1
   7   3  -7   68.45    4.41   1
   7  -3  -6   25.16    2.45   1
   7   3  -6   22.24    2.84   1
   7  -3  -5  194.18    5.55   1
   7   3  -5  192.48    6.41   1
   7  -3  -4  464.29    8.05   1
   7   3  -4  463.54    9.12   1
   7  -3  -3   44.75    3.42   1
   7   3  -3   42.76    3.59   1
   7  -3  -2  212.92    5.85   1
   7   3  -2  217.16    5.93   1
  -7   3   1   15.55    2.22   1
   7   3  -1   16.05    1.97   1
  -7   3   0   73.86    3.72   1
   7   3   0   80.04    3.54   1
  -7   3  -1   37.41    3.23   1
   7   3   1   39.25    2.96   1
  -7   3  -2    3.59    1.71   1
   7   3   2    4.28    1.42   1
  -7   3  -3  128.02    4.93   1
   7   3   3  129.94    4.32   1
  -7   3  -4    0.34    1.67   1
   7   3   4   -0.30    1.17   1
  -7   3  -6   27.63    3.29   1
  -7   3  -7   24.33    2.94   1
  -7   3  -8   -0.96    1.89   1
  -7   3  -9   25.26    3.23   1
   7   4 -10    2.48    2.40   1
   7   4  -9   15.03    3.11   1
   7   4  -8   22.61    3.29   1
   7   4  -7   85.15    5.34   1
   7   4  -6   64.63    4.45   1
   7  -4  -5   10.18    1.96   1
   7   4  -5   12.34    2.57   1
   7  -4  -4    2.61    1.74   1
   7   4  -4    1.59    1.77   1
   7  -4  -3    0.89    1.54   1
   7   4  -3   -0.21    1.30   1
  -7   4   2    2.38    1.88   1
   7   4  -2    2.06    1.57   1
  -7   4   1   -1.86    1.40   1
   7   4  -1    0.31    1.33   1
  -7   4   0  111.49    4.81   1
   7   4   0  113.72    4.62   1
  -7   4  -1   55.62    3.93   1
   7   4   1   60.28    3.71   1
  -7   4  -2   35.79    3.41   1
   7   4   2   32.86    3.02   1
  -7   4  -3    3.63    1.92   1
   7   4   3    2.26    1.39   1
  -7   4  -4    0.17    1.68   1
  -7   4  -5   24.24    2.99   1
  -7   4  -6    8.37    2.38   1
  -7   4  -7    0.01    1.99   1
  -7   4  -8   15.64    3.04   1
  -7   4  -9    1.92    2.45   1
   7   5  -9   -0.02    2.44   1
   7   5  -8   83.07    5.71   1
   7   5  -7   21.29    3.33   1
   7   5  -6    3.79    2.38   1
   7   5  -5    0.12    1.83   1
   7  -5  -4    7.36    1.97   1
   7   5  -4    8.06    2.38   1
   7  -5  -3   24.92    2.75   1
   7   5  -3   26.23    3.11   1
  -7   5   2   17.80    2.33   1
   7   5  -2   21.25    2.70   1
  -7   5   1   26.04    3.11   1
   7   5  -1   26.36    3.24   1
  -7   5   0   54.74    3.92   1
   7   5   0   57.26    4.04   1
  -7   5  -1   36.30    3.71   1
   7   5   1   38.63    3.37   1
  -7   5  -2   99.69    5.10   1
   7   5   2   97.49    4.41   1
  -7   5  -3   15.17    2.62   1
  -7   5  -4   11.41    2.62   1
  -7   5  -5    8.70    2.66   1
  -7   5  -6    1.55    2.24   1
  -7   5  -7    0.66    2.20   1
   7   6  -7    4.69    2.73   1
   7   6  -6   -2.23    2.20   1
   7   6  -5    1.78    2.36   1
   7   6  -4   57.71    4.65   1
  -7   6   3   10.14    2.30   1
   7   6  -3    9.12    2.44   1
  -7   6   2    3.68    1.94   1
   7   6  -2    8.91    2.34   1
  -7   6   1   10.28    2.42   1
   7   6  -1   13.11    2.49   1
  -7   6   0   14.41    2.47   1
   7   6   0   10.43    2.41   1
  -7   6  -1   16.76    2.78   1
  -7   6  -2    2.70    2.14   1
  -7   6  -3   14.84    2.89   1
  -7   6  -4   15.36    3.08   1
  -7   6  -5   -0.40    2.43   1
   7   7  -4   11.28    3.04   1
   7   7  -3    2.51    2.42   1
  -7   7   2    1.80    2.02   1
   7   7  -2    2.12    2.24   1
  -7   7   1    7.74    2.43   1
   7   7  -1    8.54    2.49   1
  -7   7   0   -1.02    1.92   1
  -7   7  -1   -0.10    2.17   1
  -7   7  -2    0.08    2.31   1
   8   0 -10   13.12    2.41   1
   8   0  -9    0.29    1.71   1
   8   0  -8  152.05    5.37   1
   8   0  -7   -0.49    1.37   1
   8   0  -6    6.58    1.72   1
   8   0  -5   -1.22    1.26   1
   8   0  -4   29.60    3.07   1
   8   0  -3    0.00    1.22   1
   8   0  -2   77.45    3.66   1
   8   0  -1   -0.70    1.20   1
   8   0   0  117.37    4.38   1
   8   0   1   -0.67    1.32   1
   8   0   2  419.33    7.69   1
   8   0   3   -0.40    1.30   1
   8   0   4  187.26    5.57   1
   8   0   5   -0.02    1.45   1
   8   0   6   94.92    4.54   1
   8   0   7   -0.09    1.58   1
   8   0   8   26.11    2.75   1
   8   1 -11    0.63    1.91   1
   8   1 -10   10.32    2.42   1
   8  -1  -9   18.65    2.42   1
   8   1  -9   16.71    2.64   1
   8  -1  -8   46.73    3.35   1
   8   1  -8   50.45    3.82   1
   8  -1  -7   -0.46    1.35   1
   8   1  -7    0.02    1.42   1
   8  -1  -6   19.32    2.26   1
   8   1  -6   18.53    2.34   1
   8  -1  -5  226.47    6.11   1
   8   1  -5  219.35    6.17   1
   8  -1  -4   10.22    2.03   1
   8   1  -4   12.37    2.07   1
   8  -1  -3  352.30    7.19   1
   8   1  -3  369.27    7.54   1
   8  -1  -2    3.42    1.53   1
   8   1  -2    3.66    1.53   1
   8  -1  -1   71.79    3.66   1
   8   1  -1   72.37    3.69   1
   8  -1   0  297.15    6.51   1
   8   1   0  293.82    6.56   1
   8  -1   1    6.48    1.69   1
   8   1   1    3.76    1.55   1
   8  -1   2    8.05    1.77   1
   8   1   2    9.18    1.82   1
   8  -1   3   35.44    3.24   1
   8   1   3   32.47    3.12   1
   8  -1   4    3.97    1.74   1
   8   1   4    1.85    1.48   1
  -8   1  -5  180.07    5.81   1
   8   1   5  183.72    5.44   1
  -8   1  -6   76.67    4.13   1
   8   1   6   83.72    4.21   1
  -8   1  -7   22.02    2.63   1
  -8   1  -8    3.86    1.94   1
   8   2 -11   37.57    4.09   1
   8   2 -10    0.02    1.86   1
   8   2  -9    1.86    1.87   1
   8  -2  -8    3.30    1.51   1
   8   2  -8    3.72    1.94   1
   8  -2  -7   24.19    2.82   1
   8   2  -7   21.61    2.74   1
   8  -2  -6   64.99    3.81   1
   8   2  -6   63.59    4.13   1
   8  -2  -5    4.94    1.90   1
   8   2  -5    4.88    1.91   1
   8  -2  -4  316.74    7.16   1
   8   2  -4  315.54    7.55   1
   8  -2  -3  953.24   12.28   1
   8   2  -3  961.77   13.01   1
   8  -2  -2   44.84    3.46   1
   8   2  -2   44.95    3.29   1
   8  -2  -1    2.22    1.56   1
   8   2  -1    1.69    1.36   1
   8  -2   0  114.14    4.40   1
   8   2   0  111.84    4.33   1
   8  -2   1  171.59    5.39   1
   8   2   1  180.11    5.39   1
  -8   2  -2    6.68    1.86   1
   8   2   2    8.32    1.72   1
  -8   2  -3   -1.79    1.43   1
   8   2   3   -1.09    1.22   1
  -8   2  -4   97.51    4.56   1
   8   2   4  107.50    4.58   1
  -8   2  -5    4.69    1.97   1
   8   2   5    7.05    1.84   1
  -8   2  -6   65.40    4.12   1
  -8   2  -7    2.40    1.88   1
  -8   2  -8    0.60    1.93   1
  -8   2  -9    6.61    2.34   1
   8   3 -11    3.05    2.35   1
   8   3 -10    0.77    2.16   1
   8   3  -9   -0.27    1.97   1
   8   3  -8   33.48    3.71   1
   8  -3  -7   13.85    2.23   1
   8   3  -7   15.47    2.72   1
   8  -3  -6   50.72    4.01   1
   8   3  -6   53.00    4.01   1
   8  -3  -5   42.40    3.70   1
   8   3  -5   42.85    3.89   1
   8  -3  -4    0.23    1.65   1
   8   3  -4   -0.45    1.67   1
   8  -3  -3   61.75    3.80   1
   8   3  -3   61.01    4.33   1
   8  -3  -2   14.81    2.31   1
   8   3  -2   14.48    2.24   1
   8  -3  -1   55.73    3.81   1
   8   3  -1   64.86    3.77   1
  -8   3   0   10.27    2.46   1
   8   3   0   13.74    2.03   1
  -8   3  -1   23.63    2.91   1
   8   3   1   26.82    2.88   1
  -8   3  -2   24.26    2.96   1
   8   3   2   22.05    2.31   1
  -8   3  -3    8.95    2.20   1
   8   3   3   10.27    1.81   1
  -8   3  -4    2.37    1.95   1
   8   3   4    1.94    1.55   1
  -8   3  -5   30.54    3.54   1
  -8   3  -6   56.06    4.29   1
  -8   3  -7    5.15    2.18   1
  -8   3  -8    3.89    2.28   1
  -8   3  -9    7.60    2.57   1
   8   4 -10    9.09    2.77   1
   8   4  -9   41.92    4.65   1
   8   4  -8   44.66    4.57   1
   8   4  -7  153.39    6.53   1
   8   4  -6    1.77    2.03   1
   8  -4  -5   -0.04    1.65   1
   8   4  -5   -0.72    1.77   1
   8  -4  -4    0.84    1.57   1
   8   4  -4    0.74    1.49   1
   8  -4  -3    4.97    1.89   1
   8   4  -3    8.97    2.21   1
   8  -4  -2    0.51    1.59   1
   8   4  -2    1.54    1.66   1
  -8   4   1   14.44    2.44   1
   8   4  -1   17.63    2.44   1
  -8   4   0   69.14    4.33   1
   8   4   0   73.62    4.25   1
  -8   4  -1  141.04    5.54   1
   8   4   1  160.29    5.56   1
  -8   4  -2    2.40    1.93   1
   8   4   2    2.68    1.54   1
  -8   4  -3    0.14    1.80   1
   8   4   3    0.24    1.36   1
  -8   4  -4    0.75    1.75   1
  -8   4  -5    0.10    1.96   1
  -8   4  -6    2.09    1.99   1
  -8   4  -7    2.81    2.22   1
  -8   4  -8    1.56    2.35   1
   8   5  -8   34.65    4.28   1
   8   5  -7   57.63    5.23   1
   8   5  -6   36.65    4.46   1
   8   5  -5    2.58    2.31   1
   8  -5  -4    0.86    1.83   1
   8   5  -4    0.45    1.93   1
   8  -5  -3    0.50    1.71   1
   8   5  -3    0.45    1.74   1
   8   5  -2    0.01    1.60   1
  -8   5   1   -0.82    1.71   1
   8   5  -1   -0.09    1.62   1
  -8   5   0   60.86    4.21   1
   8   5   0   63.44    4.28   1
  -8   5  -1    9.28    2.41   1
   8   5   1    8.47    2.14   1
  -8   5  -2   45.78    4.18   1
  -8   5  -3    3.33    2.27   1
  -8   5  -4    9.42    2.49   1
  -8   5  -5   16.54    3.02   1
  -8   5  -6    0.63    2.24   1
   8   6  -6   25.45    3.80   1
   8   6  -5   16.51    3.25   1
   8   6  -4    2.31    2.37   1
   8  -6  -3    2.32    2.03   1
   8   6  -3    3.83    2.36   1
  -8   6   2    0.63    1.86   1
   8   6  -2    0.00    1.96   1
  -8   6   1   -0.47    1.79   1
   8   6  -1    0.19    1.79   1
  -8   6   0   -1.26    1.87   1
   8   6   0    1.24    1.92   1
  -8   6  -1    9.27    2.66   1
  -8   6  -2   16.86    2.93   1
  -8   6  -3    2.82    2.34   1
  -8   6  -4   13.77    3.11   1
   9   0 -10   -1.10    1.67   1
   9   0  -9   74.95    4.52   1
   9   0  -8   -0.41    1.56   1
   9   0  -7   43.46    3.61   1
   9   0  -6   -1.52    1.34   1
   9   0  -5   34.97    3.35   1
   9   0  -4    0.50    1.75   1
   9   0  -3  256.26    6.80   1
   9   0  -2   -1.03    1.50   1
   9   0  -1  111.97    4.57   1
   9   0   0    0.45    1.38   1
   9   0   1   -0.62    1.33   1
   9   0   2    0.15    1.44   1
   9   0   3   10.65    2.22   1
   9   0   4    0.74    1.65   1
   9   0   5   13.47    2.35   1
   9   0   6   -1.66    1.69   1
   9   0   7   23.53    2.85   1
   9   1 -11   -0.04    1.90   1
   9   1 -10   -0.11    1.79   1
   9  -1  -9    8.48    2.06   1
   9   1  -9    8.74    2.36   1
   9  -1  -8    4.82    1.96   1
   9   1  -8    4.70    2.10   1
   9  -1  -7   12.47    2.34   1
   9   1  -7   12.89    2.34   1
   9  -1  -6   16.31    2.37   1
   9   1  -6   14.24    2.52   1
   9  -1  -5  107.13    4.81   1
   9   1  -5  105.85    4.92   1
   9  -1  -4   21.90    2.66   1
   9   1  -4   19.15    2.64   1
   9  -1  -3  344.70    7.63   1
   9   1  -3  335.74    7.62   1
   9  -1  -2   27.51    3.07   1
   9   1  -2   27.83    3.35   1
   9  -1  -1   67.25    3.93   1
   9   1  -1   70.93    3.88   1
   9  -1   0   66.63    3.94   1
   9   1   0   68.84    3.87   1
   9  -1   1   40.70    3.46   1
   9   1   1   39.85    3.28   1
   9  -1   2    7.09    1.88   1
   9   1   2    9.01    1.94   1
   9  -1   3    2.59    1.68   1
   9   1   3    2.51    1.78   1
   9  -1   4    2.19    1.76   1
   9   1   4    0.01    1.61   1
   9  -1   5  286.73    7.42   1
   9   1   5  290.22    7.22   1
   9  -1   6    9.44    2.27   1
   9   1   6    8.62    2.06   1
   9  -1   7    6.34    2.29   1
   9  -1   8    0.52    2.00   1
   9   2 -11   -0.28    2.13   1
   9   2 -10    4.17    2.21   1
   9   2  -9    0.20    1.89   1
   9  -2  -8    2.80    1.69   1
   9   2  -8    3.31    2.01   1
   9  -2  -7    1.24    1.46   1
   9   2  -7   -0.56    1.78   1
   9  -2  -6    0.57    1.63   1
   9   2  -6    0.90    1.78   1
   9  -2  -5    8.98    2.18   1
   9   2  -5    7.79    2.22   1
   9  -2  -4  409.02    8.45   1
   9   2  -4  407.40    9.19   1
   9  -2  -3    2.97    1.83   1
   9   2  -3    1.20    1.71   1
   9  -2  -2   52.13    3.75   1
   9   2  -2   48.55    3.66   1
   9  -2  -1   12.04    2.13   1
   9   2  -1   12.35    2.13   1
   9  -2   0   21.53    2.54   1
   9   2   0   21.79    2.40   1
   9  -2   1   70.03    4.26   1
   9   2   1   70.19    4.02   1
   9  -2   2   -0.02    1.54   1
   9   2   2    0.17    1.42   1
   9  -2   3    1.96    1.82   1
   9   2   3    1.35    1.52   1
  -9   2  -4   35.42    3.59   1
   9   2   4   35.40    3.63   1
  -9   2  -5    3.25    1.93   1
   9   2   5    4.52    1.81   1
  -9   2  -6    7.51    2.22   1
  -9   2  -7    0.76    1.84   1
  -9   2  -8   13.37    2.69   1
   9   3 -10   -0.93    2.07   1
   9   3  -9   33.54    4.03   1
   9   3  -8    5.70    2.41   1
   9  -3  -7   -2.49    1.51   1
   9   3  -7   -0.63    1.96   1
   9  -3  -6   10.28    2.33   1
   9   3  -6   11.11    2.46   1
   9  -3  -5   23.24    2.77   1
   9   3  -5   19.35    2.87   1
   9  -3  -4   -0.22    1.66   1
   9   3  -4   -0.99    1.71   1
   9  -3  -3    0.91    1.71   1
   9   3  -3    0.36    1.54   1
   9  -3  -2   29.39    3.58   1
   9   3  -2   29.76    3.28   1
   9  -3  -1   -0.18    1.61   1
   9   3  -1   -0.78    1.52   1
   9  -3   0   -0.36    1.62   1
   9   3   0    0.31    1.49   1
   9  -3   1  164.23    6.04   1
   9   3   1  172.03    5.66   1
  -9   3  -2    1.95    1.83   1
   9   3   2    2.69    1.59   1
  -9   3  -3   27.32    3.34   1
   9   3   3   29.54    2.99   1
  -9   3  -4   -1.19    1.72   1
   9   3   4    0.15    1.46   1
  -9   3  -5    7.67    2.35   1
  -9   3  -6   11.24    2.60   1
  -9   3  -7    0.47    2.06   1
  -9   3  -8   -1.09    2.15   1
   9   4  -9   12.35    3.26   1
   9   4  -8    3.97    2.56   1
   9   4  -7    3.57    2.47   1
   9  -4  -6    5.34    2.22   1
   9   4  -6    5.68    2.47   1
   9  -4  -5   24.67    2.96   1
   9   4  -5   23.59    2.89   1
   9  -4  -4   11.21    2.34   1
   9   4  -4    9.48    2.49   1
   9  -4  -3   63.63    4.25   1
   9   4  -3   61.84    4.52   1
   9  -4  -2    7.52    2.17   1
   9   4  -2    6.50    2.13   1
   9  -4  -1    6.00    2.11   1
   9   4  -1    4.52    2.01   1
  -9   4   0   32.55    3.68   1
   9   4   0   35.42    3.56   1
  -9   4  -1    5.26    2.14   1
   9   4   1    5.54    1.94   1
  -9   4  -2    5.84    2.21   1
   9   4   2    4.75    1.80   1
  -9   4  -3   -0.91    1.73   1
  -9   4  -4    6.93    2.41   1
  -9   4  -5   -1.16    1.91   1
  -9   4  -6    1.26    2.24   1
  -9   4  -7   -2.48    2.04   1
   9   5  -7   17.85    3.52   1
   9   5  -6    0.66    2.34   1
   9   5  -5    6.20    2.64   1
   9  -5  -4   13.21    2.63   1
   9   5  -4   13.09    3.01   1
   9  -5  -3    7.10    2.27   1
   9   5  -3    6.28    2.53   1
   9  -5  -2    3.63    2.06   1
   9   5  -2    3.51    2.14   1
   9  -5  -1    1.45    2.01   1
   9   5  -1   -0.39    1.78   1
  -9   5   0    0.69    1.95   1
   9   5   0   -0.22    1.71   1
  -9   5  -1    1.45    2.10   1
   9   5   1    1.53    1.90   1
  -9   5  -2    0.10    2.01   1
  -9   5  -3    2.69    2.32   1
  -9   5  -4   13.99    3.00   1
  -9   5  -5    9.67    2.88   1
   9   6  -4    7.25    2.77   1
   9  -6  -3   -0.35    2.20   1
   9   6  -3   -0.32    2.15   1
   9  -6  -2    9.91    2.76   1
   9   6  -2    6.74    2.60   1
  -9   6   1    7.73    2.50   1
   9   6  -1    6.17    2.40   1
  -9   6   0    0.85    2.17   1
   9   6   0    1.38    2.17   1
  -9   6  -1   23.79    3.37   1
  -9   6  -2    2.63    2.51   1
  10   0 -10    0.31    1.84   1
  10   0  -9   -0.12    1.72   1
  10   0  -8    0.80    1.76   1
  10   0  -7    0.33    1.56   1
  10   0  -6    1.17    1.72   1
  10   0  -5   -2.00    1.74   1
  10   0  -4  845.06   13.20   1
  10   0  -3    1.70    1.88   1
  10   0  -2  100.36    4.89   1
  10   0  -1   -1.33    1.54   1
  10   0   0    0.04    1.60   1
  10   0   1   -0.36    1.48   1
  10   0   2   27.48    3.41   1
  10   0   3   -2.42    1.60   1
  10   0   4  135.45    5.77   1
  10   0   5    0.17    2.02   1
  10   0   6  170.12    6.48   1
  10   0   7    0.98    2.08   1
  10   1 -10    0.70    1.91   1
  10  -1  -9    2.36    1.95   1
  10   1  -9    4.54    2.17   1
  10  -1  -8    5.03    1.96   1
  10   1  -8    6.50    2.23   1
  10  -1  -7   13.04    2.36   1
  10   1  -7   12.42    2.40   1
  10  -1  -6   -0.46    1.56   1
  10   1  -6   -3.63    1.47   1
  10  -1  -5   48.17    3.95   1
  10   1  -5   39.39    3.88   1
  10  -1  -4    0.61    1.77   1
  10   1  -4   -1.71    2.11   1
  10  -1  -3   39.02    3.69   1
  10   1  -3   38.71    3.62   1
  10  -1  -2   64.71    4.23   1
  10   1  -2   70.35    4.42   1
  10  -1  -1   90.08    4.63   1
  10   1  -1   94.62    4.63   1
  10  -1   0   18.27    2.41   1
  10   1   0   14.22    1.95   1
  10  -1   1    6.01    1.98   1
  10   1   1    6.66    1.99   1
  10  -1   2    1.58    1.75   1
  10   1   2    2.36    1.89   1
  10  -1   3   20.63    2.73   1
  10   1   3   18.72    2.64   1
  10  -1   4   13.48    2.67   1
  10   1   4   10.36    2.53   1
  10  -1   5    6.90    2.27   1
  10   1   5    5.82    2.24   1
  10  -1   6    0.48    1.92   1
  10   1   6   -0.73    1.90   1
  10  -1   7   -1.35    1.96   1
  10  -1   8   -0.28    2.17   1
  10   2 -10    9.63    2.78   1
  10   2  -9    4.05    2.16   1
  10  -2  -8   49.92    4.03   1
  10   2  -8   50.63    4.39   1
  10  -2  -7   14.58    2.27   1
  10   2  -7   13.10    2.64   1
  10  -2  -6    0.53    1.82   1
  10   2  -6   -0.84    1.77   1
  10  -2  -5   -0.76    1.71   1
  10   2  -5   -1.56    1.66   1
  10  -2  -4    6.72    2.09   1
  10   2  -4    6.37    2.18   1
  10  -2  -3    0.89    1.75   1
  10   2  -3    0.60    1.73   1
  10  -2  -2   19.83    2.67   1
  10   2  -2   19.14    2.72   1
  10  -2  -1   -0.37    1.73   1
  10   2  -1    1.89    1.75   1
  10  -2   0  196.50    6.38   1
  10   2   0  198.90    6.21   1
  10  -2   1   32.06    3.64   1
  10   2   1   36.96    3.37   1
  10  -2   2   32.54    3.55   1
  10   2   2   32.80    3.25   1
  10  -2   3   -0.29    1.77   1
  10   2   3   -0.35    1.55   1
  10  -2   4    2.89    1.95   1
  10   2   4    4.58    1.91   1
  10  -2   5   -0.71    1.92   1
  10   2   5   -0.47    1.69   1
  10  -2   6    3.00    2.20   1
  10  -2   7   31.26    3.64   1
  10   3  -9    2.13    2.44   1
  10   3  -8    1.80    2.17   1
  10  -3  -7    6.88    2.20   1
  10   3  -7    5.77    2.57   1
  10  -3  -6    8.97    2.33   1
  10   3  -6    8.24    2.51   1
  10  -3  -5   -1.32    1.87   1
  10   3  -5   -0.49    1.80   1
  10  -3  -4   -1.39    1.76   1
  10   3  -4    0.24    1.95   1
  10  -3  -3    7.40    2.31   1
  10   3  -3    8.63    2.36   1
  10  -3  -2   54.82    4.22   1
  10   3  -2   54.15    4.13   1
  10  -3  -1    1.21    2.04   1
  10   3  -1    1.20    1.73   1
  10  -3   0   26.42    3.10   1
  10   3   0   26.05    3.25   1
  10  -3   1   -1.73    1.86   1
  10   3   1    0.68    1.57   1
  10  -3   2   33.45    3.81   1
  10   3   2   33.65    3.42   1
  10  -3   3   -0.75    2.13   1
  10   3   3    1.02    1.51   1
 -10   3  -4    2.56    2.16   1
 -10   3  -5   11.41    2.65   1
 -10   3  -6    0.39    2.14   1
  10   4  -8   16.03    3.45   1
  10   4  -7    4.93    2.67   1
  10  -4  -6   21.60    3.07   1
  10   4  -6   20.40    3.43   1
  10  -4  -5    6.67    2.38   1
  10   4  -5    8.83    2.85   1
  10  -4  -4    6.42    2.41   1
  10   4  -4    3.15    2.40   1
  10  -4  -3   12.36    2.77   1
  10   4  -3   10.30    2.63   1
  10  -4  -2   -0.42    2.18   1
  10   4  -2    1.40    2.01   1
  10  -4  -1    6.66    2.38   1
  10   4  -1   11.08    2.56   1
  10  -4   0   -0.24    2.03   1
  10   4   0    0.83    1.82   1
  10  -4   1    5.03    2.59   1
  10   4   1    6.46    2.06   1
 -10   4  -2    1.24    2.20   1
  10   4   2    1.29    1.80   1
 -10   4  -3   18.72    3.09   1
 -10   4  -4    2.27    2.14   1
 -10   4  -5    9.60    2.71   1
  10   5  -6   19.02    3.53   1
  10   5  -5    5.69    2.83   1
  10  -5  -4    2.30    2.39   1
  10   5  -4    4.23    2.54   1
  10  -5  -3    7.25    2.58   1
  10   5  -3    5.92    2.53   1
  10  -5  -2   -0.16    2.17   1
  10   5  -2    1.72    1.79   1
  10  -5  -1    4.42    2.57   1
  10   5  -1    1.84    2.07   1
  10  -5   0   -0.13    2.24   1
  10   5   0    0.52    1.81   1
 -10   5  -1    2.09    2.27   1
  10   5   1    1.97    2.13   1
 -10   5  -2    8.14    2.61   1
 -10   5  -3    4.72    2.51   1
  11   0  -9    4.48    2.16   1
  11   0  -8    0.03    1.85   1
  11   0  -7    8.57    2.23   1
  11   0  -6    1.39    1.92   1
  11   0  -5    9.71    2.53   1
  11   0  -4    0.54    2.15   1
  11   0  -3   21.75    3.06   1
  11   0  -2   -1.64    1.72   1
  11   0  -1    2.72    2.03   1
  11   0   0    1.02    1.80   1
  11   0   1   21.44    2.87   1
  11   0   2   -1.24    1.83   1
  11   0   3    1.01    2.03   1
  11   0   4   -1.89    1.86   1
  11   0   5    3.00    2.32   1
  11   0   6   -0.29    2.04   1
  11  -1  -9    8.04    2.32   1
  11   1  -9    9.89    2.67   1
  11  -1  -8   11.01    2.42   1
  11   1  -8   12.22    2.68   1
  11  -1  -7    8.19    2.31   1
  11   1  -7    7.29    2.32   1
  11  -1  -6    1.89    1.83   1
  11   1  -6   -0.69    1.79   1
  11  -1  -5   26.33    3.02   1
  11   1  -5   24.64    3.18   1
  11  -1  -4    6.76    2.33   1
  11   1  -4    4.00    2.51   1
  11  -1  -3  289.09    8.09   1
  11   1  -3  289.68    8.12   1
  11  -1  -2   70.20    4.60   1
  11   1  -2   70.27    4.58   1
  11  -1  -1    0.49    1.86   1
  11   1  -1    0.72    1.72   1
  11  -1   0   40.49    4.10   1
  11   1   0   40.41    3.78   1
  11  -1   1   24.40    2.94   1
  11   1   1   24.15    2.83   1
  11  -1   2   10.84    2.47   1
  11   1   2    8.95    2.42   1
  11  -1   3   -2.65    1.79   1
  11   1   3   -0.45    1.92   1
  11  -1   4    0.92    2.19   1
  11   1   4   -1.40    1.80   1
  11  -1   5   57.62    4.87   1
  11   1   5   54.41    4.90   1
  11  -1   6    5.19    2.66   1
  11   1   6    9.86    2.64   1
  11   2  -9    0.16    2.20   1
  11  -2  -8    0.45    1.89   1
  11   2  -8   -0.55    2.13   1
  11  -2  -7   12.12    2.44   1
  11   2  -7    9.68    2.80   1
  11  -2  -6    2.13    2.08   1
  11   2  -6   -1.18    1.90   1
  11  -2  -5    0.61    1.90   1
  11   2  -5    0.66    1.96   1
  11  -2  -4    0.83    1.91   1
  11   2  -4   -1.83    1.79   1
  11  -2  -3   15.07    2.70   1
  11   2  -3   12.65    2.64   1
  11  -2  -2    0.38    1.94   1
  11   2  -2    0.03    1.70   1
  11  -2  -1    9.36    2.41   1
  11   2  -1    6.69    2.22   1
  11  -2   0   20.54    2.96   1
  11   2   0   21.04    2.80   1
  11  -2   1    1.21    2.00   1
  11   2   1    1.48    1.70   1
  11  -2   2    2.04    2.27   1
  11   2   2   -0.54    1.79   1
  11  -2   3    0.96    2.06   1
  11   2   3   -0.44    1.65   1
  11  -2   4   -2.44    1.88   1
  11   2   4   -0.78    1.75   1
  11  -2   5    0.05    2.42   1
  11  -2   6   45.52    4.96   1
  11   3  -8    2.66    2.06   1
  11  -3  -7   21.34    3.01   1
  11   3  -7   20.83    3.35   1
  11  -3  -6   -0.38    2.01   1
  11   3  -6   -1.08    2.00   1
  11  -3  -5    4.36    2.42   1
  11   3  -5    6.73    2.62   1
  11  -3  -4    3.41    2.39   1
  11   3  -4    1.99    2.17   1
  11  -3  -3   15.91    2.99   1
  11   3  -3   16.55    2.87   1
  11  -3  -2   -1.36    1.86   1
  11   3  -2   -0.85    1.80   1
  11  -3  -1    0.69    2.02   1
  11   3  -1    0.79    1.91   1
  11  -3   0    4.97    2.39   1
  11   3   0    5.19    2.07   1
  11  -3   1   59.07    4.62   1
  11   3   1   61.06    4.35   1
  11  -3   2   17.61    3.31   1
  11   3   2   16.40    2.58   1
  11  -3   3    0.14    2.23   1
  11   3   3    0.86    1.73   1
  11  -3   4   17.53    3.13   1
  11  -3   5   -1.86    2.32   1
  11  -4  -6    3.65    2.52   1
  11   4  -6    1.54    2.05   1
  11  -4  -5    9.10    2.86   1
  11   4  -5    9.65    3.07   1
  11  -4  -4    3.50    2.57   1
  11   4  -4    2.01    2.36   1
  11  -4  -3    4.04    2.44   1
  11   4  -3    4.34    2.39   1
  11  -4  -2    2.93    2.33   1
  11   4  -2    2.31    2.11   1
  11  -4  -1   -0.11    2.38   1
  11   4  -1    0.44    1.83   1
  11  -4   0    2.06    2.29   1
  11   4   0    5.33    2.23   1
  11  -4   1   -0.65    2.29   1
  11   4   1    1.89    1.82   1
  11  -4   2    3.56    2.43   1
  11   4   2    3.46    2.03   1
  11  -4   3    3.71    2.65   1
  11  -5  -3    2.68    2.61   1
  11   5  -3    2.35    2.36   1
  11  -5  -2    7.65    3.29   1
  11   5  -2    8.33    2.78   1
  11  -5  -1    0.97    2.74   1
  11   5  -1    2.48    2.23   1
  11  -5   0   29.48    3.91   1
  11   5   0   30.33    3.69   1
  12   0  -8    2.09    2.04   1
  12   0  -7    0.06    1.89   1
  12   0  -6    1.29    2.08   1
  12   0  -5    1.03    2.14   1
  12   0  -4  163.43    6.85   1
  12   0  -3    0.16    2.03   1
  12   0  -2   38.30    4.22   1
  12   0  -1   -0.49    1.92   1
  12   0   0    4.34    2.17   1
  12   0   1    0.14    1.95   1
  12   0   2   24.65    3.28   1
  12   0   3   -2.00    1.93   1
  12   0   4   13.93    2.85   1
  12   0   5   -0.63    2.13   1
  12  -1  -8   -0.58    1.89   1
  12   1  -8    1.17    2.07   1
  12  -1  -7    9.31    2.54   1
  12   1  -7    6.06    2.46   1
  12  -1  -6    1.10    2.07   1
  12   1  -6   -1.10    1.93   1
  12  -1  -5    0.67    2.22   1
  12   1  -5   -2.65    1.95   1
  12  -1  -4    6.66    2.48   1
  12   1  -4    2.81    2.25   1
  12  -1  -3   85.43    5.21   1
  12   1  -3   94.59    5.41   1
  12  -1  -2    2.23    2.25   1
  12   1  -2    3.67    2.22   1
  12  -1  -1    7.78    2.45   1
  12   1  -1    6.82    2.39   1
  12  -1   0    1.82    2.34   1
  12   1   0    0.86    2.00   1
  12  -1   1   11.08    2.68   1
  12   1   1    9.48    2.60   1
  12  -1   2    2.18    2.11   1
  12   1   2    3.90    2.07   1
  12  -1   3   -0.05    1.90   1
  12   1   3   -2.25    1.81   1
  12  -1   4    3.44    2.47   1
  12   1   4    1.52    2.17   1
  12  -1   5   15.73    3.28   1
  12   1   5   17.91    2.96   1
  12  -2  -7    1.31    2.14   1
  12   2  -7   -0.26    2.28   1
  12  -2  -6   -1.40    1.90   1
  12   2  -6    0.93    2.18   1
  12  -2  -5    2.01    2.45   1
  12   2  -5    0.24    2.20   1
  12  -2  -4    3.48    2.45   1
  12   2  -4    4.85    2.39   1
  12  -2  -3    1.53    2.22   1
  12   2  -3   -1.75    1.98   1
  12  -2  -2   18.92    3.04   1
  12   2  -2   21.95    3.17   1
  12  -2  -1   10.67    2.78   1
  12   2  -1    8.23    2.45   1
  12  -2   0   18.25    2.95   1
  12   2   0   13.27    2.63   1
  12  -2   1   12.40    2.78   1
  12   2   1   12.65    2.58   1
  12  -2   2    7.96    2.65   1
  12   2   2    5.22    2.22   1
  12  -2   3    2.38    2.33   1
  12   2   3    0.12    2.01   1
  12  -2   4    1.03    2.35   1
  12   2   4   -0.39    1.98   1
  12  -3  -6   -1.50    2.21   1
  12   3  -6    1.30    2.37   1
  12  -3  -5   -0.54    2.40   1
  12   3  -5   -2.97    2.18   1
  12  -3  -4    5.87    2.63   1
  12   3  -4    5.72    2.63   1
  12  -3  -3    6.29    2.87   1
  12   3  -3    6.20    2.48   1
  12  -3  -2    5.12    2.36   1
  12   3  -2    3.80    2.23   1
  12  -3  -1    0.60    2.24   1
  12   3  -1   -0.79    1.82   1
  12  -3   0    5.92    2.56   1
  12   3   0    3.27    2.15   1
  12  -3   1   18.02    3.25   1
  12   3   1   18.36    2.92   1
  12  -3   2    1.86    2.35   1
  12   3   2    3.84    2.10   1
  12  -3   3    2.50    2.51   1
  12   3   3    1.60    1.93   1
  12  -4  -3    7.59    2.89   1
  12   4  -3   13.21    3.13   1
  12  -4  -2    0.98    2.53   1
  12   4  -2    3.70    2.62   1
  12  -4  -1   -1.18    2.26   1
  12   4  -1    3.36    2.30   1
  12  -4   0    7.11    3.06   1
  12   4   0    6.71    2.56   1
  13   0  -6    0.08    2.12   1
  13   0  -5    4.46    2.51   1
  13   0  -4   -0.18    1.99   1
  13   0  -3    2.16    2.44   1
  13   0  -2   -0.75    2.14   1
  13   0  -1   33.39    4.13   1
  13   0   0    0.00    2.12   1
  13   0   1   16.06    3.06   1
  13   0   2    0.52    2.40   1
  13  -1  -5    6.46    2.62   1
  13   1  -5    6.23    2.65   1
  13  -1  -4   13.32    3.10   1
  13   1  -4   12.09    2.94   1
  13  -1  -3   12.36    2.83   1
  13   1  -3   16.24    3.16   1
  13  -1  -2   16.53    3.23   1
  13   1  -2   13.77    2.94   1
  13  -1  -1    1.88    2.33   1
  13   1  -1    2.25    2.28   1
  13  -1   0    2.39    2.46   1
  13   1   0    0.68    2.09   1
  13  -1   1    4.30    2.64   1
  13   1   1    4.21    2.44   1
  13  -1   2    0.52    2.30   1
  13   1   2    0.73    2.15   1
  13  -2  -4   10.60    3.06   1
  13   2  -4   14.05    3.16   1
  13  -2  -3    1.21    2.42   1
  13   2  -3    0.35    2.32   1
  13  -2  -2   29.76    3.86   1
  13   2  -2   35.86    4.30   1
  13  -2  -1    8.00    3.01   1
  13   2  -1    7.84    2.88   1
  13  -2   0    0.54    2.31   1
  13   2   0    2.97    2.24   1
  13  -2   1   -0.38    2.15   1
  13   2   1    1.35    2.11   1
   0   0  -1    4.27    0.47   2
   0   0  -2 6412.73   40.84   2
   0   0  -3   -0.63    0.54   2
   0   0  -4  832.69    8.37   2
   0   0  -5    0.62    0.84   2
   0   0  -6   13.59    1.45   2
   0   0  -7   -0.53    1.02   2
   0   0  -8 1456.77   15.70   2
   0   0  -9   -2.07    1.57   2
   0   0 -10  968.86   13.92   2
   0   0 -11    0.36    1.80   2
   0   0 -12    2.56    1.95   2
   0   0 -13    1.08    2.15   2
   0  -1  -1  785.44    6.65   2
   0  -1  -2   77.35    2.01   2
   0   1  -2   78.09    1.54   2
   0  -1  -3  366.34    4.86   2
   0   1  -3  365.98    4.25   2
   0  -1  -4   28.50    1.99   2
   0   1  -4   29.99    1.72   2
   0  -1  -5  227.65    4.80   2
   0   1  -5  231.52    4.29   2
   0  -1  -6  140.03    4.13   2
   0   1  -6  139.44    3.75   2
   0  -1  -7   46.72    2.94   2
   0   1  -7   44.79    2.72   2
   0  -1  -8  194.06    5.71   2
   0   1  -8  201.23    5.43   2
   0  -1  -9   54.66    4.29   2
   0   1  -9   59.55    4.29   2
   0  -1 -10   15.20    2.51   2
   0   1 -10   12.49    2.08   2
   0  -1 -11    0.52    1.82   2
   0   1 -11    1.15    1.82   2
   0  -1 -12    0.55    2.04   2
   0   1 -12    0.75    1.91   2
   0  -1 -13    3.99    2.30   2
   0   1 -13    7.34    2.54   2
   0  -2   0  639.89    5.73   2
   0  -2  -1 1794.35   12.99   2
   0  -2  -2  224.43    3.61   2
   0   2  -2  222.53    2.63   2
   0  -2  -3  683.87    7.54   2
   0   2  -3  694.05    6.22   2
   0  -2  -4 6723.91   41.86   2
   0   2  -4 6694.36   40.81   2
   0  -2  -5    6.24    1.46   2
   0   2  -5    3.52    0.91   2
   0  -2  -6  812.67   10.43   2
   0   2  -6  816.11    9.00   2
   0  -2  -7   41.26    2.91   2
   0   2  -7   45.41    2.51   2
   0  -2  -8    6.98    1.80   2
   0   2  -8    6.31    1.51   2
   0  -2  -9   -0.64    1.62   2
   0   2  -9   -1.06    1.32   2
   0  -2 -10    1.70    1.90   2
   0   2 -10    1.77    1.62   2
   0  -2 -11   -0.08    1.69   2
   0   2 -11    0.12    1.57   2
   0  -2 -12    6.01    2.57   2
   0   2 -12    7.13    2.39   2
   0  -2 -13   18.80    3.55   2
   0   2 -13   22.18    3.28   2
   0  -3   0    1.03    0.47   2
   0  -3  -1  108.35    2.49   2
   0  -3  -2   49.76    2.14   2
   0  -3  -3    5.81    1.10   2
   0  -3  -4  272.88    5.26   2
   0   3  -4  278.89    3.78   2
   0  -3  -5   14.34    1.75   2
   0   3  -5   15.25    1.80   2
   0  -3  -6   37.20    2.77   2
   0   3  -6   35.60    2.08   2
   0  -3  -7   36.62    2.95   2
   0   3  -7   37.96    2.50   2
   0  -3  -8   99.06    4.60   2
   0   3  -8   99.78    3.66   2
   0  -3  -9   60.99    4.11   2
   0   3  -9   63.68    3.26   2
   0  -3 -10    0.46    1.80   2
   0   3 -10    0.23    1.42   2
   0  -3 -11    4.31    2.22   2
   0   3 -11    4.94    1.98   2
   0  -3 -12   10.73    2.87   2
   0  -4   0 1209.20    9.68   2
   0  -4  -1  694.59    7.13   2
   0  -4  -2    3.09    0.99   2
   0  -4  -3   66.40    2.75   2
   0  -4  -4   50.67    2.73   2
   0  -4  -5   53.48    3.04   2
   0  -4  -6   10.33    1.85   2
   0  -4  -7   84.05    4.31   2
   0  -4  -8   24.63    2.98   2
   0  -4  -9   50.36    4.00   2
   0  -4 -10    0.25    1.86   2
   0  -4 -11    6.26    2.31   2
   0  -4 -12   -0.46    2.22   2
   0  -5  -2  281.13    5.16   2
   0  -5  -3   23.43    2.25   2
   0  -5  -4  106.05    3.96   2
   0  -5  -5   20.38    2.27   2
   0  -5  -6    1.50    1.61   2
   0  -5  -7   88.43    4.48   2
   0  -5  -8   47.08    3.86   2
   0  -5  -9    9.51    2.50   2
   0  -5 -10    1.53    2.32   2
   0  -5 -11   10.61    2.88   2
   0  -6  -7    1.91    1.90   2
   0  -6  -8    4.93    2.16   2
   0  -6  -9    0.42    2.00   2
   1   0 -13   -1.83    2.02   2
   1   0 -12   -0.91    1.73   2
   1   0 -11    4.79    1.93   2
   1   0 -10    0.07    1.93   2
   1   0  -9   24.16    2.88   2
   1   0  -8   -1.91    1.61   2
   1   0  -7  511.68    8.09   2
   1   0  -6   -0.83    0.81   2
   1   0  -5  677.51    8.00   2
   1   0  -4    1.06    0.70   2
   1   0  -313325.42   77.51   2
   1   0  -2    0.74    0.46   2
  -1   0   110119.29   72.41   2
  -1   0   0   14.80    0.72   2
  -1   0  -1  409.10    4.07   2
  -1   0  -2    1.95    0.58   2
  -1   0  -3   39.19    1.73   2
  -1   0  -4   -0.26    0.63   2
  -1   0  -5  909.68    9.83   2
  -1   0  -6    0.93    0.93   2
  -1   0  -7    4.46    1.37   2
  -1   0  -8   -3.75    1.45   2
  -1   0  -9  267.66    6.97   2
  -1   0 -10   -1.73    1.92   2
  -1   0 -11   35.69    3.55   2
  -1   0 -12   -0.28    1.95   2
  -1   0 -13   21.89    3.45   2
   1  -1 -13    5.19    2.57   2
   1   1 -13    7.15    2.52   2
   1  -1 -12    6.46    2.47   2
   1   1 -12    9.76    2.51   2
   1  -1 -11   23.12    2.97   2
   1   1 -11   20.16    2.78   2
   1  -1 -10    0.10    1.67   2
   1   1 -10    0.66    1.59   2
   1  -1  -9 1331.02   16.01   2
   1   1  -9 1341.87   15.34   2
   1  -1  -8    0.29    1.42   2
   1   1  -8    1.21    1.35   2
   1  -1  -7   77.36    3.59   2
   1   1  -7   80.65    3.34   2
   1  -1  -6  239.34    5.23   2
   1   1  -6  246.15    4.88   2
   1  -1  -5 2025.95   16.78   2
   1   1  -5 2023.50   15.60   2
   1  -1  -4  677.04    7.71   2
   1   1  -4  669.85    6.82   2
   1  -1  -3 1150.97   10.04   2
   1   1  -3 1142.20    9.15   2
   1  -1  -2  211.67    3.35   2
   1   1  -2  211.25    2.65   2
  -1  -1   111003.21  116.28   2
  -1   1   111035.27   69.22   2
  -1  -1   0 1548.22   13.64   2
  -1   1   0 1534.74   11.75   2
  -1  -1  -123236.47  145.26   2
  -1   1  -123284.23  152.28   2
  -1  -1  -2    0.86    0.55   2
  -1   1  -2    1.29    0.55   2
  -1  -1  -3 1198.60   10.40   2
  -1   1  -3 1224.23   10.00   2
  -1  -1  -4 3373.89   23.51   2
  -1   1  -4 3387.05   22.87   2
  -1  -1  -5 1548.66   14.17   2
  -1   1  -5 1562.03   13.45   2
  -1  -1  -6   -0.24    0.92   2
  -1   1  -6    0.53    0.91   2
  -1  -1  -7   -0.07    1.08   2
  -1   1  -7    0.02    0.96   2
  -1  -1  -8  156.33    5.29   2
  -1   1  -8  151.52    4.89   2
  -1  -1  -9  210.86    6.59   2
  -1   1  -9  210.79    6.21   2
  -1  -1 -10    3.25    2.01   2
  -1   1 -10    2.25    1.76   2
  -1  -1 -11   35.59    3.75   2
  -1   1 -11   29.59    3.37   2
  -1  -1 -12   20.39    3.16   2
  -1   1 -12   22.61    3.15   2
  -1  -1 -13    3.21    2.43   2
  -1   1 -13    2.86    2.42   2
   1  -2 -13    8.02    2.79   2
   1   2 -13    8.91    2.67   2
   1  -2 -12    2.96    2.28   2
   1   2 -12    2.98    2.08   2
   1  -2 -11   -0.06    1.80   2
   1   2 -11   -0.68    1.62   2
   1  -2 -10   -0.83    1.61   2
   1   2 -10   -0.63    1.32   2
   1  -2  -9   -2.09    1.51   2
   1   2  -9   -0.98    1.31   2
   1  -2  -8    9.94    1.96   2
   1   2  -8   10.46    1.79   2
   1  -2  -7    0.57    1.20   2
   1   2  -7    0.42    0.94   2
   1  -2  -6    8.81    1.55   2
   1   2  -6    7.36    1.18   2
   1  -2  -5   66.21    3.02   2
   1   2  -5   69.50    2.34   2
   1  -2  -4  174.65    4.16   2
   1   2  -4  178.22    3.06   2
   1  -2  -3 1007.30    9.70   2
   1   2  -3 1010.94    8.11   2
   1  -2  -2 1631.74   12.78   2
  -1   2   1  173.29    2.96   2
  -1  -2   0 7411.97   54.64   2
  -1   2   0 7407.95   46.78   2
  -1  -2  -1  619.16    5.84   2
  -1   2  -1  606.70    5.58   2
  -1  -2  -2   13.86    1.36   2
  -1   2  -2   11.66    1.11   2
  -1  -2  -3  421.13    5.74   2
  -1   2  -3  412.66    4.79   2
  -1  -2  -4  411.99    6.29   2
  -1   2  -4  412.01    5.38   2
  -1  -2  -5  200.27    4.76   2
  -1   2  -5  203.05    4.11   2
  -1  -2  -6   41.29    2.92   2
  -1   2  -6   42.47    2.42   2
  -1  -2  -7    2.43    1.33   2
  -1   2  -7    1.14    1.08   2
  -1  -2  -8    8.32    1.88   2
  -1   2  -8    7.14    1.63   2
  -1  -2  -9    1.17    1.70   2
  -1   2  -9    0.76    1.50   2
  -1  -2 -10  152.85    6.16   2
  -1   2 -10  148.07    5.41   2
  -1  -2 -11    0.09    1.97   2
  -1   2 -11    1.24    1.83   2
  -1  -2 -12    2.70    2.20   2
  -1   2 -12    1.25    1.95   2
  -1  -2 -13   -0.32    2.32   2
  -1   2 -13    0.85    2.27   2
   1  -3 -13   37.34    4.49   2
   1  -3 -12   23.60    3.47   2
   1  -3 -11    1.96    2.04   2
   1  -3 -10    0.22    1.81   2
   1   3 -10   -1.81    1.40   2
   1  -3  -9  109.46    5.07   2
   1   3  -9  110.89    4.07   2
   1  -3  -8    6.32    1.89   2
   1   3  -8    4.55    1.37   2
   1  -3  -7   10.58    1.89   2
   1   3  -7   10.93    1.40   2
   1  -3  -6   58.93    3.26   2
   1   3  -6   57.88    2.30   2
   1  -3  -5  892.33   10.93   2
   1   3  -5  913.49    8.22   2
   1  -3  -4  101.91    3.42   2
   1  -3  -3  788.26    8.69   2
   1  -3  -2  603.81    6.97   2
   1  -3  -1  164.24    3.19   2
  -1  -3   0  336.78    3.65   2
  -1   3   0  335.23    4.23   2
  -1  -3  -1  196.40    3.18   2
  -1   3  -1  197.38    3.03   2
  -1  -3  -2   33.98    1.76   2
  -1   3  -2   32.99    1.50   2
  -1  -3  -3   -0.01    0.70   2
  -1   3  -3    0.43    0.56   2
  -1  -3  -4  122.65    3.63   2
  -1   3  -4  121.68    2.92   2
  -1  -3  -5  269.87    5.77   2
  -1   3  -5  269.20    4.62   2
  -1  -3  -6    0.07    1.25   2
  -1   3  -6   -0.18    0.87   2
  -1  -3  -7    0.60    1.35   2
  -1   3  -7    0.85    1.18   2
  -1   3  -8  208.42    5.32   2
  -1  -3  -9    0.81    1.74   2
  -1   3  -9    1.97    1.48   2
  -1  -3 -10   14.87    2.67   2
  -1   3 -10   15.78    2.36   2
  -1  -3 -11    1.73    2.12   2
  -1   3 -11    3.71    1.92   2
  -1  -3 -12   -0.08    1.96   2
   1  -4 -12   -1.92    2.08   2
   1  -4 -11    5.19    2.41   2
   1  -4 -10    0.23    1.91   2
   1  -4  -9    5.32    2.05   2
   1  -4  -8    9.79    2.23   2
   1  -4  -7  198.26    6.07   2
   1  -4  -6    0.34    1.31   2
   1  -4  -5   11.97    1.78   2
   1  -4  -4   27.82    2.36   2
   1  -4  -3   73.88    2.97   2
   1  -4  -2  142.01    3.62   2
   1  -4  -1  659.03    7.29   2
   1  -4   0   15.45    1.24   2
  -1  -4  -1    0.41    0.72   2
  -1   4  -1    1.01    0.62   2
  -1  -4  -2    3.88    0.99   2
  -1   4  -2    3.65    0.71   2
  -1  -4  -3   81.62    3.01   2
  -1   4  -3   79.02    2.26   2
  -1  -4  -4  217.54    5.05   2
  -1   4  -4  212.37    3.56   2
  -1  -4  -5   73.34    3.43   2
  -1   4  -5   74.63    2.56   2
  -1  -4  -6   20.10    2.48   2
  -1   4  -6   18.03    2.21   2
  -1  -4  -7   52.23    3.55   2
  -1  -4  -8    9.14    2.18   2
  -1  -4  -9   40.62    3.76   2
  -1  -4 -10   -0.12    1.92   2
  -1  -4 -11   -0.20    2.06   2
  -1  -4 -12    2.87    2.43   2
   1  -5 -11    0.10    2.18   2
   1  -5 -10   18.76    3.06   2
   1  -5  -9   15.77    2.84   2
   1  -5  -8   10.81    2.41   2
   1  -5  -7    5.98    2.09   2
   1  -5  -6   -2.02    1.50   2
   1  -5  -5   14.52    2.05   2
   1  -5  -4   19.49    2.12   2
   1  -5  -3   33.23    2.49   2
   1  -5  -2    1.73    1.05   2
  -1  -5  -3   11.07    1.59   2
  -1  -5  -4  795.02   10.41   2
  -1  -5  -5   -0.18    1.37   2
  -1  -5  -6   12.75    2.16   2
  -1  -5  -7    1.12    1.73   2
  -1  -5  -8    4.71    2.06   2
  -1  -5  -9    2.26    2.29   2
  -1  -5 -10    4.66    2.43   2
  -1  -5 -11   15.08    3.08   2
   1  -6  -9    4.13    2.29   2
   1  -6  -8    0.55    1.90   2
   1  -6  -7    6.75    2.14   2
   1  -6  -6    1.33    1.85   2
  -1  -6  -7    1.37    1.79   2
  -1  -6  -8    1.42    2.05   2
  -1  -6  -9    7.64    2.75   2
   2   0 -13   -1.41    2.08   2
   2   0 -12    0.87    1.91   2
   2   0 -11   -0.58    1.58   2
   2   0 -10  470.62    9.54   2
   2   0  -9    2.08    1.66   2
   2   0  -8 2273.02   20.60   2
   2   0  -7    0.57    1.07   2
   2   0  -6  478.00    7.17   2
   2   0  -5   -0.50    0.79   2
   2   0  -4 1240.17   11.05   2
  -2   0   3    0.63    0.60   2
  -2   0   2    7.11    0.78   2
  -2   0   1    1.06    0.48   2
  -2   0  -1    0.65    0.53   2
  -2   0  -2 3172.86   21.18   2
  -2   0  -3   -0.26    0.56   2
  -2   0  -4 2464.71   18.58   2
  -2   0  -5   -0.01    0.94   2
  -2   0  -6  330.86    6.33   2
  -2   0  -7   -0.69    1.08   2
  -2   0  -8   59.87    3.69   2
  -2   0  -9   -3.55    1.55   2
  -2   0 -10    2.82    1.96   2
  -2   0 -11   -0.94    1.81   2
  -2   0 -12   25.10    3.32   2
  -2   0 -13   -1.04    2.18   2
   2  -1 -13    2.37    2.36   2
   2   1 -13    0.91    2.17   2
   2  -1 -12    6.69    2.41   2
   2   1 -12    8.08    2.35   2
   2  -1 -11   11.07    2.41   2
   2   1 -11   12.94    2.35   2
   2  -1 -10   42.58    3.73   2
   2   1 -10   36.30    3.29   2
   2  -1  -9  623.96   10.72   2
   2   1  -9  625.11    9.96   2
   2  -1  -8    9.08    1.93   2
   2   1  -8   12.34    1.86   2
   2  -1  -7  666.49    9.73   2
   2   1  -7  664.81    8.94   2
   2  -1  -6  109.29    3.67   2
   2   1  -6  112.00    3.37   2
   2  -1  -5  981.09   10.72   2
   2   1  -5  978.07    9.69   2
   2  -1  -4   27.84    2.04   2
   2   1  -4   26.98    1.67   2
  -2   1   3 4452.56   28.89   2
   2  -1  -3 4447.47   28.76   2
   2   1  -3 4456.57   28.45   2
  -2  -1   2   18.88    1.30   2
  -2   1   2   21.38    1.67   2
  -2  -1   1 4898.44   33.28   2
  -2   1   1 4913.39   31.10   2
  -2  -1   0 8375.57   53.45   2
  -2   1   0 8426.18   51.40   2
  -2  -1  -130568.18  177.20   2
  -2   1  -130560.29  176.55   2
  -2  -1  -2 1954.16   14.42   2
  -2   1  -2 1934.88   14.22   2
  -2  -1  -3  339.03    5.15   2
  -2   1  -3  328.37    4.76   2
  -2  -1  -4 1687.35   14.29   2
  -2   1  -4 1730.84   14.16   2
  -2  -1  -5  738.12    9.21   2
  -2   1  -5  740.91    8.73   2
  -2  -1  -6  143.50    4.35   2
  -2   1  -6  141.84    4.08   2
  -2  -1  -7    7.80    1.60   2
  -2   1  -7    4.99    1.39   2
  -2  -1  -8    2.31    1.60   2
  -2   1  -8    1.05    1.52   2
  -2  -1  -9  103.72    4.94   2
  -2   1  -9  103.61    4.70   2
  -2  -1 -10   51.48    4.19   2
  -2   1 -10   52.14    3.89   2
  -2  -1 -11    8.10    2.45   2
  -2   1 -11    8.53    2.34   2
  -2  -1 -12    0.49    2.17   2
  -2   1 -12   -0.85    1.98   2
  -2  -1 -13    1.45    2.52   2
  -2   1 -13    1.53    2.36   2
   2  -2 -13    9.97    2.89   2
   2   2 -13   11.55    2.66   2
   2  -2 -12   23.08    3.19   2
   2   2 -12   23.44    3.07   2
   2  -2 -11    2.26    2.04   2
   2   2 -11    5.04    2.05   2
   2  -2 -10   21.45    2.88   2
   2   2 -10   26.41    3.07   2
   2  -2  -9   16.94    2.60   2
   2   2  -9   18.49    2.25   2
   2  -2  -8  205.72    6.31   2
   2   2  -8  207.90    5.28   2
   2  -2  -7    7.84    1.67   2
   2   2  -7    8.28    1.36   2
   2  -2  -6    3.60    1.27   2
   2   2  -6    3.74    1.05   2
   2  -2  -5 1108.15   12.06   2
   2   2  -5 1110.79    9.95   2
   2  -2  -4 2556.60   19.81   2
   2   2  -4 2554.29   17.62   2
   2  -2  -3  385.23    5.79   2
   2   2  -3  389.97    4.18   2
  -2   2   2   33.77    1.94   2
  -2  -2   1 5168.27   38.49   2
  -2   2   1 5158.44   32.32   2
  -2  -2   0 3691.72   24.73   2
  -2   2   0 3673.80   24.06   2
  -2  -2  -1  114.41    2.48   2
  -2   2  -1  114.19    2.64   2
  -2  -2  -2 2357.21   17.02   2
  -2   2  -2 2354.47   16.68   2
  -2  -2  -3  884.11    9.13   2
  -2   2  -3  893.15    8.56   2
  -2  -2  -4  106.16    3.13   2
  -2   2  -4  119.87    3.13   2
  -2  -2  -5   75.59    3.27   2
  -2   2  -5   78.52    2.94   2
  -2  -2  -6   41.58    2.93   2
  -2   2  -6   43.49    2.61   2
  -2  -2  -7    5.67    1.60   2
  -2   2  -7    5.26    1.41   2
  -2  -2  -8   23.94    2.86   2
  -2   2  -8   24.48    2.66   2
  -2  -2  -9  259.37    7.44   2
  -2   2  -9  255.20    6.68   2
  -2  -2 -10   34.93    3.75   2
  -2   2 -10   33.76    3.41   2
  -2  -2 -11    7.58    2.37   2
  -2   2 -11    6.74    2.23   2
  -2  -2 -12   -1.19    2.05   2
  -2   2 -12   -1.68    1.96   2
  -2  -2 -13   -0.33    2.25   2
  -2   2 -13    0.70    2.22   2
   2  -3 -13   16.68    3.44   2
   2  -3 -12   16.79    3.04   2
   2  -3 -11    2.07    2.05   2
   2  -3 -10   49.52    4.15   2
   2  -3  -9   -0.96    1.57   2
   2   3  -9   -0.72    1.27   2
   2  -3  -8   -0.91    1.46   2
   2   3  -8   -1.61    1.09   2
   2  -3  -7    0.51    1.38   2
   2   3  -7    0.93    1.03   2
   2  -3  -6   19.75    2.41   2
   2   3  -6   21.29    1.75   2
   2  -3  -5  329.94    6.41   2
   2   3  -5  347.31    4.45   2
   2  -3  -4   74.40    3.17   2
   2  -3  -3 1041.76   10.86   2
  -2   3   2  419.45    5.95   2
  -2   3   1    0.16    0.75   2
  -2  -3   0 2323.38   16.23   2
  -2   3   0 2268.55   16.42   2
  -2  -3  -1  763.43    7.24   2
  -2   3  -1  763.43    7.54   2
  -2  -3  -2  340.99    5.00   2
  -2   3  -2  357.73    4.95   2
  -2  -3  -3  243.02    4.36   2
  -2   3  -3  276.22    4.38   2
  -2  -3  -4   10.90    1.51   2
  -2   3  -4   12.98    1.42   2
  -2  -3  -5   95.39    3.73   2
  -2   3  -5   96.05    3.31   2
  -2  -3  -6   64.21    3.48   2
  -2   3  -6   64.44    2.92   2
  -2  -3  -7   83.36    4.14   2
  -2   3  -7   84.62    3.61   2
  -2  -3  -8   28.07    3.20   2
  -2   3  -8   26.42    2.95   2
  -2  -3  -9   20.45    2.74   2
  -2   3  -9   19.30    2.41   2
  -2  -3 -10   22.82    3.07   2
  -2   3 -10   21.64    2.60   2
  -2  -3 -11    0.75    2.12   2
  -2   3 -11    1.35    1.79   2
  -2  -3 -12   -1.32    2.15   2
   2  -4 -12   10.44    2.89   2
   2  -4 -11   13.46    2.79   2
   2  -4 -10   -0.94    1.77   2
   2  -4  -9    0.27    1.74   2
   2  -4  -8  144.37    5.47   2
   2  -4  -7    0.16    1.60   2
   2  -4  -6    0.08    1.70   2
   2  -4  -5  115.71    4.35   2
   2  -4  -4  287.10    6.12   2
   2  -4  -3  175.05    4.46   2
   2  -4  -2  139.76    3.81   2
  -2   4   1   44.10    2.35   2
  -2   4   0  146.40    3.33   2
  -2  -4  -1  164.37    3.26   2
  -2   4  -1  154.71    3.29   2
  -2  -4  -2  216.90    4.22   2
  -2   4  -2  216.81    3.93   2
  -2  -4  -3  616.66    7.96   2
  -2   4  -3  640.32    7.29   2
  -2  -4  -4  187.23    4.76   2
  -2   4  -4  188.99    3.94   2
  -2  -4  -5  241.07    5.93   2
  -2   4  -5  243.28    4.73   2
  -2  -4  -6   23.97    2.67   2
  -2   4  -6   22.05    2.39   2
  -2  -4  -7   16.58    2.34   2
  -2   4  -7   17.96    1.97   2
  -2  -4  -8   19.96    2.64   2
  -2  -4  -9   15.73    2.60   2
  -2  -4 -10   15.10    2.91   2
  -2  -4 -11    0.29    1.94   2
   2  -5 -11   -1.27    2.04   2
   2  -5 -10    2.61    2.10   2
   2  -5  -9    5.95    2.25   2
   2  -5  -8   68.64    4.35   2
   2  -5  -7   12.76    2.36   2
   2  -5  -6  184.77    5.97   2
   2  -5  -5   23.80    2.73   2
   2  -5  -4  109.39    4.21   2
   2  -5  -3    7.34    1.49   2
   2  -5  -2   10.00    1.50   2
   2  -5  -1    4.92    1.27   2
  -2   5  -1  156.61    3.55   2
  -2  -5  -3   99.16    3.51   2
  -2  -5  -4  658.48    9.44   2
  -2  -5  -5  112.52    4.19   2
  -2  -5  -6   53.92    3.52   2
  -2  -5  -7   19.67    2.61   2
  -2  -5  -8   -0.56    1.73   2
  -2  -5  -9   12.63    2.69   2
  -2  -5 -10    0.71    2.02   2
   2  -6  -9    1.72    2.12   2
   2  -6  -8    4.35    2.24   2
   2  -6  -7    9.16    2.29   2
   2  -6  -6   17.79    2.54   2
   2  -6  -5   98.97    4.66   2
  -2  -6  -8   36.36    3.90   2
  -2  -6  -9    6.20    2.64   2
   3   0 -13    6.38    2.59   2
   3   0 -12    0.09    1.82   2
   3   0 -11    9.87    2.30   2
   3   0 -10    0.86    1.68   2
   3   0  -9   95.31    4.35   2
   3   0  -8    0.96    1.36   2
   3   0  -7   25.31    2.37   2
   3   0  -6    0.12    0.91   2
   3   0  -5 2940.13   21.97   2
  -3   0   4    0.05    0.77   2
  -3   0   3 2572.28   18.55   2
  -3   0   2    0.02    0.51   2
  -3   0   1   -0.15    0.49   2
  -3   0   0   -0.18    0.56   2
  -3   0  -1 3545.40   23.58   2
  -3   0  -2    0.06    0.70   2
  -3   0  -3  773.76    8.44   2
  -3   0  -4   -0.14    0.89   2
  -3   0  -6    0.93    1.07   2
  -3   0  -7   41.54    3.09   2
  -3   0  -8   -2.82    1.28   2
  -3   0  -9   11.72    2.30   2
  -3   0 -10    0.61    1.76   2
  -3   0 -11   33.90    3.59   2
  -3   0 -12   -0.54    2.15   2
  -3   0 -13   16.61    3.42   2
   3  -1 -13   12.07    2.80   2
   3   1 -13   13.92    2.79   2
   3  -1 -12   14.64    2.85   2
   3   1 -12   16.42    2.75   2
   3  -1 -11    8.27    2.23   2
   3   1 -11    9.48    2.31   2
   3  -1 -10   29.80    3.44   2
   3   1 -10   31.28    3.19   2
   3  -1  -9  612.90   10.72   2
   3   1  -9  624.04    9.95   2
   3  -1  -8   10.33    1.95   2
   3   1  -8    6.74    1.69   2
   3  -1  -7  459.01    8.37   2
   3   1  -7  461.35    7.71   2
   3  -1  -6    3.26    1.13   2
   3   1  -6    3.32    1.07   2
   3  -1  -5  665.68    8.75   2
   3   1  -5  660.30    7.82   2
  -3   1   4  879.35    9.79   2
   3   1  -4  874.07    8.70   2
  -3  -1   3  950.87    8.73   2
  -3   1   3  958.05    9.66   2
  -3  -1   2 3196.66   21.32   2
  -3   1   2 3146.24   21.66   2
  -3  -1   1 3699.99   24.20   2
  -3   1   1 3683.14   24.51   2
  -3  -1   0 8743.52   52.33   2
  -3   1   0 8727.28   51.96   2
  -3  -1  -1 1066.47    9.43   2
  -3   1  -1 1079.99    9.70   2
  -3  -1  -2  222.70    4.16   2
  -3   1  -2  227.79    4.31   2
  -3  -1  -3  730.56    8.29   2
  -3   1  -3  719.59    7.96   2
  -3  -1  -4  152.43    4.06   2
  -3   1  -4  152.78    3.89   2
  -3  -1  -5  560.37    8.18   2
  -3   1  -5  562.41    7.94   2
  -3  -1  -6   12.49    1.74   2
  -3   1  -6   12.42    1.68   2
  -3  -1  -7    5.53    1.59   2
  -3   1  -7    3.79    1.47   2
  -3  -1  -8   53.79    3.75   2
  -3   1  -8   53.58    3.51   2
  -3  -1  -9    1.06    1.85   2
  -3   1  -9    0.29    1.74   2
  -3  -1 -10   53.17    4.24   2
  -3   1 -10   59.06    4.13   2
  -3  -1 -11    0.66    2.00   2
  -3   1 -11    0.83    1.94   2
  -3  -1 -12   12.63    2.85   2
  -3   1 -12   11.14    2.74   2
  -3  -1 -13    1.51    2.46   2
  -3   1 -13    2.76    2.52   2
   3  -2 -13    1.31    2.32   2
   3   2 -13    0.76    2.09   2
   3  -2 -12   -0.37    1.95   2
   3   2 -12    1.34    1.89   2
   3  -2 -11    2.83    2.21   2
   3   2 -11    2.19    1.77   2
   3  -2 -10   22.49    2.85   2
   3   2 -10   23.68    2.57   2
   3  -2  -9   12.83    2.46   2
   3   2  -9   13.96    2.26   2
   3  -2  -8 1147.21   14.66   2
   3   2  -8 1155.93   12.74   2
   3  -2  -7   41.27    3.08   2
   3   2  -7   40.96    2.52   2
   3  -2  -6   19.10    2.33   2
   3   2  -6   17.85    1.77   2
   3  -2  -5   60.11    3.15   2
   3   2  -5   55.94    2.29   2
   3  -2  -4   10.29    1.48   2
   3   2  -4   10.74    1.08   2
  -3  -2   3  199.18    3.29   2
  -3   2   3  191.03    4.27   2
  -3  -2   2  392.24    4.44   2
  -3   2   2  384.46    5.80   2
  -3  -2   1  102.12    2.35   2
  -3   2   1   98.89    3.13   2
  -3  -2   0 5003.63   31.51   2
  -3   2   0 4955.58   31.67   2
  -3  -2  -1   33.10    1.96   2
  -3   2  -1   34.61    2.11   2
  -3  -2  -2 1048.97    9.95   2
  -3   2  -2 1064.14   10.05   2
  -3  -2  -3   37.93    2.26   2
  -3   2  -3   37.97    2.40   2
  -3  -2  -4   69.69    2.94   2
  -3   2  -4   75.30    3.11   2
  -3  -2  -5   60.46    3.09   2
  -3   2  -5   61.97    2.91   2
  -3  -2  -6   16.56    1.95   2
  -3   2  -6   17.36    1.89   2
  -3  -2  -7   17.47    2.18   2
  -3   2  -7   19.57    2.11   2
  -3  -2  -8    1.11    1.62   2
  -3   2  -8   -0.88    1.47   2
  -3  -2  -9   -1.10    1.77   2
  -3   2  -9   -0.27    1.81   2
  -3  -2 -10    4.06    2.26   2
  -3   2 -10    3.25    2.02   2
  -3  -2 -11    0.54    2.00   2
  -3   2 -11    0.77    1.96   2
  -3  -2 -12   -0.22    2.18   2
  -3   2 -12   -0.86    2.04   2
   3  -3 -12    7.63    2.65   2
   3  -3 -11   15.56    2.85   2
   3  -3 -10   13.95    2.64   2
   3  -3  -9   -0.46    1.74   2
   3   3  -9    1.82    1.40   2
   3  -3  -8   23.00    2.78   2
   3   3  -8   22.64    2.44   2
   3  -3  -7    2.86    2.19   2
   3   3  -7    2.60    1.15   2
   3  -3  -6    0.07    1.22   2
   3   3  -6    1.12    0.92   2
   3  -3  -5  172.93    4.94   2
   3   3  -5  171.42    3.25   2
   3  -3  -4   -1.14    1.02   2
  -3   3   3  660.88    8.68   2
  -3   3   2  176.04    4.13   2
  -3  -3   1   98.46    2.16   2
  -3   3   1   92.31    3.07   2
  -3  -3   0 3223.97   21.45   2
  -3   3   0 3196.74   22.40   2
  -3  -3  -1 1185.79   10.28   2
  -3   3  -1 1178.04   10.88   2
  -3  -3  -2   50.99    2.46   2
  -3   3  -2   52.84    2.47   2
  -3  -3  -3  195.84    4.40   2
  -3   3  -3  197.71    4.19   2
  -3  -3  -4  161.29    4.42   2
  -3   3  -4  159.83    4.00   2
  -3  -3  -5   -0.03    1.08   2
  -3   3  -5   -0.46    0.92   2
  -3  -3  -6   84.29    3.96   2
  -3   3  -6   89.66    3.81   2
  -3  -3  -7   21.48    2.54   2
  -3   3  -7   22.49    2.30   2
  -3  -3  -8  113.63    5.16   2
  -3   3  -8  110.04    4.53   2
  -3  -3  -9   35.21    3.74   2
  -3   3  -9   34.51    3.35   2
  -3  -3 -10   61.55    4.62   2
  -3   3 -10   59.07    4.27   2
  -3  -3 -11    3.46    2.44   2
  -3   3 -11    4.75    2.28   2
  -3  -3 -12    2.81    2.42   2
  -3   3 -12    4.77    2.44   2
   3  -4 -12   22.75    3.57   2
   3  -4 -11    4.64    2.52   2
   3  -4 -10   -1.06    1.84   2
   3  -4  -9   28.55    3.50   2
   3  -4  -8    7.41    2.11   2
   3  -4  -7   44.80    3.58   2
   3  -4  -6    5.51    2.01   2
   3  -4  -5  210.69    5.79   2
   3  -4  -4  605.33    9.28   2
   3  -4  -3    6.30    1.43   2
  -3   4   2   10.72    1.48   2
  -3   4   1   10.08    1.37   2
  -3  -4   0    4.61    0.80   2
  -3   4   0    3.53    1.03   2
  -3  -4  -1   11.03    1.17   2
  -3   4  -1    9.57    1.29   2
  -3  -4  -2  206.59    4.30   2
  -3   4  -2  212.43    4.46   2
  -3  -4  -3  300.75    5.68   2
  -3   4  -3  310.04    5.48   2
  -3  -4  -4    9.51    1.70   2
  -3   4  -4   10.61    1.46   2
  -3  -4  -5  688.17   10.13   2
  -3   4  -5  684.43    8.86   2
  -3  -4  -6    5.97    1.79   2
  -3   4  -6    4.15    1.44   2
  -3  -4  -7   18.92    2.52   2
  -3   4  -7   21.64    2.23   2
  -3  -4  -8    0.81    1.66   2
  -3   4  -8    1.61    1.51   2
  -3  -4  -9   10.95    2.50   2
  -3  -4 -10    1.25    2.08   2
  -3  -4 -11   -1.03    2.13   2
   3  -5 -11    1.26    2.17   2
   3  -5 -10    4.90    2.45   2
   3  -5  -9    9.70    2.48   2
   3  -5  -8    3.08    1.98   2
   3  -5  -7   40.70    3.58   2
   3  -5  -6   35.74    3.45   2
   3  -5  -5   15.99    2.35   2
   3  -5  -4  141.37    4.92   2
   3  -5  -3    6.09    1.63   2
   3  -5  -2   61.12    3.14   2
  -3   5   1    4.85    1.15   2
  -3   5   0   50.13    2.51   2
  -3   5  -1   14.86    1.49   2
  -3   5  -2   15.62    1.73   2
  -3  -5  -4  797.75   10.72   2
  -3  -5  -5  105.53    4.45   2
  -3  -5  -6    5.71    1.89   2
  -3  -5  -7   -1.37    1.59   2
  -3  -5  -8    0.37    1.76   2
  -3  -5  -9   17.99    3.04   2
  -3  -5 -10   -0.23    2.20   2
   3  -6  -9    1.03    2.33   2
   3  -6  -8   37.52    3.83   2
   3  -6  -7   23.06    2.94   2
   3  -6  -6    5.12    2.06   2
   3  -6  -5   36.24    3.57   2
   4   0 -13    1.19    2.24   2
   4   0 -12   65.76    4.69   2
   4   0 -11   -1.12    1.66   2
   4   0 -10   18.72    2.54   2
   4   0  -9    0.41    1.61   2
   4   0  -8    8.84    1.81   2
   4   0  -7    0.22    1.09   2
   4   0  -6  166.27    4.53   2
  -4   0   5   -0.24    0.97   2
  -4   0   4 4055.23   27.86   2
  -4   0   3   12.27    1.29   2
  -4   0   2 1796.11   14.53   2
  -4   0   1    0.12    0.60   2
  -4   0   0  148.94    3.44   2
  -4   0  -1   -0.11    0.71   2
  -4   0  -2 1104.84   10.78   2
  -4   0  -3   -0.19    0.82   2
  -4   0  -4   -0.12    0.95   2
  -4   0  -5   -0.57    1.14   2
  -4   0  -6  154.16    4.91   2
  -4   0  -7    0.01    1.33   2
  -4   0  -8   39.62    3.40   2
  -4   0  -9   -0.77    1.63   2
  -4   0 -10   29.04    3.60   2
  -4   0 -11    0.09    2.07   2
  -4   0 -12    8.29    2.67   2
   4  -1 -13    1.49    2.35   2
   4   1 -13    1.17    2.27   2
   4  -1 -12   23.14    3.55   2
   4   1 -12   23.93    3.09   2
   4  -1 -11   -1.37    1.71   2
   4   1 -11    0.18    1.67   2
   4  -1 -10    1.38    1.75   2
   4   1 -10    0.06    1.57   2
   4  -1  -9  155.00    5.75   2
   4   1  -9  158.12    5.26   2
   4  -1  -8   74.02    4.00   2
   4   1  -8   75.82    3.69   2
   4  -1  -7  552.31    9.02   2
   4   1  -7  543.44    8.27   2
   4  -1  -6   27.38    2.52   2
   4   1  -6   27.44    2.10   2
  -4   1   5  487.29    7.94   2
   4   1  -5  488.08    6.96   2
  -4  -1   4 2585.98   19.19   2
  -4   1   4 2590.76   20.49   2
  -4  -1   3   56.11    2.42   2
  -4   1   3   47.26    2.36   2
  -4  -1   2    0.75    0.66   2
  -4   1   2    0.35    0.77   2
  -4  -1   1  282.91    4.50   2
  -4   1   1  279.53    4.90   2
  -4  -1   0  549.04    6.60   2
  -4   1   0  550.55    6.95   2
  -4  -1  -1  254.13    4.63   2
  -4   1  -1  255.41    4.76   2
  -4  -1  -2  859.01    9.28   2
  -4   1  -2  846.80    9.20   2
  -4  -1  -3    3.88    1.15   2
  -4   1  -3    3.07    1.09   2
  -4  -1  -4  683.91    8.72   2
  -4   1  -4  737.44    9.41   2
  -4  -1  -5  147.20    4.67   2
  -4   1  -5  154.35    4.58   2
  -4  -1  -6  215.81    5.74   2
  -4   1  -6  220.03    5.55   2
  -4  -1  -7    9.34    1.94   2
  -4   1  -7    7.13    1.72   2
  -4  -1  -8   22.19    2.70   2
  -4   1  -8   22.55    2.64   2
  -4  -1  -9   -1.31    1.59   2
  -4   1  -9   -1.47    1.54   2
  -4  -1 -10    8.25    2.30   2
  -4   1 -10    8.52    2.36   2
  -4  -1 -11   11.48    2.65   2
  -4   1 -11   11.72    2.85   2
  -4  -1 -12    1.49    2.33   2
  -4   1 -12   -0.90    2.14   2
   4  -2 -13    8.82    2.79   2
   4  -2 -12    1.05    2.25   2
   4   2 -12    1.50    1.99   2
   4  -2 -11    0.84    1.95   2
   4   2 -11    1.81    1.68   2
   4  -2 -10   83.55    4.90   2
   4   2 -10   83.94    4.35   2
   4  -2  -9  559.55   10.71   2
   4   2  -9  561.89    9.30   2
   4  -2  -8  707.42   11.49   2
   4   2  -8  713.40    9.88   2
   4  -2  -7  103.82    4.43   2
   4   2  -7  105.49    3.64   2
   4  -2  -6  191.79    5.40   2
   4   2  -6  196.10    4.36   2
   4  -2  -5  104.93    3.90   2
   4   2  -5  104.28    3.08   2
  -4  -2   4    9.17    1.13   2
  -4   2   4    6.99    1.49   2
  -4  -2   3    1.91    0.73   2
  -4   2   3    2.09    0.99   2
  -4  -2   2   47.47    1.99   2
  -4   2   2   48.77    2.57   2
  -4  -2   1 3333.50   22.39   2
  -4   2   1 3353.43   24.00   2
  -4  -2   0 2564.70   18.35   2
  -4   2   0 2541.45   19.40   2
  -4  -2  -1 7294.17   44.24   2
  -4   2  -1 7311.65   44.97   2
  -4  -2  -2  793.42    8.97   2
  -4   2  -2  790.01    9.15   2
  -4  -2  -3  277.05    5.35   2
  -4   2  -3  274.64    5.36   2
  -4  -2  -4    7.47    1.42   2
  -4   2  -4    7.83    1.39   2
  -4  -2  -5  241.36    5.68   2
  -4   2  -5  239.02    5.63   2
  -4  -2  -6   -0.55    1.12   2
  -4   2  -6    0.52    1.23   2
  -4  -2  -7   11.24    1.91   2
  -4   2  -7   11.18    1.92   2
  -4  -2  -8    4.35    2.06   2
  -4   2  -8    6.03    1.87   2
  -4  -2  -9   56.94    4.26   2
  -4   2  -9   67.72    4.29   2
  -4  -2 -10   25.63    3.22   2
  -4   2 -10   25.84    2.95   2
  -4  -2 -11   25.27    3.41   2
  -4   2 -11   25.66    3.19   2
  -4  -2 -12    4.62    2.76   2
  -4   2 -12    5.33    2.57   2
   4  -3 -12    0.32    2.16   2
   4  -3 -11   -0.99    1.93   2
   4  -3 -10    0.20    1.93   2
   4  -3  -9   94.02    5.17   2
   4  -3  -8   24.21    2.91   2
   4   3  -8   24.61    2.30   2
   4  -3  -7  406.60    8.54   2
   4   3  -7  393.44    6.27   2
   4  -3  -6   83.44    4.07   2
   4   3  -6   85.54    2.91   2
   4  -3  -5    4.01    1.51   2
   4   3  -5    2.29    0.96   2
  -4   3   4  407.96    7.44   2
   4   3  -4  410.08    5.08   2
  -4  -3   3   22.45    1.67   2
  -4   3   3   21.49    2.14   2
  -4  -3   2  508.01    5.53   2
  -4   3   2  511.09    7.73   2
  -4  -3   1  142.11    3.03   2
  -4   3   1  134.35    3.92   2
  -4  -3   0  382.81    5.38   2
  -4   3   0  379.07    6.33   2
  -4  -3  -1 1282.09   11.65   2
  -4   3  -1 1291.27   12.51   2
  -4  -3  -2    1.63    0.93   2
  -4   3  -2    1.95    1.06   2
  -4  -3  -3  465.47    7.30   2
  -4   3  -3  473.35    7.28   2
  -4  -3  -4  865.80   10.75   2
  -4   3  -4  871.24   10.43   2
  -4  -3  -5   68.51    3.58   2
  -4   3  -5   68.22    3.40   2
  -4  -3  -6   24.01    2.99   2
  -4   3  -6   26.22    2.94   2
  -4  -3  -7    0.80    1.53   2
  -4   3  -7    0.22    1.40   2
  -4  -3  -8    0.26    1.75   2
  -4   3  -8   -0.94    1.57   2
  -4  -3  -9    0.96    2.00   2
  -4   3  -9   -0.64    1.82   2
  -4  -3 -10    2.38    2.32   2
  -4   3 -10    8.03    2.60   2
  -4  -3 -11    1.41    2.30   2
  -4   3 -11    3.33    2.45   2
   4  -4 -12   31.41    3.92   2
   4  -4 -11    2.06    2.25   2
   4  -4 -10    3.98    2.29   2
   4  -4  -9    3.30    2.14   2
   4  -4  -8    2.49    1.83   2
   4  -4  -7   10.80    2.18   2
   4  -4  -6  138.13    5.62   2
   4  -4  -5  626.10   10.29   2
   4  -4  -4  114.56    4.36   2
  -4   4   3  184.41    5.10   2
  -4   4   2  134.87    4.18   2
  -4   4   1    0.71    1.09   2
  -4  -4   0  108.06    2.92   2
  -4   4   0  102.76    3.69   2
  -4  -4  -1   10.14    1.31   2
  -4   4  -1    8.23    1.46   2
  -4  -4  -2   61.86    3.00   2
  -4   4  -2   62.46    3.15   2
  -4  -4  -3  494.92    7.72   2
  -4   4  -3  498.18    7.67   2
  -4  -4  -4  808.47   10.71   2
  -4   4  -4  811.95   10.19   2
  -4  -4  -5  557.43    9.46   2
  -4   4  -5  558.77    8.66   2
  -4  -4  -6    7.80    2.09   2
  -4   4  -6   11.70    2.47   2
  -4  -4  -7    5.99    1.92   2
  -4   4  -7    5.52    1.69   2
  -4  -4  -8    3.01    1.88   2
  -4   4  -8    2.33    1.74   2
  -4  -4  -9   13.86    2.78   2
  -4  -4 -10   22.29    3.37   2
  -4  -4 -11    1.22    2.13   2
   4  -5 -10   -1.82    1.98   2
   4  -5  -9    4.77    2.41   2
   4  -5  -8   -0.23    1.81   2
   4  -5  -7   11.87    2.77   2
   4  -5  -6   22.50    2.80   2
   4  -5  -5    2.23    1.68   2
   4  -5  -4   59.96    3.84   2
   4  -5  -3  281.91    6.63   2
  -4   5   2    0.18    1.19   2
  -4   5   1   17.61    2.02   2
  -4   5   0   20.17    2.25   2
  -4   5  -1   17.76    2.13   2
  -4   5  -2    2.19    1.27   2
  -4   5  -3   76.37    3.56   2
  -4  -5  -4   17.11    2.16   2
  -4  -5  -5    0.36    1.50   2
  -4  -5  -6    4.33    1.86   2
  -4  -5  -7   16.18    2.52   2
  -4  -5  -8    0.18    1.93   2
  -4  -5  -9   20.43    3.25   2
   4  -6  -9   -0.86    2.12   2
   4  -6  -8   21.85    3.15   2
   4  -6  -7   24.75    3.21   2
   4  -6  -6    9.89    2.29   2
   4  -6  -5   12.29    2.36   2
   4  -6  -4   39.53    3.42   2
   5   0 -13   50.24    4.74   2
   5   0 -12    2.00    2.22   2
   5   0 -11    5.65    2.22   2
   5   0 -10   -0.29    1.67   2
   5   0  -9    1.95    1.66   2
   5   0  -8   -1.38    1.17   2
   5   0  -7   39.64    3.03   2
   5   0  -6   -1.77    1.09   2
  -5   0   5  688.91    9.40   2
  -5   0   4   -0.40    0.92   2
  -5   0   3 2675.83   20.75   2
  -5   0   2    2.31    0.95   2
  -5   0   1    8.47    1.15   2
  -5   0   0    0.06    0.84   2
  -5   0  -1 1587.59   14.35   2
  -5   0  -2   -0.21    0.90   2
  -5   0  -3    4.87    1.27   2
  -5   0  -4    0.39    1.01   2
  -5   0  -5  465.49    8.21   2
  -5   0  -6   -1.18    1.17   2
  -5   0  -7   59.40    3.72   2
  -5   0  -8   -0.52    1.51   2
  -5   0  -9  112.56    5.46   2
  -5   0 -10   -0.85    1.91   2
  -5   0 -11   -1.04    2.11   2
  -5   0 -12   -1.74    2.21   2
   5  -1 -13   12.62    3.06   2
   5   1 -13   13.99    2.99   2
   5  -1 -12    9.18    2.67   2
   5   1 -12   10.35    2.59   2
   5  -1 -11    1.76    2.01   2
   5   1 -11    1.87    1.79   2
   5  -1 -10    8.87    2.30   2
   5   1 -10   12.14    2.29   2
   5  -1  -9   98.38    4.86   2
   5   1  -9  103.04    4.51   2
   5  -1  -8  245.02    6.62   2
   5   1  -8  245.20    6.19   2
   5  -1  -7   -0.07    1.36   2
   5   1  -7   -0.78    1.05   2
   5  -1  -6   29.88    2.91   2
   5   1  -6   30.14    2.56   2
  -5  -1   5   42.40    2.69   2
  -5   1   5   42.72    2.94   2
  -5  -1   4  169.70    4.33   2
  -5   1   4  170.73    4.68   2
  -5  -1   3  397.62    6.07   2
  -5   1   3  390.33    6.57   2
  -5  -1   2   25.20    1.87   2
  -5   1   2   24.79    2.25   2
  -5  -1   1  618.85    7.66   2
  -5   1   1  616.06    8.12   2
  -5  -1   0 1156.33   11.20   2
  -5   1   0 1156.71   11.75   2
  -5  -1  -1    4.17    1.14   2
  -5   1  -1    5.40    1.25   2
  -5  -1  -2 1098.60   11.57   2
  -5   1  -2 1111.68   11.76   2
  -5  -1  -3   33.66    2.44   2
  -5   1  -3   34.59    2.91   2
  -5  -1  -4  198.86    5.21   2
  -5   1  -4  204.49    5.33   2
  -5  -1  -5    3.93    1.49   2
  -5   1  -5    4.63    1.43   2
  -5  -1  -6   85.36    4.11   2
  -5   1  -6   86.25    4.01   2
  -5  -1  -7    5.29    1.69   2
  -5   1  -7    6.85    1.81   2
  -5  -1  -8   21.87    2.81   2
  -5   1  -8   20.49    2.61   2
  -5  -1  -9   10.87    2.50   2
  -5   1  -9    9.11    2.22   2
  -5  -1 -10    0.63    1.97   2
  -5   1 -10   -0.23    1.80   2
  -5  -1 -11   -0.47    2.00   2
  -5   1 -11   -1.42    1.89   2
  -5  -1 -12    8.08    2.82   2
  -5   1 -12    5.45    2.57   2
   5  -2 -13    0.64    2.47   2
   5  -2 -12    7.84    2.74   2
   5   2 -12    6.85    2.34   2
   5  -2 -11   41.44    4.22   2
   5   2 -11   46.13    3.98   2
   5  -2 -10   22.88    3.06   2
   5   2 -10   22.55    2.57   2
   5  -2  -9   15.43    2.64   2
   5   2  -9   14.44    2.22   2
   5  -2  -8  400.48    8.83   2
   5   2  -8  399.24    7.46   2
   5  -2  -7   32.92    3.41   2
   5   2  -7   30.41    2.57   2
   5  -2  -6  265.16    6.56   2
   5   2  -6  260.11    5.35   2
  -5  -2   5   -0.11    0.99   2
  -5   2   5   -0.44    1.19   2
  -5  -2   4   14.02    1.41   2
  -5   2   4   11.75    1.76   2
  -5  -2   3  206.54    4.19   2
  -5   2   3  204.42    5.09   2
  -5  -2   2   11.44    1.27   2
  -5   2   2   10.05    1.56   2
  -5  -2   1  276.68    4.81   2
  -5   2   1  282.95    5.72   2
  -5  -2   0  145.89    3.81   2
  -5   2   0  146.63    4.26   2
  -5  -2  -1    3.92    1.16   2
  -5   2  -1    2.07    1.16   2
  -5  -2  -2    1.20    1.07   2
  -5   2  -2    1.75    1.22   2
  -5  -2  -3  158.69    4.53   2
  -5   2  -3  160.44    4.65   2
  -5  -2  -4  355.11    6.98   2
  -5   2  -4  360.45    6.99   2
  -5  -2  -5   37.85    3.10   2
  -5   2  -5   43.67    3.49   2
  -5  -2  -6    9.52    1.93   2
  -5   2  -6   11.90    2.02   2
  -5  -2  -7    5.85    1.89   2
  -5   2  -7    5.79    1.83   2
  -5  -2  -8    3.25    1.91   2
  -5   2  -8    2.52    1.92   2
  -5  -2  -9   -0.36    1.91   2
  -5   2  -9   -0.62    1.70   2
  -5  -2 -10   20.13    3.29   2
  -5   2 -10   22.89    3.13   2
  -5  -2 -11    1.27    2.27   2
  -5   2 -11    1.81    2.15   2
   5  -3 -12   -1.88    2.17   2
   5  -3 -11   -2.00    2.00   2
   5  -3 -10   13.51    2.76   2
   5  -3  -9   51.11    4.21   2
   5  -3  -8  213.40    6.92   2
   5   3  -7  241.50    5.21   2
   5  -3  -6    1.15    1.66   2
   5   3  -6    0.10    1.13   2
  -5   3   5  504.60    9.38   2
   5   3  -5  506.80    6.79   2
  -5  -3   4  685.20    7.77   2
  -5   3   4  666.74   10.12   2
  -5  -3   3   19.72    2.01   2
  -5   3   3   18.15    2.03   2
  -5  -3   2   35.28    1.98   2
  -5   3   2   33.54    2.59   2
  -5  -3   1   79.63    2.73   2
  -5   3   1   73.92    3.43   2
  -5  -3   0  695.12    8.10   2
  -5   3   0  677.11    9.28   2
  -5  -3  -1  979.10   10.47   2
  -5   3  -1  963.87   11.27   2
  -5  -3  -2  235.11    5.63   2
  -5   3  -2  228.04    5.41   2
  -5  -3  -3  237.36    5.55   2
  -5   3  -3  247.84    5.66   2
  -5  -3  -4  318.17    6.65   2
  -5   3  -4  328.27    6.71   2
  -5  -3  -5  279.76    6.65   2
  -5   3  -5  311.42    6.98   2
  -5  -3  -6  276.38    7.03   2
  -5   3  -6  280.38    6.75   2
  -5  -3  -7    8.00    2.12   2
  -5   3  -7   11.17    2.20   2
  -5  -3  -8   12.59    2.50   2
  -5   3  -8   11.71    2.42   2
  -5  -3  -9    7.45    2.38   2
  -5   3  -9    8.66    2.42   2
  -5  -3 -10    7.82    2.55   2
  -5   3 -10   10.20    2.61   2
  -5  -3 -11    0.10    2.23   2
  -5   3 -11   -1.88    2.15   2
   5  -4 -11    0.17    2.19   2
   5  -4 -10    1.92    2.33   2
   5  -4  -9   14.66    2.82   2
   5  -4  -8   25.68    3.12   2
   5  -4  -7   15.91    2.58   2
   5  -4  -6   76.60    4.43   2
   5  -4  -5  342.00    7.94   2
  -5   4   4   23.34    2.89   2
  -5   4   3   56.86    3.30   2
  -5   4   2   99.22    3.96   2
  -5   4   1    0.95    1.25   2
  -5  -4   0    0.49    1.21   2
  -5   4   0   -1.16    1.20   2
  -5  -4  -1  455.38    6.96   2
  -5   4  -1  448.69    7.75   2
  -5  -4  -2  248.88    6.00   2
  -5   4  -2  239.69    5.70   2
  -5  -4  -3   12.59    1.89   2
  -5   4  -3   13.06    1.96   2
  -5  -4  -4  167.83    5.27   2
  -5   4  -4  172.01    5.23   2
  -5  -4  -5  210.62    5.91   2
  -5   4  -5  214.09    5.68   2
  -5  -4  -6   33.52    3.29   2
  -5   4  -6   37.80    3.20   2
  -5  -4  -7    2.58    1.82   2
  -5   4  -7    0.52    1.54   2
  -5  -4  -8   18.01    2.87   2
  -5   4  -8   17.84    2.52   2
  -5  -4  -9    5.29    2.37   2
  -5   4  -9    4.20    2.25   2
  -5  -4 -10    1.35    2.22   2
   5  -5 -10    1.01    2.44   2
   5  -5  -9   -0.57    2.22   2
   5  -5  -8    1.03    2.12   2
   5  -5  -7   -0.73    1.77   2
   5  -5  -6   10.80    2.34   2
   5  -5  -5   97.45    4.80   2
   5  -5  -4   60.25    3.86   2
  -5   5   3   60.55    3.69   2
  -5   5   2    0.26    1.28   2
  -5   5   1   22.48    2.56   2
  -5   5   0   87.90    3.76   2
  -5   5  -1   26.09    2.65   2
  -5   5  -2    7.56    1.68   2
  -5   5  -3    1.40    1.37   2
  -5   5  -4   24.30    2.91   2
  -5  -5  -5   69.97    4.11   2
  -5  -5  -6    0.96    1.75   2
  -5  -5  -7    3.01    1.99   2
  -5  -5  -8   -0.64    2.08   2
  -5  -5  -9   30.05    3.70   2
   5  -6  -9    6.75    2.72   2
   5  -6  -8   18.67    3.26   2
   5  -6  -7    3.27    2.17   2
   5  -6  -6    2.83    2.07   2
   5  -6  -5   11.81    2.47   2
   5  -6  -4   15.87    2.57   2
   5  -6  -3   -0.79    1.65   2
  -5   6   2   45.94    3.54   2
  -5   6   1    1.06    1.33   2
   6   0 -13   -0.17    2.36   2
   6   0 -12   39.38    4.28   2
   6   0 -11   -1.55    1.96   2
   6   0 -10   28.12    3.46   2
   6   0  -9   -0.94    1.56   2
   6   0  -8    6.51    1.89   2
   6   0  -7   -2.23    1.32   2
  -6   0   6   45.16    3.15   2
  -6   0   5   -0.54    1.07   2
  -6   0   4  490.77    7.94   2
  -6   0   3   -0.92    0.90   2
  -6   0   2   32.69    2.39   2
  -6   0   1   -1.07    0.85   2
  -6   0   0  805.91    9.95   2
  -6   0  -1   -0.24    0.98   2
  -6   0  -2   54.54    3.11   2
  -6   0  -3   -0.49    1.07   2
  -6   0  -4   11.46    1.84   2
  -6   0  -5   -1.07    1.25   2
  -6   0  -6   51.38    3.61   2
  -6   0  -7   -0.25    1.44   2
  -6   0  -8   58.47    4.17   2
  -6   0  -9   -0.12    1.76   2
  -6   0 -10    3.10    2.21   2
  -6   0 -11   -1.40    2.07   2
   6  -1 -13    0.83    2.50   2
   6   1 -13    3.47    2.38   2
   6  -1 -12   44.11    4.48   2
   6   1 -12   49.23    4.28   2
   6  -1 -11   10.00    2.65   2
   6   1 -11    8.21    2.34   2
   6  -1 -10    8.11    2.31   2
   6   1 -10    6.43    1.97   2
   6  -1  -9   10.87    2.31   2
   6   1  -9   12.20    2.14   2
   6  -1  -8   64.51    4.18   2
   6   1  -8   64.94    3.76   2
   6  -1  -7   28.24    3.22   2
   6   1  -7   29.56    2.85   2
  -6  -1   6    2.69    1.34   2
  -6   1   6    3.38    1.55   2
  -6  -1   5   12.06    1.77   2
  -6   1   5   11.80    1.88   2
  -6  -1   4  719.77    9.37   2
  -6   1   4  676.23    9.65   2
  -6  -1   3  198.28    4.69   2
  -6   1   3  199.49    5.19   2
  -6  -1   2  348.38    6.17   2
  -6   1   2  346.72    6.62   2
  -6  -1   1   15.66    1.67   2
  -6   1   1   12.82    1.65   2
  -6  -1   0 1332.11   13.45   2
  -6   1   0 1320.33   13.93   2
  -6  -1  -1  519.70    7.82   2
  -6   1  -1  525.31    8.03   2
  -6  -1  -2  216.01    5.50   2
  -6   1  -2  205.77    5.22   2
  -6  -1  -3   -0.39    1.10   2
  -6   1  -3   -0.16    1.10   2
  -6  -1  -4    0.47    1.22   2
  -6   1  -4   -0.74    1.35   2
  -6  -1  -5   71.46    3.84   2
  -6   1  -5   70.54    4.14   2
  -6  -1  -6    0.86    1.52   2
  -6   1  -6    1.87    1.63   2
  -6  -1  -7    2.51    1.80   2
  -6   1  -7    1.61    1.66   2
  -6  -1  -8   35.02    3.54   2
  -6   1  -8   34.77    4.26   2
  -6  -1  -9    2.72    2.08   2
  -6   1  -9    3.82    2.14   2
  -6  -1 -10    8.74    2.48   2
  -6   1 -10    8.18    2.51   2
  -6  -1 -11   11.65    2.94   2
  -6   1 -11   15.31    3.08   2
   6  -2 -12   -0.53    2.20   2
   6  -2 -11    3.71    2.35   2
   6   2 -11    4.07    2.09   2
   6  -2 -10    2.92    2.06   2
   6   2 -10    3.02    1.76   2
   6  -2  -9  122.94    5.53   2
   6   2  -9  126.67    4.79   2
   6  -2  -8   32.67    3.67   2
   6   2  -8   31.14    2.93   2
   6  -2  -7  241.85    6.97   2
   6   2  -7  248.58    5.94   2
  -6   2   6   11.32    2.17   2
  -6  -2   5  186.43    4.90   2
  -6   2   5  186.69    5.70   2
  -6  -2   4  512.94    7.67   2
  -6   2   4  492.45    8.70   2
  -6  -2   3 1095.78   11.40   2
  -6   2   3 1094.21   13.07   2
  -6  -2   2   41.00    2.39   2
  -6   2   2   40.49    2.95   2
  -6  -2   1  364.35    6.09   2
  -6   2   1  359.71    6.90   2
  -6  -2   0   17.48    1.72   2
  -6   2   0   17.87    1.98   2
  -6  -2  -1   72.37    3.38   2
  -6   2  -1   72.12    3.47   2
  -6  -2  -2   24.20    2.17   2
  -6   2  -2   23.10    2.50   2
  -6  -2  -3  170.20    5.40   2
  -6   2  -3  168.54    5.13   2
  -6  -2  -4  298.22    6.82   2
  -6   2  -4  321.51    7.48   2
  -6  -2  -5  650.42   10.59   2
  -6   2  -5  660.07   10.39   2
  -6  -2  -6   85.12    4.32   2
  -6   2  -6   92.09    4.63   2
  -6  -2  -7    5.49    1.98   2
  -6   2  -7    2.52    1.79   2
  -6  -2  -8   -2.27    1.48   2
  -6   2  -8   -1.93    1.65   2
  -6  -2  -9   -1.63    1.93   2
  -6   2  -9   -2.04    1.84   2
  -6  -2 -10    9.65    2.83   2
  -6   2 -10   10.74    2.85   2
  -6  -2 -11   -0.51    2.11   2
  -6   2 -11   -2.24    2.24   2
   6  -3 -12    1.90    2.70   2
   6  -3 -11    1.71    2.24   2
   6  -3 -10    1.95    2.15   2
   6  -3  -9   74.29    4.75   2
   6  -3  -8  395.14    9.52   2
   6  -3  -7  219.52    7.01   2
   6   3  -7  208.18    5.12   2
   6  -3  -6  138.93    5.55   2
   6   3  -6  130.84    4.08   2
  -6   3   5  446.08    9.14   2
  -6  -3   4  814.22    9.48   2
  -6   3   4  783.67   11.75   2
  -6  -3   3   10.17    1.47   2
  -6   3   3    7.00    1.63   2
  -6  -3   2    5.30    1.18   2
  -6   3   2    6.39    1.54   2
  -6  -3   1    0.99    1.00   2
  -6   3   1   -0.05    1.18   2
  -6  -3   0  490.61    7.26   2
  -6   3   0  505.54    8.47   2
  -6  -3  -1    9.79    1.60   2
  -6   3  -1   11.23    1.87   2
  -6  -3  -2  287.01    6.25   2
  -6   3  -2  295.30    6.70   2
  -6  -3  -3  133.76    5.22   2
  -6   3  -3  130.12    4.80   2
  -6  -3  -4  146.34    5.06   2
  -6   3  -4  149.71    5.22   2
  -6  -3  -5  421.36    8.65   2
  -6   3  -5  419.66    8.47   2
  -6  -3  -6   14.88    2.44   2
  -6   3  -6   16.58    2.49   2
  -6  -3  -7    3.98    1.91   2
  -6   3  -7    2.04    1.82   2
  -6  -3  -8   -0.73    1.96   2
  -6   3  -8    1.08    2.24   2
  -6  -3  -9    6.32    2.50   2
  -6   3  -9    8.67    2.48   2
  -6  -3 -10    0.15    2.38   2
  -6   3 -10   -0.02    2.20   2
   6  -4 -11    0.75    2.58   2
   6  -4 -10   -1.73    2.00   2
   6  -4  -9   41.92    4.20   2
   6  -4  -8  126.24    5.80   2
   6  -4  -7   42.30    4.00   2
   6  -4  -6    3.19    1.99   2
  -6   4   5   37.69    3.55   2
  -6   4   4  101.62    4.59   2
  -6   4   3  100.41    4.37   2
  -6   4   2   61.88    3.62   2
  -6   4   1   11.83    2.04   2
  -6   4   0   72.82    3.99   2
  -6  -4  -1  410.88    7.08   2
  -6   4  -1  419.75    8.08   2
  -6  -4  -2  151.09    4.82   2
  -6   4  -2  151.82    5.04   2
  -6  -4  -3   -1.35    1.30   2
  -6   4  -3    0.67    1.45   2
  -6  -4  -4  127.22    4.82   2
  -6   4  -4  129.41    4.85   2
  -6  -4  -5    2.02    1.57   2
  -6   4  -5    0.91    1.52   2
  -6  -4  -6   17.88    2.53   2
  -6   4  -6   19.81    2.50   2
  -6  -4  -7    4.57    2.04   2
  -6   4  -7    4.59    1.93   2
  -6  -4  -8   13.84    2.90   2
  -6   4  -8   15.41    2.84   2
  -6  -4  -9   11.77    2.97   2
  -6   4  -9   13.33    3.06   2
   6  -5 -10    6.09    2.74   2
   6  -5  -9    1.09    2.58   2
   6  -5  -8   -0.33    2.10   2
   6  -5  -7   26.78    3.16   2
   6  -5  -6    1.74    1.93   2
   6  -5  -5   11.06    2.42   2
  -6   5   4   14.94    2.47   2
  -6   5   3    1.46    1.56   2
  -6   5   2    0.97    1.51   2
  -6   5   1   84.35    4.11   2
  -6   5   0    5.37    1.73   2
  -6   5  -1   11.01    2.02   2
  -6   5  -2    5.48    1.76   2
  -6   5  -3   33.94    3.27   2
  -6   5  -4   24.84    2.64   2
  -6  -5  -5   14.06    2.34   2
  -6   5  -5   15.15    2.28   2
  -6  -5  -6   17.75    2.60   2
  -6  -5  -7    4.18    2.11   2
  -6  -5  -8    2.32    2.29   2
   6  -6  -8    4.68    2.51   2
   6  -6  -7    0.68    2.09   2
   6  -6  -6   -0.09    1.96   2
   6  -6  -5    9.92    2.55   2
   6  -6  -4   23.16    3.02   2
  -6   6   3    5.52    2.08   2
  -6   6   2   14.61    2.29   2
  -6   6   1    2.76    1.66   2
  -6   6   0   31.38    3.13   2
   7   0 -12    1.22    2.13   2
   7   0 -11   11.11    2.62   2
   7   0 -10   -1.61    1.73   2
   7   0  -9   35.14    3.72   2
   7   0  -8    0.71    1.59   2
  -7   0   7  203.46    6.33   2
  -7   0   6   -0.27    1.27   2
  -7   0   5    2.26    1.42   2
  -7   0   4    0.60    1.19   2
  -7   0   3  160.35    4.85   2
  -7   0   2   -0.48    1.10   2
  -7   0   1  403.33    7.35   2
  -7   0   0   -1.13    1.10   2
  -7   0  -1  630.68    9.62   2
  -7   0  -2   -0.26    1.25   2
  -7   0  -3  160.54    5.21   2
  -7   0  -4   -0.52    1.35   2
  -7   0  -5  110.44    4.93   2
  -7   0  -6    1.54    1.69   2
  -7   0  -7   -1.43    1.63   2
  -7   0  -8   -0.66    1.89   2
  -7   0  -9   41.97    4.04   2
  -7   0 -10    0.57    2.11   2
  -7   0 -11   -1.72    2.11   2
   7  -1 -12   16.94    3.46   2
   7   1 -12   13.35    2.89   2
   7  -1 -11   11.75    2.98   2
   7   1 -11    8.23    2.43   2
   7  -1 -10   33.34    3.81   2
   7   1 -10   30.94    3.59   2
   7  -1  -9   29.97    3.62   2
   7   1  -9   31.49    3.48   2
   7  -1  -8   35.97    3.72   2
   7   1  -8   34.94    3.27   2
  -7  -1   7    5.44    1.71   2
  -7   1   7    5.19    1.84   2
  -7  -1   6   43.82    3.46   2
  -7   1   6   39.87    3.41   2
  -7  -1   5   22.11    2.33   2
  -7   1   5   24.63    2.62   2
  -7  -1   4  396.85    7.45   2
  -7   1   4  403.61    8.22   2
  -7  -1   3   20.67    2.37   2
  -7   1   3   19.88    2.26   2
  -7  -1   2   37.98    2.73   2
  -7   1   2   37.67    2.95   2
  -7  -1   1   99.76    3.87   2
  -7   1   1   99.52    4.06   2
  -7  -1   0    0.48    1.14   2
  -7   1   0    0.41    1.18   2
  -7  -1  -1  120.10    4.23   2
  -7   1  -1  122.53    4.40   2
  -7  -1  -2   -0.91    1.11   2
  -7   1  -2   -0.50    1.21   2
  -7  -1  -3   -0.53    1.32   2
  -7   1  -3   -0.78    1.27   2
  -7  -1  -4   12.39    2.13   2
  -7   1  -4   11.99    2.08   2
  -7  -1  -5  132.88    5.42   2
  -7   1  -5  139.52    5.73   2
  -7  -1  -6  104.48    5.31   2
  -7   1  -6  101.47    5.00   2
  -7  -1  -7   10.72    2.35   2
  -7   1  -7   11.89    2.42   2
  -7  -1  -8    1.50    1.87   2
  -7   1  -8    0.57    1.91   2
  -7  -1  -9    8.04    2.40   2
  -7   1  -9    7.71    2.53   2
  -7  -1 -10   13.64    3.03   2
  -7   1 -10   13.81    3.10   2
   7  -2 -12   -0.04    2.49   2
   7  -2 -11   13.13    3.04   2
   7   2 -11   10.52    2.51   2
   7  -2 -10    2.11    2.03   2
   7   2 -10    1.94    1.79   2
   7  -2  -9    0.20    1.85   2
   7   2  -9   -0.74    1.55   2
   7  -2  -8    5.66    2.24   2
   7   2  -8    5.79    1.72   2
  -7   2   7   61.88    4.27   2
   7  -2  -7   63.83    4.36   2
   7   2  -7   63.77    3.90   2
  -7  -2   6   31.48    3.08   2
  -7   2   6   31.39    3.61   2
  -7  -2   5    2.48    1.52   2
  -7   2   5    4.74    2.06   2
  -7  -2   4  798.54   10.45   2
  -7   2   4  718.69   10.79   2
  -7  -2   3   19.90    2.38   2
  -7   2   3   18.64    2.31   2
  -7  -2   2   32.57    2.51   2
  -7   2   2   34.18    3.06   2
  -7  -2   1   18.40    2.30   2
  -7   2   1   20.16    2.21   2
  -7  -2   0  112.39    4.10   2
  -7   2   0  108.22    4.30   2
  -7  -2  -1    6.43    1.86   2
  -7   2  -1    7.31    1.76   2
  -7  -2  -2  200.75    5.52   2
  -7   2  -2  204.46    5.81   2
  -7  -2  -3   26.12    2.72   2
  -7   2  -3   27.61    2.99   2
  -7  -2  -4  471.32    9.11   2
  -7   2  -4  474.49    9.18   2
  -7  -2  -5   19.07    2.78   2
  -7   2  -5   23.08    2.96   2
  -7  -2  -6  115.34    5.21   2
  -7   2  -6  124.39    5.34   2
  -7  -2  -7    1.28    1.80   2
  -7   2  -7   -0.74    1.80   2
  -7  -2  -8    7.36    2.37   2
  -7   2  -8    7.35    2.31   2
  -7  -2  -9   -0.51    1.92   2
  -7   2  -9    0.81    2.18   2
  -7  -2 -10    4.59    2.52   2
  -7   2 -10    4.63    2.57   2
   7  -3 -11   13.65    3.12   2
   7  -3 -10    0.66    2.21   2
   7  -3  -9   19.50    2.91   2
   7  -3  -8   52.42    4.46   2
   7  -3  -7   69.01    4.65   2
  -7   3   6   22.25    2.91   2
  -7   3   5  186.34    6.31   2
  -7  -3   4  465.71    7.65   2
  -7   3   4  459.38    9.30   2
  -7  -3   3   46.69    2.78   2
  -7   3   3   50.09    3.64   2
  -7  -3   2  212.91    5.05   2
  -7   3   2  209.87    6.06   2
  -7  -3   1   13.43    1.76   2
  -7   3   1   17.21    2.23   2
  -7  -3   0   79.24    3.43   2
  -7   3   0   80.78    4.05   2
  -7  -3  -1   35.05    2.98   2
  -7   3  -1   37.06    3.26   2
  -7  -3  -2    3.48    1.58   2
  -7   3  -2    3.33    1.76   2
  -7  -3  -3  131.47    5.06   2
  -7   3  -3  132.25    5.12   2
  -7  -3  -4   -0.77    1.62   2
  -7   3  -4   -2.68    1.61   2
  -7  -3  -5  125.13    6.32   2
  -7   3  -5  114.02    5.11   2
  -7  -3  -6   28.23    3.40   2
  -7   3  -6   28.60    3.42   2
  -7  -3  -7   25.53    3.12   2
  -7   3  -7   24.95    3.05   2
  -7  -3  -8    1.53    2.08   2
  -7   3  -8   -0.74    1.94   2
  -7  -3  -9   25.90    3.55   2
  -7   3  -9   30.98    3.55   2
   7  -4 -10    1.33    2.51   2
   7  -4  -9   15.43    3.15   2
   7  -4  -8   21.64    3.32   2
   7  -4  -7   86.23    5.11   2
   7  -4  -6   64.81    4.40   2
  -7   4   5    7.67    2.22   2
  -7   4   4    2.37    1.73   2
  -7   4   3    1.34    1.62   2
  -7   4   2    0.45    1.61   2
  -7   4   1   -1.70    1.36   2
  -7   4   0  107.64    4.74   2
  -7  -4  -1   56.03    3.50   2
  -7   4  -1   54.15    3.75   2
  -7  -4  -2   31.80    3.21   2
  -7   4  -2   29.67    3.22   2
  -7  -4  -3    3.23    1.66   2
  -7   4  -3    2.65    1.58   2
  -7  -4  -4    0.68    1.64   2
  -7   4  -4   -0.64    1.49   2
  -7  -4  -5   30.46    3.24   2
  -7   4  -5   24.24    2.85   2
  -7  -4  -6    9.39    2.30   2
  -7   4  -6    9.31    2.27   2
  -7  -4  -7    1.14    2.03   2
  -7   4  -7    0.93    1.96   2
  -7  -4  -8   15.52    3.03   2
  -7   4  -8   14.94    2.85   2
  -7  -4  -9    2.51    2.39   2
  -7   4  -9    1.89    2.37   2
   7  -5  -9    0.97    2.49   2
   7  -5  -8   78.23    5.32   2
   7  -5  -7   19.72    3.21   2
   7  -5  -6    2.58    2.19   2
  -7   5   5    0.97    1.67   2
  -7   5   4    6.52    2.10   2
  -7   5   3   23.60    2.83   2
  -7   5   2   15.52    2.43   2
  -7   5   1   22.51    2.70   2
  -7   5   0   49.27    3.93   2
  -7   5  -1   38.09    3.53   2
  -7   5  -2   97.96    4.75   2
  -7   5  -3   15.50    2.38   2
  -7   5  -4   10.46    2.23   2
  -7   5  -5   10.60    2.15   2
  -7  -5  -7   -3.29    1.78   2
   7  -6  -7    3.56    2.43   2
   7  -6  -6    0.15    2.17   2
   7  -6  -5    3.17    2.25   2
   7  -6  -4   55.18    4.41   2
  -7   6   3    9.27    2.29   2
  -7   6   2    8.06    2.10   2
  -7   6   1   11.34    2.32   2
  -7   6   0   11.67    2.52   2
   8   0 -12    0.14    2.27   2
   8   0 -11   -1.67    1.86   2
   8   0 -10   16.14    2.82   2
   8   0  -9    3.27    2.07   2
   8   0  -8  162.01    6.11   2
  -8   0   7    0.20    1.61   2
  -8   0   6    5.51    1.88   2
  -8   0   5   -1.11    1.39   2
  -8   0   4   30.24    3.14   2
  -8   0   3    0.25    1.29   2
  -8   0   2   82.88    3.92   2
  -8   0   1   -0.52    1.21   2
  -8   0   0  110.69    4.50   2
  -8   0  -1   -1.41    1.30   2
  -8   0  -2  407.34    8.30   2
  -8   0  -3    0.60    1.51   2
  -8   0  -4  185.70    6.21   2
  -8   0  -5    0.31    1.89   2
  -8   0  -6   97.35    5.29   2
  -8   0  -7    1.11    1.94   2
  -8   0  -8   22.95    3.28   2
  -8   0  -9    0.13    2.11   2
  -8   0 -10    1.99    2.45   2
   8  -1 -12    3.70    2.59   2
   8   1 -12    6.98    2.86   2
   8  -1 -11    1.96    2.30   2
   8   1 -11    0.69    1.98   2
   8  -1 -10   15.48    3.06   2
   8   1 -10   13.82    2.63   2
   8  -1  -9   17.98    2.96   2
   8   1  -9   17.86    2.70   2
   8  -1  -8   50.49    4.12   2
   8   1  -8   53.02    3.94   2
  -8  -1   7   -0.97    1.50   2
  -8   1   7   -1.55    1.59   2
  -8  -1   6   20.10    2.52   2
  -8   1   6   19.67    2.69   2
  -8  -1   5  207.76    5.91   2
  -8   1   5  222.69    6.57   2
  -8  -1   4   11.22    2.16   2
  -8   1   4   10.73    2.20   2
  -8  -1   3  365.73    7.52   2
  -8   1   3  364.44    8.04   2
  -8  -1   2    5.14    1.65   2
  -8   1   2    3.39    1.65   2
  -8  -1   1   68.87    3.63   2
  -8   1   1   72.95    3.87   2
  -8  -1   0  291.06    6.70   2
  -8   1   0  294.02    6.98   2
  -8  -1  -1    6.10    1.71   2
  -8   1  -1    6.92    1.76   2
  -8  -1  -2    8.96    1.95   2
  -8   1  -2    7.27    1.87   2
  -8  -1  -3   27.54    3.42   2
  -8   1  -3   33.29    3.32   2
  -8  -1  -4   -0.55    1.82   2
  -8   1  -4    2.94    1.84   2
  -8  -1  -5  185.25    6.56   2
  -8   1  -5  173.30    6.31   2
  -8  -1  -6   84.70    5.04   2
  -8   1  -6   74.63    4.77   2
  -8  -1  -7   23.67    3.06   2
  -8   1  -7   22.91    3.22   2
  -8  -1  -8    3.33    2.30   2
  -8   1  -8    2.45    2.27   2
  -8  -1  -9    8.79    2.78   2
  -8   1  -9    6.63    2.48   2
  -8  -1 -10   -0.44    2.24   2
  -8   1 -10    0.04    2.40   2
   8  -2 -11   41.25    4.70   2
   8  -2 -10   -0.98    1.86   2
   8   2 -10    0.39    1.79   2
   8  -2  -9    4.57    2.35   2
   8   2  -9    1.84    1.76   2
   8  -2  -8    1.61    2.04   2
   8   2  -8    3.09    1.82   2
  -8  -2   7   21.10    2.65   2
  -8   2   7   23.51    3.07   2
  -8  -2   6   67.78    4.09   2
  -8   2   6   59.23    4.22   2
  -8  -2   5    5.96    2.03   2
  -8   2   5    5.44    2.22   2
  -8  -2   4  318.43    7.09   2
  -8   2   4  309.13    7.89   2
  -8  -2   3  957.09   12.20   2
  -8   2   3  970.68   13.71   2
  -8  -2   2   44.49    3.14   2
  -8   2   2   45.76    3.65   2
  -8  -2   1    0.39    1.18   2
  -8   2   1   -0.18    1.38   2
  -8  -2   0  116.76    4.38   2
  -8   2   0  115.22    4.83   2
  -8  -2  -1  167.40    5.26   2
  -8   2  -1  174.99    5.79   2
  -8  -2  -2    7.35    1.94   2
  -8   2  -2   10.51    2.06   2
  -8  -2  -3   -2.59    1.51   2
  -8   2  -3   -1.79    1.57   2
  -8  -2  -4  102.60    5.03   2
  -8   2  -4  106.34    5.06   2
  -8  -2  -5    5.38    2.18   2
  -8   2  -5    3.38    2.12   2
  -8  -2  -6   64.71    4.68   2
  -8   2  -6   74.00    4.71   2
  -8  -2  -7    1.39    2.10   2
  -8   2  -7   -0.03    1.93   2
  -8  -2  -8    0.21    2.14   2
  -8   2  -8    3.08    2.26   2
  -8  -2  -9    5.27    2.46   2
  -8   2  -9    7.16    2.91   2
   8  -3 -11    2.68    2.66   2
   8  -3 -10   -0.86    2.05   2
   8  -3  -9    1.62    2.22   2
   8  -3  -8   30.11    3.54   2
  -8   3   7   15.46    2.91   2
  -8   3   6   49.00    4.12   2
  -8   3   5   42.33    3.91   2
  -8   3   4    1.65    1.77   2
  -8  -3   3   60.16    3.27   2
  -8   3   3   65.53    4.20   2
  -8  -3   2   15.38    1.97   2
  -8   3   2   15.73    2.31   2
  -8  -3   1   69.57    3.56   2
  -8   3   1   67.18    4.12   2
  -8  -3   0   11.38    1.87   2
  -8   3   0   10.64    2.15   2
  -8  -3  -1   24.44    2.76   2
  -8   3  -1   25.34    2.80   2
  -8  -3  -2   21.00    2.59   2
  -8   3  -2   22.17    2.73   2
  -8  -3  -3    8.89    2.04   2
  -8   3  -3    7.67    2.16   2
  -8  -3  -4    3.08    1.95   2
  -8   3  -4   -0.38    1.73   2
  -8  -3  -5   29.08    3.20   2
  -8   3  -5   29.17    3.41   2
  -8  -3  -6   59.99    5.05   2
  -8   3  -6   54.79    4.29   2
  -8  -3  -7    4.26    2.41   2
  -8   3  -7    4.20    2.20   2
  -8  -3  -8    6.15    2.54   2
  -8   3  -8    8.54    2.56   2
  -8  -3  -9    8.65    2.77   2
  -8   3  -9    6.30    2.93   2
   8  -4 -10    5.03    2.68   2
   8  -4  -9   37.80    4.49   2
   8  -4  -8   38.88    4.46   2
   8  -4  -7  146.94    6.56   2
  -8   4   6    0.39    2.04   2
  -8   4   5    2.75    2.04   2
  -8   4   4    0.22    1.75   2
  -8   4   3    5.50    2.14   2
  -8   4   2    2.09    1.73   2
  -8   4   1   12.72    2.30   2
  -8   4   0   72.16    4.40   2
  -8   4  -1  149.23    5.70   2
  -8  -4  -2    0.05    1.56   2
  -8   4  -2    0.12    1.64   2
  -8  -4  -3    0.53    1.66   2
  -8   4  -3   -0.40    1.69   2
  -8  -4  -4   -0.47    1.69   2
  -8   4  -4    0.63    1.79   2
  -8  -4  -5    0.58    1.95   2
  -8   4  -5    1.69    1.92   2
  -8  -4  -6    3.38    2.24   2
  -8   4  -6    1.36    1.84   2
  -8  -4  -7    0.84    2.31   2
  -8   4  -7    3.32    2.21   2
  -8  -4  -8    1.46    2.38   2
  -8   4  -8    1.27    2.13   2
   8  -5  -8   34.58    4.13   2
   8  -5  -7   60.29    5.01   2
   8  -5  -6   34.75    3.90   2
  -8   5   5    3.87    2.24   2
  -8   5   4    0.69    1.90   2
  -8   5   3    1.66    1.82   2
  -8   5   2   -0.74    1.77   2
  -8   5   1   -0.58    1.65   2
  -8   5   0   59.68    4.21   2
  -8   5  -1    8.71    2.34   2
  -8   5  -2   50.08    4.09   2
  -8   5  -3    5.77    2.15   2
  -8   5  -4    7.41    2.27   2
  -8   5  -5   16.74    2.75   2
   8  -6  -6   21.96    3.55   2
   8  -6  -5   21.01    3.41   2
  -8   6   4    0.85    1.95   2
  -8   6   3    1.12    1.91   2
  -8   6   2    0.60    1.85   2
  -8   6   1   -0.03    1.87   2
  -8   6   0   -1.07    1.88   2
  -8   6  -1   13.08    2.69   2
   9   0 -11    3.11    2.42   2
   9   0 -10   -0.46    2.10   2
   9   0  -9   87.06    5.38   2
  -9   0   8   -0.20    1.86   2
  -9   0   7   44.63    4.15   2
  -9   0   6   -2.43    1.66   2
  -9   0   5   32.32    4.03   2
  -9   0   4   -1.71    1.70   2
  -9   0   3  257.56    7.03   2
  -9   0   2    0.53    1.53   2
  -9   0   1  108.22    4.79   2
  -9   0   0   -0.43    1.41   2
  -9   0  -1    1.12    1.58   2
  -9   0  -2   -0.62    1.53   2
  -9   0  -3    7.92    2.20   2
  -9   0  -4   -0.20    1.80   2
  -9   0  -5   13.52    2.78   2
  -9   0  -6    2.38    2.24   2
  -9   0  -7   22.64    3.35   2
  -9   0  -8    3.03    2.28   2
  -9   0  -9    0.81    2.38   2
   9  -1 -11   -1.03    2.21   2
   9   1 -11    0.54    2.19   2
   9  -1 -10    0.35    2.18   2
   9   1 -10    0.86    2.07   2
   9  -1  -9   10.40    2.78   2
   9   1  -9    9.60    2.52   2
  -9   1   8    4.48    2.29   2
  -9  -1   7   16.77    2.59   2
  -9   1   7   13.90    2.81   2
  -9  -1   6   17.60    2.60   2
  -9   1   6   15.40    2.74   2
  -9  -1   5  113.29    5.37   2
  -9   1   5   97.86    4.97   2
  -9  -1   4   22.95    2.83   2
  -9   1   4   21.54    3.02   2
  -9  -1   3  345.94    8.00   2
  -9   1   3  339.46    8.29   2
  -9  -1   2   27.80    3.12   2
  -9   1   2   28.49    3.35   2
  -9  -1   1   74.77    4.06   2
  -9   1   1   74.30    4.35   2
  -9  -1   0   63.66    3.90   2
  -9   1   0   67.64    4.05   2
  -9  -1  -1   36.66    3.37   2
  -9   1  -1   39.08    3.57   2
  -9  -1  -2    8.00    2.01   2
  -9   1  -2    5.18    1.88   2
  -9  -1  -3    3.03    1.97   2
  -9   1  -3    1.58    1.85   2
  -9  -1  -4    0.95    1.95   2
  -9   1  -4    2.08    2.06   2
  -9  -1  -5  280.04    8.12   2
  -9   1  -5  277.52    8.26   2
  -9  -1  -6   11.72    2.83   2
  -9   1  -6    7.06    2.34   2
  -9  -1  -7    3.27    2.34   2
  -9   1  -7    7.69    2.60   2
  -9  -1  -8    0.04    2.10   2
  -9   1  -8    0.82    2.20   2
  -9  -1  -9    6.86    2.76   2
  -9   1  -9    3.63    2.97   2
   9  -2 -11   -0.60    2.42   2
   9  -2 -10    2.57    2.50   2
   9  -2  -9    0.59    2.18   2
   9   2  -9    0.21    1.87   2
   9  -2  -8    1.84    2.15   2
   9   2  -8    1.89    1.89   2
  -9  -2   7    3.19    1.82   2
  -9   2   7    1.56    2.09   2
  -9  -2   6    2.00    1.85   2
  -9   2   6   -0.39    1.89   2
  -9  -2   5    7.33    2.05   2
  -9   2   5    7.85    2.46   2
  -9  -2   4  407.24    8.43   2
  -9   2   4  418.33    9.78   2
  -9  -2   3    2.95    1.74   2
  -9   2   3    1.37    1.87   2
  -9  -2   2   51.11    3.59   2
  -9   2   2   55.89    4.13   2
  -9  -2   1   12.10    1.93   2
  -9   2   1   14.96    2.44   2
  -9  -2   0   23.40    2.58   2
  -9   2   0   24.49    2.78   2
  -9  -2  -1   69.31    4.13   2
  -9   2  -1   69.42    4.19   2
  -9  -2  -2    0.36    1.59   2
  -9   2  -2    0.70    1.67   2
  -9  -2  -3    0.52    1.80   2
  -9   2  -3    0.65    1.82   2
  -9  -2  -4   35.98    3.92   2
  -9   2  -4   35.71    3.89   2
  -9  -2  -5    1.84    2.24   2
  -9   2  -5    3.71    2.11   2
  -9  -2  -6    9.20    2.58   2
  -9   2  -6    8.40    2.40   2
  -9  -2  -7    2.62    2.26   2
  -9   2  -7   -0.22    2.06   2
  -9  -2  -8    9.73    2.94   2
  -9   2  -8   14.28    3.10   2
   9  -3 -10   -1.69    2.37   2
   9  -3  -9   34.18    4.07   2
   9  -3  -8    6.50    2.58   2
  -9   3   7    0.32    2.14   2
  -9   3   6    9.60    2.64   2
  -9   3   5   20.94    3.07   2
  -9   3   4    0.42    1.71   2
  -9   3   3   -0.41    1.74   2
  -9  -3   2   32.09    2.95   2
  -9   3   2   31.91    3.71   2
  -9  -3   1    1.02    1.46   2
  -9   3   1   -0.90    1.71   2
  -9  -3   0   -1.09    1.37   2
  -9   3   0   -1.97    1.61   2
  -9  -3  -1  171.87    5.68   2
  -9   3  -1  174.15    6.29   2
  -9  -3  -2    2.04    1.76   2
  -9   3  -2    2.90    1.90   2
  -9  -3  -3   26.73    3.19   2
  -9   3  -3   28.43    3.26   2
  -9  -3  -4    0.30    1.82   2
  -9   3  -4   -2.12    1.71   2
  -9  -3  -5    4.87    2.37   2
  -9   3  -5    7.59    2.54   2
  -9  -3  -6    9.41    2.71   2
  -9   3  -6    9.96    2.56   2
  -9  -3  -7    1.55    2.32   2
  -9   3  -7   -1.37    1.97   2
  -9  -3  -8    0.55    2.52   2
  -9   3  -8    2.04    2.30   2
   9  -4  -9   10.65    3.12   2
   9  -4  -8    1.71    2.43   2
  -9   4   7    1.06    2.29   2
  -9   4   6    4.23    2.42   2
  -9   4   5   20.29    3.05   2
  -9   4   4   10.78    2.44   2
  -9   4   3   60.77    4.50   2
  -9   4   2    7.33    2.30   2
  -9   4   1    4.67    2.11   2
  -9   4   0   32.37    3.70   2
  -9   4  -1    5.97    2.29   2
  -9   4  -2    5.12    2.20   2
  -9  -4  -3   -0.56    1.94   2
  -9   4  -3    2.58    2.14   2
  -9  -4  -4   12.31    2.56   2
  -9   4  -4    8.99    2.49   2
  -9  -4  -5    1.08    2.03   2
  -9   4  -5    0.16    2.02   2
  -9  -4  -6    0.56    2.19   2
  -9   4  -6    4.43    2.27   2
  -9  -4  -7    0.56    2.32   2
  -9   4  -7   -0.08    2.04   2
   9  -5  -7   12.62    3.25   2
  -9   5   6   -1.20    2.50   2
  -9   5   5    3.05    2.41   2
  -9   5   4   15.75    2.86   2
  -9   5   3    5.29    2.19   2
  -9   5   2    2.15    1.97   2
  -9   5   1   -0.56    1.84   2
  -9   5   0   -1.47    1.84   2
  -9   5  -1   -0.79    2.01   2
  -9   5  -2    1.52    2.03   2
  -9   5  -3    6.08    2.40   2
  -9   5  -4   13.36    2.92   2
  -9   5  -5    9.36    2.76   2
  -9   6   4    8.82    2.72   2
  -9   6   3    1.11    2.13   2
  -9   6   2    7.21    2.61   2
  -9   6   1    5.84    2.34   2
  -9   6   0    0.74    2.17   2
  -9   6  -1   23.90    3.33   2
  10   0 -10   -3.52    2.07   2
  10   0  -9   -1.78    2.13   2
 -10   0   8    0.89    2.02   2
 -10   0   7    1.08    1.97   2
 -10   0   6    0.25    2.12   2
 -10   0   5   -5.07    2.09   2
 -10   0   4  844.84   13.83   2
 -10   0   3    1.11    2.04   2
 -10   0   2  105.71    5.14   2
 -10   0   1    1.82    1.71   2
 -10   0   0    1.08    1.72   2
 -10   0  -1   -0.36    1.65   2
 -10   0  -2   27.36    3.42   2
 -10   0  -3   -1.07    1.92   2
 -10   0  -4  130.27    6.12   2
 -10   0  -5   -1.37    3.25   2
 -10   0  -6  156.14    7.07   2
 -10   0  -7    2.86    2.47   2
 -10   0  -8   -0.41    2.30   2
  10  -1 -10    0.20    2.39   2
  10   1 -10    1.27    2.30   2
  10  -1  -9   -0.23    2.39   2
  10   1  -9    4.51    2.39   2
 -10  -1   8    6.16    2.48   2
 -10   1   8    6.23    2.71   2
 -10  -1   7   16.53    2.87   2
 -10   1   7   12.10    2.84   2
 -10  -1   6   -1.29    1.84   2
 -10   1   6   -0.04    2.07   2
 -10  -1   5   42.94    4.53   2
 -10   1   5   46.58    4.58   2
 -10  -1   4   -0.98    1.83   2
 -10   1   4    0.64    2.18   2
 -10  -1   3   43.51    3.95   2
 -10   1   3   40.09    4.17   2
 -10  -1   2   63.55    4.29   2
 -10   1   2   67.37    4.66   2
 -10  -1   1  102.93    5.03   2
 -10   1   1  103.63    5.27   2
 -10  -1   0   18.25    2.63   2
 -10   1   0   19.90    2.67   2
 -10  -1  -1    8.83    2.20   2
 -10   1  -1    5.69    2.07   2
 -10  -1  -2    2.01    1.97   2
 -10   1  -2    1.58    1.97   2
 -10  -1  -3   20.65    2.97   2
 -10   1  -3   17.01    2.97   2
 -10  -1  -4   10.43    2.83   2
 -10   1  -4    8.85    2.77   2
 -10  -1  -5    2.24    2.55   2
 -10   1  -5    4.38    2.42   2
 -10  -1  -6    2.95    2.36   2
 -10   1  -6   -0.05    2.24   2
 -10  -1  -7    0.28    2.29   2
 -10   1  -7    3.06    2.37   2
 -10  -1  -8   -0.38    2.44   2
 -10   1  -8    0.89    2.18   2
  10  -2 -10   12.18    3.31   2
  10  -2  -9    4.57    2.59   2
  10   2  -9    5.40    2.42   2
 -10   2   8   55.15    4.56   2
 -10   2   7   13.40    2.96   2
 -10  -2   6    0.75    1.78   2
 -10   2   6   -0.49    2.21   2
 -10  -2   5    0.91    1.87   2
 -10   2   5   -1.52    1.97   2
 -10  -2   4    9.97    2.25   2
 -10   2   4    7.41    2.57   2
 -10  -2   3    0.35    1.63   2
 -10   2   3   -0.80    1.97   2
 -10  -2   2   17.98    2.48   2
 -10   2   2   14.56    2.77   2
 -10  -2   1    0.10    1.54   2
 -10   2   1    0.35    1.97   2
 -10  -2   0  212.96    6.85   2
 -10   2   0  210.68    7.06   2
 -10  -2  -1   38.99    3.66   2
 -10   2  -1   35.16    3.81   2
 -10  -2  -2   33.98    3.67   2
 -10   2  -2   33.40    3.83   2
 -10  -2  -3   -0.02    1.77   2
 -10   2  -3   -1.31    1.77   2
 -10  -2  -4    3.79    2.27   2
 -10   2  -4    4.19    2.23   2
 -10  -2  -5   -1.36    2.11   2
 -10   2  -5    0.77    2.04   2
 -10  -2  -6    6.27    2.62   2
 -10   2  -6    5.75    2.47   2
 -10  -2  -7   27.75    3.84   2
 -10   2  -7   31.39    3.83   2
  10  -3  -9    1.30    2.60   2
  10  -3  -8    4.27    2.56   2
 -10   3   7    7.82    2.74   2
 -10   3   6   10.07    2.65   2
 -10   3   5    2.14    2.19   2
 -10   3   4    0.40    1.97   2
 -10   3   3    7.84    2.50   2
 -10  -3   2   51.05    3.78   2
 -10   3   2   50.85    4.47   2
 -10  -3   1    1.99    1.85   2
 -10   3   1    1.70    2.09   2
 -10  -3   0   27.79    3.44   2
 -10   3   0   29.22    3.37   2
 -10  -3  -1    1.00    1.78   2
 -10   3  -1   -0.42    1.90   2
 -10  -3  -2   34.40    3.52   2
 -10   3  -2   30.79    3.61   2
 -10  -3  -3   -2.09    1.78   2
 -10   3  -3   -1.69    1.89   2
 -10  -3  -4    0.78    2.21   2
 -10   3  -4    1.76    2.12   2
 -10  -3  -5   14.38    2.98   2
 -10   3  -5   11.02    2.74   2
 -10  -3  -6    1.41    2.29   2
 -10   3  -6    3.73    2.64   2
  10  -4  -8   18.99    3.63   2
 -10   4   7    4.33    2.76   2
 -10   4   6   21.05    3.50   2
 -10   4   5    5.43    2.64   2
 -10   4   4    4.55    2.46   2
 -10   4   3   11.59    2.82   2
 -10   4   2    0.78    2.00   2
 -10   4   1    9.92    2.65   2
 -10   4   0   -0.05    2.01   2
 -10   4  -1    8.85    2.62   2
 -10   4  -2    1.00    2.14   2
 -10   4  -3   22.36    3.36   2
 -10  -4  -4    0.91    2.15   2
 -10   4  -4    1.51    2.13   2
 -10  -4  -5   12.71    2.99   2
 -10   4  -5   13.23    3.05   2
 -10   5   6   18.71    3.59   2
 -10   5   5    3.97    2.64   2
 -10   5   4    0.90    2.23   2
 -10   5   3    7.29    2.64   2
 -10   5   2    4.54    2.26   2
 -10   5   1    2.59    2.37   2
 -10   5   0    1.11    2.17   2
 -10   5  -1   -0.01    2.29   2
 -10   5  -2    8.51    2.74   2
 -10   5  -3    2.82    2.40   2
  11   0  -9    2.11    2.65   2
 -11   0   8    0.15    2.14   2
 -11   0   7    7.34    2.70   2
 -11   0   6   -3.46    2.09   2
 -11   0   5    7.40    2.83   2
 -11   0   4    1.39    2.34   2
 -11   0   3   22.92    3.29   2
 -11   0   2   -1.35    1.96   2
 -11   0   1    3.20    2.22   2
 -11   0   0   -1.19    1.87   2
 -11   0  -1   22.53    3.22   2
 -11   0  -2   -2.46    1.81   2
 -11   0  -3    0.69    2.23   2
 -11   0  -4   -2.38    2.14   2
 -11   0  -5    4.61    2.78   2
 -11   0  -6   -0.28    2.37   2
  11  -1  -9    8.51    3.17   2
  11   1  -9    8.97    2.71   2
 -11  -1   8   12.77    3.01   2
 -11   1   8   11.78    3.07   2
 -11  -1   7    8.24    2.55   2
 -11   1   7    8.98    2.83   2
 -11  -1   6   -0.37    2.17   2
 -11   1   6   -3.88    1.98   2
 -11  -1   5   25.77    3.47   2
 -11   1   5   16.98    3.31   2
 -11  -1   4    4.92    2.47   2
 -11   1   4    4.34    2.80   2
 -11  -1   3  289.73    8.46   2
 -11   1   3  291.22    8.78   2
 -11  -1   2   64.61    4.59   2
 -11   1   2   75.81    5.11   2
 -11  -1   1    2.23    2.01   2
 -11   1   1    1.14    2.08   2
 -11  -1   0   41.81    3.90   2
 -11   1   0   40.00    4.12   2
 -11  -1  -1   26.38    3.19   2
 -11   1  -1   23.63    3.25   2
 -11  -1  -2    9.81    2.56   2
 -11   1  -2    9.10    2.69   2
 -11  -1  -3   -0.81    2.05   2
 -11   1  -3   -0.17    2.13   2
 -11  -1  -4   -0.58    2.25   2
 -11   1  -4   -1.33    2.28   2
 -11  -1  -5   50.20    4.88   2
 -11   1  -5   48.72    4.74   2
 -11  -1  -6    6.81    2.84   2
 -11   1  -6    8.93    2.76   2
  11  -2  -9   -1.01    2.49   2
 -11   2   8   -1.22    2.44   2
 -11   2   7   10.90    3.12   2
 -11  -2   6    2.91    2.04   2
 -11   2   6    3.52    2.51   2
 -11  -2   5    0.94    2.03   2
 -11   2   5   -1.83    2.23   2
 -11  -2   4   -0.21    1.84   2
 -11   2   4   -1.05    2.17   2
 -11  -2   3   15.07    2.70   2
 -11   2   3   13.67    3.03   2
 -11  -2   2    0.78    1.85   2
 -11   2   2   -0.29    2.17   2
 -11  -2   1    9.47    2.44   2
 -11   2   1    5.67    2.52   2
 -11  -2   0   17.75    2.97   2
 -11   2   0   17.74    3.11   2
 -11  -2  -1    0.72    1.81   2
 -11   2  -1    0.29    2.01   2
 -11  -2  -2    0.52    2.16   2
 -11   2  -2    0.59    2.03   2
 -11  -2  -3    3.05    2.11   2
 -11   2  -3   -1.17    2.16   2
 -11  -2  -4   -1.62    2.05   2
 -11   2  -4   -1.65    1.97   2
 -11  -2  -5    0.33    2.27   2
 -11   2  -5   -0.78    2.21   2
 -11  -2  -6   35.18    4.32   2
 -11   2  -6   39.27    4.54   2
 -11   3   8    6.58    3.17   2
 -11   3   7   21.98    3.83   2
 -11   3   6    1.60    2.46   2
 -11   3   5    6.88    2.74   2
 -11   3   4    1.55    2.34   2
 -11   3   3   14.27    2.99   2
 -11   3   2   -0.38    2.02   2
 -11  -3   1   -0.88    1.84   2
 -11   3   1    1.49    2.20   2
 -11  -3   0    6.41    2.30   2
 -11   3   0    5.16    2.55   2
 -11  -3  -1   54.01    4.39   2
 -11   3  -1   58.68    4.86   2
 -11  -3  -2   18.69    3.00   2
 -11   3  -2   17.25    3.13   2
 -11  -3  -3    1.98    2.14   2
 -11   3  -3    2.24    2.16   2
 -11  -3  -4   18.10    3.11   2
 -11   3  -4   15.32    3.27   2
 -11  -3  -5   -2.01    2.27   2
 -11   3  -5    1.41    2.34   2
 -11   4   6   -0.20    2.67   2
 -11   4   5   11.30    3.21   2
 -11   4   4    2.77    2.51   2
 -11   4   3    5.71    2.61   2
 -11   4   2    2.22    2.37   2
 -11   4   1   -0.23    2.05   2
 -11   4   0    5.49    2.59   2
 -11   4  -1   -1.91    2.14   2
 -11   4  -2    7.77    2.84   2
 -11   4  -3    1.54    2.47   2
 -11   5   3    3.80    2.72   2
 -11   5   2   12.01    3.05   2
 -11   5   1    3.04    2.60   2
 -11   5   0   29.90    3.94   2
 -12   0   8    5.38    2.88   2
 -12   0   7   -0.80    2.32   2
 -12   0   6   -0.90    2.40   2
 -12   0   5   -1.88    2.68   2
 -12   0   4  183.62    7.79   2
 -12   0   3    0.20    2.39   2
 -12   0   2   41.28    4.58   2
 -12   0   1   -1.85    2.10   2
 -12   0   0    4.51    2.43   2
 -12   0  -1   -0.48    2.11   2
 -12   0  -2   25.15    3.68   2
 -12   0  -3   -0.32    2.21   2
 -12   0  -4   12.97    3.14   2
 -12   0  -5    0.72    2.45   2
 -12  -1   8    1.00    2.45   2
 -12   1   8   -2.19    2.51   2
 -12  -1   7   10.16    2.96   2
 -12   1   7    8.60    3.06   2
 -12  -1   6    1.21    2.49   2
 -12   1   6    1.07    2.54   2
 -12  -1   5   -1.01    2.51   2
 -12   1   5   -0.94    2.54   2
 -12  -1   4    6.09    2.68   2
 -12   1   4    4.72    2.94   2
 -12  -1   3   96.45    5.95   2
 -12   1   3   94.97    5.99   2
 -12  -1   2    6.36    2.53   2
 -12   1   2    4.64    2.73   2
 -12  -1   1    8.05    2.69   2
 -12   1   1    8.81    2.79   2
 -12  -1   0    1.90    2.45   2
 -12   1   0    1.40    2.31   2
 -12  -1  -1   13.33    2.91   2
 -12   1  -1   12.12    2.88   2
 -12  -1  -2    0.45    2.15   2
 -12   1  -2    0.96    2.36   2
 -12  -1  -3   -0.43    2.20   2
 -12   1  -3   -1.04    2.24   2
 -12  -1  -4    3.63    2.64   2
 -12   1  -4    6.60    2.82   2
 -12  -1  -5   14.63    3.48   2
 -12   1  -5   18.80    3.43   2
 -12   2   7    2.70    2.60   2
 -12   2   6    0.53    2.55   2
 -12  -2   5   -0.38    2.36   2
 -12   2   5    2.06    2.63   2
 -12  -2   4    8.51    2.65   2
 -12   2   4    8.15    3.03   2
 -12  -2   3   -0.11    2.14   2
 -12   2   3   -1.34    2.35   2
 -12  -2   2   17.21    3.00   2
 -12   2   2   18.87    3.46   2
 -12  -2   1    9.78    2.70   2
 -12   2   1    6.22    2.77   2
 -12  -2   0   17.06    2.96   2
 -12   2   0   15.27    3.18   2
 -12  -2  -1   14.87    2.94   2
 -12   2  -1   11.72    2.84   2
 -12  -2  -2    5.56    2.47   2
 -12   2  -2    6.07    2.78   2
 -12  -2  -3    0.81    2.33   2
 -12   2  -3   -1.34    2.29   2
 -12  -2  -4    0.19    2.25   2
 -12   2  -4   -0.93    2.49   2
 -12   3   6    1.00    2.64   2
 -12   3   5   -2.86    2.41   2
 -12   3   4    5.15    2.74   2
 -12   3   3    3.71    2.82   2
 -12   3   2    4.74    2.72   2
 -12   3   1    0.31    2.63   2
 -12  -3   0    2.21    2.21   2
 -12   3   0    2.16    2.59   2
 -12  -3  -1   20.24    3.20   2
 -12   3  -1   18.45    3.38   2
 -12  -3  -2    2.34    2.29   2
 -12   3  -2    0.68    2.45   2
 -12  -3  -3    2.36    2.60   2
 -12   3  -3    2.24    2.31   2
 -12   4   3    6.32    2.96   2
 -12   4   2    2.08    2.64   2
 -12   4   1    1.88    2.41   2
 -12   4   0    3.48    2.89   2
 -13   0   6    0.06    2.59   2
 -13   0   5    7.62    3.30   2
 -13   0   4   -0.51    2.80   2
 -13   0   3   -1.26    2.46   2
 -13   0   2    1.30    2.63   2
 -13   0   1   31.23    4.01   2
 -13   0   0    0.52    2.50   2
 -13   0  -1   17.10    3.19   2
 -13   0  -2   -1.30    2.42   2
 -13  -1   5    2.37    2.90   2
 -13   1   5    6.76    3.27   2
 -13  -1   4   12.49    3.33   2
 -13   1   4   11.29    3.33   2
 -13  -1   3   19.98    3.55   2
 -13   1   3   18.23    3.52   2
 -13  -1   2   17.38    3.42   2
 -13   1   2   16.45    3.51   2
 -13  -1   1    1.81    2.50   2
 -13   1   1    1.06    2.79   2
 -13  -1   0    2.63    2.59   2
 -13   1   0    0.04    2.48   2
 -13  -1  -1    4.01    2.50   2
 -13   1  -1    4.31    2.63   2
 -13  -1  -2   -1.08    2.49   2
 -13   1  -2   -0.18    2.52   2
 -13  -2   4   10.88    3.25   2
 -13   2   4    8.52    3.29   2
 -13  -2   3   -0.48    2.37   2
 -13   2   3    0.25    2.81   2
 -13  -2   2   32.91    3.95   2
 -13   2   2   31.82    4.25   2
 -13  -2   1    8.17    2.74   2
 -13   2   1    9.77    3.20   2
 -13  -2   0   -0.10    2.32   2
 -13   2   0    2.90    2.78   2
 -13  -2  -1    3.46    2.62   2
 -13   2  -1    1.19    2.73   2
   0   0   1    4.55    0.41   3
   0   0   2 6400.70   42.39   3
   0   0   3   -0.09    0.48   3
   0   0   4  829.24    7.61   3
   0   0   5    0.22    0.64   3
   0   0   6   13.09    1.27   3
   0   0   7   -0.17    0.86   3
   0   0   8 1446.81   14.05   3
   0   0   9   -0.67    1.49   3
   0   0  10  964.51   12.55   3
   0   0  11    0.91    1.59   3
   0  -1   0    0.39    0.35   3
   0  -1   1  777.06    6.56   3
   0   1   1  786.54    6.80   3
   0  -1   2   76.92    1.94   3
   0   1   2   77.58    2.08   3
   0  -1   3  366.78    4.26   3
   0   1   3  363.09    4.70   3
   0  -1   4   28.17    1.71   3
   0   1   4   28.63    1.91   3
   0  -1   5  236.95    4.09   3
   0   1   5  235.29    4.49   3
   0  -1   6  142.60    3.47   3
   0   1   6  138.13    3.77   3
   0  -1   7   46.44    2.46   3
   0   1   7   44.01    2.77   3
   0  -1   8  189.90    4.70   3
   0   1   8  189.67    5.31   3
   0  -1   9   70.60    3.82   3
   0   1   9   55.53    4.39   3
   0  -1  10   15.28    2.10   3
   0   1  10   10.98    2.21   3
   0   1  11    0.27    1.52   3
   0   1  12    1.94    1.76   3
   0  -2   0  639.39    6.65   3
   0  -2   1 1794.87   13.41   3
   0  -2   2  227.37    3.63   3
   0   2   2  226.22    4.17   3
   0  -2   3  691.46    6.94   3
   0   2   3  692.88    7.94   3
   0  -2   4 6706.27   40.49   3
   0   2   4 6695.67   41.89   3
   0  -2   5    3.08    1.00   3
   0   2   5    2.05    1.04   3
   0  -2   6  812.13    8.75   3
   0   2   6  802.58    9.98   3
   0  -2   7   45.97    2.53   3
   0   2   7   45.02    3.00   3
   0  -2   8    6.33    1.35   3
   0   2   8    5.31    1.57   3
   0  -2   9    0.64    1.29   3
   0   2   9   -0.87    1.44   3
   0   2  10    0.99    1.58   3
   0   2  11   -0.24    1.54   3
   0   2  12    6.91    2.20   3
   0   2  13   22.20    3.10   3
   0  -3   0   -0.28    0.67   3
   0  -3  -1  105.66    3.38   3
   0  -3   1  126.18    3.54   3
   0  -3   2   52.35    2.45   3
   0   3   2   49.86    2.59   3
   0  -3   3    7.31    1.16   3
   0   3   3    5.12    1.20   3
   0  -3   4  291.78    5.13   3
   0   3   4  267.47    5.64   3
   0  -3   5   18.61    1.70   3
   0   3   5   16.91    1.91   3
   0  -3   6   40.07    2.87   3
   0   3   6   39.18    2.93   3
   0  -3   7   38.80    2.65   3
   0   3   7   38.37    3.09   3
   0  -3   8  100.62    3.70   3
   0   3   8  102.59    4.56   3
   0  -3   9   58.65    3.33   3
   0   3   9   61.20    3.89   3
   0   3  10   -0.78    1.57   3
   0   3  11    3.76    2.11   3
   0   3  12    7.11    2.49   3
   0  -4   0 1195.79   12.74   3
   0  -4  -1  699.24    9.43   3
   0  -4   1  702.34    9.16   3
   0  -4  -2    4.75    1.41   3
   0  -4   2    4.15    1.25   3
   0  -4   3   70.14    3.22   3
   0   4   3   66.40    3.34   3
   0  -4   4   54.39    3.13   3
   0   4   4   54.59    3.39   3
   0  -4   5   51.64    2.99   3
   0   4   5   56.08    3.49   3
   0  -4   6    9.73    1.79   3
   0   4   6   11.31    1.99   3
   0  -4   7   86.35    4.02   3
   0   4   7   85.52    4.39   3
   0  -4   8   25.39    2.68   3
   0   4   8   31.09    3.30   3
   0   4   9   53.91    4.09   3
   0   4  10    2.03    2.03   3
   0   4  11    4.70    2.29   3
   0   4  12   -0.12    2.14   3
   0  -5   0   -0.51    1.11   3
   0  -5  -1    2.12    1.35   3
   0  -5   1    2.54    1.48   3
   0  -5  -2  286.87    6.90   3
   0  -5   2  283.12    6.43   3
   0  -5  -3   27.60    3.01   3
   0  -5   3   24.72    2.74   3
   0  -5  -4  106.44    4.81   3
   0  -5   4  106.36    4.32   3
   0  -5   5   20.84    2.34   3
   0   5   5   19.15    2.52   3
   0  -5   6   -0.09    1.54   3
   0   5   6   -0.18    1.63   3
   0  -5   7   94.93    5.05   3
   0   5   7   91.68    5.12   3
   0   5   8   46.33    4.24   3
   0   5   9    8.85    2.53   3
   0   5  10    2.26    2.13   3
   0   5  11    7.38    2.61   3
   0  -6   0    3.57    1.74   3
   0  -6  -1   11.55    2.26   3
   0  -6   1   12.79    2.17   3
   0  -6  -2   16.12    2.55   3
   0  -6   2   20.82    2.54   3
   0  -6  -3  287.99    7.92   3
   0  -6   3  283.43    7.02   3
   0  -6  -4  104.12    5.42   3
   0  -6   4  107.14    4.85   3
   0  -6  -5  127.87    5.82   3
   0  -6   5  129.97    5.22   3
   0  -6  -6   -0.80    1.88   3
   0  -6   6   -1.04    2.05   3
   0  -6  -7    0.79    2.12   3
   0   6   8    2.52    2.34   3
   0   6   9   -1.28    2.01   3
   0  -7   0   -2.15    1.62   3
   0  -7  -1   -1.11    1.89   3
   0  -7   1   -0.90    1.65   3
   0  -7  -2   30.38    3.59   3
   0  -7   2   30.55    3.41   3
   0  -7  -3   -0.80    2.08   3
   0  -7   3    1.33    1.92   3
   0  -7  -4   85.77    5.55   3
   0  -7   4   88.02    4.88   3
   0  -7  -5   -0.32    2.14   3
   0  -7   5    0.40    1.95   3
   0  -7  -6   37.20    4.47   3
   0  -7  -7    3.58    2.60   3
   0  -8   0    0.72    2.01   3
   0  -8  -1    3.90    2.32   3
   0  -8   1    6.71    2.45   3
   0  -8  -2    0.52    2.21   3
   0  -8   2    4.71    2.32   3
   0  -8  -3    5.13    2.46   3
   0  -8   3    5.29    2.42   3
   0  -8  -4    4.94    2.60   3
   0  -8   4    4.34    2.40   3
  -1   0  12    0.28    1.63   3
  -1   0  11    5.54    1.80   3
  -1   0  10    4.44    1.65   3
  -1   0   9   21.43    2.44   3
  -1   0   8    0.85    1.39   3
  -1   0   7  507.27    7.42   3
  -1   0   6   -0.25    0.76   3
  -1   0   5  647.21    7.34   3
  -1   0   4    0.54    0.64   3
  -1   0   313276.19   77.14   3
  -1   0   2    0.70    0.49   3
  -1   0   1 9928.69   69.40   3
   1   0   1  405.99    5.16   3
   1   0   2    1.30    0.37   3
   1   0   3   39.43    1.40   3
   1   0   4   -0.20    0.47   3
   1   0   5  917.22    8.55   3
   1   0   6    1.40    0.78   3
   1   0   7    5.64    1.17   3
   1   0   8   -0.64    1.08   3
   1   0   9  274.28    6.23   3
   1   0  10    5.68    1.90   3
  -1   1  13    9.08    2.36   3
  -1   1  12    8.64    2.23   3
  -1  -1  11   20.94    2.47   3
  -1   1  11   18.69    2.54   3
  -1  -1  10    1.36    1.47   3
  -1   1  10   -0.94    1.58   3
  -1  -1   9 1309.85   13.97   3
  -1   1   9 1329.21   14.95   3
  -1  -1   8    0.71    1.15   3
  -1   1   8   -1.76    1.24   3
  -1  -1   7   79.82    3.17   3
  -1   1   7   81.54    3.52   3
  -1  -1   6  239.90    4.66   3
  -1   1   6  229.32    4.81   3
  -1  -1   5 2021.70   15.52   3
  -1   1   5 1984.39   15.78   3
  -1  -1   4  677.33    6.97   3
  -1   1   4  664.16    7.28   3
  -1  -1   3 1141.71    9.45   3
  -1   1   3 1148.01    9.80   3
  -1  -1   2  208.87    3.25   3
  -1   1   2  208.17    3.24   3
  -1  -1   110998.19   67.36   3
  -1   1   111015.26   67.91   3
  -1  -1   0 1575.62   11.71   3
  -1   1   0 1535.95   11.81   3
  -1  -1  -123254.66  139.88   3
   1  -1   123217.29  176.43   3
   1  -1   2    0.51    0.44   3
   1   1   2    0.51    0.53   3
   1  -1   3 1218.96    9.26   3
   1   1   3 1218.52   10.13   3
   1  -1   4 3380.98   21.98   3
   1   1   4 3405.69   22.85   3
   1  -1   5 1559.28   11.96   3
   1   1   5 1563.42   13.19   3
   1  -1   6    2.70    0.86   3
   1   1   6    0.00    0.76   3
   1  -1   7   -0.48    0.80   3
   1   1   7    0.02    0.89   3
   1  -1   8  158.27    4.23   3
   1   1   8  152.03    4.66   3
   1  -1   9  215.86    5.32   3
   1   1   9  205.81    5.81   3
   1   1  10    0.23    1.57   3
   1   1  11   28.95    3.13   3
  -1   2  13   10.69    2.58   3
  -1   2  12    3.83    1.96   3
  -1  -2  11    0.38    1.48   3
  -1   2  11   -0.24    1.59   3
  -1  -2  10    0.63    1.38   3
  -1   2  10    0.10    1.50   3
  -1  -2   9   -0.49    1.26   3
  -1   2   9   -0.61    1.53   3
  -1  -2   8   12.89    1.74   3
  -1   2   8   10.28    2.02   3
  -1  -2   7    0.84    1.13   3
  -1   2   7    0.90    1.15   3
  -1  -2   6    6.78    1.27   3
  -1   2   6    6.92    1.40   3
  -1  -2   5   69.94    2.99   3
  -1   2   5   70.02    3.15   3
  -1  -2   4  175.51    3.93   3
  -1   2   4  175.60    4.31   3
  -1  -2   3 1017.79    9.36   3
  -1   2   3 1010.02   10.01   3
  -1  -2   2 1678.77   13.23   3
  -1   2   2 1619.44   13.18   3
  -1  -2   1  175.02    3.42   3
  -1   2   1  178.33    3.48   3
  -1  -2   0 7385.69   44.35   3
  -1   2   0 7385.62   44.64   3
  -1  -2  -1  601.45    6.81   3
   1  -2   1  608.96    6.10   3
   1  -2   2   12.03    1.30   3
   1   2   2   12.57    1.50   3
   1  -2   3  426.06    4.85   3
   1   2   3  418.27    6.02   3
   1  -2   4  415.05    5.12   3
   1   2   4  421.34    6.45   3
   1  -2   5  190.63    3.56   3
   1   2   5  199.07    4.65   3
   1  -2   6   41.53    2.17   3
   1   2   6   45.52    2.76   3
   1  -2   7    1.72    0.99   3
   1   2   7    0.87    1.07   3
   1  -2   8   10.08    1.48   3
   1   2   8    6.18    1.68   3
   1   2   9   -0.58    1.48   3
   1   2  10  146.90    5.41   3
   1   2  11    0.31    1.63   3
  -1   3  13   30.78    3.94   3
  -1   3  12   19.91    2.99   3
  -1   3  11   -1.37    1.81   3
  -1  -3  10    0.15    1.45   3
  -1   3  10   -0.25    1.57   3
  -1  -3   9  107.12    4.25   3
  -1   3   9  104.10    4.78   3
  -1  -3   8    6.75    1.66   3
  -1   3   8    5.57    1.75   3
  -1  -3   7    9.59    1.62   3
  -1   3   7    8.30    1.79   3
  -1  -3   6   55.27    3.21   3
  -1   3   6   55.58    3.34   3
  -1  -3   5  897.77   10.08   3
  -1   3   5  904.46   11.30   3
  -1  -3   4  103.59    3.35   3
  -1   3   4  101.63    3.77   3
  -1  -3   3  825.51    9.10   3
  -1   3   3  806.85    9.79   3
  -1  -3   2  618.00    7.69   3
  -1  -3   1  166.72    3.93   3
  -1   3   1  160.35    3.90   3
  -1  -3   0  334.48    5.55   3
   1  -3   0  340.31    5.42   3
  -1  -3  -1  191.56    4.36   3
   1  -3   1  192.85    3.88   3
  -1  -3  -2   26.16    2.53   3
   1  -3   2   34.95    2.01   3
   1  -3   3    0.60    0.74   3
   1   3   3   -0.45    0.83   3
   1  -3   4  125.29    3.30   3
   1   3   4  117.76    4.05   3
   1  -3   5  270.98    4.83   3
   1   3   5  272.16    6.05   3
   1  -3   6   -1.68    0.95   3
   1   3   6    0.21    1.13   3
   1  -3   7    0.80    1.13   3
   1   3   7    0.88    1.36   3
   1   3   8  202.34    6.13   3
   1   3   9    0.26    1.52   3
   1   3  10   15.85    2.49   3
   1   3  11    1.36    1.89   3
   1   3  12    0.33    1.89   3
  -1   4  12   -1.75    2.15   3
  -1   4  11    6.65    2.49   3
  -1   4  10    0.14    1.90   3
  -1  -4   9    4.73    1.82   3
  -1   4   9    4.69    2.05   3
  -1  -4   8   10.76    2.07   3
  -1   4   8   11.93    2.37   3
  -1  -4   7  202.32    5.69   3
  -1   4   7  193.72    6.16   3
  -1  -4   6    0.17    1.41   3
  -1   4   6   -0.11    1.30   3
  -1  -4   5   12.44    1.81   3
  -1   4   5   13.74    1.99   3
  -1  -4   4   32.24    2.83   3
  -1   4   4   24.49    2.66   3
  -1  -4   3   73.62    3.38   3
  -1   4   3   73.61    3.60   3
  -1  -4   2  148.37    4.44   3
  -1   4   2  136.18    4.33   3
  -1  -4   1  642.82    8.91   3
   1  -4  -1  654.22    9.00   3
  -1  -4   0   14.73    1.80   3
   1  -4   0   15.08    1.74   3
  -1  -4  -1    0.78    1.08   3
   1  -4   1    0.84    0.96   3
  -1  -4  -2    2.92    1.31   3
   1  -4   2    3.53    1.13   3
  -1  -4  -3   87.46    4.01   3
   1  -4   3   82.54    3.19   3
   1  -4   4  221.64    4.97   3
   1  -4   5   73.37    3.25   3
   1   4   5   73.94    3.84   3
   1  -4   6   18.56    2.02   3
   1   4   6   17.53    2.32   3
   1   4   7   54.13    3.70   3
   1   4   8    9.68    2.17   3
   1   4   9   41.77    3.77   3
   1   4  10    3.51    2.04   3
   1   4  11    1.85    2.12   3
   1   4  12    1.52    2.26   3
  -1   5  11   -0.10    2.16   3
  -1   5  10   19.28    3.18   3
  -1   5   9   15.21    2.80   3
  -1  -5   8   15.87    2.61   3
  -1   5   8   11.69    2.54   3
  -1  -5   7    4.45    2.01   3
  -1   5   7    2.91    1.94   3
  -1  -5   6   -0.65    1.65   3
  -1   5   6   -0.84    1.72   3
  -1  -5   5   14.69    2.22   3
  -1   5   5   13.99    2.45   3
  -1  -5   4   18.63    2.30   3
  -1   5   4   18.50    2.48   3
  -1  -5   3   29.37    2.98   3
   1  -5  -3   32.45    3.07   3
  -1  -5   2   -0.18    1.31   3
   1  -5  -2   -0.65    1.28   3
  -1  -5   1   18.10    2.20   3
   1  -5  -1   21.10    2.58   3
  -1  -5   0   66.25    3.87   3
   1  -5   0   59.04    3.29   3
  -1  -5  -1  219.03    5.94   3
   1  -5   1  236.27    6.10   3
  -1  -5  -2   19.46    2.40   3
   1  -5   2   21.98    2.60   3
  -1  -5  -3   12.34    2.15   3
   1  -5   3   11.89    1.86   3
  -1  -5  -4  784.41   12.19   3
   1  -5   4  792.83   10.53   3
  -1  -5  -5   -0.39    1.60   3
   1  -5   5   -1.07    1.44   3
   1   5   6   11.26    2.23   3
   1   5   7    1.29    1.87   3
   1   5   8    7.49    2.23   3
   1   5   9   -0.28    2.03   3
   1   5  10    4.63    2.36   3
   1   5  11   13.23    3.03   3
  -1   6   9    3.60    2.48   3
  -1   6   8    1.16    2.08   3
  -1  -6   7    5.75    2.36   3
  -1   6   7    9.14    2.61   3
  -1  -6   6    0.31    2.35   3
  -1   6   6   -0.24    1.99   3
  -1  -6   5   26.89    3.33   3
   1  -6  -5   23.31    3.06   3
  -1  -6   4   -0.65    1.82   3
   1  -6  -4   -0.57    1.78   3
  -1  -6   3  207.45    6.34   3
  -1  -6   2   21.74    2.64   3
   1  -6  -2   20.76    2.69   3
  -1  -6   1    8.43    2.05   3
   1  -6  -1    7.97    2.07   3
  -1  -6   0   19.14    2.52   3
   1  -6   0   20.18    2.49   3
  -1  -6  -1   20.76    2.63   3
   1  -6   1   20.75    2.56   3
  -1  -6  -2   -1.37    1.72   3
   1  -6   2    0.01    1.45   3
  -1  -6  -3  447.42    9.87   3
   1  -6   3  442.89    8.62   3
  -1  -6  -4   -0.78    1.85   3
   1  -6   4   -1.91    1.60   3
  -1  -6  -5   45.88    4.16   3
   1  -6   5   48.98    3.81   3
  -1  -6  -6   -0.22    1.97   3
  -1  -6  -7    1.34    2.07   3
  -1  -6  -8    0.43    2.25   3
  -1  -6  -9    7.34    2.70   3
   1  -7  -7    7.20    2.83   3
  -1  -7   6    8.83    2.52   3
   1  -7  -6   10.17    2.88   3
  -1  -7   5   42.17    4.19   3
   1  -7  -5   44.30    4.37   3
  -1  -7   4   92.01    4.97   3
   1  -7  -4   82.94    5.39   3
  -1  -7   3    8.58    2.32   3
   1  -7  -3   11.29    2.74   3
  -1  -7   2   33.29    3.59   3
   1  -7  -2   33.10    3.70   3
  -1  -7   1   -0.47    1.72   3
   1  -7  -1   -0.53    1.75   3
  -1  -7   0    0.49    1.77   3
   1  -7   0    1.37    1.82   3
  -1  -7  -1   -1.69    1.63   3
   1  -7   1   -2.64    1.62   3
  -1  -7  -2    4.11    2.23   3
   1  -7   2    6.30    2.11   3
  -1  -7  -3   15.02    2.91   3
   1  -7   3   22.39    2.70   3
  -1  -7  -4   19.21    3.29   3
   1  -7   4   19.46    2.76   3
  -1  -7  -5   15.01    3.16   3
  -1  -7  -6    1.60    2.38   3
  -1  -7  -7    3.39    2.68   3
  -1  -8   4    3.08    2.37   3
   1  -8  -4    3.81    2.37   3
  -1  -8   3   47.80    4.45   3
   1  -8  -3   33.92    4.15   3
  -1  -8   2   12.56    2.72   3
   1  -8  -2   11.45    2.87   3
  -1  -8   1    7.54    2.66   3
   1  -8  -1    4.19    2.29   3
  -1  -8   0   -1.04    1.86   3
   1  -8   0   -0.16    1.91   3
  -1  -8  -1   -0.43    1.96   3
   1  -8   1    1.23    2.07   3
  -1  -8  -2   -0.65    1.91   3
   1  -8   2   -1.29    1.80   3
  -1  -8  -3   -0.09    2.28   3
  -1  -8  -4    4.31    2.63   3
  -2   0  13   -0.52    1.84   3
  -2   0  12    2.50    1.89   3
  -2   0  11   -0.74    1.46   3
  -2   0  10  471.97    9.01   3
  -2   0   9   -1.23    1.40   3
  -2   0   8 2294.21   19.93   3
  -2   0   7    0.04    0.98   3
  -2   0   6  472.15    6.82   3
  -2   0   5   -0.39    0.71   3
  -2   0   4 1241.78   10.75   3
  -2   0   3   -0.10    0.61   3
  -2   0   2    6.89    0.85   3
  -2   0   1    1.67    0.50   3
  -2   0   018186.16  128.99   3
  -2   0  -1    0.78    0.32   3
   2   0   2 3183.86   25.12   3
   2   0   3   -0.02    0.39   3
   2   0   4 2467.90   16.95   3
   2   0   5   -0.31    0.64   3
   2   0   6  328.85    4.99   3
   2   0   7    0.01    0.82   3
   2   0   8   64.08    3.06   3
   2   0   9   -0.84    1.16   3
  -2  -1  13    2.22    1.92   3
  -2   1  13    1.14    1.97   3
  -2  -1  12    8.58    2.21   3
  -2   1  12   11.98    2.39   3
  -2  -1  11   10.49    2.06   3
  -2   1  11   10.53    2.20   3
  -2  -1  10   37.90    3.28   3
  -2   1  10   37.95    3.42   3
  -2  -1   9  624.18    9.51   3
  -2   1   9  616.64    9.89   3
  -2  -1   8    9.68    1.69   3
  -2   1   8    8.17    1.83   3
  -2  -1   7  662.56    8.83   3
  -2   1   7  658.26    9.05   3
  -2  -1   6  109.53    3.52   3
  -2   1   6  104.51    3.44   3
  -2  -1   5 1024.75   10.42   3
  -2   1   5  980.01   10.24   3
  -2  -1   4   26.57    2.06   3
  -2   1   4   30.00    2.11   3
  -2  -1   3 4406.81   28.07   3
  -2   1   3 4447.94   28.41   3
  -2  -1   2   18.74    1.76   3
  -2   1   2   16.94    1.42   3
  -2  -1   1 4896.09   30.73   3
  -2   1   1 4977.31   31.38   3
  -2  -1   0 8435.66   51.25   3
  -2   1   0 8462.23   56.90   3
  -2  -1  -130542.20  177.94   3
  -2  -1  -2 1948.35   14.09   3
   2   1   3  337.98    4.69   3
   2  -1   4 1723.22   12.40   3
   2   1   4 1733.82   13.66   3
   2  -1   5  736.72    6.72   3
   2   1   5  743.83    8.15   3
   2  -1   6  140.56    3.15   3
   2   1   6  148.07    3.82   3
   2  -1   7    6.39    1.05   3
   2   1   7    5.95    1.27   3
   2  -1   8    3.39    1.13   3
   2   1   8    3.09    1.32   3
   2   1   9  111.61    4.36   3
  -2   2  13   12.46    2.78   3
  -2  -2  12   17.83    2.51   3
  -2   2  12   16.58    2.86   3
  -2  -2  11    3.34    1.79   3
  -2   2  11    3.81    1.83   3
  -2  -2  10   29.73    3.02   3
  -2   2  10   28.26    3.24   3
  -2  -2   9   18.52    2.21   3
  -2   2   9   18.52    2.79   3
  -2  -2   8  205.67    5.33   3
  -2   2   8  203.24    5.88   3
  -2  -2   7    8.07    1.57   3
  -2   2   7    6.71    1.58   3
  -2  -2   6    4.19    1.32   3
  -2   2   6    3.35    1.20   3
  -2  -2   5 1112.78   11.24   3
  -2   2   5 1116.84   11.81   3
  -2  -2   4 2567.12   19.01   3
  -2   2   4 2557.51   19.66   3
  -2  -2   3  390.49    5.66   3
  -2   2   3  392.65    5.92   3
  -2  -2   2   33.54    2.10   3
  -2   2   2   36.23    1.98   3
  -2  -2   1 5157.13   32.45   3
  -2   2   1 5149.25   32.26   3
  -2  -2   0 3675.58   24.55   3
  -2   2   0 3689.53   24.16   3
  -2  -2  -1  113.15    3.10   3
   2  -2   1  115.93    2.50   3
  -2  -2  -2 2329.86   17.51   3
   2  -2   2 2369.30   16.46   3
   2  -2   3  901.46    7.54   3
   2   2   3  904.47    9.53   3
   2  -2   4  116.14    2.50   3
   2   2   4  118.68    3.61   3
   2  -2   5   86.69    2.49   3
   2   2   5   77.09    3.10   3
   2  -2   6   40.13    1.95   3
   2   2   6   40.22    2.72   3
   2  -2   7    5.71    1.10   3
   2   2   7    6.37    1.53   3
   2   2   8   22.70    2.78   3
   2   2   9  254.51    6.73   3
   2   2  10   35.14    3.44   3
  -2   3  13   18.35    3.25   3
  -2   3  12   16.70    2.97   3
  -2  -3  11    2.56    1.80   3
  -2   3  11    3.24    2.08   3
  -2  -3  10   52.35    3.74   3
  -2   3  10   51.24    3.90   3
  -2  -3   9   -0.20    1.47   3
  -2   3   9    0.20    1.61   3
  -2  -3   8    0.28    1.41   3
  -2   3   8   -1.78    1.33   3
  -2  -3   7    0.81    1.36   3
  -2   3   7   -0.82    1.24   3
  -2  -3   6   20.93    2.11   3
  -2   3   6   20.64    2.56   3
  -2  -3   5  349.65    6.45   3
  -2   3   5  347.82    6.85   3
  -2  -3   4   75.24    3.21   3
  -2   3   4   76.27    3.36   3
  -2  -3   3 1036.85   10.94   3
  -2   3   3 1033.33   11.37   3
  -2  -3   2  422.80    6.49   3
  -2   3   2  431.28    6.57   3
  -2  -3   1   -0.25    0.89   3
  -2   3   1    0.50    0.82   3
  -2  -3   0 2308.97   18.36   3
   2  -3   0 2302.55   17.35   3
  -2  -3  -1  756.89    9.07   3
   2  -3   1  765.99    8.13   3
  -2  -3  -2  336.23    6.02   3
   2  -3   2  347.82    4.99   3
  -2  -3  -3  262.83    5.44   3
   2  -3   3  274.05    4.29   3
   2  -3   4   10.69    1.15   3
   2   3   4   11.84    1.68   3
   2  -3   5   95.85    3.09   3
   2   3   5   94.81    3.75   3
   2  -3   6   62.51    2.50   3
   2   3   6   63.36    3.51   3
   2   3   7   80.29    3.96   3
   2   3   8   23.01    2.64   3
   2   3   9   17.62    2.53   3
   2   3  10   23.52    2.90   3
   2   3  11    1.58    1.87   3
  -2   4  12   11.19    2.88   3
  -2   4  11   14.69    2.90   3
  -2  -4  10   -1.38    1.72   3
  -2   4  10   -1.23    1.71   3
  -2  -4   9    1.72    1.75   3
  -2   4   9    0.34    1.73   3
  -2  -4   8  142.76    5.16   3
  -2   4   8  144.08    5.77   3
  -2  -4   7    1.34    1.72   3
  -2   4   7    2.65    1.68   3
  -2  -4   6    3.77    1.81   3
  -2   4   6    3.60    1.66   3
  -2  -4   5  135.75    5.55   3
  -2   4   5  120.44    4.73   3
  -2  -4   4  277.26    6.12   3
  -2   4   4  265.42    6.41   3
  -2  -4   3  189.69    5.00   3
  -2   4   3  170.43    4.95   3
  -2  -4   2  140.99    4.48   3
  -2   4   2  139.88    4.42   3
  -2  -4   1   42.43    2.83   3
   2  -4  -1   41.75    2.77   3
  -2  -4   0  149.53    4.44   3
   2  -4   0  139.86    4.03   3
  -2  -4  -1  159.81    4.72   3
   2  -4   1  158.50    4.08   3
  -2  -4  -2  219.44    5.55   3
   2  -4   2  216.27    4.64   3
  -2  -4  -3  617.47    9.47   3
   2  -4   3  635.49    7.99   3
  -2  -4  -4  187.09    5.54   3
   2  -4   4  189.97    4.45   3
  -2  -4  -5  236.49    6.33   3
   2  -4   5  241.30    5.67   3
   2   4   6   19.08    2.41   3
   2   4   7   16.68    2.57   3
   2   4   8   23.11    2.74   3
   2   4   9   15.84    2.67   3
   2   4  10   16.66    2.91   3
   2   4  11    0.35    2.06   3
  -2   5  11   -0.14    2.06   3
  -2   5  10    1.36    2.13   3
  -2  -5   9    5.29    2.17   3
  -2   5   9    8.37    2.45   3
  -2  -5   8   69.87    4.63   3
  -2   5   8   65.06    4.67   3
  -2  -5   7   12.56    2.59   3
  -2   5   7   11.31    2.48   3
  -2  -5   6  195.87    6.37   3
  -2   5   6  187.12    6.50   3
  -2  -5   5   28.23    3.23   3
  -2   5   5   24.03    2.95   3
  -2  -5   4  114.89    4.71   3
  -2   5   4  107.77    5.01   3
  -2  -5   3    6.59    1.73   3
  -2   5   3    5.16    1.89   3
  -2  -5   2    7.47    1.77   3
   2  -5  -2    6.33    1.73   3
  -2  -5   1    2.25    1.45   3
   2  -5  -1    4.12    1.39   3
  -2  -5   0    1.15    1.47   3
   2  -5   0    1.27    1.22   3
  -2  -5  -1  157.94    5.38   3
   2  -5   1  158.01    4.69   3
  -2  -5  -2  367.75    7.97   3
   2  -5   2  359.60    6.82   3
  -2  -5  -3  104.16    4.95   3
   2  -5   3  111.82    4.15   3
  -2  -5  -4  657.98   11.19   3
   2  -5   4  671.72    9.48   3
  -2  -5  -5  127.64    5.46   3
  -2  -5  -6   62.45    4.18   3
  -2  -5  -7   22.32    2.93   3
  -2  -5  -8    2.34    2.01   3
   2   5   9   14.19    2.65   3
   2   5  10   -0.32    2.07   3
  -2   6   9    0.94    2.31   3
  -2  -6   8    4.98    2.27   3
  -2   6   8    1.54    2.33   3
  -2  -6   7    7.09    2.53   3
  -2   6   7   10.53    2.78   3
  -2  -6   6   12.95    2.83   3
  -2   6   6   14.99    2.69   3
  -2  -6   5   96.40    5.08   3
  -2   6   5   98.02    5.35   3
  -2  -6   4   71.17    4.37   3
   2  -6  -4   68.79    4.54   3
  -2  -6   3    0.50    1.78   3
   2  -6  -3    0.43    1.64   3
  -2  -6   2   28.85    3.29   3
   2  -6  -2   29.00    3.27   3
  -2  -6   1   -0.06    1.62   3
   2  -6  -1    1.22    1.67   3
  -2  -6   0   -0.63    1.57   3
   2  -6   0   -1.21    1.36   3
  -2  -6  -1   -0.13    1.65   3
   2  -6   1    0.95    1.42   3
  -2  -6  -2   48.00    4.19   3
   2  -6   2   53.99    3.55   3
  -2  -6  -3   64.77    4.52   3
   2  -6   3   62.01    3.76   3
  -2  -6  -4    4.25    2.10   3
  -2  -6  -5   62.28    4.53   3
  -2  -6  -6    0.76    2.00   3
  -2  -6  -7   17.38    3.04   3
  -2  -6  -8   38.83    4.42   3
  -2  -6  -9    9.07    3.03   3
  -2  -7   7   -1.39    2.33   3
   2  -7  -7   -0.49    2.17   3
  -2  -7   6    8.98    2.63   3
   2  -7  -6   14.94    3.05   3
  -2  -7   5    4.51    2.21   3
   2  -7  -5    7.87    2.55   3
  -2  -7   4   21.06    2.98   3
   2  -7  -4   20.30    3.13   3
  -2  -7   3    6.94    2.35   3
   2  -7  -3    6.93    2.35   3
  -2  -7   2   79.58    4.70   3
   2  -7  -2   78.19    4.77   3
  -2  -7   1    0.43    1.86   3
   2  -7  -1   -0.08    1.72   3
  -2  -7   0    8.51    2.39   3
   2  -7   0    8.51    2.18   3
  -2  -7  -1   -1.01    1.85   3
   2  -7   1   -1.71    1.60   3
  -2  -7  -2   -1.77    1.84   3
   2  -7   2   -1.91    1.55   3
  -2  -7  -3   -1.19    1.97   3
  -2  -7  -4   -0.90    1.94   3
  -2  -7  -5    9.05    2.71   3
  -2  -7  -6    2.68    2.48   3
  -2  -7  -7   14.17    3.29   3
  -2  -8   4   14.91    3.14   3
   2  -8  -4   12.80    3.08   3
  -2  -8   3   54.73    4.73   3
   2  -8  -3   53.46    4.74   3
  -2  -8   2    2.84    2.13   3
   2  -8  -2    2.33    2.31   3
  -2  -8   1    1.48    2.14   3
   2  -8  -1    1.07    1.98   3
  -2  -8   0    0.90    2.17   3
   2  -8   0   -0.75    2.09   3
  -2  -8  -1    1.24    2.14   3
   2  -8   1    2.22    2.14   3
  -2  -8  -2   -0.91    2.22   3
  -2  -8  -3    0.77    2.24   3
  -2  -8  -4    0.19    2.52   3
  -3   0  13   10.32    2.53   3
  -3   0  12   -0.57    1.69   3
  -3   0  11    6.30    2.01   3
  -3   0  10    0.01    1.44   3
  -3   0   9   90.99    4.25   3
  -3   0   8    1.91    1.35   3
  -3   0   7   25.43    2.36   3
  -3   0   6    0.00    0.90   3
  -3   0   5 2945.97   21.69   3
  -3   0   4   -0.24    0.69   3
  -3   0   3 2569.36   18.29   3
  -3   0   2    0.15    0.66   3
  -3   0   1   -0.10    0.59   3
  -3   0   0    0.23    0.50   3
  -3   0  -1 3566.26   25.41   3
  -3   0  -2   -0.11    0.38   3
  -3   0  -3  768.08    6.57   3
   3   0   4    0.17    0.54   3
   3   0   5 2951.97   20.06   3
   3   0   6   -0.09    0.74   3
   3   0   7   42.97    2.34   3
  -3  -1  13    9.13    2.47   3
  -3   1  13   11.60    2.67   3
  -3  -1  12   12.77    2.42   3
  -3   1  12   13.98    2.62   3
  -3  -1  11    8.25    1.99   3
  -3   1  11    7.86    2.11   3
  -3  -1  10   30.30    3.19   3
  -3   1  10   29.68    3.19   3
  -3  -1   9  608.01    9.74   3
  -3   1   9  606.82    9.96   3
  -3  -1   8    8.93    1.82   3
  -3   1   8    9.87    1.82   3
  -3  -1   7  454.12    7.67   3
  -3   1   7  456.49    7.86   3
  -3  -1   6    4.24    1.19   3
  -3   1   6    3.91    1.15   3
  -3  -1   5  669.97    8.27   3
  -3   1   5  667.67    8.45   3
  -3  -1   4  870.63    9.18   3
  -3   1   4  880.14    9.23   3
  -3  -1   3  977.92    9.41   3
  -3   1   3  939.70    9.09   3
  -3  -1   2 3143.14   21.17   3
  -3   1   2 3195.46   21.14   3
  -3  -1   1 3664.30   23.88   3
  -3   1   1 3690.17   23.71   3
  -3  -1   0 8713.72   51.81   3
  -3   1   0 8712.04   55.39   3
  -3  -1  -1 1075.00    9.04   3
  -3  -1  -2  223.05    3.57   3
  -3  -1  -3  733.83    7.32   3
   3   1   4  153.99    3.33   3
   3   1   5  572.54    7.09   3
   3  -1   6   13.11    1.08   3
   3   1   6   13.11    1.47   3
   3   1   7    5.88    1.30   3
   3   1   8   56.12    3.10   3
  -3  -2  13    0.03    2.00   3
  -3   2  13    0.22    2.12   3
  -3  -2  12   -0.16    1.77   3
  -3   2  12   -1.24    1.84   3
  -3  -2  11    3.19    1.96   3
  -3   2  11    2.54    1.85   3
  -3  -2  10   21.45    2.62   3
  -3   2  10   25.29    2.86   3
  -3  -2   9   16.25    2.32   3
  -3   2   9   15.18    2.45   3
  -3  -2   8 1135.31   13.30   3
  -3   2   8 1143.75   14.18   3
  -3  -2   7   44.24    2.97   3
  -3   2   7   40.91    3.18   3
  -3  -2   6   16.20    1.86   3
  -3   2   6   16.59    1.87   3
  -3  -2   5   56.99    3.15   3
  -3   2   5   56.99    3.06   3
  -3  -2   4   12.79    1.53   3
  -3   2   4    8.98    1.34   3
  -3  -2   3  186.75    4.22   3
  -3   2   3  187.43    4.09   3
  -3  -2   2  380.14    5.70   3
  -3   2   2  382.51    5.42   3
  -3  -2   1  101.98    3.16   3
  -3   2   1  101.14    2.70   3
  -3  -2   0 4930.30   31.66   3
  -3   2   0 4938.55   31.13   3
  -3  -2  -1   33.92    2.17   3
  -3   2  -1   37.56    1.86   3
  -3  -2  -2 1055.62   10.30   3
   3  -2   2 1064.22    8.54   3
  -3  -2  -3   31.69    2.30   3
  -3  -2  -4   64.57    2.78   3
   3   2   5   62.24    2.91   3
   3   2   6   17.35    1.88   3
   3   2   7   21.89    2.43   3
   3   2   8    1.24    1.46   3
   3   2   9   -0.82    1.59   3
  -3  -3  12    7.40    2.42   3
  -3   3  12    7.15    2.64   3
  -3  -3  11   17.30    2.55   3
  -3   3  11   17.23    2.80   3
  -3  -3  10   15.35    2.41   3
  -3   3  10   14.36    2.61   3
  -3  -3   9    0.27    1.62   3
  -3   3   9   -0.41    1.68   3
  -3  -3   8   24.35    2.95   3
  -3   3   8   24.82    2.80   3
  -3  -3   7    1.84    1.58   3
  -3   3   7    2.02    1.65   3
  -3  -3   6    1.13    1.47   3
  -3   3   6   -0.26    1.17   3
  -3  -3   5  172.13    4.93   3
  -3   3   5  172.05    4.94   3
  -3  -3   4    0.44    1.14   3
  -3   3   4    0.26    0.96   3
  -3  -3   3  673.12    8.79   3
  -3   3   3  664.65    8.83   3
  -3  -3   2  186.35    4.61   3
  -3   3   2  179.22    4.36   3
  -3  -3   1   95.81    3.55   3
  -3   3   1  100.34    3.15   3
  -3  -3   0 3218.26   23.80   3
  -3   3   0 3200.70   22.53   3
  -3  -3  -1 1175.75   12.18   3
   3  -3   1 1186.01   10.54   3
  -3  -3  -2   53.21    2.91   3
   3  -3   2   57.69    2.33   3
  -3  -3  -3  195.29    4.88   3
   3  -3   3  199.08    3.45   3
  -3  -3  -4  158.32    4.64   3
   3  -3   4  150.41    3.54   3
  -3  -3  -5   -0.74    1.20   3
   3   3   6   86.37    3.96   3
   3   3   7   21.70    2.40   3
   3   3   8  107.53    4.74   3
   3   3   9   35.21    3.68   3
   3   3  10   56.89    4.33   3
  -3   4  12   25.47    3.92   3
  -3  -4  11    6.30    2.29   3
  -3   4  11    4.60    2.32   3
  -3  -4  10    0.30    1.81   3
  -3   4  10   -0.45    1.84   3
  -3  -4   9   28.09    3.27   3
  -3   4   9   27.80    3.21   3
  -3  -4   8    7.11    2.12   3
  -3   4   8    4.73    2.00   3
  -3  -4   7   45.51    3.97   3
  -3   4   7   40.42    3.64   3
  -3  -4   6    7.26    2.14   3
  -3   4   6    8.10    2.16   3
  -3  -4   5  224.21    6.48   3
  -3   4   5  216.61    6.34   3
  -3  -4   4  612.36    9.33   3
  -3   4   4  602.69    9.67   3
  -3  -4   3    5.17    1.56   3
  -3   4   3    3.28    1.39   3
  -3  -4   2   11.46    1.73   3
  -3   4   2    9.75    1.58   3
  -3  -4   1    9.59    1.68   3
  -3   4   1    8.97    1.39   3
  -3  -4   0    4.97    1.43   3
   3  -4   0    3.60    1.15   3
  -3  -4  -1    9.38    1.69   3
   3  -4   1    8.24    1.35   3
  -3  -4  -2  212.62    5.54   3
   3  -4   2  208.43    4.44   3
  -3  -4  -3  302.32    6.68   3
   3  -4   3  308.36    5.26   3
  -3  -4  -4    9.49    1.98   3
  -3  -4  -5  701.58   10.99   3
  -3  -4  -6    4.07    1.79   3
  -3  -4  -7   21.07    2.58   3
  -3  -4  -8    1.12    1.72   3
   3   4   9    9.62    2.42   3
   3   4  10   -1.07    1.94   3
  -3   5  11   -2.00    2.12   3
  -3  -5  10    3.83    2.22   3
  -3   5  10    2.54    2.32   3
  -3  -5   9   12.98    2.66   3
  -3   5   9   12.17    2.70   3
  -3  -5   8    1.28    2.10   3
  -3   5   8    3.81    2.11   3
  -3  -5   7   33.20    3.99   3
  -3   5   7   38.20    3.87   3
  -3  -5   6   36.62    4.20   3
  -3   5   6   38.65    3.73   3
  -3  -5   5   17.10    2.55   3
  -3   5   5   15.60    2.58   3
  -3  -5   4  149.38    5.51   3
  -3   5   4  140.15    5.51   3
  -3  -5   3    6.64    1.77   3
  -3   5   3    4.51    1.84   3
  -3  -5   2   66.21    3.87   3
  -3   5   2   62.34    3.67   3
  -3  -5   1    4.49    1.76   3
   3  -5  -1    4.36    1.47   3
  -3  -5   0   49.73    3.63   3
   3  -5   0   51.19    3.09   3
  -3  -5  -1   11.17    2.09   3
   3  -5   1   14.96    1.79   3
  -3  -5  -2   12.51    2.24   3
   3  -5   2   14.88    1.82   3
  -3  -5  -3  172.24    6.06   3
   3  -5   3  176.76    4.71   3
  -3  -5  -4  808.26   12.50   3
  -3  -5  -5  104.61    5.05   3
  -3  -5  -6    4.87    2.10   3
  -3  -5  -7   -0.56    1.76   3
  -3  -5  -8   -0.72    1.95   3
  -3  -5  -9   19.69    3.13   3
  -3  -5 -10    3.26    2.44   3
  -3  -6   9    3.17    2.24   3
  -3   6   9    0.98    2.23   3
  -3  -6   8   36.21    4.18   3
  -3   6   8   38.80    4.29   3
  -3  -6   7   23.93    3.28   3
  -3   6   7   24.08    3.39   3
  -3  -6   6    2.03    2.33   3
  -3   6   6    5.61    2.33   3
  -3  -6   5   39.43    3.91   3
  -3   6   5   29.88    3.71   3
  -3  -6   4   16.80    2.73   3
  -3   6   4   13.69    2.56   3
  -3  -6   3    8.61    2.25   3
   3  -6  -3    6.93    2.04   3
  -3  -6   2   -0.39    1.63   3
   3  -6  -2   -2.00    1.47   3
  -3  -6   1   32.74    3.49   3
   3  -6  -1   34.79    3.26   3
  -3  -6   0    4.71    1.98   3
   3  -6   0    3.61    1.64   3
  -3  -6  -1    0.11    1.75   3
   3  -6   1    2.92    1.50   3
  -3  -6  -2    4.86    2.02   3
   3  -6   2    5.55    1.75   3
  -3  -6  -3   22.52    2.94   3
  -3  -6  -4   18.06    2.81   3
  -3  -6  -5    1.79    2.09   3
  -3  -6  -6   10.50    2.71   3
  -3  -6  -7    0.52    2.22   3
  -3  -6  -8   23.48    3.61   3
  -3  -7   7    7.99    2.86   3
  -3   7   7    9.72    2.90   3
  -3  -7   6   -0.30    2.54   3
   3  -7  -6    0.10    2.13   3
  -3  -7   5    0.03    2.04   3
   3  -7  -5    1.08    2.20   3
  -3  -7   4   10.90    2.61   3
   3  -7  -4   12.67    2.79   3
  -3  -7   3   16.49    2.91   3
   3  -7  -3   20.94    3.01   3
  -3  -7   2    3.52    2.10   3
   3  -7  -2    1.41    1.74   3
  -3  -7   1   20.19    2.94   3
   3  -7  -1   21.38    2.88   3
  -3  -7   0   13.40    2.78   3
   3  -7   0   14.07    2.45   3
  -3  -7  -1    7.65    2.41   3
   3  -7   1    8.04    2.26   3
  -3  -7  -2   -0.56    2.00   3
  -3  -7  -3    0.06    1.99   3
  -3  -7  -4   13.10    2.89   3
  -3  -7  -5    0.86    2.21   3
  -3  -7  -6   -0.49    2.20   3
  -3  -8   4   27.85    3.74   3
   3  -8  -4   29.75    3.75   3
  -3  -8   3   18.03    3.16   3
   3  -8  -3   18.83    3.26   3
  -3  -8   2    0.19    2.16   3
   3  -8  -2    0.48    2.17   3
  -3  -8   1    8.29    2.57   3
   3  -8  -1    7.04    2.41   3
  -3  -8   0    2.69    2.28   3
   3  -8   0    1.86    2.02   3
  -3  -8  -1   -0.79    2.13   3
  -3  -8  -2    4.15    2.63   3
  -3  -8  -3   -2.14    2.20   3
  -4   0  13   -0.24    1.75   3
  -4   0  12   65.37    4.55   3
  -4   0  11    1.39    1.71   3
  -4   0  10   19.95    2.56   3
  -4   0   9   -0.77    1.27   3
  -4   0   8    8.84    1.82   3
  -4   0   7    0.25    1.09   3
  -4   0   6  167.63    4.49   3
  -4   0   5   -0.25    0.97   3
  -4   0   4 4052.39   27.60   3
  -4   0   3   -0.52    0.72   3
  -4   0   2 1806.57   13.86   3
  -4   0   1   -0.30    0.56   3
  -4   0   0  144.66    2.65   3
  -4   0  -1    0.28    0.49   3
  -4   0  -2 1121.22    8.80   3
  -4   0  -3   -0.40    0.45   3
  -4   0  -4    0.00    0.51   3
  -4  -1  13    1.42    2.17   3
  -4   1  13    1.33    2.19   3
  -4  -1  12   23.16    2.97   3
  -4   1  12   23.93    3.11   3
  -4  -1  11    0.09    1.64   3
  -4   1  11    1.17    1.67   3
  -4  -1  10    0.60    1.53   3
  -4   1  10    0.53    1.57   3
  -4  -1   9  151.81    5.39   3
  -4   1   9  156.06    5.33   3
  -4  -1   8   74.25    3.81   3
  -4   1   8   74.54    3.87   3
  -4  -1   7  557.19    8.71   3
  -4   1   7  547.17    8.65   3
  -4  -1   6   26.68    2.51   3
  -4   1   6   26.70    2.38   3
  -4  -1   5  487.22    7.30   3
  -4   1   5  489.87    7.31   3
  -4  -1   4 2593.72   19.75   3
  -4   1   4 2578.09   19.58   3
  -4  -1   3   54.14    2.61   3
  -4   1   3   52.51    2.36   3
  -4  -1   2    0.68    0.77   3
  -4   1   2    0.51    0.62   3
  -4  -1   1  269.25    4.48   3
  -4   1   1  280.12    3.90   3
  -4  -1   0  544.38    6.16   3
  -4   1   0  548.76    5.28   3
  -4  -1  -1  251.76    3.98   3
  -4  -1  -2  844.57    7.94   3
  -4  -1  -3    3.40    0.86   3
  -4  -1  -4  741.73    7.71   3
  -4  -1  -5  150.22    3.64   3
   4   1   6  220.20    4.59   3
   4   1   7    6.60    1.35   3
  -4  -2  13    6.54    2.40   3
  -4   2  13    7.01    2.60   3
  -4  -2  12   -0.40    1.76   3
  -4   2  12   -0.57    1.98   3
  -4  -2  11    0.53    1.74   3
  -4   2  11    0.84    1.73   3
  -4  -2  10   76.56    4.42   3
  -4   2  10   86.91    4.69   3
  -4  -2   9  545.61    9.77   3
  -4   2   9  551.63   10.16   3
  -4  -2   8  703.51   10.74   3
  -4   2   8  703.40   11.07   3
  -4  -2   7  109.63    4.31   3
  -4   2   7  107.18    4.49   3
  -4  -2   6  191.43    5.18   3
  -4   2   6  197.12    5.29   3
  -4  -2   5  103.31    3.90   3
  -4   2   5  102.77    3.79   3
  -4  -2   4    6.57    1.41   3
  -4   2   4    7.12    1.30   3
  -4  -2   3    1.59    1.01   3
  -4   2   3    1.75    0.89   3
  -4  -2   2   47.64    2.62   3
  -4   2   2   48.04    2.23   3
  -4  -2   1 3324.38   23.48   3
  -4   2   1 3297.51   22.24   3
  -4  -2   0 2552.89   19.18   3
  -4   2   0 2557.33   17.75   3
  -4  -2  -1 7293.69   44.60   3
  -4   2  -1 7309.25   45.51   3
  -4  -2  -2  776.07    8.72   3
  -4  -2  -3  268.58    5.02   3
  -4  -2  -4    6.50    1.24   3
  -4  -2  -5  240.92    5.20   3
  -4  -2  -6   -2.89    1.08   3
   4   2   7   11.43    1.75   3
   4   2   8    5.42    1.74   3
  -4  -3  12    0.45    2.05   3
  -4   3  12    0.83    2.17   3
  -4  -3  11    0.52    1.69   3
  -4   3  11    0.96    1.93   3
  -4  -3  10    1.79    1.81   3
  -4   3  10   -0.40    1.73   3
  -4  -3   9  112.35    5.46   3
  -4   3   9   95.87    4.94   3
  -4  -3   8   24.29    2.67   3
  -4   3   8   20.78    2.71   3
  -4  -3   7  399.35    7.97   3
  -4   3   7  400.96    8.37   3
  -4  -3   6   81.54    4.22   3
  -4   3   6   84.01    4.19   3
  -4  -3   5    2.32    1.60   3
  -4   3   5    3.16    1.36   3
  -4  -3   4  416.27    7.47   3
  -4   3   4  407.69    7.29   3
  -4  -3   3   22.90    2.39   3
  -4   3   3   20.45    2.23   3
  -4  -3   2  511.92    7.77   3
  -4   3   2  513.92    7.38   3
  -4  -3   1  136.26    4.22   3
  -4   3   1  140.88    3.74   3
  -4  -3   0  384.70    6.71   3
  -4   3   0  380.95    5.68   3
  -4  -3  -1 1278.45   13.15   3
   4  -3   1 1282.51   11.08   3
  -4  -3  -2    0.82    1.16   3
   4  -3   2    0.05    0.71   3
  -4  -3  -3  471.81    7.55   3
   4  -3   3  466.92    5.14   3
  -4  -3  -4  855.67   10.89   3
  -4  -3  -5   68.04    3.69   3
  -4  -3  -6   26.45    3.00   3
  -4  -3  -7   -1.07    1.44   3
  -4  -3  -8    0.15    1.58   3
  -4  -3  -9    0.24    1.71   3
  -4  -4  12   32.45    3.85   3
  -4   4  12   30.72    3.94   3
  -4  -4  11    2.06    2.03   3
  -4   4  11    1.95    2.20   3
  -4  -4  10    6.04    2.22   3
  -4   4  10    6.61    2.37   3
  -4  -4   9    3.54    2.01   3
  -4   4   9    4.55    2.16   3
  -4  -4   8    2.79    1.94   3
  -4   4   8    0.95    1.86   3
  -4  -4   7   12.59    2.51   3
  -4   4   7    9.27    2.24   3
  -4  -4   6  141.79    5.69   3
  -4   4   6  137.76    5.50   3
  -4  -4   5  647.68   10.36   3
  -4   4   5  629.35   10.47   3
  -4  -4   4  113.64    4.65   3
  -4   4   4  102.85    4.59   3
  -4  -4   3  198.30    5.69   3
  -4   4   3  183.17    5.35   3
  -4  -4   2  136.03    4.64   3
  -4   4   2  131.93    4.28   3
  -4  -4   1    2.59    1.29   3
  -4   4   1    1.99    1.14   3
  -4  -4   0  135.79    4.68   3
   4  -4   0  105.99    3.55   3
  -4  -4  -1   10.10    1.84   3
   4  -4   1    8.75    1.41   3
  -4  -4  -2   60.25    3.59   3
   4  -4   2   60.24    2.61   3
  -4  -4  -3  493.44    8.79   3
  -4  -4  -4  816.88   11.60   3
  -4  -4  -5  558.27   10.02   3
  -4  -4  -6    5.53    1.83   3
  -4  -4  -7    6.99    2.04   3
  -4  -4  -8    2.51    1.97   3
  -4  -4  -9   16.01    2.81   3
  -4  -4 -10   24.74    3.19   3
  -4  -4 -11   -0.35    2.18   3
  -4  -5  10   -0.11    1.99   3
  -4   5  10   -2.36    2.10   3
  -4  -5   9    3.12    2.10   3
  -4   5   9    4.21    2.30   3
  -4  -5   8    0.35    2.06   3
  -4   5   8   -1.38    1.88   3
  -4  -5   7   14.16    2.97   3
  -4   5   7   16.89    2.89   3
  -4  -5   6   26.12    3.17   3
  -4   5   6   24.93    2.94   3
  -4  -5   5    0.01    1.78   3
  -4   5   5    1.54    1.74   3
  -4  -5   4   57.88    3.79   3
  -4   5   4   59.32    4.10   3
  -4  -5   3  282.98    7.18   3
  -4   5   3  283.00    7.25   3
  -4  -5   2    0.46    1.50   3
  -4   5   2   -0.56    1.22   3
  -4  -5   1   18.83    2.35   3
   4  -5  -1   15.26    2.09   3
  -4  -5   0   21.17    2.50   3
   4  -5   0   20.47    2.14   3
  -4  -5  -1   17.52    2.40   3
   4  -5   1   16.37    1.88   3
  -4  -5  -2    1.03    1.67   3
  -4  -5  -3   73.54    4.58   3
  -4  -5  -4   15.42    2.41   3
  -4  -5  -5    1.81    1.88   3
  -4  -5  -6    4.58    2.07   3
  -4  -5  -7   15.88    2.62   3
  -4  -5  -8    1.23    2.13   3
  -4  -5  -9   24.00    3.53   3
  -4  -6   9    0.80    2.25   3
  -4   6   9   -0.38    2.17   3
  -4  -6   8   22.38    3.24   3
  -4   6   8   23.16    3.46   3
  -4  -6   7   23.23    3.30   3
  -4   6   7   21.55    3.17   3
  -4  -6   6   10.73    2.74   3
  -4   6   6   10.33    2.51   3
  -4  -6   5   12.77    2.53   3
  -4   6   5   11.90    2.60   3
  -4  -6   4   38.47    3.84   3
  -4   6   4   35.68    3.65   3
  -4  -6   3    0.54    1.75   3
  -4   6   3    1.27    1.69   3
  -4  -6   2   15.38    2.49   3
   4  -6  -2   12.00    2.26   3
  -4  -6   1   52.53    4.05   3
   4  -6  -1   54.43    3.79   3
  -4  -6   0   -0.13    1.78   3
   4  -6   0    1.34    1.52   3
  -4  -6  -1    1.18    1.89   3
   4  -6   1    2.58    1.47   3
  -4  -6  -2   29.84    3.60   3
  -4  -6  -3    0.61    1.77   3
  -4  -6  -4    0.88    1.90   3
  -4  -6  -5    2.57    2.10   3
  -4  -6  -6   20.07    3.11   3
  -4  -6  -7   -1.92    2.17   3
  -4  -6  -8   46.87    4.74   3
  -4  -7   7   12.50    3.20   3
  -4   7   7    8.35    3.06   3
  -4  -7   6   10.35    3.11   3
  -4   7   6    7.51    2.69   3
  -4  -7   5   -0.89    2.00   3
   4  -7  -5   -1.94    2.00   3
  -4  -7   4    4.03    2.43   3
   4  -7  -4    4.29    2.34   3
  -4  -7   3   -0.47    2.01   3
   4  -7  -3    0.16    1.88   3
  -4  -7   2    7.19    2.42   3
   4  -7  -2    7.89    2.38   3
  -4  -7   1    4.13    2.15   3
   4  -7  -1    3.13    1.95   3
  -4  -7   0   16.75    2.87   3
   4  -7   0   16.19    2.52   3
  -4  -7  -1    3.48    2.23   3
  -4  -7  -2    5.35    2.38   3
  -4  -7  -3   18.35    3.12   3
  -4  -7  -4    7.33    2.57   3
  -4  -7  -5    1.28    2.31   3
  -4  -7  -6    1.11    2.51   3
  -4  -8   3    8.48    2.80   3
  -4  -8   2    3.90    2.48   3
   4  -8  -2    4.90    2.47   3
  -4  -8   1    2.94    2.30   3
  -4  -8   0    2.78    2.42   3
  -4  -8  -1   -0.25    2.29   3
  -5   0  13   48.76    4.70   3
  -5   0  12    1.73    2.14   3
  -5   0  11    4.65    2.08   3
  -5   0  10   -1.41    1.40   3
  -5   0   9    0.78    1.52   3
  -5   0   8    0.76    1.42   3
  -5   0   7   41.94    2.85   3
  -5   0   6    0.07    1.07   3
  -5   0   5  694.74    9.19   3
  -5   0   4   -0.07    0.94   3
  -5   0   3 2689.27   19.84   3
  -5   0   2    0.88    0.81   3
  -5   0   1    8.07    1.01   3
  -5   0   0   -0.59    0.60   3
  -5   0  -1 1575.35   11.72   3
  -5   0  -2   -0.40    0.46   3
  -5  -1  13   16.61    3.02   3
  -5   1  13   13.87    3.04   3
  -5  -1  12    6.36    2.24   3
  -5   1  12    9.26    2.47   3
  -5  -1  11    0.71    1.77   3
  -5   1  11    0.01    1.54   3
  -5  -1  10    9.27    2.27   3
  -5   1  10   12.43    2.48   3
  -5  -1   9  104.45    4.89   3
  -5   1   9  101.86    4.70   3
  -5   1   8  245.37    6.37   3
  -5  -1   7   -1.06    1.21   3
  -5   1   7   -0.69    1.09   3
  -5  -1   6   39.24    2.88   3
  -5   1   6   35.24    2.73   3
  -5  -1   5   43.99    2.91   3
  -5   1   5   40.84    2.61   3
  -5  -1   4  172.77    4.46   3
  -5   1   4  167.95    4.23   3
  -5  -1   3  401.10    6.16   3
  -5   1   3  398.20    5.98   3
  -5  -1   2   26.49    2.26   3
  -5   1   2   25.84    1.85   3
  -5  -1   1  620.85    7.32   3
  -5   1   1  633.63    6.77   3
  -5  -1   0 1145.72   10.26   3
  -5   1   0 1159.32    9.35   3
  -5  -1  -1    4.56    0.94   3
  -5   1  -1    5.68    0.65   3
  -5  -1  -2 1110.29    9.83   3
  -5  -1  -3   33.18    1.96   3
  -5  -1  -4  194.35    3.84   3
  -5  -1  -5    4.47    1.05   3
  -5  -1  -6   85.12    3.06   3
  -5  -1  -7    5.74    1.34   3
  -5  -2  13    0.75    2.13   3
  -5   2  13    2.14    2.44   3
  -5  -2  12    7.11    2.30   3
  -5   2  12    5.76    2.36   3
  -5  -2  11   40.90    3.86   3
  -5   2  11   42.57    3.99   3
  -5  -2  10   20.87    2.83   3
  -5   2  10   22.21    2.81   3
  -5  -2   9    9.39    2.22   3
  -5   2   9   14.49    2.47   3
  -5  -2   8  396.77    8.39   3
  -5   2   8  396.57    8.39   3
  -5  -2   7   27.52    3.21   3
  -5   2   7   28.71    3.21   3
  -5  -2   6  257.20    6.21   3
  -5   2   6  264.94    6.26   3
  -5  -2   5   -0.17    1.29   3
  -5   2   5    0.58    1.10   3
  -5  -2   4   14.50    1.81   3
  -5   2   4   12.16    1.54   3
  -5  -2   3  212.47    5.07   3
  -5   2   3  208.32    4.60   3
  -5  -2   2    9.78    1.47   3
  -5   2   2   11.61    1.27   3
  -5  -2   1  269.42    5.18   3
  -5   2   1  278.79    4.49   3
  -5  -2   0  134.20    3.67   3
  -5   2   0  149.67    3.11   3
  -5  -2  -1    3.20    1.07   3
  -5   2  -1    2.69    0.69   3
  -5  -2  -2    2.68    1.08   3
  -5  -2  -3  168.11    4.42   3
  -5  -2  -4  358.13    6.22   3
  -5  -2  -5   37.68    2.65   3
  -5  -2  -6   10.09    1.57   3
  -5  -2  -7    5.44    1.61   3
  -5  -2  -8    3.42    1.61   3
  -5  -3  12    1.40    2.13   3
  -5   3  12   -0.95    2.11   3
  -5  -3  11   -1.86    1.79   3
  -5   3  11    0.25    1.93   3
  -5  -3  10   13.00    2.53   3
  -5   3  10   18.29    2.87   3
  -5  -3   9   49.94    4.26   3
  -5   3   9   53.26    4.25   3
  -5   3   8  223.52    6.95   3
  -5  -3   7  242.94    6.70   3
  -5   3   7  243.54    6.90   3
  -5  -3   6   -1.34    1.83   3
  -5   3   6   -0.56    1.51   3
  -5  -3   5  560.99   10.09   3
  -5   3   5  507.98    8.91   3
  -5  -3   4  675.28    9.86   3
  -5   3   4  670.69    9.63   3
  -5  -3   3   21.62    2.62   3
  -5   3   3   17.33    1.91   3
  -5  -3   2   36.26    2.80   3
  -5   3   2   35.79    2.41   3
  -5  -3   1   80.32    3.45   3
  -5   3   1   80.56    2.97   3
  -5  -3   0  680.88    9.34   3
  -5   3   0  693.37    7.95   3
  -5  -3  -1  975.53   11.43   3
  -5   3  -1  972.89    9.29   3
  -5  -3  -2  226.74    5.51   3
  -5  -3  -3  243.13    5.74   3
  -5  -3  -4  332.77    6.81   3
  -5  -3  -5  294.17    6.57   3
  -5  -3  -6  271.74    6.50   3
  -5  -3  -7   11.52    2.10   3
  -5  -3  -8   10.44    2.22   3
  -5  -3  -9    6.21    2.11   3
  -5  -4  11    2.41    2.24   3
  -5   4  11    1.43    2.32   3
  -5  -4  10    1.27    2.06   3
  -5   4  10    3.28    2.39   3
  -5  -4   9   14.69    2.64   3
  -5   4   9   14.84    2.75   3
  -5  -4   8   24.77    2.98   3
  -5   4   8   21.80    2.96   3
  -5  -4   7   18.58    2.89   3
  -5   4   7   15.89    2.68   3
  -5  -4   6   82.10    5.25   3
  -5   4   6   68.99    4.42   3
  -5  -4   5  341.72    8.06   3
  -5   4   5  343.10    7.96   3
  -5  -4   4   17.58    2.42   3
  -5   4   4   17.26    2.38   3
  -5  -4   3   56.29    3.52   3
  -5   4   3   52.99    3.41   3
  -5  -4   2  107.81    4.46   3
  -5   4   2   99.76    3.89   3
  -5  -4   1    0.36    1.30   3
  -5   4   1    0.49    1.03   3
  -5  -4   0    0.18    1.39   3
  -5   4   0   -0.40    1.01   3
  -5  -4  -1  448.99    8.37   3
   5  -4   1  452.00    6.78   3
  -5  -4  -2  249.26    6.42   3
  -5  -4  -3   10.30    2.15   3
  -5  -4  -4  172.24    5.81   3
  -5  -4  -5  212.23    6.13   3
  -5  -4  -6   34.06    3.28   3
  -5  -4  -7    0.37    1.68   3
  -5  -4  -8   17.87    2.68   3
  -5  -4  -9    3.22    2.35   3
  -5  -5  10    1.03    2.29   3
  -5   5  10    2.78    2.42   3
  -5  -5   9    2.50    2.14   3
  -5   5   9    0.16    2.07   3
  -5  -5   8    0.45    2.11   3
  -5   5   8   -0.77    1.89   3
  -5  -5   7   -1.02    1.97   3
  -5   5   7   -1.11    1.75   3
  -5  -5   6   10.48    2.68   3
  -5   5   6   11.46    2.38   3
  -5  -5   5   96.23    5.29   3
  -5   5   5   94.82    4.97   3
  -5  -5   4   58.49    4.20   3
  -5   5   4   58.77    3.93   3
  -5  -5   3   65.63    4.21   3
  -5   5   3   56.28    3.62   3
  -5  -5   2    0.99    1.52   3
  -5   5   2    0.35    1.31   3
  -5  -5   1   24.05    2.64   3
  -5   5   1   23.00    2.70   3
  -5  -5   0   93.23    4.60   3
   5  -5   0   90.22    3.89   3
  -5  -5  -1   19.65    2.54   3
  -5  -5  -2    6.62    1.97   3
  -5  -5  -3    1.68    1.85   3
  -5  -5  -4   21.38    2.76   3
  -5  -5  -5   70.55    4.44   3
  -5  -5  -6    3.63    2.00   3
  -5  -5  -7    0.96    2.00   3
  -5  -5  -8    1.20    2.15   3
  -5  -5  -9   35.80    4.19   3
  -5  -6   9    4.59    2.68   3
  -5   6   9    5.44    2.59   3
  -5  -6   8   16.04    3.19   3
  -5   6   8   16.32    3.28   3
  -5  -6   7    3.01    2.45   3
  -5   6   7    1.49    2.16   3
  -5  -6   6    2.60    2.33   3
  -5   6   6    1.25    1.99   3
  -5  -6   5   10.80    2.53   3
  -5   6   5   13.13    2.70   3
  -5  -6   4   17.28    2.85   3
  -5   6   4   17.41    2.74   3
  -5  -6   3    0.01    1.81   3
  -5   6   3   -0.78    1.61   3
  -5  -6   2   47.76    4.01   3
   5  -6  -2   43.15    3.59   3
  -5  -6   1   -0.06    1.82   3
   5  -6  -1    1.65    1.62   3
  -5  -6   0    5.32    2.04   3
  -5  -6  -1   39.44    3.92   3
  -5  -6  -2    1.17    1.96   3
  -5  -6  -3    0.70    1.83   3
  -5  -6  -4   18.17    2.86   3
  -5  -6  -5   67.25    5.13   3
  -5  -6  -6    2.11    2.22   3
  -5  -6  -7    2.66    2.52   3
  -5  -7   6    3.08    2.96   3
  -5   7   6    2.57    2.54   3
  -5  -7   5    8.79    2.72   3
  -5   7   5    7.94    2.67   3
  -5  -7   4   -0.91    1.94   3
   5  -7  -4   -0.50    1.90   3
  -5  -7   3   10.63    2.71   3
   5  -7  -3   13.44    2.76   3
  -5  -7   2    1.57    2.02   3
   5  -7  -2    0.90    1.85   3
  -5  -7   1   16.03    2.88   3
  -5  -7   0    0.81    2.01   3
  -5  -7  -1    1.10    2.07   3
  -5  -7  -2    5.36    2.51   3
  -5  -7  -3   17.32    3.09   3
  -5  -7  -4    0.04    2.19   3
  -5  -7  -5    2.43    2.55   3
  -6   0  13   -0.52    2.38   3
  -6   0  12   34.26    3.95   3
  -6   0  11    0.22    1.81   3
  -6   0  10   31.08    3.30   3
  -6   0   9   -0.19    1.51   3
  -6   0   8    7.29    1.92   3
  -6   0   7    0.34    1.33   3
  -6   0   6   43.08    3.10   3
  -6   0   5   -0.97    0.97   3
  -6   0   4  499.71    7.58   3
  -6   0   3   -0.38    0.91   3
  -6   0   2   35.44    2.34   3
  -6   0   1   -0.21    0.83   3
  -6   0   0  815.64    7.96   3
  -6   0  -1    0.15    0.68   3
  -6   0  -2   56.69    1.99   3
  -6  -1  13    0.79    2.29   3
  -6   1  13    0.92    2.25   3
  -6  -1  12   46.09    4.19   3
  -6   1  12   45.90    4.32   3
  -6  -1  11    9.53    2.32   3
  -6   1  11    8.81    2.45   3
  -6  -1  10    6.86    2.12   3
  -6   1  10    8.46    2.23   3
  -6  -1   9   12.77    2.42   3
  -6   1   9   12.67    2.24   3
  -6  -1   8   63.95    4.03   3
  -6   1   8   62.00    3.82   3
  -6  -1   7   32.32    3.06   3
  -6   1   7   32.99    3.05   3
  -6  -1   6    4.51    1.64   3
  -6   1   6    3.56    1.37   3
  -6  -1   5    9.78    1.74   3
  -6   1   5   11.53    1.67   3
  -6  -1   4  707.97    9.39   3
  -6   1   4  705.29    9.10   3
  -6  -1   3  198.74    4.77   3
  -6   1   3  203.58    4.58   3
  -6  -1   2  343.09    5.85   3
  -6   1   2  343.46    5.36   3
  -6  -1   1   14.84    1.51   3
  -6   1   1   15.36    1.59   3
  -6  -1   0 1314.50   11.89   3
  -6   1   0 1325.68   10.84   3
  -6  -1  -1  516.21    6.41   3
  -6   1  -1  528.87    5.34   3
  -6  -1  -2  202.52    3.84   3
  -6  -1  -3    0.68    0.75   3
  -6  -1  -4    1.02    0.90   3
  -6  -1  -5   68.40    2.83   3
  -6  -2  12    2.59    2.29   3
  -6   2  12    0.23    2.12   3
  -6  -2  11    6.49    2.37   3
  -6   2  11    4.95    2.20   3
  -6  -2  10    1.24    1.86   3
  -6   2  10    1.21    1.97   3
  -6  -2   9  118.63    5.20   3
  -6   2   9  122.57    5.36   3
  -6  -2   8   27.98    3.49   3
  -6   2   8   33.07    3.42   3
  -6  -2   7  250.36    6.73   3
  -6   2   7  246.67    6.57   3
  -6  -2   6   11.42    2.21   3
  -6   2   6   12.37    1.79   3
  -6  -2   5  189.12    5.68   3
  -6   2   5  190.09    5.20   3
  -6  -2   4  499.15    8.35   3
  -6   2   4  524.14    8.09   3
  -6  -2   3 1111.23   12.27   3
  -6   2   3 1099.64   11.64   3
  -6  -2   2   43.78    3.26   3
  -6   2   2   39.65    2.47   3
  -6  -2   1  364.27    6.32   3
  -6   2   1  365.34    5.41   3
  -6  -2   0   16.16    1.99   3
  -6   2   0   15.87    1.58   3
  -6  -2  -1   63.45    2.76   3
  -6   2  -1   67.41    2.05   3
  -6  -2  -2   22.13    2.22   3
  -6  -2  -3  171.75    4.51   3
  -6  -2  -4  299.43    5.95   3
  -6  -2  -5  655.30    8.84   3
  -6  -2  -6   90.76    3.81   3
  -6  -3  12    7.26    2.56   3
  -6   3  12    2.27    2.46   3
  -6  -3  11    1.23    2.14   3
  -6   3  11    1.91    2.23   3
  -6  -3  10    0.82    2.01   3
  -6   3  10   -0.24    1.83   3
  -6  -3   9   74.93    4.79   3
  -6   3   9   70.75    4.71   3
  -6  -3   8  396.21    8.99   3
  -6   3   8  397.28    9.17   3
  -6  -3   7  221.93    6.77   3
  -6   3   7  228.53    6.84   3
  -6  -3   6  134.50    5.56   3
  -6   3   6  136.59    5.30   3
  -6  -3   5  457.67    8.80   3
  -6   3   5  447.50    8.51   3
  -6  -3   4  824.44   11.63   3
  -6   3   4  791.12   10.94   3
  -6  -3   3    9.57    1.88   3
  -6   3   3    9.15    1.70   3
  -6  -3   2    5.51    1.48   3
  -6   3   2    5.93    1.31   3
  -6  -3   1   -0.60    1.27   3
  -6   3   1    0.72    0.91   3
  -6  -3   0  481.00    7.88   3
  -6   3   0  500.43    6.65   3
  -6  -3  -1   10.73    1.79   3
  -6   3  -1   11.19    1.22   3
  -6  -3  -2  283.46    6.23   3
  -6  -3  -3  127.87    4.69   3
  -6  -3  -4  149.78    4.99   3
  -6  -3  -5  457.81    8.78   3
  -6  -3  -6   12.63    2.15   3
  -6  -3  -7    1.04    1.58   3
  -6  -4  11   -0.84    2.16   3
  -6   4  11    1.95    2.35   3
  -6  -4  10    0.45    2.14   3
  -6   4  10    0.87    2.07   3
  -6  -4   9   45.91    4.20   3
  -6   4   9   49.79    4.42   3
  -6  -4   8  125.49    5.52   3
  -6   4   8  122.37    5.75   3
  -6  -4   7   45.33    4.14   3
  -6   4   7   41.57    3.88   3
  -6  -4   6    2.43    2.02   3
  -6   4   6    0.40    1.71   3
  -6  -4   5   39.88    4.01   3
  -6   4   5   36.87    3.63   3
  -6  -4   4  105.91    5.01   3
  -6   4   4  100.71    4.57   3
  -6  -4   3  100.78    4.50   3
  -6   4   3  103.40    4.43   3
  -6  -4   2   61.74    3.84   3
  -6   4   2   59.62    3.28   3
  -6  -4   1   11.25    2.02   3
  -6   4   1   12.63    1.69   3
  -6  -4   0   75.33    4.05   3
  -6   4   0   77.74    3.25   3
  -6  -4  -1  406.97    8.08   3
  -6  -4  -2  149.95    5.29   3
  -6  -4  -3   -1.16    1.50   3
  -6  -4  -4  127.81    5.11   3
  -6  -4  -5    4.17    1.80   3
  -6  -4  -6   18.28    2.61   3
  -6  -4  -7    3.50    2.02   3
  -6  -4  -8   12.19    2.58   3
  -6  -5  10    9.15    2.87   3
  -6   5  10    8.38    3.07   3
  -6  -5   9    4.70    2.43   3
  -6   5   9    3.01    2.47   3
  -6  -5   8    1.47    2.36   3
  -6   5   8    1.66    2.50   3
  -6  -5   7   25.63    3.43   3
  -6   5   7   25.65    3.19   3
  -6  -5   6    0.38    2.00   3
  -6   5   6    0.35    1.72   3
  -6  -5   5   12.48    2.78   3
  -6   5   5   10.58    2.28   3
  -6  -5   4   13.86    2.55   3
  -6   5   4   14.71    2.26   3
  -6  -5   3    1.13    1.73   3
  -6   5   3    2.31    1.63   3
  -6  -5   2    1.51    1.69   3
  -6   5   2    0.96    1.41   3
  -6  -5   1   97.77    4.90   3
  -6   5   1   95.24    4.13   3
  -6  -5   0    5.75    1.95   3
  -6  -5  -1   13.08    2.30   3
  -6  -5  -2    6.74    2.11   3
  -6  -5  -3   37.97    3.68   3
  -6  -5  -4   24.07    2.90   3
  -6  -5  -5   15.13    2.56   3
  -6  -5  -6   17.95    2.90   3
  -6  -5  -7    3.07    2.21   3
  -6  -5  -8    4.04    2.58   3
  -6  -6   8    2.91    2.62   3
  -6   6   8    3.14    2.60   3
  -6  -6   7   -2.68    2.20   3
  -6   6   7   -0.73    1.96   3
  -6  -6   6   -0.67    2.29   3
  -6   6   6   -0.29    1.91   3
  -6  -6   5   13.75    2.91   3
  -6   6   5   11.91    2.55   3
  -6  -6   4   26.26    3.19   3
  -6   6   4   26.56    3.10   3
  -6  -6   3    0.60    1.93   3
  -6   6   3    4.58    1.85   3
  -6  -6   2   16.65    2.74   3
   6  -6  -2   15.58    2.48   3
  -6  -6   1    0.69    2.02   3
  -6  -6   0   34.97    3.68   3
  -6  -6  -1   11.05    2.45   3
  -6  -6  -2    0.19    1.95   3
  -6  -6  -3   23.06    3.12   3
  -6  -6  -4   31.32    3.58   3
  -6  -6  -5   -0.08    2.19   3
  -6  -6  -6   -0.70    2.08   3
  -6  -7   5   10.57    3.34   3
  -6   7   5    7.15    2.61   3
  -6  -7   4   14.91    3.10   3
   6  -7  -4   19.12    3.06   3
  -6  -7   3   17.18    3.02   3
   6  -7  -3   19.34    3.06   3
  -6  -7   2    1.37    2.18   3
  -6  -7   1    0.39    2.16   3
  -6  -7   0    4.07    2.33   3
  -6  -7  -1   -0.56    2.13   3
  -6  -7  -2    4.91    2.48   3
  -6  -7  -3   10.54    2.92   3
  -6  -7  -4   -1.61    2.22   3
  -7   0  12   -2.12    1.97   3
  -7   0  11    7.65    2.48   3
  -7   0  10   -0.70    1.59   3
  -7   0   9   37.36    3.66   3
  -7   0   8    2.40    1.69   3
  -7   0   7  201.71    6.03   3
  -7   0   6   -0.11    1.27   3
  -7   0   5    2.61    1.37   3
  -7   0   4    0.93    1.20   3
  -7   0   3  161.71    4.36   3
  -7   0   2    0.49    0.98   3
  -7   0   1  419.17    6.19   3
  -7   0   0   -0.86    0.83   3
  -7   0  -1  636.88    6.90   3
  -7   0  -2    0.26    0.72   3
  -7  -1  12   11.05    2.75   3
  -7   1  12   11.17    2.74   3
  -7  -1  11   11.79    2.67   3
  -7   1  11   14.04    2.80   3
  -7  -1  10   36.39    3.67   3
  -7   1  10   32.48    3.66   3
  -7  -1   9   31.52    3.57   3
  -7   1   9   29.13    3.44   3
  -7  -1   8   37.20    3.47   3
  -7   1   8   34.74    3.47   3
  -7  -1   7    5.75    1.84   3
  -7   1   7    5.59    1.80   3
  -7  -1   6   43.56    3.37   3
  -7   1   6   43.14    3.15   3
  -7  -1   5   22.22    2.42   3
  -7   1   5   23.92    2.65   3
  -7  -1   4  387.71    7.27   3
  -7   1   4  402.59    7.20   3
  -7  -1   3   21.02    2.58   3
  -7   1   3   22.02    2.30   3
  -7  -1   2   34.68    2.64   3
  -7   1   2   38.06    2.35   3
  -7  -1   1  101.09    3.55   3
  -7   1   1   96.77    2.98   3
  -7  -1   0    0.95    1.04   3
  -7   1   0    1.72    0.89   3
  -7  -1  -1  126.91    3.68   3
  -7   1  -1  121.97    2.69   3
  -7  -1  -2    0.79    0.90   3
  -7  -1  -3    0.54    0.84   3
  -7  -1  -4   11.81    1.30   3
  -7  -2  12   -0.02    2.31   3
  -7   2  12   -0.77    2.17   3
  -7  -2  11   11.43    2.74   3
  -7   2  11   11.46    2.79   3
  -7  -2  10    3.16    2.08   3
  -7   2  10    4.48    2.10   3
  -7  -2   9   -0.26    1.78   3
  -7   2   9   -1.55    1.60   3
  -7  -2   8    5.47    2.23   3
  -7   2   8    6.25    2.01   3
  -7  -2   7   63.57    4.15   3
  -7   2   7   66.75    3.92   3
  -7  -2   6   28.18    3.44   3
  -7   2   6   31.01    3.11   3
  -7  -2   5    2.45    1.93   3
  -7   2   5    3.87    1.57   3
  -7  -2   4  767.24   10.76   3
  -7   2   4  780.26   10.38   3
  -7  -2   3   16.20    2.12   3
  -7   2   3   15.78    1.86   3
  -7  -2   2   35.03    3.11   3
  -7   2   2   30.86    2.77   3
  -7  -2   1   17.52    1.91   3
  -7   2   1   20.06    2.07   3
  -7  -2   0  104.20    3.58   3
  -7   2   0  104.61    2.87   3
  -7  -2  -1    6.33    1.37   3
  -7   2  -1    6.85    0.91   3
  -7  -2  -2  201.53    4.75   3
  -7  -2  -3   26.20    2.41   3
  -7  -2  -4  457.98    7.30   3
  -7  -2  -5   19.83    2.08   3
  -7  -3  11   13.62    3.02   3
  -7   3  11   14.91    3.42   3
  -7  -3  10    0.22    2.10   3
  -7   3  10    2.65    2.20   3
  -7  -3   9   20.63    3.12   3
  -7   3   9   18.08    2.93   3
  -7  -3   8   55.46    4.32   3
  -7   3   8   55.73    4.28   3
  -7  -3   7   73.50    4.59   3
  -7   3   7   70.05    4.34   3
  -7  -3   6   21.70    2.82   3
  -7   3   6   23.10    2.69   3
  -7  -3   5  198.26    6.32   3
  -7   3   5  190.53    5.88   3
  -7  -3   4  461.84    8.86   3
  -7   3   4  466.41    8.54   3
  -7  -3   3   45.79    3.79   3
  -7   3   3   37.68    3.11   3
  -7  -3   2  216.00    6.35   3
  -7   3   2  209.09    5.06   3
  -7  -3   1   11.80    1.91   3
  -7   3   1   16.92    2.08   3
  -7  -3   0   77.85    3.68   3
  -7   3   0   80.69    2.90   3
  -7  -3  -1   33.89    2.82   3
  -7  -3  -2    3.06    1.44   3
  -7  -3  -3  129.76    4.59   3
  -7  -3  -4   -0.86    1.53   3
  -7  -3  -5  106.38    4.52   3
  -7  -3  -6   29.08    3.30   3
  -7  -4  10    5.40    2.91   3
  -7   4  10    6.30    2.73   3
  -7  -4   9   14.66    3.05   3
  -7   4   9   15.65    3.12   3
  -7  -4   8   24.20    3.11   3
  -7   4   8   26.10    3.38   3
  -7  -4   7   82.15    4.98   3
  -7   4   7   85.97    5.01   3
  -7  -4   6   71.83    4.78   3
  -7   4   6   64.90    4.38   3
  -7  -4   5    8.51    2.36   3
  -7   4   5    6.48    2.03   3
  -7  -4   4    3.34    1.89   3
  -7   4   4    2.68    1.64   3
  -7  -4   3    0.48    1.67   3
  -7   4   3    0.03    1.27   3
  -7  -4   2    1.25    1.63   3
  -7   4   2    2.69    1.28   3
  -7  -4   1   -2.13    1.47   3
  -7   4   1    0.32    1.10   3
  -7  -4   0  111.29    4.78   3
  -7   4   0  110.75    3.85   3
  -7  -4  -1   51.30    3.65   3
  -7  -4  -2   33.10    3.28   3
  -7  -4  -3    2.90    1.74   3
  -7  -4  -4   -0.43    1.59   3
  -7  -4  -5   25.97    3.24   3
  -7  -4  -6    8.88    2.31   3
  -7  -4  -7    0.37    1.90   3
  -7  -5   9    1.99    2.53   3
  -7   5   9    1.54    2.39   3
  -7  -5   8   82.75    5.39   3
  -7   5   8   80.40    5.51   3
  -7  -5   7   22.75    3.42   3
  -7   5   7   14.96    3.15   3
  -7  -5   6    5.52    2.58   3
  -7   5   6    2.85    1.94   3
  -7  -5   5    0.17    2.16   3
  -7   5   5    0.32    1.66   3
  -7  -5   4    9.00    2.62   3
  -7   5   4    7.42    2.02   3
  -7  -5   3   24.38    2.89   3
  -7   5   3   27.83    3.00   3
  -7  -5   2   15.13    2.47   3
  -7   5   2   18.10    2.32   3
  -7  -5   1   23.97    2.89   3
  -7   5   1   26.21    2.71   3
  -7  -5   0   54.99    3.99   3
  -7  -5  -1   36.44    3.60   3
  -7  -5  -2   97.49    4.85   3
  -7  -5  -3   12.54    2.53   3
  -7  -5  -4   11.17    2.51   3
  -7  -5  -5   10.44    2.46   3
  -7  -5  -6    1.94    2.07   3
  -7  -5  -7   -1.19    2.23   3
  -7  -6   7    5.07    2.88   3
  -7   6   7    4.86    2.62   3
  -7  -6   6   -1.76    2.33   3
  -7   6   6   -0.21    2.07   3
  -7  -6   5    2.88    2.75   3
  -7   6   5    0.60    2.02   3
  -7  -6   4   58.36    4.62   3
  -7   6   4   51.00    4.35   3
  -7  -6   3    8.36    2.52   3
  -7   6   3    8.38    2.20   3
  -7  -6   2    7.07    2.38   3
  -7   6   2    6.92    2.04   3
  -7  -6   1   11.00    2.60   3
  -7  -6   0   11.31    2.72   3
  -7  -6  -1   17.97    2.88   3
  -7  -6  -2    4.74    2.36   3
  -7  -6  -3   14.07    2.89   3
  -7  -6  -4   17.18    3.01   3
  -7  -6  -5   -0.07    2.08   3
  -7  -7   4   11.45    3.14   3
  -7   7   4    8.47    2.58   3
  -7  -7   3    2.79    2.55   3
  -7  -7   2    3.61    2.59   3
  -7  -7   1    5.61    2.64   3
  -7  -7   0   -1.19    2.17   3
  -7  -7  -1    2.79    2.26   3
  -7  -7  -2    0.81    2.33   3
  -8   0  12   -2.13    2.07   3
  -8   0  11   -0.97    1.94   3
  -8   0  10   14.90    2.71   3
  -8   0   9   -0.35    1.80   3
  -8   0   7   -0.54    1.47   3
  -8   0   6    4.96    1.90   3
  -8   0   5   -1.79    1.29   3
  -8   0   4   33.29    3.11   3
  -8   0   3    0.13    1.16   3
  -8   0   2   86.54    3.45   3
  -8   0   1   -0.30    1.04   3
  -8   0   0  123.88    3.57   3
  -8   0  -1    0.24    0.95   3
  -8   0  -2  416.46    5.40   3
  -8  -1  12    6.32    2.70   3
  -8   1  12    3.66    2.56   3
  -8  -1  11    0.97    2.08   3
  -8   1  11    0.53    2.14   3
  -8  -1  10   13.50    2.62   3
  -8   1  10   14.13    2.76   3
  -8  -1   9   21.54    3.08   3
  -8   1   9   20.39    2.93   3
  -8  -1   8   48.80    3.96   3
  -8   1   8   48.86    3.97   3
  -8  -1   7   -2.07    1.42   3
  -8   1   7   -0.30    1.50   3
  -8  -1   6   19.43    2.51   3
  -8   1   6   22.80    2.84   3
  -8  -1   5  221.69    6.07   3
  -8   1   5  232.52    6.08   3
  -8  -1   4    8.92    2.04   3
  -8   1   4   10.65    1.95   3
  -8  -1   3  368.08    7.03   3
  -8   1   3  382.51    6.97   3
  -8  -1   2    3.97    1.48   3
  -8   1   2    3.87    1.25   3
  -8  -1   1   70.78    3.34   3
  -8   1   1   75.98    2.91   3
  -8  -1   0  290.41    5.56   3
  -8   1   0  306.85    5.03   3
  -8  -1  -1    5.78    1.36   3
  -8   1  -1   27.39    1.92   3
  -8  -1  -2    9.50    1.43   3
  -8  -1  -3   31.30    2.76   3
  -8  -2  11   39.94    4.37   3
  -8   2  11   40.29    4.37   3
  -8  -2  10   -1.00    1.84   3
  -8   2  10   -1.21    1.83   3
  -8  -2   9    2.50    1.93   3
  -8   2   9    4.33    2.14   3
  -8  -2   8    0.45    1.97   3
  -8   2   8    0.46    1.57   3
  -8  -2   7   19.57    2.80   3
  -8   2   7   21.86    2.76   3
  -8  -2   6   68.58    4.21   3
  -8   2   6   66.79    3.99   3
  -8  -2   5    6.29    2.15   3
  -8   2   5    7.74    2.06   3
  -8  -2   4  316.53    7.37   3
  -8   2   4  316.85    6.87   3
  -8  -2   3  991.24   12.55   3
  -8   2   3  966.60   11.62   3
  -8  -2   2   45.74    3.30   3
  -8   2   2   42.44    3.15   3
  -8  -2   1   -0.18    1.23   3
  -8   2   1    0.21    0.92   3
  -8  -2   0  109.19    4.15   3
  -8   2   0  110.70    3.09   3
  -8  -2  -1  167.05    4.57   3
  -8  -2  -2    6.14    1.34   3
  -8  -2  -3   -1.91    1.19   3
  -8  -2  -4   99.71    3.61   3
  -8  -3  11    4.13    2.53   3
  -8   3  11    2.82    2.64   3
  -8  -3  10   -2.65    2.02   3
  -8   3  10   -0.96    2.06   3
  -8  -3   9    0.95    2.35   3
  -8   3   9   -1.69    1.80   3
  -8  -3   8   29.30    3.38   3
  -8   3   8   32.09    3.66   3
  -8  -3   7   14.97    2.78   3
  -8   3   7   12.38    2.42   3
  -8  -3   6   46.37    4.06   3
  -8   3   6   56.01    3.95   3
  -8  -3   5   42.84    4.08   3
  -8   3   5   38.99    3.46   3
  -8  -3   4    1.01    1.82   3
  -8   3   4   -1.85    1.35   3
  -8  -3   3   61.84    4.09   3
  -8   3   3   57.47    3.46   3
  -8  -3   2   16.34    2.28   3
  -8   3   2   14.83    1.81   3
  -8  -3   1   63.93    3.61   3
  -8   3   1   65.50    3.07   3
  -8  -3   0   10.32    1.85   3
  -8  -3  -1   24.49    2.66   3
  -8  -3  -2   21.51    2.58   3
  -8  -3  -3    7.07    1.77   3
  -8  -3  -4    2.63    1.60   3
  -8  -3  -5   28.87    3.13   3
  -8  -4  10    7.58    2.83   3
  -8   4  10    8.84    2.95   3
  -8  -4   9   40.55    4.48   3
  -8   4   9   42.28    4.60   3
  -8  -4   8   46.64    4.44   3
  -8   4   8   45.43    4.52   3
  -8  -4   7  150.18    6.42   3
  -8   4   7  150.64    6.41   3
  -8  -4   6   -1.13    2.11   3
  -8   4   6   -0.95    1.73   3
  -8  -4   5    0.58    2.15   3
  -8   4   5   -0.34    1.56   3
  -8  -4   4    0.41    1.92   3
  -8   4   4   -0.59    1.47   3
  -8  -4   3    6.41    2.31   3
  -8   4   3    4.76    1.61   3
  -8  -4   2    2.70    1.94   3
  -8   4   2    2.25    1.37   3
  -8  -4   1   13.49    2.43   3
  -8  -4   0   68.36    4.09   3
  -8  -4  -1  139.82    5.24   3
  -8  -4  -2    0.89    1.59   3
  -8  -4  -3    0.95    1.60   3
  -8  -4  -4   -0.15    1.60   3
  -8  -4  -5    1.01    1.78   3
  -8  -5   8   30.63    3.99   3
  -8   5   8   30.62    3.89   3
  -8  -5   7   55.60    5.01   3
  -8   5   7   62.28    4.94   3
  -8  -5   6   33.64    3.79   3
  -8   5   6   37.23    4.28   3
  -8  -5   5    3.94    2.41   3
  -8   5   5    3.55    1.99   3
  -8  -5   4    1.69    2.12   3
  -8   5   4    0.34    1.68   3
  -8  -5   3    1.42    2.11   3
  -8   5   3   -0.39    1.49   3
  -8  -5   2    0.44    1.83   3
  -8   5   2   -0.67    1.38   3
  -8  -5   1   -0.43    1.75   3
  -8  -5   0   55.63    4.12   3
  -8  -5  -1    9.65    2.33   3
  -8  -5  -2   48.88    3.80   3
  -8  -5  -3    6.57    2.25   3
  -8  -5  -4    8.54    2.36   3
  -8  -5  -5   12.79    2.67   3
  -8  -5  -6   -1.01    2.03   3
  -8  -6   6   23.10    3.73   3
  -8   6   6   22.15    3.33   3
  -8  -6   5   21.29    3.54   3
  -8   6   5   21.00    3.22   3
  -8  -6   4    2.54    2.58   3
  -8   6   4    1.52    1.98   3
  -8  -6   3    4.59    2.52   3
  -8   6   3    2.19    1.89   3
  -8  -6   2    2.42    2.12   3
  -8  -6   1    0.95    2.11   3
  -8  -6   0    0.25    2.16   3
  -8  -6  -1   10.19    2.73   3
  -8  -6  -2   17.26    3.01   3
  -8  -6  -3    3.38    2.29   3
  -8  -6  -4   16.49    2.99   3
  -9   0  11    6.42    2.60   3
  -9   0  10   -1.22    1.93   3
  -9   0   9   79.28    4.96   3
  -9   0   8    1.03    1.85   3
  -9   0   7   50.36    3.83   3
  -9   0   6   -1.25    1.48   3
  -9   0   5   35.61    3.32   3
  -9   0   4   -1.59    1.36   3
  -9   0   3  264.66    6.24   3
  -9   0   2    0.62    1.25   3
  -9   0   1  109.29    3.82   3
  -9   0   0    0.33    1.07   3
  -9  -1  11    1.77    2.27   3
  -9   1  11   -0.40    2.26   3
  -9  -1  10    0.36    2.01   3
  -9   1  10    1.17    2.06   3
  -9  -1   9    8.49    2.57   3
  -9   1   9   11.22    2.76   3
  -9  -1   8    6.56    2.25   3
  -9   1   8    4.28    2.15   3
  -9  -1   7    9.81    2.37   3
  -9   1   7   13.95    2.44   3
  -9  -1   6   16.03    2.54   3
  -9   1   6   16.74    2.37   3
  -9  -1   5  108.30    4.82   3
  -9   1   5  107.73    4.68   3
  -9  -1   4   20.09    2.55   3
  -9   1   4   22.75    2.52   3
  -9  -1   3  347.34    7.21   3
  -9   1   3  362.07    7.20   3
  -9  -1   2   26.30    2.81   3
  -9   1   2   33.60    2.92   3
  -9  -1   1   68.29    3.39   3
  -9   1   1   70.33    3.24   3
  -9  -1   0   67.48    3.21   3
  -9   1   0   69.34    2.94   3
  -9  -1  -1   41.01    2.83   3
  -9  -2  11    0.01    2.41   3
  -9   2  11   -0.32    2.31   3
  -9  -2  10    2.70    2.30   3
  -9   2  10    2.75    2.30   3
  -9  -2   9   -0.62    2.02   3
  -9   2   9   -0.44    2.16   3
  -9  -2   8    3.89    2.21   3
  -9   2   8    2.91    2.00   3
  -9  -2   7    1.64    1.97   3
  -9   2   7    1.22    1.76   3
  -9  -2   6    1.03    1.86   3
  -9   2   6    1.83    1.64   3
  -9  -2   5    7.84    2.21   3
  -9   2   5    8.43    2.12   3
  -9  -2   4  407.33    8.50   3
  -9   2   4  398.24    7.96   3
  -9  -2   3    3.08    1.76   3
  -9   2   3    1.74    1.50   3
  -9  -2   2   53.19    3.66   3
  -9   2   2   54.14    3.52   3
  -9  -2   1   13.13    1.99   3
  -9   2   1   13.19    1.65   3
  -9  -2   0   20.35    2.16   3
  -9  -2  -1   66.61    3.71   3
  -9  -2  -2   -0.09    1.33   3
  -9  -3  10   -0.41    2.34   3
  -9   3  10    1.70    2.32   3
  -9  -3   9   32.32    3.81   3
  -9   3   9   33.49    4.12   3
  -9  -3   8    5.08    2.46   3
  -9   3   8    4.54    2.26   3
  -9  -3   7   -0.05    2.00   3
  -9   3   7   -1.90    1.67   3
  -9  -3   6   11.44    2.55   3
  -9   3   6   12.17    2.37   3
  -9  -3   5   19.44    2.78   3
  -9   3   5   21.83    2.58   3
  -9  -3   4    0.86    1.96   3
  -9   3   4    0.99    1.49   3
  -9  -3   3   -1.20    1.70   3
  -9   3   3   -0.76    1.49   3
  -9  -3   2   32.54    3.45   3
  -9   3   2   30.66    2.69   3
  -9  -3   1    0.20    1.69   3
  -9  -3   0    0.61    1.67   3
  -9  -3  -1  153.64    5.06   3
  -9  -3  -2    3.09    1.53   3
  -9  -3  -3   28.51    2.84   3
  -9  -4   9    9.48    3.04   3
  -9   4   9   13.79    3.14   3
  -9  -4   8    2.40    2.47   3
  -9   4   8    3.96    2.44   3
  -9  -4   7   -0.49    2.11   3
  -9   4   7    3.07    2.26   3
  -9  -4   6    4.79    2.53   3
  -9   4   6    3.79    2.13   3
  -9  -4   5   21.37    3.15   3
  -9   4   5   21.28    2.72   3
  -9  -4   4    7.65    2.52   3
  -9   4   4    8.42    2.10   3
  -9  -4   3   64.23    4.53   3
  -9   4   3   59.49    3.96   3
  -9  -4   2    6.71    2.21   3
  -9  -4   1    5.10    2.04   3
  -9  -4   0   30.05    3.27   3
  -9  -4  -1    5.83    1.98   3
  -9  -4  -2    5.69    1.97   3
  -9  -4  -3    1.53    1.67   3
  -9  -4  -4    9.54    2.20   3
  -9  -5   7   14.00    3.36   3
  -9   5   7   13.72    2.97   3
  -9  -5   6    0.38    2.46   3
  -9   5   6   -0.69    1.92   3
  -9  -5   5    5.22    2.74   3
  -9   5   5    5.53    2.27   3
  -9  -5   4   16.17    3.11   3
  -9   5   4   14.61    2.61   3
  -9  -5   3    5.85    2.46   3
  -9  -5   2    3.35    2.09   3
  -9  -5   1   -1.59    1.78   3
  -9  -5   0   -0.02    1.88   3
  -9  -5  -1   -0.18    1.92   3
  -9  -5  -2    0.85    1.85   3
  -9  -5  -3    2.71    2.15   3
  -9  -5  -4   12.42    2.52   3
  -9  -5  -5   10.80    2.60   3
  -9  -6   4    9.16    2.98   3
  -9  -6   3   -1.00    2.57   3
  -9  -6   2    7.83    2.72   3
  -9  -6   1    8.08    2.66   3
  -9  -6   0   -2.35    2.15   3
  -9  -6  -1   28.22    3.54   3
  -9  -6  -2    0.34    2.18   3
 -10   0  10    0.77    2.04   3
 -10   0   9    0.27    2.06   3
 -10   0   8    0.18    1.85   3
 -10   0   7   -1.04    1.81   3
 -10   0   6    1.34    1.86   3
 -10   0   5   -0.35    1.80   3
 -10   0   4  851.36   12.20   3
 -10   0   3    1.11    1.64   3
 -10   0   2  109.84    4.30   3
 -10   0   1    1.83    1.32   3
 -10  -1  10   -1.98    2.19   3
 -10   1  10    0.73    2.23   3
 -10  -1   9    4.71    2.29   3
 -10   1   9    3.00    2.22   3
 -10  -1   8    8.47    2.50   3
 -10   1   8    6.42    2.26   3
 -10  -1   7   14.17    2.42   3
 -10   1   7   15.26    2.63   3
 -10  -1   6    1.25    1.84   3
 -10   1   6    0.54    1.75   3
 -10  -1   5   45.80    3.79   3
 -10   1   5   47.99    3.71   3
 -10  -1   4    1.05    1.85   3
 -10   1   4   -0.57    1.75   3
 -10  -1   3   42.28    3.48   3
 -10   1   3   38.92    3.46   3
 -10  -1   2   64.94    3.87   3
 -10   1   2   70.51    3.78   3
 -10  -1   1   99.65    4.03   3
 -10  -1   0   20.42    2.49   3
 -10  -2  10   13.56    3.12   3
 -10   2  10   13.04    3.01   3
 -10  -2   9    0.20    2.45   3
 -10   2   9    3.79    2.36   3
 -10  -2   8   57.44    4.44   3
 -10   2   8   52.43    4.09   3
 -10  -2   7   14.41    2.82   3
 -10   2   7   14.94    2.63   3
 -10  -2   6   -0.20    1.87   3
 -10   2   6   -0.79    1.60   3
 -10  -2   5   -0.77    1.71   3
 -10   2   5   -0.39    1.59   3
 -10  -2   4    7.46    2.13   3
 -10   2   4    5.88    1.94   3
 -10  -2   3    0.87    1.70   3
 -10   2   3   -1.11    1.35   3
 -10  -2   2   19.06    2.41   3
 -10   2   2   16.71    2.16   3
 -10  -2   1    2.33    1.67   3
 -10  -2   0  195.05    5.49   3
 -10  -2  -1   32.66    3.08   3
 -10  -3   9   -0.20    2.41   3
 -10   3   9   -1.36    2.07   3
 -10  -3   8   -0.37    2.28   3
 -10   3   8    1.73    2.26   3
 -10  -3   7    9.84    2.75   3
 -10   3   7    9.15    2.50   3
 -10  -3   6   10.00    2.69   3
 -10   3   6   11.46    2.44   3
 -10  -3   5   -1.39    1.93   3
 -10   3   5   -0.14    1.52   3
 -10  -3   4    1.17    2.01   3
 -10   3   4    0.44    1.53   3
 -10  -3   3    8.60    2.35   3
 -10   3   3    8.61    1.90   3
 -10  -3   2   51.87    4.14   3
 -10  -3   1    1.77    1.78   3
 -10  -3   0   22.21    2.60   3
 -10  -3  -1   -1.14    1.54   3
 -10  -3  -2   31.93    3.20   3
 -10  -4   8   14.95    3.29   3
 -10   4   8   18.73    3.40   3
 -10  -4   7    5.31    2.74   3
 -10   4   7    5.12    2.55   3
 -10  -4   6   20.58    3.40   3
 -10   4   6   28.13    3.39   3
 -10  -4   5    8.67    2.77   3
 -10   4   5    9.59    2.34   3
 -10  -4   4    2.03    2.22   3
 -10   4   4    5.04    1.96   3
 -10  -4   3    9.71    2.57   3
 -10  -4   2    0.42    2.00   3
 -10  -4   1   10.32    2.71   3
 -10  -4   0   -0.61    2.04   3
 -10  -4  -1    5.81    2.06   3
 -10  -4  -2    3.82    1.83   3
 -10  -4  -3   13.44    2.53   3
 -10  -5   6   17.33    3.60   3
 -10   5   6   18.94    3.12   3
 -10  -5   5    3.47    2.82   3
 -10   5   5    5.16    2.32   3
 -10  -5   4    4.10    2.62   3
 -10  -5   3    5.16    2.58   3
 -10  -5   2    0.87    2.59   3
 -10  -5   1    1.72    2.53   3
 -10  -5   0    0.49    2.09   3
 -10  -5  -1    1.40    2.09   3
 -10  -5  -2    8.57    2.57   3
 -10  -5  -3    1.89    2.13   3
 -11   0   9    3.98    2.50   3
 -11   0   8   -3.19    1.97   3
 -11   0   7    9.86    2.45   3
 -11   0   6    0.10    1.93   3
 -11   0   5    9.01    2.38   3
 -11   0   4    1.17    2.12   3
 -11   0   3   23.19    2.63   3
 -11   0   2   -0.11    1.57   3
 -11  -1   9   13.13    3.10   3
 -11   1   9   11.85    2.87   3
 -11  -1   8    8.82    2.80   3
 -11   1   8   13.07    2.92   3
 -11  -1   7    8.42    2.55   3
 -11   1   7    7.95    2.48   3
 -11  -1   6    2.08    2.06   3
 -11   1   6   -0.85    1.84   3
 -11  -1   5   25.21    2.88   3
 -11   1   5   27.35    3.41   3
 -11  -1   4    7.08    2.20   3
 -11   1   4    1.95    1.91   3
 -11  -1   3  290.69    7.36   3
 -11   1   3  289.35    6.96   3
 -11  -1   2   80.16    4.60   3
 -11  -1   1   -0.35    1.50   3
 -11  -2   9   -0.21    2.32   3
 -11   2   9    1.00    2.63   3
 -11  -2   8    0.55    2.33   3
 -11   2   8    0.77    2.18   3
 -11  -2   7   11.13    2.81   3
 -11   2   7    9.68    2.50   3
 -11  -2   6   -0.38    2.09   3
 -11   2   6   -0.07    1.88   3
 -11  -2   5   -0.72    1.81   3
 -11   2   5    0.35    1.82   3
 -11  -2   4   -1.15    1.65   3
 -11   2   4   -0.50    1.59   3
 -11  -2   3   13.99    2.47   3
 -11  -2   2    1.44    1.75   3
 -11  -2   1    8.96    2.06   3
 -11  -2   0   15.92    2.36   3
 -11  -3   8    5.63    2.82   3
 -11   3   8    5.28    2.64   3
 -11  -3   7   21.78    3.41   3
 -11   3   7   22.97    3.34   3
 -11  -3   6    1.15    2.10   3
 -11   3   6    2.09    1.98   3
 -11  -3   5    3.93    2.27   3
 -11   3   5    6.49    2.12   3
 -11  -3   4    0.96    2.03   3
 -11  -3   3   16.61    2.75   3
 -11  -3   2    1.68    1.94   3
 -11  -3   1    0.08    1.76   3
 -11  -3   0    4.92    2.02   3
 -11  -3  -1   56.37    4.13   3
 -11  -4   6    3.91    2.55   3
 -11   4   6    3.46    2.32   3
 -11  -4   5   11.96    3.04   3
 -11  -4   4    1.02    2.48   3
 -11  -4   3    2.57    2.49   3
 -11  -4   2   -0.33    2.12   3
 -11  -4   1   -1.04    1.93   3
 -11  -4   0    3.73    2.10   3
 -11  -4  -1   -0.12    2.01   3
 -11  -5   3    1.78    2.62   3
 -11  -5   2    6.86    2.93   3
 -11  -5   1   -0.62    2.45   3
 -11  -5   0   31.31    3.80   3
 -12   0   8    2.68    2.32   3
 -12   0   7    0.29    2.11   3
 -12   0   6    0.56    2.01   3
 -12   0   5   -1.09    1.95   3
 -12   0   4  172.89    6.38   3
 -12   0   3    1.04    1.84   3
 -12  -1   8   -1.73    2.10   3
 -12   1   8   -0.37    2.21   3
 -12  -1   7    9.22    2.75   3
 -12   1   7    9.83    2.78   3
 -12  -1   6   -0.08    1.87   3
 -12   1   6    1.31    1.99   3
 -12  -1   5    0.46    1.97   3
 -12   1   5    0.74    1.94   3
 -12  -1   4    6.14    2.31   3
 -12   1   4    5.16    2.26   3
 -12  -1   3   98.05    5.03   3
 -12  -1   2    0.92    1.85   3
 -12  -2   7    0.29    2.26   3
 -12   2   7    3.13    2.28   3
 -12  -2   6    1.22    2.14   3
 -12   2   6    0.88    1.92   3
 -12  -2   5    1.42    2.14   3
 -12   2   5    0.30    1.89   3
 -12  -2   4    5.86    2.30   3
 -12  -2   3    0.55    1.88   3
 -12  -2   2   19.87    2.67   3
 -12  -3   6    0.57    2.37   3
 -12   3   6    1.47    2.08   3
 -12  -3   5   -0.98    2.19   3
 -12  -3   4    5.89    2.59   3
 -12  -3   3    4.94    2.27   3
 -12  -3   2    7.14    2.40   3
 -12  -3   1    1.89    2.05   3
 -12  -4   3    8.31    2.82   3
 -12  -4   2    0.65    2.34   3
 -12  -4   1   -0.27    2.19   3
 -12  -4   0    6.50    2.55   3
 -13   0   6    1.00    2.29   3
 -13   0   5    6.97    2.40   3
 -13  -1   5    2.57    2.42   3
 -13  -1   4   12.70    2.55   3
 -13  -2   4   11.21    2.84   3
 -13  -2   3    1.57    2.30   3
   0   0   1    4.57    0.52   4
   0   0   2 6437.82   41.77   4
   0   0   3   -0.24    0.72   4
   0   0   4  836.00    7.96   4
   0   0   5    0.50    0.91   4
   0   0   6   13.58    1.50   4
   0   0   7    0.36    1.13   4
   0   0   8 1448.66   14.53   4
   0   0   9   -1.52    1.61   4
   0   0  10  972.77   13.08   4
   0   0  11   -0.09    1.51   4
   0   0  12    4.13    1.95   4
   0   0  13    2.34    1.92   4
   0   1   0    0.44    0.36   4
   0   1  -1  805.24    6.89   4
   0   1   1  788.47    6.73   4
   0  -1   2   79.77    2.11   4
   0   1   2   81.88    2.06   4
   0  -1   3  365.27    4.61   4
   0   1   3  373.46    4.63   4
   0  -1   4   30.56    2.01   4
   0   1   4   30.66    1.87   4
   0  -1   5  234.66    4.58   4
   0   1   5  239.86    4.48   4
   0  -1   6  138.37    4.00   4
   0   1   6  146.87    3.85   4
   0  -1   7   50.36    3.05   4
   0   1   7   47.47    2.78   4
   0  -1   8  196.31    5.20   4
   0   1   8  194.92    5.31   4
   0  -1   9   66.99    4.03   4
   0   1   9   58.96    3.97   4
   0  -1  10   14.45    2.39   4
   0   1  10   10.23    2.23   4
   0  -1  11    0.14    1.77   4
   0   1  11    1.29    1.76   4
   0  -1  12    2.02    1.92   4
   0   1  12    1.90    2.02   4
   0  -1  13    4.26    2.38   4
   0   1  13    5.57    2.22   4
   0   2   0  645.93    6.85   4
   0   2  -1 1797.29   13.80   4
   0   2   1 1798.59   13.79   4
   0   2  -2  230.22    4.05   4
   0   2   2  232.53    4.09   4
   0  -2   3  688.46    7.53   4
   0   2   3  702.59    7.84   4
   0  -2   4 6710.65   41.17   4
   0   2   4 6749.14   41.77   4
   0  -2   5    3.65    1.19   4
   0   2   5    3.17    1.05   4
   0  -2   6  817.92    9.75   4
   0   2   6  820.31    9.91   4
   0  -2   7   44.60    3.14   4
   0   2   7   45.72    2.94   4
   0  -2   8    6.86    1.83   4
   0   2   8    4.37    1.63   4
   0  -2   9   -0.51    1.55   4
   0   2   9   -2.37    1.34   4
   0  -2  10    1.56    1.97   4
   0   2  10    0.97    1.63   4
   0  -2  11    0.44    1.76   4
   0   2  11    0.30    1.65   4
   0  -2  12    8.13    2.45   4
   0   2  12    7.08    2.21   4
   0  -2  13   21.16    3.18   4
   0   2  13   20.02    2.94   4
   0   3   0    0.33    0.77   4
   0   3  -1  108.39    3.34   4
   0   3   1  109.78    3.46   4
   0   3  -2   51.78    2.61   4
   0   3   2   53.23    2.62   4
   0   3  -3    6.47    1.36   4
   0   3   3    7.16    1.25   4
   0  -3   4  273.75    5.47   4
   0   3   4  281.34    5.71   4
   0  -3   5   14.78    1.75   4
   0   3   5   14.27    1.75   4
   0  -3   6   40.54    3.14   4
   0   3   6   36.50    2.78   4
   0  -3   7   41.66    3.22   4
   0   3   7   36.51    2.88   4
   0  -3   8  103.13    4.52   4
   0   3   8  101.00    4.47   4
   0  -3   9   60.78    3.97   4
   0   3   9   60.67    3.81   4
   0  -3  10   -0.39    2.05   4
   0   3  10    0.34    1.57   4
   0  -3  11    6.64    2.42   4
   0   3  11    7.40    2.13   4
   0  -3  12    8.58    2.77   4
   0   3  12   10.96    2.48   4
   0   4   0 1195.33   13.13   4
   0   4  -1  701.04    9.80   4
   0   4   1  694.78    9.74   4
   0   4  -2    3.71    1.35   4
   0   4   2    4.04    1.33   4
   0   4  -3   68.82    3.38   4
   0   4   3   67.27    3.44   4
   0  -4   4   50.05    3.24   4
   0   4   4   59.30    3.40   4
   0  -4   5   50.89    3.38   4
   0   4   5   55.95    3.43   4
   0  -4   6   12.07    2.02   4
   0   4   6   12.51    2.01   4
   0  -4   7   85.69    4.38   4
   0   4   7   83.42    4.25   4
   0  -4   8   27.39    3.31   4
   0   4   8   28.10    3.10   4
   0  -4   9   51.69    4.12   4
   0   4   9   57.30    3.96   4
   0  -4  10   -1.49    2.05   4
   0   4  10    0.66    1.75   4
   0  -4  11    6.08    2.62   4
   0   4  11    5.82    2.27   4
   0  -4  12    2.31    2.58   4
   0   4  12    1.09    2.02   4
   0   5   0   -1.59    1.17   4
   0   5  -1    1.72    1.58   4
   0   5   1    2.94    1.62   4
   0   5  -2  278.13    6.76   4
   0   5   2  285.79    7.18   4
   0   5  -3   23.58    2.90   4
   0   5   3   26.69    3.06   4
   0   5  -4  107.75    4.64   4
   0   5   4  105.81    4.75   4
   0  -5   5   19.04    2.56   4
   0   5   5   20.25    2.60   4
   0  -5   6   -0.04    1.75   4
   0   5   6    0.04    1.56   4
   0  -5   7   85.77    4.70   4
   0   5   7   93.84    5.00   4
   0  -5   8   47.59    4.08   4
   0   5   8   46.93    4.08   4
   0  -5   9    8.21    2.71   4
   0   5   9    9.15    2.45   4
   0  -5  10   -0.01    2.34   4
   0   5  10    1.37    1.94   4
   0  -5  11    8.25    2.94   4
   0   5  11    5.62    2.35   4
   0   6   0    0.93    1.71   4
   0   6  -1   10.82    2.28   4
   0   6   1   11.93    2.46   4
   0   6  -2   17.46    2.64   4
   0   6   2   17.59    2.79   4
   0   6  -3  285.38    7.86   4
   0   6   3  288.98    8.20   4
   0   6  -4  104.69    5.23   4
   0   6   4  109.53    5.37   4
   0  -6   5  128.81    5.66   4
   0   6   5  126.25    5.88   4
   0  -6   6    0.77    2.17   4
   0   6   6    0.48    1.83   4
   0  -6   7    1.27    2.27   4
   0   6   7    0.24    2.02   4
   0  -6   8    4.38    2.47   4
   0   6   8    4.34    2.24   4
   0  -6   9   -1.11    2.30   4
   0   6   9   -0.58    2.07   4
   0   7   0    0.94    1.85   4
   0   7  -1    0.35    1.89   4
   0   7   1   -0.42    1.85   4
   0   7  -2   34.25    3.69   4
   0   7   2   33.89    3.81   4
   0   7  -3    0.52    1.93   4
   0   7   3    1.57    2.18   4
   0   7  -4   79.63    5.08   4
   0   7   4   90.34    5.38   4
   0  -7   5    1.59    2.26   4
   0   7   5    0.85    2.21   4
   0  -7   6   47.20    4.62   4
   0   7   6   38.92    4.22   4
   0  -7   7    1.18    2.58   4
   0   7   7    1.34    2.29   4
   0   8   0    1.66    2.16   4
   0   8  -1    4.42    2.47   4
   0   8   1    6.71    2.63   4
   0   8  -2    5.44    2.40   4
   0   8   2    3.41    2.66   4
   0   8  -3    2.81    2.51   4
   0   8   3    0.18    2.37   4
   0   8  -4    0.14    2.51   4
   0   8   4    3.11    2.67   4
  -1   0  13    0.68    1.74   4
  -1   0  12   -0.37    1.68   4
  -1   0  11    4.25    1.75   4
  -1   0  10    1.60    1.62   4
  -1   0   9   18.22    2.37   4
  -1   0   8   -0.23    1.42   4
  -1   0   7  508.64    7.20   4
  -1   0   6    0.00    0.88   4
  -1   0   5  695.75    7.34   4
  -1   0   4    1.21    0.69   4
  -1   0   313338.04   81.73   4
  -1   0   2    0.11    0.43   4
   1   0   2    1.52    0.71   4
   1   0   3   40.21    2.13   4
   1   0   4   -0.41    0.74   4
   1   0   5  933.62    9.78   4
   1   0   6   -0.82    0.99   4
   1   0   7    4.34    1.43   4
   1   0   8   -1.23    1.43   4
   1   0   9  275.90    6.64   4
   1   0  10   -0.69    1.75   4
   1   0  11   34.16    3.25   4
   1   0  12    0.69    1.79   4
   1   0  13   25.10    3.24   4
  -1  -1  13    7.18    2.40   4
  -1   1  13    7.47    2.31   4
  -1  -1  12    6.45    2.16   4
  -1   1  12    6.87    2.18   4
  -1  -1  11   22.19    2.67   4
  -1   1  11   20.26    2.56   4
  -1  -1  10    1.35    1.66   4
  -1   1  10   -0.47    1.54   4
  -1  -1   9 1330.29   14.28   4
  -1   1   9 1310.94   14.20   4
  -1  -1   8    0.90    1.34   4
  -1   1   8   -1.81    1.26   4
  -1  -1   7   81.72    3.30   4
  -1   1   7   81.79    3.28   4
  -1  -1   6  241.83    4.76   4
  -1   1   6  253.87    4.68   4
  -1  -1   5 2038.23   15.32   4
  -1   1   5 2035.96   15.44   4
  -1  -1   4  673.93    6.80   4
  -1   1   4  697.74    7.01   4
  -1  -1   3 1148.06    9.16   4
  -1   1   3 1168.00    9.36   4
  -1   1   2  215.03    2.99   4
   1   1  -2  220.34    3.06   4
  -1   1   111157.81   72.25   4
   1   1  -111038.36   71.04   4
  -1   1   0 1544.29   11.52   4
   1   1   0 1524.45   11.42   4
   1  -1   123212.03  137.24   4
   1   1   123325.27  138.52   4
   1  -1   2    0.73    0.70   4
   1   1   2   -0.69    0.58   4
   1  -1   3 1217.12   10.24   4
   1   1   3 1243.78   10.50   4
   1  -1   4 3385.13   23.01   4
   1   1   4 3411.49   23.37   4
   1  -1   5 1565.92   13.60   4
   1   1   5 1577.42   13.74   4
   1  -1   6   -0.74    1.05   4
   1   1   6   -0.06    0.94   4
   1  -1   7   -0.49    1.27   4
   1   1   7   10.77    1.65   4
   1  -1   8  156.20    4.92   4
   1   1   8  149.35    4.81   4
   1  -1   9  220.22    6.24   4
   1   1   9  212.17    6.09   4
   1  -1  10    1.78    1.97   4
   1   1  10    2.02    1.80   4
   1  -1  11   35.92    3.74   4
   1   1  11   28.46    3.47   4
   1  -1  12   19.65    2.91   4
   1   1  12   20.90    3.24   4
   1  -1  13    4.05    2.36   4
   1   1  13    4.27    2.29   4
  -1  -2  13    7.98    2.57   4
  -1   2  13    5.67    2.23   4
  -1  -2  12    2.50    2.14   4
  -1   2  12    2.54    1.77   4
  -1  -2  11   -0.93    1.66   4
  -1   2  11   -1.00    1.41   4
  -1  -2  10   -0.34    1.75   4
  -1   2  10    0.72    1.42   4
  -1  -2   9   -0.07    1.49   4
  -1   2   9   -2.10    1.27   4
  -1  -2   8   11.98    2.00   4
  -1   2   8    9.79    1.73   4
  -1  -2   7    2.62    1.36   4
  -1   2   7    1.77    1.06   4
  -1  -2   6    9.66    1.48   4
  -1   2   6    8.06    1.34   4
  -1  -2   5   71.40    2.94   4
  -1   2   5   71.87    2.79   4
  -1  -2   4  182.06    3.98   4
  -1   2   4  181.14    3.91   4
  -1   2   3 1010.90    9.44   4
   1   2  -3  995.18    9.46   4
  -1   2   2 1638.96   12.99   4
   1   2  -2 1631.63   12.97   4
  -1   2   1  176.54    3.42   4
   1   2  -1  172.72    3.45   4
  -1   2   0 7372.20   44.46   4
   1   2   0 7258.02   43.98   4
  -1   2  -1  612.86    6.79   4
   1   2   1  610.45    6.88   4
   1  -2   2   11.25    1.23   4
   1   2   2   11.75    1.20   4
   1  -2   3  419.55    5.84   4
   1   2   3  426.35    6.11   4
   1  -2   4  415.62    6.27   4
   1   2   4  420.97    6.42   4
   1  -2   5  196.70    4.65   4
   1   2   5  206.13    4.74   4
   1  -2   6   41.37    2.97   4
   1   2   6   41.04    2.65   4
   1  -2   7    1.70    1.47   4
   1   2   7    0.27    1.19   4
   1  -2   8    9.23    2.07   4
   1   2   8    9.85    1.99   4
   1  -2   9    2.04    1.87   4
   1   2   9   -1.45    1.70   4
   1  -2  10  146.61    5.68   4
   1   2  10  150.54    5.84   4
   1  -2  11    0.66    1.79   4
   1   2  11    0.11    1.63   4
   1  -2  12    1.13    2.27   4
   1   2  12    2.12    2.03   4
   1  -2  13    3.91    2.44   4
   1   2  13    2.56    2.20   4
  -1  -3  13   40.81    4.74   4
  -1   3  13   36.80    3.91   4
  -1  -3  12   24.14    3.17   4
  -1   3  12   20.32    2.86   4
  -1  -3  11   -0.36    1.92   4
  -1   3  11   -0.07    1.64   4
  -1  -3  10   -0.49    1.66   4
  -1   3  10    0.68    1.58   4
  -1  -3   9  102.50    4.53   4
  -1   3   9  107.12    4.60   4
  -1  -3   8    5.02    1.78   4
  -1   3   8    5.87    1.56   4
  -1  -3   7   12.41    1.96   4
  -1   3   7    9.26    1.68   4
  -1  -3   6   56.53    3.26   4
  -1   3   6   56.33    2.98   4
  -1  -3   5  893.00   10.38   4
  -1   3   5  905.08   10.79   4
  -1  -3   4   96.52    3.49   4
  -1   3   4   97.16    3.48   4
  -1   3   3  825.33    9.58   4
   1   3  -3  827.46    9.38   4
  -1   3   2  610.36    7.93   4
   1   3  -2  598.10    7.79   4
  -1   3   1  156.44    3.81   4
   1   3  -1  163.60    3.97   4
  -1   3   0  339.67    5.61   4
   1   3   0  342.19    5.78   4
  -1   3  -1  200.10    4.42   4
   1   3   1  198.34    4.42   4
  -1   3  -2   33.89    2.30   4
   1   3   2   35.37    2.40   4
   1  -3   3   -0.66    0.94   4
   1   3   3    0.11    0.83   4
   1  -3   4  124.47    3.99   4
   1   3   4  123.33    3.98   4
   1  -3   5  263.79    5.85   4
   1   3   5  277.57    6.17   4
   1  -3   6    0.25    1.33   4
   1   3   6   -0.52    1.01   4
   1  -3   7    1.22    1.64   4
   1   3   7    1.55    1.34   4
   1  -3   8  208.11    6.12   4
   1   3   8  207.26    6.26   4
   1  -3   9    1.53    1.85   4
   1   3   9   -0.61    1.69   4
   1  -3  10   18.31    2.88   4
   1   3  10   17.58    2.73   4
   1  -3  11    2.52    2.24   4
   1   3  11    3.24    2.04   4
   1  -3  12   -0.96    2.18   4
   1   3  12   -0.70    2.00   4
  -1  -4  12   -2.71    2.18   4
  -1   4  12    1.60    2.03   4
  -1  -4  11    7.37    2.58   4
  -1   4  11    6.41    2.19   4
  -1  -4  10    2.20    2.20   4
  -1   4  10    2.21    1.74   4
  -1  -4   9    4.67    2.21   4
  -1   4   9    3.30    1.84   4
  -1  -4   8   12.70    2.42   4
  -1   4   8   12.08    2.12   4
  -1  -4   7  210.79    6.06   4
  -1   4   7  205.51    6.16   4
  -1  -4   6   -1.07    1.42   4
  -1   4   6    0.37    1.31   4
  -1  -4   5   10.17    1.82   4
  -1   4   5   14.07    1.98   4
  -1   4   4   27.89    2.57   4
   1   4  -4   31.61    2.58   4
  -1   4   3   71.84    3.43   4
   1   4  -3   73.00    3.35   4
  -1   4   2  140.85    4.44   4
   1   4  -2  143.87    4.37   4
  -1   4   1  648.02    9.24   4
   1   4  -1  637.38    9.12   4
  -1   4   0   15.17    1.86   4
   1   4   0   20.30    2.05   4
  -1   4  -1    0.42    1.11   4
   1   4   1    0.49    1.11   4
  -1   4  -2    2.31    1.29   4
   1   4   2    3.47    1.36   4
  -1   4  -3   81.46    3.69   4
   1   4   3   83.57    3.82   4
   1  -4   4  218.84    5.65   4
   1   4   4  229.85    5.99   4
   1  -4   5   74.93    3.97   4
   1   4   5   74.70    3.89   4
   1  -4   6   18.40    2.43   4
   1   4   6   19.06    2.36   4
   1  -4   7   52.23    3.76   4
   1   4   7   55.60    3.77   4
   1  -4   8    9.13    2.31   4
   1   4   8    7.92    2.13   4
   1  -4   9   44.21    4.05   4
   1   4   9   37.53    3.70   4
   1  -4  10   -1.10    2.24   4
   1   4  10    1.68    1.91   4
   1  -4  11    3.51    2.62   4
   1   4  11    0.79    2.04   4
   1  -4  12   -0.98    2.62   4
   1   4  12   -0.08    2.23   4
  -1  -5  11   -0.12    2.52   4
  -1   5  11    1.05    1.97   4
  -1  -5  10   19.60    3.16   4
  -1   5  10   17.63    2.88   4
  -1  -5   9   17.57    2.99   4
  -1   5   9   12.61    2.57   4
  -1  -5   8   14.77    2.72   4
  -1   5   8   14.87    2.66   4
  -1  -5   7    5.87    2.08   4
  -1   5   7    5.93    2.12   4
  -1  -5   6   -0.14    1.74   4
  -1   5   6   -0.50    1.58   4
  -1  -5   5   15.76    2.40   4
  -1   5   5   18.24    2.50   4
  -1   5   4   21.55    2.67   4
   1   5  -4   19.01    2.43   4
  -1   5   3   31.60    3.04   4
   1   5  -3   29.77    2.85   4
  -1   5   2    0.30    1.40   4
   1   5  -2    0.50    1.33   4
  -1   5   1   15.37    2.20   4
   1   5  -1   19.15    2.27   4
  -1   5   0   60.71    3.62   4
   1   5   0   61.65    3.77   4
  -1   5  -1  219.37    6.07   4
   1   5   1  223.46    6.37   4
  -1   5  -2   18.06    2.34   4
   1   5   2   19.16    2.55   4
  -1   5  -3   10.26    2.05   4
   1   5   3    9.43    2.16   4
   1  -5   4  785.95   11.79   4
   1   5   4  786.18   12.35   4
   1  -5   5   -1.18    1.65   4
   1   5   5    2.56    1.71   4
   1  -5   6   14.40    2.40   4
   1   5   6   14.22    2.53   4
   1  -5   7   -0.84    1.87   4
   1   5   7    1.74    1.93   4
   1  -5   8    6.88    2.45   4
   1   5   8    9.34    2.40   4
   1  -5   9   -0.50    2.20   4
   1   5   9    0.99    1.93   4
   1  -5  10    3.13    2.64   4
   1   5  10    3.97    2.09   4
   1  -5  11   15.06    3.39   4
   1   5  11   15.46    3.14   4
  -1  -6   9    5.68    2.64   4
  -1   6   9    5.58    2.45   4
  -1  -6   8   -0.70    2.08   4
  -1   6   8    0.99    1.95   4
  -1  -6   7    7.42    2.29   4
  -1   6   7    6.28    2.35   4
  -1  -6   6    2.51    2.18   4
  -1   6   6    2.71    1.93   4
  -1  -6   5   22.27    3.06   4
  -1   6   5   24.49    3.06   4
  -1   6   4   -0.47    1.87   4
   1   6  -4    0.16    1.86   4
  -1   6   3  208.53    7.01   4
   1   6  -3  205.88    6.67   4
  -1   6   2   18.40    2.82   4
   1   6  -2   23.16    2.87   4
  -1   6   1    5.78    2.13   4
   1   6  -1    8.80    2.26   4
  -1   6   0   17.37    2.67   4
   1   6   0   18.43    2.64   4
  -1   6  -1   21.68    2.76   4
   1   6   1   20.89    2.82   4
  -1   6  -2    0.64    1.78   4
   1   6   2   -1.31    1.80   4
  -1   6  -3  433.14    9.44   4
   1   6   3  443.24   10.01   4
   1  -6   4    1.83    1.85   4
   1   6   4    0.74    1.76   4
   1  -6   5   48.04    4.20   4
   1   6   5   44.09    4.18   4
   1  -6   6   -0.59    2.00   4
   1   6   6   -0.26    1.89   4
   1  -6   7   -3.50    1.99   4
   1   6   7    0.44    1.96   4
   1  -6   8    1.55    2.29   4
   1   6   8    0.42    2.00   4
   1  -6   9    4.08    2.71   4
   1   6   9    4.27    2.47   4
  -1  -7   7    4.91    2.76   4
  -1   7   7    5.17    2.47   4
  -1  -7   6    9.17    2.82   4
  -1   7   6   10.67    2.82   4
  -1  -7   5   46.06    4.41   4
  -1   7   5   41.46    4.36   4
  -1   7   4   90.15    5.64   4
   1   7  -4   89.65    5.26   4
  -1   7   3    7.48    2.61   4
   1   7  -3   11.11    2.63   4
  -1   7   2   31.27    3.74   4
   1   7  -2   29.52    3.62   4
  -1   7   1    1.15    2.05   4
   1   7  -1    0.40    1.94   4
  -1   7   0    0.43    1.91   4
   1   7   0    1.55    2.00   4
  -1   7  -1    1.05    1.95   4
   1   7   1   -0.66    1.79   4
  -1   7  -2    6.44    2.31   4
   1   7   2    4.01    2.28   4
  -1   7  -3   18.93    3.00   4
   1   7   3   19.48    3.26   4
   1  -7   4   23.34    3.29   4
   1   7   4   19.92    3.39   4
   1  -7   5   20.02    3.33   4
   1   7   5   13.01    2.92   4
   1  -7   6    0.49    2.42   4
   1   7   6    4.35    2.37   4
   1  -7   7    1.74    2.75   4
   1   7   7    1.53    2.30   4
  -1   8   4    4.03    2.61   4
   1   8  -4    1.44    2.32   4
  -1   8   3   40.31    4.48   4
   1   8  -3   30.27    3.87   4
  -1   8   2    9.93    2.91   4
   1   8  -2    9.54    2.83   4
  -1   8   1    7.03    2.67   4
   1   8  -1    5.37    2.57   4
  -1   8   0   -0.39    2.19   4
   1   8   0   -0.43    2.11   4
  -1   8  -1   -1.11    2.14   4
   1   8   1   -0.29    2.17   4
  -1   8  -2   -0.52    2.07   4
   1   8   2   -0.90    2.11   4
  -1   8  -3    1.02    2.26   4
   1   8   3   -2.82    2.14   4
   1  -8   4    4.18    2.75   4
   1   8   4    0.85    2.46   4
  -2   0  12    3.20    1.65   4
  -2   0  11    0.40    1.40   4
  -2   0  10  470.99    8.14   4
  -2   0   9   -1.25    1.37   4
  -2   0   8 2328.76   18.67   4
  -2   0   7   -0.43    0.91   4
  -2   0   6  481.82    6.03   4
  -2   0   5    0.22    0.71   4
  -2   0   4 1259.86    9.70   4
  -2   0   3    0.36    0.50   4
   2   0   018263.31  130.21   4
   2   0   1    0.32    0.72   4
   2   0   2 3178.04   21.08   4
   2   0   3   -0.70    0.80   4
   2   0   4 2477.61   18.41   4
   2   0   5   -0.03    1.07   4
   2   0   6  330.94    6.17   4
   2   0   7   -0.28    1.26   4
   2   0   8   68.05    3.71   4
   2   0   9   -1.06    1.50   4
   2   0  10    2.49    2.01   4
   2   0  11    1.91    1.77   4
   2   0  12   24.97    3.16   4
   2   0  13   -0.76    2.02   4
  -2  -1  12    6.68    2.14   4
  -2   1  12    7.96    2.01   4
  -2  -1  11   10.42    2.07   4
  -2   1  11   11.54    2.00   4
  -2  -1  10   41.85    3.32   4
  -2   1  10   37.64    3.30   4
  -2  -1   9  625.57    9.03   4
  -2   1   9  626.12    9.07   4
  -2  -1   8    9.73    1.73   4
  -2   1   8    8.32    2.00   4
  -2  -1   7  664.74    8.08   4
  -2   1   7  673.73    8.16   4
  -2  -1   6  112.25    3.34   4
  -2   1   6  111.64    3.01   4
  -2  -1   5  988.03    9.03   4
  -2   1   5  992.13    9.03   4
  -2  -1   4   28.89    1.85   4
  -2   1   4   30.11    1.55   4
  -2  -1   3 4441.93   28.35   4
  -2   1   3 4456.35   28.75   4
  -2   1   2   17.47    1.05   4
   2   1  -2   19.35    1.16   4
  -2   1   1 4880.52   32.73   4
   2   1  -1 4931.24   32.69   4
   2  -1   0 8422.13   52.25   4
   2   1   0 8458.51   52.54   4
   2  -1   130689.81  175.20   4
   2   1   130337.24  174.25   4
   2  -1   2 1943.13   14.29   4
   2   1   2 1957.85   14.45   4
   2  -1   3  341.78    5.14   4
   2   1   3  335.74    5.04   4
   2  -1   4 1763.24   14.54   4
   2   1   4 1732.09   14.41   4
   2  -1   5  739.89    9.03   4
   2   1   5  738.86    9.02   4
   2  -1   6  144.67    4.59   4
   2   1   6  143.50    4.23   4
   2  -1   7    7.32    1.83   4
   2   1   7    6.66    1.61   4
   2  -1   8    3.96    1.92   4
   2   1   8    3.19    1.73   4
   2  -1   9  111.41    4.88   4
   2   1   9  107.94    4.64   4
   2  -1  10   49.71    4.15   4
   2   1  10   54.41    3.99   4
   2  -1  11    7.57    2.40   4
   2   1  11    8.49    2.35   4
   2  -1  12    0.41    1.99   4
   2   1  12    0.34    1.92   4
   2  -1  13    1.64    2.30   4
   2   1  13    1.78    2.18   4
  -2  -2  12   20.79    2.86   4
  -2   2  12   20.98    2.66   4
  -2  -2  11    1.97    1.79   4
  -2   2  11    4.70    1.71   4
  -2  -2  10   25.16    2.76   4
  -2   2  10   26.82    2.67   4
  -2  -2   9   20.24    2.34   4
  -2   2   9   16.80    2.07   4
  -2  -2   8  209.44    5.28   4
  -2   2   8  210.31    5.28   4
  -2  -2   7    8.87    1.57   4
  -2   2   7    8.46    1.41   4
  -2  -2   6    4.38    1.20   4
  -2   2   6    3.22    1.02   4
  -2  -2   5 1116.58   10.50   4
  -2   2   5 1124.78   10.82   4
  -2  -2   4 2559.88   18.34   4
  -2   2   4 2571.47   18.64   4
  -2   2   3  377.41    5.19   4
   2   2  -3  392.40    5.34   4
  -2   2   2   36.23    1.85   4
   2   2  -2   36.29    1.95   4
  -2   2   1 5171.98   32.45   4
   2   2  -1 5144.07   32.57   4
  -2   2   0 3676.19   24.35   4
   2   2   0 3671.18   24.48   4
  -2   2  -1  116.49    3.02   4
   2   2   1  120.29    3.20   4
   2  -2   2 2347.98   17.44   4
   2   2   2 2383.49   17.92   4
   2  -2   3  889.40    9.33   4
   2  -2   4  119.30    3.69   4
   2   2   4  120.53    3.65   4
   2  -2   5   77.75    3.33   4
   2   2   5   80.31    3.27   4
   2  -2   6   44.28    3.16   4
   2   2   6   43.44    2.90   4
   2  -2   7    6.27    1.86   4
   2   2   7    4.30    1.53   4
   2  -2   8   26.63    2.76   4
   2   2   8   24.73    2.84   4
   2  -2  10   35.03    3.83   4
   2   2  10   34.48    3.75   4
   2  -2  11    7.23    2.69   4
   2   2  11    7.21    2.34   4
   2  -2  12    0.31    2.28   4
   2   2  12   -0.35    1.81   4
   2  -2  13    0.62    2.38   4
   2   2  13   -0.70    2.00   4
  -2  -3  12   17.25    3.01   4
  -2   3  12   16.05    2.72   4
  -2  -3  11    3.36    2.17   4
  -2   3  11    3.31    1.85   4
  -2  -3  10   54.43    3.90   4
  -2   3  10   49.30    3.56   4
  -2  -3   9    0.64    1.70   4
  -2   3   9   -0.19    1.24   4
  -2  -3   8    0.35    1.53   4
  -2   3   8   -0.09    1.21   4
  -2  -3   7   -0.24    1.27   4
  -2   3   7    0.01    1.06   4
  -2  -3   6   19.85    1.98   4
  -2   3   6   22.87    2.28   4
  -2  -3   5  355.11    6.22   4
  -2   3   5  356.11    6.36   4
  -2   3   4   73.96    3.06   4
   2   3  -4   72.03    2.96   4
  -2   3   3 1035.12   10.89   4
   2   3  -3 1040.92   10.90   4
  -2   3   2  424.61    6.41   4
   2   3  -2  419.25    6.42   4
  -2   3   1    1.14    0.92   4
   2   3  -1   -0.70    0.84   4
  -2   3   0 2314.56   18.20   4
   2   3   0 2300.52   18.32   4
  -2   3  -1  750.49    8.83   4
   2   3   1  773.41    9.32   4
  -2   3  -2  343.94    5.94   4
   2  -3   2  342.05    6.01   4
   2   3   2  344.01    6.19   4
   2  -3   3  275.05    5.52   4
   2   3   3  277.44    5.69   4
   2  -3   4   11.29    1.67   4
   2   3   4   10.52    1.64   4
   2  -3   5   97.32    4.09   4
   2   3   5   93.01    3.84   4
   2  -3   6   67.04    3.85   4
   2   3   6   62.99    3.50   4
   2  -3   7   82.15    4.25   4
   2   3   7   85.95    4.32   4
   2  -3   8   26.47    3.25   4
   2   3   8   23.29    2.72   4
   2  -3   9   17.51    2.71   4
   2   3   9   19.59    2.83   4
   2  -3  10   22.26    3.09   4
   2   3  10   19.97    2.92   4
   2  -3  11    0.18    2.22   4
   2   3  11    1.49    1.89   4
   2  -3  12    1.29    2.40   4
   2   3  12   -0.21    1.98   4
  -2  -4  12   12.75    2.95   4
  -2   4  12   10.77    2.52   4
  -2  -4  11   15.09    3.04   4
  -2   4  11   12.12    2.43   4
  -2  -4  10   -2.88    1.91   4
  -2   4  10    1.07    1.63   4
  -2  -4   9    0.71    1.87   4
  -2   4   9   -0.02    1.56   4
  -2  -4   8  139.62    5.19   4
  -2   4   8  144.59    5.38   4
  -2  -4   7    1.82    1.65   4
  -2   4   7    1.20    1.49   4
  -2  -4   6    2.74    1.66   4
  -2   4   6    3.52    1.57   4
  -2  -4   5  129.47    4.52   4
  -2   4   5  121.08    4.40   4
  -2   4   4  273.59    6.17   4
   2   4  -4  277.19    6.11   4
  -2   4   3  177.43    4.95   4
   2   4  -3  172.77    4.84   4
  -2   4   2  140.68    4.47   4
   2   4  -2  143.21    4.57   4
  -2   4   1   39.84    2.75   4
   2   4  -1   41.04    2.83   4
  -2   4   0  147.64    4.38   4
   2   4   0  149.00    4.50   4
  -2   4  -1  159.41    4.58   4
   2   4   1  159.72    4.76   4
  -2   4  -2  224.25    5.53   4
   2   4   2  224.15    5.71   4
   2  -4   3  615.96    9.27   4
   2   4   3  640.68   10.00   4
   2  -4   4  189.43    5.56   4
   2   4   4  192.33    5.77   4
   2  -4   5  239.99    6.37   4
   2   4   5  251.23    6.84   4
   2  -4   6   19.97    2.62   4
   2   4   6   23.60    2.63   4
   2  -4   7   21.56    2.72   4
   2   4   7   18.41    2.58   4
   2  -4   8   20.16    2.95   4
   2   4   8   20.22    2.89   4
   2  -4   9   17.30    2.90   4
   2   4   9   17.59    2.93   4
   2  -4  10   15.45    3.02   4
   2   4  10   18.01    2.83   4
   2  -4  11   -0.18    2.38   4
   2   4  11    0.26    2.05   4
  -2  -5  11   -1.76    2.37   4
  -2   5  11   -0.24    1.92   4
  -2  -5  10   -0.09    2.24   4
  -2   5  10    1.53    1.98   4
  -2  -5   9    7.28    2.44   4
  -2   5   9    3.47    2.04   4
  -2  -5   8   73.06    4.45   4
  -2   5   8   66.81    4.33   4
  -2  -5   7   13.87    2.59   4
  -2   5   7   12.30    2.37   4
  -2  -5   6  196.31    6.11   4
  -2   5   6  183.75    6.13   4
  -2   5   5   26.22    3.17   4
   2   5  -5   25.39    2.81   4
  -2   5   4  115.41    4.82   4
   2   5  -4  117.82    4.77   4
  -2   5   3    6.70    1.83   4
   2   5  -3    7.58    1.82   4
  -2   5   2    7.98    1.81   4
   2   5  -2    8.67    1.83   4
  -2   5   1    3.73    1.58   4
   2   5  -1    5.69    1.69   4
  -2   5   0    1.01    1.34   4
   2   5   0    0.52    1.41   4
  -2   5  -1  156.16    5.15   4
   2   5   1  160.07    5.46   4
  -2   5  -2  362.24    7.85   4
   2   5   2  363.07    8.06   4
   2  -5   3  103.16    4.89   4
   2   5   3  104.73    5.09   4
   2  -5   4  677.39   11.15   4
   2   5   4  667.30   11.52   4
   2  -5   5  113.96    5.15   4
   2   5   5  122.09    5.44   4
   2  -5   6   55.85    4.21   4
   2   5   6   64.86    4.45   4
   2  -5   7   21.33    2.91   4
   2   5   7   25.87    3.10   4
   2  -5   8   -0.45    2.01   4
   2   5   8   -1.48    1.62   4
   2  -5   9   14.66    3.22   4
   2   5   9   14.82    2.82   4
   2  -5  10    0.03    2.45   4
   2   5  10    1.15    2.05   4
  -2  -6   9    2.71    2.38   4
  -2   6   9    0.94    2.00   4
  -2  -6   8    2.11    2.39   4
  -2   6   8    3.47    2.19   4
  -2  -6   7    7.41    2.50   4
  -2   6   7    8.75    2.52   4
  -2  -6   6   13.66    2.61   4
  -2   6   6   15.51    2.75   4
  -2   6   5   95.45    5.22   4
   2   6  -5   94.92    5.02   4
  -2   6   4   65.88    4.70   4
   2   6  -4   65.74    4.34   4
  -2   6   3    0.32    1.85   4
   2   6  -3    1.44    1.74   4
  -2   6   2   26.84    3.03   4
   2   6  -2   25.41    2.94   4
  -2   6   1   -0.81    1.76   4
   2   6  -1    1.06    1.72   4
  -2   6   0   -0.97    1.61   4
   2   6   0    0.95    1.67   4
  -2   6  -1    0.17    1.78   4
   2   6   1    0.51    1.76   4
  -2   6  -2   58.15    4.06   4
   2   6   2   55.64    4.19   4
  -2   6  -3   64.93    4.53   4
   2   6   3   68.16    4.49   4
   2  -6   4    5.47    2.07   4
   2   6   4    4.36    2.20   4
   2  -6   5   61.56    4.50   4
   2   6   5   68.86    4.72   4
   2  -6   6   -0.30    1.96   4
   2   6   6    0.59    1.93   4
   2  -6   7   14.22    3.17   4
   2   6   7   14.93    3.03   4
   2  -6   8   33.60    3.95   4
   2   6   8   35.88    4.12   4
   2  -6   9    6.80    2.99   4
   2   6   9    6.91    2.71   4
  -2  -7   7   -0.30    2.21   4
  -2   7   7   -0.76    1.97   4
  -2  -7   6   11.40    2.74   4
  -2   7   6   15.38    3.12   4
  -2   7   5    8.74    2.74   4
   2   7  -5    7.43    2.47   4
  -2   7   4   15.19    2.98   4
   2   7  -4   19.07    3.09   4
  -2   7   3    5.55    2.35   4
   2   7  -3    5.12    2.29   4
  -2   7   2   77.55    4.89   4
   2   7  -2   79.03    4.99   4
  -2   7   1   -1.50    1.91   4
   2   7  -1   -0.33    1.87   4
  -2   7   0    8.77    2.48   4
   2   7   0    8.51    2.44   4
  -2   7  -1   -0.18    1.82   4
   2   7   1    0.34    1.88   4
  -2   7  -2    0.48    1.92   4
   2   7   2   -0.45    1.87   4
  -2   7  -3    1.59    1.99   4
   2   7   3    1.53    2.02   4
   2  -7   4    2.31    2.06   4
   2   7   4    1.07    2.12   4
   2  -7   5    9.38    2.79   4
   2   7   5   10.36    2.72   4
   2  -7   6    3.15    2.74   4
   2   7   6    2.76    2.32   4
   2  -7   7   11.87    3.27   4
   2   7   7   14.89    3.39   4
  -2   8   4   13.48    3.19   4
   2   8  -4   15.06    3.21   4
  -2   8   3   52.31    4.76   4
   2   8  -3   55.33    4.84   4
  -2   8   2    0.92    2.40   4
   2   8  -2    1.50    2.26   4
  -2   8   1   -0.86    2.22   4
   2   8  -1    0.63    2.15   4
  -2   8   0   -1.60    2.14   4
   2   8   0   -0.77    2.12   4
  -2   8  -1   -1.06    2.23   4
   2   8   1    0.23    2.15   4
  -2   8  -2    1.27    2.50   4
   2   8   2   -1.34    2.05   4
   2  -8   3    3.09    2.64   4
   2   8   3    3.35    2.60   4
   2  -8   4    4.33    2.70   4
   2   8   4    1.44    2.50   4
  -3   0  11    7.47    1.70   4
  -3   0  10    0.23    1.18   4
  -3   0   9   92.40    3.63   4
  -3   0   8    0.88    1.10   4
  -3   0   7   25.77    2.01   4
  -3   0   6    0.44    0.74   4
  -3   0   5 2970.89   19.82   4
  -3   0   4   -0.16    0.43   4
   3   0  -1   -0.14    0.36   4
   3   0   0   -0.36    0.60   4
   3   0   1 3538.20   22.95   4
   3   0   2   -0.37    0.78   4
   3   0   3  786.84    8.27   4
   3   0   4   -0.56    0.95   4
   3   0   5 2935.43   22.34   4
   3   0   6   -1.16    1.32   4
   3   0   7   41.30    3.27   4
   3   0   8   -0.86    1.48   4
   3   0   9   11.79    2.26   4
   3   0  10   -1.83    1.76   4
   3   0  11   35.53    3.43   4
   3   0  12    0.10    2.02   4
   3   0  13   21.58    3.25   4
  -3  -1  11    9.82    1.87   4
  -3   1  11    8.33    1.73   4
  -3  -1  10   32.92    3.06   4
  -3   1  10   31.00    2.76   4
  -3  -1   9  622.67    8.75   4
  -3   1   9  625.15    8.64   4
  -3  -1   8    8.09    1.53   4
  -3   1   8   10.70    1.51   4
  -3  -1   7  459.59    6.36   4
  -3   1   7  524.71    7.24   4
  -3  -1   6    4.64    1.04   4
  -3   1   6    4.31    0.85   4
  -3  -1   5  676.45    6.67   4
  -3   1   5  669.11    6.65   4
  -3  -1   4  881.42    7.49   4
  -3   1   4  881.62    7.55   4
  -3  -1   3  954.70    7.73   4
  -3   1   3  955.07    7.86   4
  -3   1   2 3213.14   22.44   4
   3   1  -2 3190.88   21.97   4
   3  -1  -1 3668.15   24.33   4
   3   1  -1 3686.20   24.52   4
   3  -1   0 8566.34   51.53   4
   3   1   0 8737.74   52.80   4
   3  -1   1 1076.26    9.14   4
   3   1   1 1072.05    9.22   4
   3  -1   2  223.13    4.07   4
   3   1   2  225.34    4.18   4
   3  -1   3  730.89    8.15   4
   3   1   3  740.57    8.17   4
   3  -1   4  151.41    4.09   4
   3   1   4  155.06    3.98   4
   3  -1   5  572.09    8.11   4
   3   1   5  579.51    8.22   4
   3  -1   6   13.36    1.96   4
   3   1   6   13.59    1.96   4
   3  -1   7    4.78    1.82   4
   3   1   7    3.35    1.62   4
   3  -1   8   54.79    3.76   4
   3   1   8   54.59    3.61   4
   3  -1   9    1.66    1.89   4
   3   1   9    3.44    1.75   4
   3  -1  10   54.08    4.29   4
   3   1  10   53.82    4.07   4
   3  -1  11   -0.36    1.93   4
   3   1  11   -0.59    1.74   4
   3  -1  12   11.36    2.76   4
   3   1  12   12.42    2.65   4
   3  -1  13    2.03    2.39   4
   3   1  13    1.66    2.20   4
  -3  -2  11    0.49    1.81   4
  -3   2  11    4.59    1.65   4
  -3  -2  10   23.27    2.58   4
  -3   2  10   22.80    2.54   4
  -3  -2   9   17.89    2.18   4
  -3   2   9   16.77    2.03   4
  -3  -2   8 1160.10   12.17   4
  -3   2   8 1143.82   12.35   4
  -3  -2   7   45.65    2.83   4
  -3   2   7   43.76    2.46   4
  -3  -2   6   18.10    2.17   4
  -3   2   6   17.74    1.80   4
  -3  -2   5   57.29    2.44   4
  -3   2   5   55.82    2.47   4
  -3  -2   4    9.44    1.17   4
  -3   2   4   11.51    1.16   4
  -3   2   3  189.72    3.53   4
   3   2  -3  192.22    3.55   4
  -3   2   2  375.88    4.95   4
   3   2  -2  384.78    5.17   4
  -3   2   1   99.51    2.62   4
   3   2  -1   97.84    2.85   4
  -3   2   0 4952.67   31.41   4
   3   2   0 4952.87   31.72   4
   3  -2   1   32.50    2.24   4
   3   2   1   32.25    2.19   4
   3  -2   2 1022.63   10.05   4
   3   2   2 1059.25   10.60   4
   3  -2   3   36.36    2.60   4
   3   2   3   33.46    2.24   4
   3  -2   4   73.05    3.18   4
   3   2   4   70.95    3.07   4
   3  -2   5   62.27    3.32   4
   3   2   5   63.72    3.24   4
   3  -2   6   16.56    2.09   4
   3   2   6   15.75    1.99   4
   3  -2   7   20.09    2.41   4
   3   2   7   18.85    2.25   4
   3  -2   8    2.96    1.92   4
   3   2   8    2.24    1.57   4
   3  -2   9    0.48    2.03   4
   3   2   9    0.68    1.69   4
   3  -2  10    6.34    2.37   4
   3   2  10    5.68    2.12   4
   3  -2  11    0.73    2.17   4
   3   2  11    2.17    2.05   4
   3  -2  12    1.26    2.41   4
   3   2  12   -0.97    2.07   4
  -3  -3  11   14.29    2.63   4
  -3  -3  10   16.04    2.46   4
  -3   3  10   12.16    2.12   4
  -3  -3   9   -0.75    1.62   4
  -3   3   9    0.52    1.42   4
  -3  -3   8   23.85    2.89   4
  -3   3   8   24.42    2.59   4
  -3  -3   7    3.54    1.47   4
  -3   3   7    3.11    1.37   4
  -3  -3   6   -0.22    1.15   4
  -3   3   6    0.63    0.82   4
  -3  -3   5  168.82    4.29   4
  -3   3   5  172.19    4.31   4
  -3   3   4   -0.25    0.82   4
   3   3  -4   -0.84    0.91   4
  -3   3   3  656.91    8.21   4
   3   3  -3  671.68    8.38   4
  -3   3   2  180.25    4.14   4
   3   3  -2  179.78    4.28   4
  -3   3   1  104.46    3.28   4
   3   3  -1   97.18    3.37   4
  -3   3   0 3201.12   23.22   4
   3   3   0 3206.89   23.70   4
  -3   3  -1 1196.80   12.03   4
   3   3   1 1190.80   12.29   4
   3  -3   2   46.58    2.91   4
   3   3   2   53.40    2.99   4
   3  -3   3  197.33    4.91   4
   3   3   3  199.61    5.03   4
   3  -3   4  165.47    4.92   4
   3   3   4  161.56    4.88   4
   3  -3   5    0.81    1.41   4
   3   3   5    0.36    1.15   4
   3  -3   6   85.69    4.34   4
   3   3   6   87.79    4.13   4
   3  -3   7   22.89    2.80   4
   3   3   7   22.48    2.58   4
   3   3   8  110.74    5.15   4
   3  -3   9   33.97    3.96   4
   3   3   9   31.39    3.67   4
   3  -3  10   59.22    4.85   4
   3   3  10   56.20    4.49   4
   3  -3  11    5.88    2.72   4
   3   3  11    5.95    2.34   4
   3  -3  12    3.09    2.62   4
   3   3  12    1.91    2.33   4
  -3  -4  11    5.94    2.41   4
  -3  -4  10    0.84    2.00   4
  -3   4  10   -1.01    1.54   4
  -3  -4   9   29.88    3.33   4
  -3   4   9   26.39    3.14   4
  -3  -4   8    6.39    1.86   4
  -3   4   8    5.43    1.86   4
  -3  -4   7   44.74    3.37   4
  -3   4   7   48.45    3.36   4
  -3  -4   6    7.83    1.94   4
  -3   4   6    7.97    1.81   4
  -3   4   5  217.35    5.71   4
   3   4  -5  214.98    5.74   4
  -3   4   4  609.99    9.20   4
   3   4  -4  612.19    9.15   4
  -3   4   3    2.78    1.34   4
   3   4  -3    4.06    1.37   4
  -3   4   2   10.01    1.57   4
   3   4  -2    9.80    1.60   4
  -3   4   1   10.01    1.58   4
   3   4  -1    8.74    1.52   4
  -3   4   0    3.41    1.28   4
   3   4   0    1.84    1.15   4
  -3   4  -1   12.97    1.80   4
   3   4   1   10.28    1.71   4
   3  -4   2  205.65    5.53   4
   3   4   2  208.32    5.68   4
   3  -4   3  309.42    6.83   4
   3   4   3  315.24    7.18   4
   3  -4   4    9.77    2.00   4
   3   4   4   10.79    2.03   4
   3  -4   5  686.23   10.94   4
   3   4   5  681.79   11.23   4
   3  -4   6    2.66    1.85   4
   3   4   6    5.50    1.82   4
   3  -4   7   20.19    2.70   4
   3   4   7   19.78    2.77   4
   3  -4   8    1.25    2.03   4
   3   4   8    1.15    1.88   4
   3  -4   9    9.14    2.61   4
   3   4   9   11.23    2.68   4
   3  -4  10   -0.82    2.18   4
   3   4  10    0.54    2.19   4
   3  -4  11   -0.57    2.45   4
   3   4  11    1.34    2.24   4
  -3  -5  10    3.11    2.43   4
  -3   5  10    3.34    2.05   4
  -3  -5   9   12.22    2.53   4
  -3   5   9   10.15    2.36   4
  -3  -5   8    2.79    2.00   4
  -3   5   8    1.22    1.90   4
  -3  -5   7   41.40    3.62   4
  -3   5   7   37.20    3.47   4
  -3  -5   6   38.01    3.42   4
  -3   5   6   36.21    3.46   4
  -3   5   5   16.54    2.46   4
   3   5  -5   15.79    2.46   4
  -3   5   4  145.01    5.50   4
   3   5  -4  138.44    5.11   4
  -3   5   3    2.88    1.67   4
   3   5  -3    4.88    1.68   4
  -3   5   2   62.40    3.66   4
   3   5  -2   68.30    3.71   4
  -3   5   1    5.09    1.61   4
   3   5  -1    6.78    1.80   4
  -3   5   0   53.41    3.32   4
   3   5   0   48.21    3.48   4
  -3   5  -1   14.73    2.18   4
   3   5   1   14.37    2.12   4
  -3   5  -2   14.04    2.19   4
   3   5   2   13.47    2.36   4
   3  -5   3  174.58    5.86   4
   3   5   3  174.17    6.25   4
   3  -5   4  808.59   12.36   4
   3   5   4  814.86   13.12   4
   3  -5   5  103.36    5.04   4
   3   5   5  101.99    5.19   4
   3  -5   6    5.23    2.18   4
   3   5   6    4.26    2.05   4
   3  -5   7    0.13    1.63   4
   3   5   7   -0.96    1.63   4
   3  -5   8   -0.12    2.04   4
   3   5   8   -0.33    1.94   4
   3  -5   9   19.16    3.34   4
   3   5   9   20.72    3.31   4
   3  -5  10   -0.23    2.57   4
   3   5  10    1.81    2.13   4
  -3  -6   9    0.62    2.32   4
  -3   6   9    3.02    2.28   4
  -3  -6   8   37.28    3.94   4
  -3   6   8   37.61    3.83   4
  -3  -6   7   23.57    3.15   4
  -3   6   7   22.07    2.98   4
  -3  -6   6    6.62    2.34   4
  -3   6   6    4.01    2.01   4
  -3   6   5   35.56    3.93   4
   3   6  -5   34.34    3.89   4
  -3   6   4   14.87    2.63   4
   3   6  -4   17.26    2.60   4
  -3   6   3    7.66    2.18   4
   3   6  -3   10.17    2.22   4
  -3   6   2    1.08    1.80   4
   3   6  -2   -0.32    1.69   4
  -3   6   1   33.60    3.39   4
   3   6  -1   36.66    3.53   4
  -3   6   0    2.75    1.88   4
   3   6   0    3.67    1.95   4
  -3   6  -1    3.11    1.89   4
   3   6   1    2.89    1.90   4
  -3   6  -2    5.64    2.10   4
   3   6   2    3.90    1.94   4
   3  -6   3   23.81    2.98   4
   3   6   3   26.80    3.18   4
   3  -6   4   20.28    2.92   4
   3   6   4   18.13    2.92   4
   3  -6   5    1.36    2.02   4
   3   6   5    2.34    2.06   4
   3  -6   6    8.48    2.60   4
   3   6   6   10.92    2.69   4
   3  -6   7   -0.56    2.10   4
   3   6   7    0.97    2.08   4
   3  -6   8   20.94    3.53   4
   3   6   8   16.71    3.25   4
  -3  -7   7    9.95    2.85   4
  -3   7   7    9.56    2.78   4
  -3  -7   6    1.78    2.27   4
  -3   7   6    2.68    2.31   4
  -3   7   5    3.15    2.14   4
   3   7  -5    1.31    1.94   4
  -3   7   4   11.12    2.71   4
   3   7  -4   10.67    2.48   4
  -3   7   3   16.39    2.89   4
   3   7  -3   15.50    2.84   4
  -3   7   2   -2.02    2.02   4
   3   7  -2    0.52    1.94   4
  -3   7   1   18.18    2.99   4
   3   7  -1   17.81    3.22   4
  -3   7   0   14.70    2.81   4
   3   7   0   15.21    2.96   4
  -3   7  -1    8.46    2.53   4
   3   7   1    9.48    2.62   4
  -3   7  -2    2.07    2.03   4
   3   7   2    0.98    2.05   4
   3  -7   3    0.13    1.99   4
   3   7   3   -0.55    1.96   4
   3  -7   4   13.43    2.99   4
   3   7   4   15.15    3.17   4
   3  -7   5   -0.84    2.35   4
   3   7   5    2.76    2.28   4
   3  -7   6   -1.17    2.28   4
   3   7   6   -1.93    2.05   4
  -3   8   4   27.12    3.90   4
   3   8  -4   22.37    3.55   4
  -3   8   3   19.41    3.51   4
   3   8  -3   18.61    3.38   4
  -3   8   2   -0.63    2.18   4
   3   8  -2    1.40    2.32   4
  -3   8   1    6.67    2.72   4
   3   8  -1    7.74    2.66   4
  -3   8   0    0.47    2.22   4
   3   8   0    2.15    2.43   4
  -3   8  -1   -0.57    2.37   4
   3   8   1   -1.62    2.11   4
  -3   8  -2    4.67    2.44   4
   3  -8   2    6.49    2.61   4
   3   8   2    3.20    2.69   4
   3  -8   3   -1.12    2.26   4
   3   8   3   -0.64    2.33   4
  -4   0   9   -0.67    0.95   4
  -4   0   8   10.49    1.30   4
  -4   0   7    0.53    0.72   4
  -4   0   6  167.35    2.87   4
   4   0  -1   -0.03    0.43   4
   4   0   0  150.08    2.72   4
   4   0   1   -0.02    0.65   4
   4   0   2 1110.78   10.35   4
   4   0   3   -0.12    0.91   4
   4   0   4   -0.41    1.04   4
   4   0   5   -0.22    1.28   4
   4   0   6  160.05    5.00   4
   4   0   7   -0.67    1.43   4
   4   0   8   39.25    3.51   4
   4   0   9   -1.46    1.58   4
   4   0  10   26.17    3.15   4
   4   0  11   -0.05    1.95   4
   4   0  12    9.32    2.68   4
  -4  -1   9  150.95    4.33   4
  -4   1   9  155.02    4.04   4
  -4  -1   8   75.16    3.11   4
  -4   1   8   74.71    2.74   4
  -4  -1   7  545.02    6.48   4
  -4   1   7  550.58    6.43   4
  -4  -1   6   26.93    1.93   4
  -4   1   6   28.00    1.52   4
  -4  -1   5  496.47    5.27   4
  -4   1   5  488.18    5.17   4
  -4  -1   4 2573.15   17.65   4
   4   1  -3   56.58    1.57   4
   4  -1  -2    1.05    0.45   4
   4   1  -2    1.01    0.50   4
   4  -1  -1  276.52    3.51   4
   4   1  -1  278.72    3.64   4
   4  -1   0  539.89    5.72   4
   4   1   0  534.98    5.77   4
   4  -1   1  248.80    4.18   4
   4   1   1  255.70    4.14   4
   4  -1   2  823.79    8.67   4
   4   1   2  866.05    8.86   4
   4  -1   3    2.06    1.31   4
   4   1   3    4.41    1.12   4
   4  -1   4  737.16    9.13   4
   4   1   4  749.03    9.29   4
   4  -1   5  147.67    4.77   4
   4   1   5  144.19    4.36   4
   4  -1   6  221.22    5.77   4
   4   1   6  222.87    5.66   4
   4  -1   7    8.07    2.13   4
   4   1   7    5.02    1.78   4
   4  -1   8   22.59    2.71   4
   4   1   8   21.69    2.55   4
   4  -1   9   -0.64    1.74   4
   4   1   9   -0.12    1.54   4
   4  -1  10    7.68    2.46   4
   4   1  10    8.71    2.33   4
   4  -1  11   14.19    2.85   4
   4   1  11   10.86    2.65   4
   4  -1  12    1.08    2.18   4
   4   1  12    0.22    2.06   4
  -4  -2   9  559.57    8.20   4
  -4   2   9  540.31    8.15   4
  -4  -2   8  714.49    8.87   4
  -4   2   8  697.48    8.90   4
  -4  -2   7  110.39    3.64   4
  -4   2   7  105.53    3.32   4
  -4  -2   6  202.82    4.10   4
  -4   2   6  194.00    4.02   4
  -4  -2   5  106.96    2.96   4
  -4   2   5  103.39    2.84   4
  -4   2   4    6.99    1.00   4
   4   2  -4    7.91    1.05   4
  -4   2   3    2.88    0.77   4
   4   2  -3    2.14    0.81   4
  -4   2   2   52.13    2.00   4
   4   2  -2   49.30    2.10   4
  -4   2   1 3325.61   22.40   4
   4   2  -1 3331.96   22.85   4
   4  -2   0 2551.98   18.27   4
   4   2   0 2553.74   18.95   4
   4  -2   1 7208.10   43.64   4
   4   2   1 7317.05   44.99   4
   4  -2   2  759.71    8.93   4
   4   2   2  787.30    9.20   4
   4  -2   3  270.66    5.37   4
   4   2   3  274.00    5.58   4
   4  -2   4    7.28    1.61   4
   4   2   4    6.88    1.52   4
   4  -2   5  230.74    5.67   4
   4   2   5  244.11    5.96   4
   4  -2   6   -1.04    1.50   4
   4   2   6   -0.72    1.16   4
   4  -2   7   11.24    2.25   4
   4   2   7   11.38    2.06   4
   4  -2   8    5.37    2.11   4
   4   2   8    7.08    1.98   4
   4  -2   9   63.27    4.47   4
   4   2   9   63.35    4.15   4
   4  -2  10   24.61    3.08   4
   4   2  10   22.75    3.01   4
   4  -2  11   24.46    3.39   4
   4   2  11   27.63    3.49   4
   4  -2  12    5.68    2.67   4
   4   2  12    3.41    2.43   4
  -4  -3   9   98.38    4.44   4
  -4   3   9   90.59    4.05   4
  -4  -3   8   28.73    2.95   4
  -4   3   8   23.89    2.68   4
  -4  -3   7  397.41    6.68   4
  -4   3   7  390.92    6.92   4
  -4  -3   6   85.38    3.45   4
  -4   3   6   83.16    3.26   4
  -4  -3   5    3.31    1.26   4
  -4   3   5    3.73    1.19   4
  -4   3   4  405.15    6.51   4
   4   3  -4  418.91    6.58   4
  -4   3   3   22.69    1.98   4
   4   3  -3   21.87    1.96   4
  -4   3   2  500.56    6.93   4
   4   3  -2  514.67    7.33   4
  -4   3   1  140.19    3.79   4
   4   3  -1  138.25    3.95   4
  -4   3   0  384.78    6.24   4
   4   3   0  375.24    6.48   4
   4  -3   1 1249.80   12.44   4
   4   3   1 1266.99   13.10   4
   4  -3   2    0.84    1.20   4
   4   3   2    0.55    1.03   4
   4  -3   3  463.88    7.74   4
   4   3   3  463.17    8.11   4
   4  -3   4  861.31   11.13   4
   4   3   4  870.26   11.69   4
   4  -3   5   68.67    3.92   4
   4   3   5   79.24    4.12   4
   4  -3   6   23.10    2.74   4
   4   3   6   25.57    2.98   4
   4  -3   7    0.10    1.69   4
   4   3   7    1.54    1.50   4
   4  -3   8    0.05    1.81   4
   4   3   8    0.17    1.56   4
   4  -3   9    1.03    2.22   4
   4   3   9    1.14    1.64   4
   4  -3  10    4.10    2.62   4
   4   3  10    4.78    1.94   4
   4  -3  11    3.48    2.71   4
   4   3  11    1.29    2.14   4
  -4  -4   9    4.65    1.97   4
  -4   4   9    3.91    1.73   4
  -4  -4   8    2.74    1.64   4
  -4   4   8    3.77    1.69   4
  -4  -4   7   12.30    2.13   4
  -4   4   7   10.09    1.92   4
  -4  -4   6  143.96    4.82   4
  -4   4   6  140.58    4.80   4
  -4   4   5  620.66    9.39   4
   4   4  -5  630.95    9.42   4
  -4   4   4  108.91    4.29   4
   4   4  -4  109.80    4.14   4
  -4   4   3  182.83    5.01   4
   4   4  -3  185.65    5.09   4
  -4   4   2  130.39    4.15   4
   4   4  -2  132.51    4.37   4
  -4   4   1    1.67    1.16   4
   4   4  -1    1.52    1.24   4
  -4   4   0  106.42    3.99   4
   4   4   0   99.27    3.97   4
   4  -4   1    6.61    1.75   4
   4   4   1    9.07    1.86   4
   4  -4   2   59.76    3.66   4
   4   4   2   57.26    3.66   4
   4  -4   3  491.20    8.84   4
   4   4   3  493.29    9.16   4
   4  -4   4  818.96   11.66   4
   4   4   4  812.31   12.40   4
   4   4   5  565.06   10.50   4
   4  -4   6    6.52    2.17   4
   4   4   6    7.48    2.12   4
   4  -4   7    3.64    2.04   4
   4   4   7    4.49    2.07   4
   4  -4   8    2.86    2.30   4
   4   4   8    0.14    1.91   4
   4  -4   9   13.53    2.91   4
   4   4   9   18.46    3.22   4
   4  -4  10   18.70    3.46   4
   4   4  10   18.57    3.20   4
   4  -4  11   -1.22    2.57   4
   4   4  11   -0.28    2.01   4
  -4  -5   9    3.22    2.02   4
  -4   5   9    3.94    1.92   4
  -4  -5   8    0.86    1.81   4
  -4   5   8   -1.13    1.44   4
  -4  -5   7   15.01    2.45   4
  -4   5   7   14.84    2.33   4
  -4  -5   6   31.38    3.31   4
  -4   5   6   24.18    2.97   4
  -4   5   5    1.64    1.73   4
   4   5  -5    2.09    1.77   4
  -4   5   4   57.69    3.74   4
   4   5  -4   60.65    3.78   4
  -4   5   3  276.64    6.90   4
   4   5  -3  283.05    7.01   4
  -4   5   2   -1.42    1.22   4
   4   5  -2   -0.76    1.34   4
  -4   5   1   18.69    2.29   4
   4   5  -1   19.53    2.49   4
  -4   5   0   21.06    2.61   4
   4   5   0   24.21    2.88   4
  -4   5  -1   16.94    2.27   4
   4   5   1   16.42    2.33   4
   4  -5   2   -0.56    1.71   4
   4   5   2    2.93    1.70   4
   4  -5   3   75.88    4.32   4
   4   5   3   77.24    4.55   4
   4  -5   4   18.11    2.52   4
   4   5   4   16.82    2.68   4
   4  -5   5    1.62    1.97   4
   4   5   5    1.67    1.88   4
   4  -5   6    3.32    2.07   4
   4   5   6    1.92    1.89   4
   4  -5   7   13.80    2.81   4
   4   5   7   12.41    2.69   4
   4  -5   8    2.21    2.16   4
   4   5   8    0.53    2.02   4
   4  -5   9   19.16    3.63   4
   4   5   9   21.58    3.78   4
  -4  -6   9   -0.60    2.26   4
  -4  -6   8   21.84    3.11   4
  -4   6   8   22.56    3.10   4
  -4  -6   7   25.12    3.17   4
  -4   6   7   27.58    3.26   4
  -4  -6   6    8.63    2.46   4
  -4   6   6    8.18    2.34   4
  -4   6   5   11.46    2.34   4
   4   6  -5   12.46    2.47   4
  -4   6   4   36.42    3.69   4
   4   6  -4   38.67    3.57   4
  -4   6   3   -0.13    1.76   4
   4   6  -3    1.37    1.73   4
  -4   6   2   15.49    2.52   4
   4   6  -2   14.41    2.49   4
  -4   6   1   52.03    3.77   4
   4   6  -1   58.59    4.16   4
  -4   6   0    1.04    1.77   4
   4   6   0    3.18    1.96   4
  -4   6  -1    2.04    1.85   4
   4   6   1    0.12    1.76   4
   4  -6   2   32.71    3.54   4
   4   6   2   34.40    3.76   4
   4  -6   3    0.88    1.85   4
   4   6   3    0.64    1.71   4
   4  -6   4    1.90    2.05   4
   4   6   4   -1.16    1.73   4
   4  -6   5    4.82    2.30   4
   4   6   5    1.13    2.04   4
   4  -6   6   16.42    2.97   4
   4   6   6   18.42    2.77   4
   4  -6   7    1.32    1.90   4
   4   6   7   -1.19    2.01   4
   4  -6   8   46.80    4.91   4
   4   6   8   44.47    4.79   4
  -4  -7   7   10.98    2.91   4
  -4   7   7    9.01    2.72   4
  -4  -7   6   15.44    2.96   4
  -4   7   6   10.84    2.60   4
  -4   7   5    1.07    2.01   4
   4   7  -5   -0.30    2.06   4
  -4   7   4    5.15    2.25   4
   4   7  -4    3.76    2.15   4
  -4   7   3   -0.71    1.75   4
   4   7  -3   -1.12    1.86   4
  -4   7   2    6.59    2.34   4
   4   7  -2    9.33    2.67   4
  -4   7   1    3.65    2.17   4
   4   7  -1    1.38    2.13   4
  -4   7   0   15.38    3.01   4
   4   7   0   17.76    3.10   4
  -4   7  -1    1.12    2.01   4
   4   7   1    1.56    2.28   4
   4  -7   2    6.22    2.45   4
   4   7   2    6.30    2.54   4
   4  -7   3   22.54    3.30   4
   4   7   3   15.79    3.17   4
   4  -7   4    9.13    2.78   4
   4   7   4    8.25    2.74   4
   4  -7   5   -1.23    2.23   4
   4   7   5    1.61    2.44   4
   4  -7   6   -0.20    2.45   4
   4   7   6    0.00    2.21   4
  -4   8   3    5.03    2.65   4
   4   8  -3    8.79    2.82   4
  -4   8   2    0.78    2.23   4
   4   8  -2    3.10    2.45   4
  -4   8   1    0.17    2.25   4
   4   8  -1    0.98    2.26   4
  -4   8   0    3.28    2.69   4
   4   8   0    1.19    2.29   4
  -4   8  -1   -0.06    2.25   4
   4   8   1   -1.53    2.28   4
   4   8   2    1.46    2.51   4
   5   0  -1    9.70    1.10   4
   5   0   0   -0.57    0.61   4
   5   0   1 1575.02   12.74   4
   5   0   2   -0.77    0.89   4
   5   0   3    4.37    1.28   4
   5   0   4   -0.01    1.13   4
   5   0   5  466.37    7.91   4
   5   0   6   -0.24    1.46   4
   5   0   7   57.95    3.76   4
   5   0   8    0.05    1.58   4
   5   0   9  111.80    5.24   4
   5   0  10   -0.85    1.91   4
   5   0  11   -0.62    1.87   4
   5   0  12    1.02    2.18   4
  -5  -1   7    0.01    0.86   4
   5  -1  -2   28.27    1.48   4
   5   1  -2   24.99    1.47   4
   5  -1  -1  617.91    6.10   4
   5   1  -1  621.88    6.30   4
   5  -1   0 1142.55    9.74   4
   5   1   0 1159.47   10.09   4
   5  -1   1    4.64    1.11   4
   5   1   1    4.08    0.97   4
   5  -1   2 1114.21   10.85   4
   5   1   2 1098.50   10.77   4
   5  -1   3   28.58    2.93   4
   5   1   3   33.48    2.40   4
   5  -1   4  198.45    5.09   4
   5   1   4  197.55    4.98   4
   5  -1   5    3.59    1.70   4
   5   1   5    4.35    1.57   4
   5  -1   6   90.06    4.51   4
   5   1   6   83.74    4.02   4
   5  -1   7    7.19    2.05   4
   5   1   7    5.77    1.86   4
   5  -1   8   19.99    2.71   4
   5   1   8   20.77    2.55   4
   5  -1   9   11.44    2.51   4
   5   1   9   13.14    2.44   4
   5  -1  10   -1.28    1.88   4
   5   1  10    0.24    1.83   4
   5  -1  11   -0.59    1.97   4
   5   1  11   -0.05    1.86   4
   5  -1  12    9.09    3.02   4
   5   1  12    7.58    2.97   4
  -5  -2   7   30.67    2.64   4
  -5   2   7   29.07    2.16   4
  -5  -2   6  260.49    4.39   4
  -5   2   6  259.68    4.45   4
  -5  -2   5   -0.13    0.77   4
  -5   2   5    0.79    0.75   4
  -5   2   4   12.17    1.09   4
   5   2  -4   13.20    1.59   4
  -5   2   3  204.35    3.54   4
   5   2  -3  205.22    3.75   4
   5  -2  -2   14.36    1.60   4
   5   2  -2   11.73    1.17   4
   5  -2  -1  270.98    4.40   4
   5   2  -1  272.41    4.69   4
   5  -2   0  141.97    3.59   4
   5   2   0  145.49    3.70   4
   5  -2   1    2.78    1.12   4
   5   2   1    3.89    1.10   4
   5  -2   2    2.19    1.18   4
   5   2   2    1.51    1.07   4
   5  -2   3  165.48    4.68   4
   5   2   3  193.74    5.49   4
   5  -2   4  360.90    6.91   4
   5   2   4  359.93    7.01   4
   5  -2   5   36.38    3.51   4
   5   2   5   38.17    3.06   4
   5  -2   6    9.94    2.26   4
   5   2   6   13.58    2.16   4
   5  -2   7    4.15    2.05   4
   5   2   7    6.38    1.88   4
   5  -2   8    3.51    2.12   4
   5   2   8    3.67    1.87   4
   5  -2   9    0.14    2.11   4
   5   2   9   -0.54    1.58   4
   5  -2  10   23.80    3.31   4
   5   2  10   21.56    3.08   4
   5  -2  11    0.61    2.52   4
   5   2  11    1.20    2.19   4
  -5  -3   7  245.67    5.29   4
  -5   3   7  235.71    5.34   4
  -5  -3   6   -0.07    1.29   4
  -5   3   6    0.59    1.14   4
  -5   3   5  504.25    7.28   4
   5   3  -5  515.08    7.56   4
  -5   3   4  675.59    8.35   4
   5   3  -4  686.75    8.60   4
  -5   3   3   15.94    1.88   4
   5   3  -3   18.03    1.94   4
  -5   3   2   38.47    2.24   4
   5   3  -2   37.29    2.36   4
   5   3  -1   80.40    3.29   4
   5  -3   0  682.41    8.67   4
   5   3   0  678.83    9.10   4
   5  -3   1  958.36   10.89   4
   5   3   1  968.81   11.50   4
   5  -3   2  228.85    5.60   4
   5   3   2  231.70    5.65   4
   5  -3   3  244.73    5.81   4
   5   3   3  252.67    6.23   4
   5  -3   4  322.19    6.97   4
   5  -3   5  284.42    7.08   4
   5   3   5  296.01    7.30   4
   5   3   6  275.30    7.42   4
   5  -3   7   13.07    2.53   4
   5   3   7   12.14    2.29   4
   5  -3   8   11.61    2.57   4
   5   3   8   14.87    2.50   4
   5  -3   9    7.93    2.68   4
   5   3   9    8.09    2.13   4
   5  -3  10    6.49    2.90   4
   5   3  10    7.06    2.39   4
   5  -3  11    0.29    2.51   4
   5   3  11   -0.54    1.95   4
  -5  -4   8   27.33    3.02   4
  -5  -4   7   18.12    2.02   4
  -5   4   7   17.76    2.22   4
  -5  -4   6   77.55    3.83   4
  -5   4   6   75.02    4.16   4
  -5   4   5  330.98    6.72   4
   5   4  -5  343.71    7.00   4
  -5   4   4   17.00    2.19   4
   5   4  -4   22.57    2.59   4
  -5   4   3   52.46    3.08   4
   5   4  -3   53.96    3.09   4
  -5   4   2   94.38    3.64   4
   5   4  -2  101.75    4.08   4
  -5   4   1    1.43    1.23   4
   5   4  -1   -0.55    1.17   4
   5  -4   0   -0.87    1.33   4
   5   4   0   -1.43    1.24   4
   5  -4   1  438.45    7.91   4
   5   4   1  438.17    8.42   4
   5  -4   2  241.99    6.33   4
   5   4   2  241.04    6.44   4
   5  -4   3   12.66    2.17   4
   5   4   3   12.71    2.26   4
   5  -4   4  177.51    5.76   4
   5   4   4  170.55    5.96   4
   5  -4   5  205.94    6.38   4
   5   4   5  211.47    6.56   4
   5  -4   6   34.25    3.79   4
   5   4   6   32.71    3.59   4
   5  -4   7    1.06    1.95   4
   5   4   7    0.36    1.76   4
   5  -4   8   16.91    3.01   4
   5   4   8   19.39    3.03   4
   5  -4   9    7.72    2.87   4
   5   4   9    5.10    2.51   4
   5  -4  10   -1.82    2.40   4
   5   4  10    0.33    2.17   4
  -5  -5   8   -1.10    1.69   4
  -5  -5   7    0.74    1.67   4
  -5   5   7    0.24    1.53   4
  -5  -5   6   15.03    2.32   4
  -5   5   6    9.86    2.03   4
  -5   5   5   96.08    4.32   4
   5   5  -5   97.20    4.52   4
  -5   5   4   59.66    3.79   4
   5   5  -4   59.34    3.78   4
  -5   5   3   60.25    3.55   4
   5   5  -3   64.20    3.77   4
  -5   5   2   -0.98    1.29   4
   5   5  -2    0.36    1.45   4
  -5   5   1   22.70    2.70   4
   5   5  -1   21.66    2.57   4
  -5   5   0   91.62    4.16   4
   5   5   0   92.35    4.60   4
   5  -5   1   18.88    2.37   4
   5   5   1   23.79    2.74   4
   5  -5   2    6.53    1.97   4
   5   5   2    8.03    2.10   4
   5  -5   3    3.31    1.80   4
   5   5   3    1.84    1.81   4
   5  -5   4   20.23    2.79   4
   5   5   4   23.22    2.96   4
   5  -5   5   75.90    4.68   4
   5   5   5   69.85    4.68   4
   5  -5   6    1.23    2.10   4
   5   5   6    0.83    1.83   4
   5  -5   7    1.04    2.28   4
   5   5   7    0.91    2.06   4
   5  -5   8    1.00    2.52   4
   5   5   8    0.47    2.06   4
   5  -5   9   35.67    4.39   4
   5   5   9   27.03    3.86   4
  -5  -6   7    3.21    2.12   4
  -5   6   7    2.47    1.94   4
  -5   6   6    2.64    1.85   4
   5   6  -6    3.37    2.11   4
  -5   6   5   10.46    2.26   4
   5   6  -5   15.22    2.65   4
  -5   6   4   15.41    2.47   4
   5   6  -4   18.01    2.65   4
  -5   6   3    0.12    1.55   4
   5   6  -3    2.03    1.85   4
  -5   6   2   45.41    3.62   4
   5   6  -2   47.68    3.77   4
  -5   6   1    1.33    1.77   4
   5   6  -1    1.03    1.76   4
  -5   6   0    2.60    1.95   4
   5   6   0    5.33    2.13   4
   5  -6   1   36.88    3.63   4
   5   6   1   37.67    3.70   4
   5  -6   2    0.71    1.87   4
   5   6   2   -0.06    1.68   4
   5  -6   3   -0.52    1.76   4
   5   6   3    1.53    1.90   4
   5  -6   4   17.47    2.94   4
   5   6   4   15.66    2.94   4
   5  -6   5   64.41    4.85   4
   5   6   5   67.06    5.19   4
   5  -6   6    1.52    2.28   4
   5   6   6    4.14    2.40   4
   5  -6   7    6.08    2.86   4
   5   6   7    3.36    2.43   4
  -5   7   6    1.15    2.15   4
   5   7  -6    2.23    2.32   4
  -5   7   5    6.88    2.33   4
   5   7  -5    6.36    2.48   4
  -5   7   4   -1.33    1.75   4
   5   7  -4   -0.10    1.94   4
  -5   7   3   10.19    2.52   4
   5   7  -3   13.30    2.77   4
  -5   7   2    0.12    1.87   4
   5   7  -2    0.13    1.92   4
  -5   7   1   19.76    3.01   4
   5   7  -1   17.98    2.93   4
  -5   7   0   -0.71    1.83   4
   5   7   0    1.01    2.11   4
   5  -7   1    0.80    2.11   4
   5   7   1    0.03    1.98   4
   5  -7   2    4.04    2.50   4
   5   7   2    4.36    2.47   4
   5  -7   3   21.12    3.34   4
   5   7   3   19.08    3.46   4
   5  -7   4   -0.54    2.20   4
   5   7   4   -0.60    2.04   4
   5  -7   5    3.32    2.46   4
   5   7   5    2.22    2.38   4
   6   0  -1    0.35    0.59   4
   6   0   0  796.27    7.82   4
   6   0   1   -1.00    0.84   4
   6   0   2   57.53    2.69   4
   6   0   3   -0.67    1.08   4
   6   0   4   11.43    1.81   4
   6   0   5   -0.57    1.39   4
   6   0   6   57.59    3.65   4
   6   0   7   -1.14    1.45   4
   6   0   8   57.30    4.08   4
   6   0   9    0.42    2.02   4
   6   0  10    3.72    2.26   4
   6   0  11    0.53    2.10   4
   6  -1  -2  335.77    4.04   4
   6   1  -2  344.89    4.34   4
   6  -1  -1   18.77    1.89   4
   6   1  -1   15.53    1.58   4
   6  -1   0 1323.33   11.45   4
   6   1   0 1557.06   13.70   4
   6  -1   1  518.75    6.86   4
   6   1   1  516.85    6.76   4
   6  -1   2  207.35    4.73   4
   6   1   2  207.49    4.58   4
   6  -1   3   -0.17    1.28   4
   6   1   3    0.78    1.12   4
   6  -1   4    0.16    1.40   4
   6   1   4    1.08    1.18   4
   6  -1   5   67.96    4.25   4
   6   1   5   70.43    3.66   4
   6  -1   6    0.44    1.93   4
   6   1   6    0.20    1.46   4
   6  -1   7    2.87    1.84   4
   6   1   7    1.50    1.57   4
   6  -1   8   34.33    3.75   4
   6   1   8   36.34    3.53   4
   6  -1   9    3.54    2.23   4
   6   1   9    5.46    2.10   4
   6  -1  10    9.44    2.60   4
   6   1  10   10.99    2.62   4
   6  -1  11   18.53    3.21   4
   6   1  11   11.40    2.75   4
  -6  -2   5  192.47    3.61   4
  -6   2   5  188.29    3.29   4
  -6   2   4  502.18    5.57   4
   6   2  -4  513.25    6.05   4
   6  -2  -3 1080.24    9.29   4
   6   2  -3 1111.72   10.13   4
   6  -2  -2   36.56    2.13   4
   6   2  -2   42.89    2.17   4
   6  -2  -1  357.38    5.27   4
   6   2  -1  368.01    5.68   4
   6  -2   0   17.00    2.07   4
   6   2   0   17.51    1.80   4
   6  -2   1   65.07    3.04   4
   6   2   1   64.69    2.92   4
   6  -2   2   22.66    2.71   4
   6   2   2   20.20    2.11   4
   6  -2   3  160.59    4.82   4
   6   2   3  184.74    5.25   4
   6  -2   4  290.06    6.67   4
   6   2   4  296.24    6.69   4
   6  -2   5  667.03   10.60   4
   6   2   5  650.78   10.54   4
   6  -2   6   81.70    4.88   4
   6   2   6   81.63    4.22   4
   6  -2   7    3.96    2.10   4
   6   2   7    5.14    1.89   4
   6  -2   8   -0.57    1.83   4
   6   2   8   -0.16    1.65   4
   6  -2   9   -1.05    2.33   4
   6   2   9    1.11    1.85   4
   6  -2  10    9.86    2.83   4
   6   2  10    7.61    2.51   4
   6  -2  11    1.33    2.69   4
   6   2  11    0.26    2.23   4
  -6  -3   6  135.47    3.99   4
  -6   3   5  443.46    6.52   4
  -6   3   4  758.78    8.74   4
   6   3  -4  796.25    9.46   4
  -6   3   3    7.97    1.46   4
   6   3  -3    9.97    1.45   4
   6  -3  -2    5.96    1.25   4
   6   3  -2    5.99    1.31   4
   6  -3  -1    0.32    1.08   4
   6   3  -1    1.44    1.12   4
   6  -3   0  493.62    7.42   4
   6   3   0  491.21    7.82   4
   6  -3   1   11.47    1.77   4
   6   3   1   11.33    1.74   4
   6  -3   2  281.10    6.28   4
   6   3   2  283.99    6.47   4
   6  -3   3  133.20    4.72   4
   6   3   3  121.73    4.74   4
   6  -3   4  150.47    5.36   4
   6   3   4  149.12    5.38   4
   6  -3   5  423.35    8.81   4
   6  -3   6   13.29    2.72   4
   6   3   6   13.13    2.39   4
   6  -3   7    1.85    2.00   4
   6   3   7    4.43    1.90   4
   6  -3   8    1.13    2.10   4
   6   3   8    3.07    1.83   4
   6  -3   9    4.02    2.51   4
   6   3   9    7.44    2.29   4
   6  -3  10   -1.44    2.39   4
   6   3  10    0.06    1.81   4
  -6  -4   6    4.71    1.64   4
  -6   4   5   33.19    2.77   4
  -6   4   4   91.78    3.68   4
   6   4  -4  102.21    3.99   4
  -6   4   3   94.39    3.69   4
   6   4  -3  102.72    3.98   4
  -6   4   2   61.91    3.18   4
   6   4  -2   64.86    3.31   4
   6  -4  -1   13.33    1.91   4
   6   4  -1   11.67    1.82   4
   6  -4   0   76.57    3.77   4
   6   4   0   72.19    3.82   4
   6  -4   1  418.21    7.89   4
   6   4   1  410.53    8.29   4
   6  -4   2  144.06    5.17   4
   6   4   2  151.18    5.41   4
   6  -4   3    0.10    1.56   4
   6   4   3    0.62    1.54   4
   6  -4   4  126.47    5.14   4
   6   4   4  127.97    5.43   4
   6  -4   5    1.80    2.11   4
   6   4   5   -0.28    1.71   4
   6  -4   6   16.43    2.81   4
   6   4   6   18.85    2.90   4
   6  -4   7    4.97    2.38   4
   6   4   7    5.23    2.21   4
   6  -4   8   14.62    3.08   4
   6   4   8   17.70    2.98   4
   6  -4   9   10.41    3.08   4
   6   4   9   11.55    2.85   4
  -6   5   6    0.75    1.54   4
  -6   5   5   10.60    2.03   4
  -6   5   4   11.82    2.06   4
   6   5  -4   16.21    2.34   4
  -6   5   3    0.98    1.41   4
   6   5  -3    1.56    1.55   4
  -6   5   2    1.40    1.47   4
   6   5  -2    1.23    1.61   4
   6  -5  -1   98.04    4.50   4
   6   5  -1   91.22    4.62   4
   6  -5   0    3.82    1.83   4
   6   5   0    4.26    1.92   4
   6  -5   1   13.13    2.28   4
   6   5   1   12.39    2.34   4
   6  -5   2    6.26    1.94   4
   6   5   2    5.73    2.10   4
   6  -5   3   35.99    3.55   4
   6   5   3   35.22    3.63   4
   6  -5   4   22.03    2.96   4
   6   5   4   23.59    3.09   4
   6  -5   5   13.55    2.76   4
   6   5   5   13.15    2.66   4
   6  -5   6   15.66    3.15   4
   6   5   6   18.72    2.98   4
   6  -5   7    2.06    2.54   4
   6   5   7    0.45    2.06   4
   6  -5   8    2.63    2.59   4
   6   5   8    3.03    2.48   4
  -6   6   5   11.32    2.32   4
  -6   6   4   22.18    2.73   4
   6   6  -4   28.01    3.39   4
  -6   6   3    4.79    1.86   4
   6   6  -3    2.52    1.89   4
  -6   6   2   13.24    2.37   4
   6   6  -2   15.72    2.55   4
  -6   6   1    1.39    1.73   4
   6   6  -1    0.94    1.92   4
   6  -6   0   32.28    3.54   4
   6   6   0   30.52    3.41   4
   6  -6   1   10.60    2.51   4
   6   6   1   12.86    2.71   4
   6  -6   2   -0.17    1.86   4
   6   6   2    0.08    1.88   4
   6  -6   3   22.87    3.17   4
   6   6   3   25.28    3.31   4
   6  -6   4   32.67    4.05   4
   6   6   4   33.16    4.10   4
   6  -6   5    1.27    2.29   4
   6   6   5    0.46    2.06   4
   6  -6   6   -0.83    2.40   4
   6   6   6    1.05    2.25   4
  -6   7   5    6.55    2.46   4
  -6   7   4   15.26    2.85   4
   6   7  -4   14.90    2.85   4
  -6   7   3   18.05    2.89   4
   6   7  -3   15.29    2.86   4
  -6   7   2    1.99    2.08   4
   6   7  -2    3.54    2.27   4
  -6   7   1    1.81    1.99   4
   6   7  -1    0.36    1.93   4
   6  -7   0    2.65    2.18   4
   6   7   0    3.42    2.36   4
   6  -7   1    3.71    2.38   4
   6   7   1    2.58    2.32   4
   6  -7   2    5.68    2.53   4
   6   7   2    4.89    2.57   4
   6  -7   3   10.77    2.84   4
   6   7   3   10.10    2.81   4
   6  -7   4   -0.35    2.36   4
   6   7   4   -2.45    2.05   4
   7   0  -1  401.79    5.00   4
   7   0   0   -0.36    0.82   4
   7   0   1  628.30    7.85   4
   7   0   2   -0.05    1.13   4
   7   0   3  155.75    4.57   4
   7   0   4    0.19    1.46   4
   7   0   5  109.63    4.53   4
   7   0   6   -1.56    1.66   4
   7   0   7    1.16    1.83   4
   7   0   8    0.16    1.80   4
   7   0   9   45.43    3.92   4
   7   0  10    0.89    2.04   4
   7   0  11   -0.95    2.19   4
   7  -1  -2   36.52    1.93   4
   7   1  -2   37.02    1.90   4
   7  -1  -1  100.60    3.02   4
   7   1  -1   96.72    2.79   4
   7  -1   0    1.35    1.06   4
   7   1   0    0.74    0.98   4
   7  -1   1  117.97    3.76   4
   7   1   1  113.55    3.47   4
   7  -1   2    0.43    1.28   4
   7   1   2   -0.17    1.22   4
   7  -1   3   -0.38    1.42   4
   7   1   3   -1.00    1.07   4
   7  -1   4   14.00    2.35   4
   7   1   4   12.72    1.98   4
   7  -1   5  118.17    4.93   4
   7   1   5  130.25    4.93   4
   7  -1   6   85.68    4.63   4
   7   1   6   97.76    4.63   4
   7  -1   7   10.79    2.38   4
   7   1   7   11.25    2.31   4
   7  -1   8    2.50    2.09   4
   7   1   8    2.00    1.89   4
   7  -1   9   10.88    2.61   4
   7   1   9   11.12    2.63   4
   7  -1  10   10.23    2.77   4
   7   1  10   15.98    3.10   4
   7  -2  -2   32.46    2.18   4
   7   2  -2   30.14    2.09   4
   7  -2  -1   19.09    2.17   4
   7   2  -1   19.30    2.03   4
   7  -2   0  104.75    3.53   4
   7   2   0  105.78    3.45   4
   7  -2   1   13.58    1.78   4
   7   2   1    5.51    1.30   4
   7  -2   2  203.01    5.21   4
   7   2   2  202.05    5.17   4
   7  -2   3   28.42    3.45   4
   7   2   3   28.34    2.69   4
   7  -2   4  471.75    8.66   4
   7   2   4  474.19    8.91   4
   7  -2   5   18.84    2.72   4
   7   2   5   19.23    2.62   4
   7  -2   6  119.98    5.61   4
   7   2   6  117.75    5.06   4
   7  -2   7    0.97    1.98   4
   7   2   7   -0.63    1.57   4
   7  -2   8    7.94    2.46   4
   7   2   8    6.99    2.16   4
   7  -2   9    0.08    2.14   4
   7   2   9   -0.67    1.80   4
   7  -2  10    5.89    2.74   4
   7   2  10    4.03    2.39   4
   7  -3  -2  215.88    4.73   4
   7   3  -2  212.31    5.08   4
   7  -3  -1   16.17    1.79   4
   7   3  -1   16.47    1.84   4
   7  -3   0   81.80    3.53   4
   7   3   0   78.69    3.51   4
   7  -3   1   36.44    3.02   4
   7   3   1   41.19    3.00   4
   7  -3   2    3.65    1.76   4
   7   3   2    3.63    1.56   4
   7  -3   3  132.31    4.91   4
   7   3   3  130.73    4.96   4
   7  -3   4    2.12    1.78   4
   7   3   4   -0.52    1.51   4
   7  -3   5   99.06    4.94   4
   7   3   5  106.75    5.13   4
   7  -3   6   26.06    3.10   4
   7   3   6   28.76    3.26   4
   7  -3   7   23.74    3.26   4
   7   3   7   26.66    3.27   4
   7  -3   8   -0.84    2.14   4
   7   3   8    0.96    1.78   4
   7  -3   9   27.50    3.87   4
   7   3   9   27.57    3.55   4
  -7   4   4    2.10    1.37   4
   7   4  -3    0.71    1.30   4
   7  -4  -2    2.91    1.42   4
   7   4  -2    2.33    1.40   4
   7  -4  -1   -0.03    1.34   4
   7   4  -1   -1.05    1.30   4
   7  -4   0  105.73    4.43   4
   7   4   0  108.12    4.62   4
   7  -4   1   55.81    3.76   4
   7   4   1   56.42    3.75   4
   7  -4   2   33.78    3.25   4
   7   4   2   36.52    3.39   4
   7  -4   3    2.52    1.86   4
   7   4   3    2.94    1.86   4
   7  -4   4   -0.38    1.60   4
   7   4   4   -0.19    1.67   4
   7  -4   5   21.95    3.20   4
   7   4   5   19.62    2.93   4
   7  -4   6    8.09    2.49   4
   7   4   6    7.45    2.03   4
   7  -4   7   -0.16    2.09   4
   7   4   7    2.16    1.98   4
   7  -4   8   21.45    3.54   4
   7   4   8   13.75    2.88   4
   7  -4   9    1.96    2.78   4
   7   4   9    6.09    2.60   4
  -7   5   4    8.82    2.00   4
  -7   5   3   23.42    2.65   4
   7   5  -3   24.00    2.84   4
   7  -5  -2   17.51    2.32   4
   7   5  -2   15.50    2.41   4
   7  -5  -1   26.42    3.15   4
   7   5  -1   23.87    2.74   4
   7  -5   0   50.33    3.76   4
   7   5   0   52.79    4.00   4
   7  -5   1   39.17    3.67   4
   7   5   1   35.82    3.65   4
   7  -5   2   89.77    4.84   4
   7   5   2   89.92    4.96   4
   7  -5   3   12.04    2.55   4
   7   5   3   15.96    2.69   4
   7  -5   4   11.68    2.70   4
   7   5   4   10.72    2.61   4
   7  -5   5    6.91    2.73   4
   7   5   5    9.99    2.54   4
   7  -5   6    1.44    2.28   4
   7   5   6    1.00    2.09   4
   7  -5   7   -3.17    2.07   4
   7   5   7   -0.67    1.96   4
  -7   6   4   50.26    3.77   4
  -7   6   3    7.67    2.15   4
   7   6  -3    9.24    2.29   4
   7  -6  -2    6.79    2.18   4
   7   6  -2    6.50    2.20   4
   7  -6  -1   12.30    2.47   4
   7   6  -1   11.26    2.67   4
   7  -6   0   11.09    2.52   4
   7   6   0   12.65    2.68   4
   7  -6   1   22.49    3.14   4
   7   6   1   21.17    3.04   4
   7  -6   2    6.72    2.49   4
   7   6   2    6.02    2.35   4
   7  -6   3   16.20    2.99   4
   7   6   3   12.63    2.81   4
   7  -6   4   19.21    3.26   4
   7   6   4   18.69    3.24   4
   7  -6   5   -1.21    2.25   4
   7   6   5   -1.58    1.94   4
  -7   7   3    2.58    2.18   4
   7  -7  -2    4.43    2.36   4
   7   7  -2    1.03    2.06   4
   7  -7  -1    8.81    2.62   4
   7   7  -1    7.38    2.55   4
   7  -7   0    0.73    2.23   4
   7   7   0    0.42    2.22   4
   7  -7   1    0.73    2.04   4
   7   7   1   -0.48    2.23   4
   7  -7   2   -0.24    2.38   4
   7   7   2    0.81    2.24   4
   8   0   0  113.97    3.39   4
   8   0   1   -0.69    0.98   4
   8   0   2  414.35    7.19   4
   8   0   3   -0.85    1.34   4
   8   0   4  182.81    5.57   4
   8   0   5   -1.01    1.74   4
   8   0   6   86.03    4.76   4
   8   0   7   -0.02    1.72   4
   8   0   8   24.10    2.98   4
   8   0   9   -0.23    1.96   4
   8   0  10    1.59    2.25   4
   8   1  -1   69.78    2.66   4
   8  -1   0  280.74    5.10   4
   8   1   0  285.70    5.20   4
   8  -1   1    5.58    1.49   4
   8   1   1    5.21    1.32   4
   8  -1   2   11.14    1.91   4
   8   1   2    9.44    1.88   4
   8  -1   3   31.18    3.02   4
   8   1   3   28.62    2.85   4
   8  -1   4    4.03    1.89   4
   8   1   4    3.02    1.77   4
   8  -1   5  179.24    6.04   4
   8   1   5  179.14    5.92   4
   8  -1   6   72.50    4.49   4
   8   1   6   78.91    4.61   4
   8  -1   7   23.54    3.07   4
   8   1   7   25.79    3.07   4
   8  -1   8    3.39    2.18   4
   8   1   8    6.30    2.19   4
   8  -1   9    6.20    2.47   4
   8   1   9    7.92    2.48   4
   8  -1  10   -0.38    2.23   4
   8   1  10    0.36    2.22   4
   8  -2  -1   -0.34    1.12   4
   8   2  -1   -0.35    0.93   4
   8  -2   0  111.63    3.86   4
   8   2   0  109.21    3.72   4
   8  -2   1  163.67    4.76   4
   8   2   1  164.65    4.65   4
   8  -2   2   10.03    1.93   4
   8   2   2    7.80    1.63   4
   8  -2   3    0.09    1.65   4
   8   2   3    0.67    1.31   4
   8  -2   4  103.47    4.84   4
   8   2   4  103.30    4.52   4
   8  -2   5    5.93    2.29   4
   8   2   5    3.23    1.95   4
   8  -2   6   64.43    4.69   4
   8   2   6   63.73    4.30   4
   8  -2   7   -1.02    2.33   4
   8   2   7    1.93    1.93   4
   8  -2   8    0.23    2.05   4
   8   2   8    1.28    2.04   4
   8  -2   9    5.57    2.65   4
   8   2   9    6.02    2.45   4
   8  -3  -1   62.62    3.20   4
   8   3  -1   63.24    3.33   4
   8  -3   0   11.72    1.95   4
   8   3   0   13.53    1.90   4
   8  -3   1   24.84    2.54   4
   8   3   1   26.10    2.78   4
   8  -3   2   23.87    2.63   4
   8   3   2   22.74    2.72   4
   8  -3   3    8.36    2.14   4
   8   3   3    7.26    1.91   4
   8  -3   4    2.47    1.88   4
   8   3   4    1.62    1.70   4
   8  -3   5   33.00    3.91   4
   8   3   5   31.13    3.59   4
   8  -3   6   58.01    4.77   4
   8   3   6   54.09    4.08   4
   8  -3   7    5.00    2.42   4
   8   3   7    8.33    2.36   4
   8  -3   8    8.75    2.95   4
   8   3   8   10.25    2.58   4
   8  -3   9    5.50    2.81   4
   8   3   9    9.02    2.63   4
   8  -4  -1   13.62    2.06   4
   8   4  -1   15.11    2.13   4
   8  -4   0   73.71    4.10   4
   8   4   0   65.84    3.94   4
   8  -4   1  143.64    5.26   4
   8   4   1  147.46    5.47   4
   8  -4   2   -0.58    1.70   4
   8   4   2    0.71    1.64   4
   8  -4   3    0.66    1.83   4
   8   4   3    1.14    1.74   4
   8  -4   4   -1.05    2.06   4
   8   4   4   -1.29    1.74   4
   8  -4   5    0.49    2.05   4
   8   4   5    0.25    1.88   4
   8  -4   6   -0.80    2.18   4
   8   4   6    0.69    1.92   4
   8  -4   7    3.13    2.54   4
   8   4   7    1.95    2.13   4
   8  -4   8    4.90    2.87   4
   8   4   8    2.09    2.26   4
   8  -5  -1    0.14    1.62   4
   8   5  -1   -0.46    1.66   4
   8  -5   0   61.57    4.17   4
   8   5   0   53.51    4.03   4
   8  -5   1   11.42    2.42   4
   8   5   1   11.30    2.43   4
   8  -5   2   48.06    4.23   4
   8   5   2   47.63    4.22   4
   8  -5   3    6.00    2.39   4
   8   5   3    4.51    2.24   4
   8  -5   4    9.24    2.78   4
   8   5   4   12.83    2.81   4
   8  -5   5   15.08    3.17   4
   8   5   5   11.84    2.86   4
   8  -5   6   -0.30    2.16   4
   8   5   6    0.94    2.19   4
   8   6  -1   -2.26    1.86   4
   8  -6   0   -0.08    1.87   4
   8   6   0    0.12    1.96   4
   8  -6   1   11.72    2.67   4
   8   6   1   10.24    2.64   4
   8  -6   2   16.35    3.07   4
   8   6   2   16.80    3.09   4
   8  -6   3    4.36    2.63   4
   8   6   3    4.37    2.46   4
   8  -6   4   14.48    3.42   4
   8   6   4   15.21    3.03   4
   9   0   1    0.59    1.22   4
   9   0   2    0.69    1.26   4
   9   0   3   10.79    1.93   4
   9   0   4   -0.60    1.45   4
   9   0   5   13.26    2.55   4
   9   0   6    0.71    2.02   4
   9   0   7   24.49    3.04   4
   9   0   8   -0.66    1.90   4
   9   0   9    3.39    2.32   4
   9  -1   1   37.89    2.86   4
   9   1   1   37.48    2.46   4
   9  -1   2    6.58    1.78   4
   9   1   2    7.38    1.64   4
   9  -1   3    4.15    1.76   4
   9   1   3    2.40    1.53   4
   9  -1   4    3.21    1.78   4
   9   1   4    1.78    1.97   4
   9  -1   5  276.87    7.43   4
   9   1   5  281.76    7.68   4
   9  -1   6    8.88    2.46   4
   9   1   6    5.52    2.23   4
   9  -1   7    4.83    2.23   4
   9   1   7    6.69    2.29   4
   9  -1   8    3.37    2.24   4
   9   1   8    1.61    2.04   4
   9  -1   9    3.26    2.45   4
   9   1   9    7.32    2.85   4
   9  -2   1   65.79    3.64   4
   9   2   1   64.36    3.42   4
   9  -2   2    0.34    1.55   4
   9   2   2    1.34    1.35   4
   9  -2   3    1.47    1.78   4
   9   2   3    1.12    1.50   4
   9  -2   4   34.81    3.58   4
   9   2   4   32.00    3.22   4
   9  -2   5    4.28    2.04   4
   9   2   5    1.81    1.89   4
   9  -2   6    6.02    2.44   4
   9   2   6    7.02    2.21   4
   9  -2   7    0.11    2.26   4
   9   2   7    1.50    2.06   4
   9  -2   8   12.53    2.92   4
   9   2   8   12.04    2.90   4
   9  -3   1  165.77    5.51   4
   9   3   1  163.86    5.40   4
   9  -3   2    1.74    1.75   4
   9   3   2    3.29    1.61   4
   9  -3   3   28.76    3.52   4
   9   3   3   30.04    3.23   4
   9  -3   4   -1.54    1.85   4
   9   3   4    0.82    1.64   4
   9  -3   5    7.06    2.47   4
   9   3   5    6.72    2.38   4
   9  -3   6   10.02    2.94   4
   9   3   6   11.57    2.58   4
   9  -3   7    0.84    2.28   4
   9   3   7    0.94    1.95   4
   9  -3   8    1.97    2.52   4
   9   3   8   -0.24    2.05   4
   9  -4   1    3.61    1.91   4
   9   4   1    6.80    2.05   4
   9  -4   2    5.84    2.22   4
   9   4   2    4.80    1.98   4
   9  -4   3    0.17    1.90   4
   9   4   3    0.67    1.74   4
   9  -4   4    9.44    2.65   4
   9   4   4    9.71    2.39   4
   9  -4   5   -1.59    1.94   4
   9   4   5    0.84    1.92   4
   9  -4   6    1.74    2.62   4
   9   4   6    2.00    2.06   4
   9  -4   7   -1.57    2.29   4
   9   4   7   -1.17    1.86   4
   9  -5   1   -0.73    1.89   4
   9   5   1    1.29    1.86   4
   9  -5   2    0.84    2.24   4
   9   5   2    3.15    2.17   4
   9  -5   3    3.37    2.45   4
   9   5   3    3.47    2.18   4
   9  -5   4   12.72    2.93   4
   9   5   4   12.54    2.86   4
   9  -5   5    7.31    2.96   4
   9   5   5    7.75    2.69   4
   9   6   1   23.20    3.37   4
   9  -6   2    1.78    2.42   4
   9   6   2    3.74    2.38   4
  10   0   2   28.37    2.71   4
  10   0   3    0.76    1.56   4
  10   0   4  138.73    5.38   4
  10   0   5    0.92    1.94   4
  10   0   6  148.50    6.10   4
  10   0   7    0.96    1.99   4
  10   0   8    1.18    2.09   4
  10  -1   2    3.07    1.58   4
  10   1   2    2.18    1.41   4
  10  -1   3   20.48    2.46   4
  10   1   3   20.70    2.45   4
  10  -1   4   11.81    2.30   4
  10   1   4    8.75    2.25   4
  10  -1   5    1.91    2.04   4
  10   1   5    4.48    2.15   4
  10  -1   6   -0.29    1.96   4
  10   1   6    0.32    1.94   4
  10  -1   7   -0.44    2.05   4
  10   1   7    0.52    1.88   4
  10  -1   8   -0.01    2.24   4
  10   1   8   -0.13    2.09   4
  10   2   2   28.70    3.08   4
  10  -2   3   -0.68    1.74   4
  10   2   3   -0.44    1.40   4
  10  -2   4    4.62    2.14   4
  10   2   4    1.90    1.73   4
  10  -2   5   -0.17    1.92   4
  10   2   5   -0.34    1.73   4
  10  -2   6    3.07    2.26   4
  10   2   6    8.02    2.83   4
  10  -2   7   27.56    3.54   4
  10   2   7   31.43    3.80   4
  10   3   2   35.73    3.37   4
  10  -3   3   -0.14    1.88   4
  10   3   3    0.57    1.69   4
  10  -3   4    3.88    2.28   4
  10   3   4    3.28    1.88   4
  10  -3   5   12.15    2.98   4
  10   3   5   12.72    2.62   4
  10  -3   6    1.05    2.51   4
  10   3   6    2.64    2.17   4
  10   4   2    2.18    1.97   4
  10  -4   3   14.30    2.78   4
  10   4   3   18.16    2.80   4
  10  -4   4   -0.49    2.13   4
  10   4   4    0.75    2.06   4
  10  -4   5   12.04    3.10   4
  10   4   5   10.55    2.77   4
  10  -5   3    2.49    2.39   4
  10   5   3    1.68    2.16   4
  11   0   4   -0.76    1.73   4
  11   0   5    5.84    2.32   4
  11   0   6   -0.45    1.99   4
  11  -1   4    1.56    1.92   4
  11   1   4    1.43    1.75   4
  11  -1   5   48.32    4.23   4
  11   1   5   51.82    4.19   4
  11  -1   6    8.14    2.71   4
  11   1   6    7.42    2.62   4
  11  -2   4    1.34    1.98   4
  11   2   4   -0.22    1.64   4
  11  -2   5    0.94    2.20   4
  11   2   5   -0.50    1.75   4
  11  -2   6   40.58    4.38   4
  11   2   6   39.09    4.05   4
  11   3   4   14.93    2.74   4
  11  -3   5    0.71    2.54   4
  11   3   5   -0.19    1.94   4
   1   0   0   15.48    0.65   5
   1  -2  -3 1009.10    7.98   5
   2   0   018246.21  110.83   5
   2  -1  -2   18.52    1.37   5
   2   1   3  352.03    3.85   5
   2  -2  -3  403.06    4.60   5
   2  -3  -4   75.41    2.17   5
   3   0   0    0.43    0.62   5
   3   0   1 3522.93   22.87   5
   3  -1  -2 3189.58   20.95   5
   3  -1  -1 3705.98   23.98   5
   3   1   3  742.33    6.82   5
   3   1   4  151.73    2.94   5
   3  -2  -3  191.62    3.44   5
   3  -3  -4   -0.14    0.68   5
   4   0   0  146.77    3.28   5
   4   0   1   -0.27    0.66   5
   4  -1  -1  282.73    4.54   5
   4   1   3    3.12    0.84   5
   4   1   4  740.80    7.55   5
   4   1   5  144.44    3.40   5
   4  -2  -3    2.09    0.85   5
   4  -2  -2   49.85    2.36   5
   4  -3  -4  409.91    6.03   5
   4  -4  -4  102.66    3.74   5
   5   0   1 1589.26   13.55   5
   5   0   2   -0.59    0.76   5
   5  -1  -1  619.07    7.73   5
   5  -1   0 1155.60   11.23   5
   5   1   4  200.34    4.32   5
   5   1   5    6.39    1.24   5
   5   1   6   87.49    3.43   5
   5   1   7    7.02    1.36   5
   5  -2  -3  204.87    4.51   5
   5  -2  -2   11.33    1.38   5
   5  -3  -4  667.30    8.46   5
   5  -3  -3   15.69    1.66   5
   5  -4  -4   20.11    2.07   5
   6   0   1   -0.21    0.96   5
   6   0   2   54.52    2.88   5
   6   0   3    0.05    0.96   5
   6   0   4   11.60    1.61   5
   6  -1  -1   14.31    1.60   5
   6  -1   0 1312.26   13.15   5
   6  -1   1  525.28    7.75   5
   6   1   5   74.56    3.46   5
   6   1   6    1.54    1.19   5
   6   1   7    2.82    1.35   5
   6  -2  -2   40.94    2.58   5
   6  -2  -1  366.70    6.54   5
   6  -3  -3    9.61    1.65   5
   6  -3  -2    4.28    1.54   5
   6  -4  -4   99.10    3.96   5
   6  -4  -3   96.98    4.20   5
   6  -5  -4   14.06    2.02   5
   7   0   2    0.19    1.13   5
   7   0   3  158.85    4.68   5
   7   0   4   -0.02    1.30   5
   7   0   5  111.12    4.39   5
   7   0   6   -2.68    1.30   5
   7   0   7   -0.47    1.57   5
   7  -1   0    4.09    1.38   5
   7  -1   1  116.83    4.18   5
   7  -1   2   -2.14    1.15   5
   7   1   7   11.49    1.86   5
   7  -2  -2   31.61    2.72   5
   7  -2  -1   19.39    2.05   5
   7  -2   0  107.43    4.16   5
   7  -3  -3   40.53    3.07   5
   7  -3  -2  212.80    5.70   5
   7  -4  -4    2.88    1.74   5
   7  -4  -3    1.43    1.52   5
   7  -5  -4    7.46    1.91   5
   7  -5  -3   23.74    2.70   5
   8   0   3    1.41    1.49   5
   8   0   4  194.28    5.90   5
   8   0   5   -0.15    1.47   5
   8   0   6   93.44    4.87   5
   8   0   7    1.70    1.75   5
   8   0   8   27.85    2.85   5
   8  -1   0  290.40    6.64   5
   8  -1   1    5.22    1.64   5
   8  -1   2    8.05    1.81   5
   8  -1   3   34.60    3.38   5
   8  -1   4    2.87    1.72   5
   8  -2  -1    4.69    1.68   5
   8  -2   0  112.32    4.44   5
   8  -2   1  169.29    5.48   5
   8  -3  -3   63.47    3.64   5
   8  -3  -2   14.83    2.14   5
   8  -3  -1   61.00    3.73   5
   8  -4  -4    0.20    1.66   5
   8  -4  -3    4.15    1.76   5
   8  -4  -2    1.45    1.60   5
   8  -5  -4    0.90    1.64   5
   8  -5  -3    0.54    1.66   5
   8  -5  -2   -2.08    1.67   5
   8  -6  -3    1.23    1.85   5
   9   0   4   -3.00    1.60   5
   9   0   5   14.43    2.52   5
   9   0   6    0.33    1.79   5
   9   0   7   26.33    3.06   5
   9  -1   1   43.62    3.68   5
   9  -1   2    6.54    1.88   5
   9  -1   3    2.55    1.65   5
   9  -1   4    1.72    1.95   5
   9  -1   5  290.78    7.76   5
   9  -1   6    4.49    1.98   5
   9  -1   7    4.74    2.37   5
   9  -1   8   -0.53    2.06   5
   9  -2  -1   11.00    2.07   5
   9  -2   0   23.76    2.64   5
   9  -2   1   73.87    4.36   5
   9  -2   2    0.31    1.41   5
   9  -2   3    2.49    1.86   5
   9  -3  -2   28.78    3.27   5
   9  -3  -1    0.29    1.52   5
   9  -3   0   -0.76    1.52   5
   9  -3   1  168.24    6.07   5
   9  -4  -3   62.60    4.26   5
   9  -4  -1    6.25    1.83   5
   9  -5  -4   13.31    2.52   5
   9  -5  -3    8.51    2.29   5
   9  -5  -2    2.60    2.11   5
   9  -5  -1   -0.17    2.07   5
   9  -6  -3   -0.92    2.02   5
   9  -6  -2    7.05    2.45   5
  10  -1   2    2.42    1.79   5
  10  -1   3   20.62    2.72   5
  10  -1   4   10.18    2.56   5
  10  -1   5    3.18    2.24   5
  10  -1   6    1.17    2.09   5
  10  -1   7   -1.55    2.13   5
  10  -1   8   -0.46    2.31   5
  10  -2   1   34.62    3.74   5
  10  -2   2   33.19    3.54   5
  10  -2   3    0.78    1.91   5
  10  -2   4    4.83    2.07   5
  10  -2   5   -1.15    1.94   5
  10  -2   6    1.60    2.42   5
  10  -2   7   29.16    3.82   5
  10  -3  -1    1.82    1.83   5
  10  -3   0   24.76    3.02   5
  10  -3   1   -0.36    1.85   5
  10  -3   2   34.52    3.71   5
  10  -3   3    1.10    2.12   5
  10  -4  -2    0.45    2.05   5
  10  -4  -1    8.45    2.41   5
  10  -4   0    1.60    1.92   5
  10  -4   1    6.04    2.37   5
  10  -5  -3    5.97    2.55   5
  10  -5  -2    1.05    2.08   5
  10  -5  -1    2.58    2.30   5
  10  -5   0    1.16    2.23   5
  11  -1   4    2.67    2.15   5
  11  -1   5   54.31    5.10   5
  11  -1   6    8.04    2.81   5
  11  -2   1    2.20    1.85   5
  11  -2   2   -0.10    2.08   5
  11  -2   3    0.54    2.07   5
  11  -2   4   -3.64    1.92   5
  11  -2   5    1.70    2.40   5
  11  -2   6   44.09    5.26   5
  11  -3   0    6.26    2.32   5
  11  -3   1   56.40    4.58   5
  11  -3   2   16.04    2.92   5
  11  -3   3    1.66    2.22   5
  11  -3   4   17.05    2.72   5
  11  -3   5   -0.73    2.33   5
  11  -4  -2    0.08    2.32   5
  11  -4  -1   -0.58    1.91   5
  11  -4   0    2.42    2.13   5
  11  -4   1    0.59    2.23   5
  11  -4   2    2.78    2.13   5
  11  -4   3    0.40    2.34   5
  11  -5  -2    5.73    2.70   5
  11  -5  -1    0.63    2.41   5
  11  -5   0   22.50    3.57   5
  12  -2   3   -0.27    2.13   5
  12  -2   4    2.16    2.42   5
  12  -3   1   19.54    3.19   5
  12  -3   2    0.09    2.16   5
  12  -3   3    2.08    2.39   5
  12  -4  -1    1.57    2.36   5
  12  -4   0    2.54    2.54   5
   0   0   0    0.00    0.00   0
;
_shelx_hkl_checksum              76152
_olex2_submission_special_instructions 'No special instructions were received'
#END Tags that were not found in dictionaries
loop_
_space_group_symop_operation_xyz
'x, y, z'
'-x+1/2, y+1/2, -z+1/2'
'-x, -y, -z'
'x-1/2, -y-1/2, z-1/2'
loop_
_atom_site_label
_atom_site_type_symbol
_atom_site_fract_x
_atom_site_fract_y
_atom_site_fract_z
_atom_site_U_iso_or_equiv
_atom_site_adp_type
_atom_site_occupancy
_atom_site_site_symmetry_order
_atom_site_calc_flag
_atom_site_refinement_flags_posn
_atom_site_refinement_flags_occupancy
_atom_site_disorder_assembly
_atom_site_disorder_group
C1 C 0.5059(3) 0.3065(4) 0.6391(3) 0.0521(7) Uani 0.700(6) 1 d . P A 1
C2 C 0.4506(4) 0.3637(7) 0.7456(4) 0.0597(11) Uani 0.700(6) 1 d . P A 1
C3 C 0.4838(9) 0.2640(15) 0.8576(7) 0.072(2) Uani 0.700(6) 1 d . P A 1
H3 H 0.4471 0.3024 0.9283 0.087 Uiso 0.700(6) 1 calc R P A 1
C4 C 0.5700(8) 0.1099(14) 0.8655(7) 0.096(2) Uani 0.700(6) 1 d . P A 1
H4 H 0.5891 0.0394 0.9409 0.115 Uiso 0.700(6) 1 calc R P A 1
C5 C 0.6293(9) 0.0569(15) 0.7635(8) 0.075(2) Uani 0.700(6) 1 d . P A 1
H5 H 0.6884 -0.0488 0.7704 0.090 Uiso 0.700(6) 1 calc R P A 1
C6 C 0.6020(8) 0.1586(12) 0.6520(7) 0.0560(17) Uani 0.700(6) 1 d . P A 1
C7 C 0.4634(2) 0.4025(3) 0.5124(2) 0.0534(8) Uani 0.700(6) 1 d . P A 1
H7A H 0.3735 0.4348 0.5069 0.064 Uiso 0.700(6) 1 calc R P A 1
H7B H 0.4739 0.3037 0.4470 0.064 Uiso 0.700(6) 1 calc R P A 1
C8 C 0.3469(4) 0.5240(8) 0.7407(5) 0.0918(15) Uani 0.700(6) 1 d . P A 1
H8A H 0.3321 0.5809 0.6576 0.138 Uiso 0.700(6) 1 calc R P A 1
H8B H 0.3730 0.6304 0.8001 0.138 Uiso 0.700(6) 1 calc R P A 1
H8C H 0.2701 0.4623 0.7614 0.138 Uiso 0.700(6) 1 calc R P A 1
C9 C 0.6698(5) 0.1008(7) 0.5424(5) 0.0677(12) Uani 0.700(6) 1 d . P A 1
H9A H 0.6371 0.1807 0.4703 0.102 Uiso 0.700(6) 1 calc R P A 1
H9B H 0.6563 -0.0415 0.5238 0.102 Uiso 0.700(6) 1 calc R P A 1
H9C H 0.7592 0.1264 0.5629 0.102 Uiso 0.700(6) 1 calc R P A 1
C1' C 0.5516(7) 0.3612(11) 0.6592(5) 0.0496(15) Uani 0.300(6) 1 d . P A 2
C2' C 0.4846(9) 0.4003(17) 0.7619(10) 0.058(2) Uani 0.300(6) 1 d . P A 2
C3' C 0.510(2) 0.279(3) 0.8665(17) 0.067(3) Uani 0.300(6) 1 d . P A 2
H3' H 0.4673 0.3035 0.9358 0.080 Uiso 0.300(6) 1 calc R P A 2
C4' C 0.5953(14) 0.126(3) 0.8704(14) 0.067(3) Uani 0.300(6) 1 d . P A 2
H4' H 0.6160 0.0528 0.9444 0.080 Uiso 0.300(6) 1 calc R P A 2
C5' C 0.652(2) 0.078(3) 0.7655(16) 0.062(3) Uani 0.300(6) 1 d . P A 2
H5' H 0.7105 -0.0284 0.7701 0.074 Uiso 0.300(6) 1 calc R P A 2
C6' C 0.6253(18) 0.183(3) 0.6548(16) 0.050(3) Uani 0.300(6) 1 d . P A 2
C7' C 0.5511(4) 0.5187(8) 0.5554(5) 0.0505(16) Uani 0.300(6) 1 d . P A 2
H71' H 0.6336 0.5186 0.5253 0.061 Uiso 0.300(6) 1 calc R P A 2
H72' H 0.5382 0.6530 0.5899 0.061 Uiso 0.300(6) 1 calc R P A 2
C8' C 0.4012(11) 0.5919(17) 0.7622(11) 0.088(3) Uani 0.300(6) 1 d . P A 2
H81' H 0.3915 0.6531 0.6802 0.133 Uiso 0.300(6) 1 calc R P A 2
H82' H 0.4408 0.6878 0.8228 0.133 Uiso 0.300(6) 1 calc R P A 2
H83' H 0.3191 0.5547 0.7840 0.133 Uiso 0.300(6) 1 calc R P A 2
C9' C 0.7036(10) 0.128(3) 0.5500(12) 0.080(4) Uani 0.300(6) 1 d . P A 2
H91' H 0.6785 0.2135 0.4783 0.120 Uiso 0.300(6) 1 calc R P A 2
H92' H 0.6895 -0.0125 0.5269 0.120 Uiso 0.300(6) 1 calc R P A 2
H93' H 0.7922 0.1490 0.5786 0.120 Uiso 0.300(6) 1 calc R P A 2
loop_
_atom_site_aniso_label
_atom_site_aniso_U_11
_atom_site_aniso_U_22
_atom_site_aniso_U_33
_atom_site_aniso_U_23
_atom_site_aniso_U_13
_atom_site_aniso_U_12
C1 0.0419(14) 0.0530(14) 0.0607(15) 0.0121(10) 0.0039(10) -0.0076(10)
C2 0.053(2) 0.065(2) 0.0626(19) 0.0150(14) 0.0124(15) -0.0066(15)
C3 0.057(4) 0.097(3) 0.065(3) 0.023(2) 0.016(2) -0.007(3)
C4 0.087(4) 0.121(4) 0.083(3) 0.055(3) 0.024(3) 0.017(3)
C5 0.060(4) 0.075(3) 0.091(3) 0.036(2) 0.009(2) 0.004(3)
C6 0.049(3) 0.053(2) 0.0661(19) 0.0105(14) 0.0066(17) -0.008(2)
C7 0.0481(11) 0.0543(13) 0.0573(15) 0.0109(11) 0.0053(9) -0.0043(9)
C8 0.089(3) 0.098(3) 0.098(3) 0.031(2) 0.047(2) 0.025(2)
C9 0.061(3) 0.0580(16) 0.086(2) 0.0147(16) 0.015(2) 0.0121(17)
C1' 0.042(3) 0.061(3) 0.046(2) 0.012(2) 0.005(2) -0.005(2)
C2' 0.051(4) 0.068(4) 0.056(3) 0.001(3) 0.007(3) -0.009(3)
C3' 0.057(7) 0.085(5) 0.056(4) 0.012(3) 0.002(3) -0.022(4)
C4' 0.048(4) 0.083(5) 0.065(5) 0.023(3) -0.012(3) -0.014(3)
C5' 0.042(5) 0.063(4) 0.079(4) 0.020(3) 0.000(3) -0.011(3)
C6' 0.038(5) 0.051(4) 0.062(4) 0.010(3) 0.004(3) -0.006(4)
C7' 0.052(3) 0.049(3) 0.052(3) 0.005(2) 0.011(2) -0.006(2)
C8' 0.099(7) 0.098(6) 0.077(5) 0.002(4) 0.045(5) 0.021(5)
C9' 0.040(5) 0.131(9) 0.067(4) -0.025(4) 0.005(3) 0.007(4)
loop_
_atom_type_symbol
_atom_type_description
_atom_type_scat_dispersion_real
_atom_type_scat_dispersion_imag
_atom_type_scat_source
C C 0.0033 0.0016 'International Tables Vol C Tables 4.2.6.8 and 6.1.1.4'
H H 0.0000 0.0000 'International Tables Vol C Tables 4.2.6.8 and 6.1.1.4'
loop_
_geom_angle_atom_site_label_1
_geom_angle_atom_site_label_2
_geom_angle_atom_site_label_3
_geom_angle
_geom_angle_site_symmetry_1
_geom_angle_site_symmetry_3
C2 C1 C6 118.6(4) . .
C2 C1 C7 120.9(3) . .
C6 C1 C7 120.5(4) . .
C1 C2 C8 122.3(4) . .
C3 C2 C1 119.9(5) . .
C3 C2 C8 117.6(5) . .
C2 C3 H3 119.8 . .
C4 C3 C2 120.3(6) . .
C4 C3 H3 119.8 . .
C3 C4 H4 119.7 . .
C3 C4 C5 120.7(6) . .
C5 C4 H4 119.7 . .
C4 C5 H5 119.8 . .
C6 C5 C4 120.4(6) . .
C6 C5 H5 119.8 . .
C1 C6 C9 120.7(5) . .
C5 C6 C1 119.6(5) . .
C5 C6 C9 119.5(5) . .
C1 C7 C7 113.7(3) . 3_666
C1 C7 H7A 108.8 . .
C1 C7 H7B 108.8 . .
C7 C7 H7A 108.8 3_666 .
C7 C7 H7B 108.8 3_666 .
H7A C7 H7B 107.7 . .
C2 C8 H8A 109.5 . .
C2 C8 H8B 109.5 . .
C2 C8 H8C 109.5 . .
H8A C8 H8B 109.5 . .
H8A C8 H8C 109.5 . .
H8B C8 H8C 109.5 . .
C6 C9 H9A 109.5 . .
C6 C9 H9B 109.5 . .
C6 C9 H9C 109.5 . .
H9A C9 H9B 109.5 . .
H9A C9 H9C 109.5 . .
H9B C9 H9C 109.5 . .
C2' C1' C6' 120.9(8) . .
C2' C1' C7' 119.7(6) . .
C6' C1' C7' 119.3(7) . .
C1' C2' C8' 119.9(9) . .
C3' C2' C1' 118.0(10) . .
C3' C2' C8' 121.5(11) . .
C2' C3' H3' 119.5 . .
C4' C3' C2' 121.0(14) . .
C4' C3' H3' 119.5 . .
C3' C4' H4' 119.8 . .
C3' C4' C5' 120.4(13) . .
C5' C4' H4' 119.8 . .
C4' C5' H5' 119.0 . .
C6' C5' C4' 121.9(14) . .
C6' C5' H5' 119.0 . .
C1' C6' C9' 125.1(11) . .
C5' C6' C1' 116.2(12) . .
C5' C6' C9' 116.8(12) . .
C1' C7' C7' 113.5(6) . 3_666
C1' C7' H71' 108.9 . .
C1' C7' H72' 108.9 . .
C7' C7' H71' 108.9 3_666 .
C7' C7' H72' 108.9 3_666 .
H71' C7' H72' 107.7 . .
C2' C8' H81' 109.5 . .
C2' C8' H82' 109.5 . .
C2' C8' H83' 109.5 . .
H81' C8' H82' 109.5 . .
H81' C8' H83' 109.5 . .
H82' C8' H83' 109.5 . .
C6' C9' H91' 109.5 . .
C6' C9' H92' 109.5 . .
C6' C9' H93' 109.5 . .
H91' C9' H92' 109.5 . .
H91' C9' H93' 109.5 . .
H92' C9' H93' 109.5 . .
loop_
_geom_bond_atom_site_label_1
_geom_bond_atom_site_label_2
_geom_bond_distance
_geom_bond_site_symmetry_2
C1 C2 1.399(5) .
C1 C6 1.399(6) .
C1 C7 1.513(4) .
C2 C3 1.373(6) .
C2 C8 1.515(5) .
C3 H3 0.9300 .
C3 C4 1.356(7) .
C4 H4 0.9300 .
C4 C5 1.373(7) .
C5 H5 0.9300 .
C5 C6 1.367(6) .
C6 C9 1.502(6) .
C7 C7 1.534(4) 3_666
C7 H7A 0.9700 .
C7 H7B 0.9700 .
C8 H8A 0.9600 .
C8 H8B 0.9600 .
C8 H8C 0.9600 .
C9 H9A 0.9600 .
C9 H9B 0.9600 .
C9 H9C 0.9600 .
C1' C2' 1.407(10) .
C1' C6' 1.410(11) .
C1' C7' 1.517(8) .
C2' C3' 1.371(12) .
C2' C8' 1.535(11) .
C3' H3' 0.9300 .
C3' C4' 1.348(13) .
C4' H4' 0.9300 .
C4' C5' 1.378(13) .
C5' H5' 0.9300 .
C5' C6' 1.368(13) .
C6' C9' 1.522(12) .
C7' C7' 1.522(9) 3_666
C7' H71' 0.9700 .
C7' H72' 0.9700 .
C8' H81' 0.9600 .
C8' H82' 0.9600 .
C8' H83' 0.9600 .
C9' H91' 0.9600 .
C9' H92' 0.9600 .
C9' H93' 0.9600 .
loop_
_geom_torsion_atom_site_label_1
_geom_torsion_atom_site_label_2
_geom_torsion_atom_site_label_3
_geom_torsion_atom_site_label_4
_geom_torsion
_geom_torsion_site_symmetry_4
C1 C2 C3 C4 -0.1(12) .
C2 C1 C6 C5 7.6(11) .
C2 C1 C6 C9 -176.4(5) .
C2 C1 C7 C7 89.0(4) 3_666
C2 C3 C4 C5 2.8(15) .
C3 C4 C5 C6 -0.2(15) .
C4 C5 C6 C1 -5.0(14) .
C4 C5 C6 C9 178.9(8) .
C6 C1 C2 C3 -5.0(8) .
C6 C1 C2 C8 179.4(5) .
C6 C1 C7 C7 -90.8(6) 3_666
C7 C1 C2 C3 175.2(6) .
C7 C1 C2 C8 -0.4(6) .
C7 C1 C6 C5 -172.6(7) .
C7 C1 C6 C9 3.4(10) .
C8 C2 C3 C4 175.7(7) .
C1' C2' C3' C4' -1(3) .
C2' C1' C6' C5' -15(2) .
C2' C1' C6' C9' -178.5(13) .
C2' C1' C7' C7' -94.5(8) 3_666
C2' C3' C4' C5' -5(3) .
C3' C4' C5' C6' 0(3) .
C4' C5' C6' C1' 9(3) .
C4' C5' C6' C9' 174.3(18) .
C6' C1' C2' C3' 11(2) .
C6' C1' C2' C8' -177.8(13) .
C6' C1' C7' C7' 89.1(13) 3_666
C7' C1' C2' C3' -165.4(14) .
C7' C1' C2' C8' 5.8(12) .
C7' C1' C6' C5' 161.4(15) .
C7' C1' C6' C9' -2(2) .
C8' C2' C3' C4' -171.8(16) .
