#------------------------------------------------------------------------------
#$Date: 2016-03-24 14:28:49 +0200 (Thu, 24 Mar 2016) $
#$Revision: 179665 $
#$URL: svn://www.crystallography.net/cod/cif/4/51/18/4511879.cif $
#------------------------------------------------------------------------------
#
# This file is available in the Crystallography Open Database (COD),
# http://www.crystallography.net/
#
# All data on this site have been placed in the public domain by the
# contributors.
#
data_4511879
loop_
_publ_author_name
'Harada, Jun'
'Ogawa, Keiichiro'
_publ_section_title
;
 What Molecules Are Likely or Unlikely To Undergo Pedal Motions in
 Crystals?
;
_journal_issue                   10
_journal_name_full               'Crystal Growth &amp; Design'
_journal_page_first              5182
_journal_paper_doi               10.1021/cg500962y
_journal_volume                  14
_journal_year                    2014
_chemical_formula_moiety         'C16 H16'
_chemical_formula_sum            'C16 H16'
_chemical_formula_weight         208.29
_chemical_name_systematic
;
 ?
;
_space_group_crystal_system      monoclinic
_space_group_IT_number           14
_space_group_name_Hall           '-P 2yn'
_space_group_name_H-M_alt        'P 1 21/n 1'
_symmetry_space_group_name_Hall  '-P 2yn'
_symmetry_space_group_name_H-M   'P 1 21/n 1'
_atom_sites_solution_hydrogens   geom
_atom_sites_solution_primary     direct
_audit_creation_date             2014-06-26
_audit_creation_method
;
Olex2 1.2
(compiled 2014.06.23 svn.r2946 for OlexSys, GUI svn.r4855)
;
_cell_angle_alpha                90
_cell_angle_beta                 112.553(1)
_cell_angle_gamma                90
_cell_formula_units_Z            2
_cell_length_a                   5.7726(3)
_cell_length_b                   17.0351(9)
_cell_length_c                   6.6086(4)
_cell_measurement_reflns_used    4378
_cell_measurement_temperature    200
_cell_measurement_theta_max      29.893
_cell_measurement_theta_min      2.391
_cell_volume                     600.17(6)
_computing_cell_refinement       'SAINT v6.28A (Bruker, 2002)'
_computing_data_collection       'SMART v5.054 (Bruker, 1998)'
_computing_data_reduction        'SAINT v6.28A (Bruker, 2002)'
_computing_molecular_graphics    'Ortep-3 for Windows (Farrugia, 2012)'
_computing_publication_material  'Olex2 (Dolomanov et al., 2009)'
_computing_structure_refinement  'ShelXL (Sheldrick, 2008)'
_computing_structure_solution    'ShelXS (Sheldrick, 2008)'
_diffrn_ambient_temperature      200
_diffrn_detector_area_resol_mean 8.192
_diffrn_measured_fraction_theta_full 1.000
_diffrn_measured_fraction_theta_max 0.998
_diffrn_measurement_device_type  'Bruker SMART 1000'
_diffrn_measurement_method       \w_scan
_diffrn_radiation_type           MoK\a
_diffrn_radiation_wavelength     0.71073
_diffrn_reflns_av_R_equivalents  0.0172
_diffrn_reflns_av_unetI/netI     0.0117
_diffrn_reflns_Laue_measured_fraction_full 1.000
_diffrn_reflns_Laue_measured_fraction_max 0.998
_diffrn_reflns_limit_h_max       8
_diffrn_reflns_limit_h_min       -8
_diffrn_reflns_limit_k_max       23
_diffrn_reflns_limit_k_min       -23
_diffrn_reflns_limit_l_max       9
_diffrn_reflns_limit_l_min       -9
_diffrn_reflns_number            9181
_diffrn_reflns_point_group_measured_fraction_full 1.000
_diffrn_reflns_point_group_measured_fraction_max 0.998
_diffrn_reflns_theta_full        25.242
_diffrn_reflns_theta_max         30.026
_diffrn_reflns_theta_min         2.391
_diffrn_source                   'sealed X-ray tube'
_exptl_absorpt_coefficient_mu    0.065
_exptl_absorpt_correction_T_max  1
_exptl_absorpt_correction_T_min  0.943883
_exptl_absorpt_correction_type   multi-scan
_exptl_absorpt_process_details
'SADABS v.2.03 (Bruker,200?) was used for absorption correction. R(int) was 0.0282 before and 0.0163 after correction. The Ratio of minimum to maximum transmission is 0.9439. The \l/2 correction factor is 0.0015.'
_exptl_crystal_colour            colourless
_exptl_crystal_colour_primary    colourless
_exptl_crystal_density_diffrn    1.153
_exptl_crystal_description       block
_exptl_crystal_F_000             224
_exptl_crystal_size_max          0.6
_exptl_crystal_size_mid          0.5
_exptl_crystal_size_min          0.2
_refine_diff_density_max         0.216
_refine_diff_density_min         -0.159
_refine_diff_density_rms         0.029
_refine_ls_extinction_method     none
_refine_ls_goodness_of_fit_ref   1.073
_refine_ls_hydrogen_treatment    constr
_refine_ls_matrix_type           full
_refine_ls_number_parameters     108
_refine_ls_number_reflns         1748
_refine_ls_number_restraints     251
_refine_ls_restrained_S_all      1.030
_refine_ls_R_factor_all          0.0447
_refine_ls_R_factor_gt           0.0392
_refine_ls_shift/su_max          0.000
_refine_ls_shift/su_mean         0.000
_refine_ls_structure_factor_coef Fsqd
_refine_ls_weighting_details
'w=1/[\s^2^(Fo^2^)+(0.0564P)^2^+0.0763P] where P=(Fo^2^+2Fc^2^)/3'
_refine_ls_weighting_scheme      calc
_refine_ls_wR_factor_gt          0.1088
_refine_ls_wR_factor_ref         0.1141
_reflns_Friedel_coverage         0.000
_reflns_number_gt                1536
_reflns_number_total             1748
_reflns_threshold_expression     'I > 2\s(I)'
_cod_data_source_file            cg500962y_si_001.cif
_cod_data_source_block           aaMeEST200K
_cod_depositor_comments
'Adding full bibliography for 4511872--4511883.cif.'
_cod_database_code               4511879
#BEGIN Tags that were not found in dictionaries:
_shelxl_version_number           2013-4
_shelx_space_group_comment
;
The symmetry employed for this shelxl refinement is uniquely defined
by the following loop, which should always be used as a source of
symmetry information in preference to the above space-group names.
They are only intended as comments.
;
_shelx_estimated_absorpt_t_max   0.987
_shelx_estimated_absorpt_t_min   0.962
_olex2_refinement_description
;
1. Fixed Uiso
 At 1.2 times of:
  All C(H) groups
 At 1.5 times of:
  All C(H,H,H) groups
2. Restrained distances
 C7-C7_$1 \\sim C7'-C7'_$1
 with sigma of 0.02
3. Uiso/Uaniso restraints and constraints
All non-hydrogen atoms have similar U: within 1.7A with sigma of 0.04 and sigma
for terminal atoms of 0.08
4. Rigid body (RIGU) restrains
 All non-hydrogen atoms
 with sigma for 1-2 distances of 0.004 and sigma for 1-3 distances of 0.004
5. Same fragment restrains
{C1, C2, C3, C4, C5, C6, C7, C8}
as
{C1', C2', C3', C4', C5', C6', C7', C8'}
6. Others
 Sof(C1')=Sof(C2')=Sof(H2')=Sof(C3')=Sof(H3')=Sof(C4')=Sof(H4')=Sof(C5')=
 Sof(H5')=Sof(C6')=Sof(H6')=Sof(C7')=Sof(C8')=Sof(H81')=Sof(H82')=Sof(H83')=1-
 FVAR(1)
 Sof(C1)=Sof(C2)=Sof(H2)=Sof(C3)=Sof(H3)=Sof(C4)=Sof(H4)=Sof(C5)=Sof(H5)=
 Sof(C6)=Sof(H6)=Sof(C7)=Sof(C8)=Sof(H81)=Sof(H82)=Sof(H83)=FVAR(1)
7.a Aromatic/amide H refined with riding coordinates:
 C2(H2), C3(H3), C4(H4), C5(H5), C6(H6), C2'(H2'), C3'(H3'), C4'(H4'),
 C5'(H5'), C6'(H6')
7.b Idealised Me refined as rotating group:
 C8(H81,H82,H83), C8'(H81',H82',H83')
;
_shelx_res_file
;
TITL (E)-alpha,alpha'-dimethylstilbene at 200 K in P2(1)/n
CELL 0.71073   5.7726  17.0351   6.6086  90.000 112.553  90.000
ZERR    2.00   0.0003   0.0009   0.0004   0.000   0.001   0.000
LATT 1
SYMM 0.5-X, 0.5+Y, 0.5-Z
SFAC C  H
UNIT 32 32
LIST 4
L.S. 6
BOND $H
CONF
FMAP 2
PLAN 20
ACTA
SIZE 0.2 0.5 0.6
TEMP -73
RIGU
SIMU
EQIV $1 1-x, 1-y, -z
SADI C7 C7_$1 C7' C7'_$1
WGHT    0.056400    0.076300
FVAR       1.63073   0.64560
PART 1
C1    1    0.546910    0.409424    0.188758    21.00000    0.02605    0.02508 =
         0.03106   -0.00015    0.00837   -0.00346
C2    1    0.450663    0.402144    0.350318    21.00000    0.03567    0.03428 =
         0.03486    0.00381    0.01597    0.00529
AFIX  43
H2    2    0.315486    0.434691    0.346682    21.00000   -1.20000
AFIX   0
C3    1    0.550642    0.347482    0.517894    21.00000    0.04198    0.03906 =
         0.02676    0.00942    0.01467    0.00194
AFIX  43
H3    2    0.489970    0.344800    0.632554    21.00000   -1.20000
AFIX   0
C4    1    0.734199    0.298152    0.517627    21.00000    0.05263    0.03937 =
         0.04196    0.01381    0.00138   -0.00066
AFIX  43
H4    2    0.789688    0.257567    0.624060    21.00000   -1.20000
AFIX   0
C5    1    0.840088    0.305816    0.367609    21.00000    0.04567    0.03485 =
         0.05815   -0.00108    0.01031    0.00909
AFIX  43
H5    2    0.980458    0.274395    0.378829    21.00000   -1.20000
AFIX   0
C6    1    0.743692    0.359554    0.197411    21.00000    0.03298    0.03189 =
         0.03477   -0.00203    0.01334   -0.00112
AFIX  43
H6    2    0.811071    0.362479    0.087118    21.00000   -1.20000
AFIX   0
C7    1    0.438859    0.467247    0.006419    21.00000    0.02636    0.02729 =
         0.02567   -0.00041    0.00757   -0.00095
C8    1    0.182366    0.445636   -0.164014    21.00000    0.02130    0.02595 =
         0.02777   -0.00072    0.00002   -0.00857
AFIX 137
H81   2    0.142591    0.479987   -0.291884    21.00000   -1.50000
H82   2    0.055077    0.452119   -0.100983    21.00000   -1.50000
H83   2    0.184303    0.390890   -0.208898    21.00000   -1.50000
AFIX   0
PART 2
SAME C1 > C8
C1'   1    0.638188    0.421881    0.227724   -21.00000    0.02998
C2'   1    0.513020    0.413863    0.368921   -21.00000    0.03851
AFIX  43
H2'   2    0.399161    0.453672    0.371983   -21.00000   -1.20000
AFIX   0
C3'   1    0.549344    0.350071    0.503933   -21.00000    0.05801
AFIX  43
H3'   2    0.445441    0.342827    0.584408   -21.00000   -1.20000
AFIX   0
C4'   1    0.741660    0.294503    0.524656   -21.00000    0.02712
AFIX  43
H4'   2    0.791874    0.255700    0.636450   -21.00000   -1.20000
AFIX   0
C5'   1    0.852828    0.300687    0.368891   -21.00000    0.02524
AFIX  43
H5'   2    0.956765    0.259417    0.355574   -21.00000   -1.20000
AFIX   0
C6'   1    0.812773    0.365909    0.235334   -21.00000    0.03693
AFIX  43
H6'   2    0.908037    0.372183    0.146844   -21.00000   -1.20000
AFIX   0
C7'   1    0.603090    0.494129    0.088975   -21.00000    0.03177
C8'   1    0.813543    0.552984    0.164915   -21.00000    0.06610
AFIX 137
H81'  2    0.774736    0.596631    0.060527   -21.00000   -1.50000
H82'  2    0.969698    0.527684    0.173998   -21.00000   -1.50000
H83'  2    0.833227    0.572957    0.309667   -21.00000   -1.50000
PART 0
AFIX   0
HKLF 4

REM  (E)-alpha,alpha'-dimethylstilbene at 200 K in P2(1)/n
REM R1 =  0.0392 for    1536 Fo > 4sig(Fo)  and  0.0447 for all    1748 data
REM    108 parameters refined using    251 restraints

END

WGHT      0.0564      0.0760

REM Highest difference peak  0.216,  deepest hole -0.159,  1-sigma level  0.029
Q1    1   0.5374  0.4875 -0.0329  11.00000  0.05    0.22
Q2    1   0.6746  0.3941  0.2054  11.00000  0.05    0.21
Q3    1   0.5054  0.4433  0.1065  11.00000  0.05    0.20
Q4    1   0.7945  0.3371  0.3009  11.00000  0.05    0.19
Q5    1   0.6736  0.3337  0.5251  11.00000  0.05    0.17
Q6    1   0.5951  0.4226  0.3020  11.00000  0.05    0.17
Q7    1   0.4840  0.3957  0.2554  11.00000  0.05    0.16
Q8    1   0.6834  0.5414  0.0912  11.00000  0.05    0.15
Q9    1   0.5345  0.3834  0.4605  11.00000  0.05    0.14
Q10   1   0.7964  0.3067  0.4465  11.00000  0.05    0.11
Q11   1   0.0972  0.4200 -0.0929  11.00000  0.05    0.11
Q12   1   0.0503  0.4871 -0.2588  11.00000  0.05    0.10
Q13   1   0.3229  0.3151  0.5981  11.00000  0.05    0.07
Q14   1   0.6719  0.2386  0.3677  11.00000  0.05    0.06
Q15   1   0.8722  0.3785  0.0487  11.00000  0.05    0.06
Q16   1   0.1953  0.3244 -0.3143  11.00000  0.05    0.06
Q17   1   1.0229  0.2838  0.2983  11.00000  0.05    0.05
Q18   1   0.8114  0.2287  0.5641  11.00000  0.05    0.05
Q19   1   0.1579  0.3045 -0.1655  11.00000  0.05    0.05
Q20   1   0.8198  0.3991  0.0865  11.00000  0.05    0.05
;
_shelx_res_checksum              29568
_shelx_hkl_file
;
  -1   0   0    4.59    0.30   2
   2   0   0    7.65    0.49   4
   2   0   0   11.30    0.56   3
  -2   0   0    6.98    0.46   1
  -2   0   0    8.32    0.49   2
  -3   0   0    0.42    0.34   2
  -3   0   0   -0.30    0.30   1
   3   0   0   -0.28    0.33   4
   3   0   0    0.38    0.34   3
  -4   0   0  137.21    2.91   2
  -4   0   0  136.24    2.75   1
   4   0   0  135.67    2.97   3
   4   0   0  135.10    2.74   4
  -5   0   0   -0.21    0.51   2
  -5   0   0    0.20    0.49   1
   5   0   0   -0.46    0.50   3
   5   0   0    0.01    0.53   4
  -6   0   0    1.71    0.69   2
   6   0   0    3.11    0.78   3
  -7   0   0   -0.14    0.77   2
   7   0   0    0.58    0.81   3
   0  -1   0    0.00    0.02   1
   0  -1   0    0.05    0.03   4
   0  -1   0    0.07    0.03   3
   1  -1   0 4626.80   71.87   3
   1   1   0 4518.90   69.07   4
  -1  -1   0 4629.93   69.98   1
   1   1   0 4726.95   72.11   3
   1  -1   0 4632.05   69.66   4
  -1   1   0 4728.71   70.55   1
  -1  -1   0 4793.60   71.27   2
  -1   1   0 4485.28   70.89   2
  -2  -1   0   24.96    0.77   2
   2   1   0   25.50    0.77   4
  -2   1   0   24.83    0.73   1
  -2  -1   0   25.93    0.77   1
  -2   1   0   28.06    0.82   2
   2   1   0   24.83    0.82   3
   2  -1   0   26.11    0.84   3
   3  -1   0 1303.65   20.69   3
  -3   1   0 1326.73   20.40   2
   3  -1   0 1317.13   19.72   4
  -3   1   0 1271.29   19.93   1
  -3  -1   0 1295.62   20.33   2
  -3  -1   0 1318.28   20.01   1
   3   1   0 1301.91   20.65   3
   3   1   0 1293.59   19.74   4
  -4  -1   0   47.54    1.50   2
  -4  -1   0   46.26    1.42   1
   4  -1   0   45.99    1.55   3
   4   1   0   46.70    1.43   4
   4  -1   0   45.15    1.42   4
   4   1   0   49.32    1.55   3
  -4   1   0   42.29    1.48   2
  -4   1   0   48.24    1.38   1
   5  -1   0   62.99    1.84   4
   5   1   0   62.56    1.80   4
   5   1   0   62.93    1.98   3
  -5  -1   0   60.56    1.89   2
  -5   1   0   61.55    1.95   2
  -5  -1   0   61.80    1.80   1
   5  -1   0   63.21    2.03   3
  -5   1   0   62.38    1.75   1
  -6   1   0   30.89    1.52   2
   6  -1   0   28.99    1.61   3
   6   1   0   27.51    1.59   3
  -6  -1   0   27.61    1.45   2
  -7  -1   0   14.98    1.31   2
  -7   1   0   12.12    1.24   2
   7  -1   0   15.35    1.35   3
   7   1   0   14.05    1.33   3
   0  -2   0  324.64    4.96   4
   0  -2   0  314.85    5.16   3
   0  -2   0  325.03    5.15   2
   0  -2   0  316.89    5.00   1
  -1  -2   0 2789.20   41.91   1
   1  -2   0 2745.07   41.65   4
  -1   2   0 2751.25   42.53   2
  -1  -2   0 2831.29   42.79   2
   1   2   0 2753.04   41.37   4
  -1   2   0 2822.03   42.26   1
   1  -2   0 2725.95   43.09   3
   1   2   0 2822.64   43.25   3
  -2   2   0 1096.59   16.78   1
  -2  -2   0 1104.39   17.07   2
  -2  -2   0 1114.33   16.87   1
   2   2   0 1100.79   17.33   3
   2  -2   0 1084.99   16.58   4
   2  -2   0 1110.11   17.41   3
   2   2   0 1096.43   16.65   4
  -2   2   0 1104.70   17.17   2
  -3  -2   0   15.40    0.81   1
  -3   2   0   14.35    0.71   1
   3  -2   0   13.66    0.83   3
  -3  -2   0   13.20    0.78   2
   3  -2   0   12.14    0.77   4
   3   2   0   13.01    0.79   4
  -3   2   0   14.65    0.83   2
   3   2   0   13.15    0.80   3
  -4   2   0   50.91    1.63   2
  -4  -2   0   52.59    1.54   2
  -4  -2   0   50.84    1.50   1
   4   2   0   51.48    1.58   3
  -4   2   0   51.82    1.42   1
   4  -2   0   52.60    1.48   4
   4  -2   0   51.14    1.64   3
   4   2   0   50.23    1.53   4
  -5  -2   0   40.00    1.52   2
   5  -2   0   40.74    1.46   4
   5   2   0   40.55    1.58   3
   5   2   0   39.47    1.46   4
   5  -2   0   42.66    1.69   3
  -5  -2   0   40.53    1.47   1
  -5   2   0   39.14    1.60   2
  -6  -2   0    1.77    0.69   2
   6   2   0    1.63    0.73   3
  -6   2   0    0.28    0.71   2
   6  -2   0    0.64    0.68   3
   7   2   0    2.75    0.96   3
  -7   2   0    3.76    0.97   2
   7  -2   0    3.98    0.96   3
  -7  -2   0    2.18    0.86   2
   0  -3   0   -0.02    0.12   4
   0  -3   0   -0.04    0.10   3
   0  -3   0   -0.02    0.10   1
   0  -3   0   -0.12    0.10   2
   1   3   0   36.74    0.88   4
   1  -3   0   36.92    0.82   4
  -1  -3   0   36.14    0.78   2
  -1   3   0   36.96    0.79   1
   1   3   0   38.57    0.84   3
   1  -3   0   36.07    0.89   3
   1  -3   0   35.69    0.92   2
  -2  -3   0  840.14   13.06   2
   2  -3   0  836.71   12.69   4
  -2   3   0  821.66   12.83   1
   2   3   0  829.47   13.27   3
  -2   3   0  843.69   13.23   2
   2  -3   0  842.09   13.39   3
  -2  -3   0  842.02   12.98   1
   2   3   0  845.20   12.81   4
   3  -3   0  238.44    3.99   4
  -3  -3   0  241.63    4.20   1
   3  -3   0  232.60    4.37   3
  -3   3   0  239.87    4.02   1
   3   3   0  231.71    4.25   3
   3   3   0  241.39    4.14   4
  -3  -3   0  232.10    4.15   2
  -3   3   0  237.87    4.33   2
   4  -3   0   72.28    1.74   4
   4  -3   0   72.12    2.00   3
  -4  -3   0   72.36    1.85   1
   4   3   0   71.40    1.86   4
   4   3   0   70.92    1.90   3
  -4   3   0   67.17    1.67   1
  -4   3   0   68.19    1.93   2
  -4  -3   0   72.86    1.84   2
  -5  -3   0   34.60    1.41   1
   5  -3   0   34.46    1.35   4
  -5  -3   0   33.20    1.38   2
   5   3   0   35.00    1.43   4
   5  -3   0   34.53    1.55   3
   5   3   0   35.30    1.48   3
  -5   3   0   36.07    1.55   2
   6   3   0   -0.43    0.63   4
   6  -3   0   -0.18    0.62   3
  -6  -3   0    0.05    0.62   2
   6   3   0   -0.15    0.63   3
  -6   3   0   -0.23    0.64   2
   7  -3   0    8.03    1.13   3
  -7   3   0    6.33    1.12   2
   0  -4   0 1548.84   24.05   3
   0  -4   0 1528.51   23.36   1
   0  -4   0 1558.22   23.79   2
   0  -4   0 1537.17   23.09   4
  -1  -4   0 7565.51  111.43   1
  -1  -4   0 7485.92  113.89   2
   1   4   0 7211.31  109.94   4
   1  -4   0 7597.90  110.31   4
  -1   4   0 7354.43   98.76   5
  -1   4   0 7271.91  111.79   1
   1  -4   0 7425.49  113.15   2
   1   4   0 7600.64  115.00   3
   1  -4   0 7425.67  114.63   3
  -2   4   0  188.39    3.20   1
  -2  -4   0  193.26    3.39   1
  -2  -4   0  194.29    3.28   2
   2  -4   0  191.21    3.51   3
   2  -4   0  192.30    3.20   4
  -2   4   0  190.82    3.48   2
   2   4   0  195.22    3.38   3
   2   4   0  193.82    3.37   4
   3   4   0   70.87    1.72   4
  -3  -4   0   73.48    1.75   1
  -3  -4   0   75.43    1.67   2
   3   4   0   74.64    1.72   3
   3  -4   0   70.87    1.57   4
   3  -4   0   72.46    1.84   3
  -3   4   0   74.07    1.82   2
  -3   4   0   71.68    1.55   1
  -4  -4   0  116.73    2.55   2
  -4   4   0  117.52    2.42   1
   4   4   0  119.14    2.64   3
   4  -4   0  116.60    2.41   4
   4   4   0  120.28    2.63   4
  -4  -4   0  118.24    2.60   1
   4  -4   0  120.96    2.80   3
  -4   4   0  115.53    2.73   2
  -5  -4   0   12.64    1.02   2
  -5   4   0   11.77    0.98   2
   5  -4   0   14.17    1.12   3
   5   4   0   14.01    0.99   4
  -5  -4   0   14.27    1.05   1
   5   4   0   12.85    0.94   3
   6   4   0   -0.30    0.63   3
  -6  -4   0    1.17    0.68   2
   6  -4   0   -0.67    0.62   3
  -6   4   0   -0.56    0.68   2
  -6  -4   0   -0.90    0.62   1
   6   4   0   -0.95    0.64   4
   7  -4   0    9.79    1.22   3
  -7   4   0    7.73    1.17   2
   0  -5   0    0.03    0.15   2
   0  -5   0   -0.12    0.14   1
   0  -5   0   -0.20    0.15   4
   0  -5   0   -0.21    0.13   3
   1  -5   0 1248.85   19.79   3
   1   5   0 1276.71   19.73   3
   1  -5   0 1265.04   19.19   1
  -1  -5   0 1279.99   19.27   1
  -1  -5   0 1266.89   19.47   2
   1  -5   0 1261.90   19.57   2
   1   5   0 1247.98   19.05   4
   1  -5   0 1254.80   18.96   4
   2  -5   0  107.82    1.96   4
  -2   5   0  108.76    1.96   1
  -2  -5   0  107.78    2.15   1
   2  -5   0  106.26    2.21   3
  -2   5   0  103.15    2.20   2
   2   5   0  106.12    2.06   3
   2   5   0  105.13    2.15   4
  -2  -5   0  104.16    1.97   2
   3   5   0   27.89    1.05   4
  -3  -5   0   28.90    0.97   2
  -3   5   0   30.21    0.94   1
   3  -5   0   28.68    1.11   3
  -3   5   0   26.83    1.09   2
   3   5   0   28.27    1.00   3
  -3  -5   0   28.01    1.05   1
   3  -5   0   27.76    0.92   4
  -4  -5   0  384.24    6.57   2
  -4  -5   0  382.26    6.64   1
   4   5   0  383.07    6.58   4
  -4   5   0  385.35    6.86   2
   4  -5   0  375.28    6.28   4
   4  -5   0  388.09    6.96   3
  -4   5   0  390.41    6.37   1
   4   5   0  376.58    6.73   3
  -5  -5   0    2.61    0.61   2
   5  -5   0    2.27    0.65   3
   5   5   0    2.41    0.68   4
  -5   5   0    2.98    0.74   2
  -5  -5   0    3.20    0.66   1
   5   5   0    1.95    0.62   3
  -6  -5   0    5.98    0.86   2
  -6  -5   0    5.13    0.88   1
   6   5   0    6.66    0.92   3
  -6   5   0    4.57    0.93   2
   6  -5   0    6.23    0.97   3
   6   5   0    5.61    0.92   4
   7  -5   0   19.12    1.52   3
  -7   5   0   19.05    1.52   2
   0  -6   0    3.96    0.30   1
   0  -6   0    3.80    0.28   2
   0  -6   0    4.20    0.34   4
   0  -6   0    4.12    0.29   3
  -1  -6   0   53.39    1.25   1
   1  -6   0   53.34    1.27   2
  -1  -6   0   53.48    1.07   2
   1   6   0   53.75    1.13   3
   1  -6   0   53.96    1.16   1
  -1  -6   0   55.58    1.30   4
   1  -6   0   53.69    1.26   3
   1  -6   0   51.94    1.18   4
   2  -6   0   96.59    1.86   4
   2   6   0   98.05    1.94   3
   2  -6   0   94.59    2.10   3
   2   6   0  100.18    2.08   4
  -2  -6   0   97.33    1.84   2
  -2   6   0   92.36    2.08   2
  -2  -6   0   98.44    2.05   1
  -2   6   0   98.62    1.85   1
   3  -6   0   63.02    1.73   3
   3   6   0   61.68    1.65   4
  -3  -6   0   61.74    1.47   2
  -3  -6   0   64.03    1.66   1
   3   6   0   62.69    1.56   3
   3  -6   0   61.65    1.44   4
  -3   6   0   62.45    1.73   2
  -3   6   0   61.45    1.44   1
   4   6   0    9.08    0.78   4
   4  -6   0    7.90    0.64   4
  -4  -6   0    8.78    0.68   2
   4  -6   0    8.85    0.79   3
  -4  -6   0    9.04    0.77   1
  -4   6   0    9.05    0.85   2
   4   6   0    8.94    0.73   3
  -5   6   0   25.34    1.44   2
  -5  -6   0   27.28    1.38   1
   5   6   0   26.43    1.34   3
   5  -6   0   27.91    1.44   3
   5   6   0   26.09    1.44   4
  -5  -6   0   28.16    1.25   2
  -6  -6   0   26.21    1.52   1
   6  -6   0   24.92    1.54   3
   6   6   0   26.34    1.55   4
  -6   6   0   25.22    1.62   2
  -7   6   0   21.19    1.63   2
   7  -6   0   23.10    1.77   3
   0  -7   0    0.07    0.19   2
   0  -7   0   -0.06    0.20   4
   0  -7   0    0.04    0.17   3
   0  -7   0    0.06    0.17   1
   1  -7   0  163.24    2.81   3
   1   7   0  147.74    2.63   3
   1  -7   0  143.69    2.64   4
   1  -7   0  147.64    2.62   1
  -1  -7   0  148.10    2.77   4
  -1  -7   0  145.29    2.73   1
   1  -7   0  145.05    2.77   2
  -1  -7   0  146.61    2.55   2
  -2  -7   0    4.74    0.46   1
  -2   7   0    3.06    0.46   2
  -2  -7   0    4.53    0.34   2
   2   7   0    4.29    0.46   4
  -2   7   0    4.55    0.38   1
   2  -7   0    4.07    0.44   3
   2  -7   0    4.17    0.38   4
   2   7   0    4.38    0.38   3
   3  -7   0   53.22    1.60   3
  -3   7   0   54.49    1.35   1
   3  -7   0   53.84    1.34   4
   3   7   0   56.45    1.48   3
  -3  -7   0   55.14    1.56   1
  -3  -7   0   54.11    1.35   2
  -3   7   0   49.87    1.60   2
   3   7   0   55.08    1.59   4
  -4  -7   0   28.98    1.28   1
   4   7   0   24.22    1.23   4
  -4  -7   0   24.95    1.04   2
   4  -7   0   24.78    1.03   4
  -4   7   0   25.21    1.30   2
   4   7   0   25.30    1.14   3
   4  -7   0   25.83    1.26   3
  -5  -7   0    1.31    0.54   2
   5  -7   0    1.24    0.63   3
  -5  -7   0    0.78    0.62   1
  -5   7   0    1.38    0.73   2
   5   7   0    2.06    0.72   4
   5   7   0    0.64    0.58   3
  -6  -7   0    3.96    0.81   1
  -6   7   0    2.36    0.89   2
   6   7   0    1.47    0.82   4
   6  -7   0    1.54    0.78   3
  -7   7   0   -0.35    0.92   2
   7  -7   0   -1.58    0.81   3
   0  -8   0  581.36    9.24   1
   0  -8   0  589.75    9.46   3
   0  -8   0  587.86    9.23   4
   0  -8   0  588.13    9.33   2
   1  -8   0  249.55    4.34   2
  -1  -8   0  246.50    4.09   2
  -1  -8   0  248.88    4.27   1
   1  -8   0  247.70    4.18   4
  -1  -8   0  246.93    4.31   4
   1  -8   0  243.59    4.13   1
   1   8   0  246.19    4.21   3
   1  -8   0  247.93    4.35   3
   2   8   0  172.91    3.33   4
   2  -8   0  173.13    3.11   4
   2  -8   0  174.16    3.39   3
   2   8   0  176.36    3.17   3
  -2   8   0  172.53    3.38   2
  -2  -8   0  178.18    3.03   2
  -2   8   0  176.34    3.09   1
  -2  -8   0  172.62    3.32   1
   3  -8   0    1.09    0.37   4
  -3  -8   0    0.62    0.42   1
  -3   8   0    1.27    0.48   2
   3  -8   0    1.93    0.48   3
  -3   8   0    1.95    0.40   1
  -3  -8   0    1.97    0.37   2
   3   8   0    2.04    0.44   3
   3   8   0    1.62    0.46   4
   4  -8   0   10.01    0.67   4
  -4  -8   0    9.37    0.69   2
  -4  -8   0   10.51    0.85   1
   4   8   0    9.43    0.76   3
  -4   8   0   10.23    0.92   2
   4  -8   0   11.63    0.92   3
   4   8   0   11.23    0.91   4
   5  -8   0    5.18    0.84   3
   5   8   0    6.07    0.87   4
  -5   8   0    4.22    0.87   2
  -5  -8   0    5.50    0.83   1
  -6  -8   0   50.70    1.98   1
  -6   8   0   51.32    2.11   2
   6  -8   0   47.03    2.10   3
   6   8   0   48.80    2.03   4
   7  -8   0    6.82    1.17   3
  -7   8   0    4.59    1.18   2
   0  -9   0    0.14    0.23   1
   0  -9   0   -0.12    0.25   4
   0  -9   0    0.32    0.22   3
   0  -9   0    0.05    0.23   2
  -1  -9   0   13.52    0.59   2
   1   9   0   14.03    0.61   3
   1  -9   0   14.16    0.68   1
   1  -9   0   12.91    0.69   4
   1  -9   0   14.71    0.72   3
  -1  -9   0   13.16    0.73   1
   1  -9   0   14.93    0.74   2
   2  -9   0    0.98    0.41   2
  -2  -9   0    1.39    0.39   1
  -2   9   0    0.95    0.30   1
   2  -9   0    0.79    0.33   4
  -2  -9   0    1.23    0.26   2
  -2   9   0    1.27    0.27   5
   2   9   0    0.37    0.38   4
   2   9   0    1.06    0.31   3
   2  -9   0    0.64    0.34   3
  -3  -9   0   44.96    1.21   2
   3  -9   0   45.15    1.30   4
   3   9   0   47.94    1.38   3
   3   9   0   46.28    1.55   4
  -3   9   0   42.11    1.52   2
  -3  -9   0   44.42    1.49   1
   3  -9   0   46.55    1.54   3
  -3   9   0   43.86    1.29   1
  -4  -9   0    8.44    0.81   1
   4   9   0    7.28    0.69   3
   4   9   0    8.71    0.87   4
  -4   9   0    7.02    0.85   2
   4  -9   0    8.47    0.85   3
  -4  -9   0    8.51    0.66   2
  -5  -9   0    6.65    0.87   1
  -5   9   0    5.76    0.93   2
   5  -9   0    6.65    0.91   3
   5   9   0    6.57    0.92   4
  -6  -9   0   17.92    1.33   1
   6   9   0   15.19    1.34   4
   6  -9   0   16.36    1.37   3
  -6   9   0   18.68    1.44   2
   0 -10   0   46.41    1.24   3
   0 -10   0   48.05    1.27   1
   0 -10   0   46.20    1.34   4
   0 -10   0   47.00    1.22   2
   1 -10   0   25.05    0.97   2
   1  10   0   24.53    0.83   3
   1 -10   0   24.36    0.90   1
   1 -10   0   23.54    0.91   4
   1 -10   0   24.35    0.92   3
  -1 -10   0   24.86    0.79   2
  -1 -10   0   24.94    1.03   4
  -1 -10   0   22.51    0.94   1
   2 -10   0    6.44    0.64   2
  -2 -10   0    7.10    0.62   1
   2  10   0    4.83    0.60   4
   2 -10   0    6.48    0.53   4
  -2  10   0    6.57    0.50   1
   2 -10   0    6.38    0.59   3
  -2  10   0    6.42    0.45   5
   2  10   0    7.69    0.54   3
  -2 -10   0    7.54    0.53   2
  -3  10   0  235.77    4.15   1
   3  10   0  236.45    4.54   4
  -3 -10   0  237.05    4.53   1
  -3 -10   0  238.69    4.12   2
   3 -10   0  237.98    4.19   4
  -3  10   0  237.38    4.64   2
   3  10   0  230.88    4.32   3
   3 -10   0  231.65    4.62   3
   4  10   0    2.60    0.68   4
  -4  10   0    2.04    0.69   2
   4 -10   0    2.91    0.66   3
  -4 -10   0    3.42    0.69   1
  -5  10   0    0.64    0.72   2
   5  10   0    1.34    0.72   4
  -5 -10   0    0.11    0.65   1
   5 -10   0    0.21    0.65   3
  -6 -10   0    1.03    0.79   1
   6 -10   0    1.56    0.85   3
  -6  10   0    1.26    0.92   2
   6  10   0   -0.15    0.84   4
   0 -11   0   -0.10    0.33   4
   0 -11   0    0.77    0.32   1
   0 -11   0   -0.24    0.27   2
   0  11   0   -0.12    0.24   3
  -1 -11   0  238.93    4.12   2
   1 -11   0  241.95    4.39   2
  -1 -11   0  234.35    4.33   1
   1 -11   0  235.59    4.39   3
   1  11   0  244.16    4.25   3
   1 -11   0  237.68    4.28   4
   1 -11   0  242.97    4.22   1
  -2  11   0  355.38    5.94   1
   2  11   0  352.30    6.23   4
   2 -11   0  357.27    6.33   3
   2  11   0  356.32    6.06   3
   2 -11   0  351.44    6.33   2
   2 -11   0  357.30    5.99   4
  -2  11   0  353.87    5.24   5
  -2 -11   0  353.10    6.20   1
  -2 -11   0  353.98    5.84   2
  -3 -11   0    1.66    0.54   1
   3  11   0    1.47    0.59   4
   3  11   0    0.57    0.43   3
  -3  11   0    0.07    0.54   2
   3 -11   0    1.54    0.47   4
   3 -11   0    0.85    0.49   3
  -4 -11   0    6.84    0.83   1
  -4  11   0    7.17    0.89   2
   4 -11   0    8.33    0.89   3
   4  11   0    6.20    0.86   4
   5  11   0   18.88    1.38   4
  -5 -11   0   21.16    1.36   1
   5 -11   0   19.66    1.39   3
  -5  11   0   21.08    1.43   2
  -6 -11   0   12.44    1.23   1
  -6  11   0   11.52    1.33   2
   6  11   0   10.82    1.29   4
   6 -11   0   13.12    1.27   3
   0 -12   0   92.30    2.18   4
   0  12   0   91.37    2.03   3
   0 -12   0   93.51    2.03   2
   0 -12   0   84.14    2.03   1
  -1 -12   0   10.16    0.81   1
  -1 -12   0   12.31    0.93   4
  -1 -12   0   10.33    0.67   2
   1 -12   0   10.71    0.80   3
   1  12   0   10.94    0.72   3
   1 -12   0   12.02    0.84   2
   1 -12   0   13.07    0.84   1
   1 -12   0   12.19    0.87   4
  -2 -12   0  580.54    9.80   1
   2 -12   0  590.33   10.05   3
  -2  12   0  590.74    9.54   1
  -2 -12   0  606.35    9.50   2
  -2  12   0  584.64    8.43   5
   2  12   0  587.08    9.74   3
   2 -12   0  591.48    9.55   4
   2  12   0  593.51    9.83   4
   2 -12   0  604.86   10.03   2
   3 -12   0   29.34    1.19   4
  -3 -12   0   28.82    1.33   1
   3  12   0   26.84    1.37   4
  -3  12   0   26.56    1.37   2
   3 -12   0   29.16    1.35   3
  -4  12   0    2.26    0.70   2
   4  12   0    0.65    0.63   4
   4 -12   0    0.83    0.63   3
  -4 -12   0    1.79    0.66   1
  -5 -12   0  100.08    2.82   1
   5 -12   0   93.28    2.84   3
  -5  12   0   94.79    2.88   2
   6 -12   0    0.81    0.82   3
  -6  12   0   -0.61    0.87   2
  -6 -12   0    0.45    0.80   1
   6  12   0   -1.32    0.87   4
   0 -13   0    0.95    0.45   4
   0  13   0    0.04    0.31   3
   0 -13   0    0.01    0.35   2
   0 -13   0    0.41    0.37   1
  -1 -13   0  262.30    4.81   1
  -1 -13   0  260.69    4.55   2
  -1 -13   0  256.74    4.89   4
   1 -13   0  255.45    4.65   1
   1  13   0  258.06    4.67   3
   1 -13   0  262.09    4.76   4
   1 -13   0  260.11    4.82   2
   1 -13   0  265.27    4.85   3
  -2 -13   0    5.02    0.66   1
  -2  13   0    5.16    0.51   5
   2  13   0    3.81    0.70   4
   2 -13   0    5.66    0.67   3
   2 -13   0    4.53    0.60   4
   2  13   0    4.56    0.54   3
  -2  13   0    5.51    0.57   1
  -3  13   0   27.05    1.43   2
   3 -13   0   28.27    1.19   4
   3  13   0   29.80    1.47   4
   3 -13   0   27.36    1.35   3
  -3 -13   0   30.47    1.40   1
  -4 -13   0    1.38    0.67   1
   4 -13   0    2.84    0.73   3
  -4  13   0    2.61    0.77   2
   4  13   0    2.35    0.76   4
  -5 -13   0    2.08    0.82   1
   5  13   0    1.12    0.83   4
  -5  13   0    0.60    0.82   2
   5 -13   0    0.53    0.71   3
  -6 -13   0    8.70    1.18   1
   6  13   0    7.50    1.25   4
   6 -13   0   10.20    1.23   3
  -6  13   0    8.15    1.26   2
   0 -14   0  153.11    3.16   1
   0  14   0  152.95    3.12   3
   0 -14   0  153.93    3.29   4
   0 -14   0  151.66    3.08   2
  -1 -14   0   23.01    1.16   1
   1 -14   0   22.07    1.16   4
  -1 -14   0   21.81    0.94   2
   1 -14   0   23.50    1.10   3
   1 -14   0   21.60    1.10   2
   1 -14   0   23.03    1.13   1
   1  14   0   22.73    1.01   3
  -1 -14   0   22.28    1.25   4
  -2  14   0  131.91    2.79   1
   2  14   0  134.94    3.15   4
  -2 -14   0  133.45    3.05   1
  -2  14   0  130.34    3.05   2
   2 -14   0  132.97    2.90   4
  -2  14   0  129.71    2.47   5
   2 -14   0  135.48    3.06   3
  -3 -14   0   53.29    1.84   1
  -3  14   0   52.03    1.91   2
   3 -14   0   51.48    1.62   4
   3  14   0   49.85    1.89   4
   3 -14   0   51.23    1.81   3
   4 -14   0   15.67    1.23   3
   4  14   0   19.06    1.41   4
  -4  14   0   20.08    1.42   2
  -4 -14   0   18.13    1.31   1
  -5  14   0    1.06    0.86   2
  -5 -14   0    1.43    0.76   1
   5  14   0    0.45    0.81   4
   5 -14   0    0.92    0.75   3
   6 -14   0    0.00    0.83   3
   6  14   0   -0.67    0.96   4
  -6 -14   0    0.60    0.92   1
  -6  14   0    0.92    1.00   2
   0 -15   0   -0.41    0.52   4
   0 -15   0    0.82    0.48   2
   0 -15   0    1.20    0.49   1
   1  15   0  220.75    4.18   3
   1 -15   0  219.68    4.32   4
  -1 -15   0  218.17    4.33   1
   1  15   0  226.12    4.44   4
   1 -15   0  216.48    4.31   2
   1 -15   0  222.28    4.22   1
  -1 -15   0  216.63    4.04   2
   1 -15   0  215.90    4.33   3
  -2  15   0   38.18    1.56   2
   2  15   0   36.05    1.63   4
  -2 -15   0   37.26    1.53   1
   2 -15   0   36.95    1.46   4
   2 -15   0   37.77    1.52   3
   3 -15   0    1.01    0.59   3
   3  15   0    0.89    0.66   4
   3 -15   0    0.51    0.50   4
  -3 -15   0   -0.20    0.56   1
  -3  15   0   -0.37    0.56   2
   4  15   0   62.38    2.31   4
  -4 -15   0   66.71    2.25   1
   4 -15   0   64.11    2.24   3
  -4  15   0   63.65    2.31   2
  -5 -15   0    6.22    1.03   1
   5  15   0    6.86    1.13   4
   5 -15   0    6.07    1.02   3
  -5  15   0    9.17    1.21   2
   0 -16   0   52.95    1.74   1
   0  16   0   54.99    1.67   3
   0 -16   0   54.03    1.62   2
   0 -16   0   50.60    1.85   4
   1  16   0  607.55   10.27   4
   1 -16   0  615.14   10.07   1
   1 -16   0  601.23   10.28   2
   1 -16   0  601.61   10.38   3
   1 -16   0  604.32   10.14   4
   2  16   0  299.20    5.83   4
  -2  16   0  299.22    5.75   2
   2 -16   0  297.27    5.55   4
   2 -16   0  301.02    5.81   3
  -3  16   0    3.51    0.79   2
   3  16   0    4.83    0.86   4
   3 -16   0    3.89    0.75   3
  -3 -16   0    2.77    0.74   1
  -4 -16   0   47.80    2.00   1
   4  16   0   47.41    2.08   4
  -4  16   0   47.78    2.04   2
   4 -16   0   46.58    1.94   3
   5 -16   0    4.53    0.98   3
   5  16   0    4.11    1.07   4
  -5  16   0    5.08    1.08   2
  -5 -16   0    4.89    1.02   1
   0 -17   0    0.08    0.56   1
   0 -17   0   -0.39    0.53   2
   0 -17   0    0.15    0.63   4
   0  17   0    0.39    0.52   3
   1 -17   0  217.12    4.45   3
   1  17   0  216.33    4.55   4
   1 -17   0  217.72    4.33   1
  -1 -17   0  211.26    4.43   1
   1 -17   0  225.90    4.47   2
   1 -17   0  210.60    4.42   4
   2 -17   0   11.42    0.97   3
   2  17   0   11.35    1.07   4
  -2  17   0   12.14    0.99   2
  -2 -17   0   10.14    0.98   1
   2 -17   0   10.07    0.94   4
  -3  17   0   26.86    1.58   2
   3 -17   0   27.53    1.50   3
  -3 -17   0   26.06    1.46   1
   3  17   0   28.65    1.64   4
   4  17   0   31.10    1.79   4
  -4  17   0   32.53    1.78   2
  -4 -17   0   31.44    1.68   1
   4 -17   0   30.91    1.67   3
  -5 -17   0   15.52    1.41   1
  -5  17   0   13.88    1.42   2
   5  17   0   14.92    1.48   4
   5 -17   0   12.80    1.35   3
   0 -18   0  239.09    4.76   1
   0 -18   0  236.69    4.91   4
  -1 -18   0    7.37    0.88   1
   1 -18   0    9.47    0.96   2
   1 -18   0    7.66    0.85   1
  -1  18   0    8.44    0.83   3
   1  18   0    8.12    0.96   4
   1 -18   0    8.87    0.94   4
  -2  18   0    0.73    0.62   2
   2  18   0    0.20    0.68   4
   2 -18   0    3.34    0.74   3
  -2 -18   0    0.45    0.60   1
   2 -18   0    0.27    0.59   4
   3  18   0   23.51    1.60   4
  -3 -18   0   21.41    1.39   1
   3 -18   0   23.23    1.44   3
  -3  18   0   22.59    1.57   2
  -4  18   0    8.54    1.15   2
  -4 -18   0    9.88    1.14   1
   4 -18   0    9.83    1.14   3
   4  18   0    8.49    1.20   4
   0 -19   0    1.67    0.80   4
  -1 -19   0    0.73    0.63   1
   1 -19   0    0.03    0.63   1
   1  19   0    0.85    0.71   4
  -1  19   0   -0.17    0.55   3
   1 -19   0    0.12    0.62   4
   2 -19   0   18.04    1.26   3
  -2  19   0   20.28    1.47   2
   2 -19   0   20.02    1.35   4
   2  19   0   19.51    1.50   4
  -2 -19   0   21.08    1.35   1
   3 -19   0    6.47    0.97   3
  -3  19   0    4.91    0.98   2
   3  19   0    4.86    1.02   4
  -3 -19   0    3.84    0.89   1
   4  19   0    7.19    1.20   4
  -4 -19   0    5.59    1.01   1
   4 -19   0    5.65    1.06   3
  -4  19   0    4.60    1.08   2
   0  20   0  244.63    5.09   4
   0 -20   0  239.95    4.99   1
   1 -20   0   23.66    1.46   4
  -1 -20   0   22.94    1.42   1
   1 -20   0   20.37    1.45   1
   1  20   0   21.32    1.54   4
   2  20   0    9.10    1.15   4
  -2 -20   0    8.59    1.05   1
   2 -20   0    8.25    1.02   3
   2 -20   0    8.38    1.04   4
  -3  20   0    5.13    1.04   2
  -3 -20   0    6.74    1.03   1
   3  20   0    5.04    1.09   4
   3 -20   0    7.06    1.01   3
  -4 -20   0    2.95    0.97   1
   4 -20   0    3.73    1.01   3
   4  20   0    4.10    1.10   4
  -4  20   0    3.12    1.04   2
   0 -21   0    1.98    0.76   1
   1  21   0    3.37    0.96   4
   1 -21   0    4.41    0.92   1
  -1 -21   0    3.76    0.84   1
   1 -21   0    3.92    0.90   4
   2  21   0    3.74    1.04   4
  -2 -21   0    4.01    0.91   1
   2 -21   0    3.39    0.88   3
   3 -21   0   52.87    2.18   3
  -3 -21   0   50.59    2.20   1
   3  21   0   52.28    2.37   4
   0  22   0   11.01    1.23   4
   0 -22   0   12.05    1.16   1
   1  22   0    3.55    0.95   4
   1 -22   0    2.50    0.93   4
  -1 -22   0    1.19    0.82   1
  -2 -22   0   10.64    1.21   1
   2  22   0    9.83    1.32   4
   0  23   0   -0.49    0.86   4
   0 -23   0    0.26    0.79   1
   1  23   0    8.82    1.26   4
  -1 -23   0   11.05    1.23   1
  -2 -23   0    5.08    1.05   1
   2  23   0    6.19    1.25   4
   7   0  -1   24.43    1.67   3
  -7   0   1   20.08    1.38   2
  -6   0   1   -0.04    0.66   2
  -6   0   1   -0.21    0.61   1
   6   0  -1   -0.37    0.65   3
  -5   0   1  250.11    4.77   2
  -5   0   1  249.86    4.69   1
   5   0  -1  241.81    4.38   4
   5   0  -1  251.26    4.98   3
   4   0  -1   -0.30    0.38   3
  -4   0   1   -0.81    0.36   1
  -4   0   1    0.58    0.40   2
   4   0  -1    0.25    0.34   4
  -3   0   1  135.63    2.58   2
  -3   0   1  132.93    2.59   1
   3   0  -1  134.59    2.71   3
   3   0  -1  136.07    2.35   4
   2   0  -1    0.12    0.21   3
  -2   0   1    0.42    0.25   1
   2   0  -1    0.18    0.14   4
   2   0  -1    0.33    0.20   2
   1   0  -1 5077.35   78.39   3
  -1   0   1 4884.33   76.12   1
  -1   0   1 5203.81   77.46   4
   1   0  -1 5092.16   77.75   2
   1   0   1 8032.34  120.71   3
  -1   0  -1 7882.75  118.04   1
  -1   0  -1 7921.00  118.83   2
   1   0   1 7419.22  115.49   4
   2   0   1    0.02    0.22   3
  -2   0  -1    0.10    0.29   2
  -2   0  -1    0.13    0.20   1
   2   0   1   -0.52    0.28   4
   3   0   1   23.43    1.00   3
   3   0   1   25.06    1.10   4
  -3   0  -1   23.93    1.07   2
  -3   0  -1   24.94    0.88   1
  -4   0  -1    0.66    0.53   2
   4   0   1   -0.35    0.54   4
   4   0   1   -0.04    0.43   3
  -4   0  -1    0.14    0.38   1
   5   0   1    6.92    0.87   4
   5   0   1    8.77    0.87   3
  -5   0  -1    6.15    0.84   2
   6   0   1    0.16    0.67   3
  -6   0  -1   -0.32    0.68   2
  -7   0  -1    3.88    1.03   2
   7  -1  -1    2.33    0.86   3
   7   1  -1    0.96    0.81   3
  -7   1   1    1.48    0.81   2
  -7  -1   1    1.52    0.78   2
   6  -1  -1   29.03    1.62   3
  -6  -1   1   23.20    1.38   2
  -6   1   1   24.21    1.46   2
  -6  -1   1   25.38    1.41   1
   6   1  -1   25.77    1.55   3
  -6   1   1   25.15    1.39   1
   5   1  -1   13.62    0.93   4
   5  -1  -1   12.50    1.03   3
  -5  -1   1   13.70    0.98   1
   5   1  -1   15.60    1.15   3
  -5   1   1   16.03    1.11   2
  -5  -1   1   13.92    0.96   2
  -5   1   1   16.10    1.07   1
  -4   1   1   43.26    1.37   1
  -4   1   1   44.78    1.39   2
  -4  -1   1   43.61    1.39   1
   4  -1  -1   41.13    1.44   3
   4   1  -1   44.51    1.25   4
   4  -1  -1   44.32    1.16   4
   4   1  -1   41.94    1.44   3
  -4  -1   1   42.19    1.31   2
   3   1  -1   50.23    1.39   3
   3  -1  -1   51.64    1.41   3
  -3  -1   1   53.49    1.36   1
   3  -1  -1   52.77    1.11   4
  -3  -1   1   54.09    1.27   2
   3   1  -1   49.73    1.15   4
  -3   1   1   50.24    1.32   2
  -3   1   1   49.65    1.32   1
  -2  -1   1  721.72   11.20   2
   2  -1  -1  719.62   11.47   3
   2   1  -1  712.07   10.87   4
   2  -1  -1  723.09   11.29   2
  -2  -1   1  715.39   11.13   1
  -2   1   1  716.13   11.11   1
   2   1  -1  713.44   11.46   3
   1  -1  -1 3943.70   61.40   3
  -1  -1   1 3917.64   59.25   4
  -1  -1   1 3951.10   59.64   1
  -1   1   1 3904.82   59.63   1
   1   1  -1 4021.94   61.55   2
   1   1  -1 4020.72   61.35   3
   1  -1  -1 3979.01   60.63   2
   0  -1   1   75.40    1.35   3
   0  -1   1   75.49    1.27   1
   0  -1   1   75.84    1.36   4
   0  -1  -1   71.77    1.28   3
   0  -1  -1   75.46    1.32   1
   0   1  -1   75.52    1.35   2
   1   1   1 1295.93   19.42   4
   1   1   1 1285.82   20.17   3
   1  -1   1 1292.64   20.17   3
   1  -1   1 1280.66   19.41   4
  -1  -1  -1 1299.91   19.60   1
  -1   1  -1 1289.86   19.94   2
   2   1   1   82.16    1.80   4
   2  -1   1   82.38    1.77   4
  -2  -1  -1   82.69    1.62   1
   2   1   1   83.09    1.72   3
   2  -1   1   82.18    1.77   3
  -2   1  -1   84.83    1.84   2
  -2   1  -1   84.16    1.54   1
  -3   1  -1  124.00    2.68   2
   3   1   1  131.42    2.63   3
  -3  -1  -1  128.18    2.45   1
  -3   1  -1  130.40    2.37   1
   3   1   1  126.49    2.62   4
  -3  -1  -1  122.89    2.66   2
   3  -1   1  127.91    2.62   4
   3  -1   1  124.13    2.66   3
  -4  -1  -1  226.35    4.37   2
  -4   1  -1  221.52    4.39   2
   4  -1   1  217.43    4.22   4
   4  -1   1  224.01    4.39   3
   4   1   1  227.84    4.35   3
  -4   1  -1  217.22    3.95   1
  -4  -1  -1  219.37    4.04   1
   4   1   1  224.81    4.27   4
   5   1   1    5.02    0.80   4
   5  -1   1    5.32    0.76   3
  -5   1  -1    4.75    0.79   2
   5   1   1    5.80    0.77   3
  -5  -1  -1    6.09    0.80   2
   5  -1   1    4.54    0.76   4
   6   1   1    1.32    0.73   3
   6  -1   1    1.83    0.76   3
  -6   1  -1    1.95    0.76   2
  -6  -1  -1    2.07    0.80   2
  -7   1  -1    4.13    1.05   2
  -7  -1  -1    5.73    1.08   2
  -7   2   1   12.61    1.20   2
   7   2  -1   14.36    1.32   3
   7  -2  -1   13.00    1.27   3
   6  -2  -1   -0.14    0.71   3
  -6  -2   1    0.31    0.64   2
  -6  -2   1    1.69    0.72   1
  -6   2   1    2.05    0.76   2
   6   2  -1    2.16    0.76   3
  -5   2   1   26.55    1.23   1
   5   2  -1   24.86    1.31   3
  -5  -2   1   24.51    1.28   1
  -5  -2   1   25.66    1.23   2
   5   2  -1   26.22    1.17   4
   5  -2  -1   23.66    1.35   3
  -5   2   1   26.82    1.30   2
   4  -2  -1  189.67    3.38   4
  -4  -2   1  197.73    3.77   1
   4   2  -1  196.08    3.90   3
  -4  -2   1  199.60    3.68   2
   4   2  -1  200.99    3.56   4
   4  -2  -1  202.23    3.97   3
  -4   2   1  195.20    3.82   2
  -4   2   1  200.43    3.71   1
  -3   2   1  196.66    3.63   2
   3   2  -1  203.44    3.39   4
  -3   2   1  199.97    3.53   1
  -3  -2   1  198.64    3.58   1
  -3  -2   1  196.27    3.45   2
   3   2  -1  194.66    3.68   3
   3  -2  -1  193.57    3.21   4
   3  -2  -1  202.00    3.73   3
  -2   2   1    8.05    0.55   1
  -2  -2   1    7.99    0.54   1
   2   2  -1    8.90    0.55   3
  -2  -2   1   10.78    0.43   2
   2  -2  -1    7.80    0.52   2
   2  -2  -1    7.60    0.55   3
   2   2  -1    7.89    0.42   4
  -1   2   1  792.28   12.20   1
   1  -2  -1  800.08   12.54   3
   1   2  -1  791.99   12.53   3
  -1  -2   1  793.17   12.20   1
  -1  -2   1  792.54   12.04   4
   1  -2  -1  807.19   12.40   2
   0  -2   1 4743.82   69.50   4
   0  -2   1 4467.41   72.36   3
   0  -2   1 4938.39   72.82   1
   0   2  -1 4569.34   71.71   2
  -1  -2  -1    6.96    0.36   1
  -1  -2  -1    7.29    0.55   2
  -1   2  -1    8.70    0.57   2
   1  -2   1    6.93    0.43   4
   1  -2   1    8.22    0.54   3
   1   2   1    7.88    0.58   4
   1   2   1    6.32    0.38   3
  -2  -2  -1  119.77    2.36   2
  -2   2  -1  118.88    2.39   2
   2   2   1  120.59    2.35   4
   2  -2   1  118.85    2.37   3
  -2   2  -1  118.20    2.04   1
   2   2   1  121.59    2.26   3
  -2  -2  -1  121.43    2.22   1
   2  -2   1  116.90    2.30   4
   3   2   1   82.95    1.91   3
   3  -2   1   82.55    1.99   3
  -3  -2  -1   82.05    1.83   1
  -3   2  -1   80.65    2.01   2
  -3  -2  -1   81.08    1.97   2
   3  -2   1   91.51    1.99   4
   3   2   1   83.66    2.00   4
  -3   2  -1   81.90    1.67   1
  -4  -2  -1   13.60    1.03   2
   4  -2   1   11.90    0.96   3
   4   2   1   12.99    1.01   4
  -4  -2  -1   12.80    0.90   1
  -4   2  -1   13.39    0.95   2
   4   2   1   13.47    0.94   3
   4  -2   1   11.77    0.87   4
   5  -2   1   24.77    1.33   3
   5  -2   1   23.24    1.34   4
  -5   2  -1   19.97    1.28   2
   5   2   1   20.03    1.30   4
   5   2   1   22.03    1.28   3
  -5  -2  -1   22.19    1.25   2
  -6   2  -1   12.76    1.17   2
   6  -2   1   12.72    1.15   3
   6   2   1   12.87    1.23   4
  -6  -2  -1   12.10    1.13   2
   7  -2   1   29.46    1.94   3
  -7  -2  -1   26.83    1.72   2
  -7   2  -1   23.66    1.70   2
  -7   3   1    5.94    1.05   2
   7   3  -1    6.07    1.04   3
   7  -3  -1    8.18    1.10   3
   6  -3  -1   21.21    1.48   3
  -6   3   1   22.53    1.43   2
   6   3  -1   21.45    1.43   3
  -6  -3   1   17.99    1.25   2
  -6  -3   1   19.48    1.33   1
  -5   3   1   10.25    0.84   1
  -5  -3   1    9.28    0.76   2
   5   3  -1   10.20    0.78   4
   5  -3  -1    7.43    0.85   3
   5   3  -1    9.65    0.88   3
  -5   3   1    8.77    0.85   2
  -5  -3   1    8.72    0.84   1
   4   3  -1    1.05    0.46   3
  -4   3   1    1.78    0.50   1
  -4  -3   1    0.50    0.46   1
  -4  -3   1    0.93    0.40   2
   4   3  -1    0.69    0.38   4
  -4   3   1    1.08    0.45   2
   4  -3  -1    0.94    0.46   3
   4  -3  -1    0.55    0.33   4
  -3   3   1   15.16    0.81   2
  -3   3   1   16.01    0.81   1
   3   3  -1   16.48    0.76   4
  -3  -3   1   16.89    0.69   2
  -3  -3   1   16.70    0.84   1
   3   3  -1   14.51    0.82   3
   3  -3  -1   16.99    0.85   3
   2  -3  -1  732.40   11.49   2
  -2  -3   1  727.90   11.25   2
  -2   3   1  725.68   11.23   1
  -2  -3   1  705.34   11.27   1
   2  -3  -1  726.44   11.60   3
  -2  -3   1  724.52   11.07   4
   1  -3  -1 1616.14   24.74   2
  -1   3   1 1612.44   24.42   4
   1  -3  -1 1615.45   25.04   3
  -1  -3   1 1594.61   24.34   1
  -1  -3   1 1629.49   24.06   4
  -1   3   1 1571.82   21.50   5
   1   3  -1 1630.88   25.04   3
  -1   3   1 1587.57   24.34   1
   0  -3  -1 9735.16  146.04   2
   0  -3   1 9530.61  145.90   1
   0  -3  -1 9281.17  143.72   1
   0   3   1 9821.76  142.08   4
   1   3   1 5409.86   80.83   4
   1  -3   1 5598.24   80.88   4
   1   3   1 5477.33   85.13   3
  -1  -3  -1 5536.77   83.16   2
  -1  -3  -1 5745.39   81.95   1
  -1   3  -1 5272.18   83.11   2
   1  -3   1 5188.28   84.19   3
  -2   3  -1    0.52    0.32   2
   2   3   1   -0.04    0.30   4
   2   3   1    0.10    0.23   3
  -2  -3  -1    0.48    0.25   1
  -2  -3  -1    0.38    0.30   2
   2  -3   1    0.75    0.33   4
   2  -3   1    0.50    0.29   3
  -3   3  -1  106.46    1.97   1
   3   3   1  106.65    2.24   3
   3   3   1  103.10    2.33   4
  -3  -3  -1  103.15    2.19   1
   3  -3   1  105.77    2.38   3
   3  -3   1  104.32    2.27   4
  -3  -3  -1  108.53    2.34   2
  -3   3  -1  107.54    2.42   2
  -4   3  -1    4.42    0.68   2
   4   3   1    4.50    0.70   4
   4   3   1    4.23    0.60   3
  -4  -3  -1    3.37    0.63   2
  -4  -3  -1    3.61    0.56   1
   4  -3   1    4.45    0.66   4
   4  -3   1    3.14    0.58   3
   5  -3   1   38.67    1.60   4
  -5  -3  -1   39.12    1.57   2
  -5   3  -1   39.84    1.68   2
   5   3   1   38.90    1.61   4
   5   3   1   41.64    1.60   3
   5  -3   1   40.06    1.66   3
   6  -3   1   -0.14    0.68   3
  -6   3  -1   -0.75    0.67   2
   6   3   1    0.57    0.81   4
  -6  -3  -1   -0.41    0.66   2
  -7  -3  -1    5.70    1.08   2
  -7   3  -1    4.27    1.07   2
   7  -3   1    6.09    1.16   3
   7   4  -1    2.28    0.90   3
  -7   4   1    0.16    0.84   2
   7  -4  -1    1.79    0.82   3
  -6   4   1   95.38    2.77   2
   6  -4  -1   98.79    2.91   3
  -6  -4   1  104.95    2.76   1
   6   4  -1  103.03    2.85   3
  -6  -4   1   99.08    2.56   2
  -5  -4   1   45.09    1.64   1
  -5   4   1   44.63    1.54   1
   5  -4  -1   42.43    1.70   3
   5   4  -1   44.84    1.53   4
  -5   4   1   45.48    1.67   2
   5   4  -1   48.15    1.69   3
  -5  -4   1   44.12    1.48   2
   4   4  -1   29.01    1.09   4
  -4  -4   1   29.07    1.05   2
   4  -4  -1   25.82    1.21   3
  -4  -4   1   28.56    1.20   1
  -4   4   1   27.50    1.11   1
   4   4  -1   28.06    1.16   3
   4  -4  -1   27.64    0.86   4
  -4   4   1   26.18    1.19   2
   3  -4  -1  556.68    9.16   2
   3  -4  -1  561.00    9.25   3
  -3   4   1  550.87    8.84   1
   3   4  -1  557.59    8.76   4
   3   4  -1  549.84    9.17   3
  -3  -4   1  550.87    8.97   1
  -3  -4   1  550.81    8.79   2
   2  -4  -1  968.18   15.09   2
  -2  -4   1  961.01   14.82   1
   2   4  -1  966.52   15.19   3
   2  -4  -1  952.79   15.22   3
  -2   4   1  949.60   14.74   1
  -2  -4   1  940.26   14.84   2
  -2  -4   1  971.36   14.60   4
  -1   4   1  762.19   11.66   4
  -1   4   1  773.19   10.50   5
  -1  -4   1  778.81   11.88   1
   1   4  -1  759.82   12.19   3
  -1   4   1  766.11   11.88   1
   1  -4  -1  764.99   12.09   2
  -1  -4   1  783.54   11.78   4
   1  -4  -1  782.75   12.18   3
   0  -4   1  124.31    2.05   1
   0  -4   1  134.88    2.25   3
   0  -4  -1  120.67    2.18   1
   0   4   1  119.51    2.14   4
   0  -4  -1  120.79    2.18   2
   0   4  -1  120.85    2.11   2
   0  -4   1  117.93    2.19   4
   1  -4   1 3714.95   53.72   4
  -1  -4  -1 3734.75   55.22   2
  -1  -4  -1 3613.09   54.38   1
   1   4   1 3508.43   53.70   4
   1  -4   1 3474.88   55.92   3
  -1   4  -1 3654.91   55.22   2
  -2  -4  -1 1136.46   17.59   1
   2   4   1 1164.03   17.50   4
   2  -4   1 1157.50   17.40   4
  -2   4  -1 1144.36   17.96   2
  -2  -4  -1 1149.06   17.86   2
   2  -4   1 1111.22   18.15   3
   2   4   1 1140.22   17.95   3
   3   4   1    7.28    0.54   3
  -3   4  -1    7.37    0.52   1
   3   4   1    6.73    0.65   4
  -3   4  -1    8.17    0.69   2
   3  -4   1    7.18    0.62   4
   3  -4   1    7.45    0.63   3
  -3  -4  -1    7.05    0.61   2
  -3  -4  -1    7.08    0.57   1
  -4  -4  -1   20.20    1.11   2
   4  -4   1   20.77    1.13   4
   4   4   1   20.24    1.23   4
  -4   4  -1   18.80    1.20   2
  -4  -4  -1   20.55    1.04   1
   4   4   1   18.69    1.03   3
   4  -4   1   22.40    1.17   3
   5  -4   1    1.12    0.60   3
  -5   4  -1    1.55    0.67   2
   5   4   1    0.50    0.64   4
  -5  -4  -1    0.91    0.62   2
  -5  -4  -1    1.60    0.57   1
   5   4   1    1.09    0.60   3
   5  -4   1    1.81    0.64   4
  -6  -4  -1   -0.38    0.68   2
   6   4   1    0.19    0.78   4
  -6   4  -1   -0.76    0.72   2
   6  -4   1   -0.56    0.71   3
   7  -4   1    6.43    1.15   3
  -7   4  -1    4.12    1.11   2
   7  -5  -1    0.10    0.77   3
   7   5  -1    0.19    0.80   3
  -7   5   1   -0.41    0.86   2
  -7  -5   1    1.33    0.84   1
  -6   5   1   -0.44    0.66   2
  -6  -5   1    0.97    0.68   1
   6  -5  -1   -0.28    0.64   3
   6   5  -1   -0.41    0.63   4
   6   5  -1   -0.14    0.66   3
   5  -5  -1   28.88    1.46   3
  -5  -5   1   28.38    1.39   1
  -5  -5   1   32.20    1.25   2
  -5   5   1   30.83    1.31   1
   5   5  -1   30.21    1.30   4
  -5   5   1   28.76    1.41   2
   5   5  -1   30.50    1.39   3
   4  -5  -1    4.35    0.62   3
  -4  -5   1    5.55    0.50   2
   4   5  -1    5.28    0.58   4
  -4   5   1    4.28    0.61   2
   4   5  -1    7.36    0.67   3
  -4  -5   1    4.32    0.63   1
  -4   5   1    4.53    0.59   1
  -3   5   1  622.51    9.88   1
   3   5  -1  622.95    9.84   4
  -3  -5   1  624.24    9.82   2
   3  -5  -1  613.40   10.33   3
   3   5  -1  625.96   10.24   3
  -3  -5   1  624.55   10.04   1
   3  -5  -1  624.85   10.26   2
   2  -5  -1  613.70    9.79   2
   2   5  -1  591.21    9.76   3
   2  -5  -1  618.03    9.84   3
  -2  -5   1  593.21    9.58   1
  -2  -5   1  602.71    9.46   4
  -2   5   1  609.10    9.50   1
   1  -5  -1 2343.84   35.27   1
   1   5  -1 2308.15   36.24   3
  -1  -5   1 2323.31   34.85   4
  -1  -5   1 2329.11   35.25   1
   1  -5  -1 2394.07   34.83   4
   1  -5  -1 2306.62   35.83   2
   1  -5  -1 2341.82   36.24   3
   0  -5  -1  730.16   11.64   3
   0  -5  -1  734.48   11.55   2
   0   5  -1  735.14   11.48   2
   0  -5  -1  750.63   11.41   1
   0  -5   1  741.29   11.30   1
   0  -5   1  735.13   11.30   4
   0   5   1  742.16   11.26   4
   0  -5   1  729.26   11.71   3
  -1  -5  -1  176.78    3.05   2
   1  -5   1  172.83    3.17   3
   1  -5   1  175.37    3.04   4
   1   5   1  168.95    3.09   4
  -1   5  -1  172.82    3.11   2
  -1  -5  -1  171.83    3.07   1
   2   5   1 1442.24   22.60   3
   2  -5   1 1457.00   22.86   3
   2  -5   1 1430.17   21.87   4
  -2   5  -1 1455.78   22.58   2
  -2  -5  -1 1447.00   22.16   1
   2   5   1 1454.25   21.99   4
  -2  -5  -1 1437.51   22.44   2
   3   5   1   17.47    1.02   4
  -3  -5  -1   17.45    0.90   2
   3  -5   1   15.52    0.92   3
   3   5   1   16.49    0.81   3
  -3   5  -1   16.73    1.01   2
  -3  -5  -1   13.82    0.81   1
   3  -5   1   15.35    0.90   4
  -4   5  -1   26.96    1.37   2
   4  -5   1   23.76    1.15   4
  -4  -5  -1   24.04    1.16   2
  -4  -5  -1   22.54    1.09   1
   4  -5   1   21.98    1.21   3
   4   5   1   22.34    1.29   4
   4   5   1   22.95    1.10   3
  -5  -5  -1   24.13    1.29   2
  -5  -5  -1   24.54    1.25   1
   5  -5   1   25.39    1.30   4
   5   5   1   23.17    1.40   4
  -5   5  -1   24.93    1.45   2
   5  -5   1   24.39    1.43   3
   6  -5   1    1.45    0.79   3
  -6   5  -1    1.43    0.83   2
   6   5   1    1.06    0.81   4
  -6  -5  -1    1.42    0.79   2
   7  -6  -1    8.07    1.14   3
  -7  -6   1    8.81    1.13   1
  -7   6   1    6.92    1.13   2
  -6  -6   1   26.67    1.53   1
   6   6  -1   26.52    1.50   4
   6   6  -1   28.83    1.59   3
   6  -6  -1   25.64    1.54   3
  -6   6   1   24.94    1.51   2
   5  -6  -1    0.05    0.55   3
  -5  -6   1   -0.19    0.43   2
   5   6  -1   -0.24    0.49   4
   5   6  -1    0.09    0.55   3
  -5   6   1   -0.70    0.50   2
  -5   6   1    0.70    0.55   1
  -5  -6   1   -0.55    0.53   1
  -4   6   1    2.19    0.51   1
  -4  -6   1    0.97    0.52   1
  -4  -6   1    1.80    0.41   2
   4  -6  -1    1.36    0.50   3
  -4   6   1    1.30    0.55   2
   4   6  -1    1.71    0.49   3
   4   6  -1    1.32    0.46   4
  -3  -6   1  169.46    2.94   2
   3   6  -1  170.15    3.22   4
  -3   6   1  171.39    3.17   1
   3  -6  -1  166.62    3.40   3
  -3  -6   1  170.20    3.32   1
   3   6  -1  174.02    3.30   3
   3  -6  -1  169.90    3.43   2
   2   6  -1    3.48    0.38   3
  -2  -6   1    2.83    0.39   4
   2  -6  -1    2.59    0.24   4
   2  -6  -1    1.91    0.35   3
  -2   6   1    2.88    0.35   1
   2  -6  -1    3.51    0.43   2
  -2  -6   1    3.37    0.42   1
   1  -6  -1   23.82    0.82   2
   1  -6  -1   24.70    0.81   1
   1   6  -1   25.56    0.76   3
   1  -6  -1   23.67    0.73   3
   1  -6  -1   24.26    0.71   4
  -1  -6   1   26.55    0.85   4
  -1  -6   1   25.33    0.79   1
   0  -6   1  827.07   13.02   1
   0  -6  -1  841.63   13.31   2
   0   6   1  847.24   12.99   4
   0   6  -1  863.61   13.25   2
   0  -6  -1  860.24   13.17   1
   0  -6   1  853.34   13.53   3
   0  -6  -1  870.81   13.38   3
   0  -6   1  848.77   13.05   4
   1  -6   1    6.07    0.46   3
  -1   6  -1    6.22    0.48   2
   1   6   1    6.96    0.52   4
   1  -6   1    5.91    0.44   1
  -1  -6  -1    7.36    0.55   2
  -1  -6  -1    6.63    0.48   1
   1   6   1    6.43    0.40   3
   1  -6   1    6.30    0.46   4
   2   6   1  363.28    6.22   4
  -2   6  -1  375.14    6.36   2
  -2  -6  -1  376.17    6.21   1
   2  -6   1  367.19    6.41   3
   2  -6   1  376.62    6.09   4
  -2  -6  -1  370.57    6.19   2
   2   6   1  368.62    6.08   3
  -3  -6  -1    6.87    0.62   2
   3  -6   1    5.74    0.62   3
  -3   6  -1    6.34    0.66   2
  -3  -6  -1    5.93    0.59   1
   3  -6   1    7.69    0.63   4
   3   6   1    5.65    0.65   4
   3   6   1    6.54    0.54   3
   4  -6   1  221.77    4.50   3
  -4  -6  -1  216.56    4.24   1
  -4   6  -1  219.15    4.48   2
   4   6   1  217.49    4.19   3
   4  -6   1  218.97    4.13   4
  -4  -6  -1  217.10    4.24   2
   5   6   1    0.12    0.65   4
  -5   6  -1   -0.05    0.68   2
   5  -6   1   -0.36    0.57   3
  -5  -6  -1   -0.29    0.59   2
  -5  -6  -1   -0.64    0.51   1
   6  -6   1    4.03    0.91   3
  -6  -6  -1    3.26    0.86   2
   6   6   1    3.16    0.94   4
  -6   6  -1    2.85    0.94   2
  -7  -7   1   15.00    1.38   1
   7  -7  -1   14.35    1.38   3
  -7   7   1   14.70    1.40   2
   6   7  -1    9.52    1.02   3
   6  -7  -1    7.13    0.98   3
   6   7  -1    9.94    1.05   4
  -6  -7   1    9.52    1.07   1
  -6   7   1    8.66    1.07   2
   5   7  -1   60.52    1.92   3
  -5  -7   1   62.02    2.02   1
   5   7  -1   65.62    1.94   4
  -5   7   1   62.41    2.06   2
   5  -7  -1   61.41    2.09   3
   4  -7  -1   16.95    1.09   3
  -4   7   1   19.25    1.09   1
   4   7  -1   17.67    1.04   3
  -4  -7   1   18.31    1.09   1
  -4  -7   1   17.17    0.81   2
  -4   7   1   16.28    1.10   2
   4   7  -1   19.80    1.09   4
   3   7  -1    2.61    0.45   4
  -3  -7   1    2.25    0.48   1
   3  -7  -1    3.04    0.53   2
   3  -7  -1    2.49    0.30   4
  -3  -7   1    2.86    0.31   2
   3  -7  -1    2.52    0.46   3
   3   7  -1    2.80    0.45   3
  -3   7   1    2.42    0.43   1
   2  -7  -1  290.92    4.71   4
  -2  -7   1  297.87    5.07   1
  -2  -7   1  294.42    5.05   4
   2   7  -1  292.67    5.08   3
   2  -7  -1  299.24    5.21   2
   2  -7  -1  299.60    5.16   3
  -2   7   1  295.32    4.97   1
  -1  -7   1  104.55    2.05   1
  -1  -7   1  106.96    2.14   4
   1  -7  -1  107.34    2.08   1
   1   7  -1  100.65    2.07   3
   1  -7  -1  108.96    2.17   2
   1  -7  -1  104.72    1.97   4
   1  -7  -1  105.36    2.02   3
   0  -7  -1  362.03    6.02   2
   0   7   1  364.84    5.91   4
   0  -7   1  360.42    5.83   1
   0  -7   1  364.73    5.98   4
   0  -7  -1  369.45    5.91   3
   0  -7   1  368.57    6.14   3
   0   7  -1  371.99    5.92   2
   0  -7  -1  368.59    5.99   1
   1   7   1 1663.63   25.11   4
   1  -7   1 1640.87   25.15   1
   1   7   1 1669.00   25.89   3
   1  -7   1 1653.95   25.04   4
  -1  -7  -1 1660.49   25.37   1
   1  -7   1 1650.69   26.10   3
  -1  -7  -1 1687.87   25.64   2
  -1   7  -1 1670.87   25.72   2
  -2  -7  -1  515.02    8.46   2
   2   7   1  522.68    8.39   3
   2   7   1  523.20    8.50   4
  -2  -7  -1  525.51    8.50   1
  -2   7  -1  523.72    8.67   2
   2  -7   1  511.34    8.77   3
   2  -7   1  526.50    8.34   4
   3  -7   1  189.32    3.83   3
   3   7   1  187.55    3.75   4
  -3  -7  -1  190.19    3.59   2
   3  -7   1  187.50    3.53   4
   3   7   1  184.55    3.47   3
  -3  -7  -1  187.67    3.65   1
  -3   7  -1  187.93    3.81   2
   4  -7   1   79.97    2.29   3
   4  -7   1   75.34    2.00   4
  -4  -7  -1   78.82    2.11   1
  -4   7  -1   79.26    2.32   2
   4   7   1   75.22    2.25   4
  -4  -7  -1   76.79    2.06   2
  -5  -7  -1   19.03    1.23   1
  -5  -7  -1   16.91    1.16   2
  -5   7  -1   19.12    1.37   2
   5   7   1   19.04    1.36   4
   5  -7   1   16.61    1.29   3
   6   7   1    6.37    1.08   4
  -6   7  -1    7.52    1.13   2
   6  -7   1    6.73    1.05   3
  -7  -8   1   47.67    2.18   1
   7  -8  -1   46.83    2.18   3
  -7   8   1   46.86    2.25   2
   6   8  -1    0.96    0.76   4
   6  -8  -1    0.73    0.72   3
  -6   8   1    0.48    0.78   2
   6   8  -1    1.96    0.73   3
  -6  -8   1    1.66    0.79   1
  -5  -8   1   84.97    2.39   1
   5  -8  -1   83.54    2.47   3
   5   8  -1   78.62    2.25   3
  -5   8   1   78.18    2.40   2
   5   8  -1   79.60    2.26   4
  -4  -8   1  278.11    5.31   1
  -4   8   1  285.26    5.47   2
   4  -8  -1  287.33    5.51   3
   4   8  -1  292.51    5.25   4
  -4   8   1  284.21    5.07   1
   4   8  -1  286.13    5.32   3
   3   8  -1   76.07    1.86   3
  -3  -8   1   74.13    1.92   1
   3  -8  -1   75.91    1.96   3
  -3   8   1   78.48    1.82   1
   3   8  -1   74.71    1.90   4
   3  -8  -1   75.89    2.03   2
   3  -8  -1   74.52    1.52   4
  -2  -8   1   30.30    1.07   1
   2   8  -1   33.91    1.05   3
   2  -8  -1   32.29    1.08   3
  -2   8   1   33.79    0.92   5
   2  -8  -1   33.98    1.16   2
   2  -8  -1   33.09    0.90   4
  -2   8   1   31.95    1.05   1
  -2  -8   1   34.29    1.15   4
   1  -8  -1   89.86    1.93   2
  -1  -8   1   85.14    1.93   4
   1  -8  -1   90.18    1.88   1
   1   8  -1   87.97    1.86   3
   1  -8  -1   88.86    1.78   4
   1  -8  -1   87.24    1.80   3
  -1  -8   1   84.10    1.82   1
   0  -8  -1  887.09   14.01   2
   0   8   1  893.14   13.70   4
   0  -8   1  887.13   14.24   3
   0  -8   1  887.69   13.72   1
   0   8  -1  882.26   13.91   2
   0  -8  -1  903.85   14.03   3
   0  -8   1  901.34   13.78   4
   0  -8  -1  885.42   13.87   1
  -1   8  -1   41.12    1.19   2
   1  -8   1   41.13    1.20   4
   1  -8   1   39.74    0.96   1
   1   8   1   40.60    1.23   4
   1   8   1   39.64    0.90   3
  -1  -8  -1   38.74    1.10   2
  -1  -8  -1   39.39    1.18   1
   1  -8   1   40.79    1.21   3
   2  -8   1 1084.37   16.51   4
  -2   8  -1 1050.47   17.05   2
  -2  -8  -1 1072.83   16.79   1
   2   8   1 1098.45   16.90   3
  -2   8  -1 1079.23   16.37   1
  -2  -8  -1 1075.82   16.84   2
   2  -8   1 1052.93   17.28   3
   3   8   1   14.36    0.87   3
   3   8   1   14.81    1.12   4
  -3  -8  -1   17.42    0.99   2
  -3  -8  -1   16.69    1.02   1
   3  -8   1   16.56    1.07   3
  -3   8  -1   16.14    1.12   2
   3  -8   1   14.43    0.99   4
  -4   8  -1  112.09    2.91   2
   4   8   1  117.61    2.90   4
   4  -8   1  112.60    2.90   3
   4  -8   1  113.74    2.58   4
  -4  -8  -1  112.65    2.63   2
  -4  -8  -1  111.86    2.72   1
   5  -8   1   16.03    1.30   3
  -5  -8  -1   19.44    1.27   2
  -5  -8  -1   18.03    1.26   1
  -5   8  -1   17.56    1.33   2
   5   8   1   18.12    1.30   4
   6  -8   1   67.41    2.50   3
   6   8   1   64.87    2.43   4
  -6   8  -1   64.93    2.49   2
  -7  -9   1   41.56    2.09   1
  -7   9   1   37.55    2.10   2
   7  -9  -1   35.59    2.03   3
   6   9  -1   -0.45    0.72   4
  -6   9   1    0.89    0.80   2
   6  -9  -1    0.03    0.67   3
  -6  -9   1   -0.16    0.71   1
   5   9  -1   25.30    1.36   4
  -5   9   1   21.29    1.39   2
  -5  -9   1   25.70    1.44   1
   5   9  -1   24.04    1.26   3
   5  -9  -1   24.67    1.41   3
  -4  -9   1   77.37    2.19   1
   4   9  -1   80.43    2.17   4
  -4   9   1   79.53    2.02   1
   4  -9  -1   77.85    2.24   3
  -4   9   1   79.72    2.29   2
   4   9  -1   79.10    2.10   3
  -3   9   1   88.99    2.05   1
   3   9  -1   88.63    2.10   3
   3  -9  -1   91.77    2.33   2
   3   9  -1   93.68    2.23   4
   3  -9  -1   90.74    2.24   3
   3  -9  -1   91.92    1.82   4
  -3  -9   1   92.72    2.23   1
   2  -9  -1  317.17    5.66   2
  -2  -9   1  314.18    5.50   1
  -2   9   1  316.66    5.40   1
   2  -9  -1  315.20    5.58   3
   2   9  -1  323.29    5.55   3
   2  -9  -1  324.17    5.20   4
  -2  -9   1  319.38    5.54   4
  -2   9   1  317.58    4.78   5
   1  -9  -1  921.07   14.49   2
   1   9  -1  917.37   14.57   3
   1  -9  -1  912.10   14.21   1
   1  -9  -1  895.76   14.47   3
  -1  -9   1  895.86   14.16   4
  -1  -9   1  907.55   14.19   1
   1  -9  -1  918.37   13.98   4
  -1  -9   1  914.70   14.13   2
   0   9   1   46.57    1.28   4
   0  -9   1   47.66    1.29   3
   0  -9   1   43.54    1.12   1
   0  -9   1   44.66    1.31   4
   0  -9  -1   45.64    1.23   2
   0   9  -1   44.62    1.14   2
   0  -9  -1   46.59    1.09   3
  -1   9  -1   -0.08    0.29   2
  -1  -9  -1    0.82    0.32   1
  -1  -9  -1    0.33    0.25   2
   1  -9   1    0.02    0.30   4
   1   9   1    0.86    0.23   3
   1  -9   1    0.11    0.32   3
   1   9   1    1.07    0.38   4
  -2   9  -1   21.46    0.77   1
   2   9   1   20.20    0.80   3
  -2  -9  -1   21.20    0.94   2
   2  -9   1   22.41    1.09   3
   2  -9   1   20.46    1.05   4
  -2  -9  -1   23.41    1.09   1
  -2   9  -1   22.88    1.08   2
   2   9   1   21.94    1.11   4
  -3   9  -1  733.46   12.05   2
   3  -9   1  727.14   12.20   3
   3   9   1  713.89   11.78   4
  -3  -9  -1  723.17   11.79   1
   3  -9   1  720.56   11.48   4
  -3  -9  -1  713.22   11.68   2
  -4   9  -1   -0.23    0.59   2
  -4  -9  -1   -0.19    0.52   1
   4  -9   1    0.38    0.57   3
  -4  -9  -1    0.34    0.49   2
   4   9   1   -0.49    0.57   4
   4  -9   1   -0.23    0.49   4
  -5  -9  -1   50.09    1.90   1
   5  -9   1   48.05    1.98   3
   5   9   1   48.16    1.99   4
  -5   9  -1   48.73    2.02   2
   6   9   1    4.07    1.09   4
   6  -9   1    6.48    1.06   3
  -6   9  -1    5.52    1.10   2
   7 -10  -1    3.63    1.10   3
  -7  10   1    3.06    1.13   2
  -7 -10   1    4.32    1.05   1
   6  10  -1   -0.22    0.73   4
  -6 -10   1    0.80    0.77   1
   6 -10  -1    0.66    0.74   3
  -6  10   1   -0.50    0.79   2
  -5  10   1   14.55    1.18   2
   5  10  -1   14.21    1.06   3
  -5 -10   1   16.77    1.27   1
   5  10  -1   16.91    1.24   4
   5 -10  -1   12.46    1.09   3
  -4  10   1   22.12    1.18   1
  -4  10   1   21.86    1.32   2
   4  10  -1   22.09    1.16   3
   4 -10  -1   22.02    1.24   3
  -4 -10   1   23.96    1.28   1
   4  10  -1   23.44    1.26   4
   3 -10  -1   17.86    1.01   3
   3 -10  -1   17.23    0.76   4
  -3 -10   1   19.55    1.06   1
  -3  10   1   17.52    0.95   1
   3  10  -1   17.04    1.05   4
   3 -10  -1   18.76    1.12   2
   3  10  -1   18.57    0.94   3
   2 -10  -1   12.07    0.80   3
   2 -10  -1   12.40    0.87   2
  -2 -10   1   11.60    0.81   1
  -2  10   1   12.72    0.81   1
   2  10  -1   12.89    0.78   3
  -2  10   1   12.03    0.70   5
   2 -10  -1   13.17    0.72   4
  -2 -10   1   11.95    0.89   4
   1 -10  -1   36.46    1.12   4
   1 -10  -1   34.02    1.16   2
   1 -10  -1   32.72    1.04   3
   1 -10  -1   36.09    1.16   1
   1  10  -1   36.75    1.12   3
  -1 -10   1   31.69    1.09   1
  -1 -10   1   33.68    0.87   2
  -1 -10   1   33.75    1.22   4
   0 -10   1   14.02    0.77   3
   0  10   1   14.06    0.59   3
   0 -10   1   12.50    0.67   1
   0  10  -1    9.12    0.66   2
   0 -10  -1   12.60    0.72   2
   0  10   1   11.03    0.76   4
   0 -10  -1   13.72    0.78   1
   0 -10   1   11.40    0.78   4
   1 -10   1  370.36    5.89   1
   1  10   1  362.08    6.20   4
  -1 -10  -1  360.12    6.08   2
  -1 -10  -1  363.81    6.21   1
  -1  10  -1  359.96    6.19   2
   1 -10   1  363.89    6.35   3
   1  10   1  362.49    5.94   3
   1 -10   1  356.63    6.13   4
  -2 -10  -1  246.29    4.33   2
   2  10   1  242.41    4.59   4
  -2 -10  -1  248.25    4.56   1
   2 -10   1  243.51    4.67   3
   2 -10   1  238.16    4.40   4
  -2  10  -1  243.67    4.59   2
  -3 -10  -1  254.00    4.87   1
   3  10   1  263.43    4.98   4
   3 -10   1  258.82    5.07   3
  -3 -10  -1  252.45    4.64   2
   3 -10   1  250.70    4.68   4
  -3  10  -1  254.04    5.00   2
   4 -10   1   -0.35    0.50   4
   4 -10   1   -0.04    0.55   3
   4  10   1    0.64    0.66   4
  -4 -10  -1    0.30    0.56   1
  -4  10  -1    0.18    0.61   2
  -4 -10  -1    0.67    0.50   2
   5 -10   1    3.02    0.85   3
  -5  10  -1    2.87    0.88   2
   5  10   1    3.36    0.93   4
  -5 -10  -1    5.21    0.88   1
  -6  10  -1   18.02    1.51   2
   6 -10   1   19.77    1.61   3
  -6 -10  -1   18.57    1.41   1
   6  10   1   16.10    1.48   4
  -6  11   1    1.09    0.84   2
   6 -11  -1   -0.92    0.75   3
   6  11  -1    0.20    0.80   4
  -6 -11   1    0.56    0.74   1
  -5 -11   1   11.71    1.06   1
   5  11  -1    9.97    1.02   4
   5 -11  -1    9.67    1.02   3
  -5  11   1   12.03    1.13   2
   4  11  -1    9.93    0.82   3
   4 -11  -1    8.48    0.86   3
  -4  11   1    7.51    0.91   2
  -4 -11   1   11.22    0.94   1
   4  11  -1    9.17    0.91   4
   3 -11  -1    5.26    0.51   4
   3  11  -1    3.28    0.63   4
   3 -11  -1    5.06    0.63   3
  -3  11   1    5.26    0.59   1
  -3 -11   1    7.20    0.73   1
   3  11  -1    5.69    0.62   3
   3 -11  -1    5.85    0.74   2
   2  11  -1  213.74    4.08   3
   2 -11  -1  220.57    4.16   3
   2 -11  -1  225.06    3.90   4
   2 -11  -1  219.16    4.27   2
  -2  11   1  221.39    3.57   5
  -2 -11   1  218.79    4.22   4
  -2 -11   1  215.57    4.13   1
  -2  11   1  218.28    4.03   1
  -1 -11   1   62.13    1.59   1
   1 -11  -1   62.25    1.60   4
   1  11  -1   61.12    1.59   3
   1 -11  -1   59.28    1.65   2
   1 -11  -1   59.69    1.60   1
  -1 -11   1   61.27    1.73   4
  -1 -11   1   63.46    1.34   2
   1 -11  -1   60.82    1.51   3
   0  11   1  143.42    2.89   4
   0 -11   1  145.57    2.74   1
   0  11   1  143.96    2.67   3
   0  11  -1  140.60    2.90   3
   0 -11  -1  138.18    2.87   1
   0  11  -1  142.39    2.71   2
   0 -11  -1  143.97    2.85   2
   0 -11   1  141.73    2.93   4
   1  11   1  218.82    4.14   4
  -1  11  -1  220.46    4.06   2
  -1 -11  -1  219.64    3.94   2
   1 -11   1  220.94    3.80   1
   1 -11   1  217.04    4.19   3
  -1 -11  -1  216.74    4.10   1
   1  11   1  213.47    3.76   3
   1 -11   1  220.39    4.09   4
   2  11   1   13.28    0.93   4
   2 -11   1   12.35    0.83   4
   2 -11   1   14.26    1.00   3
  -2 -11  -1   15.05    0.99   1
  -2 -11  -1   14.03    0.85   2
  -2  11  -1   14.19    1.03   2
   3  11   1  283.45    5.44   4
  -3  11  -1  279.78    5.49   2
   3 -11   1  282.40    5.16   4
   3 -11   1  288.55    5.57   3
  -3 -11  -1  292.22    5.12   2
   4  11   1   -0.22    0.65   4
  -4  11  -1    0.85    0.66   2
   4 -11   1    0.50    0.62   3
   4 -11   1    0.07    0.52   4
  -4 -11  -1    0.59    0.58   1
   5 -11   1   18.54    1.43   3
  -5  11  -1   18.17    1.43   2
  -5 -11  -1   18.12    1.32   1
   5  11   1   18.68    1.44   4
   6  11   1   16.93    1.53   4
  -6  11  -1   17.75    1.55   2
  -6 -11  -1   18.63    1.45   1
   6 -11   1   15.70    1.45   3
   6  12  -1   12.58    1.26   4
  -6  12   1   11.62    1.31   2
  -6 -12   1   13.64    1.29   1
   6 -12  -1   10.93    1.21   3
  -5 -12   1   18.75    1.33   1
   5  12  -1   15.66    1.23   4
   5 -12  -1   17.16    1.31   3
  -5  12   1   15.51    1.25   2
  -4  12   1   78.65    2.42   2
   4  12  -1   75.48    2.14   3
   4 -12  -1   79.58    2.34   3
   4  12  -1   78.52    2.35   4
  -4 -12   1   84.09    2.37   1
  -3 -12   1   -0.03    0.47   1
   3 -12  -1    0.46    0.56   2
   3  12  -1   -0.28    0.51   4
   3 -12  -1    0.71    0.40   4
   3  12  -1    0.26    0.44   3
   3 -12  -1   -0.12    0.43   3
  -3  12   1    0.58    0.47   1
  -2 -12   1    7.30    0.74   4
  -2 -12   1    6.27    0.65   1
   2 -12  -1    7.92    0.74   2
  -2  12   1    7.95    0.65   1
   2  12  -1    7.16    0.62   3
   2 -12  -1    6.07    0.62   3
   2 -12  -1    7.23    0.61   4
  -2  12   1    7.43    0.58   5
  -1 -12   1  242.79    4.03   2
   1  12  -1  227.08    4.36   3
  -1 -12   1  240.47    4.48   4
   1 -12  -1  240.27    4.30   4
   1 -12  -1  228.87    4.28   3
   1 -12  -1  240.50    4.35   1
   1 -12  -1  238.17    4.44   2
  -1 -12   1  230.57    4.29   1
   0  12  -1  121.75    2.41   2
   0 -12   1  119.82    2.64   4
   0  12  -1  116.00    2.58   3
   0  12   1  114.68    2.57   4
   0 -12  -1  120.61    2.60   1
   0 -12   1  120.74    2.44   1
   0 -12  -1  116.52    2.51   2
   0  12   1  120.55    2.36   3
   1  12   1    0.10    0.44   4
  -1  12  -1    1.06    0.42   2
   1 -12   1    0.77    0.34   1
   1 -12   1    0.34    0.40   4
  -1 -12  -1    0.20    0.33   2
   1 -12   1    0.47    0.43   3
  -1 -12  -1    0.11    0.41   1
   2 -12   1  147.85    3.24   3
  -2  12  -1  145.16    3.17   2
   2  12   1  143.56    3.23   4
   2 -12   1  140.87    3.07   4
  -2 -12  -1  143.91    3.16   1
  -2 -12  -1  141.12    2.87   2
  -3 -12  -1  133.73    2.83   2
   3  12   1  132.89    3.22   4
   3 -12   1  137.42    3.00   4
  -3  12  -1  136.84    3.23   2
   3 -12   1  134.95    3.24   3
   4  12   1    0.78    0.69   4
  -4 -12  -1    1.65    0.66   1
   4 -12   1    0.23    0.64   3
  -4  12  -1   -0.11    0.66   2
  -5 -12  -1    9.08    1.10   1
   5  12   1   10.58    1.23   4
  -5  12  -1   10.30    1.16   2
   5 -12   1    9.35    1.14   3
  -6 -12  -1    5.24    1.08   1
   6 -12   1    2.55    0.97   3
   6  12   1    4.02    1.16   4
  -6  12  -1    4.18    1.15   2
  -6  13   1    0.37    0.92   2
   6  13  -1    0.66    0.92   4
   6 -13  -1    0.58    0.80   3
  -6 -13   1    0.39    0.86   1
   5 -13  -1    9.36    1.04   3
   5  13  -1   10.62    1.11   4
  -5  13   1    7.69    1.06   2
  -5 -13   1    9.52    1.09   1
   4 -13  -1   19.65    1.26   3
  -4 -13   1   20.38    1.32   1
  -4  13   1   21.04    1.39   2
   4  13  -1   17.71    1.32   4
   3  13  -1   59.61    1.98   4
   3  13  -1   59.84    1.77   3
  -3 -13   1   62.86    1.94   1
   3 -13  -1   62.28    2.03   2
  -3  13   1   59.15    1.76   1
   3 -13  -1   64.69    1.94   3
  -2  13   1    5.47    0.62   1
   2 -13  -1    3.30    0.63   2
  -2  13   1    4.63    0.54   5
  -2 -13   1    4.15    0.68   4
   2  13  -1    3.87    0.55   3
   2 -13  -1    3.37    0.55   3
   2 -13  -1    2.59    0.53   4
  -2 -13   1    4.14    0.62   1
   1 -13  -1    0.52    0.37   3
  -1 -13   1    1.39    0.45   1
   1 -13  -1    1.41    0.46   2
   1 -13  -1    0.97    0.44   1
  -1 -13   1    1.05    0.36   2
   1 -13  -1    1.37    0.51   4
   1  13  -1    3.96    0.54   3
  -1 -13   1    1.47    0.51   4
   0  13   1    1.34    0.49   4
   0  13  -1    0.52    0.39   2
   0 -13  -1    0.60    0.40   2
   0 -13   1    1.09    0.39   1
   0  13   1    1.58    0.35   3
   0  13  -1    1.36    0.42   3
   0 -13  -1    1.94    0.48   1
   0 -13   1    0.62    0.45   4
   1 -13   1  411.32    6.82   1
  -1  13  -1  415.26    7.10   2
  -1 -13  -1  411.13    7.17   1
   1 -13   1  407.46    7.08   4
   1  13   1  412.32    7.16   4
   1 -13   1  409.51    7.30   3
  -1 -13  -1  412.29    6.99   2
  -2 -13  -1  658.15   10.90   1
  -2  13  -1  656.80   10.97   2
  -2 -13  -1  628.78   10.61   2
   2 -13   1  669.30   10.71   4
   2 -13   1  652.52   11.17   3
   2  13   1  649.57   10.87   4
  -3  13  -1   21.48    1.31   2
   3  13   1   22.66    1.40   4
  -3 -13  -1   20.88    1.25   1
   3 -13   1   21.03    1.26   4
   3 -13   1   23.20    1.32   3
   4  13   1   -0.36    0.71   4
  -4  13  -1    0.01    0.71   2
   4 -13   1    0.46    0.63   3
  -4 -13  -1    0.64    0.64   1
  -5  13  -1   -0.36    0.76   2
   5 -13   1    0.37    0.74   3
  -5 -13  -1    0.79    0.74   1
   5  13   1    0.40    0.87   4
  -6  14   1   -0.46    0.91   2
   6  14  -1   -0.33    0.87   4
  -6 -14   1   -0.75    0.80   1
   6 -14  -1   -1.11    0.79   3
  -5  14   1    0.79    0.82   2
   5 -14  -1    2.54    0.80   3
   5  14  -1    1.82    0.81   4
  -5 -14   1    1.53    0.78   1
  -4  14   1    2.38    0.73   2
   4 -14  -1    1.96    0.66   3
   4  14  -1    1.15    0.72   4
  -4 -14   1    1.90    0.67   1
  -3  14   1   19.83    1.18   1
  -3 -14   1   19.99    1.24   1
   3  14  -1   20.26    1.30   4
   3  14  -1   19.79    1.11   3
   3 -14  -1   21.45    1.30   2
   3 -14  -1   17.64    1.13   3
   2  14  -1  159.89    3.36   3
   2 -14  -1  162.17    3.43   3
   2 -14  -1  171.50    3.34   4
  -2  14   1  160.27    2.98   5
  -2 -14   1  161.68    3.47   1
  -2 -14   1  165.36    3.62   4
   2 -14  -1  163.79    3.59   2
  -2  14   1  166.29    3.39   1
   1  14  -1    8.49    0.71   3
   1 -14  -1    7.70    0.73   2
   1 -14  -1    8.57    0.76   1
   1 -14  -1    8.10    0.77   4
  -1 -14   1    8.61    0.81   4
  -1 -14   1    7.79    0.69   1
   1 -14  -1    8.34    0.65   3
   0 -14   1   97.31    2.42   4
   0  14  -1   92.47    2.28   3
   0 -14  -1   93.50    2.23   2
   0  14  -1   91.72    2.09   2
   0 -14   1   90.31    2.14   1
   0  14   1   92.69    2.32   4
   0 -14  -1   93.88    2.34   1
   0  14   1   91.44    2.05   3
  -1 -14  -1  220.56    4.35   1
   1 -14   1  216.75    4.37   3
   1 -14   1  224.74    4.02   1
  -1  14  -1  212.82    4.20   2
   1 -14   1  219.20    4.29   4
  -1 -14  -1  216.35    4.12   2
   1  14   1  213.43    4.35   4
  -2 -14  -1   -0.39    0.43   2
  -2 -14  -1    1.13    0.56   1
   2 -14   1    0.63    0.53   3
   2 -14   1   -0.48    0.49   4
  -2  14  -1    0.38    0.54   2
   2  14   1   -0.02    0.56   4
  -3  14  -1    0.43    0.62   2
  -3 -14  -1    1.00    0.63   1
   3 -14   1    0.35    0.57   4
   3  14   1    1.60    0.70   4
   3 -14   1    1.84    0.65   3
   4 -14   1   31.65    1.62   3
  -4  14  -1   28.87    1.63   2
   4  14   1   31.78    1.72   4
  -4 -14  -1   31.70    1.61   1
  -5  14  -1    7.19    1.14   2
   5  14   1    5.13    1.11   4
  -5 -14  -1    4.68    0.96   1
   5 -14   1    8.29    1.08   3
   6 -15  -1    0.85    0.88   3
   6  15  -1    0.36    0.94   4
  -6 -15   1   -0.04    0.86   1
  -6  15   1   -0.16    0.98   2
  -5  15   1    2.87    0.96   2
   5 -15  -1    3.95    0.90   3
  -5 -15   1    5.15    0.99   1
   5  15  -1    2.44    0.93   4
   4 -15  -1   18.57    1.27   3
   4  15  -1   19.49    1.43   4
  -4 -15   1   20.10    1.36   1
  -4  15   1   18.61    1.36   2
   3 -15  -1   28.06    1.47   2
  -3  15   1   27.51    1.37   1
   3 -15  -1   29.23    1.37   3
  -3 -15   1   28.97    1.43   1
   3  15  -1   29.19    1.53   4
   2 -15  -1    0.04    0.50   4
  -2 -15   1    0.31    0.51   1
   2 -15  -1   -0.22    0.42   3
   2  15  -1   -0.22    0.43   3
  -2 -15   1    0.52    0.55   4
  -2  15   1   -0.03    0.46   1
   2 -15  -1    0.28    0.54   2
  -2  15   1    0.85    0.44   5
   1 -15  -1   11.12    0.87   1
  -1 -15   1   10.95    0.94   4
   1 -15  -1    8.31    0.82   4
   1 -15  -1   10.37    0.82   3
  -1 -15   1   10.20    0.79   1
   1 -15  -1    9.41    0.83   2
   1  15  -1    9.21    0.78   3
   0 -15   1   57.16    1.88   4
   0  15  -1   59.04    1.77   3
   0 -15  -1   56.87    1.70   2
   0 -15   1   60.60    1.67   1
   0 -15  -1   58.38    1.85   1
   0  15   1   56.56    1.83   4
  -1 -15  -1   63.63    1.98   1
  -1 -15  -1   61.89    1.75   2
   1 -15   1   66.84    1.78   1
  -1  15  -1   60.36    1.87   2
   1 -15   1   62.29    1.92   4
   1 -15   1   65.04    1.97   3
   1  15   1   63.25    2.05   4
   2 -15   1   63.48    2.06   3
   2  15   1   60.66    2.11   4
  -2 -15  -1   64.01    2.03   1
   2 -15   1   65.49    1.97   4
  -2  15  -1   63.65    2.02   2
   3 -15   1   11.30    1.02   3
   3  15   1   11.15    1.10   4
  -3 -15  -1   11.59    1.03   1
  -3  15  -1   10.63    1.03   2
   3 -15   1   12.54    0.98   4
   4 -15   1   25.92    1.56   3
  -4  15  -1   28.96    1.64   2
   4  15   1   27.41    1.68   4
  -4 -15  -1   29.54    1.59   1
  -5  15  -1   25.03    1.75   2
   5  15   1   24.02    1.80   4
   5 -15   1   25.36    1.65   3
  -5 -15  -1   29.29    1.72   1
   5  16  -1   15.20    1.40   4
   5 -16  -1   11.05    1.20   3
  -5  16   1   13.87    1.39   2
  -5 -16   1   13.60    1.28   1
   4 -16  -1    0.76    0.69   3
   4  16  -1    0.95    0.79   4
  -4 -16   1    0.83    0.69   1
  -4  16   1    0.87    0.77   2
  -3 -16   1   -0.22    0.60   1
   3  16  -1    0.11    0.63   4
   3 -16  -1   -0.09    0.62   2
   3 -16  -1    0.42    0.57   3
   2  16  -1   45.08    1.58   3
  -2  16   1   49.89    1.69   1
  -2  16   1   52.32    1.51   5
   2 -16  -1   48.07    1.66   3
   2 -16  -1   49.91    1.79   2
   2 -16  -1   52.24    1.75   4
  -2 -16   1   49.24    1.76   1
  -2 -16   1   48.13    1.86   4
  -1 -16   1  110.86    2.64   1
   1 -16  -1  109.33    2.69   1
   1 -16  -1  107.71    2.54   3
  -1 -16   1  108.96    2.83   4
  -1  16   1  108.81    2.62   4
   1  16  -1  108.43    2.63   3
   1 -16  -1  104.78    2.66   2
   0  16   1  261.33    5.06   4
   0 -16   1  261.74    4.87   1
   0 -16  -1  259.17    4.97   2
   0  16  -1  258.37    5.08   3
   0 -16   1  264.68    5.15   4
   0 -16  -1  271.98    5.12   1
   1  16   1    5.22    0.87   4
  -1  16  -1    6.40    0.78   2
  -1 -16  -1    7.48    0.70   2
  -1 -16  -1    5.91    0.79   1
   1 -16   1    5.87    0.78   4
   1 -16   1    7.20    0.81   3
   1 -16   1    7.54    0.73   1
   2 -16   1   43.13    1.71   3
   2  16   1   42.18    1.82   4
   2 -16   1   41.76    1.63   4
  -2 -16  -1   42.37    1.71   1
  -2  16  -1   41.92    1.71   2
   3 -16   1    1.55    0.61   4
  -3  16  -1    2.03    0.77   2
   3  16   1    1.22    0.77   4
  -3 -16  -1    0.15    0.64   1
   3 -16   1    0.22    0.68   3
   4 -16   1   -0.39    0.69   3
   4  16   1    1.34    0.86   4
  -4  16  -1   -0.13    0.75   2
  -4 -16  -1   -0.04    0.67   1
  -5 -16  -1    7.15    1.11   1
  -5  16  -1    5.14    1.13   2
   5  16   1    6.14    1.20   4
   5 -16   1    6.95    1.09   3
   5 -17  -1    9.74    1.19   3
  -5  17   1    9.95    1.30   2
   5  17  -1    8.25    1.24   4
  -5 -17   1    9.84    1.24   1
  -4 -17   1    6.57    0.97   1
   4  17  -1    6.56    1.07   4
  -4  17   1    7.97    1.07   2
   4 -17  -1    7.05    0.96   3
  -3 -17   1    3.71    0.79   1
   3 -17  -1    3.45    0.82   2
   3  17  -1    6.00    0.92   4
  -2  17   1   38.32    1.37   5
  -2 -17   1   38.48    1.78   4
  -2  17   1   40.08    1.59   1
   2 -17  -1   40.00    1.58   3
   2 -17  -1   37.25    1.62   2
   2 -17  -1   39.35    1.62   4
  -2 -17   1   40.88    1.62   1
   1 -17  -1   21.44    1.19   3
   1  17  -1   20.17    1.19   3
  -1 -17   1   21.44    1.19   1
  -1  17   1   25.36    1.31   4
  -1 -17   1   21.43    1.37   4
   1 -17  -1   21.16    1.33   1
   1 -17  -1   21.52    1.22   2
   0 -17  -1  112.13    2.85   1
   0 -17   1  111.76    2.92   4
   0 -17  -1  115.32    2.75   2
   0 -17   1  117.57    2.71   1
   0  17   1  113.47    2.89   4
   0  17  -1  115.85    2.83   3
   1 -17   1   26.12    1.30   1
   1 -17   1   21.92    1.28   4
   1  17   1   18.58    1.40   4
   1 -17   1   24.83    1.35   3
  -1 -17  -1   23.95    1.34   1
  -2 -17  -1    5.81    0.87   1
   2  17   1    6.59    0.95   4
   2 -17   1    7.22    0.83   4
   2 -17   1    7.59    0.90   3
  -2  17  -1    5.81    0.86   2
   3 -17   1   15.76    1.26   3
   3  17   1   13.07    1.25   4
  -3  17  -1   14.62    1.21   2
  -3 -17  -1   13.42    1.16   1
   4  17   1    2.32    0.94   4
  -4  17  -1    1.87    0.85   2
  -4 -17  -1    2.32    0.85   1
   4 -17   1    2.12    0.86   3
  -5  18   1    2.58    1.07   2
  -5 -18   1    1.53    0.95   1
   5  18  -1    1.09    1.03   4
   5 -18  -1    3.87    1.01   3
   4  18  -1   30.71    1.82   4
  -4 -18   1   29.12    1.68   1
  -4  18   1   30.85    1.84   2
   4 -18  -1   29.99    1.63   3
   3 -18  -1    4.26    0.81   3
  -3 -18   1    2.55    0.78   1
   3  18  -1    6.01    0.96   4
   2 -18  -1   37.78    1.64   2
   2  18  -1   35.44    1.73   4
  -2  18   1   39.49    1.41   5
   2 -18  -1   38.67    1.59   3
   2 -18  -1   39.59    1.64   4
  -2 -18   1   37.39    1.63   1
  -2  18   1   36.56    1.59   1
   1 -18  -1   76.12    2.29   2
  -1  18   1   85.57    2.40   4
   1 -18  -1   81.68    2.40   1
  -1 -18   1   76.96    2.46   4
   1  18  -1   81.25    2.30   3
   0 -18   1    6.83    0.91   4
   0 -18  -1    7.69    0.84   2
   0 -18   1    8.62    0.86   1
   0  18   1    7.44    0.93   4
   0 -18  -1    6.63    0.87   1
   0  18  -1    7.10    0.83   3
   1 -18   1    0.40    0.59   4
  -1 -18  -1   -0.13    0.59   1
   1  18   1   -0.46    0.65   4
  -1  18  -1    0.61    0.55   3
   2  18   1    1.59    0.78   4
   2 -18   1    2.29    0.73   4
  -2 -18  -1    3.20    0.74   1
  -2  18  -1    1.28    0.70   2
   2 -18   1    2.27    0.73   3
  -3 -18  -1   17.47    1.32   1
   3  18   1   14.76    1.35   4
  -3  18  -1   17.43    1.40   2
   3 -18   1   14.86    1.24   3
   4  18   1    0.46    0.91   4
  -4  18  -1    1.03    0.83   2
   4 -18   1    0.83    0.84   3
  -4 -18  -1    0.58    0.74   1
   4 -19  -1    6.57    1.03   3
   4  19  -1    7.90    1.22   4
  -4 -19   1    6.80    1.07   1
  -4  19   1    8.04    1.15   2
   3  19  -1   75.18    2.60   4
   3 -19  -1   72.38    2.40   3
  -3 -19   1   74.49    2.44   1
  -3  19   1   78.59    2.58   2
  -2  19   1   25.85    1.25   5
  -2 -19   1   24.35    1.43   1
   2 -19  -1   24.13    1.36   3
  -2  19   1   27.94    1.45   1
   2  19  -1   26.41    1.54   4
   2 -19  -1   21.39    1.38   2
  -1 -19   1   69.68    2.38   4
   1 -19  -1   73.61    2.30   1
  -1 -19   1   70.63    2.18   1
   1 -19  -1   67.26    2.18   2
  -1  19   1   72.95    2.28   4
   0 -19   1   31.94    1.51   1
   0  19   1   34.81    1.73   4
   0 -19  -1   33.89    1.61   1
   0 -19   1   31.35    1.62   4
   0  19  -1   32.06    1.51   3
   1 -19   1   10.20    1.03   4
  -1  19  -1   10.61    0.98   3
  -1 -19  -1   11.69    1.06   1
   1  19   1   10.43    1.13   4
   2  19   1    3.65    0.92   4
   2 -19   1    3.03    0.80   3
   2 -19   1    3.67    0.82   4
  -2 -19  -1    4.43    0.86   1
   3  19   1   20.63    1.61   4
  -3 -19  -1   18.56    1.44   1
  -3  19  -1   18.94    1.49   2
   3 -19   1   20.93    1.44   3
  -4  19  -1   15.20    1.42   2
  -4 -19  -1   17.84    1.51   1
   4 -19   1   15.27    1.45   3
   4  19   1   18.76    1.60   4
   4  20  -1   18.39    1.63   4
   4 -20  -1   18.88    1.54   3
  -4  20   1   17.35    1.53   2
  -4 -20   1   18.70    1.50   1
  -3 -20   1   12.21    1.22   1
  -3  20   1   16.05    1.33   2
   3  20  -1   13.66    1.34   4
   3 -20  -1   16.34    1.27   3
  -2 -20   1    0.08    0.66   1
   2 -20  -1   -0.73    0.70   2
   2 -20  -1    0.56    0.65   3
   2  20  -1    1.29    0.79   4
  -1  20   1   -0.74    0.65   4
   1 -20  -1    0.28    0.68   2
   1 -20  -1    0.02    0.72   1
  -1 -20   1   -0.58    0.61   1
  -1 -20   1    0.38    0.74   4
   0 -20  -1  116.06    3.07   1
   0 -20   1  118.86    2.95   1
   0 -20   1  111.83    3.14   4
   0  20   1  114.56    3.13   4
   0  20  -1  110.74    2.98   3
  -1  20  -1   45.54    1.85   3
  -1 -20  -1   46.96    1.97   1
   1 -20   1   47.52    1.97   4
   1  20   1   50.50    2.15   4
  -2 -20  -1    2.73    0.84   1
   2  20   1    0.91    0.88   4
   2 -20   1    3.20    0.85   4
   2 -20   1    4.79    0.92   3
   3  20   1   -0.89    0.84   4
  -3 -20  -1    1.02    0.78   1
   3 -20   1   -0.08    0.76   3
   3 -21  -1   38.60    1.84   3
  -3  21   1   46.26    2.17   2
   3  21  -1   44.34    2.18   4
  -3 -21   1   38.50    1.92   1
  -2 -21   1   37.12    1.78   1
   2 -21  -1   44.40    1.96   2
   2  21  -1   40.48    2.01   4
   1 -21  -1   12.12    1.17   1
  -1 -21   1   12.40    1.26   4
  -1 -21   1   11.92    1.09   1
   0 -21   1    1.73    0.83   4
   0 -21   1    1.10    0.77   1
   0 -21  -1    2.69    0.78   1
   0  21   1    0.94    0.82   4
  -1 -21  -1   56.65    2.19   1
   1 -21   1   54.18    2.17   4
   1  21   1   62.28    2.41   4
  -1  21  -1   53.28    2.04   3
  -2 -21  -1    0.39    0.77   1
   2  21   1    0.74    0.87   4
   2 -21   1    0.32    0.79   4
   3 -21   1    5.33    1.07   3
  -3 -21  -1    4.05    1.03   1
   3  21   1    4.89    1.16   4
   3  22  -1   -0.12    0.92   4
  -3 -22   1   -0.53    0.84   1
  -2 -22   1   14.40    1.29   1
   2  22  -1   17.38    1.45   4
   1  22  -1   17.97    1.41   4
   1 -22  -1   17.81    1.34   1
  -1 -22   1   16.27    1.26   1
   0 -22   1    0.26    0.83   4
   0  22   1   -1.47    0.82   4
   0 -22  -1   -0.62    0.74   1
  -1  22  -1    7.43    1.03   3
   1 -22   1    7.95    1.13   4
   1  22   1    7.06    1.15   4
  -1 -22  -1    8.47    1.10   1
  -2 -22  -1   25.33    1.68   1
  -2  22  -1   26.21    1.63   3
   2  22   1   25.93    1.89   4
  -2 -23   1    9.92    1.19   1
   2  23  -1    7.51    1.23   4
  -1 -23   1    1.86    0.87   1
   1 -23  -1    0.94    0.90   1
   1  23  -1    2.62    0.96   4
   0 -23  -1   40.05    1.99   1
   0 -23   1   36.05    1.98   4
   0  23   1   40.88    2.14   4
   1  23   1   40.51    2.20   4
   1 -23   1   39.75    2.03   4
  -1 -23  -1   41.87    2.06   1
  -7   0   2    0.42    0.76   1
   7   0  -2   -0.19    0.74   3
  -7   0   2   -0.13    0.73   2
  -6   0   2   89.19    2.45   2
   6   0  -2   86.52    2.66   3
  -6   0   2   84.01    2.49   1
   5   0  -2   -1.07    0.57   3
  -5   0   2   -1.35    0.57   1
  -5   0   2   -0.34    0.49   2
  -4   0   2  381.48    6.48   2
   4   0  -2  378.07    5.98   4
  -4   0   2  382.63    6.53   1
   4   0  -2  378.61    6.75   3
   3   0  -2   -0.20    0.28   3
   3   0  -2    0.11    0.26   2
  -3   0   2    0.23    0.34   1
   3   0  -2    0.12    0.17   4
   2   0  -2 2319.35   35.43   2
  -2   0   2 2268.71   34.94   1
   2   0  -2 2325.98   35.93   3
  -2   0   2 2328.58   34.52   4
  -1   0   2    0.10    0.22   1
   1   0  -2    0.05    0.17   3
   1   0  -2   -0.17    0.15   2
  -1   0   2    0.01    0.20   4
   0   0   2    8.77    0.60   4
   0   0   2    9.29    0.43   1
   0   0  -2    9.09    0.39   3
   0   0   2    9.29    0.36   5
   0   0  -2    9.24    0.52   2
  -1   0  -2    0.01    0.23   2
   1   0   2    0.32    0.32   4
   1   0   2   -0.09    0.16   3
  -1   0  -2    0.04    0.15   1
  -2   0  -2   15.26    0.60   1
   2   0   2   14.31    0.70   3
  -2   0  -2   14.11    0.83   2
   2   0   2   15.29    0.89   4
  -3   0  -2    0.51    0.30   1
   3   0   2   -0.36    0.50   4
   3   0   2    0.61    0.37   3
  -3   0  -2    1.19    0.50   2
   4   0   2   13.09    1.02   3
   4   0   2   14.92    1.09   4
  -4   0  -2   12.86    1.00   2
   5   0   2    0.10    0.58   3
  -5   0  -2    0.69    0.65   2
   5   0   2    0.86    0.73   4
   6   0   2   34.93    1.97   4
  -6   0  -2   29.06    1.72   2
  -7  -1   2    3.11    0.84   1
   7  -1  -2    1.53    0.81   3
  -7   1   2    1.29    0.80   2
   7   1  -2    1.31    0.81   3
  -6  -1   2  130.62    3.19   1
  -6   1   2  126.42    3.11   2
  -6  -1   2  131.29    3.06   2
   6   1  -2  128.72    3.34   3
  -6   1   2  135.10    3.18   1
   6  -1  -2  125.47    3.33   3
   5  -1  -2   71.48    2.17   3
   5   1  -2   68.52    2.15   3
  -5   1   2   69.51    1.99   2
  -5  -1   2   68.41    2.06   1
  -5   1   2   69.77    2.07   1
  -5  -1   2   67.79    1.90   2
   4   1  -2   52.08    1.24   4
   4  -1  -2   52.31    1.67   3
  -4  -1   2   51.95    1.62   1
  -4  -1   2   55.81    1.49   2
   4   1  -2   53.40    1.65   3
  -4   1   2   55.13    1.52   2
  -4   1   2   54.95    1.61   1
   3   1  -2    1.12    0.23   4
   3   1  -2    1.10    0.30   2
  -3  -1   2    1.20    0.39   1
   3  -1  -2    1.51    0.37   3
   3  -1  -2    1.75    0.35   2
  -3   1   2    1.55    0.40   1
   3   1  -2    0.73    0.35   3
  -2   1   2  220.51    3.82   1
   2  -1  -2  222.20    3.90   3
   2   1  -2  224.47    3.91   3
  -2  -1   2  223.42    3.59   4
  -2  -1   2  218.69    3.82   1
   2  -1  -2  225.57    3.82   2
   2   1  -2  222.99    3.72   2
  -1   1   2 3973.23   60.09   4
   1   1  -2 3939.03   62.48   3
   1   1  -2 4049.35   61.75   2
  -1   1   2 3912.92   60.75   1
   1  -1  -2 4170.26   61.71   2
  -1  -1   2 4178.08   60.81   1
  -1  -1   2 4022.01   60.02   4
   1  -1  -2 4118.57   62.56   3
   0   1   2  216.18    3.64   4
   0  -1   2  214.50    3.64   4
   0   1   2  214.62    3.55   1
   0  -1   2  216.42    3.48   1
   0   1  -2  220.29    3.67   2
   0  -1  -2  217.07    3.55   3
   0   1   2  217.67    3.14   5
   0   1  -2  216.23    3.64   3
   1  -1   2  189.48    3.42   4
   1   1   2  190.42    3.43   4
   1  -1   2  194.93    3.36   3
  -1  -1  -2  193.75    3.46   2
  -1  -1  -2  195.59    3.19   1
   1   1   2  190.71    3.26   3
  -1   1  -2  189.47    3.45   2
   2  -1   2   -0.04    0.36   4
   2  -1   2    0.13    0.26   3
  -2   1  -2    0.18    0.34   2
  -2  -1  -2    0.35    0.23   1
   2   1   2   -0.79    0.35   4
   2   1   2   -0.27    0.23   3
  -2  -1  -2    0.29    0.33   2
  -2   1  -2    0.04    0.18   1
  -3  -1  -2   36.39    1.08   1
   3   1   2   35.16    1.43   4
   3   1   2   32.23    1.16   3
   3  -1   2   36.33    1.24   3
  -3   1  -2   35.25    1.38   2
   3  -1   2   36.84    1.42   4
  -3  -1  -2   34.07    1.34   2
   4   1   2   48.49    1.82   4
   4   1   2   50.71    1.65   3
  -4  -1  -2   51.49    1.78   2
   4  -1   2   49.79    1.80   4
  -4   1  -2   47.37    1.78   2
   4  -1   2   49.09    1.66   3
  -5   1  -2    5.70    0.88   2
   5  -1   2    7.29    0.96   4
  -5  -1  -2    5.44    0.87   2
   5  -1   2    5.36    0.81   3
   5   1   2    8.25    1.04   4
   6   1   2   11.91    1.29   4
  -6  -1  -2   12.13    1.23   2
  -6   1  -2    9.39    1.18   2
   7   2  -2    1.28    0.84   3
   7  -2  -2    1.79    0.79   3
  -7  -2   2    2.72    0.85   1
  -7   2   2    0.95    0.79   2
  -6  -2   2    5.70    0.92   1
   6  -2  -2    8.08    1.01   3
   6   2  -2    7.60    0.99   3
  -6  -2   2    7.12    0.88   2
  -6   2   2    5.49    0.89   2
  -6   2   2    7.62    0.94   1
   5  -2  -2    0.06    0.60   3
  -5  -2   2   -0.94    0.49   2
   5   2  -2    0.31    0.48   4
  -5  -2   2    0.16    0.63   1
  -5   2   2    0.03    0.62   1
  -5   2   2    0.13    0.58   2
   5   2  -2    0.85    0.63   3
   4   2  -2   50.20    1.26   4
  -4  -2   2   47.52    1.54   1
  -4   2   2   51.31    1.50   2
  -4   2   2   50.04    1.55   1
  -4  -2   2   51.38    1.35   2
   4   2  -2   47.20    1.55   3
  -3   2   2  389.40    6.43   1
   3  -2  -2  390.77    6.62   3
   3  -2  -2  393.58    6.52   2
  -3  -2   2  377.87    6.44   1
   3   2  -2  378.54    6.61   3
  -2  -2   2   42.07    1.12   1
  -2  -2   2   40.78    0.99   4
   2  -2  -2   43.30    1.11   3
   2  -2  -2   42.62    1.09   2
   2   2  -2   40.17    0.92   2
   2   2  -2   40.52    1.10   3
  -2   2   2   44.12    1.16   1
   1  -2  -2  143.15    2.53   3
  -1  -2   2  146.18    2.54   1
   1  -2  -2  147.15    2.62   2
  -1  -2   2  145.89    2.54   4
  -1   2   2  148.06    2.45   4
   1   2  -2  142.72    2.61   3
  -1   2   2  142.84    2.58   1
   1   2  -2  153.82    2.48   2
   0  -2   2  711.15   10.95   1
   0  -2  -2  725.25   11.03   1
   0  -2  -2  691.11   11.26   3
   0   2   2  712.54   10.98   4
   0   2  -2  723.43   11.35   3
   0  -2   2  717.11   11.00   4
   0   2  -2  716.66   11.22   2
   0  -2  -2  721.21   11.27   2
   1  -2   2   74.15    1.68   4
   1  -2   2   72.74    1.58   3
  -1   2  -2   71.53    1.65   2
  -1  -2  -2   73.07    1.48   1
  -1  -2  -2   74.17    1.66   2
   1   2   2   75.72    1.69   4
   1   2   2   73.30    1.40   3
   2  -2   2  444.52    7.48   3
   2   2   2  451.74    7.40   4
   2   2   2  446.62    7.31   3
   2  -2   2  439.75    7.33   4
  -2  -2  -2  457.44    7.14   1
  -2   2  -2  438.35    7.51   2
   3  -2   2  132.47    2.84   3
   3   2   2  134.99    2.97   4
  -3  -2  -2  135.03    2.95   2
   3  -2   2  136.37    2.92   4
  -3  -2  -2  134.45    2.60   1
  -3   2  -2  130.86    2.96   2
   3   2   2  131.37    2.70   3
  -4   2  -2  198.09    4.22   2
   4  -2   2  205.78    4.14   3
   4   2   2  201.49    3.99   3
   4  -2   2  198.00    4.08   4
   4   2   2  195.91    4.14   4
  -4  -2  -2  200.50    4.18   2
   5   2   2   11.24    1.11   4
  -5   2  -2   11.16    1.08   2
   5  -2   2   11.98    1.11   4
  -5  -2  -2   11.52    1.09   2
   5  -2   2   11.05    1.01   3
   6  -2   2    0.71    0.74   3
   6   2   2    2.21    0.96   4
  -6  -2  -2   -0.56    0.77   2
  -6   2  -2    0.82    0.84   2
   7   3  -2    0.99    0.82   3
  -7  -3   2    3.35    0.87   1
   7  -3  -2    0.54    0.75   3
  -7   3   2    2.27    0.88   2
  -6   3   2    0.40    0.70   1
  -6   3   2   -0.35    0.66   2
  -6  -3   2   -0.92    0.55   2
   6  -3  -2   -0.10    0.68   3
  -6  -3   2    0.20    0.70   1
   6   3  -2   -0.20    0.65   3
  -5   3   2  275.36    5.16   1
  -5  -3   2  279.66    4.99   2
   5  -3  -2  274.54    5.46   3
  -5  -3   2  279.46    5.28   1
  -5   3   2  276.01    5.28   2
   5   3  -2  275.22    4.82   4
   5   3  -2  276.44    5.40   3
  -4  -3   2   69.92    1.89   1
   4  -3  -2   68.04    1.92   3
  -4   3   2   69.89    1.84   1
   4  -3  -2   65.96    1.85   2
   4   3  -2   68.96    1.90   3
   4   3  -2   69.73    1.64   4
  -4  -3   2   69.02    1.59   2
   3  -3  -2   73.29    1.74   2
  -3  -3   2   66.75    1.70   1
   3  -3  -2   72.62    1.77   3
  -3  -3   2   68.09    1.43   2
  -3   3   2   72.49    1.72   1
  -3  -3   2   65.98    1.50   4
   3   3  -2   71.13    1.74   3
   2  -3  -2  444.49    7.33   2
   2  -3  -2  446.49    7.36   3
   2   3  -2  455.54    7.40   3
   2   3  -2  447.61    7.06   2
  -2   3   2  440.18    7.21   1
  -2  -3   2  445.49    7.04   4
  -2  -3   2  454.21    7.22   1
   1  -3  -2   37.56    0.88   3
  -1   3   2   37.99    1.00   1
  -1  -3   2   37.55    0.94   1
  -1   3   2   38.56    0.87   5
   1   3  -2   38.56    0.80   2
  -1   3   2   38.93    0.86   4
  -1  -3   2   36.93    0.98   4
   1  -3  -2   38.84    0.99   2
   1   3  -2   37.69    0.95   3
   0  -3   2  151.58    2.72   4
   0  -3  -2  151.72    2.75   2
   0  -3  -2  148.07    2.65   1
   0   3   2  153.17    2.69   4
   0  -3   2  150.78    2.47   1
   0   3  -2  151.60    2.67   2
   0   3  -2  151.01    2.73   3
  -1  -3  -2  131.52    2.56   2
  -1  -3  -2  134.99    2.42   1
   1  -3   2  129.37    2.54   4
   1   3   2  132.46    2.58   4
   1   3   2  130.81    2.24   3
   1  -3   2  126.92    2.52   3
  -1   3  -2  134.61    2.57   2
   2   3   2  126.39    2.65   4
   2  -3   2  121.47    2.58   4
  -2  -3  -2  122.21    2.59   2
   2  -3   2  125.68    2.57   3
  -2  -3  -2  123.39    2.37   1
  -2   3  -2  122.16    2.61   2
   2   3   2  122.62    2.32   3
   3   3   2   32.23    1.11   3
  -3   3  -2   34.32    1.37   2
   3   3   2   33.19    1.42   4
  -3  -3  -2   37.77    1.38   2
   3  -3   2   32.75    1.38   4
  -3  -3  -2   33.33    1.14   1
   3  -3   2   32.22    1.25   3
   4   3   2    9.81    0.97   4
   4  -3   2    9.95    0.86   3
  -4   3  -2    8.83    0.92   2
   4   3   2    8.94    0.75   3
  -4  -3  -2    9.39    0.90   2
   4  -3   2    8.43    0.90   4
   5   3   2   40.04    1.85   4
  -5   3  -2   40.61    1.79   2
   5  -3   2   40.21    1.81   4
  -5  -3  -2   40.43    1.72   2
   5  -3   2   43.81    1.79   3
   6  -3   2   18.74    1.41   3
  -6   3  -2   17.97    1.44   2
  -6  -3  -2   18.80    1.46   2
   6   3   2   18.27    1.51   4
   7   4  -2   12.97    1.28   3
   7  -4  -2   10.39    1.19   3
  -7  -4   2   12.10    1.21   1
  -7   4   2    9.74    1.16   2
  -6   4   2  109.55    2.79   1
  -6  -4   2  103.72    2.86   1
   6  -4  -2  102.42    3.01   3
  -6   4   2  101.70    2.82   2
   6   4  -2  114.79    3.00   3
   5  -4  -2  163.11    3.68   3
  -5   4   2  160.80    3.41   1
   5   4  -2  164.01    3.20   4
   5   4  -2  160.13    3.59   3
  -5  -4   2  161.53    3.20   2
  -5   4   2  159.57    3.52   2
  -5  -4   2  162.36    3.57   1
  -4  -4   2   -0.07    0.46   1
   4   4  -2    0.66    0.36   4
  -4  -4   2    0.14    0.32   2
   4   4  -2    0.38    0.43   3
   4  -4  -2   -0.44    0.42   2
  -4   4   2    1.10    0.51   1
   4  -4  -2   -0.16    0.42   3
  -3  -4   2   70.56    1.60   4
  -3  -4   2   73.04    1.41   2
  -3   4   2   73.18    1.76   1
   3  -4  -2   70.78    1.78   2
  -3  -4   2   71.18    1.77   1
   3  -4  -2   68.62    1.76   3
   3   4  -2   73.23    1.78   3
  -2   4   2  282.79    4.76   1
  -2  -4   2  278.51    4.64   4
  -2  -4   2  279.09    4.73   1
   2  -4  -2  278.32    4.80   3
   2  -4  -2  282.46    4.85   2
   1  -4  -2    0.95    0.24   2
  -1   4   2    0.83    0.22   5
  -1  -4   2    1.52    0.27   1
   1   4  -2    1.18    0.23   3
  -1  -4   2    1.51    0.27   4
   1   4  -2    1.09    0.17   2
   1  -4  -2    0.96    0.19   3
  -1   4   2    1.12    0.22   4
  -1   4   2    1.12    0.26   1
   0  -4   2  974.41   14.91   1
   0  -4   2  985.12   14.93   4
   0  -4   2  987.43   15.49   3
   0  -4  -2  972.75   15.04   1
   0   4  -2  963.09   15.19   2
   0   4   2  981.03   14.88   4
   0  -4  -2  978.96   15.29   2
   1  -4   2  524.23    8.20   4
   1   4   2  505.69    8.20   4
  -1  -4  -2  493.52    8.33   2
   1  -4   2  514.67    8.42   3
  -1   4  -2  512.80    8.34   2
  -1  -4  -2  521.16    8.16   1
   2  -4   2   85.22    2.01   4
   2  -4   2   84.86    1.99   3
  -2   4  -2   85.80    2.05   2
  -2  -4  -2   84.15    2.00   2
   2   4   2   81.73    2.05   4
  -2  -4  -2   86.60    1.86   1
   2   4   2   80.67    1.67   3
  -3  -4  -2   69.50    1.75   1
  -3   4  -2   71.13    2.01   2
  -3  -4  -2   67.82    1.92   2
   3  -4   2   70.31    1.94   4
   3  -4   2   72.26    1.92   3
   3   4   2   67.43    2.03   4
   3   4   2   68.53    1.67   3
  -4  -4  -2   63.58    1.81   1
   4  -4   2   65.06    2.01   4
   4  -4   2   64.89    2.01   3
  -4  -4  -2   63.20    1.99   2
  -4   4  -2   64.36    2.10   2
   5  -4   2   53.50    2.00   3
  -5   4  -2   52.11    2.05   2
   5   4   2   48.52    2.02   4
  -5  -4  -2   51.09    1.92   2
   5  -4   2   52.03    1.97   4
   6  -4   2   -0.92    0.74   3
  -6  -4  -2   -0.94    0.78   2
   6   4   2   -0.63    0.88   4
  -6   4  -2   -0.29    0.83   2
   7  -5  -2   64.33    2.47   3
  -7  -5   2   69.47    2.44   1
  -7   5   2   64.32    2.37   2
   7   5  -2   63.81    2.45   3
  -6  -5   2   21.90    1.49   1
  -6   5   2   24.84    1.40   1
  -6   5   2   23.68    1.37   2
   6   5  -2   23.65    1.44   3
   6  -5  -2   23.49    1.51   3
   5   5  -2    2.20    0.53   4
  -5   5   2    1.85    0.60   2
  -5   5   2    1.82    0.62   1
   5   5  -2    2.27    0.60   3
   5  -5  -2    0.32    0.60   3
  -5  -5   2    1.14    0.66   1
   4  -5  -2    1.23    0.52   2
   4  -5  -2    0.98    0.51   3
  -4  -5   2    1.39    0.55   1
  -4   5   2    1.41    0.54   1
   4   5  -2    2.01    0.43   4
  -4  -5   2    2.05    0.37   2
   4   5  -2    1.73    0.52   3
   3   5  -2   54.58    1.50   3
   3  -5  -2   53.88    1.53   2
  -3  -5   2   52.09    1.52   1
  -3   5   2   52.22    1.48   1
  -3  -5   2   54.77    1.39   4
   3  -5  -2   51.66    1.50   3
  -2   5   2 1329.40   20.44   1
   2  -5  -2 1315.31   20.80   2
   2   5  -2 1336.54   20.99   3
  -2  -5   2 1326.24   20.16   4
  -2  -5   2 1338.71   20.43   1
   2  -5  -2 1336.76   20.93   3
  -1  -5   2   34.73    0.99   4
  -1  -5   2   33.33    0.91   1
   1   5  -2   33.09    0.73   2
   1  -5  -2   34.81    0.83   3
   1  -5  -2   34.32    1.00   2
  -1   5   2   34.57    0.87   4
   1   5  -2   35.20    0.97   3
  -1   5   2   35.39    0.88   5
  -1   5   2   34.47    1.00   1
   0   5   2 1014.85   15.47   4
   0  -5  -2 1010.35   15.66   1
   0  -5   2  996.19   16.11   3
   0  -5   2 1005.53   15.53   4
   0  -5   2  985.77   15.46   1
   0   5  -2 1087.49   15.82   2
   0  -5  -2 1011.08   15.89   2
  -1   5  -2 1714.46   26.07   2
   1  -5   2 1666.72   25.41   4
   1   5   2 1671.81   25.44   4
  -1  -5  -2 1671.41   26.05   2
   1  -5   2 1677.21   26.41   3
  -1  -5  -2 1690.76   25.65   1
   2   5   2  180.92    3.52   4
  -2  -5  -2  177.98    3.31   1
   2   5   2  174.27    3.07   3
   2  -5   2  175.89    3.40   4
   2  -5   2  174.28    3.47   3
  -2  -5  -2  175.67    3.43   2
  -2   5  -2  180.53    3.51   2
  -3   5  -2   72.86    2.09   2
   3   5   2   68.98    2.13   4
   3  -5   2   71.34    1.99   4
   3  -5   2   74.94    2.04   3
  -3  -5  -2   74.67    1.87   1
  -3  -5  -2   72.91    2.00   2
  -4   5  -2   65.10    2.17   2
   4  -5   2   68.31    2.07   4
  -4  -5  -2   64.79    2.04   2
   4  -5   2   71.66    2.14   3
  -4  -5  -2   66.25    1.92   1
   4   5   2   64.61    2.18   4
  -5  -5  -2    1.24    0.73   2
   5  -5   2    0.86    0.67   4
  -5   5  -2    1.80    0.77   2
   5   5   2    1.32    0.82   4
   5  -5   2    0.69    0.68   3
  -6  -5  -2   34.74    1.86   2
  -6   5  -2   38.32    1.98   2
   6   5   2   40.31    2.08   4
   6  -5   2   41.32    2.04   3
  -7  -6   2   24.18    1.64   1
  -7   6   2   21.67    1.59   2
   7  -6  -2   25.11    1.64   3
   7   6  -2   23.77    1.72   3
  -6  -6   2   19.87    1.39   1
  -6   6   2   18.96    1.31   2
   6   6  -2   17.65    1.30   3
   6  -6  -2   18.91    1.37   3
  -5   6   2   30.49    1.33   1
  -5  -6   2   30.76    1.46   1
   5  -6  -2   26.63    1.42   3
  -5   6   2   28.95    1.39   2
   5   6  -2   30.67    1.30   4
   5   6  -2   30.30    1.35   3
   4   6  -2  132.19    2.98   3
  -4  -6   2  137.85    2.48   2
   4  -6  -2  134.64    3.06   2
   4  -6  -2  135.70    3.06   3
  -4   6   2  135.79    2.89   1
   4   6  -2  138.78    2.81   4
  -4  -6   2  134.80    3.00   1
   3   6  -2  181.70    3.52   3
   3  -6  -2  183.60    3.60   2
  -3  -6   2  178.80    3.48   1
  -3   6   2  183.08    3.44   1
  -3  -6   2  178.10    3.36   4
   3  -6  -2  176.86    3.51   3
   2   6  -2  755.36   12.17   3
  -2  -6   2  752.07   11.83   1
   2  -6  -2  749.40   12.09   2
   2  -6  -2  756.98   12.07   3
  -2   6   2  752.84   11.84   1
  -2  -6   2  739.79   11.70   4
  -1  -6   2   47.34    1.26   4
   1   6  -2   47.68    1.24   3
  -1  -6   2   47.91    1.15   1
  -1   6   2   48.42    1.11   4
   1  -6  -2   47.76    1.06   3
   1  -6  -2   48.19    1.26   2
   1  -6  -2   48.24    1.27   1
   0  -6   2 1511.04   22.56   4
   0  -6   2 1482.91   22.56   1
   0   6  -2 1490.70   22.97   2
   0  -6  -2 1486.57   23.09   2
   0  -6  -2 1465.13   22.77   1
   0   6   2 1499.34   22.48   4
   0  -6   2 1489.32   23.44   3
  -1  -6  -2 1474.13   22.75   2
   1   6   2 1474.95   22.24   4
  -1   6  -2 1467.27   22.74   2
   1  -6   2 1437.84   22.20   4
  -1  -6  -2 1434.10   22.41   1
   1  -6   2 1478.90   23.10   3
   2   6   2   86.53    2.17   4
  -2  -6  -2   83.09    2.00   2
  -2  -6  -2   81.15    1.93   1
  -2   6  -2   83.51    2.07   2
   2  -6   2   85.90    2.05   4
   2  -6   2   82.21    2.04   3
  -3  -6  -2  990.33   15.50   1
   3   6   2  976.01   15.59   4
  -3  -6  -2  975.89   15.79   2
   3  -6   2  968.84   15.41   4
   3  -6   2  983.18   16.08   3
  -3   6  -2  981.07   15.95   2
  -4  -6  -2   48.68    1.70   1
   4  -6   2   55.35    1.94   3
   4   6   2   52.22    1.98   4
  -4  -6  -2   49.81    1.80   2
   4  -6   2   51.05    1.79   4
  -4   6  -2   50.45    1.95   2
   5  -6   2   11.13    1.08   4
  -5   6  -2   12.89    1.20   2
  -5  -6  -2   11.08    1.07   2
   5   6   2   12.08    1.17   4
   5  -6   2   11.26    1.11   3
  -6   6  -2    2.10    0.97   2
   6  -6   2    3.95    1.01   3
   6   6   2    2.29    1.04   4
  -6  -6  -2    3.56    0.98   2
  -7  -7   2   13.40    1.30   1
   7   7  -2   12.55    1.29   3
  -7   7   2   14.40    1.34   2
   7  -7  -2   13.12    1.29   3
   6   7  -2   14.60    1.15   3
  -6  -7   2   16.01    1.24   1
  -6   7   2   14.16    1.17   2
   6  -7  -2   14.92    1.23   3
   6   7  -2   15.78    1.09   4
   5   7  -2   36.91    1.51   3
   5   7  -2   36.59    1.46   4
  -5   7   2   38.26    1.48   1
  -5   7   2   40.03    1.63   2
   5  -7  -2   36.52    1.60   3
  -5  -7   2   40.02    1.63   1
   4  -7  -2   63.36    1.95   2
   4   7  -2   65.93    1.78   4
  -4   7   2   65.61    1.85   1
   4   7  -2   66.71    1.89   3
   4  -7  -2   63.37    1.92   3
  -4  -7   2   64.01    1.93   1
   3  -7  -2   90.19    2.22   2
  -3   7   2   91.83    2.11   1
  -3  -7   2   89.88    2.08   4
   3   7  -2   90.05    2.13   3
  -3  -7   2   89.24    2.14   1
   3  -7  -2   92.71    2.16   3
  -2   7   2  375.24    5.56   5
  -2  -7   2  376.24    6.26   4
  -2  -7   2  377.42    6.29   1
  -2   7   2  375.08    5.86   4
   2  -7  -2  376.87    6.35   3
  -2   7   2  377.17    6.29   1
   2  -7  -2  371.90    6.46   2
   2   7  -2  378.50    6.45   3
   1   7  -2  887.13   14.35   3
   1  -7  -2  895.31   14.12   3
  -1  -7   2  899.07   13.86   1
  -1  -7   2  891.15   13.89   4
  -1   7   2  886.43   13.65   4
   1  -7  -2  895.45   14.22   2
   1  -7  -2  915.61   14.02   1
   0   7  -2  123.72    2.34   2
   0  -7  -2  126.44    2.48   1
   0   7   2  125.91    2.45   4
   0  -7   2  123.76    2.51   4
   0  -7   2  125.84    2.20   1
   0  -7  -2  125.70    2.48   2
  -1  -7  -2  293.93    5.03   1
  -1   7  -2  293.77    5.05   2
   1  -7   2  291.16    5.20   3
   1  -7   2  288.95    5.03   4
  -1  -7  -2  279.62    5.02   2
   1   7   2  290.36    5.06   4
  -2  -7  -2   74.85    1.85   1
  -2  -7  -2   74.21    1.86   2
   2   7   2   73.36    2.03   4
   2  -7   2   72.65    1.90   4
   2  -7   2   73.58    1.94   3
  -2   7  -2   73.74    1.96   2
   3  -7   2   23.20    1.30   3
   3   7   2   20.33    1.43   4
  -3  -7  -2   23.73    1.22   1
   3  -7   2   20.45    1.30   4
  -3   7  -2   24.75    1.41   2
  -3  -7  -2   21.54    1.25   2
  -4  -7  -2   27.21    1.36   1
   4   7   2   28.10    1.55   4
   4  -7   2   24.64    1.41   3
  -4   7  -2   26.95    1.52   2
   4  -7   2   26.82    1.42   4
  -4  -7  -2   25.94    1.40   2
  -5  -7  -2    1.64    0.72   2
   5   7   2    0.21    0.81   4
   5  -7   2    1.39    0.74   3
  -5   7  -2    1.27    0.80   2
   6  -7   2   20.15    1.54   3
   6   7   2   22.76    1.69   4
  -6   7  -2   20.97    1.69   2
   7  -8  -2   21.21    1.56   3
  -7   8   2   20.41    1.61   2
  -7  -8   2   25.62    1.68   1
   7   8  -2   25.38    1.77   3
   6   8  -2   57.68    1.93   4
  -6   8   2   53.04    2.07   2
  -6  -8   2   60.60    2.16   1
   6  -8  -2   53.11    2.10   3
   6   8  -2   53.71    2.01   3
  -5   8   2   43.90    1.72   2
  -5  -8   2   39.92    1.69   1
   5   8  -2   41.91    1.59   4
   5   8  -2   39.38    1.59   3
   5  -8  -2   41.68    1.71   3
  -5   8   2   44.36    1.62   1
   4   8  -2   33.92    1.32   4
  -4  -8   2   31.18    1.39   1
   4  -8  -2   34.18    1.46   2
   4   8  -2   34.33    1.35   3
   4  -8  -2   31.68    1.38   3
  -4   8   2   35.04    1.41   1
  -3  -8   2   65.31    1.75   4
   3   8  -2   66.37    1.76   3
   3  -8  -2   66.10    1.86   2
  -3  -8   2   65.52    1.80   1
  -3   8   2   65.59    1.74   1
   3  -8  -2   66.31    1.78   3
  -2  -8   2  112.56    2.38   1
  -2   8   2  109.60    2.10   5
  -2  -8   2  118.41    2.45   4
   2   8  -2  117.45    2.44   3
   2  -8  -2  115.27    2.51   2
   2  -8  -2  114.92    2.34   3
  -2   8   2  114.80    2.07   4
  -2   8   2  105.74    2.36   1
  -1   8   2  293.57    4.89   4
   1  -8  -2  301.22    5.13   1
  -1  -8   2  299.87    4.97   1
   1  -8  -2  293.86    4.94   3
   1  -8  -2  298.96    5.21   2
  -1  -8   2  294.24    5.13   4
   1   8  -2  298.17    5.23   3
   0  -8  -2   21.37    0.87   2
   0   8  -2   20.68    0.86   3
   0  -8   2   21.40    0.69   1
   0   8   2   21.45    0.90   4
   0  -8   2   20.74    0.91   4
   0  -8  -2   19.97    0.88   1
   0   8  -2   19.85    0.80   2
  -1   8  -2   -0.16    0.35   2
   1  -8   2    0.18    0.37   4
  -1  -8  -2   -0.17    0.30   2
   1  -8   2    0.54    0.36   3
   1   8   2    0.38    0.42   4
  -1  -8  -2    0.73    0.38   1
  -2  -8  -2  102.54    2.35   1
   2  -8   2  104.83    2.46   3
  -2  -8  -2  103.10    2.32   2
   2  -8   2  105.88    2.38   4
  -2   8  -2   98.26    2.43   2
   2   8   2   95.02    2.48   4
   3   8   2  223.76    4.55   4
  -3   8  -2  218.58    4.53   2
  -3  -8  -2  223.36    4.34   1
   3  -8   2  221.55    4.32   4
   3  -8   2  225.51    4.57   3
  -3  -8  -2  232.29    4.39   2
  -4  -8  -2   72.46    2.17   2
   4   8   2   73.38    2.33   4
  -4  -8  -2   71.33    2.12   1
   4  -8   2   70.69    2.27   3
   4  -8   2   70.94    2.12   4
  -4   8  -2   67.92    2.28   2
   5  -8   2    9.05    1.09   3
   5   8   2    6.99    1.12   4
  -5   8  -2    8.49    1.17   2
  -5  -8  -2   10.26    1.03   2
   6  -8   2   -0.74    0.84   3
   6   8   2    1.39    1.08   4
  -6   8  -2    0.43    0.96   2
   7  -9  -2    0.08    0.76   3
   7   9  -2    0.92    0.91   3
  -7  -9   2    1.52    0.92   1
  -7   9   2    0.44    0.93   2
   6   9  -2    4.73    0.85   3
  -6  -9   2    6.72    0.98   1
   6  -9  -2    4.52    0.87   3
   6   9  -2    5.33    0.87   4
  -6   9   2    5.18    0.95   2
  -5   9   2   16.34    1.20   1
  -5  -9   2   15.53    1.13   1
   5   9  -2   13.90    1.08   3
   5  -9  -2   14.31    1.14   3
  -5   9   2   14.37    1.12   2
   5   9  -2   14.62    1.02   4
   4  -9  -2    4.13    0.71   2
  -4   9   2    4.60    0.67   1
  -4  -9   2    4.38    0.67   1
   4  -9  -2    4.94    0.67   3
   4   9  -2    4.60    0.64   4
   4   9  -2    4.41    0.66   3
  -3  -9   2   11.91    0.92   1
   3  -9  -2   11.15    0.89   2
  -3  -9   2   10.86    0.85   4
   3   9  -2   13.03    0.87   3
   3  -9  -2   10.61    0.81   3
  -3   9   2   11.78    0.87   1
  -2  -9   2   49.23    1.47   4
  -2   9   2   47.01    1.17   4
   2  -9  -2   49.21    1.49   2
  -2   9   2   47.42    1.24   5
   2   9  -2   46.07    1.38   3
  -2   9   2   46.99    1.40   1
  -2  -9   2   46.67    1.38   1
   2  -9  -2   48.62    1.33   3
  -1  -9   2  299.91    5.09   1
  -1   9   2  298.50    5.03   4
   1  -9  -2  302.23    5.07   3
   1   9  -2  305.71    5.36   3
   1  -9  -2  304.79    5.36   2
  -1  -9   2  297.76    5.27   4
   1  -9  -2  305.73    5.26   1
   0  -9  -2  533.89    8.69   2
   0   9  -2  527.18    8.84   3
   0  -9  -2  516.48    8.60   1
   0   9  -2  533.33    8.47   2
   0  -9   2  517.55    8.57   4
   0  -9   2  528.17    8.28   1
   0   9   2  525.80    8.48   4
  -1   9  -2   33.53    1.19   2
   1  -9   2   33.92    1.26   4
   1   9   2   35.53    1.29   4
   1  -9   2   32.50    1.22   3
  -1  -9  -2   33.99    1.22   1
  -1  -9  -2   35.23    1.17   2
   2  -9   2    1.62    0.55   4
  -2  -9  -2    2.36    0.51   2
   2   9   2    0.74    0.65   4
  -2   9  -2    1.02    0.61   2
   3   9   2   90.11    2.55   4
  -3  -9  -2   89.49    2.34   1
   3  -9   2   90.63    2.34   4
  -3  -9  -2   89.62    2.33   2
   3  -9   2   93.20    2.52   3
  -3   9  -2   92.37    2.52   2
  -4  -9  -2    0.28    0.57   2
   4  -9   2    0.03    0.57   4
   4  -9   2   -0.01    0.59   3
  -4  -9  -2    1.03    0.59   1
  -4   9  -2    0.17    0.68   2
   4   9   2   -0.61    0.69   4
   5  -9   2   29.97    1.70   3
  -5   9  -2   32.68    1.87   2
  -5  -9  -2   32.08    1.61   1
   5   9   2   29.70    1.78   4
  -5  -9  -2   34.43    1.69   2
   6   9   2   -0.23    0.99   4
  -6   9  -2    0.74    0.92   2
   6  -9   2    1.17    0.91   3
  -7 -10   2    2.96    1.00   1
  -7  10   2    3.01    1.07   2
   7 -10  -2    2.53    0.93   3
   6 -10  -2    2.95    0.82   3
  -6  10   2    1.94    0.86   2
  -6 -10   2    4.90    0.95   1
   6  10  -2    4.20    0.82   3
   6  10  -2    4.73    0.86   4
   5 -10  -2    9.72    0.96   3
  -5  10   2    9.17    0.99   2
  -5  10   2    9.86    0.94   1
   5  10  -2    9.56    0.94   4
   5  10  -2    9.05    0.92   3
  -5 -10   2   10.55    1.00   1
  -4  10   2    0.36    0.51   1
   4  10  -2    0.27    0.50   3
  -4 -10   2    0.24    0.50   1
   4 -10  -2    0.88    0.59   2
   4  10  -2    0.64    0.51   4
   4 -10  -2    0.13    0.49   3
   3 -10  -2   23.99    1.09   3
  -3 -10   2   23.30    1.17   4
   3 -10  -2   22.04    1.15   2
  -3  10   2   23.48    1.12   1
   3  10  -2   25.40    1.14   3
  -3 -10   2   21.98    1.11   1
   2  10  -2   69.61    1.80   3
  -2 -10   2   69.56    1.80   1
  -2  10   2   68.61    1.81   1
  -2 -10   2   72.75    1.91   4
   2 -10  -2   70.37    1.91   2
   2 -10  -2   72.33    1.73   3
  -2  10   2   71.31    1.61   5
  -2  10   2   68.30    1.57   4
   1 -10  -2    7.11    0.58   3
   1 -10  -2    8.06    0.64   1
  -1 -10   2    6.74    0.64   4
  -1 -10   2    8.22    0.57   1
   1  10  -2    7.76    0.59   3
   1 -10  -2    6.96    0.62   2
  -1  10   2    6.08    0.54   4
   0  10   2    0.49    0.40   4
   0  10  -2    0.20    0.34   2
   0 -10  -2    1.71    0.42   1
   0  10  -2    0.76    0.34   3
   0 -10  -2    0.72    0.35   2
   0 -10   2    0.93    0.29   1
   0 -10   2    0.57    0.40   4
  -1 -10  -2   10.38    0.69   2
  -1  10  -2   10.93    0.84   2
   1 -10   2   10.18    0.77   4
  -1 -10  -2   10.81    0.76   1
   1  10   2   12.45    0.91   4
   1 -10   2    9.40    0.74   3
   1 -10   2   11.24    0.60   1
  -2 -10  -2 1866.96   28.50   1
   2 -10   2 1822.39   29.32   3
  -2  10  -2 1847.15   28.88   2
   2 -10   2 1858.40   28.13   4
  -2 -10  -2 1825.57   28.72   2
   2  10   2 1834.01   28.26   4
  -3 -10  -2   20.84    1.22   1
   3 -10   2   20.91    1.23   4
  -3  10  -2   21.29    1.36   2
   3 -10   2   20.58    1.29   3
   3  10   2   19.52    1.38   4
  -3 -10  -2   21.51    1.14   2
  -4 -10  -2   37.37    1.63   1
   4 -10   2   38.16    1.73   3
   4 -10   2   39.27    1.62   4
  -4  10  -2   37.74    1.77   2
  -4 -10  -2   42.24    1.67   2
   4  10   2   38.43    1.83   4
  -5  10  -2   12.53    1.33   2
   5  10   2   12.78    1.31   4
  -5 -10  -2   12.37    1.15   1
   5 -10   2   11.27    1.20   3
  -7 -11   2    4.59    1.08   1
   7 -11  -2    4.88    1.09   3
  -7  11   2    3.64    1.11   2
   6  11  -2    1.03    0.73   3
  -6 -11   2    0.62    0.79   1
  -6  11   2    1.00    0.83   2
   6 -11  -2   -0.04    0.67   3
   6  11  -2    0.85    0.76   4
  -5  11   2   17.46    1.33   2
  -5 -11   2   18.80    1.33   1
   5  11  -2   17.69    1.23   3
   5  11  -2   20.04    1.31   4
   5 -11  -2   20.15    1.30   3
   4  11  -2  169.04    3.73   3
  -4  11   2  176.74    3.64   1
   4  11  -2  177.53    3.76   4
   4 -11  -2  174.30    3.96   2
   4 -11  -2  175.13    3.82   3
  -4 -11   2  178.53    3.82   1
  -3 -11   2   66.07    1.94   1
   3 -11  -2   72.15    1.95   3
  -3 -11   2   68.94    2.02   4
   3  11  -2   69.48    1.93   3
   3 -11  -2   66.85    2.05   2
  -3  11   2   71.30    1.93   1
  -2  11   2    3.80    0.45   4
   2 -11  -2    3.29    0.56   2
  -2 -11   2    3.92    0.54   1
   2  11  -2    4.26    0.53   3
  -2  11   2    3.91    0.50   5
  -2 -11   2    3.95    0.58   4
  -2  11   2    3.83    0.55   1
   2 -11  -2    3.72    0.49   3
   1 -11  -2  780.76   12.40   3
   1 -11  -2  782.62   12.65   2
  -1 -11   2  774.77   12.42   4
  -1  11   2  768.14   12.14   4
  -1 -11   2  773.77   12.26   1
   1  11  -2  773.57   12.74   3
   1 -11  -2  770.69   12.44   1
   0 -11  -2   33.29    1.23   1
   0  11  -2   32.83    1.07   2
   0 -11   2   31.87    1.28   4
   0  11   2   32.07    1.21   4
   0 -11  -2   31.68    1.17   2
   0  11  -2   30.20    1.19   3
   0 -11   2   32.53    1.00   1
  -1 -11  -2   28.77    1.13   2
   1 -11   2   28.28    0.89   1
   1  11   2   27.45    1.25   4
   1 -11   2   27.92    1.23   3
   1 -11   2   27.57    1.22   4
  -1 -11  -2   28.02    1.22   1
  -1  11  -2   28.51    1.16   2
   2  11   2    8.38    0.88   4
  -2 -11  -2    8.59    0.77   2
   2 -11   2    7.14    0.84   3
  -2  11  -2    8.91    0.86   2
  -2 -11  -2    8.55    0.84   1
   2 -11   2    8.12    0.84   4
   3 -11   2   77.35    2.31   3
  -3  11  -2   75.66    2.28   2
  -3 -11  -2   72.15    2.02   2
   3  11   2   74.25    2.33   4
  -3 -11  -2   74.05    2.18   1
   3 -11   2   70.48    2.10   4
   4 -11   2   30.83    1.50   4
   4 -11   2   30.03    1.56   3
   4  11   2   30.24    1.73   4
  -4 -11  -2   27.37    1.47   1
  -4  11  -2   28.11    1.63   2
  -4 -11  -2   29.24    1.38   2
  -5  11  -2   44.44    2.15   2
  -5 -11  -2   43.05    1.90   1
   5  11   2   45.63    2.15   4
   5 -11   2   48.69    2.11   3
  -6 -12   2   36.31    1.85   1
  -6  12   2   34.41    1.88   2
   6 -12  -2   37.44    1.85   3
   6  12  -2   31.99    1.74   4
  -5 -12   2    1.17    0.73   1
   5 -12  -2    2.18    0.71   3
   5  12  -2    0.62    0.66   3
   5  12  -2    1.78    0.72   4
  -5  12   2    1.70    0.74   2
   4 -12  -2    0.43    0.62   2
  -4 -12   2    0.60    0.58   1
   4 -12  -2    0.01    0.53   3
   4  12  -2   -0.04    0.57   4
  -4  12   2    0.69    0.59   1
   4  12  -2    0.50    0.52   3
   3  12  -2   37.95    1.44   3
  -3 -12   2   35.20    1.52   4
   3 -12  -2   34.49    1.54   2
   3 -12  -2   35.73    1.39   3
  -3  12   2   39.59    1.47   1
  -3 -12   2   36.58    1.47   1
   2 -12  -2   13.64    0.99   2
   2 -12  -2   12.66    0.88   3
  -2  12   2   12.06    0.90   1
   2  12  -2   13.65    0.88   3
  -2  12   2   12.75    0.81   5
  -2 -12   2   13.04    0.91   4
  -2  12   2   11.95    0.82   4
  -2 -12   2   12.00    0.90   1
   1 -12  -2   34.22    1.31   2
   1 -12  -2   34.48    1.32   1
   1  12  -2   36.90    1.29   3
  -1  12   2   32.81    1.23   4
  -1 -12   2   33.25    1.18   1
  -1 -12   2   28.72    1.29   4
   1 -12  -2   33.87    1.06   3
   0  12   2   75.70    1.96   4
   0 -12  -2   77.35    2.01   1
   0 -12   2   74.86    1.71   1
   0 -12   2   73.66    2.04   4
   0  12  -2   73.69    1.98   3
   0 -12  -2   74.79    1.94   2
   0  12  -2   75.73    1.77   2
  -1 -12  -2   -0.59    0.39   2
  -1  12  -2    0.37    0.46   2
   1 -12   2    0.26    0.50   4
   1 -12   2    0.58    0.32   1
  -1 -12  -2    0.51    0.48   1
   1  12   2    0.08    0.50   4
   1 -12   2    0.22    0.45   3
   2  12   2   20.63    1.31   4
   2 -12   2   22.24    1.27   4
  -2 -12  -2   23.95    1.16   2
   2 -12   2   23.70    1.32   3
  -2  12  -2   23.82    1.30   2
  -2 -12  -2   22.31    1.26   1
  -3 -12  -2  130.18    3.18   1
  -3 -12  -2  137.75    3.04   2
   3 -12   2  134.17    3.12   4
  -3  12  -2  133.91    3.26   2
   3 -12   2  131.87    3.30   3
   4 -12   2   34.48    1.73   3
  -4  12  -2   37.33    1.84   2
   4  12   2   33.91    1.83   4
   4 -12   2   39.33    1.71   4
  -4 -12  -2   36.09    1.66   1
   5 -12   2   18.84    1.50   3
   5  12   2   20.71    1.59   4
  -5  12  -2   19.38    1.56   2
  -5 -12  -2   18.85    1.42   1
   6  13  -2   33.31    1.81   4
  -6  13   2   34.39    1.95   2
   6 -13  -2   36.70    1.89   3
  -6 -13   2   35.25    1.89   1
   5  13  -2    5.25    0.94   4
  -5  13   2    3.72    0.88   2
   5 -13  -2    6.24    0.90   3
   5  13  -2    5.96    0.87   3
  -5 -13   2    5.98    0.93   1
  -4 -13   2    7.68    0.92   1
   4 -13  -2    6.08    0.93   2
   4  13  -2    7.98    0.85   3
  -4  13   2    7.08    0.83   1
   4  13  -2    6.74    0.90   4
   4 -13  -2    7.05    0.87   3
  -3  13   2   70.02    2.02   1
  -3 -13   2   69.35    2.08   1
  -3 -13   2   65.88    2.12   4
   3 -13  -2   71.93    2.21   2
   3 -13  -2   70.42    2.02   3
   3  13  -2   69.52    2.02   3
   2  13  -2    0.36    0.41   3
  -2  13   2   -0.07    0.43   1
  -2  13   2   -0.06    0.38   5
  -2 -13   2   -0.36    0.44   1
   2 -13  -2    0.12    0.49   2
   2 -13  -2   -0.06    0.38   3
  -2 -13   2   -0.08    0.50   4
  -2  13   2    0.24    0.39   4
   1 -13  -2   17.61    1.04   2
  -1 -13   2   16.49    1.07   4
   1 -13  -2   18.12    0.83   3
   1  13  -2   18.11    1.00   3
   1 -13  -2   18.20    1.06   1
  -1  13   2   17.27    1.01   4
  -1 -13   2   17.29    0.93   1
   0 -13  -2    5.70    0.69   1
   0 -13   2    4.79    0.51   1
   0 -13  -2    4.77    0.59   2
   0  13  -2    5.16    0.63   3
   0 -13   2    3.90    0.65   4
   0  13  -2    4.98    0.55   2
   0  13   2    4.43    0.63   4
  -1  13  -2   61.62    1.75   2
   1 -13   2   57.47    1.85   3
  -1 -13  -2   60.16    1.73   2
  -1 -13  -2   60.16    1.87   1
   1 -13   2   58.52    1.89   4
   1  13   2   57.80    1.88   4
  -2 -13  -2   34.88    1.34   2
  -2 -13  -2   34.78    1.52   1
   2  13   2   35.06    1.61   4
   2 -13   2   33.82    1.53   3
  -2  13  -2   34.47    1.49   2
   2 -13   2   35.92    1.52   4
   3 -13   2   -0.38    0.59   3
   3 -13   2   -0.33    0.56   4
  -3 -13  -2    0.13    0.56   1
  -3 -13  -2   -0.19    0.50   2
  -3  13  -2   -0.38    0.60   2
   3  13   2   -0.07    0.69   4
   4  13   2   51.21    2.17   4
  -4  13  -2   55.58    2.20   2
   4 -13   2   53.65    2.15   3
  -4 -13  -2   51.00    2.00   1
   5 -13   2    0.54    0.80   3
  -5 -13  -2    0.27    0.78   1
  -5  13  -2    0.74    0.95   2
   5  13   2   -0.49    1.00   4
   6  14  -2    3.54    1.05   4
  -6 -14   2    4.18    1.02   1
   6 -14  -2    5.40    1.03   3
  -6  14   2    4.19    1.09   2
  -5 -14   2   16.21    1.27   1
  -5  14   2   14.42    1.29   2
   5  14  -2   13.57    1.22   4
   5 -14  -2   14.12    1.20   3
   4  14  -2    0.87    0.58   3
   4 -14  -2   -0.96    0.54   3
  -4  14   2   -0.11    0.60   1
   4 -14  -2   -0.05    0.69   2
  -4 -14   2    0.82    0.67   1
   4  14  -2    0.90    0.69   4
   3 -14  -2   19.67    1.29   2
   3  14  -2   20.03    1.17   3
  -3  14   2   20.61    1.25   1
  -3 -14   2   21.20    1.31   4
   3 -14  -2   22.03    1.25   3
  -3 -14   2   20.37    1.27   1
   2  14  -2   12.57    0.93   3
   2 -14  -2   13.35    1.00   2
  -2 -14   2   12.88    0.90   1
  -2 -14   2   12.81    0.98   4
  -2  14   2   12.77    0.87   5
  -2  14   2   13.19    1.01   1
   2 -14  -2   13.66    0.90   3
  -1 -14   2    0.22    0.50   4
   1 -14  -2   -0.14    0.44   2
   1 -14  -2    0.34    0.35   3
   1  14  -2    0.40    0.45   3
  -1  14   2    0.01    0.48   4
  -1 -14   2    0.02    0.39   1
   1 -14  -2    0.25    0.46   1
   0  14  -2    1.71    0.52   3
   0 -14   2    2.05    0.45   1
   0  14   2    1.93    0.58   4
   0 -14  -2    1.40    0.53   2
   0 -14   2    1.95    0.57   4
   0 -14  -2    2.57    0.60   1
   1 -14   2  125.80    3.04   4
  -1 -14  -2  129.08    2.88   2
  -1  14  -2  130.88    2.87   2
   1  14   2  131.70    3.09   4
  -1 -14  -2  126.25    3.03   1
   1 -14   2  131.00    3.10   3
  -2 -14  -2    0.16    0.47   2
   2 -14   2    1.19    0.59   3
  -2  14  -2    0.25    0.57   2
  -2 -14  -2    0.71    0.56   1
   2  14   2    0.34    0.66   4
   2 -14   2    0.15    0.54   4
  -3  14  -2   88.87    2.62   2
   3  14   2   91.61    2.78   4
   3 -14   2   95.59    2.63   4
   3 -14   2   94.57    2.76   3
  -3 -14  -2   91.70    2.63   1
   4  14   2    2.16    0.96   4
  -4  14  -2    2.10    0.87   2
  -4 -14  -2    1.59    0.74   1
   4 -14   2    2.97    0.87   3
   5  14   2   29.28    1.93   4
   5 -14   2   31.42    1.84   3
  -5  14  -2   28.18    1.93   2
  -5 -14  -2   29.54    1.71   1
  -6 -15   2    5.57    1.11   1
   6  15  -2    2.37    1.06   4
   6 -15  -2    4.05    1.03   3
  -6  15   2    3.36    1.10   2
  -5 -15   2   19.42    1.47   1
  -5  15   2   21.98    1.60   2
   5  15  -2   20.48    1.51   4
   5 -15  -2   19.64    1.40   3
   4 -15  -2    4.54    0.82   3
   4  15  -2    7.43    0.86   3
   4  15  -2    4.39    0.87   4
  -4 -15   2    5.59    0.92   1
   4 -15  -2    5.90    0.96   2
  -3  15   2   90.65    2.48   1
  -3 -15   2   93.63    2.67   4
   3  15  -2   94.45    2.51   3
   3 -15  -2   94.82    2.69   2
  -3 -15   2   95.73    2.59   1
   3 -15  -2   94.87    2.48   3
  -2  15   2   35.29    1.30   5
  -2  15   2   36.49    1.52   1
   2 -15  -2   38.56    1.59   2
   2  15  -2   38.33    1.46   3
   2 -15  -2   37.08    1.35   3
  -2 -15   2   35.64    1.45   1
  -2 -15   2   37.87    1.63   4
  -1  15   2    0.07    0.52   4
  -1 -15   2    0.48    0.54   4
   1 -15  -2    0.38    0.49   2
   1  15  -2   -0.48    0.43   3
  -1 -15   2    0.13    0.43   1
   1 -15  -2    0.28    0.39   3
   1 -15  -2    0.89    0.55   1
   0  15  -2  121.53    2.91   3
   0  15   2  122.20    2.90   4
   0 -15  -2  120.27    2.85   2
   0 -15  -2  123.12    2.95   1
   0 -15   2  120.50    2.59   1
   0 -15   2  123.52    3.00   4
   1 -15   2    1.01    0.59   3
   1 -15   2    0.92    0.59   4
  -1 -15  -2    1.45    0.53   2
  -1 -15  -2    0.87    0.55   1
   1  15   2    0.41    0.64   4
  -1  15  -2    0.90    0.55   2
   2 -15   2    6.44    0.86   4
  -2 -15  -2    5.02    0.83   1
   2  15   2    4.43    0.84   4
  -2  15  -2    5.57    0.81   2
  -2 -15  -2    6.52    0.71   2
   2 -15   2    7.02    0.85   3
   3 -15   2    8.30    0.98   4
  -3 -15  -2    8.52    1.01   1
  -3  15  -2    8.45    0.99   2
   3 -15   2    8.08    1.00   3
   3  15   2    9.96    1.11   4
   4  15   2    7.59    1.18   4
  -4 -15  -2    7.94    1.06   1
   4 -15   2    7.78    1.11   3
  -4  15  -2   10.41    1.21   2
   6  16  -2   25.55    1.83   4
   6 -16  -2   23.62    1.72   3
  -6  16   2   24.05    1.89   2
  -6 -16   2   25.44    1.77   1
   5 -16  -2   36.77    1.83   3
   5  16  -2   34.79    1.89   4
  -5  16   2   40.84    2.05   2
  -5 -16   2   38.17    1.89   1
   4 -16  -2    6.80    1.02   2
   4 -16  -2    5.82    0.88   3
   4  16  -2    8.14    1.05   4
  -4 -16   2    8.75    1.03   1
  -3 -16   2    1.74    0.69   4
   3 -16  -2    0.17    0.63   2
  -3  16   2   -0.28    0.55   1
   3 -16  -2    0.75    0.57   3
  -3 -16   2    0.95    0.65   1
   3  16  -2    1.52    0.62   3
  -2  16   2    0.25    0.55   1
  -2 -16   2    0.40    0.55   1
  -2  16   2    0.89    0.51   5
   2 -16  -2    0.41    0.47   3
   2 -16  -2    1.64    0.63   2
   2  16  -2    0.85    0.54   3
  -2 -16   2    1.22    0.64   4
  -1 -16   2   28.18    1.23   1
   1 -16  -2   25.49    1.38   1
   1 -16  -2   25.55    1.28   2
  -1  16   2   23.07    1.34   4
   1  16  -2   25.49    1.30   3
  -1 -16   2   27.35    1.45   4
   0  16   2   45.94    1.74   4
   0 -16   2   45.07    1.74   4
   0  16  -2   44.35    1.65   3
   0 -16  -2   45.26    1.72   1
   0 -16   2   43.17    1.43   1
   0 -16  -2   45.78    1.62   2
   1 -16   2    2.09    0.64   4
   1 -16   2    0.91    0.59   3
   1  16   2    2.10    0.73   4
  -1 -16  -2    1.70    0.65   1
  -1 -16  -2    1.98    0.57   2
  -2 -16  -2    0.92    0.61   1
   2 -16   2    0.49    0.61   4
   2 -16   2    0.40    0.58   3
   2  16   2   -0.80    0.64   4
  -2  16  -2   -0.70    0.60   2
  -3  16  -2    2.18    0.82   2
   3 -16   2    2.17    0.80   3
  -3 -16  -2    2.16    0.78   1
   3 -16   2    3.33    0.80   4
   3  16   2    1.98    0.90   4
  -4  16  -2    2.33    0.95   2
   4  16   2    0.29    0.90   4
  -4 -16  -2    0.96    0.80   1
   4 -16   2    0.77    0.82   3
  -5  17   2   31.79    1.95   2
   5  17  -2   26.52    1.77   4
   5 -17  -2   28.08    1.66   3
  -5 -17   2   30.14    1.76   1
  -4 -17   2   16.59    1.31   1
   4 -17  -2   16.01    1.23   3
   4  17  -2   15.08    1.30   4
   4 -17  -2   12.60    1.26   2
   3 -17  -2    6.37    0.84   3
  -3  17   2    6.27    0.87   1
  -3 -17   2    5.66    0.93   4
  -3 -17   2    6.95    0.90   1
   3  17  -2    8.15    0.89   3
   3 -17  -2    6.65    0.95   2
   2  17  -2    2.27    0.66   3
  -2  17   2    3.68    0.74   1
   2 -17  -2    4.71    0.67   3
  -2 -17   2    3.43    0.73   1
  -2  17   2    3.45    0.66   5
  -2 -17   2    4.21    0.81   4
   2 -17  -2    3.87    0.79   2
  -1  17   2   -0.13    0.62   4
   1 -17  -2    0.42    0.55   2
   1  17  -2   -0.13    0.54   3
   1 -17  -2    0.12    0.63   1
  -1 -17   2    0.62    0.52   1
  -1 -17   2    0.42    0.64   4
   0  17  -2   12.65    0.99   3
   0 -17  -2   12.21    0.95   2
   0  17   2   11.20    1.03   4
   0 -17   2   11.52    1.03   4
   0 -17  -2   12.22    1.03   1
   0 -17   2   14.46    0.97   1
  -1  17  -2   18.51    1.21   3
   1 -17   2   16.95    1.20   4
  -1 -17  -2   18.92    1.20   2
   1  17   2   19.20    1.39   4
  -1 -17  -2   21.00    1.33   1
   2 -17   2    0.21    0.63   3
   2 -17   2    0.19    0.65   4
  -2 -17  -2    0.40    0.64   1
   2  17   2   -0.90    0.67   4
  -2  17  -2    0.31    0.68   2
   3 -17   2    1.26    0.78   3
  -3 -17  -2    0.30    0.74   1
   3 -17   2    1.78    0.81   4
   3  17   2    1.34    0.90   4
  -3  17  -2    1.37    0.84   2
   4  17   2    0.37    0.91   4
  -4  17  -2   -0.34    0.86   2
   4 -17   2   -0.19    0.83   3
  -4 -17  -2   -0.24    0.84   1
   5 -18  -2    1.64    0.90   3
  -5 -18   2    0.53    0.90   1
  -5  18   2    1.15    0.92   2
   5  18  -2    0.87    1.02   4
   4 -18  -2   19.42    1.36   3
   4 -18  -2   18.86    1.51   2
   4  18  -2   22.92    1.62   4
  -4 -18   2   20.01    1.44   1
  -3  18   2    1.10    0.66   1
   3  18  -2    1.88    0.74   4
   3 -18  -2    0.34    0.61   3
  -3 -18   2   -0.19    0.64   1
   3 -18  -2    0.67    0.70   2
  -2  18   2   45.68    1.80   1
  -2  18   2   46.11    1.58   5
   2  18  -2   43.42    1.72   3
   2 -18  -2   43.29    1.80   2
  -2 -18   2   46.70    1.75   1
  -2 -18   2   45.53    1.93   4
  -1  18   2   23.91    1.46   4
   1 -18  -2   24.78    1.37   2
  -1 -18   2   26.94    1.30   1
   1  18  -2   25.33    1.41   3
   1 -18  -2   26.58    1.49   1
  -1 -18   2   25.13    1.46   4
   0  18  -2   -0.74    0.52   3
   0  18   2   -0.60    0.66   4
   0 -18  -2   -0.49    0.61   1
   0 -18   2    1.24    0.67   4
   0 -18  -2    1.06    0.58   2
  -1  18  -2   18.74    1.25   3
   1  18   2   18.07    1.31   4
  -1 -18  -2   18.59    1.30   1
   1 -18   2   19.08    1.28   4
  -2 -18  -2   26.07    1.53   1
   2 -18   2   24.56    1.50   3
   2 -18   2   25.76    1.46   4
   2  18   2   25.85    1.64   4
   3 -18   2   14.76    1.29   3
  -3 -18  -2   15.01    1.32   1
  -3  18  -2   15.88    1.32   2
   3  18   2   14.57    1.38   4
   4 -18   2   15.34    1.45   3
   4  18   2   15.02    1.52   4
  -4  18  -2   16.27    1.52   2
  -4 -18  -2   19.28    1.53   1
  -4 -19   2   59.31    2.28   1
   4 -19  -2   58.03    2.19   3
   4  19  -2   58.80    2.40   4
   4 -19  -2   55.95    2.36   2
   3 -19  -2    0.31    0.65   3
  -3 -19   2   -0.56    0.68   1
   3  19  -2    1.55    0.78   4
   3 -19  -2   -0.05    0.70   2
  -2  19   2    2.25    0.71   1
  -2 -19   2    1.39    0.67   1
   2 -19  -2    2.19    0.76   2
   2  19  -2    1.90    0.68   3
  -2 -19   2    1.85    0.78   4
  -2  19   2    2.15    0.66   5
  -1 -19   2   32.37    1.48   1
   1 -19  -2   30.12    1.54   2
   1  19  -2   31.90    1.60   3
   1 -19  -2   35.26    1.67   1
  -1 -19   2   31.20    1.67   4
  -1  19   2   33.46    1.67   4
   0 -19  -2    3.35    0.76   2
   0  19   2    1.50    0.82   4
   0  19  -2    2.86    0.73   3
   0 -19   2    2.55    0.80   4
   0 -19  -2    1.49    0.74   1
  -1 -19  -2    1.86    0.76   1
  -1  19  -2    2.60    0.73   3
   1 -19   2    2.66    0.79   4
   1  19   2    1.04    0.84   4
   2 -19   2    5.75    0.93   4
  -2 -19  -2    7.90    1.03   1
   2 -19   2    5.72    0.98   3
   2  19   2    4.95    1.06   4
  -3 -19  -2   13.40    1.31   1
   3 -19   2   13.30    1.30   3
   3  19   2   10.61    1.30   4
  -4 -20   2   14.54    1.39   1
   4 -20  -2   14.43    1.32   3
   4  20  -2   17.90    1.53   4
  -4  20   2   17.02    1.44   2
   3  20  -2    1.74    0.84   4
   3 -20  -2   -0.87    0.76   2
  -3 -20   2    0.88    0.74   1
  -2  20   2    5.77    0.82   5
  -2 -20   2    5.55    0.92   1
   2 -20  -2    5.37    0.93   2
  -2 -20   2    5.33    0.99   4
  -2  20   2    5.68    0.90   1
   1 -20  -2   62.44    2.21   2
   1  20  -2   59.74    2.17   3
  -1 -20   2   57.83    2.29   4
  -1 -20   2   64.25    2.07   1
   1 -20  -2   65.26    2.28   1
   0 -20  -2    6.70    0.97   1
   0 -20   2    7.48    1.01   4
   0  20  -2    5.43    0.90   3
   0  20   2    6.30    1.05   4
  -1 -20  -2   51.32    2.09   1
   1  20   2   48.52    2.15   4
  -1  20  -2   50.79    2.01   3
   1 -20   2   47.03    2.03   4
   2 -20   2   26.22    1.60   4
  -2 -20  -2   29.95    1.73   1
   2  20   2   28.22    1.84   4
   3 -20   2    0.21    0.90   3
  -3 -20  -2   -0.34    0.82   1
   3  20   2   -0.46    0.89   4
   3  21  -2    4.81    1.07   4
  -3 -21   2    3.78    0.96   1
   3 -21  -2    2.74    0.97   2
  -2  21   2    4.69    0.91   1
  -2 -21   2    2.91    0.80   1
  -2  21   2    3.07    0.78   5
   2 -21  -2    2.11    0.86   2
  -2 -21   2    2.70    0.95   4
  -1 -21   2    5.67    0.88   1
   1 -21  -2    5.88    0.99   1
  -1 -21   2    4.83    0.98   4
   1  21  -2    4.64    0.89   3
   1 -21  -2    5.56    0.95   2
   0 -21   2   16.89    1.40   4
   0  21  -2   16.91    1.31   3
   0  21   2   19.74    1.46   4
   0 -21  -2   17.06    1.37   1
   1 -21   2   13.03    1.32   4
   1  21   2   13.58    1.36   4
  -1  21  -2   14.02    1.24   3
  -1 -21  -2   16.52    1.38   1
   2 -21   2   37.07    1.88   4
   2  21   2   31.42    2.01   4
  -2  21  -2   33.58    1.84   3
  -2 -21  -2   36.78    1.91   1
   3 -22  -2   79.58    2.86   2
  -3 -22   2   80.38    2.75   1
   3  22  -2   87.69    3.03   4
  -2  22   2    1.34    0.79   5
   2 -22  -2    1.26    0.91   2
  -2 -22   2    2.14    0.99   4
  -2  22   2    2.64    0.88   1
  -2 -22   2    2.10    0.86   1
   1 -22  -2    0.49    0.80   1
  -1 -22   2   -0.19    0.80   4
   0 -22  -2   75.70    2.62   1
   0  22   2   70.58    2.60   4
   0  22  -2   70.86    2.49   3
   0 -22   2   72.30    2.64   4
  -1  22  -2   30.85    1.75   3
   1  22   2   33.36    2.01   4
  -1 -22  -2   30.57    1.81   1
   1 -22   2   33.66    1.87   4
   2  23  -2    3.87    0.99   4
  -2 -23   2    3.18    0.92   1
  -1 -23   2   -1.08    0.88   4
   1 -23  -2    0.31    0.88   1
   0 -23  -2   -0.67    0.86   1
   0 -23   2    0.61    0.93   4
   0  23   2    0.56    0.97   4
   8   0  -3    0.12    0.88   3
  -7   0   3    7.31    1.04   1
   7   0  -3    5.97    0.98   3
   6   0  -3   -0.06    0.69   3
  -6   0   3   -0.80    0.69   1
  -6   0   3    0.44    0.62   2
  -5   0   3   44.48    1.77   1
  -5   0   3   44.95    1.59   2
   5   0  -3   45.99    1.80   3
  -4   0   3    0.30    0.49   1
   4   0  -3   -0.19    0.37   2
   4   0  -3    0.14    0.43   3
  -3   0   3  108.39    1.94   4
   3   0  -3  107.90    2.38   3
   3   0  -3  109.29    2.23   2
  -3   0   3  110.66    2.37   1
   2   0  -3    0.30    0.27   3
  -2   0   3    0.02    0.22   4
  -2   0   3   -0.06    0.31   1
   2   0  -3    0.11    0.22   2
   1   0  -3  316.69    5.35   3
  -1   0   3  324.83    5.25   4
   1   0  -3  322.94    5.36   2
  -1   0   3  320.98    5.27   1
   0   0   3    0.20    0.32   4
   0   0   3    0.02    0.21   1
   0   0  -3    0.11    0.25   2
   0   0  -3    0.07    0.17   3
   1   0   3   69.02    1.79   4
  -1   0  -3   69.34    1.40   1
   1   0   3   67.97    1.50   3
  -1   0  -3   68.06    1.75   2
  -2   0  -3    0.26    0.27   1
  -2   0  -3   -0.13    0.44   2
   2   0   3   -0.40    0.53   4
   2   0   3    0.17    0.31   3
   3   0   3   10.01    0.73   3
   3   0   3    9.36    0.94   4
  -3   0  -3   10.19    0.91   2
   4   0   3   -0.76    0.69   4
  -4   0  -3    0.68    0.66   2
  -5   0  -3   63.00    2.38   2
   5   0   3   68.14    2.54   4
   6   0   3   -0.14    1.01   4
  -6   0  -3    0.23    0.96   2
   8   1  -3    4.12    1.05   3
   8  -1  -3    4.49    1.08   3
  -8  -1   3    6.09    1.15   1
   7  -1  -3    6.18    1.00   3
  -7   1   3    6.11    0.91   2
  -7  -1   3    5.97    1.03   1
   7   1  -3    7.46    1.05   3
  -7   1   3    7.47    1.04   1
  -6   1   3    9.13    0.95   2
   6   1  -3   13.74    1.14   3
   6  -1  -3   10.12    1.09   3
  -6  -1   3   11.36    0.96   2
  -6   1   3   11.55    1.09   1
  -6  -1   3   12.33    1.13   1
  -5   1   3  514.27    8.68   2
   5  -1  -3  511.18    9.03   3
   5   1  -3  502.61    9.01   3
  -5  -1   3  523.69    8.58   2
  -5   1   3  498.21    8.72   1
  -5  -1   3  493.76    8.74   1
   4   1  -3   47.11    1.14   4
  -4   1   3   49.20    1.62   1
   4   1  -3   49.12    1.40   2
   4  -1  -3   48.16    1.60   3
  -4  -1   3   51.16    1.63   1
   4   1  -3   49.39    1.61   3
   4  -1  -3   49.60    1.49   2
   3   1  -3   52.46    1.30   2
  -3  -1   3   53.43    1.18   4
   3   1  -3   52.49    1.48   3
   3  -1  -3   50.80    1.37   2
   3  -1  -3   49.54    1.45   3
  -3  -1   3   51.65    1.49   1
  -3   1   3   51.97    1.50   1
   2  -1  -3  231.95    4.04   3
  -2  -1   3  226.33    4.01   1
   2  -1  -3  230.83    4.00   2
  -2  -1   3  226.11    3.80   4
  -2   1   3  230.61    4.04   1
   2   1  -3  228.06    3.90   2
   2   1  -3  227.18    4.07   3
  -2   1   3  225.08    3.72   4
   1  -1  -3   37.56    0.94   3
   1   1  -3   37.01    0.99   3
  -1   1   3   37.82    1.06   4
   1  -1  -3   38.50    1.04   2
  -1  -1   3   35.51    1.05   4
  -1  -1   3   37.82    1.02   1
  -1   1   3   38.01    1.05   1
   1   1  -3   36.56    1.00   2
   0   1   3  297.97    5.04   4
   0  -1   3  297.20    4.79   1
   0   1  -3  303.31    5.10   2
   0  -1  -3  294.46    4.91   3
   0  -1   3  297.35    5.05   4
   0   1   3  299.30    4.88   1
   0   1   3  298.27    4.31   5
   0   1  -3  297.71    5.01   3
   0  -1  -3  295.12    5.11   2
   1  -1   3  417.76    6.57   1
   1   1   3  417.33    6.84   3
   1   1   3  415.21    6.99   4
  -1  -1  -3  418.15    6.68   1
  -1   1  -3  419.76    7.11   2
   1  -1   3  414.93    5.80   5
   1  -1   3  428.50    6.96   3
   1  -1   3  421.56    7.00   4
   2  -1   3  334.62    5.85   3
  -2  -1  -3  340.34    6.08   2
  -2  -1  -3  337.20    5.52   1
   2  -1   3  341.92    5.99   4
   2   1   3  327.00    5.98   4
  -2   1  -3  345.15    6.09   2
   2   1   3  336.99    5.75   3
   3   1   3   16.57    1.16   4
   3  -1   3   16.84    0.98   3
   3  -1   3   16.59    1.24   4
   3   1   3   15.76    0.92   3
  -3  -1  -3   17.56    1.20   2
  -3   1  -3   16.54    1.18   2
  -4  -1  -3    1.80    0.76   2
   4   1   3    2.19    0.83   4
   4  -1   3    0.78    0.59   3
   4  -1   3    1.35    0.75   4
  -4   1  -3    1.62    0.73   2
   5  -1   3  156.60    3.90   4
  -5   1  -3  146.96    3.85   2
   5   1   3  158.41    3.92   4
  -5  -1  -3  145.22    3.83   2
   6   1   3    1.18    1.09   4
  -6  -1  -3    0.68    0.94   2
   6  -1   3    0.60    1.10   4
  -6   1  -3    0.86    0.93   2
   8   2  -3   10.48    1.33   3
   8  -2  -3    8.35    1.24   3
  -8  -2   3   11.37    1.32   1
  -7  -2   3   31.78    1.75   1
  -7   2   3   30.25    1.62   2
   7   2  -3   31.91    1.79   3
  -7   2   3   31.24    1.73   1
   7  -2  -3   29.70    1.73   3
  -6   2   3  209.18    4.48   1
  -6  -2   3  219.30    4.26   2
  -6  -2   3  218.36    4.58   1
  -6   2   3  210.94    4.45   2
   6   2  -3  216.21    4.72   3
   6  -2  -3  212.86    4.73   3
  -5   2   3  120.29    2.89   1
  -5  -2   3  117.12    2.94   1
   5   2  -3  122.57    3.01   3
  -5   2   3  121.39    2.83   2
  -5  -2   3  121.73    2.66   2
   5  -2  -3  121.94    3.04   3
   4   2  -3   17.94    0.87   2
   4   2  -3   18.17    1.09   3
  -4   2   3   19.10    1.13   1
   4  -2  -3   19.94    1.11   3
   4   2  -3   20.55    0.79   4
   4  -2  -3   20.05    1.01   2
  -4  -2   3   19.66    1.15   1
   3  -2  -3  257.45    4.54   2
   3   2  -3  252.80    4.32   2
  -3  -2   3  251.70    4.53   1
   3   2  -3  252.50    4.64   3
   3  -2  -3  254.02    4.61   3
  -3   2   3  248.54    4.53   1
  -3  -2   3  253.40    4.20   4
   2  -2  -3 2482.25   37.49   2
  -2   2   3 2466.29   36.32   4
  -2  -2   3 2447.15   36.37   4
   2   2  -3 2365.41   37.95   3
  -2  -2   3 2398.91   36.92   1
   2   2  -3 2452.26   37.34   2
  -2   2   3 2418.43   36.95   1
   2  -2  -3 2470.54   37.93   3
   1   2  -3 1025.70   15.81   2
  -1   2   3 1006.58   15.65   1
   1   2  -3 1003.10   16.05   3
   1  -2  -3 1029.04   15.90   2
  -1  -2   3  995.37   15.48   4
   1  -2  -3 1018.82   15.94   3
  -1   2   3 1020.92   15.43   4
  -1  -2   3 1013.39   15.57   1
   0  -2   3  199.32    3.64   4
   0  -2   3  197.51    3.34   1
   0   2  -3  204.72    3.64   2
   0   2   3  201.24    3.10   5
   0   2   3  200.73    3.50   1
   0   2   3  208.55    3.66   4
   0  -2  -3  209.74    3.70   2
   0   2  -3  201.51    3.59   3
   0  -2  -3  197.73    3.39   3
   1   2   3  431.99    7.21   4
  -1  -2  -3  426.41    7.31   2
  -1   2  -3  438.08    7.32   2
   1  -2   3  435.96    7.20   4
  -1  -2  -3  436.21    6.93   1
   1  -2   3  431.39    7.21   3
   1   2   3  425.46    6.98   3
   2  -2   3  317.54    5.60   3
   2   2   3  311.04    5.38   3
  -2  -2  -3  319.78    5.76   2
  -2   2  -3  316.93    5.77   2
   2  -2   3  313.90    5.68   4
  -2  -2  -3  322.15    5.30   1
   2   2   3  319.59    5.73   4
   3   2   3    7.93    0.96   4
  -3   2  -3    9.39    0.93   2
   3  -2   3    9.66    0.92   4
  -3  -2  -3   10.15    0.89   2
   3  -2   3   10.37    0.78   3
   4   2   3   46.49    1.99   4
  -4  -2  -3   43.69    1.84   2
   4  -2   3   47.01    1.74   3
  -4   2  -3   44.81    1.89   2
   4  -2   3   49.58    1.98   4
  -5   2  -3    3.13    0.94   2
   5  -2   3    1.73    0.94   4
  -5  -2  -3    2.81    0.94   2
   5   2   3    3.59    1.01   4
  -6  -2  -3   20.53    1.64   2
   6   2   3   19.44    1.70   4
  -6   2  -3   20.70    1.65   2
  -8   3   3   -0.36    0.90   2
  -8  -3   3    1.03    0.98   1
   8   3  -3    0.13    0.90   3
   8  -3  -3   -0.26    0.85   3
  -7   3   3    8.58    1.06   2
   7   3  -3    8.84    1.13   3
   7  -3  -3    9.45    1.12   3
  -7  -3   3   10.24    1.18   1
  -7   3   3    8.76    1.11   1
  -6  -3   3  168.95    3.86   1
  -6   3   3  163.49    3.72   1
   6  -3  -3  164.87    3.94   3
   6   3  -3  165.90    3.92   3
  -6   3   3  166.52    3.75   2
  -5  -3   3  162.79    3.59   1
  -5  -3   3  160.56    3.18   2
   5   3  -3  162.97    3.64   3
   5  -3  -3  160.83    3.51   2
  -5   3   3  159.50    3.50   1
   5   3  -3  161.39    3.07   4
   5  -3  -3  161.68    3.66   3
   4   3  -3  269.75    5.12   3
  -4   3   3  267.06    4.97   1
  -4  -3   3  270.31    4.63   2
   4  -3  -3  273.64    5.11   3
  -4  -3   3  275.32    5.02   1
   4  -3  -3  261.31    4.98   2
   3  -3  -3  735.65   12.10   2
   3   3  -3  756.21   11.79   2
   3  -3  -3  760.73   12.25   3
   3   3  -3  745.01   12.28   3
  -3  -3   3  752.33   11.58   4
  -3   3   3  742.73   11.96   1
  -3  -3   3  751.83   11.96   1
   2   3  -3  256.67    4.48   3
   2   3  -3  253.38    4.16   2
   2  -3  -3  249.10    4.43   2
  -2   3   3  249.39    4.03   4
  -2  -3   3  250.35    4.35   1
  -2   3   3  248.30    4.40   1
  -2  -3   3  250.14    4.24   4
   2  -3  -3  250.30    4.38   3
   1   3  -3   73.39    1.52   2
   1  -3  -3   72.48    1.67   2
   1  -3  -3   73.33    1.46   3
  -1  -3   3   72.26    1.66   4
  -1   3   3   72.76    1.63   1
  -1  -3   3   73.40    1.55   1
  -1   3   3   73.80    1.59   4
   1   3  -3   74.51    1.64   3
   0  -3  -3  525.21    8.52   2
   0   3   3  523.80    8.34   4
   0   3  -3  520.32    8.51   3
   0  -3   3  514.86    8.05   1
   0  -3   3  511.36    8.34   4
   0  -3  -3  519.86    8.29   1
   0   3  -3  518.47    8.44   2
   1   3   3    1.93    0.25   3
  -1  -3  -3    1.70    0.33   1
  -1   3  -3    0.72    0.40   2
   1   3   3    1.21    0.49   4
   1  -3   3    2.46    0.37   3
   1  -3   3    0.96    0.46   4
  -1  -3  -3    1.73    0.42   2
  -2   3  -3   28.55    1.27   2
   2  -3   3   29.39    1.34   4
   2   3   3   27.60    0.89   3
  -2  -3  -3   27.74    1.00   1
   2   3   3   29.26    1.38   4
  -2  -3  -3   26.63    1.25   2
   2  -3   3   28.41    1.11   3
  -3  -3  -3  251.14    4.89   2
   3   3   3  242.62    4.90   4
   3  -3   3  247.43    4.81   4
   3  -3   3  245.70    4.74   3
  -3   3  -3  241.61    4.90   2
  -4   3  -3   80.22    2.55   2
  -4  -3  -3   83.06    2.51   2
   4   3   3   80.34    2.57   4
   4  -3   3   80.02    2.35   3
   4  -3   3   85.71    2.54   4
   5   3   3   13.16    1.30   4
   5  -3   3   10.71    1.24   4
   5  -3   3   10.93    1.14   3
  -5  -3  -3   11.45    1.25   2
  -5   3  -3   12.88    1.26   2
  -6   3  -3   37.20    2.09   2
   6   3   3   39.99    2.27   4
  -6  -3  -3   39.96    2.16   2
  -8   4   3    1.20    0.99   2
  -7   4   3    8.65    1.08   2
   7  -4  -3    7.91    1.07   3
  -7  -4   3   11.22    1.17   1
   7   4  -3    8.81    1.15   3
  -7   4   3    8.48    1.14   1
   6  -4  -3    1.71    0.74   3
  -6   4   3    2.18    0.71   2
   6   4  -3    2.14    0.70   3
  -6   4   3    2.44    0.75   1
  -6  -4   3    1.80    0.80   1
   5  -4  -3    0.56    0.59   3
   5   4  -3   -0.47    0.42   4
   5  -4  -3   -0.05    0.52   2
   5   4  -3    1.57    0.60   3
  -5   4   3    1.48    0.64   1
  -5  -4   3   -0.38    0.61   1
  -4  -4   3  209.93    3.83   4
   4   4  -3  217.62    4.29   3
  -4   4   3  219.15    4.18   1
   4  -4  -3  211.37    4.20   2
  -4  -4   3  221.73    3.76   2
  -4  -4   3  213.70    4.19   1
   4  -4  -3  210.16    4.25   3
   3   4  -3   97.54    2.25   3
   3  -4  -3   97.66    2.21   3
  -3  -4   3   96.98    2.24   1
   3  -4  -3   99.50    2.25   2
  -3  -4   3   97.65    2.05   4
  -3   4   3   97.48    2.25   1
   3   4  -3   98.45    1.85   2
   2  -4  -3   50.94    1.38   2
  -2   4   3   50.97    1.40   1
   2   4  -3   49.55    1.06   2
  -2  -4   3   51.35    1.36   1
   2   4  -3   51.06    1.38   3
  -2  -4   3   48.71    1.29   4
   2  -4  -3   49.33    1.27   3
  -2   4   3   50.00    1.11   4
  -1   4   3  628.05    9.64   4
  -1   4   3  619.50    9.84   1
   1   4  -3  607.95   10.07   3
   1  -4  -3  614.83    9.98   2
  -1  -4   3  614.62    9.67   1
   1  -4  -3  597.85    9.82   3
   1   4  -3  612.10    9.77   2
  -1  -4   3  651.94    9.77   4
   0  -4   3    0.16    0.33   4
   0  -4  -3    0.20    0.28   1
   0  -4  -3    0.66    0.31   2
   0   4  -3    0.34    0.26   3
   0   4  -3    0.01    0.29   2
   0  -4   3    0.29    0.22   1
   0   4   3    0.21    0.36   4
   1  -4   3    7.36    0.56   3
   1  -4   3    6.60    0.63   4
  -1  -4  -3    7.96    0.55   1
  -1   4  -3    7.02    0.64   2
   1   4   3    6.93    0.70   4
  -1  -4  -3    6.21    0.57   2
   2  -4   3   21.83    1.20   4
   2   4   3   21.29    1.26   4
  -2  -4  -3   20.83    0.93   1
  -2   4  -3   20.91    1.16   2
  -2  -4  -3   20.49    1.10   2
   2  -4   3   20.05    0.99   3
   3  -4   3    0.29    0.51   3
   3  -4   3    0.84    0.61   4
   3   4   3   -0.68    0.62   4
  -3  -4  -3    0.94    0.59   2
  -3   4  -3   -0.11    0.64   2
  -3  -4  -3    0.76    0.47   1
  -4   4  -3   18.80    1.43   2
  -4  -4  -3   21.05    1.42   2
   4   4   3   20.35    1.47   4
   4  -4   3   17.92    1.28   4
   4  -4   3   20.26    1.33   3
   5  -4   3    3.31    0.88   3
  -5  -4  -3    2.49    0.88   2
  -5   4  -3    3.39    0.97   2
   5   4   3    3.00    0.96   4
   5  -4   3    4.15    0.98   4
  -7   5   3   10.22    1.16   1
  -7   5   3    7.75    1.07   2
   7  -5  -3    8.41    1.11   3
  -7  -5   3   10.47    1.18   1
   7   5  -3    9.45    1.16   3
   6   5  -3    9.06    0.97   3
  -6   5   3    9.54    0.98   2
  -6   5   3   10.83    1.02   1
   6  -5  -3   10.11    1.03   3
  -6  -5   3   10.10    1.07   1
   5  -5  -3    5.32    0.78   2
  -5   5   3    6.36    0.80   1
  -5  -5   3    6.22    0.86   1
   5  -5  -3    4.46    0.78   3
   5   5  -3    7.26    0.82   3
   5   5  -3    5.97    0.65   4
   4  -5  -3    9.06    0.78   2
  -4  -5   3    7.53    0.48   2
  -4  -5   3    6.01    0.77   1
   4  -5  -3    8.10    0.77   3
  -4  -5   3    7.73    0.63   4
   4   5  -3    8.78    0.79   3
  -4   5   3    7.79    0.80   1
   3   5  -3  159.33    3.22   3
  -3  -5   3  153.40    2.99   4
  -3  -5   3  154.91    3.14   1
  -3   5   3  161.07    3.17   1
   3  -5  -3  157.94    3.22   2
   3  -5  -3  154.18    3.13   3
   2  -5  -3   33.48    1.12   2
   2  -5  -3   32.96    1.00   3
  -2  -5   3   31.58    1.08   1
  -2   5   3   33.84    1.14   1
   2   5  -3   33.37    1.11   3
  -2  -5   3   31.17    1.06   4
  -2   5   3   33.86    0.89   4
   1  -5  -3  149.00    2.63   3
   1   5  -3  153.12    2.95   3
  -1   5   3  151.83    2.56   5
  -1   5   3  151.97    2.76   4
  -1   5   3  149.83    2.89   1
   1  -5  -3  150.08    2.94   2
  -1  -5   3  150.79    2.72   1
  -1  -5   3  150.56    2.90   4
   1   5  -3  150.83    2.68   2
   0  -5  -3   32.14    1.04   1
   0  -5  -3   29.01    1.06   2
   0   5  -3   30.27    1.00   2
   0   5   3   30.11    1.10   4
   0  -5   3   30.06    0.76   1
   0  -5   3   30.38    1.13   4
   0   5  -3   30.10    1.01   3
  -1  -5  -3  321.12    5.47   1
   1  -5   3  314.18    5.61   4
   1  -5   3  317.78    5.67   3
  -1   5  -3  324.14    5.65   2
  -1  -5  -3  325.34    5.68   2
   1   5   3  326.03    5.66   4
   2  -5   3    0.79    0.54   4
  -2  -5  -3    1.77    0.44   1
   2  -5   3    0.74    0.43   3
  -2  -5  -3    1.56    0.52   2
   2   5   3    0.53    0.60   4
  -2   5  -3    0.78    0.55   2
  -3  -5  -3    5.20    0.78   2
   3  -5   3    6.15    0.82   4
   3  -5   3    6.23    0.75   3
  -3   5  -3    4.82    0.84   2
   3   5   3    4.96    0.88   4
  -3  -5  -3    5.02    0.66   1
   4  -5   3  146.93    3.48   3
   4  -5   3  145.10    3.48   4
  -4   5  -3  148.81    3.66   2
  -4  -5  -3  143.64    3.51   2
   4   5   3  141.15    3.60   4
   5  -5   3    1.68    0.81   3
  -5  -5  -3    0.11    0.78   2
   5  -5   3    1.49    0.83   4
   5   5   3    2.25    0.95   4
  -5   5  -3    0.21    0.82   2
   7   6  -3   -0.20    0.76   3
   7  -6  -3    0.02    0.76   3
  -7  -6   3   -0.21    0.78   1
  -7   6   3   -0.46    0.75   2
   6  -6  -3    3.04    0.78   3
   6   6  -3    3.46    0.77   3
  -6   6   3    2.49    0.73   2
  -6   6   3    4.38    0.81   1
  -6  -6   3    1.83    0.75   1
  -5  -6   3   74.97    2.24   1
   5  -6  -3   71.50    2.22   3
   5   6  -3   71.73    2.19   3
   5   6  -3   72.54    1.96   4
   5  -6  -3   69.09    2.18   2
  -5   6   3   73.17    2.13   1
  -4   6   3  260.11    4.86   1
   4  -6  -3  257.76    5.00   2
  -4  -6   3  254.97    4.64   4
  -4  -6   3  261.32    4.92   1
   4   6  -3  256.77    4.99   3
   4  -6  -3  259.17    4.97   3
   3  -6  -3  140.72    2.96   3
  -3  -6   3  145.93    2.89   4
   3  -6  -3  147.33    3.10   2
  -3   6   3  144.98    3.01   1
  -3  -6   3  146.87    3.01   1
   3   6  -3  144.33    3.04   3
   2   6  -3  240.71    4.47   3
  -2   6   3  244.26    3.98   4
  -2  -6   3  247.00    4.34   4
   2  -6  -3  244.08    4.27   3
   2  -6  -3  244.55    4.48   2
  -2  -6   3  241.60    4.29   1
  -2   6   3  241.29    4.39   1
   1  -6  -3   58.34    1.54   2
  -1   6   3   58.69    1.53   1
   1   6  -3   59.61    1.29   2
  -1  -6   3   63.59    1.58   4
   1   6  -3   58.36    1.52   3
  -1   6   3   58.85    1.36   5
   1  -6  -3   59.07    1.23   3
  -1   6   3   60.19    1.43   4
  -1  -6   3   61.49    1.38   1
   0   6  -3  149.05    2.81   2
   0  -6   3  147.70    2.49   1
   0  -6   3  148.60    2.95   4
   0  -6  -3  139.22    2.85   1
   0   6   3  151.34    2.91   4
   0   6  -3  149.52    2.95   3
   0  -6  -3  144.17    2.92   2
   1   6   3  172.35    3.44   4
  -1   6  -3  169.67    3.36   2
  -1  -6  -3  169.29    3.27   1
   1  -6   3  169.93    3.40   3
   1  -6   3  169.86    3.41   4
   2  -6   3  154.41    3.30   3
   2   6   3  151.17    3.40   4
  -2   6  -3  156.35    3.37   2
   2  -6   3  154.66    3.32   4
  -2  -6  -3  159.56    3.32   2
  -2  -6  -3  151.39    3.12   1
  -3   6  -3   18.73    1.33   2
   3  -6   3   20.84    1.23   3
  -3  -6  -3   21.36    1.29   2
  -3  -6  -3   17.67    1.13   1
   3   6   3   21.30    1.45   4
   3  -6   3   21.68    1.31   4
   4  -6   3   41.58    1.84   4
  -4   6  -3   42.76    1.89   2
   4   6   3   45.72    1.97   4
  -4  -6  -3   43.38    1.85   2
   4  -6   3   45.42    1.81   3
  -5  -6  -3   -0.03    0.83   2
   5  -6   3    0.76    0.75   3
   5  -6   3    0.53    0.86   4
  -5   6  -3   -0.93    0.76   2
   5   6   3    0.67    0.89   4
   7  -7  -3   25.88    1.66   3
  -7  -7   3   26.07    1.69   1
  -7   7   3   26.16    1.65   2
   7   7  -3   30.21    1.74   3
   6   7  -3    3.32    0.78   3
  -6  -7   3    4.32    0.89   1
   6  -7  -3    2.71    0.74   3
  -6   7   3    4.36    0.84   1
  -6   7   3    3.42    0.82   2
  -5   7   3   13.92    1.03   1
   5   7  -3   12.14    0.86   4
  -5  -7   3   10.91    0.99   1
   5  -7  -3   12.00    1.01   3
   5   7  -3   12.26    0.99   3
   5  -7  -3   11.70    1.00   2
  -4   7   3   13.92    0.96   1
   4  -7  -3   11.46    0.89   2
   4   7  -3   10.96    0.88   3
  -4  -7   3    9.94    0.89   1
   4  -7  -3   12.66    0.91   3
  -4  -7   3   11.76    0.81   4
  -3  -7   3    2.38    0.54   1
   3  -7  -3    2.67    0.48   3
   3   7  -3    2.88    0.51   3
   3  -7  -3    2.43    0.50   2
  -3  -7   3    2.29    0.46   4
  -3   7   3    3.05    0.55   1
  -2   7   3    7.41    0.62   1
  -2  -7   3    7.41    0.59   4
   2   7  -3    7.94    0.61   3
  -2   7   3    8.29    0.57   4
   2  -7  -3    7.89    0.64   2
   2  -7  -3    7.88    0.52   3
  -2  -7   3    7.71    0.60   1
  -1   7   3   69.07    1.54   5
  -1   7   3   69.96    1.76   1
  -1  -7   3   70.59    1.78   4
   1  -7  -3   69.74    1.40   3
  -1   7   3   69.61    1.63   4
   1  -7  -3   74.71    1.80   2
   1   7  -3   72.82    1.77   3
  -1  -7   3   69.73    1.55   1
   1   7  -3   69.02    1.46   2
   0   7  -3   33.70    1.14   3
   0   7   3   32.14    1.18   4
   0   7  -3   30.87    1.03   2
   0  -7   3   30.36    0.81   1
   0  -7  -3   31.15    1.12   1
   0  -7  -3   31.91    1.13   2
   0  -7   3   31.82    1.22   4
  -1   7  -3   12.60    0.89   2
  -1  -7  -3   11.51    0.85   2
   1  -7   3   11.52    0.83   3
   1   7   3   11.60    0.84   4
  -1  -7  -3   12.03    0.82   1
   1  -7   3   12.14    0.83   4
  -2   7  -3  361.16    6.61   2
   2  -7   3  367.66    6.50   4
   2   7   3  372.04    6.63   4
   2  -7   3  366.83    6.66   3
  -2  -7  -3  369.94    6.57   2
  -2  -7  -3  364.12    6.38   1
   3  -7   3   10.87    0.97   4
  -3  -7  -3   14.15    1.05   1
  -3  -7  -3   12.09    0.97   2
  -3   7  -3   11.25    1.02   2
   3   7   3   10.16    1.06   4
   3  -7   3   11.77    0.97   3
   4  -7   3    9.42    1.04   4
   4   7   3   11.10    1.18   4
   4  -7   3   12.10    1.08   3
  -4   7  -3   12.49    1.19   2
  -4  -7  -3   11.82    1.09   2
  -5  -7  -3   36.60    1.91   2
   5   7   3   34.28    1.97   4
   5  -7   3   37.65    1.85   3
   5  -7   3   31.66    1.88   4
  -5   7  -3   41.44    2.08   2
   7  -8  -3   -0.46    0.76   3
  -7   8   3   -0.23    0.81   2
   7   8  -3    0.51    0.80   3
  -7  -8   3    0.86    0.86   1
   6  -8  -3    0.92    0.70   3
  -6   8   3    0.66    0.68   1
  -6  -8   3    0.68    0.70   1
   6   8  -3    0.20    0.63   3
  -6   8   3    0.52    0.72   2
  -5   8   3    4.60    0.77   1
   5   8  -3    4.43    0.76   3
   5  -8  -3    5.24    0.81   2
   5  -8  -3    4.23    0.75   3
  -5  -8   3    5.71    0.84   1
   5   8  -3    5.89    0.71   4
  -4   8   3    0.41    0.53   1
   4  -8  -3   -0.50    0.46   3
   4  -8  -3   -0.40    0.45   2
   4   8  -3   -0.64    0.44   3
  -4  -8   3   -0.79    0.52   1
  -4  -8   3    0.14    0.45   4
   3  -8  -3    3.34    0.58   2
  -3  -8   3    2.26    0.55   1
  -3   8   3    2.88    0.57   1
   3   8  -3    2.76    0.53   3
   3  -8  -3    2.67    0.51   3
  -3  -8   3    2.61    0.52   4
   2  -8  -3    0.29    0.29   3
  -2  -8   3    0.17    0.35   4
  -2  -8   3    0.15    0.36   1
  -2   8   3   -0.01    0.36   1
  -2   8   3   -0.28    0.31   5
  -2   8   3    0.62    0.31   4
   2   8  -3    0.43    0.36   3
   2  -8  -3    0.26    0.35   2
  -1  -8   3   17.65    0.78   1
   1  -8  -3   19.11    0.95   1
  -1   8   3   16.27    0.85   4
   1  -8  -3   18.47    0.90   2
  -1  -8   3   16.96    0.91   4
   1  -8  -3   17.86    0.62   3
   1   8  -3   18.08    0.88   3
   1   8  -3   17.29    0.70   2
   0  -8   3   22.44    0.70   1
   0   8  -3   23.07    0.92   2
   0  -8  -3   23.93    1.02   1
   0  -8  -3   23.28    1.01   2
   0   8   3   24.97    1.09   4
   0   8  -3   22.66    0.99   3
   0  -8   3   22.20    1.08   4
   1  -8   3   13.99    0.99   4
  -1  -8  -3   11.87    0.86   1
   1   8   3   12.02    0.88   4
  -1  -8  -3   12.85    0.89   2
   1  -8   3   12.77    0.89   3
  -2  -8  -3    1.80    0.57   2
   2   8   3    2.29    0.72   4
  -2  -8  -3    1.40    0.55   1
  -2   8  -3    2.99    0.69   2
   2  -8   3    1.77    0.62   4
   2  -8   3    2.87    0.63   3
  -3   8  -3    4.94    0.84   2
   3   8   3    3.90    0.84   4
   3  -8   3    3.66    0.73   4
   3  -8   3    3.55    0.72   3
  -3  -8  -3    4.12    0.70   1
  -3  -8  -3    3.66    0.70   2
  -4   8  -3   16.20    1.30   2
   4   8   3   15.54    1.33   4
  -4  -8  -3   13.69    1.17   2
   4  -8   3   16.28    1.17   4
   4  -8   3   15.13    1.18   3
   5   8   3    9.15    1.26   4
  -5  -8  -3    9.18    1.15   2
  -5   8  -3   10.11    1.26   2
   5  -8   3    8.41    1.12   3
   7   9  -3    0.59    0.82   3
  -7   9   3    0.77    0.87   2
  -7  -9   3    0.36    0.84   1
   7  -9  -3    0.14    0.78   3
  -6   9   3    6.52    0.99   2
   6  -9  -3    5.56    0.90   3
   6   9  -3    5.95    0.91   3
  -6  -9   3    5.44    0.95   1
   6   9  -3    6.75    0.88   4
  -6   9   3    5.71    0.89   1
  -5   9   3    1.88    0.70   1
   5   9  -3    1.32    0.60   4
   5  -9  -3    1.81    0.70   2
   5   9  -3    2.24    0.69   3
  -5  -9   3    2.57    0.72   1
   5  -9  -3    2.27    0.67   3
   4   9  -3   -0.13    0.50   3
   4  -9  -3    0.24    0.48   3
   4  -9  -3   -0.52    0.50   2
  -4  -9   3    0.06    0.48   4
  -4   9   3   -0.72    0.51   1
  -4  -9   3    0.53    0.56   1
   3   9  -3   35.41    1.39   3
   3  -9  -3   37.87    1.33   3
  -3   9   3   36.25    1.42   1
   3  -9  -3   38.14    1.51   2
  -3  -9   3   37.05    1.41   4
  -3  -9   3   36.17    1.42   1
   2  -9  -3   64.10    1.83   2
   2   9  -3   66.32    1.78   3
  -2  -9   3   61.70    1.78   4
  -2  -9   3   61.38    1.66   1
  -2   9   3   62.25    1.46   4
  -2   9   3   63.04    1.56   5
   2  -9  -3   64.77    1.56   3
  -2   9   3   63.78    1.77   1
  -1   9   3   75.76    1.80   4
   1  -9  -3   74.25    1.93   2
  -1  -9   3   76.85    1.72   1
  -1  -9   3   79.05    1.99   4
   1   9  -3   74.93    1.58   2
   1   9  -3   78.48    1.96   3
   0  -9   3  123.14    2.24   1
   0  -9  -3  127.28    2.71   2
   0  -9   3  124.62    2.75   4
   0  -9  -3  122.01    2.68   1
   0   9   3  126.88    2.68   4
   0   9  -3  122.79    2.50   2
   0   9  -3  120.98    2.72   3
   1   9   3    0.44    0.53   4
   1  -9   3   -0.01    0.43   3
  -1   9  -3    0.15    0.46   2
   1  -9   3    0.81    0.48   4
  -1  -9  -3    0.46    0.44   2
  -1  -9  -3    0.01    0.45   1
  -2  -9  -3    0.97    0.52   1
   2   9   3    0.32    0.63   4
   2  -9   3    1.20    0.57   3
   2  -9   3    1.42    0.59   4
  -2  -9  -3    0.50    0.52   2
  -2   9  -3    0.19    0.57   2
  -3  -9  -3  130.60    3.11   2
  -3  -9  -3  130.57    3.07   1
  -3   9  -3  135.94    3.30   2
   3  -9   3  124.52    3.11   4
   3  -9   3  133.95    3.26   3
  -4  -9  -3    2.27    0.74   2
   4  -9   3    2.32    0.80   4
  -4   9  -3    2.71    0.86   2
   4   9   3    1.66    0.90   4
   4  -9   3    2.71    0.77   3
  -4  -9  -3    2.48    0.76   1
   5   9   3   -0.60    0.92   4
  -5   9  -3    1.04    0.97   2
   5  -9   3    1.38    0.82   3
  -5  -9  -3    0.04    0.81   2
   7  10  -3    0.96    0.88   3
  -7  10   3    1.59    0.95   2
  -7 -10   3    1.15    0.92   1
   7 -10  -3    1.38    0.85   3
   6 -10  -3    0.75    0.69   3
   6  10  -3    0.23    0.67   3
   6  10  -3   -0.67    0.68   4
  -6 -10   3    0.65    0.75   1
  -6  10   3    0.13    0.70   1
  -6  10   3    0.47    0.70   2
   5  10  -3   45.99    1.80   3
   5 -10  -3   48.48    1.84   3
   5  10  -3   47.22    1.75   4
   5 -10  -3   42.99    1.84   2
  -5 -10   3   48.18    1.89   1
  -5  10   3   48.08    1.80   1
   4 -10  -3   -0.93    0.50   2
  -4 -10   3    0.35    0.54   1
   4 -10  -3    0.66    0.51   3
  -4 -10   3   -1.46    0.49   4
  -4  10   3   -0.87    0.54   1
   4  10  -3   -0.19    0.50   3
  -3 -10   3  366.15    6.53   1
   3  10  -3  369.30    6.68   3
  -3  10   3  371.83    6.56   1
  -3 -10   3  362.62    6.52   4
   3 -10  -3  378.22    6.81   2
   3 -10  -3  364.99    6.54   3
   2 -10  -3    2.24    0.53   2
  -2  10   3    1.60    0.45   5
  -2  10   3    1.72    0.50   1
  -2 -10   3    1.53    0.46   1
   2 -10  -3    0.39    0.35   3
  -2 -10   3    1.22    0.51   4
   2  10  -3    1.66    0.48   3
  -2  10   3    2.28    0.43   4
  -1 -10   3   26.34    1.20   4
   1 -10  -3   31.95    0.84   3
   1 -10  -3   25.46    1.13   2
  -1  10   3   27.98    1.11   4
   1  10  -3   25.74    1.12   3
   1 -10  -3   27.39    1.19   1
  -1 -10   3   26.75    1.00   1
   0 -10  -3    0.47    0.41   1
   0 -10  -3    0.62    0.40   2
   0  10  -3    0.61    0.39   2
   0  10   3    0.15    0.46   4
   0 -10   3    0.48    0.28   1
   0 -10   3    0.15    0.42   4
   0  10  -3    0.29    0.41   3
  -1  10  -3   42.58    1.49   2
  -1 -10  -3   40.80    1.52   1
   1 -10   3   45.01    1.61   4
   1  10   3   43.57    1.63   4
   1 -10   3   43.62    1.57   3
  -1 -10  -3   45.87    1.51   2
   2 -10   3   17.28    1.18   4
  -2  10  -3   14.64    1.05   2
  -2 -10  -3   15.30    1.09   1
   2 -10   3   14.28    1.09   3
   2  10   3   12.76    1.08   4
  -2 -10  -3   14.14    1.03   2
  -3 -10  -3  103.59    2.71   2
  -3  10  -3  107.09    2.92   2
   3  10   3  105.54    2.98   4
   3 -10   3  111.17    2.95   3
  -3 -10  -3  110.76    2.78   1
   3 -10   3  103.13    2.78   4
   4  10   3   25.28    1.67   4
   4 -10   3   26.10    1.55   4
  -4 -10  -3   25.40    1.46   2
   4 -10   3   28.25    1.58   3
  -4  10  -3   28.52    1.71   2
  -4 -10  -3   27.37    1.52   1
   5 -10   3    0.25    0.82   3
  -5  10  -3    0.44    0.95   2
   5  10   3   -0.04    0.99   4
   7 -11  -3    2.67    0.93   3
   7  11  -3    1.71    0.92   3
  -7 -11   3    1.58    0.95   1
  -7  11   3   -0.02    0.91   2
   6  11  -3    3.79    0.89   3
   6 -11  -3    4.81    0.89   3
   6  11  -3    5.04    0.96   4
  -6 -11   3    5.12    0.96   1
  -6  11   3    6.47    1.00   2
   5  11  -3   11.69    1.02   4
   5 -11  -3   12.79    1.16   2
   5 -11  -3    8.51    0.95   3
  -5 -11   3   12.29    1.08   1
   5  11  -3   11.55    1.04   3
  -5  11   3   11.36    1.05   1
   4 -11  -3   30.54    1.55   2
   4  11  -3   31.48    1.44   3
  -4 -11   3   28.60    1.44   4
  -4 -11   3   32.95    1.52   1
  -4  11   3   35.15    1.56   1
   4 -11  -3   34.02    1.48   3
   3 -11  -3    8.49    0.77   3
  -3  11   3    9.70    0.84   1
   3 -11  -3    7.56    0.85   2
  -3 -11   3    7.48    0.82   1
  -3 -11   3    7.88    0.85   4
   3  11  -3    9.30    0.82   3
   2 -11  -3  120.91    2.50   3
   2  11  -3  120.64    2.80   3
  -2  11   3  121.10    2.79   1
  -2 -11   3  123.79    2.86   4
  -2 -11   3  118.60    2.65   1
  -2  11   3  122.93    2.45   4
   2 -11  -3  124.47    2.89   2
  -2  11   3  120.16    2.45   5
   1 -11  -3   59.78    1.79   1
  -1 -11   3   56.95    1.82   4
  -1  11   3   58.82    1.64   4
   1  11  -3   59.02    1.75   3
  -1 -11   3   55.57    1.50   1
   1 -11  -3   59.00    1.77   2
   1 -11  -3   58.84    1.30   3
   0 -11  -3  177.71    3.61   1
   0 -11  -3  178.89    3.61   2
   0 -11   3  173.41    3.63   4
   0  11  -3  173.45    3.33   2
   0 -11   3  172.51    3.10   1
   0  11  -3  173.26    3.65   3
   0  11   3  174.73    3.54   4
   1 -11   3   20.85    1.21   4
   1 -11   3   18.72    1.15   3
  -1 -11  -3   20.47    1.15   1
  -1  11  -3   18.53    1.13   2
  -1 -11  -3   19.45    1.08   2
   1  11   3   20.13    1.24   4
  -2 -11  -3   15.49    1.14   1
   2 -11   3   17.89    1.20   3
   2  11   3   16.59    1.20   4
  -2  11  -3   17.02    1.24   2
   2 -11   3   18.39    1.21   4
  -2 -11  -3   16.71    1.11   2
  -3  11  -3   32.10    1.68   2
  -3 -11  -3   35.83    1.53   2
   3 -11   3   36.92    1.68   3
   3  11   3   33.88    1.79   4
  -3 -11  -3   35.08    1.58   1
   3 -11   3   34.60    1.63   4
   4 -11   3    0.21    0.74   3
  -4 -11  -3    2.09    0.77   1
   4 -11   3    0.55    0.74   4
  -4  11  -3    2.16    0.88   2
   4  11   3    0.36    0.86   4
  -4 -11  -3    1.67    0.68   2
   5 -11   3   34.63    1.92   3
  -5  11  -3   30.46    2.00   2
   5  11   3   32.54    2.04   4
  -7 -12   3    1.76    0.98   1
  -7  12   3    0.17    0.98   2
   7 -12  -3    0.47    0.85   3
   6  12  -3   -0.23    0.77   4
  -6 -12   3    0.26    0.74   1
  -6  12   3    0.29    0.80   2
   6  12  -3   -0.67    0.68   3
   6 -12  -3   -0.70    0.68   3
  -5 -12   3   17.61    1.32   1
   5 -12  -3   16.86    1.33   2
   5 -12  -3   18.18    1.29   3
  -5  12   3   17.99    1.35   1
   5  12  -3   21.49    1.36   4
   5  12  -3   16.89    1.24   3
  -4  12   3   10.85    1.00   1
   4 -12  -3   10.72    1.05   2
   4 -12  -3   11.50    0.95   3
  -4 -12   3   12.59    1.06   1
   4  12  -3   10.38    0.94   3
  -4 -12   3   11.63    1.01   4
   3 -12  -3   27.92    1.46   2
  -3  12   3   29.62    1.40   1
   3 -12  -3   26.63    1.25   3
   3  12  -3   27.62    1.32   3
  -3 -12   3   27.46    1.35   1
  -3 -12   3   26.45    1.40   4
   2  12  -3    3.19    0.57   3
  -2 -12   3    3.28    0.64   4
   2 -12  -3    3.01    0.48   3
  -2  12   3    3.43    0.64   1
   2 -12  -3    2.86    0.62   2
  -2 -12   3    2.58    0.56   1
  -2  12   3    3.54    0.54   5
  -1  12   3   47.24    1.51   4
   1 -12  -3   46.37    1.60   2
   1 -12  -3   46.21    1.62   1
  -1 -12   3   43.91    1.36   1
   1  12  -3   43.55    1.54   3
  -1 -12   3   44.38    1.63   4
   0  12  -3  101.81    2.27   2
   0 -12  -3  103.84    2.52   2
   0 -12   3  104.40    2.09   1
   0 -12  -3  101.54    2.54   1
   0 -12   3  103.14    2.62   4
   0  12   3  105.87    2.53   4
   0  12  -3  103.20    2.57   3
   1 -12   3   53.16    1.83   3
   1  12   3   51.81    1.84   4
  -1 -12  -3   54.93    1.81   1
  -1 -12  -3   52.26    1.69   2
  -1  12  -3   56.49    1.74   2
   1 -12   3   58.12    1.89   4
  -2 -12  -3   10.69    0.87   2
  -2 -12  -3   11.27    0.99   1
   2 -12   3    9.71    0.95   3
   2 -12   3   12.04    0.99   4
   2  12   3   10.04    1.03   4
  -2  12  -3    9.74    0.95   2
   3 -12   3    1.99    0.72   4
  -3 -12  -3    1.84    0.72   1
   3 -12   3    2.43    0.76   3
  -3  12  -3    1.23    0.80   2
   3  12   3    0.65    0.88   4
  -3 -12  -3    1.51    0.67   2
  -4 -12  -3   39.75    1.84   1
  -4 -12  -3   39.54    1.73   2
   4  12   3   38.83    2.02   4
   4 -12   3   40.19    1.85   4
   4 -12   3   38.92    1.93   3
  -4  12  -3   40.08    2.00   2
   5 -12   3   -0.01    0.88   3
   5  12   3   -0.09    1.08   4
  -5  12  -3    0.95    1.00   2
  -6 -13   3    1.36    0.88   1
   6 -13  -3    0.17    0.74   3
   6  13  -3    1.48    0.86   4
  -6  13   3    2.38    0.90   2
   6  13  -3    0.88    0.76   3
   5 -13  -3    4.01    0.93   2
   5  13  -3    4.89    0.86   4
  -5 -13   3    5.64    0.90   1
  -5  13   3    4.17    0.88   1
   5 -13  -3    3.51    0.80   3
   5  13  -3    4.51    0.82   3
  -4 -13   3    1.88    0.69   4
  -4 -13   3    1.72    0.71   1
   4 -13  -3    1.05    0.70   2
   4 -13  -3    2.23    0.67   3
  -4  13   3    2.21    0.73   1
   4  13  -3    2.11    0.68   3
  -3 -13   3  167.71    3.68   1
  -3  13   3  168.96    3.71   1
   3 -13  -3  175.34    3.59   3
   3 -13  -3  171.40    3.91   2
   3  13  -3  170.55    3.76   3
  -3 -13   3  174.79    3.83   4
  -2 -13   3   38.87    1.59   4
   2 -13  -3   39.48    1.30   3
  -2 -13   3   38.49    1.43   1
  -2  13   3   39.50    1.54   1
   2  13  -3   40.80    1.53   3
  -2  13   3   40.85    1.36   5
   2 -13  -3   40.13    1.62   2
  -1  13   3    4.53    0.64   4
   1 -13  -3    3.06    0.64   1
   1  13  -3    3.85    0.62   3
  -1 -13   3    4.55    0.55   1
  -1 -13   3    3.99    0.70   4
   1 -13  -3    4.20    0.68   2
   0  13  -3  131.80    3.09   3
   0  13   3  133.76    3.04   4
   0 -13  -3  130.90    3.06   1
   0 -13   3  131.04    3.15   4
   0 -13  -3  134.80    3.05   2
   1 -13   3    0.43    0.53   3
  -1 -13  -3   -0.02    0.46   2
   1  13   3    0.17    0.59   4
  -1 -13  -3   -0.55    0.50   1
   1 -13   3    0.41    0.57   4
  -1  13  -3    0.68    0.54   2
  -2 -13  -3   86.58    2.34   2
  -2  13  -3   80.81    2.41   2
   2 -13   3   89.06    2.52   4
   2 -13   3   83.50    2.51   3
  -2 -13  -3   82.55    2.43   1
   2  13   3   85.39    2.56   4
   3 -13   3   71.08    2.33   4
  -3  13  -3   75.34    2.48   2
  -3 -13  -3   75.06    2.25   2
   3 -13   3   72.79    2.45   3
   3  13   3   71.96    2.56   4
  -3 -13  -3   73.95    2.37   1
  -4 -13  -3    7.65    1.04   1
   4  13   3    6.31    1.17   4
  -4  13  -3    7.84    1.19   2
   4 -13   3    8.39    1.09   4
   4 -13   3    6.95    1.09   3
   6  14  -3    3.75    0.98   3
   6  14  -3    3.16    1.00   4
  -6 -14   3    2.82    0.98   1
   6 -14  -3    4.68    0.99   3
  -6  14   3    4.74    1.08   2
   5  14  -3    0.43    0.70   4
   5 -14  -3    0.92    0.71   3
   5 -14  -3    1.59    0.79   2
  -5  14   3    0.75    0.77   1
  -5 -14   3    1.83    0.81   1
   5  14  -3   -0.35    0.66   3
   4  14  -3  338.22    6.56   3
  -4  14   3  345.71    6.46   1
  -4 -14   3  339.84    6.51   1
   4 -14  -3  333.07    6.76   2
   4 -14  -3  342.42    6.48   3
  -4 -14   3  338.36    6.54   4
  -3 -14   3    1.09    0.61   1
   3 -14  -3    0.92    0.63   2
   3  14  -3    1.02    0.56   3
  -3  14   3    1.20    0.61   1
   3 -14  -3    0.66    0.52   3
  -3 -14   3    0.56    0.61   4
   2 -14  -3   10.92    0.95   2
   2  14  -3   11.00    0.90   3
  -2  14   3    9.96    0.90   1
  -2  14   3   10.12    0.81   5
  -2 -14   3   11.83    1.01   4
  -2 -14   3   11.82    0.87   1
  -1  14   3  179.20    3.65   4
   1 -14  -3  188.42    3.96   2
   1 -14  -3  180.34    3.89   1
  -1 -14   3  174.42    3.50   1
  -1 -14   3  179.01    3.93   4
   0  14  -3    0.25    0.47   3
   0  14   3   -0.34    0.56   4
   0 -14  -3    0.21    0.53   1
   0 -14   3    1.08    0.59   4
   0 -14  -3    1.70    0.56   2
  -1 -14  -3   26.42    1.31   2
  -1 -14  -3   26.05    1.38   1
   1  14   3   27.30    1.50   4
   1 -14   3   27.72    1.47   4
  -1  14  -3   29.84    1.38   2
   2 -14   3    0.33    0.63   4
  -2 -14  -3   -0.03    0.59   1
  -2 -14  -3    0.58    0.53   2
  -2  14  -3    0.71    0.67   2
   2 -14   3   -0.22    0.61   3
   2  14   3   -0.77    0.63   4
   3 -14   3   17.40    1.37   3
   3  14   3   19.19    1.49   4
   3 -14   3   17.61    1.29   4
  -3  14  -3   21.04    1.54   2
  -3 -14  -3   18.17    1.39   1
  -3 -14  -3   20.24    1.32   2
   4 -14   3   57.42    2.37   3
  -4  14  -3   59.57    2.46   2
   4  14   3   56.16    2.45   4
  -4 -14  -3   58.42    2.27   1
   6 -15  -3   50.01    2.19   3
  -6 -15   3   47.23    2.22   1
   6  15  -3   49.80    2.24   4
  -6  15   3   50.74    2.37   2
   5 -15  -3   14.30    1.34   2
   5  15  -3   13.28    1.22   4
   5  15  -3   13.11    1.20   3
  -5 -15   3   15.79    1.30   1
   5 -15  -3   15.67    1.25   3
  -4 -15   3   14.20    1.19   4
  -4 -15   3   13.21    1.16   1
   4  15  -3   13.66    1.11   3
   4 -15  -3   13.35    1.22   2
   4 -15  -3   12.33    1.05   3
  -4  15   3   12.65    1.16   1
   3 -15  -3    1.85    0.73   2
   3 -15  -3    3.11    0.65   3
   3  15  -3    2.46    0.66   3
  -3 -15   3    2.67    0.71   1
  -3 -15   3    0.96    0.69   4
  -3  15   3    2.92    0.72   1
  -2  15   3   14.03    0.96   5
   2  15  -3   13.21    0.99   3
  -2 -15   3   11.79    1.04   4
  -2 -15   3   15.30    1.05   1
   2 -15  -3   13.88    1.07   2
  -2  15   3   13.41    1.03   1
  -1 -15   3  116.96    3.04   4
   1  15  -3  120.86    2.99   3
  -1  15   3  122.21    2.81   4
   1 -15  -3  119.11    2.99   1
   1 -15  -3  122.31    2.99   2
  -1 -15   3  116.66    2.63   1
   0 -15  -3  111.06    2.80   2
   0  15   3  111.48    2.83   4
   0 -15   3  113.39    2.95   4
   0  15  -3  111.52    2.87   3
  -1 -15  -3  149.70    3.40   2
   1 -15   3  150.14    3.59   4
   1  15   3  146.33    3.53   4
  -1 -15  -3  149.71    3.53   1
  -1  15  -3  144.20    3.54   3
   2  15   3   13.27    1.21   4
  -2  15  -3   13.44    1.12   2
  -2 -15  -3   13.34    1.03   2
   2 -15   3   13.02    1.14   3
  -2 -15  -3   13.70    1.20   1
   2 -15   3   14.50    1.16   4
   3  15   3    0.55    0.86   4
  -3  15  -3    0.12    0.80   2
   3 -15   3    1.79    0.76   3
   3 -15   3    1.02    0.77   4
  -3 -15  -3    2.36    0.82   1
  -4  15  -3   57.45    2.46   2
   4 -15   3   55.20    2.34   3
  -4 -15  -3   54.29    2.25   1
   4  15   3   51.10    2.41   4
   6  16  -3    2.04    1.06   4
  -6  16   3    2.93    1.11   2
  -6 -16   3    3.17    1.08   1
   6 -16  -3    1.91    0.95   3
   5 -16  -3   17.83    1.36   3
  -5 -16   3   19.29    1.48   1
   5  16  -3   14.96    1.31   3
   5  16  -3   19.57    1.48   4
   5 -16  -3   16.46    1.45   2
   4 -16  -3    8.33    0.96   3
   4 -16  -3    8.53    1.10   2
  -4 -16   3    8.46    1.07   4
  -4  16   3    6.15    1.00   1
   4  16  -3    9.94    1.03   3
  -4 -16   3    7.71    1.03   1
   3  16  -3   17.67    1.23   3
  -3  16   3   18.64    1.34   1
  -3 -16   3   19.70    1.34   1
   3 -16  -3   20.27    1.35   2
   3 -16  -3   18.19    1.16   3
  -3 -16   3   20.07    1.41   4
  -2 -16   3   17.99    1.31   4
   2 -16  -3   17.08    1.21   2
  -2  16   3   16.13    1.20   1
  -2 -16   3   16.76    1.14   1
  -2  16   3   16.14    1.05   5
   2  16  -3   16.88    1.16   3
   1 -16  -3    1.60    0.64   2
   1 -16  -3    3.02    0.72   1
  -1 -16   3    1.98    0.66   4
   1  16  -3    2.93    0.67   3
  -1 -16   3    3.57    0.59   1
  -1  16   3    2.16    0.67   4
   0  16   3   13.80    1.12   4
   0 -16  -3   14.56    1.11   1
   0 -16  -3   13.77    1.04   2
   0  16  -3   13.98    1.10   3
   0 -16   3   12.05    1.06   4
  -1  16  -3    5.90    0.84   3
  -1 -16  -3    7.54    0.94   1
   1  16   3    6.51    0.95   4
   1 -16   3    6.83    0.94   4
  -1 -16  -3    7.73    0.90   2
  -2 -16  -3    3.36    0.82   1
   2 -16   3    3.87    0.85   3
   2  16   3    2.86    0.89   4
  -2 -16  -3    3.25    0.75   2
   2 -16   3    3.07    0.84   4
  -3  16  -3   22.06    1.69   2
   3 -16   3   25.76    1.72   4
   3  16   3   21.72    1.71   4
  -3 -16  -3   24.69    1.59   1
   3 -16   3   23.91    1.58   3
  -4  16  -3    5.88    1.18   2
   4  16   3    5.40    1.26   4
   4 -16   3    4.80    1.10   3
  -4 -16  -3    6.46    1.13   1
   5 -17  -3    3.51    0.96   3
   5 -17  -3    6.54    1.17   2
   5  17  -3    6.46    1.13   4
  -5 -17   3    5.57    1.08   1
   4  17  -3   52.08    2.03   3
  -4  17   3   52.03    2.14   1
   4 -17  -3   47.20    1.92   3
  -4 -17   3   54.22    2.12   1
   4 -17  -3   51.22    2.17   2
   4  17  -3   51.28    2.09   4
  -3 -17   3   30.04    1.54   1
  -3  17   3   28.77    1.58   1
   3  17  -3   29.92    1.52   3
   3 -17  -3   30.80    1.64   2
  -3 -17   3   33.19    1.70   4
  -2 -17   3    8.30    1.01   4
   2 -17  -3    9.03    0.98   2
  -2  17   3    9.83    0.89   5
   2  17  -3    9.94    0.99   3
  -2  17   3    8.75    0.97   1
  -2 -17   3    9.41    0.90   1
  -1 -17   3    0.22    0.63   4
   1 -17  -3    0.03    0.60   2
   1  17  -3   -0.48    0.53   3
  -1 -17   3    0.21    0.51   1
  -1  17   3   -0.90    0.60   4
   1 -17  -3   -0.27    0.59   1
   0 -17  -3    0.55    0.64   1
   0 -17   3    0.27    0.65   4
   0  17   3    1.33    0.74   4
   0 -17  -3    0.69    0.61   2
   0  17  -3    1.05    0.59   3
   1  17   3    3.07    0.85   4
   1 -17   3    2.78    0.77   4
  -1 -17  -3    2.78    0.79   1
  -1  17  -3    3.05    0.73   3
  -1 -17  -3    3.09    0.74   2
   2 -17   3   37.04    1.93   4
  -2 -17  -3   37.84    1.81   1
   2  17   3   37.89    1.93   4
   2 -17   3   37.18    1.85   3
   3 -17   3   52.21    2.29   4
  -3  17  -3   51.66    2.25   2
   3 -17   3   47.07    2.15   3
   3  17   3   47.41    2.29   4
  -3 -17  -3   47.72    2.12   1
   5 -18  -3   24.92    1.85   2
   5  18  -3   33.86    1.94   4
  -5 -18   3   28.49    1.79   1
   5 -18  -3   30.38    1.76   3
  -4  18   3   13.75    1.31   1
   4  18  -3   17.63    1.40   4
   4 -18  -3   17.96    1.45   2
   4  18  -3   18.01    1.39   3
  -4 -18   3   16.56    1.36   1
  -3 -18   3   54.67    2.01   1
   3  18  -3   52.45    2.02   3
  -3  18   3   53.46    2.07   1
   3 -18  -3   48.39    2.06   2
  -3 -18   3   50.48    2.14   4
  -2  18   3   43.22    1.62   5
  -2 -18   3   42.08    1.91   4
   2 -18  -3   39.05    1.80   2
   2  18  -3   42.81    1.80   3
  -2  18   3   46.48    1.87   1
  -2 -18   3   45.96    1.73   1
   1 -18  -3   38.26    1.76   1
   1  18  -3   41.92    1.78   3
   1 -18  -3   42.40    1.78   2
  -1 -18   3   36.91    1.78   4
   0 -18  -3    0.81    0.71   1
   0 -18   3    0.14    0.63   4
   0  18   3    1.50    0.78   4
   0  18  -3    0.84    0.62   3
   0 -18  -3    0.58    0.64   2
   1  18   3    2.85    0.93   4
   1 -18   3    3.19    0.82   4
  -1 -18  -3    2.93    0.81   1
  -1 -18  -3    3.50    0.77   2
  -1  18  -3    2.73    0.77   3
   2  18   3   43.55    2.09   4
   2 -18   3   44.67    2.05   3
   2 -18   3   41.94    1.98   4
  -2 -18  -3   44.67    2.00   1
   3  18   3   29.10    1.93   4
  -3 -18  -3   26.50    1.76   1
   3 -18   3   30.26    1.91   4
   3 -18   3   25.69    1.76   3
  -4 -19   3    0.24    0.80   1
   4 -19  -3   -0.83    0.80   2
   4  19  -3    1.73    0.88   4
  -3  19   3    9.64    1.12   1
  -3 -19   3   12.60    1.15   1
   3  19  -3   10.79    1.10   3
   3 -19  -3    7.78    1.13   2
  -3 -19   3    8.03    1.15   4
  -2  19   3    6.31    0.92   1
  -2 -19   3    4.74    0.83   1
   2  19  -3    4.32    0.85   3
  -2 -19   3    5.21    0.96   4
   2 -19  -3    4.72    0.93   2
  -2  19   3    3.93    0.81   5
   1  19  -3    4.88    0.90   3
  -1 -19   3    6.35    0.98   4
   1 -19  -3    5.59    0.97   1
   1 -19  -3    4.27    0.84   2
   0  19   3   50.70    2.10   4
   0 -19  -3   50.89    1.95   2
   0  19  -3   48.40    1.98   3
   0 -19   3   48.75    2.03   4
   0 -19  -3   49.55    2.04   1
   1 -19   3   43.67    1.96   4
  -1 -19  -3   41.91    1.94   1
  -1  19  -3   48.65    1.99   3
   1  19   3   47.06    2.11   4
   2  19   3   -0.29    0.89   4
  -2  19  -3    0.47    0.74   3
   2 -19   3    0.51    0.81   4
  -2 -19  -3    0.30    0.78   1
  -4 -20   3   20.95    1.59   1
   4 -20  -3   20.96    1.69   2
   4  20  -3   21.36    1.65   4
   3 -20  -3    0.48    0.83   2
  -3 -20   3    1.56    0.81   1
   3  20  -3    0.83    0.76   3
  -3 -20   3    0.08    0.80   4
  -3  20   3    0.12    0.83   1
  -2 -20   3   14.91    1.35   4
  -2  20   3   16.37    1.20   5
   2 -20  -3   16.72    1.35   2
   2  20  -3   15.12    1.23   3
  -2 -20   3   16.34    1.29   1
  -2  20   3   15.79    1.30   1
   1  20  -3    2.69    0.82   3
  -1 -20   3    2.81    0.91   4
   1 -20  -3    1.84    0.87   1
   1 -20  -3    2.66    0.81   2
   0  20   3    6.56    1.08   4
   0 -20  -3    2.74    0.92   1
   0  20  -3    5.32    0.97   3
   0 -20   3    6.56    1.02   4
   0 -20  -3    4.97    0.94   2
  -1 -20  -3   15.85    1.38   1
   1  20   3   15.61    1.43   4
   1 -20   3   14.95    1.32   4
  -1  20  -3   17.90    1.41   3
  -2  20  -3    0.92    0.82   3
   2  20   3   -0.81    0.91   4
  -2 -20  -3    0.08    0.85   1
   2 -20   3    0.64    0.85   4
  -3 -21   3    2.51    0.85   1
  -3 -21   3    0.48    0.89   4
   3 -21  -3    1.06    0.94   2
  -3  21   3    1.79    0.93   1
  -2  21   3    0.82    0.71   5
  -2 -21   3    0.13    0.87   4
   2 -21  -3   -0.89    0.78   2
   2  21  -3   -0.02    0.71   3
  -2  21   3    0.29    0.77   1
   1 -21  -3    7.01    1.04   2
  -1 -21   3    9.30    1.21   4
   1 -21  -3    7.81    1.14   1
   1  21  -3    5.78    1.00   3
   0 -21  -3    7.60    1.12   1
   0 -21   3    8.42    1.15   4
   0  21   3    7.57    1.20   4
   0  21  -3    7.76    1.08   3
   1  21   3    1.52    1.02   4
   1 -21   3    3.00    0.94   4
  -1  21  -3    2.62    0.90   3
  -1 -21  -3    3.69    0.97   1
   2  22  -3    9.59    1.16   3
   2 -22  -3    9.84    1.21   2
  -2  22   3   11.69    1.27   1
  -2 -22   3    9.28    1.28   4
  -2  22   3   12.51    1.16   5
   1 -22  -3   -0.93    0.83   1
  -1 -22   3    0.51    0.90   4
   1  22  -3   -0.70    0.77   3
   0 -22  -3    2.04    0.96   1
   0  22  -3    1.27    0.90   3
   0 -22   3    1.95    1.00   4
   8   0  -4   10.67    1.30   3
  -8   0   4    9.82    1.32   1
  -7   0   4    0.39    0.80   1
   7   0  -4    0.32    0.76   3
  -6   0   4  136.35    3.42   1
  -6   0   4  146.53    3.26   2
   6   0  -4  141.94    3.57   3
   5   0  -4    0.67    0.56   3
  -5   0   4   -1.07    0.56   1
   5   0  -4    0.58    0.47   2
  -4   0   4    3.96    0.70   1
   4   0  -4    4.95    0.55   2
   4   0  -4    5.09    0.65   3
  -3   0   4    0.30    0.27   4
   3   0  -4   -0.17    0.34   3
  -3   0   4   -0.36    0.43   1
   3   0  -4   -0.23    0.28   2
  -2   0   4   18.83    0.84   4
   2   0  -4   19.59    0.83   2
   2   0  -4   18.90    0.85   3
  -2   0   4   19.20    0.95   1
  -1   0   4    0.24    0.31   1
  -1   0   4    0.31    0.35   4
   1   0  -4    0.28    0.28   2
   1   0  -4    0.77    0.27   3
   0   0  -4   10.90    0.77   2
   0   0   4   10.40    0.76   4
   0   0  -4   10.74    0.59   3
   0   0   4    9.42    0.63   1
  -1   0  -4    0.34    0.29   3
  -1   0  -4    0.05    0.45   2
   1   0   4    0.00    0.31   1
   1   0   4   -0.29    0.52   4
   1   0   4    0.06    0.28   5
   2   0   4    6.21    0.57   3
  -2   0  -4    6.29    0.79   2
   2   0   4    5.65    0.83   4
  -3   0  -4   -0.07    0.66   2
   3   0   4   -0.36    0.68   4
  -4   0  -4  166.47    4.10   2
   4   0   4  161.51    4.02   4
   5   0   4   -0.59    0.95   4
  -5   0  -4    0.36    0.96   2
  -8  -1   4   13.53    1.44   1
  -8   1   4   12.87    1.37   1
   8   1  -4    9.13    1.27   3
   8  -1  -4   11.72    1.34   3
  -7  -1   4   44.78    2.01   1
  -7   1   4   43.29    2.02   1
   7   1  -4   45.20    2.06   3
   7  -1  -4   40.72    1.96   3
  -6  -1   4   -0.61    0.64   1
   6   1  -4    0.37    0.63   3
  -6   1   4    0.21    0.67   1
   6  -1  -4    0.28    0.64   3
  -6   1   4   -1.31    0.56   2
   5  -1  -4   27.98    1.40   3
   5   1  -4   23.54    1.16   2
   5   1  -4   25.17    1.36   3
   5  -1  -4   25.97    1.23   2
  -5   1   4   22.18    1.34   1
  -5  -1   4   24.72    1.36   1
  -4  -1   4   14.32    1.11   1
  -4   1   4   16.61    1.17   1
   4  -1  -4   16.45    1.05   3
   4   1  -4   14.99    1.09   3
   4  -1  -4   16.30    0.93   2
   4   1  -4   15.93    0.83   2
   3  -1  -4   28.89    1.15   3
   3  -1  -4   31.28    1.08   2
   3   1  -4   29.83    1.16   3
  -3  -1   4   29.32    1.21   1
  -3  -1   4   29.83    0.95   4
  -3   1   4   31.95    1.26   1
   3   1  -4   29.53    1.00   2
  -3   1   4   30.35    0.88   4
   2   1  -4  307.10    5.26   2
   2   1  -4  306.70    5.39   3
  -2  -1   4  300.61    5.28   1
   2  -1  -4  309.26    5.35   2
  -2   1   4  309.18    5.34   1
   2  -1  -4  310.81    5.35   3
  -2  -1   4  315.16    5.17   4
  -2   1   4  305.85    5.11   4
   1   1  -4   21.36    0.84   3
   1  -1  -4   22.20    0.92   2
  -1  -1   4   21.70    0.89   1
   1  -1  -4   21.21    0.79   3
  -1   1   4   20.90    1.00   4
  -1  -1   4   22.34    0.97   4
  -1   1   4   22.63    0.93   1
   1   1  -4   21.30    0.90   2
   0  -1   4   21.71    1.11   4
   0   1  -4   23.23    0.85   3
   0   1  -4   22.69    0.99   2
   0  -1  -4   21.93    0.75   3
   0  -1   4   21.92    0.83   1
   0  -1  -4   23.72    1.01   2
   0   1   4   23.25    0.86   1
   0   1   4   22.69    1.12   4
   1  -1   4  305.10    5.08   1
  -1  -1  -4  304.47    5.70   2
   1   1   4  311.64    5.68   4
  -1   1  -4  313.96    5.71   2
   1   1   4  319.20    4.63   5
   1  -1   4  316.56    5.69   4
   1   1   4  322.16    5.24   1
   2   1   4   82.75    2.40   4
   2  -1   4   83.50    2.05   3
  -2  -1  -4   91.05    2.43   2
  -2   1  -4   85.32    2.39   2
   2  -1   4   83.85    2.42   4
   3  -1   4   22.85    1.50   4
  -3   1  -4   19.29    1.39   2
   3   1   4   20.58    1.49   4
  -3  -1  -4   23.16    1.44   2
   4   1   4    1.75    0.88   4
  -4  -1  -4    0.01    0.85   2
  -4   1  -4   -0.10    0.79   2
   4  -1   4   -0.11    0.82   4
   5  -1   4    5.10    1.20   4
  -5  -1  -4    3.89    1.13   2
   5   1   4    4.06    1.18   4
  -5   1  -4    5.76    1.20   2
   8   2  -4    3.62    1.08   3
  -8   2   4    5.51    1.14   1
  -8  -2   4    5.18    1.17   1
   8  -2  -4    2.95    0.98   3
   7   2  -4    6.39    1.04   3
  -7  -2   4    5.52    1.02   1
  -7   2   4    7.54    1.12   1
  -7   2   4    6.08    0.97   2
   7  -2  -4    7.44    1.04   3
   6  -2  -4    0.09    0.61   3
  -6   2   4   -0.94    0.59   2
  -6   2   4    0.60    0.68   1
   6   2  -4    2.17    0.71   3
  -6  -2   4   -0.20    0.67   1
  -5  -2   4  136.22    3.24   1
   5  -2  -4  136.31    3.11   2
   5   2  -4  139.21    3.31   3
   5  -2  -4  138.04    3.29   3
  -4  -2   4  281.74    5.30   1
   4  -2  -4  287.20    5.25   2
   4   2  -4  280.53    5.01   2
  -4   2   4  294.12    5.35   1
   4  -2  -4  286.78    5.38   3
   4   2  -4  279.93    5.40   3
  -3  -2   4   40.48    1.18   4
  -3  -2   4   41.33    1.43   1
  -3   2   4   41.86    1.03   4
   3   2  -4   42.75    1.18   2
   3  -2  -4   42.23    1.36   3
   3  -2  -4   42.85    1.32   2
  -3   2   4   43.01    1.46   1
   3   2  -4   43.03    1.39   3
   2  -2  -4   86.43    1.89   3
  -2  -2   4   84.86    1.89   4
   2  -2  -4   85.64    1.96   2
  -2   2   4   84.87    1.81   4
  -2  -2   4   83.48    1.94   1
   2   2  -4   84.61    1.96   3
  -2   2   4   84.27    2.00   1
   2   2  -4   84.84    1.81   2
   1  -2  -4  296.87    4.95   3
  -1  -2   4  297.84    5.08   4
  -1   2   4  293.04    5.02   4
  -1   2   4  285.21    5.01   1
   1  -2  -4  294.18    5.15   2
   1   2  -4  286.71    5.05   2
   1   2  -4  291.94    5.11   3
  -1  -2   4  291.32    4.91   1
   0  -2  -4   22.72    0.73   3
   0   2  -4   22.15    0.87   3
   0  -2  -4   20.27    0.97   2
   0   2   4   20.14    1.10   4
   0   2   4   21.60    0.78   5
   0   2  -4   21.06    0.97   2
   0  -2   4   22.06    0.81   1
   0   2   4   22.36    0.90   1
   0  -2   4   22.95    1.11   4
   1  -2   4  101.45    2.30   3
  -1  -2  -4  106.50    2.55   2
  -1  -2  -4  111.51    2.13   3
  -1   2  -4  106.42    2.55   2
   1  -2   4  105.98    2.61   4
   1   2   4  114.55    2.67   4
  -2  -2  -4   10.08    0.91   2
  -2   2  -4   10.52    0.93   2
   2   2   4    8.60    0.96   4
   2  -2   4    9.50    0.72   3
   2  -2   4    9.29    0.94   4
   3  -2   4    7.29    0.97   4
  -3  -2  -4    7.28    0.93   2
   3   2   4    5.82    0.97   4
   3  -2   4    6.29    0.75   3
  -3   2  -4    6.92    0.95   2
   4  -2   4    0.02    0.84   4
  -4  -2  -4   -0.27    0.79   2
   4   2   4    0.47    0.81   4
  -4   2  -4    0.86    0.81   2
  -5   2  -4    4.24    1.18   2
   5   2   4    2.16    1.18   4
   5  -2   4    1.93    1.12   4
  -5  -2  -4    3.82    1.11   2
   8  -3  -4    9.14    1.25   3
   8   3  -4    8.18    1.23   3
  -8  -3   4    8.52    1.27   1
  -8   3   4    9.56    1.30   1
  -7   3   4   38.66    1.76   2
   7   3  -4   32.63    1.78   3
  -7   3   4   34.42    1.77   1
  -7  -3   4   35.70    1.87   1
   7  -3  -4   32.33    1.78   3
  -6   3   4   27.22    1.47   2
   6  -3  -4   25.97    1.49   3
  -6   3   4   28.34    1.49   1
  -6  -3   4   30.27    1.60   1
   6   3  -4   27.16    1.48   3
  -5  -3   4   14.64    1.10   1
   5  -3  -4   14.16    1.07   3
  -5   3   4   14.73    1.09   1
   5   3  -4   14.92    1.19   3
   5  -3  -4   15.91    1.08   2
  -4  -3   4  133.86    2.63   4
  -4   3   4  135.61    3.07   1
   4   3  -4  131.33    3.05   3
  -4  -3   4  137.94    3.06   1
   4  -3  -4  133.22    2.96   2
   4  -3  -4  133.69    3.04   3
  -3  -3   4   15.25    0.79   4
   3   3  -4   14.18    0.89   3
  -3  -3   4   15.71    0.99   1
   3  -3  -4   15.12    0.85   2
   3  -3  -4   14.83    0.89   3
  -3   3   4   16.29    1.04   1
   3   3  -4   13.74    0.68   2
  -2   3   4   48.03    1.27   4
   2  -3  -4   48.17    1.30   3
  -2  -3   4   46.19    1.38   1
   2   3  -4   48.33    1.41   3
  -2  -3   4   46.53    1.35   4
   2  -3  -4   47.11    1.38   2
   2   3  -4   48.17    1.22   2
  -2   3   4   47.57    1.44   1
  -1   3   4   68.90    1.71   1
  -1   3   4   70.96    1.76   4
   1  -3  -4   67.91    1.75   2
   1  -3  -4   71.15    1.51   3
  -1  -3   4   70.73    1.60   1
   1   3  -4   69.22    1.70   3
  -1  -3   4   73.14    1.80   4
   1   3  -4   70.13    1.66   2
   0  -3  -4   10.47    0.53   3
   0   3  -4    9.89    0.70   2
   0  -3   4   13.35    0.91   4
   0  -3  -4    9.08    0.69   2
   0   3   4    9.53    0.71   1
   0   3   4   11.17    0.81   4
   0  -3   4   10.42    0.64   1
   0   3   4    9.27    0.61   5
   0   3  -4   10.35    0.71   3
  -1  -3  -4   15.32    0.78   1
   1  -3   4   14.80    0.81   3
  -1  -3  -4   16.18    0.65   3
   1   3   4   16.47    1.17   4
  -1  -3  -4   14.30    0.99   2
   1  -3   4   16.57    1.14   4
  -1   3  -4   15.76    1.05   2
   2  -3   4   15.00    1.09   4
   2  -3   4   15.64    0.97   3
  -2   3  -4   14.07    1.05   2
  -2  -3  -4   14.68    1.11   2
   2   3   4   15.21    1.13   4
   3  -3   4    4.31    0.87   4
   3   3   4    2.92    0.84   4
  -3  -3  -4    4.37    0.83   2
  -3   3  -4    3.97    0.87   2
   3  -3   4    4.66    0.71   3
   4  -3   4    6.73    1.09   4
  -4  -3  -4    3.74    0.96   2
  -4   3  -4    7.33    1.04   2
   4   3   4    4.70    1.04   4
  -5  -3  -4    1.06    0.97   2
   5   3   4    0.21    1.02   4
  -5   3  -4    2.68    1.07   2
   5  -3   4    1.71    1.04   4
  -7   4   4    2.31    0.88   1
   7  -4  -4    0.67    0.78   3
  -7  -4   4    2.71    0.95   1
  -7   4   4    1.48    0.83   2
   7   4  -4    2.17    0.85   3
   6   4  -4    0.52    0.65   3
  -6   4   4    0.49    0.67   1
  -6  -4   4    0.43    0.71   1
   6  -4  -4    1.13    0.65   3
   6  -4  -4    0.81    0.62   2
   5  -4  -4  124.08    3.09   3
   5  -4  -4  124.78    3.02   2
  -5  -4   4  128.18    3.09   1
   5   4  -4  123.03    3.13   3
  -4  -4   4   48.73    1.42   4
   4  -4  -4   50.14    1.62   2
   4  -4  -4   46.99    1.65   3
  -4  -4   4   52.07    1.77   1
  -4   4   4   46.61    1.74   1
   4   4  -4   46.73    1.70   3
   3  -4  -4    6.96    0.63   3
  -3  -4   4    5.14    0.65   1
  -3  -4   4    6.65    0.57   4
   3   4  -4    6.54    0.45   2
   3  -4  -4    5.07    0.58   2
   3   4  -4    6.76    0.66   3
  -3   4   4    6.48    0.69   1
  -2   4   4  148.64    3.05   1
   2  -4  -4  153.44    2.90   3
   2   4  -4  154.97    3.10   3
   2   4  -4  150.23    2.76   2
   2  -4  -4  150.48    3.06   2
  -2   4   4  151.22    2.78   4
  -2  -4   4  146.66    2.94   1
  -2  -4   4  149.30    2.96   4
  -1   4   4   98.90    2.18   4
   1  -4  -4   97.39    2.21   2
  -1   4   4   96.38    2.16   1
   1   4  -4   99.04    2.07   2
  -1  -4   4  100.00    2.00   1
  -1  -4   4   89.67    2.18   4
   1  -4  -4   95.83    1.88   3
   1   4  -4   95.14    2.16   3
   0   4   4   26.69    0.92   5
   0   4  -4   28.14    1.06   3
   0   4   4   26.56    1.05   1
   0   4   4   27.17    1.26   4
   0   4  -4   28.26    1.12   2
   0  -4   4   27.45    1.21   4
   0  -4   4   27.09    0.82   1
   0  -4  -4   28.45    1.16   2
   1  -4   4    8.10    0.80   4
  -1  -4  -4    7.23    0.70   2
   1  -4   4    9.03    0.71   3
   1   4   4    9.15    0.87   4
  -1  -4  -4    9.00    0.65   1
  -1   4  -4    8.77    0.78   2
  -2   4  -4    1.37    0.65   2
   2  -4   4    2.30    0.68   4
  -2  -4  -4    1.88    0.48   1
  -2  -4  -4    2.20    0.61   2
   2  -4   4    2.16    0.55   3
   2   4   4    2.69    0.78   4
   3   4   4   30.82    1.66   4
   3  -4   4   30.74    1.64   4
  -3   4  -4   27.45    1.55   2
   3  -4   4   32.17    1.45   3
  -3  -4  -4   31.39    1.62   2
  -4  -4  -4    3.22    0.94   2
   4  -4   4    3.43    0.95   4
  -4   4  -4    3.76    0.94   2
   4   4   4    3.61    0.98   4
  -5   4  -4  129.38    3.88   2
   5  -4   4  143.07    3.90   4
   5   4   4  140.71    3.96   4
  -5  -4  -4  147.39    3.99   2
  -7  -5   4    0.33    0.80   1
  -7   5   4    0.11    0.73   2
   7  -5  -4   -0.96    0.69   3
  -7   5   4    0.10    0.84   1
   7   5  -4    0.34    0.75   3
   6  -5  -4   31.53    1.55   2
  -6   5   4   33.62    1.62   1
   6   5  -4   31.69    1.60   3
  -6  -5   4   35.59    1.72   1
   6  -5  -4   33.39    1.60   3
   5   5  -4  144.53    2.97   4
   5  -5  -4  145.05    3.40   2
   5  -5  -4  146.22    3.45   3
   5   5  -4  146.81    3.49   3
  -5  -5   4  147.97    3.42   1
   4   5  -4  201.11    4.17   3
   4  -5  -4  200.09    4.10   2
  -4   5   4  197.98    4.09   1
  -4  -5   4  193.68    3.74   4
  -4  -5   4  200.41    4.06   1
   4  -5  -4  201.82    4.07   3
   3  -5  -4   16.56    0.97   2
  -3  -5   4   19.58    1.08   1
  -3  -5   4   18.24    0.94   4
   3   5  -4   16.58    1.04   3
   3  -5  -4   18.24    0.97   3
  -3   5   4   17.60    1.13   1
   2   5  -4   12.81    0.85   3
   2  -5  -4   12.64    0.85   2
   2  -5  -4   13.59    0.76   3
  -2   5   4   11.95    0.81   4
  -2  -5   4   14.18    0.91   1
  -2   5   4   13.76    0.94   1
   2   5  -4   13.58    0.66   2
  -2  -5   4   12.41    0.85   4
   1   5  -4  996.26   15.71   2
  -1   5   4 1004.68   15.71   1
  -1   5   4  998.74   15.45   4
  -1   5   4  995.33   13.87   5
  -1  -5   4 1019.61   15.44   1
   1   5  -4  987.82   16.10   3
  -1  -5   4  994.31   15.57   4
   1  -5  -4  979.83   15.94   2
   1  -5  -4 1006.64   15.71   3
   0  -5   4   72.61    1.46   1
   0  -5   4   73.74    1.99   4
   0   5  -4   71.00    1.84   3
   0   5  -4   73.24    1.86   2
   0  -5  -4   71.68    1.82   1
   0  -5  -4   71.21    1.92   2
   0   5   4   75.20    2.01   4
  -1  -5  -4    0.27    0.45   2
   1  -5   4   -0.35    0.49   4
  -1   5  -4    0.37    0.49   2
   1  -5   4    0.34    0.39   3
  -1  -5  -4    0.46    0.40   1
   1   5   4    0.19    0.57   4
   2   5   4  278.68    5.41   4
  -2  -5  -4  259.08    4.89   1
   2  -5   4  273.11    5.22   3
   2  -5   4  280.04    5.31   4
  -2   5  -4  274.86    5.34   2
   3  -5   4    4.19    0.74   3
  -3   5  -4    3.45    0.83   2
   3   5   4    3.27    0.88   4
  -3  -5  -4    4.36    0.83   2
   3  -5   4    4.71    0.85   4
   4  -5   4    7.78    1.12   4
  -4  -5  -4    7.52    1.08   2
  -4   5  -4    6.97    1.10   2
   4   5   4    6.53    1.10   4
   4  -5   4    7.25    0.97   3
  -5   5  -4    2.69    1.06   2
   5   5   4    2.51    1.14   4
   5  -5   4    2.15    1.07   4
  -5  -5  -4    0.93    0.98   2
  -7   6   4    9.13    1.18   1
  -7   6   4    9.92    1.15   2
  -7  -6   4    9.91    1.18   1
   7  -6  -4    7.89    1.10   3
   7   6  -4    9.68    1.18   3
  -6   6   4   -0.72    0.67   1
  -6  -6   4    2.07    0.77   1
   6   6  -4    0.87    0.67   3
   6  -6  -4   -0.45    0.61   2
   6  -6  -4    0.79    0.65   3
   5  -6  -4    0.53    0.58   2
  -5   6   4    1.00    0.67   1
   5   6  -4    1.03    0.48   4
   5  -6  -4    0.62    0.61   3
   5   6  -4    0.47    0.60   3
  -5  -6   4    0.95    0.65   1
   4  -6  -4  513.02    9.08   2
   4   6  -4  526.00    9.17   3
  -4  -6   4  524.56    8.60   4
   4  -6  -4  528.01    9.05   3
  -4  -6   4  516.32    8.90   1
  -4   6   4  519.54    8.94   1
   3  -6  -4  449.13    7.68   3
   3  -6  -4  433.98    7.81   2
  -3   6   4  446.60    7.72   1
  -3  -6   4  455.28    7.52   4
   3   6  -4  460.15    7.89   3
  -3  -6   4  449.23    7.62   1
  -2   6   4  331.68    5.83   1
  -2   6   4  339.98    5.47   4
   2   6  -4  332.95    5.93   3
   2  -6  -4  328.73    5.91   2
   2   6  -4  326.45    5.41   2
   2  -6  -4  329.44    5.62   3
  -2  -6   4  327.20    5.64   1
  -2  -6   4  318.79    5.72   4
  -1  -6   4    1.99    0.50   4
  -1   6   4    1.70    0.40   5
  -1   6   4    1.56    0.44   1
  -1  -6   4    0.47    0.40   1
  -1   6   4    2.47    0.53   4
   1  -6  -4    1.76    0.44   2
   1   6  -4    2.14    0.39   2
   1   6  -4    2.04    0.44   3
   0   6  -4  216.16    4.14   3
   0  -6  -4  211.60    4.04   1
   0  -6   4  219.89    4.18   4
   0  -6  -4  209.92    4.15   2
   0   6  -4  218.16    4.05   2
   0   6   4  212.00    4.12   4
   1  -6   4   16.64    1.17   4
   1   6   4   15.45    1.20   4
  -1   6  -4   15.66    1.06   2
   1  -6   4   16.44    0.93   3
  -1  -6  -4   14.88    0.94   1
  -1  -6  -4   15.76    1.05   2
   2  -6   4    0.45    0.60   4
   2  -6   4    0.77    0.50   3
  -2  -6  -4    0.49    0.58   2
  -2  -6  -4    0.84    0.50   1
  -2   6  -4    0.73    0.60   2
   2   6   4    0.19    0.67   4
   3   6   4   50.12    2.06   4
   3  -6   4   46.98    1.98   4
   3  -6   4   45.24    1.77   3
  -3  -6  -4   48.25    1.94   2
  -3   6  -4   45.26    1.91   2
   4   6   4   -0.01    0.86   4
  -4   6  -4    2.27    0.90   2
   4  -6   4   -0.03    0.70   3
  -4  -6  -4   -0.41    0.77   2
   4  -6   4   -0.11    0.84   4
   5  -6   4    6.12    1.19   4
  -5  -6  -4    5.99    1.23   2
   5   6   4    7.41    1.32   4
  -5   6  -4    4.79    1.17   2
  -7   7   4   11.75    1.25   2
   7  -7  -4   10.79    1.24   3
   7   7  -4   12.30    1.26   3
  -7  -7   4   12.82    1.29   1
  -7   7   4   11.86    1.25   1
  -6  -7   4   17.86    1.36   1
  -6   7   4   17.87    1.31   1
   6  -7  -4   16.91    1.26   3
   6   7  -4   15.20    1.25   3
   6  -7  -4   18.14    1.32   2
   5  -7  -4   12.76    1.04   3
   5   7  -4   13.92    1.10   3
   5  -7  -4   14.35    1.10   2
  -5  -7   4   12.84    1.07   1
  -5   7   4   11.58    1.06   1
   4   7  -4   60.03    1.96   3
   4  -7  -4   61.56    2.00   2
   4  -7  -4   59.54    1.90   3
  -4  -7   4   60.73    1.82   4
  -4   7   4   57.97    1.96   1
  -4  -7   4   62.36    1.98   1
   3   7  -4 1169.59   19.02   3
  -3  -7   4 1170.82   18.45   1
  -3  -7   4 1184.98   18.26   4
   3  -7  -4 1174.22   18.80   3
   3  -7  -4 1175.10   18.88   2
  -3   7   4 1166.87   18.57   1
  -2  -7   4    3.25    0.56   4
  -2  -7   4    2.53    0.53   1
  -2   7   4    5.02    0.63   1
   2  -7  -4    3.20    0.53   2
   2   7  -4    3.52    0.54   3
  -2   7   4    4.22    0.52   4
   2  -7  -4    2.63    0.43   3
  -1  -7   4    1.01    0.37   1
   1   7  -4    2.20    0.45   3
   1  -7  -4    1.28    0.43   2
  -1   7   4    1.81    0.47   1
   1   7  -4    1.89    0.39   2
  -1   7   4    2.28    0.53   4
  -1  -7   4    1.29    0.49   4
  -1   7   4    1.37    0.42   5
   0  -7  -4  162.13    3.38   2
   0   7   4  164.43    3.37   4
   0  -7  -4  153.65    3.26   1
   0  -7   4  161.41    3.40   4
   0   7  -4  165.64    3.38   3
   0   7  -4  162.46    3.24   2
   1   7   4    1.65    0.66   4
   1  -7   4    1.97    0.52   3
  -1  -7  -4    1.84    0.53   2
   1  -7   4    1.62    0.57   4
  -1   7  -4    1.14    0.54   2
  -1  -7  -4    1.89    0.52   1
  -2  -7  -4   20.77    1.21   2
   2  -7   4   20.98    1.36   4
  -2  -7  -4   21.76    1.10   1
  -2   7  -4   21.61    1.33   2
   2   7   4   20.49    1.41   4
   2  -7   4   20.00    1.18   3
  -3  -7  -4   14.39    1.15   2
  -3   7  -4   12.54    1.17   2
   3   7   4   13.35    1.25   4
   3  -7   4   13.93    1.09   3
   3  -7   4   12.64    1.14   4
  -4  -7  -4   12.08    1.21   2
   4  -7   4   12.15    1.24   4
  -4   7  -4   12.28    1.29   2
   4  -7   4   13.86    1.21   3
   4   7   4   13.05    1.34   4
   5   7   4   -1.14    0.98   4
   5  -7   4   -0.03    0.96   4
  -5  -7  -4   -0.07    0.94   2
  -5   7  -4   -0.02    0.96   2
   7   8  -4    8.44    1.13   3
  -7   8   4    9.18    1.15   1
  -7   8   4    8.33    1.16   2
   7  -8  -4    8.48    1.16   3
  -7  -8   4    9.52    1.21   1
  -6  -8   4    9.67    1.08   1
   6  -8  -4   10.54    1.09   2
   6  -8  -4   10.17    1.07   3
  -6   8   4    8.40    1.03   1
   6   8  -4   10.32    1.09   3
   5   8  -4    5.52    0.81   3
   5  -8  -4    5.15    0.80   3
  -5  -8   4    3.98    0.82   1
  -5   8   4    4.01    0.83   1
   5  -8  -4    3.69    0.78   2
  -5  -8   4    4.20    0.71   4
   4  -8  -4    8.32    0.91   2
   4   8  -4    6.66    0.80   3
  -4   8   4    6.04    0.83   1
   4  -8  -4    7.21    0.79   3
  -4  -8   4    6.17    0.84   1
  -4  -8   4    6.59    0.76   4
  -3  -8   4   19.23    1.26   1
  -3   8   4   25.63    1.36   1
   3  -8  -4   18.78    1.16   3
  -3  -8   4   21.84    1.25   4
   3   8  -4   22.75    1.23   3
   3  -8  -4   21.71    1.26   2
   2  -8  -4    0.27    0.43   2
  -2  -8   4    0.13    0.44   4
  -2  -8   4    1.20    0.48   1
   2  -8  -4    0.05    0.33   3
  -2   8   4    0.12    0.43   4
   2   8  -4    0.50    0.43   3
  -2   8   4    0.59    0.50   1
   1   8  -4   47.89    1.29   2
   1   8  -4   49.20    1.55   3
  -1  -8   4   47.21    1.58   4
  -1   8   4   47.75    1.37   5
   1  -8  -4   46.06    1.55   2
  -1   8   4   45.28    1.52   1
  -1  -8   4   48.54    1.28   1
  -1   8   4   46.41    1.48   4
   0   8  -4   41.09    1.36   2
   0  -8   4   39.32    1.52   4
   0  -8  -4   39.54    1.43   2
   0   8  -4   38.04    1.40   3
   0   8   4   42.32    1.53   4
   0  -8  -4   36.92    1.36   1
   1   8   4   11.14    0.96   4
   1  -8   4   10.57    0.86   3
  -1  -8  -4    9.80    0.84   2
  -1  -8  -4   12.07    0.86   1
   1  -8   4   10.54    0.91   4
  -1   8  -4   10.99    0.86   2
   2  -8   4    2.26    0.71   4
  -2   8  -4    1.64    0.68   2
  -2  -8  -4    1.66    0.59   2
  -2  -8  -4    2.19    0.60   1
   2   8   4    1.67    0.78   4
   2  -8   4    1.38    0.62   3
   3   8   4    5.21    1.01   4
  -3   8  -4    3.82    0.87   2
   3  -8   4    5.30    0.85   3
  -3  -8  -4    3.65    0.77   2
   3  -8   4    4.99    0.89   4
  -4   8  -4   32.75    1.88   2
  -4  -8  -4   35.15    1.84   2
   4   8   4   34.45    1.97   4
   4  -8   4   31.29    1.71   3
   4  -8   4   30.82    1.81   4
   7   9  -4   -0.22    0.76   3
  -7   9   4   -0.17    0.79   2
   7  -9  -4   -0.82    0.77   3
  -7  -9   4    0.83    0.81   1
  -7   9   4   -0.46    0.87   1
  -6   9   4    4.10    0.90   1
   6  -9  -4    1.72    0.77   3
  -6  -9   4    3.39    0.88   1
   6   9  -4    3.43    0.84   3
   6  -9  -4    2.61    0.84   2
  -5  -9   4   19.88    1.36   1
   5   9  -4   16.57    1.22   3
  -5   9   4   16.20    1.24   1
   5  -9  -4   16.16    1.24   2
   5  -9  -4   18.82    1.28   3
  -5  -9   4   19.65    1.27   4
   4  -9  -4  106.99    2.70   3
   4   9  -4  106.06    2.79   3
   4  -9  -4  111.34    2.91   2
  -4  -9   4  111.24    2.79   1
  -4  -9   4  106.44    2.67   4
   3  -9  -4   36.93    1.41   3
   3  -9  -4   35.37    1.56   2
  -3   9   4   39.06    1.61   1
  -3  -9   4   37.90    1.52   1
  -3  -9   4   37.88    1.54   4
   3   9  -4   38.11    1.52   3
   2   9  -4  740.32   12.37   3
  -2   9   4  735.12   12.09   1
  -2   9   4  730.00   11.56   4
  -2  -9   4  735.51   12.01   4
  -2  -9   4  725.35   11.81   1
  -2   9   4  738.26   10.68   5
   2  -9  -4  751.24   12.33   2
   2  -9  -4  746.56   11.90   3
  -1   9   4   23.13    1.06   5
   1  -9  -4   23.50    1.17   2
  -1  -9   4   21.42    1.17   4
  -1   9   4   22.95    1.15   4
  -1   9   4   21.04    1.15   1
  -1  -9   4   21.92    0.94   1
   1   9  -4   23.23    1.12   3
   0  -9   4    5.17    0.70   4
   0  -9  -4    3.73    0.62   1
   0  -9  -4    9.45    0.77   2
   0   9  -4    4.00    0.58   2
   0   9  -4    4.65    0.62   3
   0   9   4    4.76    0.72   4
  -1   9  -4  210.43    4.24   2
   1   9   4  215.52    4.37   4
  -1  -9  -4  206.99    4.18   1
   1  -9   4  210.86    4.37   3
  -1  -9  -4  212.64    4.31   2
   1  -9   4  213.20    4.36   4
   2  -9   4    0.28    0.61   4
  -2   9  -4    1.84    0.67   2
  -2  -9  -4    0.30    0.52   2
   2  -9   4    0.35    0.57   3
   2   9   4    0.98    0.70   4
  -2  -9  -4    0.17    0.56   1
  -3  -9  -4   10.02    1.02   2
  -3  -9  -4   11.18    0.98   1
   3  -9   4    9.49    1.07   4
   3  -9   4   10.91    1.06   3
  -3   9  -4   11.95    1.15   2
   3   9   4    8.85    1.15   4
  -4  -9  -4    2.66    0.87   2
   4  -9   4    3.80    0.97   4
   4  -9   4    3.61    0.92   3
   4   9   4    2.69    1.08   4
  -4   9  -4    0.40    0.92   2
  -7 -10   4    0.07    0.84   1
   7 -10  -4    0.01    0.81   3
  -7  10   4    1.97    0.91   2
   7  10  -4   -0.31    0.79   3
   6  10  -4   32.90    1.73   3
  -6 -10   4   36.62    1.80   1
   6 -10  -4   35.00    1.74   3
  -6  10   4   32.16    1.68   1
   6 -10  -4   34.95    1.81   2
   5 -10  -4    3.24    0.73   3
  -5  10   4    2.55    0.79   1
  -5 -10   4    4.34    0.75   4
   5 -10  -4    3.43    0.77   2
  -5 -10   4    2.99    0.78   1
   5  10  -4    3.06    0.76   3
  -4 -10   4    0.63    0.59   4
   4 -10  -4    0.70    0.65   2
  -4  10   4    1.13    0.67   1
  -4 -10   4    1.98    0.70   1
   4 -10  -4    0.68    0.60   3
   4  10  -4    2.14    0.64   3
  -3  10   4   43.55    1.71   1
   3 -10  -4   40.67    1.46   3
   3 -10  -4   41.51    1.70   2
  -3 -10   4   43.20    1.68   4
  -3 -10   4   40.71    1.59   1
   3  10  -4   42.84    1.64   3
   2 -10  -4  535.96    8.55   3
  -2  10   4  515.34    8.86   1
  -2 -10   4  509.24    8.58   1
  -2 -10   4  499.42    8.79   4
   2  10  -4  517.12    9.04   3
  -2  10   4  522.81    7.83   5
   2 -10  -4  517.32    9.03   2
  -1 -10   4   33.52    1.12   1
  -1 -10   4   32.41    1.38   4
  -1  10   4   30.58    1.41   1
   1 -10  -4   30.00    1.32   2
  -1  10   4   29.44    1.22   5
   1  10  -4   30.93    1.32   3
  -1  10   4   31.26    1.31   4
   0 -10  -4  108.85    2.68   1
   0 -10  -4  117.21    2.76   2
   0 -10   4  115.55    2.82   4
   0  10  -4  111.37    2.51   2
   0  10   4  116.42    2.75   4
   0  10  -4  114.61    2.77   3
   1  10   4    9.39    0.97   4
  -1 -10  -4   10.06    0.88   2
  -1 -10  -4   11.01    0.90   1
   1 -10   4    9.52    0.92   4
  -1  10  -4   12.07    0.91   2
  -1  10  -4   10.70    0.90   3
   2  10   4   22.11    1.45   4
  -2 -10  -4   22.73    1.29   2
  -2  10  -4   19.78    1.34   2
   2 -10   4   24.70    1.44   4
  -2 -10  -4   18.69    1.19   1
   2 -10   4   22.49    1.29   3
   3  10   4   32.39    1.81   4
  -3  10  -4   35.11    1.80   2
   3 -10   4   35.30    1.67   3
   3 -10   4   33.42    1.72   4
  -3 -10  -4   35.12    1.61   1
  -3 -10  -4   34.44    1.60   2
   4 -10   4    9.51    1.14   3
  -4 -10  -4    7.85    1.05   2
   4  10   4    7.83    1.29   4
   4 -10   4    9.20    1.14   4
  -4  10  -4   10.67    1.31   2
   7 -11  -4   -0.19    0.85   3
  -7  11   4   -0.06    0.89   2
  -7 -11   4    0.73    0.87   1
   7  11  -4    0.08    0.85   3
   6  11  -4    2.92    0.87   3
  -6  11   4    4.32    0.93   1
  -6 -11   4    1.53    0.86   1
   6 -11  -4    3.22    0.90   2
   6 -11  -4    2.23    0.80   3
   6  11  -4    1.54    0.80   4
  -5 -11   4   19.73    1.32   4
   5  11  -4   16.90    1.28   3
  -5  11   4   19.33    1.38   1
   5 -11  -4   21.11    1.31   3
   5 -11  -4   19.62    1.35   2
  -5 -11   4   19.28    1.34   1
   4  11  -4  117.81    3.00   3
   4 -11  -4  114.58    2.83   3
  -4 -11   4  110.47    2.90   4
   4 -11  -4  116.88    3.11   2
  -4 -11   4  118.66    2.96   1
  -4  11   4  117.69    3.00   1
   3  11  -4  365.23    6.83   3
  -3  11   4  372.79    6.71   1
   3 -11  -4  360.52    6.88   2
   3 -11  -4  368.48    6.48   3
  -3 -11   4  359.21    6.62   4
  -3 -11   4  359.62    6.54   1
  -2  11   4    3.38    0.60   5
   2  11  -4    4.34    0.65   3
  -2  11   4    4.39    0.70   1
   2 -11  -4    3.34    0.67   2
  -2 -11   4    3.45    0.67   4
  -2 -11   4    2.09    0.56   1
  -1 -11   4    0.54    0.52   4
   1 -11  -4    0.80    0.51   2
  -1 -11   4    0.97    0.40   1
   1  11  -4    0.22    0.45   3
   1 -11  -4    0.67    0.55   1
  -1  11   4    0.76    0.54   4
   0 -11   4    6.98    0.81   4
   0  11  -4    7.58    0.69   2
   0 -11  -4    7.43    0.79   2
   0  11   4    7.45    0.86   4
   0 -11  -4    7.55    0.80   1
   0  11  -4    7.81    0.78   3
   1 -11   4  215.98    4.49   4
  -1 -11  -4  213.70    4.39   2
  -1 -11  -4  208.88    4.35   1
   1  11   4  217.97    4.49   4
  -1  11  -4  210.77    4.50   3
  -1  11  -4  212.06    4.29   2
  -2  11  -4    1.35    0.69   2
  -2 -11  -4    2.15    0.64   2
   2  11   4    2.28    0.80   4
   2 -11   4    1.54    0.65   3
  -2 -11  -4    1.31    0.67   1
   2 -11   4    2.29    0.72   4
  -3  11  -4    3.58    0.96   2
  -3 -11  -4    3.67    0.81   2
   3 -11   4    3.06    0.81   3
   3 -11   4    3.68    0.84   4
  -3 -11  -4    3.10    0.82   1
   3  11   4    2.39    0.97   4
  -4 -11  -4   29.25    1.64   2
  -4  11  -4   30.55    1.95   2
   4 -11   4   30.12    1.81   4
   4 -11   4   29.59    1.73   3
   4  11   4   29.12    1.97   4
  -6 -12   4    1.50    0.85   1
   6 -12  -4    1.71    0.89   2
  -6  12   4    2.86    0.90   1
   6  12  -4    2.66    0.86   4
   6 -12  -4    1.68    0.79   3
   6  12  -4    1.53    0.83   3
   5 -12  -4   -0.10    0.61   3
   5 -12  -4   -0.24    0.66   2
  -5 -12   4   -0.31    0.66   1
  -5  12   4   -0.35    0.70   1
  -5 -12   4   -0.27    0.64   4
   5  12  -4    0.74    0.66   3
  -4 -12   4   51.18    1.90   1
  -4  12   4   54.12    1.99   1
  -4 -12   4   52.73    1.94   4
   4 -12  -4   48.84    1.79   3
   4 -12  -4   51.22    2.00   2
   4  12  -4   52.21    1.91   3
   3 -12  -4   -0.25    0.57   2
   3 -12  -4   -0.62    0.45   3
  -3 -12   4    0.85    0.60   4
  -3 -12   4   -0.11    0.54   1
  -3  12   4    0.37    0.58   1
   3  12  -4    0.03    0.53   3
   2  12  -4   21.90    1.23   3
  -2  12   4   22.33    1.28   1
  -2 -12   4   21.14    1.16   1
  -2 -12   4   19.94    1.29   4
   2 -12  -4   22.84    1.30   2
  -2  12   4   21.88    1.12   5
   1 -12  -4   76.42    2.24   2
   1  12  -4   81.41    2.30   3
  -1 -12   4   83.87    2.37   4
  -1  12   4   78.13    2.17   4
   1 -12  -4   78.79    2.29   1
  -1 -12   4   78.33    1.89   1
   0  12   4   23.16    1.36   4
   0 -12  -4   20.75    1.19   2
   0 -12   4   21.14    1.28   4
   0  12  -4   22.15    1.24   3
   0 -12  -4   20.99    1.22   1
  -1 -12  -4   58.20    1.91   2
  -1  12  -4   58.97    2.02   3
  -1 -12  -4   57.46    1.93   1
   1  12   4   59.39    2.09   4
   1 -12   4   59.80    2.07   4
  -1  12  -4   56.58    1.86   2
  -2 -12  -4    7.86    0.94   1
   2  12   4    4.88    0.95   4
   2 -12   4    6.33    0.90   4
   2 -12   4    6.85    0.91   3
  -2 -12  -4    8.25    0.89   2
  -2  12  -4    6.90    0.91   2
  -3 -12  -4   45.97    1.86   2
  -3  12  -4   44.86    2.04   2
  -3 -12  -4   43.14    1.87   1
   3  12   4   40.94    2.04   4
   3 -12   4   40.87    1.88   3
   3 -12   4   39.28    1.87   4
  -4  12  -4   35.86    2.06   2
   4  12   4   28.05    1.98   4
   4 -12   4   29.89    1.79   3
  -4 -12  -4   29.15    1.67   2
   4 -12   4   35.15    1.88   4
   6 -13  -4   17.38    1.40   3
   6 -13  -4   15.52    1.45   2
  -6  13   4   16.58    1.40   1
  -6 -13   4   17.19    1.42   1
   6  13  -4   18.83    1.41   4
   6  13  -4   16.22    1.38   3
   5 -13  -4    5.02    0.95   2
   5 -13  -4    3.86    0.81   3
  -5  13   4    5.85    0.96   1
  -5 -13   4    6.11    0.92   1
   5  13  -4    4.03    0.88   3
   4  13  -4    6.49    0.87   3
  -4 -13   4    6.42    0.87   1
  -4 -13   4    5.55    0.88   4
   4 -13  -4    5.08    0.76   3
   4 -13  -4    7.33    0.95   2
  -4  13   4    4.57    0.89   1
  -3 -13   4   83.87    2.49   4
  -3  13   4   81.27    2.45   1
   3 -13  -4   85.49    2.57   2
   3  13  -4   81.42    2.43   3
  -3 -13   4   84.74    2.33   1
   2 -13  -4    1.27    0.63   2
  -2  13   4    1.49    0.65   1
   2  13  -4    1.19    0.56   3
  -2 -13   4    0.25    0.57   4
  -2 -13   4    1.40    0.54   1
  -2  13   4    1.63    0.58   5
   1 -13  -4   34.10    1.49   2
   1  13  -4   31.08    1.46   3
  -1  13   4   34.26    1.48   4
   1 -13  -4   34.08    1.53   1
  -1 -13   4   34.53    1.61   4
   0 -13  -4   12.43    0.97   2
   0 -13   4   11.84    1.01   4
   0 -13  -4   11.22    0.99   1
   0  13   4   12.19    1.03   4
   0  13  -4   12.32    0.98   3
  -1  13  -4    0.73    0.61   3
  -1 -13  -4    1.36    0.59   2
   1 -13   4    0.24    0.62   4
  -1  13  -4    0.84    0.58   2
   1  13   4    0.44    0.73   4
  -1 -13  -4    0.10    0.59   1
  -2  13  -4    0.20    0.63   2
   2 -13   4    0.76    0.66   3
  -2 -13  -4    0.17    0.68   1
   2  13   4   -0.47    0.73   4
   2 -13   4   -0.96    0.65   4
  -2 -13  -4    0.63    0.58   2
  -3 -13  -4    0.47    0.78   1
  -3  13  -4    0.81    0.83   2
  -3 -13  -4    0.56    0.70   2
   3  13   4    0.14    0.89   4
   3 -13   4    1.13    0.81   4
   3 -13   4    1.10    0.79   3
   4  13   4    2.35    1.15   4
   4 -13   4    1.73    0.92   3
  -4  13  -4    2.51    1.10   2
   4 -13   4    1.87    0.94   4
  -6 -14   4    6.23    1.11   1
   6 -14  -4    5.96    1.12   2
   6  14  -4    4.51    1.03   3
   6  14  -4    5.32    1.06   4
   6 -14  -4    5.14    1.00   3
   5 -14  -4    6.58    1.05   2
   5  14  -4    5.94    0.90   4
   5 -14  -4    7.43    0.95   3
  -5 -14   4    7.40    1.05   1
   5  14  -4    7.13    1.00   3
  -5  14   4    5.61    1.00   1
   4  14  -4   36.37    1.68   3
  -4  14   4   35.73    1.78   1
   4 -14  -4   36.53    1.56   3
  -4 -14   4   37.10    1.68   1
   4 -14  -4   33.05    1.73   2
  -4 -14   4   37.98    1.78   4
  -3 -14   4  133.77    3.12   1
   3  14  -4  120.69    3.19   3
   3 -14  -4  129.89    3.35   2
  -3  14   4  127.28    3.22   1
  -3 -14   4  128.47    3.28   4
  -2  14   4    0.81    0.62   1
   2  14  -4    0.76    0.56   3
  -2 -14   4    0.68    0.64   4
  -2 -14   4    0.52    0.51   1
   2 -14  -4    0.57    0.59   2
  -2  14   4    0.52    0.56   5
   1  14  -4    7.53    0.87   3
  -1  14   4    6.51    0.81   4
  -1 -14   4    7.58    0.90   4
   1 -14  -4    5.36    0.79   2
   1 -14  -4    5.71    0.86   1
   0 -14  -4   19.78    1.26   2
   0  14   4   20.19    1.36   4
   0 -14   4   22.70    1.40   4
   0  14  -4   20.20    1.29   3
   0 -14  -4   18.12    1.25   1
   1  14   4    0.91    0.78   4
   1 -14   4    0.97    0.67   4
  -1 -14  -4    1.30    0.68   1
  -1 -14  -4    1.11    0.61   2
  -1  14  -4    0.80    0.62   3
   2 -14   4   36.59    1.79   4
   2 -14   4   34.21    1.73   3
  -2 -14  -4   34.50    1.70   1
  -2 -14  -4   33.12    1.55   2
  -2  14  -4   33.38    1.71   2
   2  14   4   33.11    1.81   4
  -3  14  -4    2.64    0.98   2
   3 -14   4    2.61    0.92   3
  -3 -14  -4    2.04    0.89   1
   3  14   4    0.99    0.98   4
   3 -14   4    3.20    0.92   4
  -3 -14  -4    4.11    0.85   2
   6 -15  -4   12.98    1.43   2
   6  15  -4   12.33    1.32   4
  -6 -15   4   13.66    1.41   1
   6  15  -4   12.12    1.33   3
   6 -15  -4   11.85    1.29   3
   5  15  -4   27.06    1.60   4
  -5 -15   4   27.51    1.65   1
   5 -15  -4   25.12    1.66   2
   5 -15  -4   27.24    1.54   3
   5  15  -4   27.96    1.63   3
  -5  15   4   23.83    1.64   1
  -4  15   4    3.81    0.90   1
  -4 -15   4    3.55    0.81   1
   4  15  -4    3.06    0.80   3
  -4 -15   4    2.78    0.79   4
   4 -15  -4    2.76    0.87   2
  -3 -15   4    4.25    0.86   4
   3  15  -4    4.06    0.78   3
   3 -15  -4    3.58    0.78   2
  -3 -15   4    4.37    0.76   1
  -3  15   4    3.15    0.80   1
  -2  15   4   -0.54    0.51   5
   2 -15  -4   -0.39    0.57   2
  -2 -15   4    0.18    0.54   1
   2  15  -4   -0.08    0.52   3
  -2 -15   4    0.18    0.63   4
  -2  15   4    0.63    0.62   1
   1  15  -4    0.36    0.60   3
   1 -15  -4    0.20    0.60   2
  -1  15   4    0.95    0.64   4
  -1 -15   4    0.75    0.65   4
   1 -15  -4    0.96    0.66   1
   0  15  -4   37.20    1.65   3
   0 -15  -4   34.78    1.62   1
   0 -15   4   35.41    1.72   4
   0 -15  -4   37.41    1.63   2
   0  15   4   37.37    1.70   4
  -1 -15  -4   -0.04    0.63   1
   1  15   4   -0.14    0.73   4
  -1 -15  -4    0.70    0.62   2
  -1  15  -4    0.04    0.59   3
   1 -15   4    0.94    0.69   4
   2 -15   4   28.65    1.68   3
   2 -15   4   29.45    1.72   4
  -2 -15  -4   28.24    1.62   1
  -2 -15  -4   29.02    1.51   2
   2  15   4   29.11    1.76   4
   3 -15   4   65.94    2.48   4
   3  15   4   54.55    2.48   4
   3 -15   4   59.17    2.42   3
  -3 -15  -4   59.84    2.16   2
  -3 -15  -4   57.40    2.32   1
  -3  15  -4   60.73    2.46   2
   5  16  -4   12.67    1.25   4
  -5 -16   4    9.81    1.19   1
   5 -16  -4   11.11    1.30   2
   5  16  -4   10.58    1.20   3
   5 -16  -4   10.73    1.13   3
  -5  16   4    9.24    1.19   1
  -4 -16   4   18.91    1.42   1
   4 -16  -4   17.81    1.41   2
  -4 -16   4   14.33    1.27   4
   4  16  -4   16.68    1.30   3
  -4  16   4   16.50    1.37   1
  -3 -16   4    2.51    0.78   4
  -3 -16   4    1.28    0.67   1
  -3  16   4    1.40    0.75   1
   3 -16  -4    2.26    0.76   2
   3  16  -4    1.57    0.70   3
   2 -16  -4   18.13    1.35   2
   2  16  -4   17.55    1.26   3
  -2  16   4   18.34    1.15   5
  -2 -16   4   17.95    1.33   4
  -2 -16   4   18.17    1.17   1
  -2  16   4   18.48    1.33   1
   1 -16  -4    1.67    0.69   2
  -1 -16   4    2.44    0.77   4
   1  16  -4    3.31    0.75   3
   1 -16  -4    2.80    0.78   1
   0 -16  -4   61.47    2.18   1
   0  16  -4   63.18    2.20   3
   0  16   4   65.46    2.25   4
   0 -16   4   64.66    2.31   4
   0 -16  -4   63.73    2.17   2
  -1  16  -4    5.53    0.90   3
  -1 -16  -4    5.51    0.91   1
   1 -16   4    4.23    0.91   4
   1  16   4    5.21    1.02   4
  -1 -16  -4    3.94    0.82   2
  -2 -16  -4   20.04    1.35   2
   2  16   4   16.89    1.49   4
   2 -16   4   21.22    1.61   4
  -2 -16  -4   20.33    1.47   1
  -3 -16  -4   21.07    1.61   1
   3  16   4   18.26    1.65   4
   3 -16   4   19.78    1.59   3
   3 -16   4   20.63    1.56   4
   5 -17  -4   34.48    2.00   2
  -5  17   4   38.94    2.10   1
   5  17  -4   40.50    2.02   3
   5  17  -4   42.00    2.06   4
  -5 -17   4   40.86    2.03   1
   4 -17  -4    8.81    1.14   2
   4  17  -4    8.21    1.07   3
  -4  17   4    7.60    1.12   1
  -4 -17   4    7.98    1.09   4
  -4 -17   4    7.02    1.03   1
   3  17  -4   19.41    1.38   3
   3 -17  -4   21.16    1.45   2
  -3 -17   4   20.27    1.39   1
  -3  17   4   20.50    1.49   1
  -3 -17   4   22.76    1.53   4
  -2 -17   4    1.10    0.75   4
   2 -17  -4    0.51    0.71   2
   2  17  -4    1.21    0.66   3
  -2  17   4    1.57    0.66   5
  -2  17   4    1.63    0.77   1
  -2 -17   4    1.03    0.61   1
  -1 -17   4   21.96    1.45   4
   1  17  -4   25.44    1.48   3
   1 -17  -4   24.48    1.47   2
   1 -17  -4   24.12    1.47   1
   0 -17  -4    8.49    1.00   2
   0  17   4    9.58    1.09   4
   0 -17  -4   11.15    1.12   1
   0 -17   4   10.77    1.11   4
   0  17  -4    8.49    1.01   3
   1  17   4   10.00    1.20   4
   1 -17   4    7.84    1.10   4
  -1 -17  -4    8.49    1.03   2
  -1 -17  -4    8.78    1.09   1
  -1  17  -4    9.43    1.10   3
   2 -17   4    7.30    1.20   4
   2  17   4    7.84    1.26   4
  -2 -17  -4    7.23    1.11   1
  -2  17  -4    7.63    1.13   3
  -2 -17  -4    7.29    1.02   2
   5  18  -4   16.16    1.48   3
   5  18  -4   17.19    1.53   4
  -5 -18   4   20.09    1.57   1
   5 -18  -4   16.45    1.54   2
  -4 -18   4    1.95    0.87   1
   4 -18  -4    1.85    0.92   2
  -4  18   4   -0.12    0.84   1
   4  18  -4    1.92    0.85   3
  -4 -18   4   -0.70    0.80   4
  -3 -18   4    1.93    0.77   1
   3  18  -4    0.81    0.74   3
   3 -18  -4    0.98    0.79   2
  -3 -18   4    0.72    0.81   4
  -3  18   4    0.53    0.78   1
   2 -18  -4   35.97    1.78   2
  -2  18   4   36.57    1.83   1
  -2  18   4   36.04    1.58   5
   2  18  -4   36.72    1.78   3
  -2 -18   4   39.55    1.91   4
   1  18  -4    8.21    1.02   3
   1 -18  -4    7.31    0.98   2
  -1 -18   4    5.68    0.96   4
   1 -18  -4    6.51    1.03   1
   0  18   4   17.04    1.37   4
   0 -18  -4   18.05    1.38   1
   0 -18   4   19.28    1.43   4
   0  18  -4   19.21    1.40   3
   0 -18  -4   19.60    1.37   2
   1  18   4    2.15    0.95   4
  -1  18  -4    3.53    0.90   3
  -1 -18  -4    2.25    0.90   1
   1 -18   4    1.27    0.85   4
  -1 -18  -4    2.78    0.86   2
  -2 -18  -4    2.67    0.98   1
   2 -18   4    3.17    1.07   4
   2  18   4    1.89    1.06   4
  -2  18  -4    1.58    0.85   3
   4 -19  -4   -0.29    0.85   2
  -4 -19   4   -0.60    0.79   1
  -4 -19   4    0.05    0.83   4
  -4  19   4   -0.53    0.85   1
   4  19  -4    0.42    0.82   3
  -3 -19   4    1.34    0.84   4
   3  19  -4   -0.14    0.72   3
  -3 -19   4    0.54    0.74   1
   3 -19  -4    0.46    0.83   2
  -3  19   4    0.21    0.80   1
   2  19  -4    9.76    1.10   3
   2 -19  -4    9.65    1.12   2
  -2  19   4    9.79    1.03   5
  -2  19   4   11.20    1.21   1
  -2 -19   4    9.47    1.21   4
   1 -19  -4   -0.19    0.81   1
   1  19  -4    0.58    0.74   3
  -1 -19   4    0.14    0.73   4
   1 -19  -4   -0.53    0.73   2
   0 -19  -4    2.49    0.83   2
   0 -19   4    1.33    0.84   4
   0  19  -4    2.20    0.84   3
   0  19   4    0.47    0.87   4
   0 -19  -4    1.96    0.84   1
  -1 -19  -4   -0.06    0.81   1
  -1  19  -4    1.04    0.80   3
  -1 -19  -4    1.39    0.82   2
   1 -19   4    1.65    0.88   4
   1  19   4   -0.45    0.91   4
   3  20  -4   -0.66    0.74   3
  -3  20   4   -1.11    0.79   1
  -3 -20   4    0.24    0.85   4
   3 -20  -4    0.04    0.83   2
  -3 -20   4   -0.46    0.77   1
  -2  20   4    3.22    0.84   5
  -2  20   4    3.59    0.95   1
   2  20  -4    2.41    0.84   3
  -2 -20   4    2.40    0.92   4
   2 -20  -4    2.08    0.86   2
   1  20  -4    0.69    0.78   3
  -1 -20   4   -0.99    0.78   4
   1 -20  -4   -0.40    0.85   2
   0 -20  -4   17.21    1.45   1
   0  20   4   16.14    1.42   4
   0  20  -4   18.22    1.47   3
   0 -20   4   15.63    1.44   4
   0 -20  -4   18.45    1.46   2
   1 -20   4   10.96    1.27   4
   1  20   4   10.95    1.35   4
  -1  20  -4   12.48    1.29   3
  -1 -20  -4   12.58    1.35   1
   2 -21  -4   24.92    1.69   2
  -2 -21   4   22.98    1.75   4
   2  21  -4   23.05    1.60   3
  -2  21   4   25.96    1.76   1
  -2  21   4   23.87    1.51   5
   1  21  -4   14.42    1.38   3
  -1  21   4   18.41    1.32   5
   1 -21  -4   16.37    1.44   2
  -1  21   4   23.33    1.61   1
  -1 -21   4   13.14    1.43   4
   0 -21   4   50.11    2.31   4
   0  21  -4   47.81    2.22   3
   0 -21  -4   45.51    2.20   1
  -8   0   5    0.62    0.96   1
  -7   0   5   11.15    1.28   1
   7   0  -5   10.80    1.23   3
   6   0  -5    0.06    0.63   3
  -6   0   5   -0.24    0.68   1
  -5   0   5    6.25    0.87   1
   5   0  -5    4.87    0.68   2
   5   0  -5    4.75    0.78   3
  -4   0   5   -0.36    0.56   1
   4   0  -5    0.72    0.50   3
   4   0  -5   -0.01    0.38   2
   3   0  -5  170.17    3.45   2
  -3   0   5  176.94    3.26   4
  -3   0   5  180.38    3.61   1
   3   0  -5  172.47    3.57   3
   2   0  -5    0.16    0.36   3
  -2   0   5   -0.01    0.46   1
   2   0  -5   -0.60    0.30   2
  -2   0   5   -0.09    0.40   4
   1   0  -5  120.77    2.68   2
  -1   0   5  123.70    2.55   1
   1   0  -5  121.25    2.53   3
  -1   0   5  119.49    2.72   4
   0   0   5    0.06    0.58   4
   0   0  -5    0.17    0.46   2
   0   0   5   -0.28    0.40   1
   0   0  -5    0.26    0.33   3
  -1   0  -5  114.95    2.87   2
   1   0   5  120.22    2.99   4
  -1   0  -5  116.54    2.51   3
   2   0   5   -0.51    0.70   4
  -2   0  -5    0.02    0.62   2
   3   0   5   16.72    1.37   4
  -3   0  -5   15.35    1.33   2
  -4   0  -5    1.05    0.97   2
   4   0   5   -1.43    0.92   4
   7   1  -5   22.55    1.59   3
  -7   1   5   25.34    1.65   1
   7  -1  -5   20.84    1.58   3
  -7  -1   5   23.42    1.67   1
   6   1  -5    0.22    0.64   3
   6  -1  -5    0.22    0.68   3
  -6  -1   5    0.69    0.70   1
  -6   1   5   -0.97    0.69   1
   5  -1  -5    0.71    0.59   3
  -5  -1   5   -0.06    0.63   1
  -5   1   5   -0.30    0.65   1
   5   1  -5    0.79    0.61   3
   5  -1  -5    0.26    0.50   2
   4   1  -5    2.78    0.64   3
  -4  -1   5    1.84    0.67   1
   4  -1  -5    2.80    0.62   3
   4   1  -5    3.12    0.52   2
  -4   1   5    2.78    0.70   1
   4  -1  -5    2.67    0.53   2
   3  -1  -5   10.09    0.73   2
  -3  -1   5   10.50    0.69   4
   3  -1  -5    9.66    0.75   3
  -3   1   5    9.83    0.75   4
   3   1  -5   10.63    0.78   3
  -3  -1   5   10.44    0.87   1
   3   1  -5    9.58    0.77   2
  -3   1   5   10.42    0.86   1
  -2   1   5   69.78    1.91   1
  -2   1   5   70.50    1.84   4
   2  -1  -5   71.94    1.78   3
   2   1  -5   71.10    1.81   2
   2  -1  -5   73.48    1.87   2
  -2  -1   5   72.93    1.86   4
   2   1  -5   72.98    1.85   3
  -2  -1   5   73.59    1.89   1
   1  -1  -5   32.24    1.08   3
   1   1  -5   30.71    1.13   3
  -1  -1   5   29.95    1.16   1
  -1  -1   5   30.49    1.30   4
   1   1  -5   30.71    1.23   2
  -1   1   5   30.42    1.21   1
  -1   1   5   30.44    1.36   4
   1  -1  -5   31.48    1.25   2
   0   1   5  132.96    3.08   4
   0   1  -5  134.10    2.76   3
   0  -1   5  135.64    3.09   4
   0  -1   5  136.64    2.63   1
   0  -1  -5  139.25    2.68   3
   0  -1  -5  131.54    3.01   2
   0   1   5  132.47    2.70   1
   0   1  -5  132.33    2.99   2
  -1  -1  -5   16.40    1.16   2
  -1   1  -5   15.36    0.95   3
   1   1   5   17.27    1.31   4
  -1   1  -5   17.32    1.15   2
  -1  -1  -5   14.88    0.84   3
   1  -1   5   14.46    1.10   4
  -2   1  -5   23.77    1.45   2
   2   1   5   21.79    1.48   4
  -2  -1  -5   23.02    1.42   2
   2  -1   5   21.86    1.50   4
   3   1   5    4.34    1.01   4
  -3  -1  -5    4.91    0.96   2
  -3   1  -5    4.64    0.97   2
   3  -1   5    3.18    0.93   4
  -4   1  -5   26.06    1.91   2
   4  -1   5   27.31    1.94   4
  -4  -1  -5   27.03    1.93   2
   4   1   5   27.61    1.91   4
  -7   2   5   14.99    1.33   1
   7   2  -5   15.37    1.40   3
   7  -2  -5   16.11    1.38   3
  -7  -2   5   16.22    1.39   1
   6   2  -5   14.81    1.18   3
  -6   2   5   17.20    1.28   1
   6  -2  -5   14.74    1.20   3
  -6  -2   5   17.26    1.34   1
  -5   2   5   -0.49    0.63   1
   5  -2  -5    0.06    0.56   3
   5  -2  -5    0.52    0.51   2
  -5  -2   5    1.24    0.68   1
   5   2  -5    0.05    0.62   3
   4  -2  -5    1.61    0.55   3
  -4   2   5    1.41    0.66   1
   4   2  -5    1.11    0.53   3
   4  -2  -5    0.45    0.46   2
  -4  -2   5    0.80    0.64   1
  -3   2   5   31.20    1.38   1
   3  -2  -5   28.49    1.20   2
   3   2  -5   30.23    1.11   2
  -3  -2   5   28.60    1.34   1
   3   2  -5   29.78    1.24   3
  -3  -2   5   29.27    1.13   4
   3  -2  -5   30.32    1.24   3
   2  -2  -5   54.44    1.61   2
  -2   2   5   54.44    1.66   1
   2  -2  -5   54.79    1.50   3
  -2  -2   5   55.90    1.62   1
  -2  -2   5   53.09    1.60   4
   2   2  -5   53.38    1.50   2
  -2   2   5   50.97    1.56   4
   2   2  -5   56.24    1.60   3
  -1   2   5  233.34    4.33   1
   1  -2  -5  232.56    4.18   3
  -1   2   5  233.04    4.42   4
   1  -2  -5  234.40    4.48   2
  -1  -2   5  232.41    4.18   1
   1   2  -5  237.62    4.41   2
  -1  -2   5  238.41    4.47   4
   1   2  -5  234.62    4.37   3
   0   2   5   78.43    1.90   1
   0  -2  -5   77.39    2.15   2
   0   2  -5   80.06    2.12   2
   0   2  -5   81.78    1.96   3
   0  -2   5   77.72    2.23   4
   0  -2   5   80.18    1.77   1
   0  -2  -5   79.90    1.77   3
   0   2   5   79.59    2.25   4
  -1   2  -5   23.17    1.26   2
  -1   2  -5   22.60    1.10   3
   1   2   5   23.71    0.92   5
  -1  -2  -5   23.63    1.31   2
   1   2   5   23.93    1.09   1
   1  -2   5   22.98    1.40   4
   1   2   5   23.13    1.41   4
  -2  -2  -5   65.22    2.19   2
  -2   2  -5   65.04    2.20   2
   2  -2   5   63.16    2.24   4
   2   2   5   63.45    2.25   4
  -3  -2  -5    3.15    0.93   2
  -3   2  -5    6.40    1.00   2
   3   2   5    3.97    0.96   4
   3  -2   5    3.83    0.98   4
  -4   2  -5   15.02    1.50   2
  -4  -2  -5   16.12    1.54   2
   4   2   5   15.38    1.50   4
   4  -2   5   16.87    1.50   4
   7   3  -5    9.00    1.14   3
   7  -3  -5    8.40    1.14   3
  -7   3   5    8.07    1.16   1
  -7  -3   5    9.50    1.20   1
  -7   3   5    8.33    1.04   2
  -6  -3   5    3.39    0.88   1
  -6   3   5    3.73    0.88   1
   6  -3  -5    3.23    0.81   3
   6   3  -5    2.41    0.77   3
   6  -3  -5    3.07    0.78   2
   5   3  -5  114.59    3.00   3
   5  -3  -5  111.54    2.89   3
   5  -3  -5  106.89    2.78   2
  -5   3   5  109.92    2.91   1
  -5  -3   5  113.98    2.93   1
   4  -3  -5    2.36    0.53   2
  -4  -3   5    2.25    0.66   1
  -4   3   5    2.38    0.71   1
   4   3  -5    3.52    0.66   3
   4  -3  -5    2.14    0.57   3
  -3  -3   5   24.11    1.07   4
   3  -3  -5   24.02    1.13   2
   3   3  -5   25.77    1.20   3
  -3   3   5   23.79    1.29   1
   3   3  -5   25.28    0.99   2
   3  -3  -5   24.55    1.12   3
  -3  -3   5   25.55    1.26   1
   2   3  -5  100.78    2.22   2
  -2  -3   5   99.73    2.32   1
  -2   3   5   97.18    2.27   4
   2  -3  -5  100.74    2.20   3
   2  -3  -5  102.79    2.42   2
  -2  -3   5  100.39    2.34   4
   2   3  -5  101.15    2.40   3
  -2   3   5   98.45    2.41   1
   1  -3  -5  288.82    4.96   3
   1   3  -5  296.75    5.26   3
  -1   3   5  286.43    5.21   4
   1  -3  -5  282.04    5.31   2
  -1   3   5  288.19    5.16   1
  -1  -3   5  284.34    5.26   4
  -1  -3   5  291.96    4.97   1
   1   3  -5  285.82    5.19   2
   0  -3  -5   21.57    1.20   2
   0   3  -5   23.35    1.03   3
   0   3  -5   23.56    1.15   2
   0   3   5   23.00    1.37   4
   0  -3   5   22.76    1.32   4
   0   3   5   25.07    1.08   1
  -1   3  -5   41.40    1.46   3
   1   3   5   41.82    1.76   4
   1  -3   5   41.05    1.71   4
   1   3   5   44.50    1.23   5
  -1  -3  -5   41.90    1.63   2
  -1   3  -5   43.54    1.65   2
   1   3   5   41.98    1.39   1
  -2   3  -5   12.81    1.10   2
   2  -3   5   10.60    0.86   3
  -2  -3  -5   10.71    1.06   2
   2   3   5   11.47    1.15   4
   2  -3   5   12.42    1.12   4
   3  -3   5    3.79    0.94   4
  -3  -3  -5    3.13    0.88   2
   3   3   5    4.15    0.98   4
  -3   3  -5    3.03    0.91   2
  -4  -3  -5   19.07    1.60   2
  -4   3  -5   16.26    1.54   2
   4   3   5   15.70    1.52   4
   4  -3   5   13.39    1.41   4
  -7  -4   5   11.39    1.25   1
  -7   4   5   11.29    1.26   1
   7   4  -5   12.66    1.28   3
  -7   4   5   14.23    1.20   2
   7  -4  -5    9.32    1.17   3
  -6   4   5   -0.84    0.68   1
   6  -4  -5    0.06    0.61   2
   6   4  -5    0.50    0.65   3
   6  -4  -5   -1.11    0.61   3
  -6  -4   5   -0.47    0.65   1
  -5   4   5    0.56    0.68   1
   5  -4  -5    0.51    0.54   2
   5   4  -5    0.65    0.63   3
   5  -4  -5    0.10    0.58   3
  -5  -4   5   -0.58    0.62   1
  -4  -4   5    6.28    0.66   4
  -4  -4   5    4.23    0.77   1
  -4   4   5    4.06    0.78   1
   4   4  -5    4.58    0.73   3
   4  -4  -5    4.72    0.67   2
   4  -4  -5    4.36    0.68   3
   3  -4  -5   39.43    1.36   3
   3   4  -5   36.56    1.44   3
  -3   4   5   38.28    1.55   1
   3  -4  -5   39.19    1.44   2
  -3  -4   5   37.59    1.48   1
  -3  -4   5   40.50    1.37   4
   2  -4  -5  546.79    9.19   2
   2  -4  -5  540.54    8.94   3
  -2   4   5  530.34    8.72   4
  -2   4   5  537.74    9.04   1
  -2  -4   5  533.71    8.89   4
   2   4  -5  539.65    8.85   2
  -2  -4   5  531.30    8.85   1
   2   4  -5  553.15    9.24   3
   1  -4  -5   22.25    1.15   2
   1   4  -5   23.94    1.08   3
  -1   4   5   23.62    1.12   1
  -1  -4   5   22.87    1.25   4
   1   4  -5   22.91    1.06   2
  -1   4   5   23.45    1.28   4
   1  -4  -5   22.33    0.87   3
  -1  -4   5   21.18    1.02   1
   0  -4   5  173.03    3.73   4
   0   4   5  176.17    3.08   5
   0  -4  -5  175.96    3.72   2
   0   4  -5  177.82    3.64   2
   0   4   5  174.37    3.75   4
   0   4   5  180.26    3.51   1
   0   4  -5  173.79    3.57   3
  -1   4  -5   24.11    1.20   3
   1  -4   5   25.96    1.42   4
  -1  -4  -5   23.34    1.28   2
   1   4   5   25.50    1.00   5
  -1   4  -5   25.45    1.34   2
   1   4   5   26.75    1.51   4
   1   4   5   24.11    1.17   1
   2  -4   5    9.97    1.06   4
  -2  -4  -5    9.15    0.98   2
   2  -4   5    9.04    0.83   3
   2   4   5    9.25    1.10   4
  -2   4  -5    9.15    1.01   2
  -3   4  -5    1.72    0.84   2
   3  -4   5    2.21    0.87   4
  -3  -4  -5    1.13    0.84   2
   3   4   5    1.54    0.88   4
   4   4   5   18.77    1.62   4
  -4   4  -5   21.46    1.67   2
  -4  -4  -5   23.67    1.74   2
   4  -4   5   20.81    1.62   4
  -7   5   5   12.48    1.31   1
  -7  -5   5   10.24    1.23   1
   7   5  -5   12.07    1.25   3
   7  -5  -5   11.74    1.23   3
  -7   5   5   15.01    1.25   2
  -6  -5   5    0.10    0.69   1
   6  -5  -5   -0.14    0.63   3
   6   5  -5    0.18    0.65   3
   6  -5  -5    0.64    0.66   2
  -6   5   5   -0.85    0.67   1
   5  -5  -5    8.02    0.87   2
   5   5  -5    7.59    0.94   3
  -5  -5   5    6.86    0.93   1
   5  -5  -5    8.14    0.91   3
  -5   5   5    6.41    0.96   1
  -4  -5   5   99.67    2.60   1
  -4  -5   5  101.40    2.38   4
  -4   5   5   99.72    2.66   1
   4  -5  -5  100.66    2.53   3
   4  -5  -5   98.00    2.58   2
   4   5  -5   97.23    2.61   3
  -3  -5   5   22.84    1.24   1
  -3  -5   5   25.39    1.17   4
   3  -5  -5   23.96    1.11   3
  -3   5   5   24.14    1.34   1
   3  -5  -5   23.13    1.18   2
   3   5  -5   22.84    1.23   3
  -2   5   5   18.00    1.09   4
  -2  -5   5   20.30    1.15   4
   2  -5  -5   20.08    1.11   2
  -2   5   5   20.09    1.19   1
   2   5  -5   19.08    0.93   2
   2   5  -5   20.70    1.10   3
  -2  -5   5   18.35    1.11   1
   2  -5  -5   18.95    0.94   3
  -1  -5   5   51.34    1.44   1
   1  -5  -5   51.17    1.66   2
  -1   5   5   50.23    1.62   1
   1   5  -5   49.00    1.49   2
  -1   5   5   53.27    1.75   4
   1   5  -5   52.64    1.62   3
  -1  -5   5   47.78    1.69   4
   0  -5   5  127.17    3.07   4
   0   5   5  133.45    3.08   4
   0   5  -5  127.46    2.90   2
   0   5   5  129.37    2.51   5
   0  -5  -5  129.92    3.03   2
   0   5   5  132.95    2.86   1
   0   5  -5  130.66    2.91   3
   1  -5   5   30.49    1.53   4
  -1   5  -5   32.33    1.45   2
  -1  -5  -5   30.52    1.41   2
   1   5   5   29.12    1.58   4
  -1   5  -5   29.61    1.33   3
  -2  -5  -5   -0.30    0.61   2
   2  -5   5    1.08    0.73   4
   2   5   5    0.14    0.75   4
   2  -5   5    0.00    0.54   3
  -2   5  -5    0.19    0.64   2
   3   5   5   44.96    2.10   4
  -3   5  -5   42.67    1.98   2
  -3  -5  -5   48.57    2.10   2
   3  -5   5   43.63    2.06   4
  -4   5  -5    3.96    1.13   2
   4  -5   5    7.59    1.28   4
  -4  -5  -5    7.05    1.19   2
   4   5   5    5.11    1.21   4
  -7  -6   5    1.30    0.87   1
  -7   6   5   -0.03    0.83   1
   7   6  -5    0.00    0.77   3
   7  -6  -5    0.33    0.78   3
  -7   6   5    2.32    0.83   2
   6  -6  -5   -0.67    0.61   3
   6   6  -5    0.30    0.67   3
  -6   6   5    0.28    0.74   1
   6  -6  -5    0.03    0.65   2
  -6  -6   5   -0.01    0.69   1
  -5  -6   5   -0.37    0.66   1
   5  -6  -5    0.78    0.61   3
  -5   6   5    0.03    0.66   1
   5   6  -5    0.41    0.60   3
   5  -6  -5    0.36    0.57   2
  -4  -6   5    9.54    0.93   1
   4   6  -5    8.17    0.89   3
   4  -6  -5    9.83    0.91   2
  -4   6   5    7.86    0.98   1
   4  -6  -5   11.09    0.88   3
  -4  -6   5   11.00    0.84   4
   3  -6  -5   66.29    1.99   2
  -3  -6   5   66.39    1.92   4
   3  -6  -5   64.62    1.79   3
   3   6  -5   65.44    1.99   3
  -3   6   5   66.43    2.08   1
  -3  -6   5   61.55    1.88   1
  -2  -6   5  160.16    3.37   4
   2  -6  -5  159.45    3.45   2
  -2   6   5  158.11    3.42   1
  -2  -6   5  159.61    3.20   1
   2   6  -5  158.96    3.43   3
   2  -6  -5  161.85    3.06   3
  -2   6   5  154.31    3.20   4
   1  -6  -5  240.16    4.65   2
  -1   6   5  238.03    3.99   5
  -1  -6   5  228.05    4.13   1
  -1   6   5  241.95    4.51   4
  -1   6   5  236.37    4.52   1
  -1  -6   5  222.27    4.54   4
   1   6  -5  245.65    4.63   3
   1   6  -5  230.67    4.34   2
   0   6   5    0.92    0.64   4
   0   6   5   -0.12    0.42   5
   0   6  -5    0.87    0.51   2
   0  -6   5    0.37    0.54   4
   0  -6  -5    3.04    0.61   2
   0   6  -5    0.83    0.47   3
   0   6   5    0.77    0.50   1
   1  -6   5   56.72    2.02   4
  -1   6  -5   59.56    1.85   3
  -1  -6  -5   57.83    1.95   2
  -1   6  -5   55.66    1.91   2
   1   6   5   59.37    2.10   4
  -1  -6  -5   54.92    1.73   1
  -2  -6  -5    1.89    0.68   2
  -2   6  -5    2.10    0.73   2
   2  -6   5    2.79    0.66   3
   2   6   5    2.53    0.86   4
   2  -6   5    3.12    0.79   4
  -3   6  -5    0.42    0.78   2
   3   6   5   -0.34    0.86   4
   3  -6   5    0.32    0.78   4
  -3  -6  -5   -0.90    0.70   2
   3  -6   5   -0.38    0.62   3
   4   6   5    7.89    1.34   4
  -4   6  -5    5.76    1.23   2
   4  -6   5    7.46    1.23   4
  -4  -6  -5    6.94    1.23   2
  -7   7   5    9.01    1.13   2
  -7  -7   5    6.59    1.10   1
  -7   7   5    5.96    1.12   1
   7  -7  -5    6.24    1.02   3
   7   7  -5    7.29    1.11   3
  -6   7   5   40.67    1.85   1
   6  -7  -5   39.81    1.83   2
  -6  -7   5   39.95    1.84   1
   6   7  -5   39.66    1.88   3
   6  -7  -5   38.75    1.78   3
   5  -7  -5   56.80    1.99   3
  -5   7   5   56.88    2.05   1
   5  -7  -5   54.64    2.03   2
   5   7  -5   58.93    2.09   3
  -5  -7   5   61.08    2.09   1
  -4  -7   5  167.39    3.46   4
   4  -7  -5  155.94    3.68   2
   4  -7  -5  160.26    3.52   3
   4   7  -5  160.56    3.71   3
  -4  -7   5  163.61    3.59   1
  -4   7   5  158.42    3.67   1
   3  -7  -5  114.64    2.54   3
  -3  -7   5  112.40    2.64   1
   3  -7  -5  108.37    2.79   2
  -3   7   5  107.34    2.80   1
   3   7  -5  106.00    2.74   3
  -3  -7   5  113.66    2.71   4
  -2  -7   5  676.91   11.30   4
   2   7  -5  704.98   11.71   3
   2  -7  -5  690.16   11.63   2
  -2   7   5  688.56   11.43   1
  -2   7   5  696.93   11.03   4
  -2  -7   5  687.69   11.14   1
  -1  -7   5  192.17    3.97   4
  -1  -7   5  189.33    3.48   1
   1  -7  -5  182.09    3.94   2
   1   7  -5  193.63    3.97   3
  -1   7   5  194.96    3.91   1
  -1   7   5  189.84    3.84   4
   1   7  -5  188.04    3.67   2
  -1   7   5  195.32    3.45   5
   0   7  -5   37.17    1.44   2
   0   7   5   35.36    1.43   1
   0  -7  -5   38.10    1.52   2
   0   7   5   35.58    1.62   4
   0  -7   5   36.79    1.58   4
   0   7   5   36.63    1.27   5
   0   7  -5   35.50    1.41   3
   1   7   5    1.56    0.77   4
  -1  -7  -5    1.49    0.61   2
  -1   7  -5    2.60    0.69   2
  -1   7  -5    1.49    0.56   3
  -1  -7  -5    1.54    0.57   1
   1  -7   5    1.67    0.67   4
   2   7   5    6.04    1.01   4
   2  -7   5    8.65    1.01   4
  -2  -7  -5    6.97    0.86   2
  -2   7  -5    6.98    0.95   2
   2  -7   5    7.55    0.87   3
  -3  -7  -5    0.26    0.70   2
  -3   7  -5    0.49    0.82   2
   3   7   5    0.27    0.86   4
   3  -7   5    0.10    0.67   3
   3  -7   5    1.05    0.86   4
  -4  -7  -5    0.71    0.95   2
   4   7   5    2.48    1.12   4
  -4   7  -5    2.24    1.06   2
   4  -7   5    1.70    1.02   4
  -7   8   5    8.10    1.21   1
   7  -8  -5    6.66    1.10   3
   7   8  -5    8.87    1.19   3
  -7  -8   5    6.38    1.06   1
   6   8  -5   41.12    1.93   3
   6  -8  -5   41.02    1.91   2
   6  -8  -5   39.94    1.80   3
  -6  -8   5   41.80    1.90   1
  -6   8   5   43.43    1.91   1
   5  -8  -5    1.26    0.66   2
  -5   8   5    1.75    0.78   1
   5  -8  -5    0.80    0.61   3
   5   8  -5    1.38    0.68   3
  -5  -8   5    1.62    0.73   1
  -4  -8   5  322.74    5.88   4
  -4  -8   5  314.72    5.97   1
  -4   8   5  314.17    6.08   1
   4  -8  -5  318.79    5.96   3
   3  -8  -5   65.28    2.09   2
  -3  -8   5   65.69    2.05   4
   3  -8  -5   64.72    1.84   3
  -3  -8   5   62.79    1.92   1
   3   8  -5   63.85    2.06   3
  -3   8   5   62.45    2.12   1
  -2  -8   5   85.02    2.35   4
  -2   8   5   86.49    2.17   4
   2  -8  -5   87.43    2.41   2
  -2   8   5   89.37    2.40   1
  -2  -8   5   86.33    2.14   1
   2   8  -5   92.72    2.40   3
   1   8  -5   85.79    2.09   2
  -1  -8   5   88.81    2.42   4
  -1   8   5   90.57    2.09   5
  -1   8   5   90.01    2.36   1
  -1   8   5   89.01    2.35   4
   1  -8  -5   91.46    2.42   2
   1   8  -5   89.49    2.38   3
   0  -8  -5  120.90    2.99   2
   0   8   5  127.07    3.08   4
   0   8  -5  125.49    2.99   3
   0   8  -5  126.76    2.89   2
   0   8   5  125.71    2.59   5
   0  -8   5  125.57    3.09   4
   0   8   5  127.64    2.95   1
  -1   8  -5  142.39    3.32   3
   1  -8   5  142.82    3.44   4
  -1   8  -5  138.87    3.29   2
  -1  -8  -5  135.95    3.34   2
  -1  -8  -5  137.17    3.16   1
   1   8   5  142.81    3.48   4
   2  -8   5   30.91    1.48   3
   2  -8   5   28.12    1.62   4
   2   8   5   29.32    1.70   4
  -2   8  -5   29.50    1.61   2
  -2  -8  -5   28.65    1.50   2
   3  -8   5    2.02    0.89   4
  -3   8  -5   -0.97    0.77   2
   3   8   5   -1.02    0.90   4
   3  -8   5    0.40    0.68   3
  -3  -8  -5    0.88    0.73   2
  -4  -8  -5   33.66    1.88   2
   4  -8   5   41.31    2.17   4
   4   8   5   29.73    2.04   4
  -4   8  -5   32.05    2.09   2
  -7   9   5   10.58    1.32   1
   7  -9  -5   10.13    1.23   3
  -7  -9   5   10.87    1.27   1
   7  -9  -5   11.76    1.32   2
   7   9  -5    9.74    1.28   3
  -6  -9   5    3.22    0.88   1
   6  -9  -5    1.42    0.80   2
   6  -9  -5    2.82    0.82   3
  -6   9   5    2.02    0.86   1
   6   9  -5    2.41    0.84   3
  -5   9   5    0.62    0.74   1
   5  -9  -5    1.78    0.64   3
  -5  -9   5    3.10    0.78   1
   5   9  -5    1.13    0.71   3
   5  -9  -5    0.68    0.65   2
   4  -9  -5   89.68    2.38   3
  -4   9   5   81.65    2.53   1
   4  -9  -5   81.25    2.52   2
  -4  -9   5   89.38    2.49   1
  -4  -9   5   92.23    2.49   4
   4   9  -5   86.89    2.55   3
  -3   9   5  868.30   14.29   1
   3  -9  -5  870.44   14.16   3
   3  -9  -5  863.46   14.57   2
  -3  -9   5  876.56   14.10   4
  -3  -9   5  863.82   14.05   1
  -2  -9   5   29.16    1.39   4
  -2  -9   5   30.08    1.25   1
  -2   9   5   33.06    1.49   1
   2  -9  -5   30.41    1.43   2
   2   9  -5   32.76    1.42   3
   1  -9  -5    0.32    0.49   2
  -1   9   5    0.89    0.52   5
   1   9  -5    0.22    0.50   3
  -1   9   5   -0.12    0.55   4
  -1   9   5    0.16    0.53   1
  -1  -9   5    0.45    0.54   4
   0  -9  -5    5.30    0.75   2
   0  -9   5    6.16    0.83   4
   0   9   5    5.56    0.85   4
   0   9  -5    6.28    0.73   2
   0   9  -5    5.99    0.75   3
   1   9   5    0.74    0.72   4
   1  -9   5    0.89    0.64   4
  -1  -9  -5    0.69    0.59   1
  -1  -9  -5    1.58    0.62   2
  -1   9  -5    0.17    0.59   2
  -1   9  -5    0.62    0.55   3
   2   9   5   40.25    1.94   4
   2  -9   5   42.63    1.76   3
  -2  -9  -5   42.71    1.67   1
  -2  -9  -5   39.65    1.76   2
  -2   9  -5   42.14    1.87   2
   2  -9   5   43.34    1.91   4
   3  -9   5   33.75    1.85   4
   3  -9   5   31.97    1.66   3
  -3  -9  -5   29.74    1.64   2
  -3   9  -5   33.60    1.92   2
   3   9   5   31.32    1.93   4
  -7 -10   5    4.15    1.05   1
   7  10  -5    4.22    1.06   3
  -7  10   5    3.11    1.04   1
   7 -10  -5    3.94    1.08   2
   7 -10  -5    4.63    1.04   3
   6  10  -5   11.80    1.23   3
   6 -10  -5   11.37    1.24   2
  -6 -10   5   10.68    1.18   1
  -6  10   5   12.53    1.25   1
   6 -10  -5   12.24    1.18   3
   5 -10  -5   31.06    1.55   3
   5  10  -5   32.83    1.64   3
  -5  10   5   30.37    1.64   1
  -5 -10   5   30.76    1.58   1
   5 -10  -5   27.59    1.61   2
  -4 -10   5   24.17    1.40   1
  -4 -10   5   22.65    1.38   4
   4 -10  -5   21.06    1.35   2
   4  10  -5   22.42    1.35   3
  -4  10   5   22.41    1.50   1
   4 -10  -5   25.32    1.36   3
  -3 -10   5  150.15    3.47   4
   3 -10  -5  149.45    3.59   2
   3  10  -5  141.07    3.48   3
  -3  10   5  155.53    3.56   1
  -3 -10   5  145.72    3.28   1
  -2 -10   5   75.93    1.99   1
   2  10  -5   73.50    2.21   3
   2 -10  -5   76.95    2.29   2
  -2  10   5   76.74    2.26   1
  -2 -10   5   74.23    2.25   4
  -1  10   5    8.24    0.87   4
  -1 -10   5    7.69    0.86   4
  -1  10   5    8.32    0.86   1
   1 -10  -5    8.81    0.86   2
  -1  10   5    9.58    0.80   5
   1  10  -5    9.82    0.88   3
   0  10  -5    3.37    0.68   3
   0 -10  -5    3.90    0.71   2
   0  10   5    3.33    0.76   4
   0 -10  -5    3.20    0.71   1
   0 -10   5    4.21    0.77   4
   0  10  -5    3.92    0.69   2
  -1  10  -5   13.97    1.08   3
  -1  10  -5   14.86    1.19   2
   1 -10   5   12.03    1.09   4
  -1 -10  -5   12.47    1.01   1
  -1 -10  -5   14.96    1.13   2
   1  10   5   15.11    1.20   4
  -2 -10  -5    2.86    0.79   2
  -2 -10  -5    3.43    0.81   1
   2 -10   5    3.25    0.85   4
   2  10   5    3.94    0.99   4
  -2  10  -5    2.19    0.72   3
  -2  10  -5    3.56    0.86   2
   3  10   5   -0.88    0.84   4
  -3  10  -5   -0.55    0.86   2
  -3 -10  -5   -1.24    0.65   2
   3 -10   5    0.64    0.85   4
   3 -10   5    0.42    0.77   3
  -6 -11   5    8.20    1.12   1
  -6  11   5    7.87    1.17   1
   6 -11  -5    6.46    1.09   2
   6  11  -5    7.70    1.11   3
   6 -11  -5    9.48    1.10   3
   5  11  -5   24.86    1.52   3
   5 -11  -5   26.24    1.48   3
  -5 -11   5   25.72    1.50   4
   5 -11  -5   24.98    1.56   2
  -5  11   5   26.02    1.59   1
  -5 -11   5   27.88    1.59   1
   4 -11  -5    7.02    0.92   2
   4 -11  -5    8.74    0.86   3
  -4  11   5    8.58    1.04   1
  -4 -11   5    8.94    0.96   4
  -4 -11   5    7.29    0.93   1
   4  11  -5    7.88    0.93   3
   3  11  -5   43.35    1.77   3
  -3 -11   5   44.00    1.81   4
   3 -11  -5   43.46    1.82   2
  -3  11   5   48.00    1.91   1
  -3 -11   5   46.32    1.70   1
  -2 -11   5  143.33    3.03   1
   2 -11  -5  135.55    3.38   2
  -2  11   5  138.74    3.34   1
  -2 -11   5  141.03    3.38   4
  -2  11   5  140.11    2.95   5
  -1  11   5   38.13    1.62   1
  -1  11   5   39.62    1.61   4
   1  11  -5   41.67    1.65   3
  -1  11   5   39.42    1.46   5
   1 -11  -5   42.44    1.68   2
  -1 -11   5   38.36    1.66   4
   0  11  -5    2.07    0.62   3
   0  11   5    2.11    0.76   4
   0 -11  -5    2.05    0.68   1
   0 -11  -5    2.76    0.65   2
   0 -11   5    2.94    0.74   4
  -1 -11  -5   -0.03    0.52   2
   1 -11   5   -0.22    0.65   4
   1  11   5    0.68    0.73   4
  -1 -11  -5   -0.23    0.58   1
  -1  11  -5   -0.74    0.52   3
  -1  11  -5   -0.05    0.59   2
  -2  11  -5    8.14    0.97   3
  -2 -11  -5    9.54    1.04   1
  -2 -11  -5    7.39    0.95   2
   2 -11   5    9.62    1.08   4
  -2  11  -5    8.58    1.07   2
   2  11   5    8.62    1.16   4
   3  11   5   -0.73    0.97   4
   3 -11   5    0.47    0.75   3
   3 -11   5   -0.35    0.76   4
  -3  11  -5   -0.07    0.86   2
  -3 -11  -5    0.36    0.74   2
   6  12  -5   22.87    1.62   3
   6 -12  -5   20.89    1.61   2
  -6 -12   5   22.58    1.64   1
  -6  12   5   20.72    1.56   1
   6 -12  -5   22.75    1.54   3
   5 -12  -5    6.54    1.03   2
  -5 -12   5    5.46    0.94   1
   5 -12  -5    6.35    0.91   3
  -5 -12   5    7.74    1.00   4
  -5  12   5    6.85    1.04   1
   5  12  -5    7.29    1.02   3
  -4 -12   5   17.99    1.30   4
  -4  12   5   14.32    1.24   1
  -4 -12   5   16.02    1.20   1
   4 -12  -5   15.65    1.24   2
   4  12  -5   15.61    1.25   3
  -3 -12   5   13.29    1.12   4
   3 -12  -5   14.78    1.17   2
  -3 -12   5   12.47    1.03   1
   3  12  -5   14.18    1.11   3
  -3  12   5   15.75    1.23   1
  -2 -12   5   49.67    1.95   4
  -2  12   5   45.75    1.86   1
   2 -12  -5   46.01    1.86   2
  -2  12   5   45.81    1.64   5
  -2 -12   5   46.99    1.62   1
  -1  12   5   63.54    2.03   4
   1 -12  -5   64.59    2.13   2
  -1  12   5   68.25    2.16   1
  -1  12   5   60.96    1.87   5
  -1 -12   5   61.44    2.12   4
   0  12   5   90.73    2.61   4
   0 -12  -5   84.73    2.53   2
   0 -12  -5   91.21    2.59   1
   0 -12   5   91.67    2.68   4
   0  12  -5   91.70    2.61   3
  -1 -12  -5   33.25    1.55   2
  -1 -12  -5   34.34    1.59   1
  -1  12  -5   33.78    1.64   3
   1  12   5   36.01    1.76   4
   1 -12   5   34.94    1.71   4
   2 -12   5    1.31    0.83   4
   2  12   5   -0.33    0.85   4
  -2  12  -5   -0.09    0.79   2
  -2 -12  -5    1.32    0.70   2
  -2  12  -5    1.11    0.73   3
  -2 -12  -5    1.11    0.79   1
   3 -12   5    4.24    1.02   4
   3 -12   5    3.88    0.97   3
   3  12   5    2.46    1.10   4
  -3  12  -5    4.48    1.08   2
  -3 -12  -5    3.12    0.86   2
   6 -13  -5    1.38    0.85   3
  -6 -13   5    1.42    0.87   1
   6  13  -5    0.31    0.84   3
  -6  13   5   -0.18    0.87   1
   6 -13  -5    0.19    0.89   2
  -5  13   5    0.74    0.79   1
   5 -13  -5   -0.11    0.70   3
   5  13  -5    0.93    0.74   3
   5 -13  -5    0.02    0.76   2
  -5 -13   5    1.55    0.81   1
  -5 -13   5    0.38    0.70   4
   4 -13  -5   16.85    1.33   2
   4  13  -5   18.98    1.34   3
  -4  13   5   18.90    1.40   1
  -4 -13   5   18.23    1.30   4
  -4 -13   5   20.03    1.36   1
  -3 -13   5   49.65    1.80   1
  -3 -13   5   46.12    1.89   4
   3 -13  -5   44.01    1.91   2
  -3  13   5   46.81    1.95   1
   3  13  -5   42.88    1.83   3
  -2  13   5   83.09    2.22   5
   2 -13  -5   81.09    2.53   2
  -2 -13   5   81.32    2.55   4
  -2  13   5   79.37    2.50   1
   2  13  -5   78.65    2.44   3
  -1  13   5    7.00    0.90   4
  -1 -13   5    6.26    0.89   4
  -1  13   5    7.51    0.93   1
   1 -13  -5    7.43    0.90   2
  -1  13   5    5.67    0.83   5
   1  13  -5    7.65    0.90   3
   0 -13   5   16.99    1.30   4
   0 -13  -5   16.52    1.23   1
   0  13   5   16.88    1.30   4
   0  13  -5   15.86    1.22   3
   0 -13  -5   16.34    1.19   2
  -1 -13  -5    0.02    0.66   1
   1 -13   5    0.48    0.69   4
  -1 -13  -5    0.34    0.62   2
   1  13   5    0.02    0.75   4
  -1  13  -5    0.01    0.63   3
   2  13   5    3.86    1.02   4
   2 -13   5    3.48    0.96   4
  -2  13  -5    4.06    0.96   2
  -2 -13  -5    3.85    0.83   2
  -2  13  -5    2.75    0.86   3
  -2 -13  -5    4.04    0.92   1
   3 -13   5   19.24    1.53   3
   3  13   5   19.99    1.76   4
  -3  13  -5   22.14    1.68   2
  -3 -13  -5   19.59    1.44   2
   3 -13   5   22.74    1.67   4
   6 -14  -5    3.79    0.95   3
   6 -14  -5    1.95    1.01   2
   6  14  -5    3.22    0.99   3
   6  14  -5    3.46    1.01   4
  -6  14   5    3.25    1.01   1
  -6 -14   5    3.78    1.02   1
   5  14  -5    9.51    1.16   3
  -5  14   5    9.01    1.19   1
  -5 -14   5    9.66    1.14   4
  -5 -14   5    8.96    1.12   1
   5 -14  -5   10.39    1.23   2
   4  14  -5    3.20    0.83   3
  -4  14   5    2.49    0.91   1
  -4 -14   5    3.42    0.84   4
   4 -14  -5    3.34    0.86   2
  -4 -14   5    4.31    0.85   1
  -3 -14   5    3.91    0.84   4
   3 -14  -5    3.36    0.81   2
  -3 -14   5    4.15    0.77   1
  -3  14   5    3.03    0.86   1
   3  14  -5    3.02    0.77   3
  -2  14   5   36.71    1.76   1
   2 -14  -5   33.51    1.68   2
   2  14  -5   35.19    1.65   3
  -2 -14   5   37.45    1.78   4
  -2  14   5   37.43    1.54   5
   1  14  -5   33.67    1.65   3
  -1 -14   5   38.00    1.76   4
   1 -14  -5   34.78    1.65   2
  -1  14   5   38.01    1.56   5
  -1  14   5   36.69    1.72   1
   0 -14   5    6.22    0.96   4
   0  14   5    5.77    0.97   4
   0  14  -5    5.94    0.89   3
   0 -14  -5    7.22    0.97   1
   0 -14  -5    7.65    0.92   2
   1 -14   5   17.64    1.35   4
  -1 -14  -5   16.85    1.30   1
  -1  14  -5   17.15    1.32   3
  -1 -14  -5   17.28    1.25   2
   1  14   5   14.43    1.33   4
  -2 -14  -5    7.47    1.12   1
  -2 -14  -5    9.11    1.05   2
  -2  14  -5    6.48    1.02   3
   2 -14   5    9.61    1.16   4
   2  14   5    8.14    1.26   4
   5 -15  -5   -0.20    0.79   2
  -5  15   5    0.65    0.86   1
   5  15  -5   -0.34    0.76   3
  -5 -15   5    0.01    0.80   4
  -5 -15   5   -0.07    0.82   1
   4 -15  -5   10.56    1.20   2
  -4 -15   5   11.90    1.14   1
  -4 -15   5   10.85    1.19   4
   4  15  -5    9.75    1.10   3
  -4  15   5   10.52    1.23   1
  -3 -15   5   15.37    1.13   1
   3  15  -5   14.63    1.20   3
   3 -15  -5   15.01    1.32   2
  -3 -15   5   13.36    1.22   4
  -3  15   5   14.45    1.28   1
  -2  15   5    6.34    0.98   1
  -2  15   5    5.81    0.87   5
   2  15  -5    5.05    0.86   3
  -2 -15   5    4.44    0.92   4
   2 -15  -5    3.32    0.85   2
   1 -15  -5    9.50    1.05   2
  -1  15   5   11.49    1.13   1
  -1 -15   5    8.10    1.08   4
   1  15  -5    8.88    1.03   3
  -1  15   5   12.51    1.06   5
   0 -15  -5    6.63    0.96   2
   0 -15  -5    7.05    1.00   1
   0  15  -5    6.66    0.96   3
   0 -15   5    7.62    1.05   4
   0  15   5    7.05    1.02   4
  -1 -15  -5    0.51    0.78   1
  -1  15  -5    0.88    0.76   3
  -1 -15  -5    0.23    0.69   2
   1  15   5    0.21    0.81   4
   1 -15   5    1.27    0.78   4
  -2 -15  -5   26.35    1.56   2
   2  15   5   25.83    1.83   4
  -2  15  -5   27.92    1.76   3
   2 -15   5   30.68    1.86   4
  -2 -15  -5   26.37    1.72   1
   5  16  -5    2.53    0.92   3
   5 -16  -5    2.52    1.01   2
  -5 -16   5    2.66    0.99   1
  -5  16   5    2.39    0.97   1
  -5 -16   5    2.71    0.97   4
  -4 -16   5   15.81    1.29   1
   4  16  -5   16.48    1.35   3
  -4  16   5   17.27    1.48   1
  -4 -16   5   13.89    1.33   4
   4 -16  -5   17.19    1.44   2
   3 -16  -5    3.47    0.90   2
  -3  16   5    5.27    1.03   1
  -3 -16   5    5.24    0.87   1
  -3 -16   5    5.33    0.98   4
   3  16  -5    4.83    0.90   3
  -2  16   5   21.91    1.55   1
   2  16  -5   22.10    1.44   3
  -2 -16   5   21.18    1.51   4
  -2  16   5   25.22    1.42   5
   2 -16  -5   21.93    1.51   2
   1 -16  -5   55.15    2.16   2
  -1 -16   5   57.11    2.27   4
  -1  16   5   61.67    2.02   5
  -1  16   5   56.75    2.21   1
   1  16  -5   59.13    2.23   3
   0  16   5   29.63    1.75   4
   0 -16  -5   32.27    1.69   2
   0  16  -5   29.73    1.69   3
   0 -16  -5   28.70    1.66   1
   0 -16   5   30.50    1.74   4
  -1 -16  -5    6.78    1.00   2
  -1 -16  -5    4.74    1.01   1
   1  16   5    4.94    1.09   4
   1 -16   5    8.06    1.14   4
  -1  16  -5    6.81    1.06   3
  -2 -16  -5    1.32    0.84   2
  -2 -16  -5   -1.09    0.86   1
   2 -16   5   -0.12    0.89   4
   2  16   5    0.92    1.02   4
  -2  16  -5    0.00    0.81   3
  -5 -17   5    2.42    0.96   1
   5  17  -5    0.56    0.89   3
  -5  17   5    1.00    0.99   1
  -5 -17   5    1.97    0.95   4
   5 -17  -5    1.41    0.93   2
  -4 -17   5    1.39    0.88   4
  -4 -17   5    2.26    0.87   1
   4  17  -5    0.37    0.82   3
  -4  17   5    0.78    0.91   1
   4 -17  -5    1.13    0.87   2
  -3 -17   5    4.12    0.97   4
   3  17  -5    3.01    0.84   3
  -3  17   5    2.61    0.95   1
   3 -17  -5    2.77    0.91   2
  -2 -17   5    4.73    0.99   4
  -2  17   5    7.33    1.08   1
   2  17  -5    4.50    0.90   3
  -2  17   5    7.64    0.99   5
   2 -17  -5    4.76    0.99   2
   1  17  -5    1.16    0.78   3
  -1  17   5    1.07    0.78   1
   1 -17  -5   -0.16    0.72   2
  -1 -17   5    0.21    0.75   4
  -1  17   5    0.49    0.73   5
   0 -17  -5   16.06    1.32   2
   0  17   5   14.42    1.36   4
   0 -17  -5   16.21    1.39   1
   0 -17   5   16.47    1.44   4
   0  17  -5   18.18    1.42   3
  -1 -17  -5   47.23    2.14   1
  -1 -17  -5   48.99    2.14   2
  -1  17  -5   51.22    2.25   3
   1 -17   5   47.52    2.29   4
   1  17   5   47.10    2.26   4
  -4 -18   5    0.37    0.85   1
   4  18  -5    0.92    0.84   3
  -4 -18   5    0.29    0.86   4
  -4  18   5   -0.91    0.90   1
   4 -18  -5   -0.25    0.84   2
   3 -18  -5   -0.65    0.75   2
  -3 -18   5   -0.22    0.80   4
   3  18  -5    1.39    0.80   3
  -3  18   5   -0.67    0.83   1
  -2 -18   5    0.17    0.75   4
  -2  18   5    0.66    0.77   5
   2  18  -5    1.42    0.78   3
   2 -18  -5   -1.08    0.75   2
  -2  18   5    0.61    0.81   1
   1  18  -5   18.53    1.50   3
  -1  18   5   21.15    1.56   1
   1 -18  -5   19.64    1.55   2
  -1  18   5   20.38    1.36   5
  -1 -18   5   17.33    1.44   4
   0 -18  -5   40.60    1.96   2
   0 -18  -5   40.84    2.04   1
   0 -18   5   38.13    2.04   4
   0  18   5   38.80    2.07   4
   0  18  -5   40.08    1.98   3
  -1  18  -5   26.96    1.75   3
   1 -18   5   23.96    1.86   4
   1  18   5   23.63    1.82   4
  -1 -18  -5   27.82    1.79   2
  -1 -18  -5   23.07    1.70   1
   3 -19  -5    8.64    1.20   2
  -3 -19   5   11.25    1.35   4
  -3  19   5    9.78    1.31   1
   3  19  -5   10.99    1.25   3
  -2  19   5   -0.63    0.82   1
   2 -19  -5    0.67    0.91   2
  -2  19   5    0.97    0.83   5
  -2 -19   5    0.64    0.87   4
   2  19  -5    0.83    0.77   3
   1  19  -5   19.10    1.54   3
  -1  19   5   25.33    1.72   1
  -1  19   5   21.74    1.48   5
   1 -19  -5   20.58    1.64   2
  -1 -19   5   19.55    1.62   4
   0  19  -5   62.59    2.54   3
   0 -19   5   59.26    2.53   4
   0 -19  -5   59.78    2.43   2
   0 -19  -5   63.81    2.57   1
   2 -20  -5    3.20    1.01   2
  -2 -20   5    1.62    1.02   4
  -2  20   5    2.26    1.01   1
   2  20  -5    1.76    0.94   3
  -2  20   5    2.82    0.95   5
   1 -20  -5   92.02    3.07   2
   1  20  -5   94.56    3.13   3
  -1  20   5   93.19    3.10   1
  -1 -20   5   84.94    3.07   4
  -1  20   5   87.48    2.72   5
   7   0  -6    0.37    0.81   3
  -7   0   6    0.43    0.89   1
  -6   0   6    0.05    0.75   1
   6   0  -6    1.17    0.70   3
  -5   0   6   -1.06    0.66   1
   5   0  -6    0.31    0.63   3
   4   0  -6  147.72    3.33   2
  -4   0   6  157.29    3.56   1
   4   0  -6  158.15    3.54   3
  -3   0   6   -0.50    0.42   4
  -3   0   6   -0.46    0.56   1
   3   0  -6   -0.13    0.41   2
   3   0  -6    0.36    0.47   3
   2   0  -6   14.43    1.01   2
  -2   0   6   16.11    1.09   1
  -2   0   6   14.85    0.97   4
   2   0  -6   13.91    0.94   3
  -1   0   6    0.70    0.64   4
   1   0  -6   -0.39    0.45   3
   1   0  -6    0.07    0.50   2
  -1   0   6   -0.16    0.51   1
   0   0  -6  483.81    8.19   3
   0   0  -6  478.80    8.55   2
   0   0   6  476.24    8.49   4
  -1   0  -6    0.17    0.60   2
   1   0   6    1.67    0.81   4
  -2   0  -6    4.28    0.91   2
   2   0   6    5.90    1.03   4
   3   0   6    1.58    1.00   4
  -3   0  -6   -0.05    0.92   2
  -7  -1   6   20.38    1.57   1
  -7   1   6   20.33    1.60   1
   7  -1  -6   23.16    1.65   3
   7   1  -6   21.00    1.60   3
   6  -1  -6   24.69    1.53   3
  -6  -1   6   28.70    1.63   1
  -6   1   6   29.58    1.67   1
   6   1  -6   29.78    1.61   3
  -5   1   6    0.81    0.74   1
  -5  -1   6    1.12    0.74   1
   5   1  -6    1.35    0.70   3
   5  -1  -6    1.33    0.66   3
  -4   1   6   20.97    1.38   1
   4  -1  -6   20.16    1.28   3
   4   1  -6   18.10    1.22   3
   4  -1  -6   20.58    1.11   2
  -4  -1   6   20.77    1.38   1
  -3   1   6  103.61    2.60   1
   3  -1  -6  103.64    2.52   2
   3   1  -6  100.26    2.43   2
  -3  -1   6  103.90    2.41   4
  -3  -1   6  101.87    2.57   1
   3  -1  -6  102.76    2.50   3
   3   1  -6   98.00    2.49   3
   2   1  -6   33.84    1.35   2
  -2   1   6   33.55    1.42   4
  -2  -1   6   35.25    1.45   4
   2   1  -6   35.76    1.35   3
   2  -1  -6   32.32    1.23   3
  -2   1   6   36.24    1.46   1
   2  -1  -6   35.35    1.40   2
  -2  -1   6   33.82    1.39   1
  -1  -1   6  193.34    3.77   1
  -1   1   6  195.05    3.86   1
   1   1  -6  202.16    3.92   3
  -1  -1   6  194.52    4.11   4
  -1   1   6  200.67    4.12   4
   1  -1  -6  195.58    4.11   2
   1  -1  -6  196.36    3.79   3
   1   1  -6  199.28    4.06   2
   0   1   6  353.60    6.56   4
   0   1  -6  343.80    6.52   2
   0   1   6  352.73    6.09   1
   0  -1   6  341.20    6.55   4
   0   1  -6  356.63    6.27   3
   1  -1   6    2.15    0.82   4
  -1   1  -6    1.31    0.66   2
  -1  -1  -6    1.76    0.69   2
   1   1   6    0.74    0.77   4
  -2   1  -6   -0.16    0.71   2
   2   1   6    0.45    0.84   4
   2  -1   6    1.31    0.81   4
  -2  -1  -6    0.60    0.71   2
   3   1   6   71.66    2.72   4
  -3   1  -6   71.87    2.74   2
  -3  -1  -6   72.93    2.76   2
   3  -1   6   66.40    2.66   4
   7  -2  -6    1.26    0.87   3
  -7  -2   6    0.79    0.91   1
  -7   2   6    1.12    0.96   1
   7   2  -6    1.90    0.90   3
  -6   2   6    1.74    0.86   1
   6  -2  -6    1.03    0.74   3
  -6  -2   6    0.24    0.74   1
   6   2  -6    0.20    0.67   3
   5   2  -6   28.61    1.54   3
  -5  -2   6   27.13    1.54   1
   5  -2  -6   26.17    1.34   2
  -5   2   6   26.07    1.57   1
   5  -2  -6   25.59    1.42   3
   4  -2  -6    4.33    0.73   3
   4   2  -6    4.58    0.75   3
  -4  -2   6    4.92    0.85   1
  -4   2   6    5.03    0.86   1
   4  -2  -6    4.74    0.70   2
   3   2  -6   55.27    1.79   3
  -3  -2   6   62.36    1.92   1
   3  -2  -6   59.39    1.87   2
  -3   2   6   60.34    1.94   1
  -3  -2   6   59.02    1.78   4
   3   2  -6   57.50    1.70   2
   3  -2  -6   58.33    1.79   3
  -2   2   6   44.09    1.64   1
   2  -2  -6   46.92    1.65   2
  -2  -2   6   49.36    1.61   1
  -2   2   6   48.90    1.65   4
   2   2  -6   49.40    1.62   3
   2   2  -6   48.22    1.58   2
   2  -2  -6   47.58    1.49   3
  -2  -2   6   50.84    1.71   4
   1  -2  -6   90.95    2.47   2
  -1   2   6   91.80    2.34   1
  -1  -2   6   91.84    2.19   1
  -1  -2   6   91.34    2.52   4
   1   2  -6   93.76    2.32   3
   1   2  -6   91.48    2.42   2
  -1   2   6   93.48    2.54   4
   0   2   6    2.71    0.63   1
   0  -2   6    0.24    0.72   4
   0  -2  -6    2.65    0.72   2
   0   2  -6    2.56    0.57   3
   0   2   6    3.00    0.79   4
   0   2  -6    3.97    0.68   2
  -1   2  -6   34.06    1.58   2
   1  -2   6   33.67    1.75   4
  -1  -2  -6   31.79    1.61   2
  -1   2  -6   32.84    1.37   3
   1   2   6   31.71    1.68   4
   2   2   6    2.03    0.89   4
  -2   2  -6    1.02    0.76   2
   2  -2   6    1.44    0.81   4
  -2  -2  -6   -0.08    0.76   2
  -3  -2  -6   15.57    1.48   2
   3  -2   6   14.11    1.44   4
  -3   2  -6   16.05    1.50   2
   3   2   6   15.25    1.50   4
  -7  -3   6    4.22    1.01   1
  -7   3   6    3.50    1.08   1
   7   3  -6    2.66    0.93   3
   7  -3  -6    3.44    0.97   3
  -6   3   6    5.18    1.00   1
   6   3  -6    4.70    0.92   3
   6  -3  -6    5.22    0.91   3
  -6  -3   6    4.74    0.94   1
   5   3  -6   40.86    1.78   3
  -5   3   6   42.53    1.86   1
  -5  -3   6   41.57    1.81   1
   5  -3  -6   40.23    1.66   2
   5  -3  -6   40.86    1.70   3
  -4   3   6   82.34    2.41   1
   4  -3  -6   76.00    2.24   2
  -4  -3   6   83.21    2.39   1
   4   3  -6   78.49    2.32   3
   4  -3  -6   78.89    2.26   3
  -3  -3   6   17.41    1.10   4
   3   3  -6   16.41    1.06   3
   3  -3  -6   16.95    1.09   3
  -3   3   6   16.06    1.20   1
   3  -3  -6   17.45    1.13   2
  -3  -3   6   16.86    1.19   1
  -2  -3   6   37.54    1.44   1
  -2  -3   6   36.12    1.48   4
   2  -3  -6   36.31    1.49   2
   2   3  -6   37.22    1.47   3
   2   3  -6   35.58    1.40   2
  -2   3   6   37.86    1.52   4
   2  -3  -6   38.47    1.31   3
  -2   3   6   36.12    1.51   1
   1   3  -6  349.66    6.28   2
  -1  -3   6  332.68    5.88   1
   1   3  -6  342.35    6.25   3
  -1  -3   6  343.79    6.34   4
  -1   3   6  343.34    6.28   4
  -1   3   6  342.84    6.15   1
   0   3   6   59.46    2.09   4
   0  -3  -6   59.29    2.02   2
   0   3  -6   61.15    1.82   3
   0  -3   6   62.09    2.18   4
   0   3   6   57.85    1.75   1
   0   3  -6   56.98    1.91   2
   1  -3   6   28.60    1.62   4
  -1   3  -6   33.65    1.40   3
   1   3   6   31.27    1.67   4
  -1   3  -6   33.26    1.57   2
  -1  -3  -6   34.93    1.62   2
   2   3   6   40.02    1.97   4
  -2  -3  -6   42.58    1.95   2
   2  -3   6   41.56    1.96   4
  -2   3  -6   42.09    1.92   2
  -3   3  -6    1.65    0.95   2
   3  -3   6    1.96    1.02   4
  -3  -3  -6    0.39    0.94   2
   3   3   6    2.32    1.05   4
  -7  -4   6   26.53    1.72   1
  -7   4   6   24.13    1.70   1
   7   4  -6   26.79    1.72   3
   7  -4  -6   21.13    1.59   3
   6  -4  -6    3.73    0.88   3
   6   4  -6    2.61    0.87   3
  -6   4   6    3.64    0.96   1
   6  -4  -6    3.66    0.86   2
  -6  -4   6    3.61    0.93   1
   5  -4  -6    7.53    0.92   3
   5   4  -6    7.39    0.93   3
  -5   4   6    9.36    1.08   1
   5  -4  -6    9.12    0.95   2
  -5  -4   6    7.40    0.98   1
  -4   4   6   26.04    1.47   1
   4  -4  -6   24.38    1.28   2
   4   4  -6   27.44    1.36   3
  -4  -4   6   26.59    1.48   1
   4  -4  -6   24.62    1.29   3
   3  -4  -6    0.48    0.49   3
   3   4  -6    0.58    0.52   3
  -3   4   6   -0.10    0.61   1
  -3  -4   6    0.39    0.52   4
  -3  -4   6   -0.40    0.58   1
   3  -4  -6    0.72    0.51   2
  -2   4   6  133.78    2.99   4
   2   4  -6  134.04    2.90   2
  -2  -4   6  138.52    2.92   1
  -2  -4   6  128.28    3.03   4
   2  -4  -6  128.34    3.12   2
  -2   4   6  132.90    3.08   1
   2   4  -6  135.24    3.10   3
   1   4  -6  442.47    7.71   3
   1   4  -6  426.45    7.59   2
  -1   4   6  430.09    7.59   4
  -1   4   6  431.58    7.53   1
  -1  -4   6  431.44    7.68   4
   0   4  -6    7.37    0.76   3
   0  -4   6    6.10    0.91   4
   0  -4  -6    7.56    0.90   2
   0   4   6    7.25    0.77   1
   0   4  -6    7.68    0.82   2
   0   4   6    8.03    0.99   4
  -1  -4  -6   19.93    1.33   2
  -1   4  -6   21.93    1.22   3
   1   4   6   21.30    1.48   4
  -1   4  -6   22.12    1.35   2
   1  -4   6   22.05    1.52   4
  -2   4  -6    3.80    0.90   2
   2  -4   6    4.58    0.98   4
  -2  -4  -6    3.61    0.89   2
   2   4   6    5.90    1.07   4
   3  -4   6   -0.81    0.91   4
   3   4   6    0.89    0.96   4
  -3  -4  -6    1.30    0.95   2
  -3   4  -6    1.57    0.95   2
  -7   5   6    0.53    0.90   1
   7  -5  -6    1.12    0.83   3
   7   5  -6    0.41    0.81   3
  -7  -5   6    0.24    0.80   1
   6  -5  -6   21.84    1.42   2
  -6   5   6   22.24    1.53   1
   6  -5  -6   24.70    1.52   3
   6   5  -6   23.75    1.54   3
  -6  -5   6   21.96    1.49   1
   5  -5  -6    1.22    0.68   3
  -5   5   6    0.92    0.74   1
  -5  -5   6   -0.23    0.67   1
   5   5  -6    1.82    0.70   3
   5  -5  -6    1.77    0.67   2
  -4  -5   6   35.26    1.58   1
   4  -5  -6   38.90    1.53   3
   4   5  -6   34.14    1.52   3
  -4   5   6   36.27    1.67   1
   4  -5  -6   33.21    1.49   2
   3  -5  -6   25.88    1.19   3
  -3  -5   6   26.58    1.29   4
   3   5  -6   25.88    1.31   3
  -3   5   6   27.31    1.44   1
  -3  -5   6   25.93    1.34   1
   3  -5  -6   27.71    1.36   2
  -2   5   6   63.19    1.93   4
  -2   5   6   66.49    2.02   1
  -2  -5   6   60.34    1.81   1
   2   5  -6   61.69    1.94   3
   2  -5  -6   59.16    1.99   2
  -2  -5   6   56.83    1.93   4
   1   5  -6    0.54    0.47   2
  -1  -5   6   -0.37    0.62   4
   1   5  -6    0.45    0.47   3
  -1   5   6    0.77    0.58   1
   1  -5  -6    0.11    0.50   2
  -1   5   6    0.89    0.66   4
   0   5  -6    6.12    0.74   3
   0   5   6    5.34    0.74   1
   0  -5   6    5.51    0.89   4
   0   5   6    5.96    0.94   4
   0   5  -6    5.10    0.76   2
   0  -5  -6    5.41    0.80   2
  -1   5  -6   47.81    1.87   2
  -1  -5  -6   50.89    1.96   2
  -1   5  -6   49.98    1.77   3
   1   5   6   47.58    2.01   4
   1  -5   6   49.05    2.03   4
  -2   5  -6    0.19    0.76   2
   2   5   6    0.24    0.87   4
  -2   5  -6   -0.63    0.64   3
  -2  -5  -6    0.60    0.70   2
   2  -5   6    0.09    0.79   4
  -3  -5  -6    1.43    0.95   2
   3   5   6    3.05    1.05   4
   3  -5   6    1.12    0.97   4
  -3   5  -6    1.88    1.03   2
  -7  -6   6    1.07    0.92   1
   7   6  -6    1.63    0.90   3
  -7   6   6   -0.13    0.90   1
   7  -6  -6    1.71    0.89   3
   6   6  -6    0.66    0.80   3
  -6  -6   6    0.63    0.79   1
  -6   6   6    1.55    0.84   1
   6  -6  -6    1.04    0.76   3
   6  -6  -6    1.05    0.78   2
  -5  -6   6    5.76    0.90   1
   5  -6  -6    3.97    0.79   2
   5   6  -6    4.69    0.87   3
  -5   6   6    5.71    0.96   1
   5  -6  -6    5.42    0.85   3
   4  -6  -6    1.82    0.60   2
   4  -6  -6    2.34    0.61   3
  -4  -6   6    2.54    0.73   1
   4   6  -6    2.47    0.66   3
  -4   6   6    2.88    0.80   1
  -4  -6   6    3.23    0.69   4
   3  -6  -6   45.76    1.73   2
  -3  -6   6   44.63    1.62   1
   3  -6  -6   43.93    1.48   3
  -3  -6   6   46.50    1.67   4
   3   6  -6   42.58    1.65   3
  -3   6   6   45.53    1.80   1
  -2   6   6   11.64    0.92   4
   2  -6  -6   13.21    1.01   2
   2   6  -6   13.62    1.04   3
  -2  -6   6   11.23    0.97   4
  -2  -6   6   12.55    0.90   1
  -2   6   6   12.50    1.02   1
  -1   6   6   11.24    0.94   1
  -1  -6   6    9.62    0.96   4
  -1   6   6   10.99    1.02   4
   1   6  -6   10.64    0.84   2
   1   6  -6   10.72    0.89   3
   1  -6  -6   11.23    0.94   2
   0   6  -6    2.65    0.67   2
   0   6   6    3.87    0.88   4
   0  -6   6    2.86    0.79   4
   0   6   6    2.75    0.69   1
   0  -6  -6    2.85    0.69   2
   0   6  -6    3.46    0.65   3
   0   6   6    3.11    0.62   5
   1   6   6   27.86    1.37   1
  -1   6  -6   24.39    1.34   3
   1  -6   6   26.06    1.62   4
   1   6   6   27.91    1.68   4
   1   6   6   27.20    1.21   5
  -1   6  -6   24.90    1.42   2
  -1  -6  -6   27.51    1.49   2
  -2  -6  -6    4.00    0.89   2
  -2   6  -6    5.80    0.88   3
   2  -6   6    6.85    1.10   4
   2   6   6    6.37    1.14   4
  -2   6  -6    6.21    1.03   2
   3  -6   6   10.00    1.31   4
   3   6   6    8.74    1.31   4
  -3   6  -6    9.42    1.29   2
  -3  -6  -6    9.26    1.18   2
  -7  -7   6    0.84    0.91   1
   7   7  -6    0.38    0.87   3
  -7   7   6   -0.73    0.89   1
   7  -7  -6    0.17    0.86   3
   7  -7  -6   -0.17    0.90   2
   6   7  -6   -0.91    0.72   3
  -6  -7   6    0.89    0.82   1
  -6   7   6   -0.53    0.80   1
   6  -7  -6   -0.37    0.70   2
   6  -7  -6    0.08    0.71   3
  -5  -7   6   57.17    2.06   1
   5  -7  -6   55.96    2.11   2
   5   7  -6   54.79    2.11   3
  -5   7   6   60.28    2.19   1
   5  -7  -6   57.47    2.06   3
   4   7  -6   -0.26    0.53   3
  -4   7   6    1.29    0.74   1
   4  -7  -6    0.03    0.54   2
   4  -7  -6    1.02    0.58   3
  -4  -7   6    0.57    0.65   1
  -4  -7   6    0.51    0.60   4
   3  -7  -6   39.94    1.67   2
  -3   7   6   42.84    1.78   1
  -3  -7   6   42.07    1.55   1
   3   7  -6   42.62    1.66   3
  -3  -7   6   39.99    1.61   4
  -2  -7   6   38.18    1.59   4
   2   7  -6   39.55    1.57   3
  -2   7   6   37.85    1.63   1
  -2  -7   6   39.08    1.40   1
   2  -7  -6   40.24    1.64   2
  -1   7   6   -0.03    0.58   1
  -1   7   6    0.93    0.68   4
  -1  -7   6    0.16    0.58   4
   1   7  -6    0.05    0.52   3
   1  -7  -6    1.13    0.55   2
   0  -7   6    1.43    0.70   4
   0   7   6    0.98    0.59   5
   0   7   6    1.42    0.80   4
   0   7  -6   -0.04    0.54   3
   0   7  -6    0.15    0.58   2
   0  -7  -6    0.87    0.60   2
   0   7   6    0.29    0.63   1
  -1   7  -6   15.23    1.19   3
  -1  -7  -6   15.85    1.26   2
   1   7   6   15.55    1.05   5
   1   7   6   18.13    1.23   1
  -1   7  -6   15.92    1.25   2
   1  -7   6   17.70    1.33   4
   1   7   6   16.34    1.33   4
   2  -7   6   12.75    1.27   4
  -2   7  -6   15.18    1.19   3
  -2   7  -6   14.29    1.28   2
   2   7   6   15.42    1.43   4
  -2  -7  -6   11.35    1.16   2
  -3   7  -6    6.08    1.01   3
   3   7   6    3.49    1.15   4
   3  -7   6    6.75    1.19   4
  -3  -7  -6    5.38    1.06   2
  -3   7  -6    3.63    1.05   2
  -7   8   6   -0.21    0.93   1
   7  -8  -6   -0.53    0.81   3
   7  -8  -6    0.48    0.92   2
   7   8  -6    1.24    0.92   3
  -7  -8   6    0.27    0.90   1
  -6   8   6   10.17    1.23   1
   6  -8  -6    8.93    1.06   3
  -6  -8   6    9.58    1.18   1
   6  -8  -6   10.07    1.16   2
   6   8  -6    9.85    1.20   3
  -5   8   6    3.40    0.91   1
   5   8  -6    4.50    0.89   3
  -5  -8   6    3.39    0.83   1
   5  -8  -6    2.43    0.78   3
   5  -8  -6    2.90    0.83   2
   4  -8  -6    0.66    0.57   2
  -4  -8   6   -0.56    0.58   1
   4   8  -6    0.04    0.59   3
  -4  -8   6    0.06    0.60   4
  -4   8   6    0.43    0.73   1
   4  -8  -6    0.42    0.58   3
   3  -8  -6   22.54    1.33   2
  -3   8   6   24.70    1.50   1
  -3  -8   6   24.42    1.33   4
   3   8  -6   20.94    1.27   3
  -3  -8   6   21.85    1.23   1
  -2  -8   6   34.79    1.56   4
  -2  -8   6   37.33    1.40   1
   2   8  -6   36.89    1.55   3
  -2   8   6   39.10    1.67   1
   2  -8  -6   37.04    1.60   2
   1   8  -6    1.22    0.59   3
  -1  -8   6    1.24    0.62   4
  -1   8   6    1.57    0.66   1
   1  -8  -6    1.72    0.64   2
  -1   8   6    2.05    0.75   4
   0   8   6   54.96    2.13   4
   0   8  -6   60.31    2.00   3
   0   8  -6   61.08    1.95   2
   0  -8   6   54.72    2.09   4
   0  -8  -6   56.88    2.02   2
   0   8   6   56.46    1.94   1
   0   8   6   55.30    1.70   5
  -1   8  -6   36.79    1.71   2
   1   8   6   40.92    1.68   1
   1   8   6   40.52    1.49   5
   1   8   6   41.03    1.97   4
  -1  -8  -6   37.08    1.74   2
  -1   8  -6   37.54    1.68   3
   1  -8   6   39.02    1.86   4
  -2   8  -6    9.73    1.04   3
   2   8   6    8.07    1.21   4
  -2  -8  -6    7.64    1.03   2
  -2   8  -6    7.48    1.05   2
   2  -8   6    8.08    1.17   4
   3   8   6    2.32    1.12   4
  -3   8  -6    1.64    0.84   3
  -3  -8  -6    0.83    0.85   2
  -3   8  -6    2.78    1.05   2
   3  -8   6    1.93    1.00   4
   7  -9  -6    0.94    0.95   2
   7   9  -6    1.80    0.93   3
  -7  -9   6    0.23    0.90   1
  -7   9   6   -0.20    0.93   1
   6  -9  -6    5.89    1.06   2
  -6  -9   6    6.35    1.10   1
  -6   9   6    3.60    1.04   1
   6   9  -6    4.73    1.05   3
   6  -9  -6    6.34    0.98   3
  -5  -9   6   11.72    1.16   1
   5   9  -6   10.65    1.12   3
   5  -9  -6   13.99    1.12   3
   5  -9  -6   11.31    1.16   2
  -5   9   6   13.50    1.25   1
   4   9  -6   29.68    1.55   3
  -4  -9   6   30.40    1.50   1
  -4   9   6   31.69    1.70   1
   4  -9  -6   28.67    1.54   2
  -4  -9   6   33.43    1.61   4
  -3  -9   6   46.26    1.79   4
   3   9  -6   43.87    1.78   3
   3  -9  -6   45.16    1.82   2
  -3  -9   6   47.68    1.68   1
  -3   9   6   47.84    1.97   1
   2   9  -6   11.15    0.97   3
   2  -9  -6   10.68    0.98   2
  -2  -9   6   14.21    1.10   4
  -2   9   6   12.21    1.07   1
   1  -9  -6    1.81    0.65   2
  -1   9   6    1.76    0.76   4
  -1   9   6    1.47    0.69   1
  -1   9   6    2.17    0.65   5
  -1  -9   6    1.34    0.67   4
   1   9  -6    2.45    0.66   3
   0  -9   6   45.38    1.89   4
   0  -9  -6   45.35    1.81   2
   0   9   6   45.74    1.54   5
   0   9  -6   45.65    1.78   3
   0   9   6   41.99    1.93   4
   0   9   6   44.07    1.73   1
   1   9   6    0.73    0.64   5
   1  -9   6    0.76    0.75   4
   1   9   6   -0.22    0.81   4
  -1   9  -6    0.15    0.67   2
  -1   9  -6    0.19    0.64   3
   1   9   6    1.29    0.70   1
  -1  -9  -6    0.91    0.71   2
   2   9   6   -0.35    0.89   4
  -2   9  -6    0.54    0.82   2
  -2  -9  -6   -0.15    0.71   2
  -2   9  -6    0.01    0.72   3
   2  -9   6    0.74    0.81   4
   6 -10  -6    0.68    0.84   2
   6  10  -6   -0.01    0.80   3
   6 -10  -6    0.46    0.82   3
  -6  10   6   -0.04    0.86   1
  -6 -10   6    0.21    0.81   1
  -5  10   6    1.74    0.87   1
   5 -10  -6    2.05    0.83   2
   5  10  -6    3.17    0.84   3
  -5 -10   6    2.25    0.82   1
   4  10  -6    7.63    1.00   3
  -4 -10   6    6.70    0.93   4
  -4 -10   6    8.64    0.98   1
   4 -10  -6    8.47    1.00   2
  -4  10   6    6.87    1.04   1
   3 -10  -6   23.04    1.41   2
  -3 -10   6   24.75    1.35   1
  -3 -10   6   27.05    1.55   4
   3  10  -6   25.04    1.43   3
  -3  10   6   25.08    1.60   1
   2  10  -6   23.36    1.33   3
  -2 -10   6   24.87    1.37   4
   2 -10  -6   22.65    1.36   2
  -2  10   6   22.32    1.44   1
  -1  10   6   12.41    1.09   1
  -1  10   6   10.88    0.94   5
  -1  10   6   12.12    1.12   4
  -1 -10   6   11.59    1.08   4
   1 -10  -6   14.87    1.17   2
   1  10  -6   11.30    1.01   3
   0 -10   6    6.11    0.92   4
   0  10   6    6.18    1.00   4
   0  10   6    5.11    0.86   1
   0  10  -6    4.91    0.80   3
   0 -10  -6    5.96    0.86   2
   0  10   6    5.13    0.78   5
   1  10   6    1.39    0.89   4
  -1  10  -6    2.57    0.79   2
  -1  10  -6    2.49    0.76   3
   1 -10   6    3.04    0.85   4
   1  10   6    2.87    0.76   1
   1  10   6    2.02    0.67   5
  -1 -10  -6    2.03    0.74   2
  -2 -10  -6    5.51    0.96   2
  -2  10  -6    5.51    0.98   3
   2  10   6    4.05    1.16   4
  -2  10  -6    6.68    1.09   2
   2 -10   6    7.19    1.12   4
  -6  11   6   14.71    1.45   1
   6 -11  -6   18.21    1.38   3
  -6 -11   6   15.95    1.44   1
   6  11  -6   14.66    1.41   3
   6 -11  -6   17.71    1.53   2
   5 -11  -6   -0.29    0.74   2
  -5 -11   6    0.45    0.75   1
   5  11  -6    0.04    0.75   3
  -5  11   6   -0.80    0.80   1
  -4 -11   6   21.93    1.42   4
  -4 -11   6   19.97    1.35   1
   4 -11  -6   19.26    1.41   2
   4  11  -6   18.51    1.36   3
  -4  11   6   20.37    1.49   1
  -3  11   6   20.99    1.53   1
  -3 -11   6   19.94    1.28   1
  -3 -11   6   19.84    1.44   4
   3  11  -6   16.58    1.29   3
   3 -11  -6   15.98    1.27   2
  -2 -11   6    3.99    0.81   4
  -2  11   6    2.12    0.80   1
   2  11  -6    3.74    0.77   3
   2 -11  -6    2.77    0.75   2
  -1  11   6    0.18    0.67   1
  -1  11   6    0.79    0.61   5
   1  11  -6    0.12    0.59   3
   1 -11  -6    0.30    0.59   2
  -1  11   6    1.08    0.76   4
  -1 -11   6    0.39    0.62   4
   0  11   6    8.35    1.10   4
   0  11  -6    6.79    0.92   3
   0  11   6    7.83    0.97   1
   0  11   6    7.39    0.88   5
   0 -11  -6    7.45    0.94   2
   0 -11   6    6.83    1.00   4
   1  11   6    0.38    0.86   4
  -1  11  -6   -0.71    0.65   3
  -1 -11  -6    0.25    0.64   2
   1 -11   6    0.13    0.81   4
   1  11   6    0.54    0.66   5
   1  11   6    1.95    0.72   1
  -2  11  -6   44.94    2.09   2
  -2 -11  -6   42.77    1.98   2
   2  11   6   46.86    2.33   4
  -2  11  -6   47.84    2.11   3
   2 -11   6   44.54    2.13   4
  -6  12   6    2.46    1.03   1
  -6 -12   6    4.09    1.03   1
   6  12  -6    3.66    1.00   3
   6 -12  -6    2.68    1.07   2
  -5 -12   6   54.23    2.13   1
   5 -12  -6   51.51    2.24   2
   5  12  -6   45.22    2.09   3
  -4 -12   6    6.17    0.95   4
   4 -12  -6    4.65    0.94   2
  -4  12   6    4.67    1.05   1
  -4 -12   6    6.66    0.94   1
   4  12  -6    5.87    0.95   3
  -3 -12   6   71.57    2.15   1
  -3  12   6   67.38    2.45   1
   3 -12  -6   64.03    2.39   2
   3  12  -6   71.07    2.40   3
  -3 -12   6   70.84    2.43   4
  -2 -12   6  100.40    2.92   4
   2  12  -6  100.60    2.88   3
   2 -12  -6   97.69    2.91   2
  -2  12   6  102.35    2.93   1
  -1  12   6    4.04    0.77   5
   1 -12  -6    3.47    0.81   2
   1  12  -6    4.81    0.85   3
  -1  12   6    3.39    0.86   1
  -1 -12   6    4.73    0.86   4
   0  12   6   25.72    1.35   5
   0  12   6   28.15    1.53   1
   0 -12  -6   26.43    1.49   2
   0 -12   6   23.97    1.53   4
   0  12  -6   28.37    1.56   3
   0  12   6   26.00    1.66   4
  -1 -12  -6    1.50    0.72   2
   1  12   6    0.34    0.94   4
   1 -12   6    0.94    0.80   4
  -1  12  -6    1.35    0.73   3
   2 -12   6    2.62    1.00   4
   2  12   6    1.19    1.08   4
  -2 -12  -6    2.08    0.83   2
  -2  12  -6    2.85    0.89   3
  -6 -13   6   13.57    1.39   1
  -6  13   6   11.17    1.37   1
   6  13  -6   11.68    1.34   3
   6 -13  -6   13.18    1.46   2
   5 -13  -6   44.53    2.16   2
   5  13  -6   42.85    2.05   3
  -5 -13   6   47.67    2.06   1
  -5  13   6   43.32    2.11   1
  -4  13   6   10.44    1.25   1
   4 -13  -6   12.05    1.25   2
  -4 -13   6    9.22    1.05   1
   4  13  -6   10.28    1.13   3
  -4 -13   6    9.59    1.12   4
   3  13  -6   16.68    1.35   3
   3 -13  -6   16.55    1.34   2
  -3 -13   6   19.06    1.45   4
  -3  13   6   17.33    1.42   1
  -2 -13   6  164.46    4.08   4
  -2  13   6  168.18    4.04   1
   2 -13  -6  164.71    4.09   2
  -1  13   6    2.24    0.82   1
   1 -13  -6    1.53    0.75   2
   1  13  -6    3.49    0.81   3
  -1  13   6    0.96    0.73   5
  -1 -13   6    0.58    0.74   4
   0 -13  -6    3.50    0.86   2
   0  13  -6    4.08    0.88   3
   0  13   6    4.00    0.99   4
   0  13   6    4.38    0.90   1
   0 -13   6    5.30    0.95   4
   0  13   6    3.67    0.83   5
  -1 -13  -6    1.75    0.78   2
   1  13   6    0.58    0.95   4
   1 -13   6    1.36    0.86   4
  -1  13  -6    1.56    0.81   3
  -1 -13  -6    1.34    0.89   1
  -2 -13  -6    3.99    0.95   2
  -2  13  -6    1.91    0.92   3
   2  13   6    1.76    1.18   4
   5  14  -6    2.59    0.91   3
  -5  14   6    0.15    0.89   1
   5 -14  -6    0.31    0.88   2
  -5 -14   6    1.64    0.90   4
  -5 -14   6    1.76    0.87   1
  -4  14   6   43.97    2.18   1
   4  14  -6   43.76    2.02   3
  -4 -14   6   42.31    2.00   4
  -4 -14   6   43.41    1.92   1
   4 -14  -6   43.11    2.09   2
  -3 -14   6    0.50    0.76   4
   3 -14  -6    0.43    0.77   2
   3  14  -6    0.17    0.71   3
  -3  14   6    0.10    0.83   1
  -2 -14   6    6.72    1.08   4
   2 -14  -6    5.85    1.00   2
  -2  14   6    7.59    1.12   1
   2  14  -6    5.51    0.95   3
  -1  14   6   41.64    1.91   1
   1 -14  -6   38.19    1.85   2
  -1  14   6   41.88    1.71   5
  -1 -14   6   39.23    1.94   4
   1  14  -6   39.33    1.86   3
   0  14   6    5.32    1.07   4
   0  14   6    5.72    0.93   5
   0 -14  -6    5.71    0.95   2
   0 -14   6    4.94    1.02   4
   0  14  -6    3.63    0.91   3
   0  14   6    5.60    0.98   1
  -1  14  -6   43.05    2.07   3
   1  14   6   41.85    2.20   4
  -1 -14  -6   41.88    2.04   1
   1 -14   6   45.66    2.16   4
  -1 -14  -6   40.56    1.95   2
   5 -15  -6    5.89    1.18   2
  -5 -15   6    8.48    1.15   1
   5  15  -6    4.93    1.08   3
  -5  15   6    4.99    1.18   1
  -5 -15   6    8.37    1.20   4
  -4 -15   6    0.67    0.80   1
   4  15  -6    1.11    0.81   3
  -4  15   6    0.01    0.93   1
  -4 -15   6    1.05    0.83   4
   4 -15  -6    1.79    0.85   2
   3 -15  -6   19.39    1.53   2
  -3 -15   6   18.62    1.48   4
   3  15  -6   18.24    1.45   3
  -3  15   6   22.09    1.61   1
  -2 -15   6   17.54    1.43   4
  -2  15   6   13.19    1.34   1
   2  15  -6   15.69    1.31   3
   2 -15  -6   15.17    1.38   2
  -2  15   6   13.39    1.22   5
  -1  15   6    0.94    0.84   1
  -1 -15   6    1.49    0.83   4
  -1  15   6    1.04    0.77   5
   1 -15  -6    0.35    0.76   2
   1  15  -6   -0.10    0.71   3
   0 -15  -6   29.69    1.70   2
   0  15  -6   28.68    1.74   3
   0  15   6   27.84    1.81   4
   0  15   6   30.83    1.74   1
   0  15   6   27.59    1.52   5
   0 -15   6   31.14    1.83   4
   1  15   6  141.35    4.04   4
  -1  15  -6  144.75    3.99   3
   1 -15   6  143.31    4.02   4
  -1 -15  -6  140.47    3.91   1
  -1 -15  -6  140.33    3.85   2
   4 -16  -6    2.66    0.98   2
   4  16  -6    3.13    0.94   3
  -4  16   6    1.30    1.02   1
  -4 -16   6    3.39    0.98   4
  -3  16   6   18.99    1.58   1
  -3 -16   6   17.21    1.49   4
   3  16  -6   14.38    1.37   3
   3 -16  -6   18.22    1.52   2
  -2  16   6   87.91    2.90   1
  -2 -16   6   86.19    2.92   4
   2 -16  -6   84.99    2.92   2
  -2  16   6   84.12    2.55   5
   2  16  -6   81.21    2.79   3
  -1 -16   6    7.38    1.16   4
  -1  16   6    6.70    1.12   1
   1  16  -6    5.85    1.04   3
   1 -16  -6    5.83    1.06   2
  -1  16   6    8.39    1.06   5
   0 -16  -6   52.47    2.27   2
   0 -16   6   55.19    2.42   4
   0  16   6   51.78    2.33   4
   0  16  -6   54.04    2.34   3
   0  16   6   52.28    2.24   1
   0  16   6   50.38    2.02   5
   4  17  -6    0.35    0.85   3
  -4 -17   6    1.13    0.99   4
   4 -17  -6    1.50    0.95   2
  -4  17   6    1.27    1.05   1
   3 -17  -6   -0.90    0.84   2
  -3  17   6   -1.01    0.86   1
   3  17  -6   -0.23    0.77   3
  -3 -17   6   -1.09    0.81   4
  -2  17   6    4.37    1.13   1
  -2 -17   6    4.79    1.06   4
   2  17  -6    3.59    0.99   3
  -2  17   6    2.37    0.94   5
   2 -17  -6    3.67    1.05   2
   1  17  -6  148.81    4.02   3
  -1  17   6  148.67    3.54   5
  -1 -17   6  142.94    4.03   4
   1 -17  -6  144.98    3.99   2
  -1  17   6  142.06    3.95   1
   0  17   6   13.69    1.38   1
   0  17   6   13.66    1.30   5
   0  17  -6   10.85    1.31   3
   0 -17   6   11.33    1.43   4
   0 -17  -6   13.83    1.42   2
  -3 -18   6   12.39    1.42   4
   3 -18  -6   11.32    1.36   2
   3  18  -6   10.76    1.30   3
  -3  18   6   13.03    1.51   1
  -2 -18   6    3.64    1.08   4
   2  18  -6    3.73    1.04   3
  -2  18   6    4.19    1.19   1
  -2  18   6    5.41    1.10   5
   2 -18  -6    5.09    1.13   2
  -1  18   6    0.89    0.92   5
  -1  18   6    2.54    1.02   1
   1  18  -6   -0.83    0.81   3
   1 -18  -6    0.99    0.97   2
  -1 -18   6    0.91    0.94   4
   7   0  -7    4.50    1.05   3
  -7   0   7    2.41    1.03   1
   6   0  -7   -0.07    0.73   3
  -6   0   7    0.32    0.86   1
  -5   0   7    6.35    1.03   1
   5   0  -7    6.08    0.91   3
  -4   0   7    0.46    0.71   1
   4   0  -7    0.01    0.58   3
   3   0  -7   57.37    1.85   3
  -3   0   7   53.36    1.91   1
   3   0  -7   54.84    1.85   2
  -2   0   7    0.46    0.64   4
  -2   0   7   -0.15    0.62   1
   2   0  -7   -0.16    0.52   2
   2   0  -7   -0.26    0.49   3
  -1   0   7  101.73    2.84   4
   1   0  -7   97.01    2.75   2
   0   0  -7    0.29    0.66   2
   0   0   7    0.70    0.82   4
   1   0   7    5.74    1.08   4
  -1   0  -7    5.25    0.94   2
   2   0   7    0.48    0.92   4
  -2   0  -7    0.34    0.85   2
   7   1  -7    0.60    0.91   3
  -7   1   7    0.47    1.01   1
  -7  -1   7   -0.49    0.90   1
   7  -1  -7    1.25    0.94   3
   6   1  -7   -0.91    0.73   3
   6  -1  -7    0.61    0.75   3
  -6   1   7    0.09    0.87   1
  -6  -1   7   -0.26    0.84   1
   5   1  -7    6.02    0.93   3
   5  -1  -7    7.07    0.94   3
  -5   1   7    6.32    1.03   1
  -5  -1   7    6.13    1.01   1
   4  -1  -7    2.35    0.70   3
   4  -1  -7    3.11    0.68   2
  -4  -1   7    2.19    0.82   1
   4   1  -7    1.86    0.66   3
  -4   1   7    1.96    0.81   1
  -3   1   7   13.25    1.08   1
   3  -1  -7   11.37    0.93   3
   3   1  -7   11.93    0.95   3
   3  -1  -7   13.13    1.00   2
   3   1  -7   12.21    0.95   2
  -3  -1   7   12.04    1.05   1
  -2  -1   7   35.60    1.56   1
  -2   1   7   37.97    1.59   1
   2   1  -7   37.49    1.49   3
   2   1  -7   41.54    1.63   2
  -2   1   7   41.60    1.68   4
  -2  -1   7   38.27    1.69   4
   2  -1  -7   39.48    1.65   2
  -1   1   7  114.98    3.06   4
   1   1  -7  115.57    3.00   2
  -1  -1   7  118.60    3.11   4
   1  -1  -7  114.83    3.03   2
  -1   1   7  117.35    2.82   1
   0  -1   7   42.52    1.93   4
   0   1  -7   40.53    1.81   2
   0   1   7   42.06    2.02   4
   0  -1  -7   43.52    1.86   2
   1  -1   7   44.43    2.07   4
  -1   1  -7   42.77    1.95   2
   1   1   7   44.88    2.16   4
  -1  -1  -7   45.33    1.98   2
   2   1   7    2.62    1.07   4
  -2   1  -7    4.44    1.03   2
   2  -1   7    5.01    1.11   4
  -2  -1  -7    3.09    1.03   2
  -7   2   7    1.34    1.08   1
   7   2  -7    1.84    0.96   3
   7  -2  -7    1.79    0.93   3
  -7  -2   7    2.69    1.05   1
   6   2  -7    6.77    1.06   3
   6  -2  -7    6.62    1.01   3
  -6   2   7    4.39    1.07   1
  -6  -2   7    6.47    1.10   1
   5   2  -7    0.96    0.70   3
  -5  -2   7   -0.14    0.79   1
   5  -2  -7    0.60    0.66   3
  -5   2   7    0.42    0.77   1
   4   2  -7   48.78    1.89   3
  -4   2   7   50.02    1.98   1
   4  -2  -7   54.89    1.91   3
   4  -2  -7   52.90    1.89   2
  -4  -2   7   55.22    2.02   1
  -3  -2   7    5.48    0.77   4
   3  -2  -7    3.98    0.71   3
  -3  -2   7    4.27    0.85   1
   3   2  -7    3.49    0.69   3
   3  -2  -7    4.20    0.73   2
  -3   2   7    5.38    0.85   1
  -2   2   7    9.11    0.96   1
  -2   2   7   10.12    0.96   4
  -2  -2   7    9.56    0.93   1
   2  -2  -7    8.03    0.90   2
   2   2  -7    9.09    0.86   2
   2   2  -7    9.64    0.88   3
  -2  -2   7    9.38    1.00   4
   1   2  -7    9.00    0.96   2
  -1   2   7   10.72    1.09   4
   1   2  -7   10.19    0.92   3
   1  -2  -7    7.79    0.97   2
  -1  -2   7    9.12    1.09   4
  -1   2   7    9.30    0.95   1
   0   2   7   20.68    1.60   4
   0  -2   7   15.80    1.36   4
   0   2  -7   17.37    1.34   2
   0  -2  -7   17.75    1.34   2
  -1  -2  -7   27.62    1.62   2
   1  -2   7   28.32    1.72   4
  -1   2  -7   30.22    1.65   2
   1   2   7   24.69    1.70   4
   2  -2   7    7.94    1.22   4
   2   2   7    7.26    1.25   4
  -2   2  -7    7.28    1.14   2
  -2  -2  -7    6.04    1.07   2
   7  -3  -7    5.60    1.11   3
   7   3  -7    6.50    1.21   3
  -7   3   7    8.39    1.30   1
  -7  -3   7    6.42    1.21   1
  -6   3   7    0.37    0.89   1
   6   3  -7   -0.40    0.74   3
   6  -3  -7    0.50    0.78   3
  -6  -3   7    3.18    0.96   1
   5  -3  -7    8.02    0.97   3
  -5   3   7    7.31    1.09   1
  -5  -3   7    7.73    1.07   1
   5   3  -7    6.92    0.98   3
   5  -3  -7    7.64    0.94   2
  -4   3   7   55.18    2.04   1
  -4  -3   7   54.23    2.02   1
   4  -3  -7   51.43    1.91   2
   4  -3  -7   52.52    1.88   3
   4   3  -7   52.00    1.94   3
   3   3  -7    0.38    0.54   3
  -3   3   7    0.38    0.68   1
   3  -3  -7   -0.17    0.53   2
  -3  -3   7    0.38    0.65   1
  -3  -3   7   -0.53    0.55   4
  -2  -3   7   15.04    1.12   4
   2  -3  -7   15.34    1.12   2
   2   3  -7   16.00    1.10   3
   2   3  -7   17.03    1.18   2
  -2   3   7   16.20    1.25   4
  -2   3   7   15.92    1.13   1
  -2  -3   7   13.99    1.05   1
  -1   3   7   21.29    1.50   4
   1  -3  -7   19.51    1.39   2
  -1   3   7   21.96    1.36   1
   1   3  -7   20.21    1.31   2
  -1  -3   7   17.96    1.32   4
   1   3  -7   21.01    1.27   3
   0   3  -7  159.89    3.86   2
   0  -3  -7  161.46    3.97   2
   0  -3   7  169.69    4.06   4
   0   3   7  175.93    4.06   4
   1  -3   7    0.74    0.84   4
  -1   3  -7    2.28    0.83   2
   1   3   7    0.91    0.88   4
  -1  -3  -7    2.17    0.77   2
  -2  -3  -7    2.81    0.97   2
  -2   3  -7    2.03    1.00   2
   2   3   7    2.24    1.09   4
   2  -3   7    2.73    1.02   4
   7   4  -7    2.64    1.02   3
  -7   4   7    0.80    1.01   1
  -7  -4   7    0.69    0.95   1
   7  -4  -7    0.95    0.89   3
  -6   4   7   39.46    2.02   1
   6  -4  -7   43.39    2.00   3
  -6  -4   7   41.50    2.02   1
   6   4  -7   40.81    2.02   3
  -5   4   7    5.51    1.04   1
   5   4  -7    5.75    0.93   3
  -5  -4   7    7.60    1.06   1
   5  -4  -7    8.04    0.98   3
   5  -4  -7    5.81    0.88   2
  -4  -4   7    6.21    0.96   1
  -4   4   7    3.94    0.88   1
   4  -4  -7    6.10    0.85   2
   4   4  -7    5.56    0.85   3
   4  -4  -7    4.14    0.76   3
   3  -4  -7   54.13    1.99   2
  -3  -4   7   55.00    1.91   4
  -3  -4   7   62.12    2.01   1
  -3   4   7   52.76    1.96   1
   3   4  -7   51.96    1.86   3
  -2  -4   7   21.77    1.38   4
  -2   4   7   20.12    1.31   1
   2   4  -7   22.94    1.29   3
  -2   4   7   24.71    1.46   4
   2  -4  -7   22.21    1.39   2
  -1  -4   7   32.14    1.76   4
   1  -4  -7   36.01    1.68   2
  -1   4   7   33.19    1.69   4
   1   4  -7   28.91    1.51   2
  -1   4   7   32.60    1.57   1
   1   4  -7   33.70    1.51   3
   0   4  -7   16.37    1.19   3
   0   4   7   14.80    1.27   4
   0   4  -7   14.75    1.17   2
   0  -4  -7   16.59    1.28   2
   0  -4   7   15.18    1.36   4
  -1  -4  -7   53.80    2.17   2
   1  -4   7   51.47    2.21   4
  -1   4  -7   51.44    2.10   2
   1   4   7   50.97    2.24   4
   2   4   7    0.36    0.98   4
  -2  -4  -7    0.80    0.83   2
  -2   4  -7    1.04    0.93   2
   2  -4   7   -0.56    0.86   4
  -7   5   7    0.87    1.02   1
   7   5  -7    1.09    0.94   3
   7  -5  -7    1.27    0.99   3
  -7  -5   7    2.09    1.00   1
   6   5  -7   12.07    1.33   3
  -6   5   7   13.24    1.35   1
   6  -5  -7   11.71    1.24   2
  -6  -5   7   15.72    1.38   1
   6  -5  -7   13.06    1.27   3
  -5   5   7    3.83    0.97   1
   5   5  -7    3.09    0.83   3
  -5  -5   7    3.30    0.90   1
   5  -5  -7    4.21    0.85   3
   5  -5  -7    3.81    0.84   2
   4  -5  -7    1.00    0.65   2
   4   5  -7    0.23    0.60   3
  -4  -5   7    1.65    0.75   1
  -4   5   7   -0.64    0.70   1
   3  -5  -7    9.31    0.97   2
  -3  -5   7   10.51    0.99   1
  -3   5   7   10.15    1.04   1
   3   5  -7   10.25    0.96   3
  -3  -5   7   11.30    0.97   4
   2  -5  -7   44.50    1.83   2
   2   5  -7   43.67    1.73   3
  -2  -5   7   43.71    1.79   4
  -2   5   7   44.35    1.78   1
   1   5  -7   15.10    1.15   3
  -1  -5   7   15.07    1.27   4
  -1   5   7   17.97    1.29   4
   1   5  -7   21.21    1.31   2
  -1   5   7   16.57    1.21   1
   1  -5  -7   16.42    1.30   2
   0  -5   7    1.43    0.86   4
   0   5  -7    2.09    0.74   2
   0  -5  -7    1.56    0.76   2
   0   5  -7    1.27    0.66   3
   0   5   7    0.88    0.83   4
  -1  -5  -7    4.70    0.94   2
   1  -5   7    4.66    1.04   4
   1   5   7    4.52    1.06   4
  -1   5  -7    4.34    0.94   2
   2  -5   7   32.99    1.98   4
  -2  -5  -7   30.94    1.86   2
  -2   5  -7   28.72    1.82   2
   2   5   7   32.82    2.03   4
  -6  -6   7    7.76    1.17   1
   6   6  -7    6.84    1.14   3
  -6   6   7    6.41    1.18   1
   6  -6  -7    9.04    1.14   3
   6  -6  -7    6.73    1.07   2
   5   6  -7    0.31    0.73   3
   5  -6  -7    0.52    0.69   2
   5  -6  -7    1.48    0.75   3
  -5  -6   7    0.56    0.76   1
  -5   6   7    0.21    0.84   1
  -4   6   7    6.48    1.01   1
  -4  -6   7    6.88    0.96   1
   4  -6  -7    6.57    0.92   2
   4   6  -7    5.45    0.88   3
  -3   6   7   19.75    1.34   1
   3   6  -7   21.13    1.29   3
  -3  -6   7   21.57    1.34   4
   3  -6  -7   21.17    1.37   2
  -3  -6   7   20.23    1.25   1
  -2   6   7   31.77    1.58   1
  -2  -6   7   29.78    1.55   4
   2   6  -7   32.32    1.53   3
   2  -6  -7   33.55    1.62   2
   1  -6  -7    0.44    0.61   2
  -1  -6   7    0.91    0.74   4
  -1   6   7    1.12    0.74   4
   1   6  -7    0.42    0.58   3
  -1   6   7    0.04    0.64   1
   0   6   7   41.11    1.71   1
   0  -6  -7   44.63    1.94   2
   0   6  -7   43.09    1.76   3
   0   6  -7   43.51    1.80   2
   0  -6   7   43.75    2.07   4
   0   6   7   41.99    1.96   4
  -1   6  -7   35.06    1.78   2
   1  -6   7   38.72    2.01   4
  -1  -6  -7   35.41    1.84   2
   1   6   7   37.75    2.00   4
  -1   6  -7   34.85    1.66   3
   2   6   7   26.75    1.93   4
  -2   6  -7   25.07    1.76   2
   2  -6   7   27.90    1.87   4
  -2  -6  -7   24.82    1.70   2
   6  -7  -7    2.08    0.90   3
  -6   7   7    5.26    1.12   1
   6   7  -7    5.58    1.12   3
   6  -7  -7    4.89    1.05   2
  -6  -7   7    4.49    1.06   1
  -5  -7   7   15.18    1.27   1
  -5   7   7   12.34    1.30   1
   5   7  -7   14.03    1.28   3
   5  -7  -7   13.73    1.26   2
  -4  -7   7   71.33    2.25   1
   4  -7  -7   67.45    2.37   2
  -4   7   7   68.60    2.39   1
   4   7  -7   70.98    2.37   3
   3  -7  -7    2.63    0.74   2
   3   7  -7    2.80    0.73   3
  -3   7   7    2.61    0.85   1
  -3  -7   7    2.29    0.74   4
  -3  -7   7    3.37    0.74   1
  -2  -7   7   -0.43    0.62   4
   2   7  -7   -0.15    0.58   3
   2  -7  -7   -0.79    0.57   2
  -2   7   7   -0.32    0.69   1
   1  -7  -7   15.20    1.19   2
  -1   7   7   14.34    1.15   1
  -1   7   7   13.46    1.19   4
  -1  -7   7   13.58    1.20   4
   1   7  -7   13.96    1.09   3
   0   7  -7    1.41    0.72   3
   0   7   7    0.22    0.72   1
   0   7   7    0.90    0.82   4
   0   7  -7    0.95    0.70   2
   0  -7   7    1.33    0.80   4
   0  -7  -7    1.46    0.74   2
  -1  -7  -7   18.30    1.44   2
   1   7   7   23.84    1.72   4
  -1   7  -7   22.78    1.45   3
   1  -7   7   22.81    1.71   4
  -1   7  -7   19.51    1.47   2
  -2  -7  -7    1.37    0.90   2
   2  -7   7    1.10    1.02   4
  -2   7  -7    0.11    0.94   2
   2   7   7   -0.03    1.04   4
   6  -8  -7    6.97    1.14   2
   6   8  -7    8.33    1.20   3
   6  -8  -7    6.43    1.05   3
  -6  -8   7    6.51    1.13   1
  -6   8   7    6.50    1.22   1
  -5   8   7   14.88    1.40   1
   5  -8  -7   14.34    1.32   2
   5   8  -7   14.51    1.31   3
  -5  -8   7   16.68    1.33   1
   4   8  -7   67.64    2.33   3
  -4   8   7   66.47    2.37   1
  -4  -8   7   67.02    2.22   1
   4  -8  -7   65.26    2.37   2
   3  -8  -7   18.22    1.30   2
  -3   8   7   17.16    1.32   1
  -3  -8   7   15.81    1.19   4
   3   8  -7   15.91    1.21   3
   2  -8  -7    1.63    0.70   2
  -2   8   7    0.95    0.79   1
  -2  -8   7    3.08    0.82   4
   2   8  -7    2.82    0.76   3
  -1   8   7    0.47    0.77   4
  -1   8   7    0.06    0.71   1
   1   8  -7    0.18    0.63   3
  -1  -8   7    0.25    0.68   4
   1  -8  -7    0.11    0.64   2
   0  -8  -7    2.39    0.78   2
   0  -8   7    1.64    0.88   4
   0   8  -7    1.74    0.76   3
   0   8   7    2.56    0.96   4
   0   8   7    1.90    0.82   1
  -1  -8  -7    0.03    0.74   2
  -1   8  -7    1.73    0.82   3
   1   8   7    1.58    0.95   4
   1  -8   7    0.95    0.88   4
  -1   8  -7    1.65    0.84   2
  -6  -9   7    5.02    1.05   1
   6   9  -7    5.03    1.10   3
  -6   9   7    4.77    1.18   1
   6  -9  -7    4.74    1.11   2
  -5  -9   7   73.46    2.47   1
   5   9  -7   68.85    2.56   3
  -5   9   7   74.87    2.63   1
   5  -9  -7   70.36    2.61   2
   4  -9  -7    2.52    0.80   2
  -4  -9   7    2.90    0.81   1
   4   9  -7    2.82    0.84   3
  -4  -9   7    3.20    0.86   4
  -4   9   7    2.18    0.88   1
  -3  -9   7   -0.30    0.65   4
  -3   9   7   -0.87    0.72   1
   3  -9  -7    0.40    0.65   2
   3   9  -7    0.20    0.64   3
  -2  -9   7   16.49    1.27   4
   2  -9  -7   16.68    1.28   2
   2   9  -7   17.43    1.27   3
  -2   9   7   18.68    1.39   1
   1   9  -7    8.68    0.97   3
  -1  -9   7    6.12    0.98   4
   1  -9  -7    9.60    1.06   2
  -1   9   7    8.72    1.11   4
  -1   9   7    8.00    1.03   1
   0  -9   7   22.86    1.60   4
   0   9   7   24.93    1.49   1
   0   9   7   23.20    1.68   4
   0  -9  -7   25.76    1.56   2
   0   9  -7   24.67    1.48   3
  -1   9  -7    3.82    0.88   3
   1   9   7    4.77    1.16   4
  -1  -9  -7    4.72    1.00   2
   1  -9   7    2.85    0.96   4
  -6 -10   7    0.81    0.93   1
  -6  10   7    0.39    0.94   1
   6 -10  -7    1.17    0.94   2
   6  10  -7    0.75    0.86   3
  -5  10   7   10.30    1.28   1
  -5 -10   7   12.23    1.25   1
   5 -10  -7   10.32    1.21   2
   5  10  -7   13.28    1.31   3
  -4 -10   7    1.99    0.81   1
  -4 -10   7    3.33    0.89   4
  -4  10   7    1.75    0.92   1
   4 -10  -7    2.05    0.79   2
   4  10  -7    2.48    0.80   3
   3 -10  -7    2.47    0.81   2
   3  10  -7    1.44    0.75   3
  -3  10   7    0.61    0.87   1
  -3 -10   7    2.19    0.76   4
  -2 -10   7   -0.01    0.69   4
   2  10  -7    0.42    0.65   3
   2 -10  -7    0.65    0.71   2
  -2  10   7   -0.37    0.78   1
   1 -10  -7   55.48    2.18   2
  -1  10   7   55.32    2.13   1
   1  10  -7   54.10    2.07   3
  -1 -10   7   52.40    2.15   4
   0  10   7    0.94    0.83   1
   0  10   7    0.68    0.74   5
   0  10  -7    0.63    0.72   3
   0 -10  -7    1.60    0.78   2
   0  10   7    1.65    0.96   4
   0 -10   7    1.09    0.85   4
  -1  10  -7   16.84    1.38   3
  -1 -10  -7   16.75    1.40   2
   1  10   7   15.83    1.58   4
   1 -10   7   15.97    1.45   4
   5 -11  -7    6.81    1.16   2
   5  11  -7    6.93    1.15   3
  -5  11   7    6.93    1.23   1
  -5 -11   7    8.11    1.12   1
   4  11  -7   19.64    1.48   3
   4 -11  -7   22.12    1.54   2
  -4 -11   7   21.45    1.58   4
  -4 -11   7   22.44    1.44   1
  -4  11   7   20.14    1.57   1
  -3  11   7   -0.04    0.87   1
   3 -11  -7   -0.40    0.68   2
   3  11  -7    0.26    0.70   3
  -3 -11   7    0.74    0.76   4
   2  11  -7   11.32    1.14   3
   2 -11  -7   10.64    1.14   2
  -2  11   7   10.84    1.23   1
  -2 -11   7   13.15    1.22   4
  -1  11   7   20.07    1.49   1
   1 -11  -7   16.85    1.36   2
   1  11  -7   19.02    1.41   3
  -1 -11   7   22.61    1.52   4
   0 -11   7   33.12    1.86   4
   0  11   7   37.11    2.07   4
   0  11   7   32.39    1.55   5
   0  11  -7   33.65    1.76   3
   0 -11  -7   32.32    1.75   2
   0  11   7   33.60    1.79   1
   1  11   7   -2.46    1.00   4
   1 -11   7    0.70    0.90   4
  -1  11  -7    0.75    0.83   3
  -1 -11  -7    0.52    0.79   2
   5 -12  -7   11.13    1.32   2
   5  12  -7   11.37    1.27   3
  -5 -12   7   14.09    1.36   1
  -5  12   7    9.95    1.33   1
   4 -12  -7    4.06    1.00   2
  -4  12   7    2.39    1.06   1
   4  12  -7    3.45    0.96   3
  -4 -12   7    5.36    1.01   4
  -3 -12   7    7.30    1.12   4
   3 -12  -7    6.00    1.02   2
  -3  12   7    6.14    1.16   1
   3  12  -7    6.65    1.06   3
  -2  12   7   11.26    1.28   1
   2 -12  -7   11.21    1.19   2
  -2 -12   7   11.53    1.21   4
   2  12  -7   10.96    1.16   3
  -1  12   7   41.61    1.97   1
  -1 -12   7   44.67    2.05   4
   1  12  -7   44.07    1.98   3
   1 -12  -7   41.04    1.96   2
   0  12   7    6.67    1.14   1
   0  12   7    7.21    1.29   4
   0  12  -7    8.29    1.12   3
   0 -12  -7    8.31    1.12   2
   0  12   7    4.42    0.94   5
   0 -12   7    8.44    1.18   4
  -5  13   7    4.81    1.19   1
   5  13  -7    7.07    1.14   3
   5 -13  -7    6.94    1.22   2
  -5 -13   7    8.06    1.13   1
  -4 -13   7    3.85    0.96   4
   4 -13  -7    3.27    0.96   2
   4  13  -7    2.99    0.97   3
  -4  13   7    2.42    1.01   1
  -3 -13   7   77.47    2.71   4
   3 -13  -7   71.60    2.68   2
  -3  13   7   72.74    2.76   1
   3  13  -7   68.75    2.58   3
   2 -13  -7   37.77    1.93   2
  -2 -13   7   40.55    2.03   4
  -2  13   7   39.50    2.02   1
   2  13  -7   37.56    1.88   3
   1 -13  -7   11.18    1.23   2
  -1 -13   7   10.00    1.20   4
  -1  13   7    9.76    1.25   1
   1  13  -7    9.80    1.17   3
   0 -13   7   24.85    1.71   4
   0  13   7   21.45    1.67   1
   0  13   7   22.06    1.50   5
   0  13   7   18.73    1.71   4
   0  13  -7   21.08    1.61   3
   0 -13  -7   24.59    1.65   2
  -4  14   7    0.07    0.96   1
   4  14  -7    0.47    0.83   3
   4 -14  -7   -0.97    0.84   2
  -4 -14   7   -1.51    0.78   4
   3  14  -7    2.31    0.93   3
  -3  14   7    4.27    1.15   1
   3 -14  -7    4.30    1.05   2
  -3 -14   7    4.69    1.04   4
   2  14  -7    5.22    1.04   3
  -2 -14   7    6.12    1.15   4
  -2  14   7    6.69    1.20   1
   2 -14  -7    6.62    1.12   2
   1 -14  -7   16.46    1.43   2
  -1  14   7   16.37    1.48   1
   1  14  -7   16.37    1.43   3
  -1  14   7   14.73    1.32   5
  -1 -14   7   15.20    1.44   4
  -3  15   7   10.00    1.40   1
   3 -15  -7    8.52    1.21   2
   3  15  -7    7.19    1.15   3
  -3 -15   7    8.85    1.23   4
   2 -15  -7   12.80    1.37   2
   2  15  -7   12.63    1.33   3
  -2  15   7    9.73    1.39   1
  -2 -15   7   10.15    1.37   4
  -1 -15   7   -0.23    0.92   4
  -1  15   7   -0.16    0.96   1
   1  15  -7   -0.78    0.81   3
  -1  15   7   -0.22    0.85   5
   1 -15  -7   -0.63    0.82   2
   6   0  -8   31.31    1.87   3
  -6   0   8   33.76    2.03   1
   5   0  -8   -0.72    0.72   3
  -5   0   8    0.29    0.88   1
  -4   0   8    4.21    0.99   1
   4   0  -8    4.06    0.85   3
  -3   0   8    1.14    0.77   1
   3   0  -8    0.15    0.62   2
   2   0  -8    9.29    1.02   2
  -2   0   8   10.89    1.12   4
   1   0  -8   -0.11    0.73   2
  -1   0   8   -0.76    0.72   4
   0   0  -8   29.47    1.72   2
   0   0   8   29.95    1.84   4
   1   0   8    0.95    0.97   4
  -1   0  -8    0.44    0.83   2
   6   1  -8    3.31    1.04   3
   6  -1  -8    3.60    1.02   3
  -6  -1   8    4.89    1.21   1
  -6   1   8    6.80    1.23   1
   5   1  -8    5.81    1.07   3
  -5  -1   8    8.35    1.20   1
  -5   1   8    8.38    1.20   1
   5  -1  -8    8.43    1.10   3
  -4  -1   8   -0.22    0.82   1
  -4   1   8    0.40    0.83   1
   4   1  -8   -0.87    0.64   3
   4  -1  -8    0.19    0.73   3
   3   1  -8    1.71    0.71   3
   3  -1  -8    1.77    0.69   2
  -3   1   8    1.65    0.80   1
  -3  -1   8    0.79    0.82   1
   2  -1  -8    8.42    1.01   2
   2   1  -8    9.63    1.02   2
  -2   1   8   10.18    1.11   4
  -2  -1   8    9.28    1.09   4
  -1  -1   8   16.77    1.41   4
   1   1  -8   16.60    1.29   2
  -1   1   8   17.70    1.45   4
   1  -1  -8   16.30    1.29   2
   0   1  -8    0.63    0.76   2
   0  -1  -8   -0.15    0.71   2
   0   1   8   -1.64    0.83   4
   0  -1   8    0.39    0.89   4
  -1  -1  -8    1.99    0.95   2
   1  -1   8    0.31    0.98   4
   1   1   8    3.53    1.12   4
  -1   1  -8    2.82    0.97   2
  -6  -2   8    3.28    1.12   1
   6  -2  -8    3.57    1.04   3
   6   2  -8    3.82    1.07   3
  -6   2   8    4.16    1.17   1
   5  -2  -8   50.26    2.07   3
  -5  -2   8   47.66    2.14   1
   5   2  -8   48.09    2.10   3
  -5   2   8   50.22    2.19   1
   4  -2  -8    4.48    0.84   2
  -4  -2   8    5.61    0.99   1
   4   2  -8    4.47    0.89   3
  -4   2   8    5.72    1.02   1
   3  -2  -8    5.59    0.90   2
  -3  -2   8    6.47    1.00   1
   3   2  -8    4.50    0.83   3
  -3   2   8    6.26    0.98   1
  -2   2   8    4.96    0.92   1
   2  -2  -8    3.28    0.82   2
   2   2  -8    5.88    0.86   2
  -2  -2   8    5.64    0.96   4
  -1   2   8    1.39    0.84   4
  -1  -2   8    1.00    0.84   4
   1  -2  -8    1.07    0.76   2
   1   2  -8   -0.38    0.72   2
   0   2   8    5.05    1.16   4
   0   2  -8    4.25    1.00   2
   0  -2   8    7.30    1.18   4
   0  -2  -8    6.14    1.05   2
   1   2   8    1.54    1.08   4
   1  -2   8    3.00    1.09   4
  -1   2  -8    3.41    1.00   2
  -1  -2  -8    2.47    0.96   2
  -6  -3   8   19.12    1.63   1
  -6   3   8   18.25    1.60   1
   6   3  -8   19.03    1.55   3
   6  -3  -8   14.20    1.45   3
   5   3  -8   16.74    1.37   3
  -5   3   8   19.34    1.52   1
  -5  -3   8   18.91    1.51   1
   5  -3  -8   17.25    1.35   3
   4  -3  -8    2.54    0.77   2
   4   3  -8    2.30    0.82   3
  -4  -3   8    3.09    0.93   1
  -4   3   8    1.96    0.90   1
  -3   3   8   54.51    2.06   1
   3  -3  -8   51.87    2.04   2
   3   3  -8   50.35    1.93   3
   2  -3  -8   23.08    1.54   2
   2   3  -8   21.80    1.34   3
  -2   3   8   20.89    1.45   1
  -2  -3   8   24.19    1.57   4
  -1  -3   8    0.00    0.88   4
   1  -3  -8    0.46    0.72   2
   1   3  -8   -0.28    0.71   2
  -1   3   8   -0.47    0.81   4
   0  -3   8   41.26    2.17   4
   0   3   8   40.01    2.20   4
   0  -3  -8   39.29    1.97   2
   0   3  -8   42.81    2.04   2
   1   3   8    2.90    1.18   4
   1  -3   8    5.44    1.16   4
  -1  -3  -8    7.94    1.19   2
  -1   3  -8    3.92    1.07   2
   6   4  -8   34.10    1.99   3
   6  -4  -8   33.88    1.95   3
  -6   4   8   33.94    2.01   1
  -6  -4   8   31.60    1.97   1
   5   4  -8   22.01    1.57   3
  -5  -4   8   20.42    1.61   1
  -5   4   8   21.05    1.65   1
   4   4  -8    3.90    0.91   3
  -4  -4   8    3.16    0.93   1
   4  -4  -8    4.79    0.92   2
  -4   4   8    3.61    0.98   1
  -3   4   8   15.83    1.31   1
   3  -4  -8   15.61    1.25   2
   3   4  -8   15.02    1.22   3
   2   4  -8   31.45    1.59   3
   2  -4  -8   37.29    1.85   2
  -2   4   8   34.54    1.72   1
  -2  -4   8   36.82    1.82   4
  -1   4   8    0.16    0.86   4
   1  -4  -8    0.08    0.70   2
  -1  -4   8    0.83    0.86   4
   1   4  -8   -0.53    0.68   2
   0  -4  -8    6.99    1.09   2
   0   4  -8    6.76    1.06   2
   0   4   8    6.36    1.24   4
   0  -4   8    7.96    1.22   4
   6   5  -8    0.70    0.98   3
  -6   5   8    2.00    1.05   1
  -6  -5   8    1.00    1.03   1
   5   5  -8    0.88    0.88   3
   5  -5  -8    1.12    0.81   2
  -5  -5   8   -0.35    0.86   1
  -5   5   8    0.68    0.93   1
   4   5  -8   45.42    1.95   3
  -4  -5   8   40.88    1.86   1
   4  -5  -8   43.98    1.95   2
  -4   5   8   44.24    2.01   1
  -3  -5   8    7.31    0.97   4
  -3   5   8    7.39    1.09   1
   3  -5  -8    7.31    1.04   2
   3   5  -8    7.90    0.98   3
  -2  -5   8    1.61    0.84   4
  -2   5   8    2.29    0.86   1
   2  -5  -8    2.24    0.81   2
   2   5  -8    0.31    0.67   3
   1  -5  -8    4.18    0.91   2
  -1  -5   8    5.03    1.04   4
  -1   5   8    5.29    1.05   4
   0  -5   8   11.69    1.40   4
   0   5  -8   11.53    1.23   2
   0   5   8   11.44    1.35   4
   0  -5  -8   10.32    1.21   2
  -6   6   8    0.51    1.00   1
   6   6  -8    0.29    0.93   3
  -6  -6   8   -0.07    0.94   1
  -5   6   8    7.80    1.23   1
   5   6  -8    8.82    1.16   3
  -5  -6   8    8.79    1.16   1
   5  -6  -8    8.56    1.14   2
   4  -6  -8   11.20    1.20   2
   4   6  -8   13.15    1.20   3
  -4  -6   8   10.84    1.19   1
  -4   6   8   12.71    1.31   1
  -3  -6   8    5.64    0.94   4
   3   6  -8    5.49    0.94   3
  -3   6   8    4.37    1.00   1
   3  -6  -8    4.97    0.94   2
   2   6  -8   17.28    1.31   3
   2  -6  -8   17.34    1.39   2
  -2  -6   8   17.13    1.35   4
  -2   6   8   16.78    1.33   1
   1   6  -8    6.88    0.98   3
  -1  -6   8    6.26    1.05   4
   1  -6  -8    5.24    1.00   2
  -1   6   8    7.12    1.18   4
   0  -6  -8    7.20    1.07   2
   0  -6   8    9.92    1.27   4
   0   6   8    9.12    1.31   4
   5  -7  -8   10.51    1.23   2
  -5  -7   8   12.84    1.31   1
   5   7  -8   12.84    1.29   3
  -5   7   8    9.38    1.32   1
   4   7  -8    1.06    0.77   3
  -4   7   8   -0.40    0.86   1
  -4  -7   8    1.31    0.81   1
   4  -7  -8   -0.30    0.70   2
   3   7  -8   38.35    1.82   3
   3  -7  -8   40.77    1.93   2
  -3  -7   8   42.29    1.88   4
  -3   7   8   41.72    1.92   1
   2  -7  -8   15.15    1.29   2
  -2   7   8   16.00    1.34   1
   2   7  -8   15.74    1.29   3
  -2  -7   8   16.66    1.35   4
   1  -7  -8    4.33    0.94   2
  -1   7   8    4.12    1.01   1
   1   7  -8    5.11    0.93   3
  -1  -7   8    4.74    1.04   4
   0  -7  -8    6.17    1.03   2
   0  -7   8    6.47    1.15   4
   0   7   8    4.22    1.13   4
  -5  -8   8    1.25    0.90   1
   5   8  -8    1.30    0.89   3
   5  -8  -8    0.60    0.86   2
  -5   8   8    2.29    1.01   1
   4   8  -8    0.50    0.74   3
   4  -8  -8    1.06    0.80   2
  -4   8   8    0.73    0.94   1
   3  -8  -8    2.43    0.87   2
  -3  -8   8    3.23    0.86   4
  -3   8   8    1.99    0.92   1
   3   8  -8    2.02    0.80   3
   2   8  -8    8.14    1.09   3
   2  -8  -8    6.59    1.02   2
  -2   8   8    7.27    1.12   1
  -2  -8   8    6.36    1.02   4
   1  -8  -8   50.19    2.18   2
  -1  -8   8   48.71    2.22   4
   1   8  -8   50.09    2.04   3
  -1   8   8   49.74    2.12   1
   0   8  -8    6.68    1.06   3
   0  -8   8    6.46    1.17   4
   0  -8  -8    8.50    1.14   2
   0   8   8    8.47    1.26   4
  -5  -9   8    4.43    1.03   1
   5  -9  -8    3.26    1.03   2
   5   9  -8    4.13    1.04   3
  -5   9   8    3.44    1.09   1
  -4   9   8   11.17    1.35   1
   4  -9  -8   11.60    1.30   2
   4   9  -8   11.85    1.23   3
  -3  -9   8    0.33    0.77   4
   3   9  -8   -0.53    0.74   3
  -3   9   8   -0.51    0.86   1
   3  -9  -8   -0.35    0.75   2
  -2  -9   8   20.45    1.53   4
   2  -9  -8   22.32    1.56   2
   2   9  -8   23.48    1.57   3
  -2   9   8   25.41    1.69   1
  -1   9   8   22.46    1.64   1
   1  -9  -8   23.94    1.65   2
  -1  -9   8   25.45    1.70   4
   1   9  -8   22.41    1.52   3
  -4  10   8    3.54    1.10   1
   4  10  -8    5.47    1.05   3
   4 -10  -8    3.18    1.00   2
   3 -10  -8    1.27    0.87   2
  -3 -10   8    3.33    0.96   4
   3  10  -8    1.57    0.83   3
  -3  10   8    1.26    0.96   1
   2 -10  -8   23.54    1.64   2
  -2 -10   8   27.24    1.71   4
   2  10  -8   26.44    1.66   3
  -2  10   8   22.89    1.68   1
   1  10  -8    7.07    1.06   3
   1 -10  -8    7.25    1.13   2
  -1 -10   8    5.09    1.12   4
  -1  10   8    6.13    1.16   1
   4 -11  -8   16.81    1.54   2
  -4  11   8   17.07    1.56   1
   4  11  -8   14.92    1.40   3
   3  11  -8    4.53    0.99   3
   3 -11  -8    4.36    1.04   2
  -3 -11   8    4.83    1.04   4
  -3  11   8    2.80    1.06   1
  -2 -11   8    0.36    0.83   4
   2 -11  -8    1.19    0.82   2
   2  11  -8    0.45    0.82   3
  -2  11   8   -0.59    0.94   1
   1 -11  -8   13.56    1.38   2
  -3  12   8    7.51    1.32   1
  -3 -12   8   11.53    1.33   4
   3  12  -8    8.67    1.23   3
   3 -12  -8   10.68    1.30   2
   2  12  -8   -0.08    0.82   3
  -2  12   8   -2.65    0.88   1
   2 -12  -8    0.09    0.84   2
  -2 -12   8    0.83    0.91   4
  -4   0   9   -0.23    0.95   1
   2   0  -9    1.33    0.83   2
  -4   1   9   26.21    1.82   1
  -4  -1   9   29.32    1.85   1
   2  -1  -9   11.47    1.25   2
  -4   2   9    0.15    0.94   1
   3  -2  -9   24.65    1.63   2
  -2  -2   9   16.11    1.41   4
   2  -2  -9   16.12    1.40   2
  -4   3   9    0.35    0.95   1
   4   3  -9    0.82    0.90   3
  -3   3   9    7.56    1.15   1
   3  -3  -9    6.60    1.04   2
  -2  -3   9   28.70    1.85   4
   2  -3  -9   26.98    1.82   2
   4  -4  -9   15.29    1.40   2
   4   4  -9   14.62    1.37   3
  -4   4   9   14.20    1.46   1
  -3   4   9    0.97    0.99   1
   3  -4  -9    3.06    0.91   2
   2  -4  -9    3.06    0.97   2
  -2  -4   9    3.22    0.98   4
   4  -5  -9   14.80    1.39   2
  -4   5   9   15.06    1.46   1
   4   5  -9   12.60    1.30   3
  -3   5   9   -1.10    0.93   1
   3  -5  -9    0.21    0.83   2
   3   5  -9   -0.68    0.76   3
  -2  -5   9   -0.07    0.89   4
   2  -5  -9   -0.11    0.78   2
   3  -6  -9    5.53    1.07   2
  -3   6   9    1.87    1.06   1
   0   0   0    0.00    0.00   0
;
_shelx_hkl_checksum              87284
_olex2_submission_special_instructions 'No special instructions were received'
#END Tags that were not found in dictionaries
loop_
_space_group_symop_operation_xyz
'x, y, z'
'-x+1/2, y+1/2, -z+1/2'
'-x, -y, -z'
'x-1/2, -y-1/2, z-1/2'
loop_
_atom_site_label
_atom_site_type_symbol
_atom_site_fract_x
_atom_site_fract_y
_atom_site_fract_z
_atom_site_U_iso_or_equiv
_atom_site_adp_type
_atom_site_occupancy
_atom_site_site_symmetry_order
_atom_site_calc_flag
_atom_site_refinement_flags_posn
_atom_site_refinement_flags_occupancy
_atom_site_disorder_assembly
_atom_site_disorder_group
C1 C 0.5469(3) 0.40942(7) 0.1888(2) 0.0282(3) Uani 0.646(3) 1 d . P A 1
C2 C 0.4507(4) 0.40214(12) 0.3503(3) 0.0342(4) Uani 0.646(3) 1 d . P A 1
H2 H 0.3155 0.4347 0.3467 0.041 Uiso 0.646(3) 1 calc R P A 1
C3 C 0.5506(8) 0.3475(2) 0.5179(6) 0.0355(9) Uani 0.646(3) 1 d . P A 1
H3 H 0.4900 0.3448 0.6326 0.043 Uiso 0.646(3) 1 calc R P A 1
C4 C 0.7342(10) 0.2982(3) 0.5176(8) 0.0497(14) Uani 0.646(3) 1 d . P A 1
H4 H 0.7897 0.2576 0.6241 0.060 Uiso 0.646(3) 1 calc R P A 1
C5 C 0.8401(10) 0.3058(3) 0.3676(8) 0.0491(13) Uani 0.646(3) 1 d . P A 1
H5 H 0.9805 0.2744 0.3788 0.059 Uiso 0.646(3) 1 calc R P A 1
C6 C 0.7437(4) 0.35955(10) 0.1974(3) 0.0331(4) Uani 0.646(3) 1 d . P A 1
H6 H 0.8111 0.3625 0.0871 0.040 Uiso 0.646(3) 1 calc R P A 1
C7 C 0.4389(2) 0.46725(6) 0.00642(17) 0.0272(3) Uani 0.646(3) 1 d . P A 1
C8 C 0.1824(5) 0.44564(15) -0.1640(4) 0.0278(6) Uani 0.646(3) 1 d . P A 1
H81 H 0.1426 0.4800 -0.2919 0.042 Uiso 0.646(3) 1 calc GR P A 1
H82 H 0.0551 0.4521 -0.1010 0.042 Uiso 0.646(3) 1 calc GR P A 1
H83 H 0.1843 0.3909 -0.2089 0.042 Uiso 0.646(3) 1 calc GR P A 1
C1' C 0.6382(6) 0.42188(16) 0.2277(4) 0.0300(6) Uiso 0.354(3) 1 d . P A 2
C2' C 0.5130(7) 0.4139(3) 0.3689(7) 0.0385(11) Uiso 0.354(3) 1 d . P A 2
H2' H 0.3992 0.4537 0.3720 0.046 Uiso 0.354(3) 1 calc R P A 2
C3' C 0.549(2) 0.3501(6) 0.5039(17) 0.058(3) Uiso 0.354(3) 1 d . P A 2
H3' H 0.4454 0.3428 0.5844 0.070 Uiso 0.354(3) 1 calc R P A 2
C4' C 0.7417(13) 0.2945(4) 0.5247(12) 0.0271(13) Uiso 0.354(3) 1 d . P A 2
H4' H 0.7919 0.2557 0.6364 0.033 Uiso 0.354(3) 1 calc R P A 2
C5' C 0.8528(13) 0.3007(4) 0.3689(10) 0.0252(11) Uiso 0.354(3) 1 d . P A 2
H5' H 0.9568 0.2594 0.3556 0.030 Uiso 0.354(3) 1 calc R P A 2
C6' C 0.8128(7) 0.3659(2) 0.2353(6) 0.0369(9) Uiso 0.354(3) 1 d . P A 2
H6' H 0.9080 0.3722 0.1468 0.044 Uiso 0.354(3) 1 calc R P A 2
C7' C 0.6031(4) 0.49413(13) 0.0890(4) 0.0318(7) Uiso 0.354(3) 1 d . P A 2
C8' C 0.8135(16) 0.5530(5) 0.1649(15) 0.066(3) Uiso 0.354(3) 1 d . P A 2
H81' H 0.7747 0.5966 0.0605 0.099 Uiso 0.354(3) 1 calc GR P A 2
H82' H 0.9697 0.5277 0.1740 0.099 Uiso 0.354(3) 1 calc GR P A 2
H83' H 0.8332 0.5730 0.3097 0.099 Uiso 0.354(3) 1 calc GR P A 2
loop_
_atom_site_aniso_label
_atom_site_aniso_U_11
_atom_site_aniso_U_22
_atom_site_aniso_U_33
_atom_site_aniso_U_23
_atom_site_aniso_U_13
_atom_site_aniso_U_12
C1 0.0260(7) 0.0251(5) 0.0311(6) -0.0002(4) 0.0084(5) -0.0035(5)
C2 0.0357(9) 0.0343(8) 0.0349(7) 0.0038(6) 0.0160(7) 0.0053(7)
C3 0.0420(13) 0.0391(12) 0.0268(9) 0.0094(6) 0.0147(7) 0.0019(5)
C4 0.0526(16) 0.0394(14) 0.0420(13) 0.0138(7) 0.0014(7) -0.0007(7)
C5 0.0457(15) 0.0349(14) 0.0582(16) -0.0011(7) 0.0103(8) 0.0091(8)
C6 0.0330(8) 0.0319(7) 0.0348(7) -0.0020(5) 0.0133(7) -0.0011(6)
C7 0.0264(5) 0.0273(6) 0.0257(5) -0.0004(4) 0.0076(4) -0.0009(4)
C8 0.0213(6) 0.0260(7) 0.0278(7) -0.0007(4) 0.0000(4) -0.0086(4)
loop_
_atom_type_symbol
_atom_type_description
_atom_type_scat_dispersion_real
_atom_type_scat_dispersion_imag
_atom_type_scat_source
C C 0.0033 0.0016 'International Tables Vol C Tables 4.2.6.8 and 6.1.1.4'
H H 0.0000 0.0000 'International Tables Vol C Tables 4.2.6.8 and 6.1.1.4'
loop_
_geom_angle_atom_site_label_1
_geom_angle_atom_site_label_2
_geom_angle_atom_site_label_3
_geom_angle
_geom_angle_site_symmetry_1
C2 C1 C6 118.20(13) .
C2 C1 C7 120.90(12) .
C6 C1 C7 120.88(12) .
C1 C2 H2 119.8 .
C1 C2 C3 120.4(2) .
C3 C2 H2 119.8 .
C2 C3 H3 120.0 .
C4 C3 C2 120.0(3) .
C4 C3 H3 120.0 .
C3 C4 H4 119.5 .
C3 C4 C5 120.9(4) .
C5 C4 H4 119.5 .
C4 C5 H5 119.9 .
C4 C5 C6 120.1(4) .
C6 C5 H5 119.9 .
C1 C6 H6 120.0 .
C5 C6 C1 119.9(2) .
C5 C6 H6 120.0 .
C1 C7 C8 115.07(13) .
C7 C7 C1 122.18(14) 3_665
C7 C7 C8 122.75(15) 3_665
C7 C8 H81 109.5 .
C7 C8 H82 109.5 .
C7 C8 H83 109.5 .
H81 C8 H82 109.5 .
H81 C8 H83 109.5 .
H82 C8 H83 109.5 .
C2' C1' C7' 120.5(3) .
C6' C1' C2' 118.1(3) .
C6' C1' C7' 121.1(3) .
C1' C2' H2' 119.1 .
C3' C2' C1' 121.8(5) .
C3' C2' H2' 119.1 .
C2' C3' H3' 119.7 .
C2' C3' C4' 120.6(8) .
C4' C3' H3' 119.7 .
C3' C4' H4' 122.1 .
C5' C4' C3' 115.8(7) .
C5' C4' H4' 122.1 .
C4' C5' H5' 119.5 .
C6' C5' C4' 121.0(6) .
C6' C5' H5' 119.5 .
C1' C6' C5' 121.5(4) .
C1' C6' H6' 119.3 .
C5' C6' H6' 119.3 .
C1' C7' C8' 116.1(4) .
C7' C7' C1' 121.9(3) 3_665
C7' C7' C8' 122.0(4) 3_665
C7' C8' H81' 109.5 .
C7' C8' H82' 109.5 .
C7' C8' H83' 109.5 .
H81' C8' H82' 109.5 .
H81' C8' H83' 109.5 .
H82' C8' H83' 109.5 .
loop_
_geom_bond_atom_site_label_1
_geom_bond_atom_site_label_2
_geom_bond_distance
_geom_bond_site_symmetry_2
C1 C2 1.385(2) .
C1 C6 1.402(2) .
C1 C7 1.4949(16) .
C2 H2 0.9500 .
C2 C3 1.392(3) .
C3 H3 0.9500 .
C3 C4 1.353(5) .
C4 H4 0.9500 .
C4 C5 1.356(5) .
C5 H5 0.9500 .
C5 C6 1.390(5) .
C6 H6 0.9500 .
C7 C7 1.340(2) 3_665
C7 C8 1.522(2) .
C8 H81 0.9800 .
C8 H82 0.9800 .
C8 H83 0.9800 .
C1' C2' 1.389(5) .
C1' C6' 1.374(4) .
C1' C7' 1.501(3) .
C2' H2' 0.9500 .
C2' C3' 1.370(9) .
C3' H3' 0.9500 .
C3' C4' 1.425(10) .
C4' H4' 0.9500 .
C4' C5' 1.410(6) .
C5' H5' 0.9500 .
C5' C6' 1.382(7) .
C6' H6' 0.9500 .
C7' C7' 1.329(4) 3_665
C7' C8' 1.505(8) .
C8' H81' 0.9800 .
C8' H82' 0.9800 .
C8' H83' 0.9800 .
loop_
_geom_torsion_atom_site_label_1
_geom_torsion_atom_site_label_2
_geom_torsion_atom_site_label_3
_geom_torsion_atom_site_label_4
_geom_torsion
_geom_torsion_site_symmetry_4
C1 C2 C3 C4 -3.5(6) .
C2 C1 C6 C5 -1.3(4) .
C2 C1 C7 C7 108.17(19) 3_665
C2 C1 C7 C8 -72.6(2) .
C2 C3 C4 C5 6.3(8) .
C3 C4 C5 C6 -6.6(8) .
C4 C5 C6 C1 4.1(6) .
C6 C1 C2 C3 1.0(4) .
C6 C1 C7 C7 -73.7(2) 3_665
C6 C1 C7 C8 105.6(2) .
C7 C1 C2 C3 179.2(3) .
C7 C1 C6 C5 -179.5(3) .
C1' C2' C3' C4' 8.2(14) .
C2' C1' C6' C5' 4.0(6) .
C2' C1' C7' C7' -75.8(4) 3_665
C2' C1' C7' C8' 103.4(5) .
C2' C3' C4' C5' -12.2(14) .
C3' C4' C5' C6' 12.6(11) .
C4' C5' C6' C1' -8.9(9) .
C6' C1' C2' C3' -3.7(8) .
C6' C1' C7' C7' 110.9(4) 3_665
C6' C1' C7' C8' -69.9(5) .
C7' C1' C2' C3' -177.3(7) .
C7' C1' C6' C5' 177.5(4) .
