#------------------------------------------------------------------------------
#$Date: 2016-03-24 14:28:49 +0200 (Thu, 24 Mar 2016) $
#$Revision: 179665 $
#$URL: svn://www.crystallography.net/cod/cif/4/51/18/4511873.cif $
#------------------------------------------------------------------------------
#
# This file is available in the Crystallography Open Database (COD),
# http://www.crystallography.net/
#
# All data on this site have been placed in the public domain by the
# contributors.
#
data_4511873
loop_
_publ_author_name
'Harada, Jun'
'Ogawa, Keiichiro'
_publ_section_title
;
 What Molecules Are Likely or Unlikely To Undergo Pedal Motions in
 Crystals?
;
_journal_issue                   10
_journal_name_full               'Crystal Growth &amp; Design'
_journal_page_first              5182
_journal_paper_doi               10.1021/cg500962y
_journal_volume                  14
_journal_year                    2014
_chemical_formula_moiety         'C18 H20'
_chemical_formula_sum            'C18 H20'
_chemical_formula_weight         236.34
_chemical_name_systematic
;
 ?
;
_space_group_crystal_system      monoclinic
_space_group_IT_number           14
_space_group_name_Hall           '-P 2ybc'
_space_group_name_H-M_alt        'P 1 21/c 1'
_symmetry_space_group_name_Hall  '-P 2ybc'
_symmetry_space_group_name_H-M   'P 1 21/c 1'
_atom_sites_solution_hydrogens   geom
_atom_sites_solution_primary     direct
_audit_creation_date             2014-06-16
_audit_creation_method
;
Olex2 1.2
(compiled 2014.05.21 svn.r2940 for OlexSys, GUI svn.r4846)
;
_cell_angle_alpha                90
_cell_angle_beta                 91.243(1)
_cell_angle_gamma                90
_cell_formula_units_Z            2
_cell_length_a                   5.4415(3)
_cell_length_b                   6.3079(3)
_cell_length_c                   19.2220(9)
_cell_measurement_reflns_used    4850
_cell_measurement_temperature    90
_cell_measurement_theta_max      30.008
_cell_measurement_theta_min      3.400
_cell_volume                     659.63(6)
_computing_cell_refinement       'SAINT v6.28A (Bruker, 2002)'
_computing_data_collection       'SMART v5.054 (Bruker, 1998)'
_computing_data_reduction        'SAINT v6.28A (Bruker, 2002)'
_computing_molecular_graphics    'XP (Bruker, 1998)'
_computing_publication_material  'Olex2 (Dolomanov et al., 2009)'
_computing_structure_refinement  'ShelXL (Sheldrick, 2008)'
_computing_structure_solution    'ShelXS (Sheldrick, 2008)'
_diffrn_ambient_temperature      90
_diffrn_detector_area_resol_mean 8.192
_diffrn_measured_fraction_theta_full 1.000
_diffrn_measured_fraction_theta_max 0.999
_diffrn_measurement_device_type  'Bruker SMART 1000'
_diffrn_measurement_method       \w_scan
_diffrn_radiation_type           MoK\a
_diffrn_radiation_wavelength     0.71073
_diffrn_reflns_av_R_equivalents  0.0183
_diffrn_reflns_av_unetI/netI     0.0135
_diffrn_reflns_Laue_measured_fraction_full 1.000
_diffrn_reflns_Laue_measured_fraction_max 0.999
_diffrn_reflns_limit_h_max       7
_diffrn_reflns_limit_h_min       -7
_diffrn_reflns_limit_k_max       8
_diffrn_reflns_limit_k_min       -8
_diffrn_reflns_limit_l_max       26
_diffrn_reflns_limit_l_min       -26
_diffrn_reflns_number            9944
_diffrn_reflns_point_group_measured_fraction_full 1.000
_diffrn_reflns_point_group_measured_fraction_max 0.999
_diffrn_reflns_theta_full        25.242
_diffrn_reflns_theta_max         30.008
_diffrn_reflns_theta_min         2.119
_diffrn_source                   'sealed X-ray tube'
_exptl_absorpt_coefficient_mu    0.067
_exptl_absorpt_correction_T_max  1
_exptl_absorpt_correction_T_min  0.947374
_exptl_absorpt_correction_type   multi-scan
_exptl_absorpt_process_details
'SADABS v.2.03 (Bruker,200?) was used for absorption correction. R(int) was 0.0226 before and 0.0170 after correction. The Ratio of minimum to maximum transmission is 0.9474. The \l/2 correction factor is 0.0015.'
_exptl_crystal_colour            colourless
_exptl_crystal_colour_primary    colourless
_exptl_crystal_density_diffrn    1.190
_exptl_crystal_description       block
_exptl_crystal_F_000             256
_exptl_crystal_size_max          0.25
_exptl_crystal_size_mid          0.15
_exptl_crystal_size_min          0.1
_refine_diff_density_max         0.474
_refine_diff_density_min         -0.139
_refine_diff_density_rms         0.049
_refine_ls_extinction_method     none
_refine_ls_goodness_of_fit_ref   1.043
_refine_ls_hydrogen_treatment    constr
_refine_ls_matrix_type           full
_refine_ls_number_parameters     84
_refine_ls_number_reflns         1929
_refine_ls_number_restraints     0
_refine_ls_restrained_S_all      1.043
_refine_ls_R_factor_all          0.0447
_refine_ls_R_factor_gt           0.0410
_refine_ls_shift/su_max          0.000
_refine_ls_shift/su_mean         0.000
_refine_ls_structure_factor_coef Fsqd
_refine_ls_weighting_details
'w=1/[\s^2^(Fo^2^)+(0.0691P)^2^+0.1893P] where P=(Fo^2^+2Fc^2^)/3'
_refine_ls_weighting_scheme      calc
_refine_ls_wR_factor_gt          0.1127
_refine_ls_wR_factor_ref         0.1166
_reflns_Friedel_coverage         0.000
_reflns_number_gt                1742
_reflns_number_total             1929
_reflns_threshold_expression     'I > 2\s(I)'
_cod_data_source_file            cg500962y_si_001.cif
_cod_data_source_block           2266MeEST90K
_cod_depositor_comments
'Adding full bibliography for 4511872--4511883.cif.'
_cod_database_code               4511873
#BEGIN Tags that were not found in dictionaries:
_shelxl_version_number           2013-4
_shelx_space_group_comment
;
The symmetry employed for this shelxl refinement is uniquely defined
by the following loop, which should always be used as a source of
symmetry information in preference to the above space-group names.
They are only intended as comments.
;
_shelx_estimated_absorpt_t_max   0.993
_shelx_estimated_absorpt_t_min   0.984
_olex2_refinement_description
;
1. Fixed Uiso
 At 1.2 times of:
  All C(H) groups
 At 1.5 times of:
  All C(H,H,H) groups
2.a Aromatic/amide H refined with riding coordinates:
 C3(H3), C4(H4), C5(H5), C7(H7)
2.b Idealised Me refined as rotating group:
 C8(H81,H82,H83), C9(H91,H92,H93)
;
_shelx_res_file
;
TITL (E)-2,2',6,6'-tetramethylstilbene at 90 K in P2(1)/c
CELL 0.71073   5.4415   6.3079  19.2220  90.000  91.243  90.000
ZERR    2.00   0.0003   0.0003   0.0009   0.000   0.001   0.000
LATT 1
SYMM -X, 0.5+Y, 0.5-Z
SFAC C  H
UNIT 36 40
L.S. 6
BOND $H
FMAP 2
PLAN 20
LIST 4
SIZE 0.10 0.15 0.25
CONF
ACTA
TEMP -183
WGHT    0.069100    0.189300
FVAR       1.02754
C1    1    0.941899    0.866203    0.090031    11.00000    0.01349    0.01369 =
         0.01132   -0.00134    0.00051   -0.00027
C2    1    0.752715    0.907904    0.137574    11.00000    0.01409    0.01508 =
         0.01254   -0.00214    0.00075    0.00032
C3    1    0.715708    0.770413    0.193157    11.00000    0.01638    0.01957 =
         0.01317   -0.00070    0.00256   -0.00044
AFIX  43
H3    2    0.585747    0.796955    0.224200    11.00000   -1.20000
AFIX   0
C4    1    0.866364    0.595187    0.203726    11.00000    0.02038    0.01908 =
         0.01432    0.00290    0.00157   -0.00088
AFIX  43
H4    2    0.842952    0.504541    0.242490    11.00000   -1.20000
AFIX   0
C5    1    1.051745    0.553759    0.157022    11.00000    0.01913    0.01633 =
         0.01587    0.00204    0.00042    0.00264
AFIX  43
H5    2    1.154356    0.433578    0.164269    11.00000   -1.20000
AFIX   0
C6    1    1.090935    0.684806    0.099566    11.00000    0.01459    0.01471 =
         0.01345   -0.00098    0.00092    0.00075
C7    1    0.979196    1.021731    0.033496    11.00000    0.01338    0.01358 =
         0.01452    0.00034    0.00073    0.00087
AFIX  43
H7    2    0.972988    1.167306    0.046001    11.00000   -1.20000
AFIX   0
C8    1    0.585208    1.096454    0.127922    11.00000    0.01761    0.01759 =
         0.01841   -0.00109    0.00374    0.00353
AFIX 137
H81   2    0.513275    1.094709    0.080742    11.00000   -1.50000
H82   2    0.679757    1.227269    0.134859    11.00000   -1.50000
H83   2    0.453698    1.089959    0.161891    11.00000   -1.50000
AFIX   0
C9    1    1.294406    0.624568    0.051333    11.00000    0.01691    0.01790 =
         0.01656    0.00030    0.00293    0.00463
AFIX 137
H91   2    1.375700    0.753136    0.034808    11.00000   -1.50000
H92   2    1.225320    0.546029    0.011504    11.00000   -1.50000
H93   2    1.414419    0.535393    0.076344    11.00000   -1.50000
AFIX   0
HKLF 4

REM  (E)-2,2',6,6'-tetramethylstilbene at 90 K in P2(1)/c
REM R1 =  0.0410 for    1742 Fo > 4sig(Fo)  and  0.0447 for all    1929 data
REM     84 parameters refined using      0 restraints

END

WGHT      0.0691      0.1893

REM Highest difference peak  0.474,  deepest hole -0.139,  1-sigma level  0.049
Q1    1   1.0645  0.6252  0.1290  11.00000  0.05    0.47
Q2    1   0.9649  0.9360  0.0594  11.00000  0.05    0.46
Q3    1   0.7282  0.8281  0.1609  11.00000  0.05    0.42
Q4    1   0.8439  0.8876  0.1124  11.00000  0.05    0.41
Q5    1   0.9536  0.5873  0.1781  11.00000  0.05    0.41
Q6    1   1.0005  0.7697  0.0922  11.00000  0.05    0.41
Q7    1   0.7829  0.6712  0.1938  11.00000  0.05    0.39
Q8    1   1.1909  0.6573  0.0777  11.00000  0.05    0.39
Q9    1   1.0000  1.0000  0.0000  10.50000  0.05    0.36
Q10   1   0.6743  1.0042  0.1342  11.00000  0.05    0.36
Q11   1   1.3535  0.7013  0.0306  11.00000  0.05    0.14
Q12   1   0.9324  1.0961  0.0388  11.00000  0.05    0.12
Q13   1   0.6260  1.2060  0.1093  11.00000  0.05    0.12
Q14   1   0.6864  0.7992  0.2101  11.00000  0.05    0.11
Q15   1   1.3454  0.5406  0.0605  11.00000  0.05    0.11
Q16   1   0.5264  1.1476  0.1630  11.00000  0.05    0.10
Q17   1   1.0894  0.5072  0.1563  11.00000  0.05    0.10
Q18   1   0.8793  0.5725  0.2280  11.00000  0.05    0.10
Q19   1   0.5741  1.1493  0.0932  11.00000  0.05    0.10
Q20   1   1.2788  0.5948  0.0184  11.00000  0.05    0.10
;
_shelx_res_checksum              9766
_shelx_hkl_file
;
  -1   0   0 3262.88   56.02   1
  -1   0   0 3261.82   57.91   3
  -1   0   0 3196.44   53.22   2
  -1   0   0 3255.66   56.60   4
  -2   0   0  135.63    2.90   3
  -2   0   0  140.88    2.74   1
  -2   0   0  139.72    2.75   4
  -2   0   0  135.43    2.67   2
  -3   0   0  512.45    9.25   1
  -3   0   0  512.24    9.72   3
  -3   0   0  504.67    8.92   2
  -3   0   0  511.84    9.33   4
   4   0   0   77.16    1.99   5
  -4   0   0   79.71    2.03   4
  -4   0   0   72.83    2.21   3
  -4   0   0   75.25    2.05   2
   4   0   0   77.39    2.00   1
  -5   0   0   84.57    2.34   4
   5   0   0   85.25    2.34   5
  -5   0   0   83.98    2.42   2
  -5   0   0   89.22    2.66   3
   5   0   0   86.24    2.35   1
   6   0   0  185.93    4.39   2
  -6   0   0  196.17    4.86   3
  -7   0   0   44.20    2.28   3
   7   0   0   50.29    2.26   2
   0   1   0    0.12    0.14   2
   0   1   0    0.16    0.16   1
   0  -1   0    0.10    0.14   3
   0  -1   0   -0.02    0.16   4
   1   1   0   75.24    1.50   1
  -1  -1   0   71.92    1.51   4
   1  -1   0   71.63    1.53   3
  -1   1   0   75.22    1.62   1
   1   1   0   73.04    1.52   2
  -1   1   0   77.40    1.64   4
  -1   1   0   71.93    1.45   2
   2   1   0   76.66    1.71   2
  -2   1   0   77.13    1.78   4
  -2   1   0   74.43    1.76   1
  -2  -1   0   73.24    1.62   4
  -2   1   0   74.20    1.75   3
  -2  -1   0   73.89    1.86   3
   2   1   0   74.72    1.60   1
  -2   1   0   73.09    1.61   2
  -3   1   0  288.74    5.73   3
  -3   1   0  292.13    5.29   2
   3   1   0  287.81    5.37   1
  -3   1   0  287.43    5.61   4
  -3  -1   0  290.08    5.46   4
  -3  -1   0  283.46    5.85   3
  -3   1   0  291.70    5.58   1
   3   1   0  283.73    5.37   2
   4   1   0    1.38    0.43   1
  -4   1   0    1.17    0.48   2
  -4   1   0    1.06    0.50   1
   4   1   0    1.40    0.52   2
  -4   1   0    1.00    0.49   4
  -4  -1   0    0.89    0.43   4
  -4   1   0    1.38    0.53   3
  -4  -1   0   -0.11    0.48   3
  -5   1   0    3.73    0.69   2
  -5  -1   0    5.25    0.88   3
   5   1   0    2.96    0.71   2
  -5  -1   0    3.74    0.63   4
  -5   1   0    4.45    0.75   1
  -5   1   0    4.28    0.78   3
  -5   1   0    4.20    0.73   4
  -6   1   0    1.95    0.77   2
  -6   1   0    1.86    0.77   4
  -6   1   0    0.04    0.73   3
   6   1   0    0.74    0.76   2
  -6  -1   0    0.51    0.86   3
  -7  -1   0   -0.18    0.96   3
   7  -1   0    1.01    0.86   2
  -7   1   0    2.01    1.01   3
   7   1   0   -1.22    0.85   2
   0   2   0  433.80    7.34   2
   0  -2   0  432.37    7.85   4
   0   2   0  432.71    7.77   1
   0  -2   0  428.95    7.96   3
   1   2   0  423.39    7.56   1
  -1  -2   0  429.05    7.93   3
   1  -2   0  421.57    7.77   3
   1   2   0  415.25    7.29   2
  -1   2   0  430.70    7.18   2
  -1  -2   0  412.38    7.64   4
  -1   2   0  417.17    7.69   1
   1  -2   0  426.62    7.78   4
  -2   2   0  412.18    7.65   4
   2  -2   0  407.02    7.61   3
   2   2   0  415.10    7.33   1
  -2   2   0  409.08    7.03   2
   2   2   0  409.09    7.22   2
  -2  -2   0  398.83    7.42   4
  -2   2   0  404.31    7.58   1
  -2  -2   0  396.82    7.83   3
   3   2   0   -0.07    0.30   1
  -3  -2   0   -0.26    0.39   3
  -3   2   0    0.34    0.34   2
   3   2   0    0.38    0.39   2
  -3   2   0    0.22    0.41   4
  -3  -2   0    0.21    0.32   4
  -3   2   0   -0.07    0.40   1
  -4  -2   0   31.77    1.50   3
  -4   2   0   33.89    1.39   3
  -4   2   0   32.34    1.23   2
   4   2   0   32.78    1.40   2
  -4   2   0   33.93    1.46   4
  -4  -2   0   32.73    1.24   4
  -4   2   0   31.56    1.42   1
   4   2   0   33.87    1.20   1
  -5   2   0  159.86    3.64   2
  -5   2   0  163.29    3.96   3
  -5   2   0  168.26    4.00   4
   5   2   0  160.70    3.88   2
  -5  -2   0  165.30    4.23   3
  -5   2   0  167.67    4.00   1
  -6   2   0    9.27    1.12   4
  -6  -2   0    8.51    1.12   3
  -6   2   0    8.97    1.08   3
  -6   2   0   10.13    1.15   1
   6   2   0    8.04    1.05   2
  -6   2   0   11.44    1.10   2
   7   2   0    2.06    0.99   2
  -7  -2   0    2.24    1.14   3
   0   3   0    0.01    0.29   2
   0  -3   0   -0.02    0.28   3
   0  -3   0    0.09    0.32   4
   0   3   0   -0.09    0.31   1
   1   3   0    0.69    0.35   2
   1  -3   0    0.53    0.28   3
  -1   3   0    0.20    0.33   1
   1   3   0    0.32    0.32   1
  -1  -3   0    0.77    0.35   3
  -1  -3   0    0.41    0.32   4
  -1   3   0    1.00    0.29   2
   1  -3   0    0.57    0.36   4
  -2  -3   0  588.94   11.19   3
   2  -3   0  574.78   10.93   4
   2   3   0  599.24   10.57   1
  -2   3   0  592.13   10.04   2
   2  -3   0  582.87   10.87   3
   2   3   0  585.56   10.30   2
  -2  -3   0  593.45   10.69   4
  -2   3   0  585.96   10.85   1
  -3   3   0    0.17    0.36   2
   3  -3   0   -0.54    0.42   4
  -3   3   0    0.01    0.46   1
   3   3   0   -0.49    0.37   1
  -3  -3   0   -0.35    0.34   4
  -3  -3   0   -0.25    0.46   3
   3  -3   0   -0.09    0.37   3
   3   3   0   -0.57    0.39   2
   4   3   0   25.08    1.31   2
  -4  -3   0   24.06    1.13   4
  -4   3   0   21.75    1.28   1
   4  -3   0   26.14    1.36   4
  -4  -3   0   22.67    1.36   3
   4  -3   0   22.12    1.18   3
  -4   3   0   24.10    1.10   2
  -5   3   0   38.33    1.51   2
  -5   3   0   41.03    1.85   1
  -5  -3   0   40.76    1.92   3
   5  -3   0   37.98    1.75   4
   5   3   0   38.17    1.71   2
  -6  -3   0    0.48    0.89   3
   6  -3   0    0.36    0.81   4
  -6   3   0    0.71    0.85   1
   6   3   0   -0.35    0.77   2
  -7  -3   0   34.20    2.26   3
   7   3   0   41.66    2.21   2
  -7   3   0   39.83    2.18   1
   0  -4   0  321.19    6.27   3
   0   4   0  315.91    5.81   2
   0  -4   0  321.93    6.33   4
   0   4   0  323.79    6.27   1
  -1  -4   0    2.93    0.50   3
   1  -4   0    1.33    0.48   4
  -1   4   0    1.94    0.54   1
  -1  -4   0    2.37    0.48   4
   1  -4   0    2.67    0.43   3
  -1   4   0    3.40    0.47   2
   1   4   0    3.08    0.50   1
   1   4   0    2.90    0.50   2
  -2  -4   0   16.26    1.06   3
   2   4   0   15.45    0.90   1
  -2  -4   0   16.15    0.95   4
   2  -4   0   15.36    0.92   3
  -2   4   0   16.03    1.09   1
  -2   4   0   15.11    0.84   2
   2   4   0   15.12    0.99   2
   2  -4   0   13.91    0.97   4
  -3   4   0   41.78    1.72   1
  -3  -4   0   43.76    1.45   4
  -3  -4   0   47.12    1.82   3
   3  -4   0   44.65    1.77   4
   3   4   0   44.36    1.68   2
  -3   4   0   42.82    1.36   2
  -4   4   0   33.87    1.31   2
  -4  -4   0   32.77    1.66   3
  -4   4   0   29.78    1.58   1
   4  -4   0   31.42    1.64   4
   4   4   0   29.96    1.49   2
  -5   4   0   19.26    1.43   1
  -5  -4   0   18.82    1.51   3
   5  -4   0   18.19    1.39   4
   5   4   0   17.86    1.32   2
   6   4   0   69.21    2.66   2
  -6   4   0   74.57    2.78   1
  -6  -4   0   68.57    2.86   3
   6  -4   0   67.17    2.70   4
   0  -5   0    1.06    0.51   4
   0   5   0    0.11    0.47   2
   0  -5   0    0.25    0.43   3
   0   5   0   -0.02    0.46   1
  -1  -5   0   51.40    1.75   3
   1  -5   0   54.77    1.92   4
   1  -5   0   53.65    1.65   3
   1   5   0   51.33    1.73   1
  -1  -5   0   53.39    1.80   4
  -1   5   0   54.23    1.58   2
   1   5   0   50.95    1.67   2
  -1   5   0   50.61    1.86   1
  -2  -5   0   42.19    1.57   4
   2   5   0   41.38    1.56   2
   2   5   0   42.67    1.56   1
   2  -5   0   41.34    1.76   4
  -2   5   0   39.95    1.72   1
  -2  -5   0   42.67    1.70   3
  -2   5   0   43.75    1.37   2
   3   5   0  169.49    3.96   2
  -3  -5   0  173.60    3.88   4
  -3   5   0  162.96    4.21   1
   3  -5   0  177.88    4.32   4
  -3  -5   0  180.24    4.36   3
   4  -5   0    5.41    0.92   4
   4   5   0    3.28    0.85   2
  -4   5   0    3.38    0.87   1
  -4  -5   0    4.33    0.92   3
   5   5   0   46.10    2.07   2
   5  -5   0   43.85    2.18   4
  -5  -5   0   45.66    2.25   3
  -5   5   0   41.82    2.16   1
   6   5   0  137.38    4.07   2
   6  -5   0  135.43    4.23   4
  -6  -5   0  144.82    4.49   3
  -6   5   0  146.71    4.36   1
   0   6   0  112.91    3.12   1
   0   6   0  120.22    2.85   2
   0  -6   0  119.51    3.22   4
  -1  -6   0   74.99    2.32   3
  -1   6   0   74.97    2.46   1
  -1   6   0   75.34    2.08   2
  -1  -6   0   79.61    2.45   4
   1   6   0   75.99    2.35   1
   1  -6   0   78.65    2.55   4
   1   6   0   77.60    2.24   2
   2   6   0  107.79    2.86   2
  -2   6   0  102.76    3.09   1
   2  -6   0  102.75    3.10   4
  -2  -6   0  107.21    3.06   3
  -2  -6   0  106.04    2.89   4
  -3  -6   0   20.20    1.44   3
   3   6   0   15.36    1.22   2
  -3   6   0   15.94    1.38   1
   3  -6   0   15.65    1.33   4
  -4  -6   0    1.37    0.90   3
   4  -6   0   -0.15    0.78   4
   4   6   0    1.51    0.85   2
  -4   6   0    0.20    0.83   1
   5  -6   0    0.16    0.97   4
  -5  -6   0   -1.89    0.91   3
  -5   6   0    0.83    0.98   1
   5   6   0    0.09    0.88   2
   0  -7   0    0.14    0.77   4
   0   7   0   -1.16    0.64   1
   1   7   0   57.76    2.23   1
   1   7   0   64.33    2.17   2
  -1   7   0   61.49    2.37   1
   1  -7   0   67.51    2.47   4
  -1  -7   0   63.37    2.32   4
  -2  -7   0  220.34    5.06   4
   2  -7   0  203.02    5.25   4
  -2   7   0  210.86    5.29   1
   2   7   0  217.50    4.84   2
  -3  -7   0   18.59    1.55   3
   3   7   0   13.98    1.33   2
  -3   7   0   17.77    1.53   1
   3  -7   0   14.61    1.47   4
   4  -7   0   77.68    3.05   4
  -4   7   0   78.72    3.05   1
  -4  -7   0   82.83    3.18   3
   4   7   0   81.56    2.89   2
   0   8   0   13.38    1.43   1
   0  -8   0   15.90    1.51   4
   1  -8   0    6.27    1.17   4
  -1   8   0    6.81    1.22   1
  -1  -8   0    5.47    1.22   4
  -2   8   0   14.86    1.54   1
   2  -8   0   14.30    1.51   4
   2   8   0   13.88    1.35   2
  -3   8   0   30.82    2.11   1
   3   8   0   28.85    1.93   2
   3  -8   0   29.29    2.05   4
  -7   0   1    0.72    0.97   3
   7   0  -1    0.07    0.90   2
  -6   0   1    1.03    0.71   4
  -6   0   1   -1.32    0.72   3
   6   0  -1    0.55    0.65   2
   5   0  -1    0.25    0.52   2
  -5   0   1    0.75    0.55   4
  -5   0   1    0.22    0.60   3
   4   0  -1    0.20    0.39   1
  -4   0   1    0.28    0.48   3
  -4   0   1    0.72    0.44   4
  -4   0   1   -0.33    0.41   2
   4   0  -1    0.25    0.39   5
  -3   0   1    0.07    0.33   2
  -3   0   1    0.33    0.33   4
  -3   0   1   -0.42    0.29   1
  -3   0   1   -0.13    0.36   3
  -2   0   1    0.00    0.28   3
  -2   0   1    0.07    0.24   1
  -2   0   1    0.01    0.26   4
  -2   0   1    0.46    0.28   2
  -1   0   1   -0.12    0.19   4
  -1   0   1    0.37    0.19   2
  -1   0   1    0.22    0.22   3
  -1   0   1    0.16    0.16   1
   0   0   1    0.02    0.03   1
   0   0   1   -0.03    0.03   4
   0   0  -1    0.04    0.03   3
   0   0  -1   -0.02    0.03   2
  -1   0  -1    0.13    0.16   4
  -1   0  -1   -0.01    0.20   1
  -1   0  -1    0.17    0.20   3
  -1   0  -1   -0.12    0.19   2
  -2   0  -1   -0.14    0.23   4
  -2   0  -1    2.51    0.38   3
  -2   0  -1    0.01    0.26   1
  -2   0  -1   -0.07    0.27   2
  -3   0  -1    0.27    0.37   3
  -3   0  -1   -0.16    0.32   2
   3   0   1    0.10    0.31   5
   3   0   1    0.40    0.31   1
  -3   0  -1   -0.10    0.30   4
  -4   0  -1    0.05    0.40   4
   4   0   1    0.13    0.38   5
  -4   0  -1    0.07    0.42   2
   4   0   1    0.01    0.38   1
  -4   0  -1   -0.25    0.46   3
  -5   0  -1    0.51    0.61   3
  -5   0  -1    0.24    0.53   4
  -5   0  -1    0.35    0.57   2
   5   0   1    0.02    0.54   1
   5   0   1    0.20    0.53   5
  -6   0  -1   -0.35    0.71   3
   6   0   1    0.40    0.63   2
   7   0   1    0.11    0.85   2
  -7   0  -1   -0.49    0.93   3
  -7  -1   1    0.98    1.03   3
   7   1  -1   -0.53    0.89   2
  -7   1   1    0.98    0.98   3
  -6  -1   1   70.48    2.64   3
   6  -1  -1   71.63    2.29   2
   6   1  -1   70.49    2.41   2
  -6   1   1   65.24    2.44   3
  -6   1   1   68.03    2.33   4
  -5   1   1   20.13    1.27   2
  -5   1   1   19.77    1.32   3
  -5   1   1   20.22    1.23   4
  -5   1   1   19.53    1.29   1
  -5  -1   1   19.29    1.43   3
   5   1  -1   21.19    1.24   2
  -5  -1   1   21.11    1.15   4
  -4  -1   1    0.31    0.54   3
   4   1  -1   -0.39    0.40   2
  -4  -1   1   -0.16    0.38   4
   4   1  -1    0.04    0.37   1
  -4   1   1    0.42    0.44   4
  -4   1   1   -0.68    0.40   2
  -4   1   1   -0.49    0.43   1
  -4   1   1   -0.28    0.45   3
  -3  -1   1    3.32    0.44   4
   3   1  -1    3.09    0.37   1
   3   1  -1    3.11    0.48   2
  -3  -1   1    2.33    0.49   3
  -3   1   1    2.74    0.46   4
  -3   1   1    3.00    0.48   3
  -3   1   1    2.79    0.46   1
  -3   1   1    3.12    0.43   2
  -2  -1   1  785.93   14.39   3
   2   1  -1  789.76   13.65   1
  -2   1   1  777.17   14.29   3
  -2   1   1  778.91   13.09   2
  -2   1   1  771.78   13.81   1
  -2   1   1  803.27   14.01   4
   2   1  -1  785.05   13.22   2
  -2  -1   1  767.03   13.87   4
   1   1  -1  420.26    6.97   2
  -1   1   1  410.03    7.38   4
   1  -1  -1  402.99    7.50   3
  -1  -1   1  408.33    7.32   4
  -1  -1   1  406.37    7.55   3
   1   1  -1  405.52    7.21   1
  -1   1   1  406.04    6.86   2
  -1   1   1  403.36    7.29   1
   0   1   1  343.76    6.11   1
   0   1  -1  343.93    6.09   1
   0  -1  -1  349.19    6.16   4
   0  -1   1  338.49    6.32   3
   0  -1   1  346.23    6.18   4
   0   1   1  339.81    5.80   2
   0   1  -1  344.13    5.81   2
   0  -1  -1  342.27    6.32   3
   1   1   1  790.24   13.11   2
  -1  -1  -1  782.83   14.27   3
   1   1   1  799.22   13.72   1
  -1   1  -1  784.29   13.08   2
  -1   1  -1  789.24   14.23   3
   1  -1   1  771.59   13.89   4
  -1   1  -1  784.60   13.77   1
  -1  -1  -1  788.67   13.87   4
  -2   1  -1  160.88    3.09   2
  -2   1  -1  162.16    3.29   4
  -2  -1  -1  161.22    3.10   4
  -2   1  -1  167.97    3.29   3
  -2   1  -1  161.46    3.30   1
  -2  -1  -1  163.96    3.43   3
   2   1   1  161.60    3.15   1
  -2  -1  -1  167.60    3.18   2
  -3  -1  -1  143.47    3.39   3
  -3   1  -1  155.32    3.24   4
   3   1   1  148.94    3.08   1
  -3   1  -1  152.64    3.28   3
  -3  -1  -1  155.11    3.04   4
  -3   1  -1  151.80    3.26   1
  -3   1  -1  150.26    3.06   2
  -3  -1  -1  147.15    3.14   2
  -4   1  -1  352.44    6.63   2
  -4   1  -1  361.96    7.16   3
  -4  -1  -1  352.07    6.73   2
  -4   1  -1  340.76    6.93   4
  -4   1  -1  362.95    6.97   1
  -4  -1  -1  363.51    6.76   4
  -4  -1  -1  354.18    7.32   3
   4   1   1  360.10    6.77   1
  -5   1  -1  808.20   15.28   3
  -5  -1  -1  796.07   14.57   4
  -5  -1  -1  792.11   15.44   3
  -5   1  -1  800.42   14.74   1
  -5   1  -1  795.85   14.78   4
  -5   1  -1  800.70   14.09   2
   6   1   1   33.93    1.76   2
  -6   1  -1   28.74    1.73   3
  -6   1  -1   34.40    1.70   4
  -6  -1  -1   28.65    1.74   3
  -6   1  -1   34.05    1.78   2
  -7   1  -1    2.16    1.03   3
   7  -1   1    2.13    0.98   2
  -7  -1  -1    0.32    1.00   3
   7   1   1    2.86    1.01   2
  -7  -2   1   14.54    1.58   3
   7   2  -1   12.64    1.40   2
  -6  -2   1    0.13    0.81   3
  -6   2   1    1.88    0.79   2
  -6   2   1    2.02    0.83   4
   6   2  -1    1.81    0.78   2
  -6   2   1    1.81    0.83   1
  -6   2   1    1.27    0.81   3
  -5  -2   1  136.04    3.25   4
  -5   2   1  145.50    3.56   1
  -5   2   1  138.69    3.56   3
  -5   2   1  146.13    3.28   2
  -5   2   1  136.38    3.54   4
  -5  -2   1  137.85    3.78   3
   4   2  -1  981.05   17.33   2
  -4   2   1  989.64   17.04   2
  -4   2   1 1014.43   18.61   3
  -4  -2   1 1014.42   17.98   4
  -4   2   1 1018.65   18.11   1
  -4  -2   1  969.31   18.85   3
  -4   2   1 1024.75   18.32   4
  -3  -2   1    2.97    0.56   3
  -3   2   1   -0.09    0.41   1
  -3  -2   1    0.59    0.35   4
   3   2  -1    0.40    0.40   2
  -3   2   1    0.78    0.45   4
   3  -2  -1    0.73    0.39   3
   3   2  -1    1.06    0.31   1
  -3   2   1    1.97    0.38   2
   2   2  -1   19.85    0.71   1
   2  -2  -1   20.27    0.83   3
  -2  -2   1   20.84    0.84   4
  -2   2   1   19.63    0.94   4
   2   2  -1   20.86    0.87   2
  -2   2   1   19.41    0.72   2
  -2  -2   1   17.73    0.93   3
  -2   2   1   20.00    0.93   1
  -1   2   1  597.94   10.77   1
  -1   2   1  606.51   10.06   2
   1   2  -1  602.84   10.23   2
   1  -2  -1  602.93   11.00   3
  -1  -2   1  600.22   10.77   4
   1   2  -1  600.96   10.59   1
   1  -2  -1  600.53   10.86   4
  -1  -2   1  600.77   11.09   3
   0   2   1  649.54   10.87   2
   0  -2   1  646.88   11.64   4
   0  -2   1  651.29   11.81   3
   0   2   1  645.88   11.52   1
   0   2  -1  647.97   11.49   1
   0  -2  -1  645.96   11.61   4
   0  -2  -1  665.80   11.89   3
   0   2  -1  652.48   10.94   2
   1  -2   1  984.59   17.28   4
  -1   2  -1  986.13   17.12   1
  -1   2  -1  971.88   16.20   2
   1  -2   1  972.61   17.54   3
   1   2   1  967.96   16.25   2
  -1  -2  -1  941.48   17.12   4
  -1  -2  -1  989.50   17.71   3
   1   2   1  975.01   17.01   1
  -2  -2  -1  723.15   13.54   3
  -2  -2  -1  739.96   12.92   4
   2  -2   1  703.54   13.24   3
  -2   2  -1  720.90   13.06   1
  -2   2  -1  730.38   12.29   2
   2   2   1  731.16   12.44   2
   2  -2   1  724.44   13.16   4
   2   2   1  746.59   12.87   1
   3   2   1   90.12    2.20   2
  -3   2  -1   88.71    2.30   4
  -3  -2  -1   88.97    2.00   4
   3   2   1   91.17    2.07   1
  -3   2  -1   88.57    2.07   2
  -3  -2  -1   86.41    2.39   3
  -3   2  -1   87.43    2.29   1
  -3   2  -1   93.05    2.18   3
   4   2   1   34.30    1.26   1
  -4   2  -1   32.61    1.47   1
  -4   2  -1   38.63    1.54   4
   4   2   1   32.92    1.40   2
  -4   2  -1   35.84    1.41   3
  -4  -2  -1   36.57    1.21   4
  -4  -2  -1   32.96    1.52   3
  -4   2  -1   35.37    1.30   2
   5   2   1   73.01    2.34   2
  -5  -2  -1   76.91    2.59   3
  -5   2  -1   80.19    2.43   4
  -5   2  -1   79.90    2.39   3
  -5   2  -1   76.97    2.45   1
  -5   2  -1   80.06    2.25   2
  -6   2  -1   -0.62    0.73   3
  -6   2  -1   -0.21    0.70   2
   6   2   1    1.33    0.77   2
  -6   2  -1    0.32    0.77   1
  -6  -2  -1   -0.80    0.75   3
  -7  -2  -1   28.45    2.00   3
   7   2   1   24.44    1.72   2
  -7   2  -1   27.35    1.72   2
   7   3  -1    3.02    1.14   2
  -7  -3   1    2.08    1.19   3
  -6   3   1    0.50    0.84   1
   6  -3  -1    0.49    0.76   4
   6   3  -1    0.61    0.80   2
  -6  -3   1    1.32    0.90   3
   5   3  -1   -0.67    0.63   2
  -5   3   1    0.62    0.69   4
  -5  -3   1    0.87    0.70   3
  -5   3   1    0.01    0.68   1
  -5   3   1    0.70    0.57   2
  -4   3   1   25.37    1.40   1
   4  -3  -1   28.04    1.27   3
  -4  -3   1   28.90    1.23   4
  -4   3   1   29.53    1.14   2
  -4  -3   1   27.71    1.47   3
  -4   3   1   28.21    1.48   4
   4   3  -1   28.04    1.34   2
   3  -3  -1   26.63    1.12   3
  -3  -3   1   27.01    1.32   3
  -3   3   1   30.17    1.03   2
   3   3  -1   28.00    1.20   2
  -3   3   1   29.08    1.30   1
  -3   3   1   27.44    1.35   4
   3   3  -1   28.45    1.00   1
  -3  -3   1   29.51    1.12   4
  -2   3   1    0.96    0.29   2
  -2  -3   1    1.02    0.43   3
   2   3  -1    1.01    0.43   2
   2  -3  -1    2.31    0.50   4
  -2  -3   1    0.88    0.37   4
   2   3  -1    0.86    0.34   1
   2  -3  -1    1.73    0.38   3
  -2   3   1    0.41    0.41   1
  -1  -3   1  396.12    7.30   4
   1   3  -1  397.64    7.15   1
   1  -3  -1  387.65    7.39   4
   1   3  -1  385.22    6.93   2
   1  -3  -1  390.65    7.37   3
  -1   3   1  383.91    7.34   1
  -1  -3   1  396.39    7.48   3
  -1   3   1  382.40    6.70   2
   0  -3   1   46.69    1.41   4
   0  -3  -1   48.63    1.37   3
   0  -3  -1   46.38    1.38   4
   0   3   1   46.84    1.40   1
   0   3  -1   48.10    1.28   2
   0   3  -1   49.68    1.39   1
   0   3   1   45.92    1.20   2
   0  -3   1   46.97    1.27   3
   1  -3   1   23.94    0.80   3
  -1  -3  -1   22.88    1.03   3
   1   3   1   24.61    0.92   2
  -1   3  -1   21.39    1.01   1
   1   3   1   24.33    0.98   1
  -1   3  -1   25.25    0.89   2
  -1  -3  -1   23.73    0.94   4
   1  -3   1   23.07    1.03   4
  -2  -3  -1    0.19    0.31   4
   2   3   1   -0.10    0.36   2
   2  -3   1   -0.05    0.36   4
   2   3   1   -0.16    0.32   1
   2  -3   1   -0.05    0.29   3
  -2   3  -1    0.68    0.41   1
  -2   3  -1   -0.05    0.30   2
  -2  -3  -1    0.43    0.41   3
   3   3   1    8.41    0.75   2
   3  -3   1    9.96    0.65   3
  -3  -3  -1    8.78    0.60   4
  -3   3  -1    9.98    0.85   1
   3   3   1    9.90    0.68   1
  -3   3  -1    9.12    0.65   2
  -3  -3  -1    9.58    0.85   3
   3  -3   1    9.17    0.80   4
  -4  -3  -1    9.42    0.98   3
  -4   3  -1    9.62    0.78   2
  -4   3  -1    9.75    0.95   1
   4  -3   1    9.05    0.90   4
  -4  -3  -1    9.58    0.68   4
   4   3   1   10.63    0.91   2
   5  -3   1   33.13    1.63   4
  -5  -3  -1   31.88    1.73   3
   5   3   1   32.20    1.60   2
  -5   3  -1   31.69    1.40   2
  -5   3  -1   35.01    1.75   1
  -6   3  -1   35.02    1.91   1
   6   3   1   36.97    1.88   2
   6  -3   1   39.30    1.98   4
  -6  -3  -1   39.92    2.09   3
  -7  -3  -1   41.95    2.45   3
   7   3   1   45.29    2.30   2
  -7   3  -1   45.84    2.28   1
  -6   4   1    0.22    0.97   1
  -6  -4   1    1.51    0.92   3
   6   4  -1    0.87    0.90   2
   6  -4  -1    0.85    0.98   4
   5   4  -1    1.52    0.76   2
   5  -4  -1    1.10    0.77   4
  -5  -4   1    0.86    0.80   3
  -5   4   1   -0.12    0.77   1
   4  -4  -1   -0.12    0.59   4
  -4  -4   1    0.26    0.52   4
  -4  -4   1    0.70    0.65   3
  -4   4   1    0.10    0.61   1
   4   4  -1    0.74    0.63   2
   3  -4  -1  175.17    3.86   3
  -3  -4   1  176.53    3.84   4
   3  -4  -1  178.92    4.20   4
  -3   4   1  180.05    3.49   2
  -3   4   1  170.54    4.13   1
  -3  -4   1  178.29    4.24   3
   3   4  -1  177.42    3.93   2
   2  -4  -1  131.36    2.96   3
  -2   4   1  126.13    3.18   1
  -2  -4   1  128.88    2.98   4
   2  -4  -1  130.58    3.20   4
   2   4  -1  127.32    2.96   2
   2   4  -1  131.55    2.87   1
  -2   4   1  131.82    2.64   2
  -2  -4   1  132.72    3.19   3
  -1  -4   1   13.70    0.88   3
   1   4  -1   13.80    0.90   2
  -1  -4   1   10.93    0.78   4
   1  -4  -1   12.19    0.86   4
  -1   4   1   13.86    0.77   2
  -1   4   1   12.00    0.87   1
   1   4  -1   12.57    0.85   1
   1  -4  -1   13.32    0.81   3
   0   4  -1  175.95    3.50   2
   0  -4   1  172.30    3.83   4
   0  -4  -1  178.30    3.77   3
   0  -4   1  177.47    3.68   3
   0   4   1  177.30    3.43   2
   0  -4  -1  174.84    3.78   4
   0   4   1  178.31    3.81   1
   0   4  -1  172.82    3.76   1
   1   4   1    2.56    0.49   1
   1  -4   1    1.97    0.38   3
  -1   4  -1    2.17    0.52   1
  -1   4  -1    1.95    0.43   2
  -1  -4  -1    2.07    0.46   4
   1  -4   1    2.73    0.56   4
  -1  -4  -1    1.70    0.48   3
   1   4   1    1.62    0.44   2
   2   4   1   28.06    1.21   2
  -2  -4  -1   27.55    1.28   3
  -2   4  -1   28.06    1.07   2
  -2   4  -1   28.32    1.34   1
   2   4   1   27.74    1.17   1
  -2  -4  -1   26.77    1.10   4
   2  -4   1   24.78    1.31   4
   2  -4   1   25.62    1.04   3
  -3  -4  -1   45.16    1.43   4
  -3  -4  -1   42.57    1.79   3
   3  -4   1   43.35    1.76   4
  -3   4  -1   45.53    1.78   1
   3   4   1   44.80    1.49   1
   3   4   1   43.64    1.61   2
  -3   4  -1   45.47    1.44   2
   4  -4   1   11.60    1.05   4
  -4  -4  -1   11.69    1.12   3
  -4   4  -1   11.41    0.85   2
  -4   4  -1    9.83    1.03   1
   4   4   1    9.66    0.95   2
  -5  -4  -1    5.86    1.01   3
   5  -4   1    5.47    0.96   4
  -5   4  -1    6.99    1.06   1
   5   4   1    6.17    0.99   2
  -6  -4  -1   12.93    1.48   3
   6  -4   1   16.38    1.47   4
  -6   4  -1   16.69    1.57   1
   6   4   1   15.24    1.45   2
  -6  -5   1  220.71    5.96   3
   6  -5  -1  218.99    5.69   4
   6   5  -1  212.42    5.44   2
  -6   5   1  224.26    5.73   1
  -5  -5   1   38.10    2.09   3
   5   5  -1   38.41    1.96   2
  -5   5   1   39.45    2.02   1
   5  -5  -1   35.46    1.93   4
  -4  -5   1    0.53    0.74   3
   4  -5  -1    1.62    0.73   4
   4   5  -1    1.03    0.71   2
  -4   5   1    1.53    0.77   1
   3   5  -1   11.40    1.00   2
  -3   5   1   11.83    1.08   1
  -3  -5   1   11.05    1.05   3
  -3  -5   1    9.48    0.87   4
   3  -5  -1   11.42    1.09   4
   2  -5  -1   95.70    2.76   4
   2   5  -1   96.18    2.54   2
  -2  -5   1   90.24    2.50   4
  -2   5   1   88.66    2.69   1
  -2  -5   1   92.30    2.64   3
   2   5  -1   93.92    2.41   1
  -2   5   1   94.40    2.15   2
  -1  -5   1    9.02    0.81   3
   1   5  -1    9.57    0.83   1
  -1  -5   1   10.18    0.87   4
   1  -5  -1    9.79    0.78   3
   1   5  -1   10.39    0.85   2
  -1   5   1   10.41    0.71   2
   1  -5  -1    9.39    0.89   4
  -1   5   1    9.68    0.90   1
   0   5  -1   11.28    0.89   1
   0  -5  -1   10.09    0.87   4
   0  -5  -1    8.93    0.77   3
   0  -5   1   10.90    0.90   4
   0   5  -1    9.43    0.77   2
   0  -5   1   10.24    0.76   3
   0   5   1   10.79    0.88   1
   0   5   1    9.63    0.73   2
  -1   5  -1   16.35    1.00   2
   1   5   1   15.77    1.02   1
  -1  -5  -1   15.70    1.09   3
  -1   5  -1   16.78    1.10   1
   1  -5   1   13.62    1.04   4
   1   5   1   14.35    0.97   2
  -1  -5  -1   15.15    0.98   4
  -2  -5  -1   32.95    1.51   3
  -2  -5  -1   33.50    1.39   4
   2   5   1   35.31    1.42   1
  -2   5  -1   34.04    1.59   1
   2   5   1   34.47    1.42   2
   2  -5   1   33.85    1.61   4
  -2   5  -1   34.00    1.26   2
  -3  -5  -1   99.20    2.93   3
  -3  -5  -1   93.45    2.46   4
   3  -5   1   94.90    2.88   4
  -3   5  -1   92.44    2.83   1
  -3   5  -1   91.68    2.31   2
   3   5   1   94.65    2.64   2
   4   5   1   75.14    2.44   2
   4  -5   1   71.60    2.56   4
  -4  -5  -1   74.10    2.65   3
  -4   5  -1   67.36    2.51   1
   5   5   1   55.46    2.30   2
   5  -5   1   53.95    2.39   4
  -5   5  -1   58.37    2.43   1
  -5  -5  -1   54.10    2.48   3
  -6  -5  -1   15.44    1.68   3
   6   5   1   13.41    1.45   2
  -6   5  -1   21.05    1.80   1
   6  -5   1   16.68    1.64   4
   5  -6  -1   18.39    1.66   4
  -5  -6   1   21.95    1.82   3
  -5   6   1   22.37    1.80   1
   5   6  -1   19.66    1.60   2
  -4   6   1   51.15    2.29   1
   4   6  -1   49.58    2.10   2
  -4  -6   1   49.44    2.30   3
   4  -6  -1   47.55    2.25   4
  -3  -6   1    6.09    1.01   3
   3   6  -1    5.30    0.92   2
   3  -6  -1    6.53    1.00   4
  -3   6   1    6.13    1.02   1
  -3  -6   1    6.07    0.83   4
   2  -6  -1   56.96    2.22   4
  -2  -6   1   55.41    2.05   4
  -2  -6   1   62.03    2.19   3
   2   6  -1   61.08    2.06   2
  -2   6   1   54.91    2.18   1
   1   6  -1  179.86    3.89   2
  -1   6   1  170.95    4.21   1
  -1  -6   1  166.71    4.10   4
   1  -6  -1  168.80    4.22   4
   1   6  -1  172.61    4.03   1
  -1  -6   1  169.59    4.04   3
   0  -6  -1    2.65    0.75   4
   0  -6   1    4.30    0.82   4
   0   6   1    3.77    0.67   2
   0   6  -1    4.82    0.80   1
   0   6  -1    4.85    0.74   2
   0   6   1    3.43    0.75   1
   0  -6  -1    3.59    0.73   3
   1  -6   1   51.06    2.03   4
   1   6   1   53.33    1.78   2
  -1   6  -1   56.28    1.76   2
  -1   6  -1   50.86    1.99   1
  -1  -6  -1   53.65    1.96   4
  -1  -6  -1   53.71    1.95   3
   1   6   1   51.87    1.95   1
   2   6   1   80.88    2.43   1
  -2  -6  -1   74.05    2.51   3
  -2   6  -1   76.78    2.61   1
   2   6   1   77.35    2.35   2
   2  -6   1   80.81    2.65   4
  -2  -6  -1   80.57    2.40   4
   3   6   1   32.27    1.60   2
  -3  -6  -1   30.81    1.76   3
  -3   6  -1   33.47    1.78   1
   3  -6   1   31.78    1.74   4
   4   6   1   15.14    1.27   2
  -4  -6  -1   12.29    1.34   3
  -4   6  -1   12.92    1.35   1
   4  -6   1   12.63    1.34   4
   5   6   1    6.57    1.19   2
  -5  -6  -1    3.48    1.16   3
  -5   6  -1    5.30    1.27   1
   5  -6   1    4.76    1.19   4
  -4  -7   1   -0.61    1.02   3
   4  -7  -1    3.44    1.12   4
  -4   7   1   -0.42    0.97   1
   4   7  -1    1.05    1.02   2
  -3  -7   1    1.49    0.94   3
   3   7  -1    1.36    0.90   2
  -3   7   1    2.61    1.06   1
   3  -7  -1    3.55    0.98   4
   2   7  -1   53.67    2.09   2
  -2   7   1   48.80    2.23   1
  -2  -7   1   55.51    2.25   4
   2  -7  -1   49.48    2.23   4
   1  -7  -1  218.91    5.35   4
   1   7  -1  215.45    5.09   1
  -1  -7   1  217.63    5.22   4
   1   7  -1  231.24    4.93   2
  -1   7   1  224.83    5.34   1
   0   7   1    6.72    1.00   1
   0  -7   1    5.72    1.01   4
   0  -7  -1    6.61    1.01   4
   0   7  -1    7.19    0.93   2
   0   7  -1    5.70    0.97   1
   1   7   1   54.34    1.97   2
  -1  -7  -1   54.86    2.16   4
  -1   7  -1   49.88    2.15   1
   1  -7   1   52.12    2.23   4
   1   7   1   53.44    2.12   1
   2   7   1  173.42    4.23   2
  -2  -7  -1  186.24    4.45   4
  -2  -7  -1  182.99    4.65   3
  -2   7  -1  177.39    4.71   1
   2  -7   1  182.24    4.76   4
   3   7   1   19.79    1.44   2
  -3  -7  -1   20.05    1.61   3
  -3   7  -1   15.54    1.51   1
   3  -7   1   14.96    1.47   4
  -4   7  -1    1.68    1.04   1
  -4  -7  -1    2.61    1.09   3
   4  -7   1    3.12    1.10   4
   4   7   1    2.63    1.08   2
   3   8  -1    5.72    1.25   2
   3  -8  -1    4.38    1.20   4
  -3   8   1    3.92    1.22   1
   2  -8  -1   20.27    1.69   4
   2   8  -1   21.56    1.59   2
  -2   8   1   21.00    1.74   1
  -2  -8   1   20.58    1.66   4
   1  -8  -1    3.41    1.07   4
  -1   8   1    3.49    1.08   1
  -1  -8   1    3.12    1.04   4
   0   8   1    0.84    0.90   1
   0   8  -1    1.51    0.89   1
   0  -8   1    2.08    0.95   4
   0  -8  -1    1.05    0.98   4
  -1   8  -1   -0.83    0.92   1
  -1  -8  -1    0.73    0.96   4
   1  -8   1   -1.20    0.89   4
  -2   8  -1   24.29    1.87   1
   2  -8   1   22.55    1.83   4
   3   8   1  136.00    3.84   2
   3  -8   1  132.65    4.24   4
  -3   8  -1  130.80    4.20   1
  -7   0   2    3.24    1.02   3
   7   0  -2    1.97    0.95   2
   6   0  -2    0.21    0.68   2
  -6   0   2    0.75    0.79   3
  -6   0   2    0.83    0.70   4
  -5   0   2    9.75    0.89   4
   5   0  -2   10.59    0.89   2
  -5   0   2    9.93    1.01   3
  -4   0   2  319.92    6.31   4
   4   0  -2  322.53    6.00   2
  -4   0   2  310.52    6.58   3
  -4   0   2  320.94    6.08   1
  -3   0   2  732.86   12.97   1
  -3   0   2  736.78   13.70   3
  -3   0   2  725.67   13.25   4
   3   0  -2  735.63   12.52   2
  -2   0   2 1270.35   20.97   1
  -2   0   2 1206.13   21.86   3
   2   0  -2 1124.38   20.01   2
  -2   0   2 1229.24   21.28   4
  -1   0   2  338.98    6.28   3
   1   0  -2  340.55    5.73   2
  -1   0   2  331.88    5.99   1
  -1   0   2  339.61    6.11   4
   0   0   2   91.74    1.72   4
   0   0  -2   89.88    1.76   3
   0   0   2   92.12    1.70   1
   0   0  -2   89.93    1.62   2
   1   0   2 1785.24   31.07   4
   1   0   2 1719.96   30.39   1
  -1   0  -2 1763.82   31.54   3
  -1   0  -2 1774.73   28.99   2
   2   0   2   30.26    0.98   1
  -2   0  -2   32.47    0.99   2
   2   0   2   32.86    0.99   5
  -2   0  -2   32.15    1.03   3
  -2   0  -2   33.34    0.89   4
  -3   0  -2  129.24    2.99   3
  -3   0  -2  131.24    2.81   2
  -3   0  -2  134.71    2.75   4
   3   0   2  133.11    2.86   5
   3   0   2  133.40    2.86   1
   4   0   2    0.27    0.44   5
   4   0   2   -0.31    0.40   1
  -4   0  -2   -0.44    0.40   4
  -4   0  -2   -0.11    0.42   2
  -4   0  -2    0.17    0.47   3
  -5   0  -2  107.73    2.86   2
   5   0   2  112.36    2.85   5
  -5   0  -2  106.50    2.68   4
   5   0   2  112.26    2.86   1
  -5   0  -2  109.55    3.05   3
  -6   0  -2   10.99    1.15   2
  -6   0  -2    8.14    1.14   3
   7   0   2   30.68    1.80   2
  -7   0  -2   29.67    2.00   3
  -7   1   2    1.36    0.99   3
   7   1  -2   -0.10    0.89   2
  -7  -1   2    0.39    0.97   3
  -6   1   2    4.56    0.94   3
   6   1  -2    3.83    0.87   2
  -6   1   2    3.12    0.82   4
   6  -1  -2    3.96    0.79   2
  -6  -1   2    3.74    0.93   3
  -5  -1   2  186.87    4.58   3
   5   1  -2  179.57    4.13   2
  -5   1   2  185.21    4.43   3
  -5   1   2  186.55    4.15   1
  -5   1   2  184.92    4.28   4
   5  -1  -2  186.60    3.99   2
  -5  -1   2  190.17    4.17   4
  -4   1   2    0.06    0.45   4
  -4   1   2    0.00    0.47   3
   4   1  -2    0.00    0.44   2
  -4   1   2    0.18    0.42   2
   4   1  -2    0.18    0.34   1
  -4   1   2    0.29    0.46   1
  -4  -1   2   -0.96    0.38   4
  -4  -1   2    0.86    0.56   3
  -3  -1   2  159.87    3.66   3
  -3   1   2  166.11    3.41   1
   3   1  -2  163.57    3.15   1
  -3   1   2  161.18    3.57   3
  -3   1   2  167.33    3.54   4
  -3   1   2  162.30    3.19   2
   3   1  -2  161.81    3.34   2
  -3  -1   2  164.96    3.41   4
  -2   1   2   41.53    1.16   1
  -2  -1   2   39.95    1.14   4
  -2   1   2   40.55    1.21   3
  -2   1   2   40.22    1.01   2
   2   1  -2   38.24    1.13   2
  -2   1   2   42.20    1.25   4
  -2  -1   2   42.62    1.29   3
  -1   1   2    1.60    0.32   4
  -1   1   2    1.87    0.33   1
   1  -1  -2    2.74    0.33   3
  -1   1   2    1.88    0.19   2
  -1  -1   2    2.08    0.32   3
   1   1  -2    2.25    0.32   2
  -1  -1   2    1.95    0.31   4
   0   1   2 3715.32   63.83   4
   0  -1   2 3683.09   63.64   4
   0   1  -2 3717.09   63.18   1
   0  -1  -2 3569.02   65.31   3
   0   1  -2 3592.07   60.04   2
   0   1   2 3691.32   61.01   2
   0  -1   2 3696.18   66.66   3
   0   1   2 3643.70   62.99   1
  -1   1  -2 5930.96  101.10   1
   1  -1   2 5831.85  102.15   4
  -1  -1  -2 6035.42  104.83   3
  -1   1  -2 5844.16   96.37   2
  -1  -1  -2 5782.24   96.33   2
  -1   1  -2 5956.75  106.37   3
   1   1   2 5890.14  101.13   1
   2   1   2  234.59    4.47   1
  -2  -1  -2  252.77    4.40   2
  -2  -1  -2  227.24    4.73   3
  -2   1  -2  239.16    4.57   3
  -2   1  -2  234.29    4.32   2
  -2   1  -2  237.61    4.59   1
  -2   1  -2  233.80    4.54   4
  -2  -1  -2  237.22    4.32   4
  -3   1  -2    0.80    0.38   3
  -3   1  -2    0.66    0.41   1
   3   1   2    0.42    0.34   1
  -3  -1  -2    0.22    0.28   4
  -3  -1  -2    0.43    0.40   3
  -3   1  -2    0.63    0.37   4
  -3  -1  -2    0.82    0.38   2
  -3   1  -2    0.63    0.36   2
  -4   1  -2   84.53    2.23   2
  -4   1  -2   90.94    2.28   4
  -4  -1  -2   87.03    2.33   2
  -4  -1  -2   83.83    2.45   3
  -4  -1  -2   87.49    2.05   4
  -4   1  -2   88.94    2.38   1
  -4   1  -2   85.82    2.35   3
   4   1   2   88.04    2.22   1
  -5   1  -2  207.78    4.52   2
  -5   1  -2  217.93    4.86   3
   5  -1   2  218.20    4.74   5
   5   1   2  208.33    4.55   1
   5  -1   2  215.03    4.71   1
  -5   1  -2  215.13    4.65   4
  -5  -1  -2  205.68    4.97   3
   6   1   2  240.20    5.44   2
  -6   1  -2  260.90    5.82   3
   6  -1   2  240.63    5.51   1
  -6  -1  -2  249.73    5.93   3
   6  -1   2  237.95    5.50   5
  -6   1  -2  257.38    5.43   2
   7   1   2   16.42    1.54   2
   7  -1   2   18.83    1.44   2
  -7  -1  -2   18.73    1.68   3
  -7   1  -2   17.49    1.53   3
  -7  -2   2   92.92    3.41   3
   7   2  -2   93.11    3.13   2
  -7   2   2   89.70    3.11   4
   6  -2  -2   10.82    1.21   3
  -6   2   2   11.58    1.19   1
  -6  -2   2   10.42    1.20   3
   6   2  -2   11.33    1.17   2
  -6   2   2   10.16    1.12   4
  -5   2   2   13.29    1.12   4
  -5  -2   2   14.36    1.23   3
  -5   2   2   12.40    0.94   2
  -5   2   2   14.06    1.11   1
  -5  -2   2   14.29    0.97   4
   5   2  -2   17.06    1.17   2
   5  -2  -2   16.75    1.17   3
  -4   2   2  279.46    5.19   2
   4  -2  -2  270.19    5.76   3
   4   2  -2  273.34    5.48   2
  -4   2   2  276.75    5.76   4
  -4   2   2  273.23    5.63   1
  -4  -2   2  274.92    5.98   3
  -4  -2   2  271.09    5.50   4
  -3   2   2   32.74    1.04   2
  -3  -2   2   31.58    1.13   4
  -3   2   2   33.01    1.26   1
   3   2  -2   32.06    0.94   1
   3   2  -2   32.41    1.23   2
  -3   2   2   31.87    1.30   4
  -3  -2   2   32.77    1.35   3
   3  -2  -2   32.03    1.19   3
  -2   2   2   58.71    1.28   2
   2   2  -2   57.36    1.53   2
  -2  -2   2   56.53    1.52   4
   2   2  -2   56.55    1.26   1
   2  -2  -2   56.42    1.53   3
  -2   2   2   58.24    1.60   1
  -2   2   2   61.28    1.66   4
  -2  -2   2   58.96    1.65   3
  -1   2   2    6.42    0.43   2
  -1  -2   2    5.68    0.46   3
  -1   2   2    7.14    0.52   1
  -1   2   2    6.87    0.51   4
   1   2  -2    7.52    0.50   2
   1   2  -2    6.93    0.48   1
  -1  -2   2    6.96    0.48   4
   1  -2  -2    8.88    0.62   3
   0  -2   2   99.11    2.03   3
   0   2   2  100.42    1.89   2
   0  -2  -2  103.41    2.21   3
   0   2  -2  101.38    2.12   1
   0  -2   2   98.60    2.19   4
   0   2   2  103.61    2.19   1
   0   2  -2  100.02    2.04   2
   0  -2  -2  102.33    2.16   4
  -1   2  -2   12.84    0.66   2
   1   2   2   12.18    0.69   1
  -1  -2  -2   12.79    0.78   3
   1  -2   2   13.50    0.76   4
  -1  -2  -2   12.70    0.59   4
  -1   2  -2   11.22    0.71   1
   1   2   2   11.71    0.61   2
   2  -2   2   23.81    0.74   3
  -2   2  -2   25.00    0.91   2
   2  -2   2   24.03    1.01   4
  -2   2  -2   22.11    1.00   1
   2   2   2   24.47    0.93   1
  -2  -2  -2   24.19    1.06   3
   2   2   2   24.06    0.93   2
  -2  -2  -2   23.62    0.77   4
  -3   2  -2  297.91    5.64   3
   3   2   2  279.03    5.45   2
  -3   2  -2  292.10    5.35   2
  -3   2  -2  276.64    5.71   1
  -3  -2  -2  283.66    5.34   4
  -3  -2  -2  287.24    5.96   3
   3  -2   2  290.49    5.71   4
   3   2   2  289.87    5.51   1
   4   2   2   34.19    1.42   2
   4   2   2   33.65    1.29   1
  -4   2  -2   35.22    1.33   2
  -4  -2  -2   31.79    1.51   3
  -4   2  -2   35.98    1.53   1
   4  -2   2   34.04    1.40   4
  -4   2  -2   34.15    1.38   3
  -4  -2  -2   35.11    1.13   4
  -5  -2  -2    0.78    0.70   3
   5   2   2    1.55    0.66   2
  -5   2  -2    2.56    0.73   1
  -5   2  -2    0.93    0.61   2
  -5   2  -2    0.14    0.61   3
   5  -2   2    2.19    0.65   4
  -6   2  -2    4.46    0.89   2
  -6   2  -2    4.32    0.94   1
  -6   2  -2    3.42    0.87   3
  -6  -2  -2    4.38    1.02   3
   6   2   2    4.46    0.93   2
  -7  -2  -2   -1.02    0.99   3
  -7   2  -2    1.26    0.99   2
   7   2   2    0.22    0.93   2
   7   3  -2   21.35    1.71   2
  -7  -3   2   16.83    1.74   3
  -6   3   2    6.63    1.09   4
   6   3  -2    5.63    1.06   2
  -6   3   2    6.07    1.06   1
  -6  -3   2    5.72    1.16   3
   5   3  -2   -0.37    0.60   2
  -5   3   2    0.43    0.66   1
  -5   3   2    0.98    0.73   4
  -5  -3   2   -0.30    0.71   3
   5  -3  -2   -0.26    0.64   3
   4  -3  -2  106.05    2.77   3
  -4   3   2  112.46    2.99   4
  -4   3   2  104.65    2.40   2
  -4   3   2  100.57    2.83   1
  -4  -3   2  106.07    3.02   3
   4   3  -2  100.69    2.75   2
  -4  -3   2  108.32    2.64   4
   3  -3  -2   10.47    0.75   3
  -3  -3   2   11.96    0.84   4
  -3  -3   2   11.61    0.90   3
  -3   3   2   10.52    0.86   1
  -3   3   2    9.96    0.87   4
   3   3  -2   10.61    0.82   2
  -3   3   2   10.46    0.69   2
  -2  -3   2  172.70    3.70   3
   2  -3  -2  161.15    3.50   3
   2   3  -2  168.38    3.25   1
  -2  -3   2  165.22    3.50   4
  -2   3   2  165.28    3.68   4
  -2   3   2  166.46    3.06   2
   2   3  -2  160.46    3.42   2
  -2   3   2  164.06    3.62   1
   1  -3  -2  369.39    7.12   3
  -1   3   2  369.08    6.38   2
  -1  -3   2  377.51    7.16   3
  -1   3   2  379.82    7.08   1
   1   3  -2  378.29    6.84   1
   1   3  -2  366.91    6.68   2
   1  -3  -2  369.34    7.10   4
  -1  -3   2  372.98    7.04   4
   0   3   2  152.80    2.90   2
   0  -3  -2  155.10    3.29   3
   0  -3   2  151.81    3.11   3
   0   3  -2  160.30    3.21   1
   0  -3   2  155.49    3.31   4
   0   3  -2  156.48    3.05   2
   0   3   2  153.31    3.27   1
   0  -3  -2  155.00    3.24   4
  -1  -3  -2  849.90   15.23   4
   1   3   2  865.00   15.21   1
   1  -3   2  856.24   15.45   4
  -1   3  -2  870.54   14.44   2
  -1  -3  -2  819.18   15.76   3
  -1   3  -2  849.32   15.28   1
   1  -3   2  868.49   15.46   3
   1   3   2  865.71   14.45   2
  -2  -3  -2    1.41    0.35   4
   2  -3   2    3.42    0.38   3
  -2   3  -2    1.25    0.37   2
   2  -3   2    1.18    0.44   4
   2   3   2    1.65    0.43   1
  -2   3  -2    1.29    0.45   1
  -2  -3  -2    1.36    0.47   3
   2   3   2    1.30    0.41   2
  -3   3  -2   -0.02    0.38   2
  -3  -3  -2    0.80    0.54   3
  -3  -3  -2    0.28    0.33   4
  -3   3  -2    0.31    0.49   1
   3  -3   2    0.77    0.48   4
   3  -3   2    0.33    0.36   3
   3   3   2    0.53    0.44   2
   3   3   2    0.59    0.44   1
   4   3   2    4.50    0.65   1
   4   3   2    4.65    0.73   2
  -4  -3  -2    4.79    0.81   3
  -4   3  -2    4.03    0.76   1
  -4   3  -2    4.22    0.63   2
  -5   3  -2   84.58    2.38   2
  -5  -3  -2   85.87    2.85   3
   5  -3   2   81.89    2.59   4
  -5   3  -2   84.91    2.73   1
   5   3   2   85.46    2.60   2
  -6  -3  -2   16.80    1.53   3
  -6   3  -2   17.93    1.29   2
   6   3   2   20.45    1.48   2
  -6   3  -2   17.91    1.47   1
   7   3   2   34.00    2.08   2
  -7  -3  -2   36.72    2.27   3
  -6   4   2   99.12    3.29   1
   6   4  -2   93.79    3.16   2
  -6  -4   2   98.74    3.46   3
   6  -4  -2   97.98    3.34   4
   5   4  -2  185.95    4.50   2
  -5  -4   2  179.08    4.82   3
   5  -4  -2  187.63    4.71   4
  -5   4   2  189.38    4.66   1
   4   4  -2   57.94    2.05   2
   4  -4  -2   57.59    2.16   4
  -4   4   2   55.80    2.10   1
  -4  -4   2   57.22    1.84   4
  -3  -4   2   45.70    1.56   4
  -3   4   2   44.03    1.26   2
  -3   4   2   41.38    1.72   1
   3   4  -2   44.72    1.69   2
   3  -4  -2   43.16    1.56   3
   3  -4  -2   42.90    1.76   4
  -3  -4   2   42.67    1.75   3
  -2   4   2  286.89    5.16   2
  -2  -4   2  287.75    5.81   4
   2   4  -2  295.35    5.65   2
  -2   4   2  288.49    5.96   1
   2  -4  -2  283.71    5.83   3
   2   4  -2  299.31    5.57   1
  -2  -4   2  288.57    6.02   3
  -1  -4   2  134.31    3.00   3
   1   4  -2  124.11    2.85   2
   1   4  -2  130.12    2.87   1
  -1   4   2  131.73    2.58   2
  -1   4   2  127.25    3.08   1
   1  -4  -2  133.36    2.95   3
  -1  -4   2  128.28    3.00   4
   1  -4  -2  127.59    3.07   4
   0   4   2   11.43    0.72   2
   0  -4  -2   11.81    0.78   4
   0  -4  -2   12.06    0.76   3
   0  -4   2   12.29    0.75   3
   0   4  -2   10.57    0.73   2
   0  -4   2   10.29    0.78   4
   0   4  -2   10.85    0.75   1
   0   4   2   11.79    0.82   1
   1   4   2   13.06    0.89   1
   1   4   2   12.75    0.78   2
  -1  -4  -2   11.66    0.85   4
   1  -4   2   11.01    0.84   4
  -1   4  -2   11.12    0.82   1
   1  -4   2   12.01    0.72   3
  -1  -4  -2   13.01    0.84   3
  -1   4  -2   12.65    0.83   2
  -2  -4  -2   17.14    0.90   4
  -2   4  -2   16.73    0.93   2
   2   4   2   16.89    0.98   1
   2  -4   2   15.67    1.12   4
  -2  -4  -2   18.03    1.11   3
   2   4   2   17.10    1.02   2
  -2   4  -2   16.75    1.10   1
   3  -4   2  260.15    5.63   4
  -3   4  -2  263.94    5.64   1
   3   4   2  264.16    5.30   2
  -3  -4  -2  251.35    5.11   4
  -3  -4  -2  262.97    5.79   3
  -3   4  -2  263.30    5.04   2
   3   4   2  259.32    5.27   1
   4   4   2    2.32    0.70   2
   4  -4   2    3.77    0.79   4
  -4   4  -2    3.87    0.67   2
  -4  -4  -2    2.80    0.77   3
  -4   4  -2    2.83    0.78   1
  -5   4  -2    9.94    0.94   2
   5  -4   2    9.17    1.11   4
  -5  -4  -2    7.41    1.13   3
   5   4   2    9.19    1.07   2
  -5   4  -2    9.09    1.16   1
   6   4   2    5.37    1.10   2
  -6   4  -2    5.51    1.19   1
  -6  -4  -2    6.71    1.28   3
   6  -4   2    6.31    1.17   4
  -6  -5   2    0.22    1.03   3
   6   5  -2   -0.60    0.94   2
  -6   5   2    0.65    1.06   1
   6  -5  -2    1.39    1.04   4
  -5   5   2    0.35    0.87   1
  -5  -5   2    1.01    0.87   3
   5   5  -2    0.51    0.87   2
   5  -5  -2    0.31    0.86   4
   4   5  -2    6.43    0.96   2
  -4   5   2    5.76    0.97   1
   4  -5  -2    5.64    0.96   4
  -4  -5   2    6.45    1.01   3
  -3  -5   2    0.04    0.53   4
   3   5  -2   -0.49    0.59   2
   3  -5  -2   -0.70    0.59   4
  -3  -5   2   -0.21    0.57   3
  -3   5   2   -0.10    0.64   1
  -2  -5   2   18.28    1.21   4
   2   5  -2   17.00    1.16   2
   2   5  -2   17.07    1.05   1
  -2  -5   2   17.92    1.22   3
  -2   5   2   18.63    1.31   1
   2  -5  -2   18.72    1.31   4
  -1   5   2   15.09    0.90   2
  -1  -5   2   15.06    1.02   3
  -1  -5   2   16.30    1.14   4
   1   5  -2   17.22    1.08   2
   1  -5  -2   14.06    0.92   3
  -1   5   2   14.64    1.07   1
   1  -5  -2   16.46    1.19   4
   1   5  -2   14.88    1.05   1
   0  -5   2    4.68    0.57   3
   0   5   2    4.49    0.58   2
   0  -5   2    4.85    0.72   4
   0  -5  -2    5.48    0.71   4
   0   5  -2    4.61    0.68   1
   0  -5  -2    5.15    0.69   3
   0   5   2    5.20    0.76   1
   0   5  -2    4.98    0.66   2
  -1   5  -2    0.31    0.47   2
  -1  -5  -2   -0.73    0.44   4
   1   5   2    0.45    0.48   2
  -1  -5  -2    0.01    0.48   3
  -1   5  -2    0.53    0.54   1
   1   5   2    0.22    0.50   1
   1  -5   2    0.06    0.56   4
  -2   5  -2    6.74    0.65   2
   2   5   2    5.93    0.74   2
  -2  -5  -2    5.87    0.81   3
   2  -5   2    4.71    0.78   4
   2   5   2    6.01    0.74   1
  -2   5  -2    2.45    0.71   1
  -2  -5  -2    5.07    0.67   4
  -3  -5  -2    1.06    0.68   3
  -3   5  -2   -0.31    0.61   1
   3   5   2   -0.55    0.57   2
   3  -5   2   -0.09    0.62   4
  -3   5  -2    1.11    0.50   2
  -4   5  -2    7.93    1.07   1
   4   5   2    7.60    0.99   2
   4  -5   2    6.53    0.99   4
  -4  -5  -2    7.80    1.07   3
  -5   5  -2   10.92    1.31   1
  -5  -5  -2    7.02    1.22   3
   5  -5   2    9.50    1.22   4
   5   5   2    9.46    1.13   2
   6  -5   2    3.07    1.16   4
  -6  -5  -2    1.83    1.16   3
  -6   5  -2    1.98    1.15   1
   6   5   2    1.23    1.03   2
   5  -6  -2   -1.88    0.91   4
  -5   6   2    0.04    0.96   1
   5   6  -2    0.44    1.00   2
  -5  -6   2   -0.43    0.95   3
  -4  -6   2    8.14    1.21   3
   4  -6  -2    5.29    1.07   4
   4   6  -2    6.30    1.05   2
  -4   6   2    6.50    1.08   1
  -3  -6   2    4.07    0.92   3
  -3  -6   2    3.99    0.78   4
   3   6  -2    4.23    0.86   2
  -3   6   2    2.92    0.88   1
   3  -6  -2    2.29    0.83   4
  -2   6   2    1.42    0.76   1
  -2  -6   2    0.85    0.68   3
   2  -6  -2   -0.03    0.68   4
   2   6  -2    1.15    0.68   2
  -2  -6   2    1.39    0.71   4
  -1  -6   2  404.87    8.10   4
   1  -6  -2  389.37    8.15   4
   1   6  -2  398.85    7.60   2
   1   6  -2  394.85    7.87   1
   0   6   2  186.02    3.91   2
   0   6  -2  188.33    4.38   1
   0  -6  -2  181.72    4.39   4
   0  -6   2  191.90    4.52   4
   0   6   2  183.48    4.42   1
   0   6  -2  191.79    4.10   2
   0  -6  -2  191.31    4.36   3
   1   6   2   12.43    1.06   1
   1   6   2   11.62    0.91   2
   1  -6   2   11.33    1.07   4
  -1  -6  -2   10.14    0.98   3
  -1  -6  -2   12.03    1.01   4
  -1   6  -2   12.13    0.92   2
  -1   6  -2   11.81    1.09   1
  -2  -6  -2   11.60    0.98   4
  -2   6  -2   10.46    0.88   2
   2  -6   2   10.74    1.11   4
  -2   6  -2    8.46    1.06   1
   2   6   2   11.26    1.00   2
  -2  -6  -2   10.21    1.05   3
   2   6   2   11.34    1.03   1
  -3  -6  -2    8.54    1.11   3
  -3   6  -2    7.15    1.05   1
   3  -6   2    8.88    1.14   4
   3   6   2    6.15    0.94   2
  -4   6  -2   12.20    1.32   1
   4  -6   2   14.18    1.39   4
  -4  -6  -2   12.07    1.39   3
   4   6   2   11.59    1.22   2
  -5   6  -2   13.96    1.51   1
  -5  -6  -2   16.24    1.68   3
   5  -6   2   12.60    1.52   4
   5   6   2   15.24    1.49   2
  -4   7   2   47.71    2.41   1
  -4  -7   2   52.12    2.51   3
   4  -7  -2   49.02    2.42   4
   4   7  -2   47.13    2.25   2
  -3   7   2   26.97    1.82   1
   3  -7  -2   28.43    1.88   4
  -3  -7   2   30.26    1.85   3
   3   7  -2   27.18    1.71   2
   2   7  -2   68.34    2.38   2
  -2   7   2   65.10    2.58   1
   2  -7  -2   66.90    2.58   4
  -2  -7   2   68.15    2.53   4
   1   7  -2   22.18    1.42   2
  -1   7   2   18.05    1.43   1
   1  -7  -2   20.55    1.44   4
  -1  -7   2   19.03    1.45   4
   0  -7   2    1.11    0.82   4
   0   7   2    0.28    0.73   1
   0  -7  -2    0.89    0.77   4
   0   7  -2    2.13    0.80   1
   0   7  -2    1.22    0.70   2
   1   7   2   44.43    1.95   1
  -1   7  -2   42.00    1.98   1
  -1  -7  -2   45.34    1.98   4
   1   7   2   48.30    1.86   2
   1  -7   2   43.67    2.10   4
  -2  -7  -2  104.10    3.27   3
   2  -7   2  104.17    3.38   4
  -2   7  -2  109.68    3.41   1
   2   7   2  111.10    3.04   2
  -3   7  -2    6.15    1.13   1
  -3  -7  -2    7.12    1.23   3
   3  -7   2    7.61    1.21   4
   3   7   2    5.96    1.01   2
  -4   7  -2   57.09    2.61   1
   4  -7   2   57.82    2.67   4
  -4  -7  -2   57.73    2.71   3
   4   7   2   62.04    2.48   2
   3  -8  -2   31.75    2.12   4
  -3   8   2   28.67    2.09   1
   3   8  -2   31.73    1.99   2
  -2  -8   2   30.07    2.02   4
   2  -8  -2   28.05    1.95   4
  -2   8   2   28.00    1.93   1
   2   8  -2   31.54    1.89   2
   1  -8  -2    1.27    0.95   4
  -1   8   2    1.35    0.97   1
   1   8  -2    1.86    0.99   2
  -1  -8   2    0.00    0.92   4
   0  -8  -2   22.48    1.68   4
   0   8   2   22.69    1.68   1
   0  -8   2   26.14    1.79   4
   0   8  -2   24.36    1.71   1
  -1   8  -2   35.74    2.06   1
   1  -8   2   36.43    2.18   4
   1   8   2   35.50    1.97   1
  -1  -8  -2   37.84    2.04   4
   2  -8   2   87.93    3.28   4
  -2   8  -2   90.31    3.29   1
   3  -8   2  182.13    5.19   4
   3   8   2  185.05    4.69   2
  -3   8  -2  180.73    5.12   1
  -7   0   3   -0.19    0.99   3
   7   0  -3   -0.57    0.82   2
   6   0  -3   -0.27    0.65   2
  -6   0   3    0.11    0.68   4
  -6   0   3   -0.31    0.76   3
   5   0  -3   -0.23    0.51   2
  -5   0   3    0.51    0.67   3
  -5   0   3   -0.14    0.54   4
  -4   0   3    0.08    0.47   3
  -4   0   3    0.00    0.38   1
   4   0  -3    0.06    0.40   2
  -4   0   3   -0.02    0.44   4
  -3   0   3   -0.01    0.32   4
  -3   0   3    0.04    0.37   3
  -3   0   3    0.31    0.30   1
   3   0  -3    0.16    0.33   2
  -2   0   3    0.10    0.28   4
  -2   0   3   -0.06    0.30   3
   2   0  -3    0.32    0.26   2
  -2   0   3   -0.02    0.21   1
  -1   0   3    0.31    0.18   1
  -1   0   3    0.17    0.26   4
   1   0  -3    0.73    0.23   2
  -1   0   3    0.55    0.28   3
   0   0   3   -0.13    0.14   4
   0   0  -3   -0.06    0.15   3
   0   0   3    0.09    0.15   1
   0   0  -3   -0.13    0.14   2
   1   0   3    0.19    0.25   5
  -1   0  -3    0.07    0.24   2
   1   0   3    0.24    0.25   1
  -1   0  -3    0.49    0.25   3
   1   0   3    0.17    0.16   4
  -2   0  -3    0.14    0.22   4
   2   0   3    0.42    0.29   5
  -2   0  -3    0.36    0.29   2
  -2   0  -3    0.06    0.28   3
   2   0   3   -0.09    0.27   1
  -3   0  -3    0.34    0.29   4
  -3   0  -3   -0.15    0.35   3
   3   0   3   -0.05    0.31   1
   3   0   3   -0.35    0.31   5
  -3   0  -3    0.05    0.34   2
   4   0   3   -0.08    0.42   5
  -4   0  -3   -0.17    0.42   2
  -4   0  -3    0.51    0.39   4
  -4   0  -3   -0.25    0.46   3
   4   0   3   -0.70    0.38   1
   5   0   3    0.30    0.55   1
  -5   0  -3    0.68    0.59   3
  -5   0  -3   -0.49    0.57   2
  -6   0  -3    0.49    0.85   3
  -6   0  -3    0.62    0.77   2
  -7   0  -3    0.65    1.03   3
   7   0   3    1.02    0.86   2
   7   1  -3    2.27    1.01   2
  -7  -1   3    2.69    1.05   3
  -7   1   3    1.36    1.01   3
   6   1  -3   46.66    1.96   2
  -6   1   3   50.96    2.03   4
  -6   1   3   51.40    2.17   3
  -6  -1   3   51.31    2.20   3
   6  -1  -3   47.80    1.86   2
  -6  -1   3   46.89    1.88   4
   5  -1  -3   66.83    1.99   2
  -5   1   3   72.12    2.11   1
   5   1  -3   70.51    2.16   2
  -5  -1   3   67.45    2.12   4
  -5  -1   3   69.12    2.42   3
  -5   1   3   67.94    2.32   3
  -5   1   3   70.46    2.23   4
   4  -1  -3  138.86    3.01   2
  -4   1   3  139.85    3.35   4
  -4   1   3  139.04    3.44   3
  -4   1   3  145.78    3.20   1
  -4  -1   3  141.71    3.53   3
   4   1  -3  140.62    3.17   2
  -4  -1   3  143.07    3.25   4
   3   1  -3  129.48    2.74   2
  -3  -1   3  125.96    2.81   4
  -3   1   3  125.10    2.57   2
  -3  -1   3  127.33    3.02   3
   3   1  -3  123.81    2.46   1
  -3   1   3  126.05    2.96   3
  -3   1   3  126.28    2.75   1
  -3   1   3  126.93    2.90   4
  -2  -1   3  366.81    6.94   4
  -2   1   3  376.63    6.41   2
  -2   1   3  375.85    7.02   4
   2   1  -3  372.75    6.60   2
  -2  -1   3  381.16    7.21   3
  -2   1   3  374.99    6.84   1
  -1  -1   3  127.79    2.62   3
  -1   1   3  128.36    2.54   1
   1   1  -3  128.98    2.45   2
  -1  -1   3  127.82    2.59   4
   1  -1  -3  127.42    2.64   3
  -1   1   3  126.28    2.59   4
   0   1  -3   79.99    1.63   2
   0  -1   3   74.98    1.57   3
   0   1   3   81.35    1.70   1
   0  -1  -3   79.38    1.76   3
   0  -1   3   80.05    1.73   4
   0   1   3   82.62    1.63   4
   0   1  -3   80.94    1.62   1
  -1  -1  -3 9623.06  157.02   2
   1   1   3 9704.84  164.74   1
  -1   1  -3 9557.13  156.99   2
   1  -1   3 9455.19  166.47   4
  -1  -1  -3 9895.60  170.79   3
  -1   1  -3 9491.29  164.69   1
  -2   1  -3 1979.71   33.78   1
  -2   1  -3 1971.02   34.82   3
  -2   1  -3 1930.62   32.14   2
   2   1   3 1930.64   33.67   1
  -2  -1  -3 1949.20   32.17   2
   2  -1   3 1918.30   33.98   4
  -2  -1  -3 1938.59   34.97   3
  -3   1  -3  331.53    6.27   3
  -3  -1  -3  318.65    6.44   3
  -3   1  -3  318.28    6.23   1
  -3   1  -3  314.20    5.90   2
  -3  -1  -3  316.38    5.95   2
   3   1   3  321.59    6.11   1
  -3  -1  -3  325.49    5.87   4
   3  -1   3  322.93    6.10   4
  -4   1  -3   25.65    1.30   1
  -4   1  -3   27.82    1.25   3
  -4   1  -3   27.04    1.20   2
  -4  -1  -3   27.11    1.32   3
  -4  -1  -3   27.13    1.30   2
  -4  -1  -3   27.94    0.97   4
  -4   1  -3   25.73    1.17   4
   4   1   3   28.77    1.22   1
   5  -1   3   90.42    2.61   1
  -5  -1  -3   91.10    2.79   3
  -5  -1  -3   94.80    2.66   2
   5   1   3   94.45    2.56   1
  -5   1  -3   94.52    2.67   3
   5  -1   3   93.27    2.64   5
   6  -1   3   71.35    2.44   5
  -6   1  -3   72.45    2.39   2
   6   1   3   66.71    2.37   2
  -6  -1  -3   64.46    2.51   3
  -6   1  -3   72.97    2.58   3
   6  -1   3   71.84    2.45   1
  -7   1  -3    1.82    1.00   2
   7   1   3    3.65    1.07   2
  -7  -1  -3    2.07    1.07   3
   7   2  -3   27.08    1.85   2
  -7  -2   3   26.69    1.97   3
  -7   2   3   24.73    1.80   4
   6   2  -3   36.94    1.80   2
  -6   2   3   35.59    1.81   4
  -6   2   3   38.42    1.83   1
  -6  -2   3   39.44    2.05   3
   6  -2  -3   38.85    1.96   3
  -5   2   3   73.09    2.38   4
  -5  -2   3   71.32    2.18   4
  -5   2   3   72.94    2.32   1
   5   2  -3   70.22    2.28   2
  -5  -2   3   71.26    2.54   3
   5  -2  -3   79.34    2.48   3
  -4   2   3   55.41    1.90   4
  -4   2   3   55.95    1.84   1
  -4  -2   3   57.41    2.03   3
   4  -2  -3   55.92    1.88   3
  -4  -2   3   57.29    1.78   4
  -4   2   3   56.36    1.61   2
   4   2  -3   51.94    1.77   2
  -3   2   3    3.91    0.59   4
  -3   2   3    4.00    0.56   1
   3   2  -3    3.71    0.55   2
   3  -2  -3    4.60    0.57   3
  -3  -2   3    4.48    0.64   3
  -3  -2   3    4.16    0.52   4
  -3   2   3    4.41    0.44   2
  -2   2   3   79.52    2.02   1
  -2  -2   3   85.26    2.00   4
   2   2  -3   80.96    1.96   2
  -2   2   3   83.34    1.63   2
  -2  -2   3   82.31    2.09   3
   2  -2  -3   82.56    2.01   3
  -2   2   3   83.14    2.09   4
   1  -2  -3  560.16   10.12   3
   1   2  -3  545.21    9.36   2
  -1  -2   3  544.03    9.89   4
  -1   2   3  527.51    9.81   1
  -1   2   3  553.55    9.94   4
   1   2  -3  542.13    9.58   1
  -1  -2   3  542.79   10.08   3
   0   2   3  192.55    3.37   2
   0  -2  -3  190.61    3.86   3
   0   2  -3  193.16    3.67   1
   0  -2  -3  192.64    3.71   4
   0  -2   3  189.77    3.79   4
   0   2  -3  196.30    3.58   2
   0   2   3  193.90    3.77   1
   0  -2   3  192.28    3.64   3
  -1  -2  -3  378.59    7.10   3
  -1  -2  -3  365.95    6.68   4
   1   2   3  365.21    6.80   1
   1   2   3  367.84    6.43   2
   1  -2   3  370.87    6.91   4
  -1   2  -3  366.89    6.84   1
  -1   2  -3  378.63    6.49   2
   2  -2   3   47.06    1.41   4
  -2   2  -3   43.03    1.41   1
  -2  -2  -3   45.22    1.07   4
  -2   2  -3   45.63    1.30   2
  -2  -2  -3   49.54    1.53   3
   2   2   3   47.28    1.35   1
   2   2   3   45.69    1.32   2
  -3  -2  -3  131.67    3.19   3
   3  -2   3  128.11    2.98   4
  -3   2  -3  127.66    2.83   2
  -3   2  -3  133.56    2.84   3
   3   2   3  135.10    2.91   1
   3   2   3  131.50    2.92   2
  -3   2  -3  131.46    3.09   1
  -4   2  -3   94.09    2.60   1
   4   2   3   88.15    2.32   1
  -4  -2  -3   87.42    2.62   3
   4   2   3   91.60    2.46   2
  -4   2  -3   91.78    2.35   3
   4  -2   3   90.60    2.42   4
  -4   2  -3   92.01    2.34   2
  -5   2  -3  168.57    3.83   2
  -5   2  -3  174.04    3.98   3
   5  -2   3  159.06    3.90   4
  -5   2  -3  170.21    4.13   1
   5   2   3  166.41    3.94   2
  -6   2  -3   64.21    2.22   2
   6   2   3   58.44    2.31   2
   6  -2   3   63.71    2.34   1
  -6  -2  -3   64.17    2.52   3
   6  -2   3   58.79    2.30   5
  -7   2  -3   20.13    1.60   2
  -7  -2  -3   22.76    1.82   3
   7   2   3   20.56    1.67   2
   7   3  -3   -0.31    1.00   2
  -7  -3   3    0.44    1.11   3
   6   3  -3    1.31    0.86   2
  -6   3   3    0.73    0.82   4
  -6  -3   3    0.25    0.84   3
  -6   3   3    2.65    0.93   1
  -5   3   3   25.66    1.52   4
   5   3  -3   24.64    1.44   2
   5  -3  -3   25.16    1.46   3
  -5  -3   3   21.56    1.51   3
  -5  -3   3   26.63    1.45   4
  -5   3   3   24.41    1.51   1
  -4  -3   3  286.19    5.85   4
  -4  -3   3  286.25    6.34   3
  -4   3   3  288.64    6.04   1
   4   3  -3  281.69    5.83   2
  -4   3   3  290.72    5.35   2
   4  -3  -3  287.03    6.09   3
  -4   3   3  297.22    6.21   4
   3  -3  -3  406.65    8.16   3
  -3   3   3  421.05    7.25   2
  -3  -3   3  402.30    7.94   4
   3   3  -3  415.99    7.75   2
  -3   3   3  417.84    8.22   4
  -3  -3   3  438.84    8.43   3
  -3   3   3  417.34    8.09   1
  -2  -3   3  173.59    3.79   3
  -2  -3   3  174.90    3.66   4
   2   3  -3  167.20    3.54   2
  -2   3   3  175.86    3.10   2
  -2   3   3  167.93    3.72   1
  -2   3   3  170.17    3.78   4
   2  -3  -3  168.20    3.67   3
   2   3  -3  174.96    3.31   1
  -1  -3   3  337.12    6.50   4
  -1   3   3  336.82    5.80   2
  -1   3   3  344.97    6.53   1
   1  -3  -3  339.64    6.53   4
   1  -3  -3  335.65    6.59   3
   1   3  -3  340.42    6.18   2
   1   3  -3  341.76    6.25   1
  -1  -3   3  342.72    6.55   3
   0   3   3  506.49    9.30   1
   0   3  -3  505.99    8.81   2
   0   3   3  503.16    8.58   2
   0  -3   3  506.51    9.31   3
   0  -3  -3  506.99    9.29   4
   0   3  -3  507.12    9.19   1
   0  -3  -3  508.84    9.56   3
   0  -3   3  503.12    9.38   4
   1   3   3   47.20    1.44   1
   1  -3   3   49.08    1.51   4
  -1   3  -3   49.60    1.50   1
  -1  -3  -3   48.73    1.53   3
  -1   3  -3   50.97    1.38   2
  -1  -3  -3   49.61    1.33   4
   1   3   3   48.66    1.30   2
   2   3   3   28.59    1.12   1
  -2  -3  -3   27.75    0.91   4
  -2  -3  -3   26.66    1.25   3
   2   3   3   30.17    1.10   2
  -2   3  -3   27.47    1.06   2
   2  -3   3   30.91    1.24   4
  -2   3  -3   28.56    1.21   1
  -3   3  -3   15.62    0.95   2
  -3  -3  -3   16.04    0.72   4
   3   3   3   16.75    0.99   2
  -3  -3  -3   14.33    1.02   3
   3  -3   3   14.68    1.05   4
  -3   3  -3   14.20    1.03   1
   3   3   3   19.26    1.04   1
  -4  -3  -3   -0.33    0.56   3
   4   3   3   -0.65    0.52   2
  -4   3  -3    0.09    0.60   1
  -4   3  -3   -0.12    0.49   2
   4  -3   3    0.49    0.53   4
   4   3   3    0.68    0.52   1
  -5   3  -3    1.80    0.66   2
   5  -3   3    2.10    0.71   4
  -5   3  -3    1.22    0.78   1
   5   3   3    2.02    0.72   2
  -5  -3  -3    0.18    0.72   3
  -6  -3  -3    6.79    1.22   3
  -6   3  -3    9.38    1.06   2
   6   3   3    8.83    1.16   2
  -6   3  -3    9.04    1.21   1
   7  -3   3   28.35    1.93   1
   7  -3   3   34.18    2.08   5
   7   3   3   29.54    1.99   2
  -7  -3  -3   33.33    2.20   3
   6   4  -3  119.83    3.59   2
   6  -4  -3  119.05    3.72   4
  -6  -4   3  118.91    3.89   3
  -6   4   3  119.72    3.63   1
  -5   4   3  222.02    5.27   1
   5  -4  -3  216.01    5.32   4
   5   4  -3  227.81    5.15   2
  -5  -4   3  222.94    5.56   3
   4   4  -3   88.11    2.58   2
  -4  -4   3   84.41    2.74   3
  -4   4   3   87.82    2.68   1
  -4  -4   3   83.30    2.39   4
   4  -4  -3   82.44    2.64   4
  -3  -4   3    2.85    0.68   3
   3   4  -3    2.65    0.66   2
  -3   4   3    2.05    0.67   1
  -3  -4   3    3.12    0.62   4
   3  -4  -3    2.57    0.62   3
   3  -4  -3    2.51    0.68   4
  -2   4   3   91.23    2.55   1
  -2  -4   3   90.58    2.41   4
  -2   4   3   93.75    1.91   2
   2   4  -3   95.23    2.17   1
   2  -4  -3   95.84    2.45   3
   2   4  -3   93.61    2.41   2
   2  -4  -3   93.61    2.56   4
  -2  -4   3   92.92    2.50   3
   1  -4  -3  108.55    2.70   4
  -1   4   3  108.70    2.75   1
  -1  -4   3  108.88    2.58   3
  -1   4   3  108.33    2.18   2
   1   4  -3  110.22    2.49   1
   1   4  -3  108.28    2.57   2
  -1  -4   3  106.05    2.68   4
   1  -4  -3  108.77    2.63   3
   0  -4  -3   62.92    1.82   4
   0  -4   3   64.83    1.63   3
   0  -4   3   67.56    1.94   4
   0   4   3   61.63    1.55   2
   0  -4  -3   65.22    1.88   3
   0   4  -3   64.56    1.77   2
   0   4   3   65.25    1.92   1
   0   4  -3   63.36    1.81   1
  -1  -4  -3   15.02    0.90   4
   1   4   3   16.85    0.86   2
  -1  -4  -3   15.14    1.03   3
  -1   4  -3   14.84    1.00   1
  -1   4  -3   15.13    0.92   2
   1   4   3   14.43    0.93   1
   1  -4   3   16.52    1.06   4
  -2  -4  -3   24.85    1.04   4
   2  -4   3   26.04    1.30   4
  -2   4  -3   24.64    1.28   1
   2   4   3   25.68    1.13   2
  -2   4  -3   23.11    1.06   2
   2   4   3   25.29    1.16   1
  -2  -4  -3   26.27    1.33   3
   3   4   3   47.91    1.60   1
  -3   4  -3   44.38    1.77   1
   3  -4   3   45.42    1.81   4
   3   4   3   46.55    1.65   2
  -3   4  -3   46.42    1.52   2
  -3  -4  -3   41.68    1.77   3
  -3  -4  -3   45.43    1.36   4
  -4   4  -3    0.11    0.53   2
   4  -4   3    0.99    0.67   4
  -4   4  -3   -0.26    0.65   1
  -4  -4  -3    0.35    0.68   3
   4   4   3    0.99    0.62   2
  -5   4  -3    0.88    0.70   2
   5   4   3   -0.48    0.70   2
  -5   4  -3    0.38    0.80   1
  -5  -4  -3    0.62    0.77   3
   5  -4   3    0.83    0.75   4
  -6   4  -3   26.06    1.81   1
  -6  -4  -3   26.63    1.94   3
   6  -4   3   26.15    1.86   4
   6   4   3   25.66    1.73   2
  -6  -5   3   62.05    2.82   3
  -6   5   3   61.73    2.75   1
   6   5  -3   59.68    2.61   2
   6  -5  -3   59.26    2.70   4
  -5   5   3   64.22    2.59   1
   5  -5  -3   66.72    2.67   4
   5   5  -3   72.10    2.59   2
  -5  -5   3   70.95    2.76   3
  -4  -5   3   27.36    1.66   3
  -4  -5   3   29.55    1.54   4
  -4   5   3   25.00    1.55   1
   4   5  -3   27.92    1.56   2
   4  -5  -3   25.27    1.62   4
   3   5  -3    1.66    0.67   2
  -3  -5   3    2.57    0.73   3
  -3  -5   3    1.74    0.61   4
   3  -5  -3    1.26    0.71   4
  -3   5   3    2.18    0.78   1
   2   5  -3    7.22    0.85   2
   2  -5  -3    6.25    0.75   3
  -2  -5   3    6.49    0.79   3
  -2  -5   3    6.44    0.80   4
   2  -5  -3    8.25    0.90   4
  -2   5   3    7.99    0.91   1
  -1   5   3   84.50    2.51   1
   1  -5  -3   84.86    2.35   3
   1   5  -3   81.56    2.29   2
   1  -5  -3   85.98    2.49   4
  -1   5   3   86.55    1.97   2
  -1  -5   3   85.87    2.48   4
  -1  -5   3   85.21    2.30   3
   1   5  -3   86.82    2.30   1
   0  -5   3   93.94    2.66   4
   0   5   3   89.92    2.18   2
   0   5  -3   98.07    2.56   1
   0   5   3   95.25    2.64   1
   0   5  -3   96.22    2.43   2
   0  -5  -3   98.07    2.60   3
   0  -5  -3   90.45    2.53   4
   1   5   3  144.73    3.19   2
   1  -5   3  148.89    3.66   4
  -1   5  -3  151.67    3.60   1
  -1  -5  -3  150.45    3.43   4
  -1  -5  -3  148.03    3.61   3
  -1   5  -3  145.69    3.26   2
   1   5   3  145.93    3.51   1
  -2   5  -3   57.96    2.07   1
  -2  -5  -3   65.40    2.15   3
  -2   5  -3   61.48    1.79   2
   2  -5   3   58.51    2.11   4
  -2  -5  -3   60.05    1.82   4
   2   5   3   59.40    1.86   2
   2   5   3   57.55    1.92   1
   3   5   3   62.76    2.04   1
  -3   5  -3   61.60    1.87   2
  -3  -5  -3   65.83    2.34   3
   3   5   3   64.21    2.11   2
  -3   5  -3   64.25    2.28   1
   3  -5   3   64.18    2.31   4
  -4   5  -3   75.22    2.17   2
  -4  -5  -3   70.95    2.62   3
   4  -5   3   68.88    2.52   4
   4   5   3   69.53    2.37   2
  -4   5  -3   67.68    2.55   1
  -5   5  -3    9.75    1.29   1
   5   5   3    8.11    1.12   2
  -5  -5  -3    6.73    1.19   3
   5  -5   3    8.62    1.25   4
  -6   5  -3    2.55    1.21   1
  -6  -5  -3    3.07    1.21   3
   6  -5   3    1.16    1.08   4
   6   5   3    5.96    1.16   2
  -5   6   3    3.64    1.10   1
   5   6  -3    4.57    1.12   2
   5  -6  -3    4.48    1.18   4
  -5  -6   3    4.66    1.20   3
  -4   6   3   53.06    2.32   1
   4   6  -3   50.97    2.21   2
  -4  -6   3   51.52    2.33   3
   4  -6  -3   50.08    2.30   4
  -3  -6   3   29.00    1.68   3
  -3  -6   3   29.24    1.56   4
   3  -6  -3   27.61    1.68   4
  -3   6   3   29.19    1.69   1
   3   6  -3   25.85    1.55   2
   2  -6  -3   65.51    2.39   4
  -2   6   3   65.52    2.39   1
  -2  -6   3   68.00    2.33   4
  -2  -6   3   71.60    2.33   3
   2   6  -3   63.98    2.18   2
   1   6  -3  428.46    8.23   2
   1  -6  -3  439.48    8.83   4
  -1  -6   3  431.89    8.77   4
   1   6  -3  435.19    8.50   1
   0   6   3   97.45    2.88   1
   0   6   3  102.14    2.44   2
   0   6  -3  100.79    2.68   2
   0  -6  -3   99.73    2.78   3
   0  -6  -3   95.17    2.80   4
   0  -6   3  100.83    2.96   4
   0   6  -3   99.13    2.80   1
   1   6   3   26.44    1.46   1
  -1   6  -3   26.34    1.47   1
   1   6   3   24.51    1.31   2
  -1   6  -3   27.67    1.37   2
  -1  -6  -3   27.94    1.49   4
  -1  -6  -3   27.91    1.52   3
   1  -6   3   25.64    1.55   4
  -2  -6  -3   46.35    1.95   3
   2  -6   3   45.98    2.02   4
  -2  -6  -3   48.37    1.81   4
  -2   6  -3   49.00    2.02   1
   2   6   3   48.06    1.89   1
  -2   6  -3   46.60    1.66   2
   2   6   3   48.44    1.79   2
  -3   6  -3   12.17    1.20   1
  -3  -6  -3   12.44    1.24   3
   3   6   3   11.63    1.08   2
   3  -6   3   12.08    1.22   4
  -4   6  -3   39.13    2.09   1
   4  -6   3   52.03    2.28   4
   4   6   3   45.55    2.04   2
  -4  -6  -3   44.48    2.21   3
   5   6   3   23.72    1.72   2
   5  -6   3   25.48    1.91   4
  -5  -6  -3   26.25    1.93   3
  -5   6  -3   26.26    1.89   1
   4  -7  -3    4.95    1.17   4
  -4  -7   3    4.47    1.24   3
   4   7  -3    4.52    1.13   2
  -4   7   3    5.94    1.21   1
   3  -7  -3    2.36    1.00   4
  -3  -7   3    3.73    0.91   4
   3   7  -3    2.75    0.95   2
  -3   7   3    1.46    0.96   1
  -2   7   3    6.80    1.08   1
  -2  -7   3    7.07    1.08   4
   2   7  -3    5.80    1.01   2
   2  -7  -3    5.03    0.99   4
  -1   7   3   34.67    1.82   1
  -1  -7   3   39.63    1.99   4
   1  -7  -3   33.18    1.84   4
   1   7  -3   38.26    1.81   2
   0   7   3    2.86    0.85   1
   0  -7   3    2.51    0.86   4
   0   7  -3    3.18    0.86   1
   0   7  -3    4.00    0.83   2
   0  -7  -3    4.40    0.94   4
   1  -7   3    4.58    1.02   4
  -1  -7  -3    5.01    0.92   4
  -1  -7  -3    4.49    0.91   3
   1   7   3    5.51    0.98   1
  -1   7  -3    4.89    1.00   1
  -1   7  -3    5.31    0.90   2
  -2   7  -3   10.11    1.23   1
  -2  -7  -3   12.52    1.27   3
   2   7   3   16.12    1.25   2
   2  -7   3   12.29    1.31   4
   3   7   3    1.35    0.86   2
   3  -7   3    2.65    0.99   4
  -3   7  -3    2.47    1.00   1
  -3  -7  -3    0.64    0.90   3
  -4  -7  -3  147.47    4.42   3
   4   7   3  136.85    3.92   2
  -4   7  -3  144.63    4.38   1
   4  -7   3  144.95    4.37   4
  -3   8   3   90.79    3.44   1
   3   8  -3   97.93    3.23   2
   3  -8  -3   85.51    3.34   4
   2   8  -3    5.42    1.17   2
  -2   8   3    4.89    1.21   1
  -2  -8   3    7.56    1.26   4
   2  -8  -3    5.41    1.18   4
   1   8  -3   13.93    1.36   2
   1  -8  -3   13.57    1.38   4
  -1   8   3   10.76    1.36   1
  -1  -8   3   17.54    1.58   4
   0  -8   3    2.32    1.00   4
   0   8   3    2.31    1.02   1
   0   8  -3    1.86    1.02   1
   0  -8  -3    3.48    1.01   4
   1   8   3   41.46    2.15   1
   1  -8   3   47.87    2.39   4
  -1  -8  -3   46.31    2.21   4
  -1   8  -3   41.05    2.23   1
  -2   8  -3   13.88    1.51   1
   2  -8   3   10.03    1.41   4
  -3   8  -3  125.68    4.09   1
   3  -8   3  121.00    4.07   4
  -7   0   4    2.88    1.11   3
  -6   0   4    8.69    1.12   3
  -6   0   4    9.23    1.05   4
   6   0  -4   12.17    1.08   2
   5   0  -4   60.00    1.89   2
  -5   0   4   57.84    2.01   4
  -5   0   4   58.00    2.15   3
  -4   0   4    1.28    0.49   4
  -4   0   4    1.47    0.40   1
  -4   0   4    0.89    0.52   3
   4   0  -4    1.16    0.46   2
   3   0  -4  438.59    7.69   2
  -3   0   4  436.11    8.49   3
  -3   0   4  429.05    8.22   4
  -3   0   4  439.91    7.86   1
   2   0  -4  642.16   10.81   2
  -2   0   4  637.82   11.87   3
  -2   0   4  633.94   11.55   4
  -2   0   4  644.21   11.21   1
  -1   0   4 2337.97   42.10   4
  -1   0   4 2435.82   43.22   3
   1   0  -4 2466.83   39.74   2
  -1   0   4 2436.82   41.83   1
   0   0   4 2635.87   45.19   4
   0   0   4 2560.55   44.69   1
   0   0  -4 2565.38   46.34   3
   0   0  -4 2615.67   42.63   2
  -1   0  -4 2744.51   49.35   3
   1   0   4 2824.21   47.63   1
   1   0   4 2769.22   48.41   4
  -1   0  -4 2725.45   45.37   2
  -2   0  -4   17.12    0.79   2
   2   0   4   16.94    0.80   1
   2   0   4   16.21    0.60   4
  -2   0  -4   17.33    0.80   3
   2   0   4   17.40    0.81   5
  -3   0  -4  388.54    7.09   2
   3   0   4  393.77    7.38   5
   3   0   4  395.06    7.39   1
  -3   0  -4  386.90    7.58   3
   4   0   4    8.67    0.77   1
  -4   0  -4    7.33    0.76   3
   4   0   4    8.13    0.74   5
  -4   0  -4    9.14    0.63   4
  -4   0  -4    9.48    0.80   2
  -5   0  -4   93.32    2.76   3
   5   0   4  100.09    2.71   1
  -5   0  -4   96.34    2.67   2
  -6   0  -4 1374.94   24.05   2
  -6   0  -4 1408.10   26.04   3
   6   0   4 1373.50   25.00   1
   7   0   4  250.12    5.92   2
  -7   0  -4  270.67    6.41   3
  -7   1   4   64.57    2.72   3
  -7   1   4   65.49    2.57   4
  -7  -1   4   65.49    2.81   3
   7   1  -4   69.42    2.62   2
   6   1  -4   22.83    1.48   2
  -6   1   4   26.21    1.65   3
  -6  -1   4   27.27    1.70   3
  -6   1   4   22.64    1.47   4
  -6  -1   4   28.52    1.55   4
   5  -1  -4   18.27    1.09   2
  -5   1   4   21.56    1.31   4
  -5   1   4   18.63    1.31   3
  -5  -1   4   20.53    1.21   4
  -5  -1   4   19.09    1.38   3
   5   1  -4   19.98    1.19   2
  -5   1   4   20.93    1.23   1
  -4   1   4   43.48    1.59   4
   4   1  -4   39.76    1.44   2
  -4  -1   4   41.45    1.52   4
  -4   1   4   39.47    1.40   1
  -4   1   4   41.15    1.60   3
  -4  -1   4   38.92    1.65   3
   4  -1  -4   37.97    1.31   2
   3   1  -4  350.45    6.42   2
  -3   1   4  355.45    6.85   4
  -3   1   4  347.23    6.98   3
  -3  -1   4  353.49    6.76   4
  -3  -1   4  348.22    7.03   3
   3  -1  -4  354.41    6.21   2
  -3   1   4  350.23    6.58   1
  -2  -1   4  129.32    2.82   3
   2   1  -4  124.42    2.56   2
  -2  -1   4  124.41    2.70   4
  -2   1   4  125.17    2.76   4
  -2   1   4  126.22    2.60   1
   2  -1  -4  129.73    2.35   2
   2  -1  -4  118.50    2.76   3
  -1   1   4   45.64    1.16   1
   1  -1  -4   41.89    1.21   3
  -1  -1   4   46.27    1.19   3
   1   1  -4   42.40    1.13   2
  -1  -1   4   43.83    1.21   4
  -1   1   4   43.57    1.20   4
   0  -1  -4    9.43    0.42   2
   0   1  -4    8.93    0.61   2
   0   1  -4   10.44    0.57   1
   0   1   4    9.42    0.61   1
   0  -1  -4    8.88    0.66   3
   0   1  -4    9.77    0.44   3
   0   1   4   10.14    0.51   4
   0  -1   4    9.98    0.65   4
  -1  -1  -4    0.13    0.25   2
  -1   1  -4    0.42    0.30   1
  -1   1  -4   -0.12    0.29   2
   1   1   4    0.87    0.29   1
  -1  -1  -4    0.50    0.30   3
   1  -1   4   -0.15    0.27   4
  -2   1  -4   76.38    1.67   3
  -2  -1  -4   70.30    1.88   3
  -2  -1  -4   74.90    1.75   2
  -2   1  -4   76.47    1.76   2
   2   1   4   70.75    1.78   1
  -2   1  -4   75.11    1.87   1
   2  -1   4   72.60    1.71   4
  -3  -1  -4  173.89    3.88   3
  -3  -1  -4  179.00    3.63   2
  -3   1  -4  172.00    3.58   2
   3  -1   4  176.06    3.60   4
  -3   1  -4  179.98    3.70   3
   3   1   4  179.52    3.69   1
  -3   1  -4  172.63    3.78   1
   4  -1   4    9.15    0.70   4
  -4  -1  -4    8.26    0.80   2
  -4   1  -4    7.81    0.75   2
  -4  -1  -4    9.47    0.65   4
   4   1   4    8.93    0.78   1
  -4  -1  -4    9.15    0.85   3
  -4   1  -4    9.81    0.76   3
   5  -1   4    2.34    0.67   1
   5  -1   4    2.78    0.72   5
  -5  -1  -4    2.36    0.71   3
  -5   1  -4    2.18    0.68   2
   5   1   4    2.28    0.64   1
  -5   1  -4    1.96    0.67   3
  -5  -1  -4    2.26    0.68   2
  -6  -1  -4    0.91    0.81   3
  -6   1  -4   -0.49    0.69   2
  -6   1  -4    1.30    0.78   3
   6   1   4    0.90    0.67   2
   6  -1   4    0.36    0.73   5
   6  -1   4    0.82    0.75   1
   7   1   4    8.99    1.22   2
  -7   1  -4    8.68    1.31   2
  -7  -1  -4    8.11    1.42   3
  -7   2   4   10.31    1.35   4
   7   2  -4   10.08    1.33   2
  -7  -2   4   11.18    1.50   3
  -6   2   4    7.28    1.09   4
   6   2  -4    8.21    1.06   2
   6  -2  -4    9.53    1.16   3
  -6  -2   4    9.99    1.22   3
  -5   2   4   92.20    2.62   1
  -5  -2   4   85.39    2.85   3
  -5   2   4   87.59    2.71   4
   5  -2  -4   92.99    2.77   3
   5   2  -4   87.17    2.60   2
  -5  -2   4   94.80    2.61   4
  -4   2   4  179.79    4.20   4
   4  -2  -4  181.08    4.22   3
   4   2  -4  180.83    3.99   2
  -4  -2   4  186.20    4.38   3
  -4   2   4  185.16    4.05   1
  -4  -2   4  181.47    4.02   4
   3   2  -4    1.89    0.49   2
  -3  -2   4    2.88    0.50   4
  -3   2   4    2.59    0.36   2
   3  -2  -4    3.47    0.54   3
  -3   2   4    2.28    0.50   1
  -3  -2   4    2.15    0.55   3
  -3   2   4    2.51    0.54   4
   2  -2  -4   21.10    0.95   3
  -2   2   4   22.07    0.99   1
  -2  -2   4   20.79    0.98   3
  -2  -2   4   19.53    0.95   4
   2   2  -4   20.44    0.93   2
  -2   2   4   21.26    0.99   4
  -1  -2   4   10.95    0.73   4
   1   2  -4   10.79    0.50   1
  -1  -2   4   11.40    0.67   3
   1  -2  -4   11.70    0.75   3
  -1   2   4    9.61    0.71   4
  -1   2   4   11.83    0.74   1
   1   2  -4   10.72    0.70   2
   0  -2   4    0.26    0.30   4
   0   2  -4    0.51    0.26   1
   0   2   4    0.17    0.30   1
   0  -2  -4    0.23    0.31   3
   0  -2   4    0.63    0.20   3
   0   2  -4    0.29    0.30   2
   0   2   4    0.20    0.18   2
   0   2   4    0.38    0.27   4
  -1  -2  -4 1102.22   18.24   2
   1  -2   4 1104.65   19.43   4
  -1   2  -4 1090.46   18.32   2
   1   2   4 1115.24   19.24   1
  -1  -2  -4 1078.60   19.94   3
  -1   2  -4 1088.91   19.24   1
  -1  -2  -4 1089.15   19.20   4
  -2   2  -4   26.63    1.05   2
   2   2   4   27.65    1.07   1
  -2   2  -4   26.45    1.08   1
   2  -2   4   24.98    1.06   4
  -2  -2  -4   25.23    1.15   3
  -2  -2  -4   27.03    1.06   2
  -3   2  -4    7.06    0.73   1
   3   2   4    6.68    0.64   1
  -3   2  -4    6.00    0.60   2
  -3  -2  -4    6.09    0.69   3
  -3   2  -4    6.36    0.51   3
  -3  -2  -4    4.80    0.61   2
   3  -2   4    6.22    0.62   4
  -4   2  -4  107.65    2.57   3
  -4  -2  -4  102.12    2.88   3
  -4   2  -4  106.25    2.82   1
   4   2   4   98.34    2.56   1
   4  -2   4   98.94    2.60   4
  -4   2  -4  101.74    2.57   2
  -4  -2  -4  101.42    2.66   2
  -5   2  -4   37.92    1.75   1
  -5   2  -4   38.86    1.59   3
   5   2   4   34.03    1.50   1
  -5   2  -4   33.78    1.52   2
   5  -2   4   35.80    1.53   4
  -5  -2  -4   31.59    1.69   3
   5   2   4   37.02    1.62   2
  -6   2  -4   23.12    1.46   2
   6  -2   4   21.30    1.49   1
  -6  -2  -4   22.45    1.63   3
   6   2   4   20.83    1.45   2
   6  -2   4   25.75    1.59   5
  -7  -2  -4    7.46    1.31   3
  -7   2  -4   13.33    1.38   2
   7   2   4    9.07    1.28   2
   7   3  -4   18.39    1.67   2
  -7   3   4   18.06    1.71   4
  -7  -3   4   19.36    1.80   3
  -6   3   4    1.11    0.86   4
  -6  -3   4    0.50    0.91   3
  -6   3   4    1.65    0.93   1
   6   3  -4    2.49    0.85   2
  -5  -3   4   98.28    3.16   3
  -5   3   4  107.46    3.03   1
   5   3  -4  102.88    2.96   2
  -5  -3   4  108.42    2.90   4
   5  -3  -4  102.37    3.01   3
  -5   3   4  103.70    3.10   4
  -4   3   4   -0.41    0.57   4
  -4   3   4    0.18    0.56   1
   4  -3  -4    0.87    0.58   3
  -4  -3   4   -0.12    0.57   3
  -4  -3   4    0.35    0.54   4
   4   3  -4    0.60    0.61   2
   3  -3  -4  560.96   11.03   3
  -3   3   4  581.90   11.00   4
  -3  -3   4  571.12   10.76   4
  -3   3   4  578.46    9.77   2
  -3   3   4  578.26   10.81   1
  -3  -3   4  580.55   11.21   3
   3   3  -4  579.90   10.36   2
  -2   3   4  358.82    6.90   1
   2   3  -4  357.48    6.58   2
  -2  -3   4  354.77    6.86   4
  -2  -3   4  351.09    7.03   3
   2  -3  -4  351.12    6.99   3
  -2   3   4  356.87    6.98   4
   2   3  -4  350.51    6.38   1
  -1  -3   4  669.51   12.37   3
  -1   3   4  672.32   12.16   1
   1   3  -4  667.41   11.56   2
  -1   3   4  666.18   12.23   4
   1  -3  -4  684.87   12.48   3
   1   3  -4  663.66   11.83   1
  -1  -3   4  655.03   12.20   4
   0   3  -4    0.36    0.37   2
   0   3   4    0.61    0.38   1
   0  -3   4    0.95    0.26   3
   0   3   4    0.77    0.26   2
   0  -3  -4    0.62    0.33   4
   0   3  -4    0.59    0.34   1
   0  -3  -4    0.41    0.38   3
   0  -3   4    0.95    0.40   4
   1   3   4   50.10    1.30   2
  -1  -3  -4   48.33    1.35   4
   1  -3   4   52.82    1.59   4
   1   3   4   52.40    1.52   1
  -1   3  -4   51.72    1.45   2
  -1  -3  -4   50.66    1.60   3
  -1   3  -4   49.03    1.52   1
  -2  -3  -4   64.63    1.95   3
   2  -3   4   61.62    1.86   4
   2   3   4   63.81    1.70   2
   2   3   4   62.84    1.77   1
  -2   3  -4   65.28    1.71   2
  -2   3  -4   62.81    1.87   1
  -2  -3  -4   63.26    1.47   4
  -3   3  -4   42.70    1.64   1
   3  -3   4   48.94    1.70   4
   3   3   4   48.31    1.59   1
  -3  -3  -4   43.75    1.72   3
   3   3   4   44.81    1.53   2
  -3   3  -4   48.45    1.53   2
  -4  -3  -4  164.55    4.12   3
  -4   3  -4  168.65    4.04   1
   4   3   4  159.87    3.72   2
   4  -3   4  164.48    3.87   4
  -4   3  -4  156.21    3.58   2
   4   3   4  158.66    3.67   1
   5  -3   4   -0.16    0.62   4
   5   3   4   -0.03    0.61   2
  -5   3  -4    0.00    0.64   2
  -5   3  -4    1.33    0.82   1
  -5  -3  -4    0.53    0.70   3
  -6  -3  -4    1.59    0.95   3
  -6   3  -4    0.87    0.89   1
  -6   3  -4    1.51    0.84   2
   6   3   4    1.99    0.90   2
   7   3   4    2.72    1.06   2
   7  -3   4    1.72    1.07   1
   7  -3   4    0.69    1.11   5
  -7  -3  -4    2.46    1.23   3
   6   4  -4   13.02    1.37   2
   6  -4  -4   12.60    1.37   4
  -6  -4   4   10.52    1.44   3
  -6   4   4   10.92    1.36   1
  -5   4   4   74.02    2.59   1
  -5   4   4   76.70    2.74   4
   5   4  -4   71.95    2.53   2
  -5  -4   4   71.83    2.70   3
  -4   4   4   37.51    1.81   4
   4  -4  -4   36.49    1.66   3
  -4  -4   4   31.57    1.64   3
   4   4  -4   34.01    1.60   2
  -4   4   4   31.67    1.60   1
  -4  -4   4   31.42    1.46   4
  -3  -4   4   26.73    1.39   3
   3   4  -4   25.75    1.35   2
   3  -4  -4   25.41    1.33   3
  -3   4   4   22.77    1.43   4
  -3   4   4   26.41    1.43   1
  -3  -4   4   28.22    1.35   4
   2   4  -4    9.97    0.63   1
  -2   4   4    9.97    0.89   1
  -2  -4   4   11.04    0.84   4
   2  -4  -4    9.53    0.85   4
   2   4  -4    9.80    0.84   2
  -2  -4   4   10.61    0.84   3
   2  -4  -4   10.79    0.84   3
  -1  -4   4    1.37    0.44   3
   1  -4  -4    3.09    0.55   3
  -1  -4   4    2.07    0.54   4
   1   4  -4    1.62    0.44   1
  -1   4   4    2.46    0.33   2
   1  -4  -4    1.78    0.53   4
  -1   4   4    1.71    0.52   1
   1   4  -4    2.55    0.55   2
   0   4   4  379.36    6.58   2
   0   4  -4  375.77    6.89   2
   0   4   4  372.48    7.31   1
   0  -4   4  386.79    7.39   4
   0  -4   4  378.91    7.09   3
   0   4  -4  374.55    7.16   1
   0  -4  -4  368.63    7.22   4
   0  -4  -4  368.70    7.43   3
   1   4   4   48.92    1.63   1
  -1   4  -4   47.44    1.51   2
  -1  -4  -4   50.12    1.50   4
  -1   4  -4   52.57    1.68   1
  -1  -4  -4   48.12    1.70   3
   1   4   4   51.60    1.44   2
   1  -4   4   46.94    1.67   4
   2  -4   4   66.02    2.10   4
  -2   4  -4   67.00    2.10   1
   2   4   4   68.72    2.00   1
   2   4   4   68.71    1.88   2
  -2  -4  -4   67.77    1.74   4
  -2   4  -4   66.42    1.84   2
  -2  -4  -4   70.84    2.18   3
   3   4   4    3.42    0.64   2
   3  -4   4    5.16    0.79   4
  -3  -4  -4    2.92    0.73   3
  -3   4  -4    3.55    0.61   2
   3   4   4    3.65    0.68   1
  -3   4  -4    4.28    0.75   1
   4   4   4   13.83    1.10   2
  -4  -4  -4   12.70    1.19   3
  -4   4  -4   11.05    1.10   1
   4  -4   4   12.67    1.12   4
  -4   4  -4   12.18    0.95   2
   5  -4   4    5.28    1.01   4
  -5  -4  -4    5.63    1.07   3
  -5   4  -4    6.70    0.92   2
   5   4   4    5.16    0.97   2
  -5   4  -4    5.06    1.05   1
   6   4   4   66.01    2.60   2
  -6  -4  -4   65.24    2.81   3
  -6   4  -4   69.17    2.79   1
   6   5  -4   12.37    1.44   2
   6  -5  -4   11.53    1.52   4
  -6  -5   4   11.66    1.59   3
  -6   5   4    9.69    1.38   1
  -5   5   4   82.46    2.87   1
   5   5  -4   72.45    2.71   2
  -5  -5   4   82.37    3.00   3
   5  -5  -4   80.03    2.92   4
   4  -5  -4    0.86    0.77   4
   4   5  -4    0.54    0.71   2
  -4  -5   4    1.12    0.66   4
  -4  -5   4    0.13    0.74   3
  -4   5   4    0.63    0.79   1
  -3  -5   4   40.28    1.65   4
   3   5  -4   42.69    1.75   2
   3  -5  -4   38.65    1.86   4
  -3   5   4   42.73    1.86   1
  -3  -5   4   37.16    1.75   3
  -2  -5   4    1.08    0.60   4
   2   5  -4    1.91    0.65   2
   2  -5  -4    1.42    0.59   3
   2  -5  -4    0.84    0.63   4
  -2  -5   4    0.75    0.56   3
  -2   5   4    1.70    0.68   1
   1  -5  -4   91.46    2.61   4
  -1  -5   4   93.40    2.42   3
  -1  -5   4   91.11    2.62   4
   1  -5  -4   91.27    2.50   3
  -1   5   4   90.71    2.65   1
   1   5  -4   92.59    2.48   2
   1   5  -4   92.83    2.41   1
   0   5   4  471.93    8.31   2
   0  -5   4  476.22    9.29   4
   0  -5  -4  467.65    9.13   4
   0   5  -4  467.70    8.65   2
   0   5   4  476.52    9.22   1
   0  -5  -4  472.42    9.34   3
   0   5  -4  482.07    9.06   1
  -1  -5  -4  148.06    3.67   3
   1   5   4  148.42    3.18   2
  -1   5  -4  146.40    3.58   1
   1  -5   4  145.25    3.68   4
  -1  -5  -4  150.99    3.43   4
   1   5   4  148.60    3.57   1
  -1   5  -4  153.41    3.34   2
   2   5   4    5.74    0.79   1
  -2   5  -4    5.12    0.67   2
   2  -5   4    5.36    0.82   4
  -2   5  -4    4.81    0.82   1
  -2  -5  -4    5.03    0.66   4
   2   5   4    6.32    0.73   2
  -2  -5  -4    7.53    0.90   3
   3   5   4  175.12    3.91   2
   3  -5   4  161.22    4.19   4
   3   5   4  173.35    3.97   1
  -3   5  -4  166.71    3.69   2
  -3  -5  -4  168.16    4.31   3
  -3   5  -4  164.86    4.20   1
  -4  -5  -4   86.10    2.92   3
  -4   5  -4   76.86    2.74   1
  -4   5  -4   81.88    2.38   2
   4  -5   4   81.83    2.79   4
   4   5   4   87.58    2.65   2
   5   5   4    8.78    1.18   2
  -5   5  -4   13.39    1.43   1
   5  -5   4    7.68    1.22   4
  -5  -5  -4    9.77    1.27   3
   6  -5   4   -0.24    1.06   4
  -6   5  -4   -0.32    1.03   1
  -6  -5  -4   -0.10    1.12   3
   6   5   4    0.33    0.99   2
   5   6  -4   36.00    2.08   2
  -5  -6   4   38.04    2.17   3
   5  -6  -4   36.34    2.15   4
  -5   6   4   37.00    2.14   1
  -4  -6   4   33.59    1.93   3
  -4   6   4   33.41    1.90   1
   4  -6  -4   36.45    1.96   4
   4   6  -4   31.22    1.78   2
  -3   6   4   33.07    1.81   1
   3   6  -4   32.85    1.70   2
   3  -6  -4   33.29    1.79   4
  -3  -6   4   32.60    1.76   3
  -3  -6   4   33.64    1.67   4
  -2   6   4   -0.56    0.65   1
  -2  -6   4   -0.22    0.64   4
   2   6  -4    0.58    0.65   2
   2  -6  -4   -0.17    0.66   4
  -2  -6   4    0.86    0.70   3
   1  -6  -4  129.74    3.33   3
  -1  -6   4  126.84    3.46   4
   1  -6  -4  127.36    3.44   4
   1   6  -4  126.40    3.23   1
   1   6  -4  127.87    3.23   2
  -1   6   4  125.21    3.45   1
   0   6   4   50.32    2.02   1
   0   6  -4   52.66    1.96   1
   0   6  -4   55.32    1.93   2
   0  -6  -4   55.89    2.04   4
   0  -6   4   52.28    2.10   4
   0  -6  -4   54.23    2.01   3
  -1   6  -4    6.29    0.91   1
   1   6   4    5.29    0.75   2
   1  -6   4    5.99    0.94   4
  -1   6  -4    6.37    0.81   2
   1   6   4    3.96    0.81   1
  -1  -6  -4    5.81    0.80   4
  -1  -6  -4    5.90    0.87   3
   2   6   4   -0.24    0.66   1
   2  -6   4    0.79    0.70   4
  -2   6  -4    0.43    0.56   2
  -2   6  -4   -0.84    0.66   1
  -2  -6  -4   -0.02    0.65   3
   2   6   4    0.23    0.61   2
  -3  -6  -4    0.71    0.78   3
  -3   6  -4   -0.02    0.59   2
   3  -6   4   -0.14    0.76   4
   3   6   4   -0.07    0.68   2
  -3   6  -4   -0.61    0.74   1
   4  -6   4   48.12    2.25   4
  -4  -6  -4   47.11    2.34   3
   4   6   4   48.53    2.06   2
  -4   6  -4   47.68    2.24   1
  -5  -6  -4   58.26    2.76   3
   5   6   4   66.85    2.61   2
  -5   6  -4   57.39    2.69   1
   5  -6   4   63.14    2.74   4
   4  -7  -4    0.80    1.00   4
   4   7  -4    1.07    1.03   2
  -4   7   4   -0.16    0.97   1
  -3  -7   4   89.07    2.93   4
   3   7  -4   90.33    2.94   2
   3  -7  -4   87.48    3.11   4
  -3   7   4   86.78    3.13   1
   2  -7  -4   -0.16    0.80   4
  -2   7   4    0.29    0.84   1
   2   7  -4   -0.29    0.83   2
  -2  -7   4    0.22    0.83   4
  -1   7   4    2.39    0.89   1
   1   7  -4    3.60    0.90   2
   1  -7  -4    2.46    0.92   4
  -1  -7   4    3.11    0.93   4
   0  -7  -4    0.04    0.67   4
   0   7  -4   -1.23    0.71   1
   0   7  -4    1.79    0.77   2
   0  -7   4    0.30    0.79   4
   0   7   4    0.53    0.74   1
  -1  -7  -4   25.50    1.61   4
  -1   7  -4   27.28    1.57   2
  -1  -7  -4   24.71    1.59   3
   1  -7   4   21.47    1.56   4
  -1   7  -4   24.06    1.63   1
   1   7   4   21.55    1.53   1
  -2  -7  -4  125.22    3.64   3
   2   7   4  125.70    3.52   1
   2  -7   4  116.96    3.68   4
  -2   7  -4  115.97    3.60   1
   2   7   4  126.50    3.25   2
   3  -7   4   23.78    1.74   4
   3   7   4   19.77    1.47   2
  -3   7  -4   16.72    1.59   1
  -3  -7  -4   21.95    1.73   3
  -4  -7  -4  140.51    4.32   3
  -4   7  -4  130.04    4.17   1
   4  -7   4  136.83    4.23   4
   4   7   4  135.80    3.82   2
   3   8  -4   29.56    2.03   2
   3  -8  -4   27.35    2.01   4
  -3   8   4   29.98    2.13   1
   2   8  -4   18.70    1.59   2
  -2   8   4   16.20    1.63   1
  -2  -8   4   19.04    1.61   4
   2  -8  -4   14.50    1.54   4
   1  -8  -4   46.05    2.26   4
  -1   8   4   42.86    2.27   1
   1   8  -4   51.92    2.24   2
  -1  -8   4   53.85    2.51   4
   0  -8  -4   30.93    1.93   4
   0   8   4   25.27    1.76   1
   0  -8   4   29.19    1.92   4
   1  -8   4    0.71    1.01   4
   1   8   4    0.02    0.88   1
  -1   8  -4    0.67    0.98   1
  -2   8  -4   31.81    2.09   1
   2  -8   4   37.04    2.26   4
  -3  -8  -4   51.15    2.62   3
  -3   8  -4   40.60    2.40   1
   3  -8   4   43.67    2.50   4
  -7   0   5   -0.64    0.95   3
  -6   0   5    1.10    0.79   3
   6   0  -5   -0.05    0.67   2
  -6   0   5   -0.05    0.75   4
  -5   0   5    0.11    0.61   3
   5   0  -5   -0.63    0.52   2
  -5   0   5   -0.36    0.54   4
  -4   0   5   -0.15    0.48   3
  -4   0   5   -0.10    0.45   4
   4   0  -5    0.43    0.43   2
  -4   0   5    0.28    0.35   1
  -3   0   5    0.49    0.29   1
  -3   0   5   -0.28    0.36   4
  -3   0   5   -0.19    0.38   3
   3   0  -5   -0.03    0.31   2
   2   0  -5   -0.59    0.25   2
  -2   0   5    0.07    0.32   4
  -2   0   5    0.08    0.32   3
  -2   0   5    0.18    0.20   1
   1   0  -5   -0.05    0.23   2
  -1   0   5   -0.18    0.26   4
  -1   0   5    0.15    0.20   1
   1   0  -5   -0.10    0.27   3
   0   0  -5   -0.25    0.25   3
   0   0   5   -0.18    0.23   4
   0   0  -5   -0.11    0.23   2
   0   0   5   -0.14    0.23   1
  -1   0  -5    0.23    0.26   3
  -1   0  -5    0.15    0.26   2
   1   0   5    0.09    0.18   4
   1   0   5   -0.20    0.26   1
  -2   0  -5   -0.11    0.29   3
   2   0   5   -0.24    0.29   1
   2   0   5    0.25    0.32   5
   2   0   5    0.44    0.21   4
  -2   0  -5   -0.17    0.31   2
   3   0   5   -0.01    0.26   4
  -3   0  -5    0.70    0.39   2
  -3   0  -5   -0.11    0.36   3
   3   0   5    0.83    0.39   5
   3   0   5   -0.30    0.36   1
  -4   0  -5    0.12    0.47   2
  -4   0  -5   -0.20    0.48   3
   4   0   5   -0.42    0.45   1
  -5   0  -5   -0.15    0.55   3
  -5   0  -5    1.14    0.62   2
   5   0   5   -0.77    0.52   1
  -6   0  -5    1.15    0.77   2
  -6   0  -5    2.56    0.82   3
   6   0   5    1.02    0.79   1
  -7   0  -5    1.76    0.97   2
  -7   0  -5    1.34    1.05   3
   7   1  -5   40.24    2.07   2
   7  -1  -5   48.90    2.38   3
  -7   1   5   43.93    2.19   4
  -7  -1   5   42.20    2.27   3
  -6  -1   5   48.37    2.00   4
  -6   1   5   48.54    2.13   3
  -6   1   5   46.25    2.02   4
   6   1  -5   44.11    1.92   2
  -6  -1   5   47.25    2.17   3
   5  -1  -5   15.66    1.03   2
  -5  -1   5   16.05    1.14   4
  -5   1   5   15.54    1.20   3
  -5  -1   5   16.72    1.28   3
  -5   1   5   15.86    1.18   4
   5   1  -5   15.89    1.09   2
  -5   1   5   18.67    1.17   1
  -4  -1   5    2.50    0.59   4
   4  -1  -5    1.60    0.48   2
  -4   1   5    2.26    0.61   4
   4   1  -5    2.96    0.58   2
  -4   1   5    1.92    0.60   3
  -4   1   5    2.32    0.49   1
  -4  -1   5    1.55    0.62   3
   3   1  -5  134.32    2.89   2
  -3   1   5  137.39    2.89   1
  -3  -1   5  127.64    3.17   3
  -3   1   5  135.07    3.12   4
   3  -1  -5  137.60    2.70   2
  -3  -1   5  136.74    3.07   4
  -2   1   5   77.97    1.94   4
  -2  -1   5   72.68    1.92   3
  -2  -1   5   77.69    1.89   4
   2  -1  -5   74.27    1.52   2
   2   1  -5   75.62    1.76   2
   2  -1  -5   73.13    1.92   3
  -2   1   5   74.14    1.75   1
  -1  -1   5   56.92    1.47   4
  -1  -1   5   55.97    1.43   3
  -1   1   5   56.41    1.39   1
   1  -1  -5   57.55    1.50   3
  -1   1   5   57.03    1.45   4
   1   1  -5   57.27    1.38   2
   0  -1   5  774.36   14.07   4
   0   1   5  793.00   13.95   1
   0  -1  -5  790.03   13.17   2
   0   1  -5  791.66   13.30   2
   0   1   5  804.39   14.01   4
   0   1  -5  791.66   14.33   3
   0  -1  -5  808.02   14.48   3
  -1  -1  -5  209.00    3.82   2
  -1  -1  -5  208.96    4.21   3
   1  -1   5  208.19    4.02   4
  -1   1  -5  212.77    4.09   1
  -1   1  -5  211.66    3.89   2
   1   1   5  214.90    4.08   1
  -2   1  -5    9.05    0.56   3
  -2   1  -5    8.93    0.61   2
  -2   1  -5    9.38    0.64   1
   2   1   5    9.15    0.61   1
  -2  -1  -5    8.46    0.62   3
   2  -1   5    9.83    0.64   4
  -2  -1  -5    9.21    0.60   2
   3   1   5   18.65    0.99   1
   3  -1   5   18.35    0.89   4
  -3   1  -5   18.32    0.97   2
  -3  -1  -5   18.81    1.04   3
  -3  -1  -5   19.13    0.99   2
  -3   1  -5   18.39    0.90   3
  -3   1  -5   20.03    1.05   1
   4  -1   5  128.49    3.11   1
   4  -1   5  119.86    2.81   4
  -4  -1  -5  124.37    3.00   2
   4   1   5  120.21    2.98   1
  -4   1  -5  123.56    2.95   2
  -4   1  -5  126.40    2.99   3
  -4  -1  -5  120.74    3.15   3
   4  -1   5  130.70    3.12   5
   5  -1   5   17.95    1.23   1
  -5  -1  -5   16.15    1.15   2
  -5   1  -5   17.16    1.25   3
   5  -1   5   16.73    1.19   5
  -5   1  -5   17.59    1.17   2
  -5  -1  -5   18.01    1.24   3
   5   1   5   18.95    1.24   1
   6  -1   5    2.22    0.83   1
  -6   1  -5    2.39    0.81   2
  -6   1  -5    2.41    0.83   3
  -6  -1  -5    2.09    0.86   3
  -6  -1  -5    2.28    0.84   2
   6  -1   5    0.69    0.76   5
  -7   1  -5   26.80    1.84   2
   7   1   5   29.16    1.83   2
  -7  -1  -5   26.19    1.88   3
   7   2  -5   10.80    1.38   2
  -7  -2   5   12.51    1.53   3
  -7   2   5   12.76    1.41   4
   7  -2  -5   12.91    1.50   3
   6  -2  -5    6.63    1.10   3
   6   2  -5    8.62    1.13   2
  -6   2   5    5.62    1.04   4
  -6  -2   5    6.79    0.96   4
  -6  -2   5    8.16    1.14   3
   5   2  -5   26.64    1.41   2
  -5   2   5   26.19    1.47   4
  -5   2   5   27.82    1.41   1
  -5  -2   5   24.14    1.54   3
   5  -2  -5   25.79    1.50   3
  -5  -2   5   25.40    1.43   4
  -4   2   5  415.50    8.34   4
  -4  -2   5  427.41    8.58   3
  -4   2   5  421.77    8.05   1
   4   2  -5  413.81    7.84   2
   4  -2  -5  413.33    8.43   3
  -4  -2   5  407.30    8.12   4
   3   2  -5  153.12    3.31   2
  -3  -2   5  148.02    3.39   4
  -3  -2   5  156.08    3.60   3
   3  -2  -5  149.65    3.51   3
  -3   2   5  155.07    3.37   1
   3  -2  -5  152.69    2.88   2
  -3   2   5  150.83    3.52   4
  -2   2   5   10.63    0.77   1
  -2   2   5   11.84    0.82   4
  -2  -2   5   11.95    0.82   4
  -2  -2   5   10.18    0.69   3
   2   2  -5   10.79    0.69   2
   2  -2  -5   12.02    0.80   3
   1   2  -5  261.53    4.82   2
   1  -2  -5  261.88    5.20   3
  -1  -2   5  252.63    5.08   4
  -1   2   5  262.87    5.09   4
   1   2  -5  266.05    4.72   1
  -1  -2   5  261.32    5.07   3
  -1   2   5  261.68    5.04   1
   0   2  -5  116.62    2.44   1
   0  -2  -5  117.46    2.64   3
   0   2   5  122.64    2.58   1
   0   2  -5  117.11    2.44   2
   0  -2   5  117.91    2.33   3
   0   2   5  115.13    2.45   4
   0  -2   5  118.94    2.59   4
   0   2   5  118.77    2.15   2
  -1  -2  -5  225.57    4.59   3
  -1  -2  -5  217.83    4.08   2
   1   2   5  222.46    4.41   1
   1  -2   5  225.13    4.44   4
  -1  -2  -5  227.25    4.14   4
  -1   2  -5  226.59    4.42   1
  -1   2  -5  226.41    4.21   2
   2  -2   5 3160.42   55.60   4
  -2   2  -5 3211.74   52.52   2
  -2   2  -5 3190.39   55.17   1
   2   2   5 3249.82   55.08   1
  -2  -2  -5 3172.40   52.48   2
  -2  -2  -5 3154.84   57.15   3
  -3   2  -5   69.99    1.72   3
  -3  -2  -5   68.32    2.10   3
   3  -2   5   69.53    1.93   4
  -3  -2  -5   70.21    1.94   2
  -3   2  -5   69.02    2.07   1
  -3   2  -5   69.46    1.90   2
   3   2   5   72.48    1.96   1
  -4  -2  -5   -0.04    0.50   2
  -4   2  -5    0.49    0.47   3
  -4  -2  -5    0.00    0.55   3
  -4   2  -5    0.17    0.58   1
   4   2   5    0.47    0.52   1
   4  -2   5    0.54    0.51   4
  -4   2  -5    0.53    0.51   2
   5   2   5   61.24    2.10   2
  -5   2  -5   59.39    2.02   2
   5   2   5   60.00    2.02   1
  -5  -2  -5   59.53    2.26   3
  -5   2  -5   61.37    2.21   1
  -6   2  -5    3.72    0.90   2
   6  -2   5    3.84    0.99   5
  -6  -2  -5    5.29    1.04   3
   6  -2   5    3.96    0.93   1
   6   2   5    3.12    0.91   2
   7  -2   5   27.24    1.90   1
   7  -2   5   27.22    1.90   5
  -7  -2  -5   28.32    2.00   3
   7   2   5   27.67    1.88   2
  -7  -3   5    5.11    1.31   3
   7   3  -5    5.11    1.28   2
  -7   3   5    4.96    1.28   4
  -6   3   5    1.93    0.94   1
   6   3  -5    0.95    0.89   2
  -6  -3   5    0.38    0.89   3
  -6   3   5    0.44    0.86   4
  -5   3   5   60.72    2.16   1
  -5   3   5   53.51    2.18   4
  -5  -3   5   59.71    2.10   4
   5  -3  -5   58.35    2.19   3
  -5  -3   5   54.15    2.24   3
   5   3  -5   52.82    2.06   2
  -4   3   5   79.54    2.56   4
  -4   3   5   84.11    2.46   1
  -4  -3   5   84.41    2.62   3
   4   3  -5   80.39    2.39   2
  -4  -3   5   81.69    2.36   4
   4  -3  -5   80.92    2.44   3
  -3  -3   5   11.11    0.93   3
   3   3  -5   13.18    0.94   2
  -3  -3   5   14.75    1.03   4
  -3   3   5   12.38    0.93   1
  -3   3   5   12.81    0.97   4
   3  -3  -5   13.51    0.95   3
   2  -3  -5   97.57    2.52   3
  -2  -3   5  103.05    2.52   3
   2   3  -5   97.08    2.42   2
  -2   3   5   99.15    2.51   1
  -2   3   5  100.94    2.58   4
  -2  -3   5  100.07    2.49   4
  -1   3   5   79.26    2.09   4
  -1  -3   5   84.78    2.00   3
   1  -3  -5   80.82    2.15   3
   1   3  -5   79.68    2.02   2
   1   3  -5   82.47    1.84   1
  -1  -3   5   82.34    2.12   4
  -1   3   5   83.68    2.14   1
   0  -3   5    2.97    0.49   4
   0   3  -5    2.04    0.40   1
   0   3   5    3.25    0.50   1
   0  -3  -5    2.43    0.40   4
   0   3  -5    2.50    0.45   2
   0   3   5    2.72    0.31   2
   0  -3   5    2.70    0.31   3
   0  -3  -5    2.45    0.47   3
   1   3   5    2.50    0.39   2
  -1  -3  -5    2.34    0.50   3
   1   3   5    2.13    0.47   1
  -1  -3  -5    2.63    0.37   4
  -1   3  -5    2.38    0.45   2
  -1   3  -5    2.11    0.46   1
   1  -3   5    2.83    0.51   4
  -2  -3  -5   42.34    1.08   4
   2   3   5   44.01    1.46   1
   2  -3   5   45.67    1.54   4
  -2   3  -5   40.55    1.49   1
   2   3   5   41.83    1.35   2
  -2  -3  -5   45.05    1.61   3
  -2   3  -5   40.79    1.39   2
  -3  -3  -5   12.05    0.98   3
   3  -3   5   13.28    0.93   4
   3   3   5   12.85    0.86   2
  -3   3  -5   12.55    0.97   1
  -3   3  -5   13.19    0.87   2
   3   3   5   14.80    1.03   1
   4   3   5    3.78    0.70   1
   4   3   5    3.13    0.70   2
  -4  -3  -5    3.60    0.80   3
  -4   3  -5    3.83    0.79   1
  -4   3  -5    2.92    0.65   2
   4  -3   5    4.66    0.75   4
   5   3   5   45.72    1.87   2
  -5   3  -5   45.23    1.81   2
   5  -3   5   46.43    1.97   4
  -5   3  -5   47.78    2.06   1
  -5  -3  -5   43.72    2.03   3
   6   3   5   25.11    1.68   2
  -6  -3  -5   26.22    1.82   3
  -6   3  -5   26.17    1.58   2
  -6   3  -5   24.64    1.72   1
  -7   3  -5    2.35    1.09   2
   7  -3   5    2.33    1.13   1
   7  -3   5    2.32    1.18   5
   7   3   5    0.57    1.00   2
  -7  -3  -5    1.20    1.18   3
   6   4  -5    2.53    1.03   2
  -6   4   5    4.83    1.07   1
  -6   4   5    1.42    1.00   4
  -6  -4   5    3.28    1.13   3
  -5  -4   5    7.36    1.14   3
   5   4  -5   10.49    1.13   2
  -5   4   5    8.70    1.18   4
  -5  -4   5    9.41    1.05   4
  -5   4   5    9.02    1.10   1
   4  -4  -5    5.06    0.88   3
  -4   4   5    6.82    0.96   4
  -4  -4   5    5.96    0.82   4
   4   4  -5    6.95    0.92   2
  -4  -4   5    6.36    0.96   3
  -4   4   5    5.75    0.89   1
  -3   4   5  159.31    3.81   1
   3   4  -5  152.18    3.62   2
  -3  -4   5  154.84    3.67   4
   3  -4  -5  151.30    3.70   3
  -3  -4   5  156.21    3.82   3
  -3   4   5  151.56    3.83   4
  -2  -4   5  131.03    3.23   4
  -2  -4   5  132.97    3.24   3
  -2   4   5  136.55    3.33   1
   2   4  -5  139.67    3.19   2
   2  -4  -5  133.19    3.27   3
  -2   4   5  132.33    3.33   4
  -1  -4   5    7.18    0.74   4
   1  -4  -5    6.29    0.71   3
   1   4  -5    8.80    0.76   2
   1  -4  -5    6.54    0.70   4
  -1  -4   5    7.46    0.63   3
  -1   4   5    6.38    0.72   1
   1   4  -5    6.39    0.58   1
   0   4  -5    3.13    0.58   2
   0  -4  -5    3.77    0.53   4
   0  -4   5    4.48    0.44   3
   0   4   5    3.73    0.62   1
   0   4  -5    4.20    0.57   1
   0  -4   5    3.54    0.61   4
   0  -4  -5    4.30    0.63   3
   0   4   5    4.39    0.43   2
  -1  -4  -5   12.12    0.73   4
  -1  -4  -5   11.93    0.90   3
   1   4   5   11.49    0.87   1
   1  -4   5   12.30    0.92   4
   1   4   5   12.89    0.74   2
  -1   4  -5   10.44    0.83   1
  -1   4  -5   11.47    0.81   2
  -2   4  -5   34.62    1.49   1
   2   4   5   33.71    1.29   2
  -2  -4  -5   32.92    1.54   3
   2   4   5   34.83    1.42   1
  -2   4  -5   34.09    1.32   2
  -2  -4  -5   39.95    1.20   4
   2  -4   5   34.14    1.50   4
   3   4   5   62.04    1.96   1
  -3   4  -5   61.36    1.86   2
  -3   4  -5   59.04    2.08   1
  -3  -4  -5   57.43    2.13   3
   3  -4   5   66.66    2.17   4
   3   4   5   63.56    1.95   2
  -4  -4  -5   41.17    1.96   3
   4   4   5   46.52    1.74   1
   4   4   5   45.78    1.78   2
   4  -4   5   44.51    1.92   4
  -4   4  -5   44.20    1.68   2
  -4   4  -5   46.32    1.96   1
  -5  -4  -5   15.98    1.41   3
   5  -4   5   17.87    1.38   4
  -5   4  -5   19.38    1.28   2
   5   4   5   17.58    1.31   2
  -5   4  -5   19.54    1.51   1
   6   4   5   17.76    1.52   2
  -6   4  -5   18.62    1.64   1
  -6  -4  -5   18.76    1.71   3
  -6   4  -5   18.58    1.45   2
  -6  -5   5  110.87    3.84   3
  -6   5   5  109.63    3.68   1
   6   5  -5  106.13    3.55   2
   6  -5  -5  114.14    3.80   4
   5  -5  -5   79.32    2.97   4
  -5  -5   5   85.31    3.05   3
   5   5  -5   79.09    2.81   2
  -5   5   5   85.04    2.94   1
  -4   5   5    4.48    0.90   1
  -4  -5   5    3.04    0.78   4
  -4  -5   5    3.87    0.89   3
   4   5  -5    3.14    0.88   2
   4  -5  -5    2.73    0.84   4
  -3  -5   5   16.20    1.19   3
  -3  -5   5   14.60    1.09   4
   3  -5  -5   17.68    1.22   3
  -3   5   5   15.17    1.24   1
   3  -5  -5   18.83    1.31   4
   3   5  -5   16.24    1.19   2
   2  -5  -5    9.70    0.92   3
  -2  -5   5    6.94    0.80   3
   2  -5  -5    7.14    0.91   4
  -2  -5   5    8.61    0.90   4
  -2   5   5    9.16    0.99   1
   2   5  -5    8.09    0.91   2
   1  -5  -5   31.10    1.43   3
  -1  -5   5   31.36    1.34   3
  -1   5   5   35.07    1.61   1
   1   5  -5   33.05    1.36   1
   1   5  -5   35.17    1.52   2
   1  -5  -5   35.49    1.56   4
  -1  -5   5   31.96    1.56   4
   0   5  -5  737.00   13.29   2
   0  -5  -5  763.15   14.02   4
   0  -5   5  764.80   14.23   4
   0   5   5  755.41   12.88   2
   0   5   5  764.82   14.08   1
   0  -5  -5  757.40   14.40   3
   0   5  -5  751.94   13.89   1
  -1   5  -5  173.16    3.98   1
  -1   5  -5  168.69    3.70   2
  -1  -5  -5  173.26    3.77   4
   1   5   5  161.05    3.92   1
   1   5   5  168.71    3.49   2
  -1  -5  -5  168.94    4.07   3
   1  -5   5  167.76    4.07   4
   2   5   5   15.65    1.12   1
   2   5   5   15.25    0.99   2
  -2  -5  -5   16.33    1.18   3
   2  -5   5   13.57    1.11   4
  -2   5  -5   14.43    1.12   1
  -2  -5  -5   16.29    1.03   4
  -2   5  -5   14.38    0.96   2
   3   5   5   14.23    1.06   2
   3   5   5   14.92    1.11   1
  -3   5  -5   13.80    1.21   1
   3  -5   5   15.59    1.23   4
  -3  -5  -5   14.04    1.19   3
  -3   5  -5   14.91    1.00   2
  -4  -5  -5   56.93    2.40   3
  -4   5  -5   59.25    2.02   2
   4  -5   5   57.50    2.32   4
  -4   5  -5   62.25    2.39   1
   4   5   5   59.48    2.18   2
  -5  -5  -5    0.44    0.97   3
   5  -5   5    0.65    0.90   4
   5   5   5   -0.32    0.78   2
  -5   5  -5    1.80    0.99   1
  -6   5  -5    3.42    1.23   1
  -6  -5  -5    1.46    1.12   3
   6   5   5    1.58    1.10   2
   5  -6  -5    9.88    1.38   4
  -5  -6   5    9.17    1.41   3
  -5   6   5    7.11    1.27   1
   5   6  -5    9.11    1.33   2
  -4   6   5   42.67    2.15   1
   4  -6  -5   46.36    2.21   4
  -4  -6   5   42.63    2.14   3
  -4  -6   5   47.08    2.09   4
   4   6  -5   44.51    2.10   2
   3   6  -5    1.58    0.78   2
  -3  -6   5    2.53    0.76   4
  -3  -6   5    1.27    0.79   3
  -3   6   5    2.49    0.84   1
   3  -6  -5    0.80    0.76   4
   2  -6  -5   19.01    1.35   4
  -2  -6   5   18.12    1.33   4
  -2   6   5   20.01    1.40   1
   2   6  -5   18.31    1.28   2
   1  -6  -5   22.52    1.49   4
  -1   6   5   21.10    1.42   1
  -1  -6   5   24.87    1.57   4
   1   6  -5   23.29    1.41   2
   1  -6  -5   23.18    1.44   3
   0   6  -5   14.60    1.09   2
   0   6   5   15.81    1.23   1
   0  -6   5   14.77    1.23   4
   0  -6  -5   16.23    1.15   4
   0   6  -5   15.29    1.15   1
   0  -6  -5   14.26    1.15   3
  -1   6  -5   23.06    1.45   1
  -1   6  -5   26.08    1.43   2
   1   6   5   24.23    1.45   1
   1   6   5   24.52    1.25   2
   1  -6   5   23.30    1.56   4
  -1  -6  -5   22.81    1.42   3
  -1  -6  -5   28.40    1.47   4
   2   6   5   66.74    2.29   1
  -2   6  -5   68.69    2.10   2
   2   6   5   64.46    2.06   2
   2  -6   5   63.34    2.40   4
  -2  -6  -5   66.72    2.41   3
  -2   6  -5   67.32    2.40   1
  -3  -6  -5    8.60    1.14   3
   3  -6   5   11.68    1.25   4
  -3   6  -5   11.34    1.00   2
   3   6   5   10.97    1.08   2
  -3   6  -5   11.70    1.23   1
   4   6   5    8.14    1.12   2
  -4  -6  -5    8.90    1.28   3
  -4   6  -5    7.35    1.15   1
   4  -6   5    7.96    1.17   4
  -5   6  -5   64.18    2.84   1
   5  -6   5   68.73    2.87   4
  -5  -6  -5   70.99    3.01   3
   5   6   5   69.40    2.72   2
  -4   7   5   38.22    2.22   1
   4   7  -5   39.64    2.18   2
   4  -7  -5   38.44    2.24   4
   3   7  -5   18.64    1.50   2
  -3  -7   5   15.00    1.42   4
  -3   7   5   17.73    1.64   1
   3  -7  -5   19.86    1.63   4
  -2   7   5   -0.07    0.78   1
   2   7  -5   -0.96    0.71   2
  -2  -7   5   -0.36    0.80   4
   2  -7  -5   -0.29    0.76   4
  -1   7   5   88.33    2.99   1
   1  -7  -5   92.75    3.00   4
   1   7  -5   93.29    2.84   2
  -1  -7   5   91.99    3.07   4
   0   7  -5    3.57    0.83   2
   0  -7   5    2.39    0.85   4
   0  -7  -5    1.50    0.77   4
   0   7   5    1.26    0.86   1
   0   7  -5    2.51    0.91   1
  -1   7  -5   50.79    1.99   2
   1   7   5   47.37    2.07   1
  -1  -7  -5   44.05    1.98   4
  -1  -7  -5   43.50    2.01   3
   1  -7   5   44.69    2.20   4
  -1   7  -5   43.07    2.06   1
   2  -7   5    1.93    0.86   4
   2   7   5    1.34    0.85   1
  -2   7  -5    0.16    0.83   1
  -2  -7  -5    2.06    0.86   3
  -3  -7  -5    3.27    1.11   3
   3   7   5    2.95    0.95   2
   3  -7   5    4.51    1.14   4
  -3   7  -5    5.74    1.13   1
   4   7   5   21.68    1.62   2
  -4  -7  -5   17.82    1.75   3
  -4   7  -5   19.69    1.79   1
   4  -7   5   20.02    1.82   4
   3   8  -5   16.39    1.61   2
  -3   8   5   12.30    1.58   1
   3  -8  -5   14.08    1.63   4
  -2  -8   5    6.96    1.23   4
  -2   8   5    3.83    1.25   1
   2  -8  -5    5.01    1.22   4
   2   8  -5    5.14    1.16   2
   1   8  -5    0.01    0.86   2
   1  -8  -5   -0.57    0.90   4
  -1  -8   5    0.93    0.94   4
  -1   8   5   -0.32    0.94   1
   0  -8  -5    0.75    0.94   4
   0   8   5   -0.92    0.93   1
   0   8  -5    2.99    0.95   2
   0  -8   5    0.75    0.95   4
  -1   8  -5    9.17    1.28   1
   1   8   5    5.57    1.19   1
   1  -8   5    5.82    1.27   4
  -2   8  -5  115.36    3.80   1
   2  -8   5  116.55    3.87   4
  -7   0   6    0.30    0.98   3
  -7   0   6    0.20    0.94   4
   6   0  -6   13.39    1.15   2
  -6   0   6   11.58    1.14   4
  -6   0   6   10.95    1.26   3
  -5   0   6  103.85    3.10   3
  -5   0   6  107.86    2.98   4
   5   0  -6  102.63    2.66   2
  -4   0   6   -0.13    0.51   3
  -4   0   6    0.21    0.36   1
   4   0  -6   -0.04    0.41   2
  -4   0   6   -0.20    0.46   4
   3   0  -6  113.28    2.45   2
  -3   0   6  113.39    2.34   1
  -3   0   6  115.06    2.76   4
  -3   0   6  114.43    2.85   3
   2   0  -6 2536.36   41.30   2
  -2   0   6 2534.22   43.27   1
  -2   0   6 2472.98   43.92   4
  -2   0   6 2504.61   45.07   3
   1   0  -6    7.28    0.51   3
  -1   0   6    6.91    0.45   1
   1   0  -6    7.83    0.43   2
  -1   0   6    7.82    0.52   4
   0   0  -6   35.48    0.95   2
   0   0  -6   36.05    1.05   3
   0   0   6   36.30    1.00   1
   0   0   6   34.29    0.99   4
   1   0   6  116.27    2.24   4
  -1   0  -6  112.41    2.31   2
  -1   0  -6  115.19    2.42   3
   1   0   6  113.56    2.43   1
   2   0   6  548.47    9.70   4
   2   0   6  538.45    9.96   1
  -2   0  -6  539.73    9.49   2
  -2   0  -6  559.05   10.18   3
  -3   0  -6  321.62    6.01   2
   3   0   6  324.92    5.88   4
   3   0   6  308.30    6.26   1
  -3   0  -6  326.90    6.37   3
  -4   0  -6  357.38    7.29   3
  -4   0  -6  363.01    6.91   2
   4   0   6  360.36    7.16   1
   5   0   6    1.25    0.66   1
  -5   0  -6    1.47    0.67   3
  -5   0  -6    2.50    0.71   2
  -6   0  -6    3.30    0.87   3
  -6   0  -6    1.84    0.82   2
   6   0   6    2.17    0.86   1
  -7   0  -6   80.66    2.98   2
  -7   0  -6   89.24    3.21   3
  -7  -1   6   26.64    1.97   3
  -7   1   6   28.96    1.86   4
   7   1  -6   28.54    1.78   2
   7  -1  -6   27.88    1.96   3
   6   1  -6   40.07    1.80   2
   6  -1  -6   35.38    1.92   3
  -6  -1   6   35.78    1.91   3
  -6  -1   6   43.59    1.93   4
  -6   1   6   35.74    1.87   4
  -5  -1   6   24.06    1.51   3
  -5   1   6   24.66    1.53   3
  -5  -1   6   26.17    1.39   4
  -5   1   6   24.51    1.45   4
   5  -1  -6   26.51    1.23   2
   5   1  -6   26.89    1.37   2
   4  -1  -6    5.35    0.60   2
  -4   1   6    5.99    0.63   1
  -4   1   6    5.09    0.77   3
  -4  -1   6    4.58    0.75   3
  -4  -1   6    5.62    0.72   4
   4   1  -6    5.75    0.68   2
  -4   1   6    5.57    0.75   4
  -3  -1   6   23.44    1.16   3
  -3   1   6   23.04    0.97   1
   3  -1  -6   23.72    0.86   2
   3   1  -6   23.54    1.04   2
  -3  -1   6   24.67    1.15   4
   3  -1  -6   23.43    1.17   3
  -3   1   6   22.89    1.13   4
  -2  -1   6  264.70    5.27   4
   2  -1  -6  271.23    4.65   2
   2   1  -6  267.38    4.92   2
  -2   1   6  273.55    5.06   1
  -2   1   6  264.90    5.29   4
   2  -1  -6  265.14    5.41   3
  -2  -1   6  265.65    5.38   3
  -1  -1   6   94.96    2.23   3
   1   1  -6  100.58    2.12   2
   1  -1  -6  101.73    2.33   3
  -1   1   6  104.46    2.18   1
  -1   1   6  103.00    2.26   4
  -1  -1   6  103.52    2.29   4
   0  -1   6  524.78    9.37   1
   0  -1  -6  522.23    9.84   3
   0   1  -6  529.64    9.05   2
   0   1  -6  532.09    9.66   3
   0  -1   6  529.90    9.57   4
   0  -1   6  541.66    9.38   5
   0   1   6  530.72    9.48   1
   0   1   6  530.95    9.46   4
   0  -1  -6  516.25    8.86   2
  -1  -1  -6 1671.39   26.92   2
  -1   1  -6 1624.35   29.18   3
   1  -1   6 1611.04   28.49   4
  -1  -1  -6 1629.88   29.32   3
   1   1   6 1603.66   28.30   1
  -1   1  -6 1636.32   26.99   2
   1  -1   6 1621.62   28.28   1
   2  -1   6  201.16    3.92   4
  -2   1  -6  197.71    3.89   2
  -2  -1  -6  202.20    4.19   3
  -2   1  -6  203.91    3.92   3
  -2  -1  -6  200.05    3.86   2
   2   1   6  197.24    4.06   1
  -3  -1  -6  158.53    3.54   3
  -3   1  -6  152.59    3.28   3
   3  -1   6  149.69    3.19   4
  -3   1  -6  157.33    3.31   2
   3   1   6  153.06    3.40   1
   3  -1   6  153.87    3.45   5
  -3  -1  -6  153.23    3.30   2
   3  -1   6  149.75    3.44   1
   4   1   6   14.40    0.98   1
  -4   1  -6   13.89    0.97   2
   4  -1   6   14.00    0.96   4
  -4   1  -6   13.98    0.96   3
  -4  -1  -6   14.85    1.02   3
   4  -1   6   12.76    0.98   1
   4  -1   6   14.46    1.00   5
  -4  -1  -6   13.82    0.98   2
  -5  -1  -6    1.61    0.70   3
   5  -1   6    0.68    0.64   1
   5   1   6    2.66    0.68   1
  -5  -1  -6    1.87    0.70   2
   5  -1   6    1.34    0.69   5
  -5   1  -6    3.07    0.71   3
  -5   1  -6    2.43    0.69   2
  -6  -1  -6  113.07    3.46   3
  -6  -1  -6  113.42    3.30   2
  -6   1  -6  119.20    3.34   3
  -6   1  -6  116.55    3.26   2
   6  -1   6  120.90    3.42   1
  -7   1  -6  212.90    5.21   2
   7   1   6  215.66    5.30   2
  -7  -1  -6  212.99    5.59   3
  -7  -2   6  102.32    3.67   3
   7   2  -6  105.55    3.39   2
   7  -2  -6  104.68    3.64   3
  -7   2   6  110.80    3.58   4
  -6   2   6   88.19    2.95   4
  -6  -2   6   87.74    3.11   3
   6   2  -6   88.42    2.83   2
   6  -2  -6   90.02    3.04   3
  -6  -2   6   92.97    2.83   4
  -5  -2   6   15.91    1.28   3
   5  -2  -6   14.02    1.18   3
   5   2  -6   14.63    1.12   2
  -5   2   6   13.10    1.16   4
  -5   2   6   14.42    1.08   1
  -5  -2   6   12.22    1.05   4
   4   2  -6    2.37    0.65   2
   4  -2  -6    1.67    0.63   3
  -4  -2   6    2.94    0.73   3
  -4  -2   6    1.31    0.59   4
  -4   2   6    1.65    0.57   1
  -4   2   6    2.11    0.67   4
  -3   2   6   44.02    1.50   1
   3   2  -6   43.80    1.49   2
   3  -2  -6   41.90    1.55   3
  -3  -2   6   43.82    1.61   3
   3  -2  -6   42.89    1.11   2
  -3   2   6   44.44    1.62   4
  -3  -2   6   42.22    1.50   4
  -2  -2   6   32.24    1.21   4
   2  -2  -6   33.90    1.26   3
   2   2  -6   30.36    1.17   2
  -2  -2   6   31.23    1.20   3
  -2   2   6   31.36    1.17   1
  -2   2   6   30.25    1.22   4
  -1  -2   6 1168.81   21.22   3
   1  -2  -6 1183.85   21.39   3
  -1   2   6 1186.16   20.62   1
  -1  -2   6 1184.73   20.86   4
   1   2  -6 1162.17   19.67   2
  -1   2   6 1151.90   20.81   4
   1   2  -6 1169.20   20.33   1
   0  -2   6  360.14    6.69   3
   0  -2  -6  367.27    6.16   2
   0  -2  -6  362.14    7.04   3
   0  -2   6  357.61    6.84   4
   0   2   6  364.54    6.69   4
   0   2   6  369.23    6.80   1
   0   2  -6  361.51    6.64   1
   0   2  -6  361.20    6.47   2
  -1   2  -6   98.18    2.35   1
  -1  -2  -6  104.05    2.48   3
  -1   2  -6  104.14    2.28   2
   1  -2   6  105.57    2.38   4
  -1  -2  -6  104.54    2.13   2
   1   2   6  101.32    2.38   1
  -1  -2  -6  103.94    2.07   4
  -2  -2  -6  510.48    9.88   3
  -2  -2  -6  515.27    9.02   2
  -2   2  -6  509.30    9.57   1
   2   2   6  523.72    9.51   1
  -2   2  -6  512.27    9.07   2
   2  -2   6  514.52    9.52   4
  -3   2  -6  112.73    2.83   1
  -3  -2  -6  109.51    2.88   3
  -3   2  -6  109.62    2.41   3
  -3   2  -6  111.83    2.64   2
   3   2   6  109.69    2.70   1
   3  -2   6  112.34    2.67   4
  -3  -2  -6  111.13    2.64   2
  -4   2  -6    1.50    0.63   1
   4  -2   6    1.70    0.57   4
  -4   2  -6    0.61    0.46   3
  -4   2  -6    0.62    0.54   2
  -4  -2  -6    0.44    0.59   3
  -4  -2  -6    1.39    0.58   2
   4   2   6    0.88    0.52   1
   5   2   6    3.67    0.78   1
   5  -2   6    4.11    0.81   5
  -5   2  -6    3.81    0.78   2
  -5  -2  -6    5.45    0.93   3
   5  -2   6    5.59    0.87   1
  -5  -2  -6    4.32    0.81   2
   6   2   6   10.40    1.14   2
   6  -2   6   11.94    1.24   1
  -6   2  -6   10.19    1.17   2
  -6  -2  -6   11.69    1.32   3
   6  -2   6    8.98    1.18   5
   7  -2   6    6.38    1.25   5
   7  -2   6    4.15    1.19   1
   7   2   6    5.28    1.16   2
  -7   2  -6    3.41    1.08   2
  -7  -2  -6    4.67    1.26   3
  -7   3   6    1.97    1.13   4
   7   3  -6    1.38    1.05   2
  -7  -3   6    1.75    1.18   3
   6   3  -6   10.43    1.25   2
  -6  -3   6   11.68    1.40   3
  -6   3   6   13.16    1.36   4
   6  -3  -6   13.80    1.41   3
  -5   3   6   47.95    1.93   1
   5   3  -6   45.84    1.93   2
  -5  -3   6   46.10    2.08   3
  -5   3   6   48.57    2.07   4
   5  -3  -6   45.86    2.02   3
  -5  -3   6   49.79    1.96   4
  -4   3   6  700.35   13.19   4
   4  -3  -6  676.54   13.32   3
  -4  -3   6  682.63   12.93   4
  -4   3   6  686.11   12.86   1
  -3   3   6  363.97    7.48   4
  -3  -3   6  363.57    7.57   3
   3  -3  -6  371.21    7.55   3
  -3  -3   6  378.48    7.36   4
  -3   3   6  374.48    7.33   1
   3   3  -6  374.23    7.08   2
   2   3  -6    1.18    0.49   2
  -2   3   6    1.22    0.48   4
  -2   3   6    1.39    0.49   1
  -2  -3   6    0.96    0.44   3
   2  -3  -6    1.70    0.52   3
  -2  -3   6    1.11    0.45   4
  -1   3   6   61.81    1.76   4
  -1  -3   6   61.65    1.79   4
  -1   3   6   61.93    1.80   1
  -1  -3   6   57.83    1.58   3
   1   3  -6   57.47    1.70   2
   1   3  -6   62.06    1.48   1
   1  -3  -6   61.44    1.83   3
   0   3  -6    0.06    0.32   1
   0  -3  -6    0.25    0.38   3
   0   3  -6    0.54    0.39   2
   0  -3   6   -0.11    0.23   3
   0   3   6    0.08    0.36   1
   0   3   6    0.42    0.23   2
   0  -3  -6    0.30    0.31   4
   0  -3   6    0.14    0.35   4
  -1  -3  -6   22.25    1.13   3
  -1  -3  -6   22.19    0.88   4
   1   3   6   20.75    1.05   1
   1   3   6   21.51    0.86   2
  -1   3  -6   21.08    1.03   1
  -1   3  -6   23.28    1.03   2
   1  -3   6   21.00    1.08   4
   2   3   6  187.79    3.73   2
  -2   3  -6  182.14    3.79   2
   2  -3   6  186.95    4.05   4
  -2  -3  -6  189.48    4.22   3
  -2   3  -6  176.92    4.02   1
   2   3   6  186.99    4.00   1
  -3  -3  -6   -0.21    0.51   3
   3   3   6    0.41    0.49   1
   3   3   6    0.79    0.51   2
   3  -3   6    0.53    0.51   4
  -3   3  -6    1.07    0.51   2
  -3   3  -6    0.97    0.60   1
   4   3   6   31.93    1.45   2
  -4   3  -6   28.87    1.57   1
  -4  -3  -6   27.37    1.56   3
   4  -3   6   30.77    1.49   4
  -4   3  -6   30.30    1.39   2
   4   3   6   28.73    1.38   1
   5   3   6   29.50    1.57   2
   5  -3   6   31.97    1.69   4
  -5   3  -6   28.42    1.54   2
  -5   3  -6   32.42    1.74   1
  -5  -3  -6   28.00    1.67   3
  -6   3  -6   23.28    1.52   2
  -6  -3  -6   25.56    1.81   3
   6  -3   6   25.38    1.67   1
   6   3   6   23.54    1.62   2
   6  -3   6   21.76    1.62   5
   6   4  -6    1.21    0.93   2
  -6  -4   6    0.88    0.99   3
  -6   4   6    0.32    1.00   4
  -6   4   6    1.64    0.96   1
  -5   4   6  245.46    5.94   4
  -5  -4   6  262.30    5.69   4
   5   4  -6  246.59    5.64   2
  -5  -4   6  247.83    6.07   3
  -5   4   6  252.83    5.78   1
   4   4  -6   17.03    1.26   2
  -4   4   6   18.64    1.29   1
  -4  -4   6   16.88    1.22   4
  -4   4   6   16.63    1.29   4
  -4  -4   6   17.42    1.27   3
   4  -4  -6   18.14    1.28   3
  -3   4   6  195.84    4.65   4
   3  -4  -6  199.30    4.59   3
  -3  -4   6  197.19    4.51   4
   3   4  -6  203.65    4.45   2
  -3  -4   6  199.75    4.64   3
  -3   4   6  203.10    4.61   1
   2   4  -6  227.86    4.80   2
  -2  -4   6  234.87    5.01   4
  -2   4   6  231.48    5.05   4
  -2   4   6  228.45    5.02   1
  -2  -4   6  230.70    4.96   3
   2  -4  -6  234.84    5.07   3
  -1  -4   6   47.23    1.46   3
   1   4  -6   47.00    1.42   1
  -1  -4   6   46.94    1.67   4
   1  -4  -6   44.68    1.61   4
   1   4  -6   46.86    1.62   2
   1  -4  -6   47.40    1.69   3
  -1   4   6   45.43    1.69   1
   0  -4  -6  168.65    3.84   3
   0  -4   6  159.39    3.77   4
   0   4  -6  164.43    3.58   1
   0  -4   6  165.38    3.33   3
   0   4   6  163.77    3.11   2
   0  -4  -6  168.27    3.61   4
   0   4  -6  167.49    3.56   2
   0   4   6  167.89    3.78   1
  -1   4  -6  539.32   10.10   1
  -1  -4  -6  514.27   10.46   3
  -1  -4  -6  555.10    9.90   4
   1  -4   6  541.55   10.28   4
  -1   4  -6  528.27    9.61   2
   1   4   6  545.58    9.38   2
   1   4   6  537.12   10.15   1
   2   4   6   25.82    1.13   2
   2   4   6   25.38    1.27   1
  -2   4  -6   23.84    1.27   1
  -2  -4  -6   23.66    0.94   4
   2  -4   6   24.08    1.30   4
  -2   4  -6   22.32    1.15   2
  -2  -4  -6   22.59    1.33   3
  -3   4  -6    7.87    0.92   1
   3   4   6    9.03    0.84   2
   3  -4   6    9.84    0.94   4
  -3  -4  -6    8.14    0.94   3
  -3   4  -6    8.08    0.79   2
   3   4   6    7.82    0.85   1
   4   4   6  106.08    2.92   1
   4  -4   6  111.64    3.13   4
  -4   4  -6  110.16    2.86   2
  -4  -4  -6  106.63    3.25   3
   4   4   6  105.73    2.93   2
  -4   4  -6  108.15    3.20   1
  -5  -4  -6   61.49    2.53   3
  -5   4  -6   62.05    2.47   1
   5   4   6   64.15    2.35   2
  -5   4  -6   58.17    2.14   2
   5  -4   6   63.39    2.44   4
   6   4   6    0.22    0.84   2
  -6   4  -6   -0.55    0.89   2
  -6   4  -6    1.50    1.01   1
  -6  -4  -6   -1.02    0.96   3
  -6  -5   6   18.51    1.77   3
   6   5  -6   14.63    1.56   2
  -6   5   6   16.68    1.65   1
   6  -5  -6   14.71    1.64   4
   5  -5  -6   13.03    1.37   4
  -5   5   6    7.93    1.18   1
   5   5  -6   11.53    1.31   2
  -5  -5   6   12.14    1.40   3
   4   5  -6   34.21    1.74   2
  -4  -5   6   31.54    1.75   3
  -4  -5   6   33.84    1.68   4
  -4   5   6   32.78    1.80   1
   4  -5  -6   31.73    1.77   4
   3  -5  -6   52.49    2.07   3
   3   5  -6   54.13    2.02   2
  -3  -5   6   51.07    1.96   4
  -3   5   6   55.89    2.17   1
   3  -5  -6   52.05    2.10   4
  -3  -5   6   53.99    2.04   3
   2   5  -6   11.75    1.02   2
  -2   5   6   11.52    1.08   1
   2  -5  -6   11.84    1.04   3
   2  -5  -6   13.30    1.10   4
  -2  -5   6   11.68    1.02   4
  -2  -5   6   12.57    0.98   3
   1   5  -6    6.98    0.72   1
   1  -5  -6    6.07    0.80   4
   1   5  -6    5.62    0.79   2
  -1  -5   6    7.00    0.86   4
   1  -5  -6    6.85    0.83   3
  -1   5   6    6.05    0.86   1
   0  -5  -6   -0.02    0.56   3
   0   5  -6    0.54    0.58   1
   0  -5   6    0.08    0.61   4
   0   5  -6    0.69    0.58   2
   0  -5  -6    1.19    0.55   4
   0   5   6    0.68    0.42   2
   0   5   6    0.88    0.59   1
  -1   5  -6    6.60    0.79   2
   1   5   6    5.56    0.81   1
  -1  -5  -6    6.76    0.71   4
  -1  -5  -6    7.78    0.90   3
  -1   5  -6    6.93    0.83   1
   1  -5   6    7.32    0.90   4
   1   5   6    7.16    0.67   2
   2   5   6   -1.23    0.53   1
  -2   5  -6    0.04    0.49   2
   2   5   6   -0.48    0.51   2
  -2  -5  -6   -0.85    0.58   3
  -2   5  -6    0.31    0.60   1
   2  -5   6   -0.55    0.56   4
   3   5   6    2.31    0.72   2
   3  -5   6    2.47    0.82   4
  -3   5  -6    2.18    0.77   1
  -3   5  -6    3.11    0.70   2
  -3  -5  -6    2.17    0.78   3
   3   5   6    2.28    0.74   1
   4  -5   6    8.67    1.14   4
  -4  -5  -6    8.47    1.18   3
  -4   5  -6    7.87    0.93   2
   4   5   6    8.60    1.02   2
  -4   5  -6    8.99    1.15   1
  -5  -5  -6    5.66    1.18   3
  -5   5  -6    7.55    1.06   2
  -5   5  -6    7.40    1.23   1
   5  -5   6    9.30    1.26   4
   5   5   6   10.18    1.22   2
  -6   5  -6    4.02    1.22   1
  -6  -5  -6    2.54    1.28   3
   6   5   6    2.46    1.09   2
  -5   6   6   11.45    1.45   1
  -5  -6   6   13.80    1.60   3
   5   6  -6   11.18    1.42   2
   5  -6  -6   12.34    1.51   4
  -4  -6   6    8.61    1.12   4
   4  -6  -6    9.06    1.28   4
   4   6  -6   10.56    1.27   2
  -4   6   6   10.60    1.27   1
  -4  -6   6    9.10    1.26   3
  -3  -6   6    4.35    0.88   4
   3   6  -6    4.48    0.96   2
  -3   6   6    3.58    1.00   1
   3  -6  -6    3.48    0.94   4
  -3  -6   6    3.50    0.87   3
  -2   6   6   21.43    1.47   1
   2  -6  -6   20.06    1.41   4
   2   6  -6   20.12    1.38   2
  -2  -6   6   20.95    1.41   4
   1  -6  -6   53.06    2.05   4
  -1  -6   6   53.16    2.12   4
  -1   6   6   51.77    2.08   1
   1   6  -6   49.33    1.95   2
   1  -6  -6   48.09    2.01   3
   0   6  -6  134.73    3.39   2
   0  -6  -6  143.29    3.68   3
   0   6   6  134.35    3.64   1
   0   6  -6  136.50    3.50   1
   0  -6   6  136.04    3.69   4
   0  -6  -6  137.56    3.52   4
  -1  -6  -6    7.45    0.86   4
   1   6   6    6.77    0.93   1
   1  -6   6    6.45    1.00   4
  -1   6  -6    7.65    0.93   2
  -1   6  -6    7.13    0.94   1
  -1  -6  -6    6.65    0.95   3
   2   6   6   10.71    1.05   1
  -2   6  -6    9.03    1.07   1
  -2   6  -6    8.46    0.91   2
  -2  -6  -6    8.94    1.06   3
   2   6   6    9.08    0.93   2
   2  -6   6   12.40    1.19   4
  -3  -6  -6    1.70    0.86   3
  -3   6  -6    0.82    0.68   2
  -3   6  -6    0.82    0.81   1
   3   6   6    1.28    0.74   2
   3   6   6    1.52    0.81   1
   3  -6   6    1.30    0.81   4
  -4  -6  -6    1.86    1.02   3
  -4   6  -6    2.49    1.02   1
   4   6   6    2.57    0.94   2
   4  -6   6    2.23    0.98   4
  -5  -6  -6  138.40    4.37   3
   5   6   6  136.97    3.95   2
  -5   6  -6  125.63    4.13   1
   5  -6   6  139.21    4.22   4
  -4   7   6    7.76    1.33   1
   4  -7  -6    4.19    1.21   4
   4   7  -6    7.23    1.28   2
  -3  -7   6    2.14    0.92   4
   3  -7  -6    2.21    0.99   4
   3   7  -6    2.39    1.00   2
  -3   7   6    1.55    0.95   1
   2   7  -6    5.67    1.01   2
  -2  -7   6    4.69    1.04   4
   2  -7  -6    4.87    1.05   4
  -2   7   6    6.71    1.17   1
   1   7  -6   45.81    2.00   2
  -1  -7   6   37.94    2.02   4
  -1   7   6   41.83    2.07   1
   1  -7  -6   40.13    2.07   4
   0   7  -6  241.91    5.28   2
   0  -7  -6  234.65    5.47   4
   0  -7   6  233.15    5.71   4
   0  -7  -6  229.10    5.57   3
   0   7  -6  246.45    5.51   1
   0   7   6  236.59    5.67   1
   1  -7   6    2.27    0.90   4
  -1  -7  -6    3.57    0.92   3
   1   7   6    2.32    0.87   1
  -1   7  -6    1.73    0.84   2
  -1   7  -6    3.11    0.93   1
  -2   7  -6   53.92    2.36   1
  -2   7  -6   55.41    2.06   2
  -2  -7  -6   52.46    2.34   3
   2   7   6   52.59    2.25   1
   2  -7   6   54.47    2.42   4
   3  -7   6   83.23    3.04   4
   3   7   6   78.09    2.61   2
  -3  -7  -6   80.55    3.01   3
  -3   7  -6   74.62    2.93   1
   4  -7   6   11.16    1.47   4
   4   7   6   11.61    1.31   2
  -4   7  -6   12.02    1.53   1
  -4  -7  -6   11.75    1.56   3
   2   8  -6    3.36    1.15   2
   2  -8  -6    4.92    1.22   4
  -2   8   6    3.01    1.14   1
  -2  -8   6    2.91    1.10   4
  -1   8   6   -1.18    0.91   1
   1   8  -6   -0.47    0.88   2
  -1  -8   6    1.39    1.00   4
   1  -8  -6   -1.16    0.86   4
   0  -8   6    9.06    1.41   4
   0   8   6   12.51    1.44   1
   0   8  -6    9.50    1.22   2
   0  -8  -6   11.56    1.36   4
  -1   8  -6   36.72    2.16   1
   1  -8   6   32.99    2.14   4
   1   8   6   39.05    2.14   1
   2  -8   6   12.44    1.59   4
  -2  -8  -6   11.89    1.46   3
  -2   8  -6   15.90    1.62   1
  -7   0   7   -0.27    0.97   4
  -7   0   7   -0.92    0.91   3
  -6   0   7    0.58    0.82   3
  -6   0   7   -0.11    0.75   4
  -5   0   7    0.11    0.61   4
   5   0  -7   -0.21    0.55   2
  -5   0   7   -1.21    0.60   3
   4   0  -7    0.17    0.44   2
  -4   0   7    0.61    0.36   1
  -4   0   7    0.35    0.55   3
  -4   0   7    0.17    0.49   4
  -3   0   7    0.00    0.39   4
  -3   0   7    0.43    0.29   1
   3   0  -7    0.10    0.35   2
  -3   0   7   -0.71    0.38   3
   2   0  -7   -0.02    0.35   3
  -2   0   7    0.13    0.24   1
   2   0  -7    0.16    0.27   2
  -2   0   7    0.36    0.36   4
   1   0  -7   -0.14    0.26   2
   1   0  -7   -0.07    0.30   3
  -1   0   7    0.32    0.23   1
  -1   0   7    0.13    0.30   4
   0   0   7    0.01    0.25   4
   0   0  -7    0.18    0.26   2
   0   0   7    0.07    0.26   1
   0   0  -7   -0.08    0.27   3
  -1   0  -7   -0.08    0.28   3
  -1   0  -7   -0.12    0.27   2
   1   0   7    0.05    0.21   4
   1   0   7    0.32    0.30   1
   2   0   7   -0.28    0.31   1
  -2   0  -7   -0.19    0.30   3
   2   0   7   -0.15    0.20   4
  -2   0  -7    0.02    0.33   2
   3   0   7   -0.47    0.37   1
  -3   0  -7   -0.67    0.35   3
  -3   0  -7   -0.53    0.37   2
  -4   0  -7   -0.64    0.46   3
   4   0   7   -0.19    0.50   1
  -4   0  -7   -0.02    0.50   2
  -5   0  -7   -0.56    0.60   2
   5   0   7   -0.10    0.61   1
  -5   0  -7   -0.72    0.59   3
  -6   0  -7    0.69    0.79   3
   6   0   7   -0.68    0.74   1
  -6   0  -7   -0.06    0.73   2
  -7   0  -7    0.74    0.99   2
  -7   1   7    1.33    0.96   4
   7  -1  -7    0.71    1.01   3
  -7  -1   7   -0.89    0.96   3
  -6  -1   7   28.50    1.76   4
  -6   1   7   25.45    1.70   4
  -6  -1   7   25.47    1.71   3
   6  -1  -7   30.37    1.77   3
   6   1  -7   26.94    1.57   2
   5   1  -7    3.82    0.76   2
   5  -1  -7    3.93    0.85   3
  -5  -1   7    2.80    0.79   3
  -5  -1   7    5.16    0.82   4
  -5   1   7    3.66    0.80   4
  -4   1   7  125.58    2.81   1
   4  -1  -7  115.08    3.20   3
   4  -1  -7  120.10    2.66   2
  -4  -1   7  123.15    3.10   4
   4   1  -7  119.71    2.86   2
  -4   1   7  123.83    3.18   4
  -4  -1   7  121.30    3.23   3
  -3   1   7    4.83    0.52   1
   3  -1  -7    4.94    0.48   2
  -3  -1   7    4.54    0.66   3
   3  -1  -7    4.82    0.67   3
  -3  -1   7    5.53    0.64   4
  -3   1   7    5.11    0.64   4
   3   1  -7    5.09    0.57   2
   2   1  -7  305.63    5.55   2
   2  -1  -7  296.56    6.09   3
  -2   1   7  300.68    5.69   1
   2  -1  -7  306.00    5.26   2
  -2  -1   7  307.04    5.96   4
  -2   1   7  303.00    5.97   4
  -2  -1   7  309.03    6.08   3
  -1  -1   7  293.47    5.65   4
  -1  -1   7  293.40    5.69   3
  -1  -1   7  293.10    5.26   1
  -1   1   7  297.11    5.51   1
   1  -1  -7  297.76    5.02   2
  -1   1   7  298.79    5.62   4
   1   1  -7  295.13    5.29   2
   1  -1  -7  282.10    5.77   3
   0   1  -7  443.04    8.35   3
   0  -1  -7  457.85    8.57   3
   0   1   7  450.93    8.23   1
   0  -1   7  454.82    8.31   4
   0   1   7  461.52    8.20   4
   0  -1  -7  450.74    7.67   2
   0  -1   7  447.89    8.12   1
   0   1  -7  456.92    7.87   2
   1   1   7  253.47    4.91   1
  -1   1  -7  252.64    4.68   2
  -1  -1  -7  261.17    4.60   2
   1  -1   7  255.61    4.88   1
   1  -1   7  252.03    4.82   4
  -1   1  -7  249.38    4.78   3
  -1  -1  -7  248.42    5.05   3
   1  -1   7  256.64    4.89   5
   2  -1   7  322.16    6.30   5
  -2   1  -7  333.48    6.03   2
   2  -1   7  322.94    6.30   1
  -2   1  -7  328.25    6.19   3
  -2  -1  -7  320.25    5.96   2
  -2  -1  -7  336.24    6.50   3
   2  -1   7  329.69    6.13   4
   2   1   7  331.17    6.31   1
   3  -1   7  216.52    4.24   4
   3  -1   7  212.09    4.53   1
  -3   1  -7  219.71    4.36   3
   3  -1   7  211.01    4.53   5
  -3  -1  -7  216.03    4.62   3
  -3  -1  -7  209.66    4.32   2
   3   1   7  216.54    4.50   1
  -3   1  -7  206.43    4.31   2
  -4   1  -7   25.04    1.28   2
   4  -1   7   23.36    1.32   1
  -4   1  -7   26.55    1.23   3
   4   1   7   25.17    1.31   1
   4  -1   7   24.73    1.30   5
  -4  -1  -7   25.13    1.30   2
  -4  -1  -7   25.03    1.31   3
   5  -1   7    7.28    0.91   5
   5  -1   7    8.29    0.96   1
  -5  -1  -7    7.57    0.93   2
   5   1   7    7.96    0.92   1
  -5   1  -7    7.73    0.91   2
  -5  -1  -7    7.20    0.95   3
  -5   1  -7    7.37    0.88   3
  -6  -1  -7    1.12    0.87   3
   6   1   7    0.67    0.78   1
  -6  -1  -7    0.61    0.78   2
  -6   1  -7    0.74    0.79   2
   6  -1   7    1.46    0.85   1
  -7  -1  -7  195.87    5.24   3
   7   1   7  192.46    4.97   2
  -7   1  -7  195.83    4.92   2
   7  -2  -7   16.14    1.65   3
  -7  -2   7   15.41    1.62   3
  -7   2   7   17.97    1.62   4
   7   2  -7   14.88    1.52   2
   6   2  -7   16.49    1.34   2
  -6   2   7   17.06    1.45   4
   6  -2  -7   19.33    1.55   3
  -6  -2   7   17.71    1.52   3
  -6  -2   7   18.39    1.35   4
  -5   2   7   -0.88    0.62   4
  -5   2   7   -0.02    0.58   1
  -5  -2   7    0.19    0.63   4
   5  -2  -7   -0.76    0.64   3
   5   2  -7   -0.14    0.63   2
  -5  -2   7   -0.19    0.64   3
  -4   2   7  143.36    3.32   1
   4  -2  -7  137.79    3.57   3
  -4   2   7  144.91    3.63   4
  -4  -2   7  139.01    3.44   4
   4   2  -7  136.57    3.29   2
  -4  -2   7  138.13    3.61   3
   3   2  -7  272.20    5.22   2
   3  -2  -7  260.49    5.62   3
  -3  -2   7  259.06    5.47   4
  -3   2   7  262.61    5.30   1
  -3   2   7  269.98    5.59   4
  -3  -2   7  263.84    5.63   3
   2  -2  -7  216.99    4.66   3
  -2   2   7  225.13    4.45   1
   2   2  -7  221.29    4.31   2
  -2  -2   7  216.61    4.54   4
  -2   2   7  218.64    4.57   4
  -2  -2   7  213.84    4.57   3
  -1  -2   7  182.27    3.66   3
  -1  -2   7  175.85    3.32   1
  -1   2   7  182.47    3.70   1
  -1   2   7  169.09    3.67   4
  -1  -2   7  181.07    3.77   4
   1  -2  -7  174.10    3.85   3
  -1  -2   7  177.59    3.32   5
   1   2  -7  181.15    3.55   2
   0   2   7  288.04    5.63   1
   0   2  -7  285.72    5.37   2
   0   2   7  292.74    5.51   4
   0   2  -7  300.19    5.48   3
   0   2  -7  290.15    5.46   1
   0  -2   7  293.72    5.67   4
   0  -2  -7  293.94    5.85   3
   0  -2  -7  294.89    5.03   2
  -1  -2  -7  280.83    5.02   2
   1   2   7  280.99    5.11   4
  -1   2  -7  274.27    5.19   2
  -1  -2  -7  277.78    5.64   3
  -1   2  -7  281.04    5.41   1
   1   2   7  279.83    5.46   1
   1  -2   7  279.02    5.44   4
  -2  -2  -7  190.29    4.22   3
   2  -2   7  194.89    4.00   4
  -2   2  -7  189.72    4.09   1
   2   2   7  193.61    4.06   1
  -2  -2  -7  195.59    3.81   2
  -2   2  -7  190.05    3.87   2
  -3  -2  -7    0.00    0.43   2
  -3   2  -7    0.11    0.32   3
   3   2   7    0.28    0.46   1
   3  -2   7    0.48    0.43   4
  -3   2  -7    0.80    0.49   2
  -3  -2  -7   -0.31    0.49   3
  -3   2  -7    0.71    0.49   1
  -4  -2  -7   12.98    1.00   2
  -4   2  -7   11.67    1.02   1
  -4   2  -7   12.87    0.98   2
   4  -2   7   10.58    0.87   4
  -4   2  -7   12.11    0.90   3
  -4  -2  -7   11.14    0.99   3
   4   2   7   10.40    0.92   1
   5  -2   7   17.37    1.27   1
  -5   2  -7   18.56    1.25   2
   5   2   7   17.60    1.22   1
  -5  -2  -7   18.30    1.26   2
  -5  -2  -7   18.81    1.37   3
   5  -2   7   17.92    1.30   5
   6   2   7    9.86    1.14   2
  -6  -2  -7   10.88    1.26   3
  -6   2  -7    9.96    1.16   2
   6  -2   7   11.11    1.27   5
   6  -2   7    8.21    1.17   1
  -7  -2  -7    9.09    1.38   3
   7  -2   7    7.30    1.36   1
   7   2   7    8.87    1.29   2
  -7   2  -7    6.83    1.24   2
  -6  -3   7   43.64    2.23   3
   6  -3  -7   41.86    2.17   3
   6   3  -7   43.66    2.04   2
  -6   3   7   43.97    2.17   4
  -5   3   7   25.48    1.60   4
   5   3  -7   25.49    1.48   2
  -5   3   7   30.39    1.60   1
  -5  -3   7   23.94    1.52   4
  -5  -3   7   27.84    1.65   3
   5  -3  -7   26.04    1.58   3
  -4  -3   7   17.98    1.19   4
   4   3  -7   18.39    1.22   2
  -4  -3   7   17.90    1.28   3
   4  -3  -7   16.87    1.26   3
  -4   3   7   17.70    1.26   1
  -4   3   7   17.70    1.26   4
  -3   3   7  280.36    5.96   4
   3   3  -7  280.32    5.62   2
  -3  -3   7  282.55    6.00   3
  -3   3   7  280.33    5.78   1
  -3  -3   7  275.30    5.83   4
   3  -3  -7  285.16    6.02   3
  -2   3   7  138.24    3.20   1
  -2   3   7  132.62    3.23   4
   2   3  -7  131.95    3.08   2
   2  -3  -7  141.42    3.31   3
  -2  -3   7  134.56    3.21   4
  -2  -3   7  133.84    3.16   3
  -1   3   7   19.69    1.04   4
  -1   3   7   20.01    1.07   1
  -1  -3   7   20.39    1.08   4
   1  -3  -7   21.85    1.14   3
   1   3  -7   20.13    0.83   1
  -1  -3   7   20.88    0.91   3
   1   3  -7   21.46    1.05   2
   0  -3  -7   39.94    1.44   3
   0  -3   7   39.06    1.41   4
   0   3  -7   39.97    1.27   1
   0   3  -7   40.63    1.35   2
   0  -3   7   38.21    1.03   3
   0   3   7   37.84    1.40   1
   0   3   7   38.99    1.25   4
   0   3   7   38.34    0.94   2
  -1   3  -7   14.24    0.90   1
  -1   3  -7   11.48    0.76   2
   1  -3   7   14.38    0.96   4
  -1  -3  -7   12.85    0.74   4
   1   3   7   11.85    0.71   2
  -1  -3  -7   13.82    0.90   3
   1   3   7   12.84    0.92   1
  -2   3  -7  431.74    7.90   2
  -2  -3  -7  433.14    8.65   3
  -2   3  -7  427.11    8.36   1
   2   3   7  437.19    8.32   1
   2  -3   7  431.07    8.36   4
   2   3   7  438.33    7.79   2
   3   3   7  356.22    6.70   2
  -3   3  -7  358.50    6.73   2
   3  -3   7  349.97    7.05   4
  -3  -3  -7  352.07    7.40   3
  -3   3  -7  346.17    7.16   1
   3   3   7  349.94    7.02   1
   4  -3   7   49.14    1.86   4
  -4  -3  -7   47.73    1.96   3
   4   3   7   50.44    1.83   2
  -4   3  -7   47.50    1.76   2
   4   3   7   46.00    1.77   1
  -4   3  -7   47.81    1.99   1
  -5   3  -7   72.63    2.33   2
   5   3   7   65.56    2.27   1
  -5  -3  -7   65.07    2.52   3
  -5   3  -7   67.31    2.49   1
   5   3   7   66.90    2.31   2
   6  -3   7   72.22    2.70   1
  -6   3  -7   68.33    2.49   2
   6  -3   7   71.40    2.72   5
   6   3   7   68.83    2.60   2
  -6  -3  -7   68.89    2.82   3
  -6   4   7    5.49    1.20   1
  -6   4   7    5.54    1.19   4
  -6  -4   7    3.00    1.11   3
   6   4  -7    2.81    1.05   2
  -5   4   7   98.33    3.04   1
  -5   4   7   96.95    3.19   4
   5  -4  -7  101.25    3.18   3
   5   4  -7   97.40    3.02   2
  -5  -4   7   96.93    3.23   3
  -5  -4   7   95.23    2.98   4
  -4   4   7   35.52    1.78   4
   4  -4  -7   41.07    1.82   3
   4   4  -7   33.31    1.65   2
  -4  -4   7   30.13    1.66   3
  -4  -4   7   33.47    1.61   4
  -4   4   7   35.44    1.71   1
  -3  -4   7   13.21    1.05   3
   3  -4  -7   12.23    1.05   3
  -3  -4   7   12.83    1.04   4
   3   4  -7   11.70    1.01   2
  -3   4   7   14.30    1.10   1
  -3   4   7   13.74    1.09   4
  -2   4   7   73.14    2.27   4
   2   4  -7   77.28    2.25   2
  -2   4   7   70.29    2.26   1
   2  -4  -7   74.78    2.30   3
  -2  -4   7   73.74    2.13   3
  -2  -4   7   72.78    2.25   4
  -1  -4   7    7.44    0.62   3
   1   4  -7    8.60    0.65   1
   1  -4  -7    7.97    0.82   3
   1   4  -7    7.22    0.76   2
  -1  -4   7    9.68    0.83   4
  -1   4   7    7.18    0.75   4
  -1   4   7    8.65    0.85   1
   0   4   7  253.60    4.55   2
   0   4   7  255.22    5.37   1
   0  -4   7  254.60    5.42   4
   0   4  -7  256.60    5.08   2
   0  -4  -7  246.31    5.46   3
   0  -4  -7  266.60    5.20   4
   0   4  -7  258.11    5.15   1
   1   4   7  684.72   12.87   1
  -1  -4  -7  688.64   13.29   3
   1   4   7  702.77   11.91   2
   1  -4   7  688.78   12.98   4
  -1  -4  -7  703.94   12.58   4
  -1   4  -7  697.85   12.80   1
  -1   4  -7  685.15   12.20   2
   2   4   7  152.56    3.61   1
  -2  -4  -7  151.20    3.78   3
  -2   4  -7  150.66    3.39   2
   2  -4   7  157.22    3.69   4
   2   4   7  153.84    3.29   2
  -2   4  -7  140.70    3.59   1
   3   4   7    8.17    0.84   2
   3  -4   7   10.41    0.99   4
  -3   4  -7    9.13    0.99   1
  -3   4  -7    8.20    0.82   2
   3   4   7   11.92    0.98   1
  -3  -4  -7    8.81    0.98   3
   4   4   7   82.60    2.50   2
   4  -4   7   82.54    2.61   4
  -4   4  -7   75.96    2.64   1
  -4  -4  -7   81.91    2.77   3
  -4   4  -7   82.12    2.42   2
   4   4   7   79.53    2.48   1
  -5   4  -7    0.50    0.85   1
  -5  -4  -7    0.88    0.81   3
   5  -4   7    1.69    0.88   4
  -5   4  -7    1.71    0.76   2
   5   4   7    0.80    0.75   2
   6   4   7    5.78    1.15   2
  -6  -4  -7    5.64    1.24   3
  -6   4  -7    5.05    1.08   2
  -6   4  -7    2.98    1.18   1
  -6  -5   7   -1.38    1.00   3
   6  -5  -7    0.99    1.07   4
   6   5  -7    1.70    1.10   2
  -6   5   7    1.19    1.12   1
  -5  -5   7    9.09    1.31   3
  -5   5   7   10.99    1.28   1
  -5  -5   7   10.05    1.21   4
   5   5  -7   10.54    1.28   2
   5  -5  -7   10.36    1.28   4
  -4  -5   7    1.42    0.75   4
   4   5  -7    1.38    0.78   2
  -4   5   7    1.68    0.81   1
   4  -5  -7    2.92    0.84   4
  -4  -5   7    1.72    0.85   3
   3  -5  -7   -0.52    0.66   3
   3   5  -7    0.02    0.67   2
  -3   5   7    0.32    0.72   1
  -3  -5   7    0.45    0.64   4
  -3  -5   7    0.49    0.63   3
   3  -5  -7    0.36    0.66   4
   2   5  -7  133.53    3.42   2
  -2  -5   7  138.30    3.59   4
  -2   5   7  141.16    3.63   1
  -2  -5   7  138.65    3.40   3
   2  -5  -7  137.36    3.56   3
   2  -5  -7  137.95    3.59   4
   1  -5  -7    7.15    0.87   3
   1   5  -7    8.11    0.90   2
   1  -5  -7    6.73    0.81   4
  -1  -5   7    8.44    0.91   4
  -1   5   7    7.45    0.91   1
   0  -5   7  207.43    4.78   4
   0  -5  -7  205.43    4.78   3
   0   5  -7  211.50    4.47   2
   0   5  -7  209.68    4.52   1
   0   5   7  204.84    4.73   1
   0  -5  -7  206.62    4.54   4
   1  -5   7   81.95    2.58   4
  -1  -5  -7   85.60    2.29   4
  -1   5  -7   85.31    2.40   2
   1   5   7   83.74    2.08   2
   1   5   7   77.27    2.46   1
  -1   5  -7   85.08    2.50   1
  -1  -5  -7   85.45    2.63   3
   2  -5   7   64.52    2.23   4
  -2  -5  -7   64.31    2.28   3
  -2   5  -7   60.27    1.96   2
   2   5   7   60.65    2.12   1
   2   5   7   65.77    1.94   2
  -2   5  -7   64.48    2.22   1
   3  -5   7   14.08    1.21   4
   3   5   7   14.32    1.18   1
   3   5   7   14.06    1.06   2
  -3   5  -7   13.76    1.07   2
  -3  -5  -7   13.66    1.22   3
  -3   5  -7   13.29    1.19   1
  -4   5  -7   14.27    1.38   1
  -4   5  -7   16.73    1.20   2
   4   5   7   13.48    1.19   2
   4  -5   7   17.62    1.39   4
  -4  -5  -7   16.81    1.46   3
  -5   5  -7    8.69    1.12   2
  -5  -5  -7    7.82    1.30   3
   5   5   7    8.57    1.19   2
   5  -5   7    8.69    1.26   4
  -5   5  -7    8.28    1.29   1
   5   6  -7   37.52    2.13   2
   5  -6  -7   38.05    2.26   4
  -5  -6   7   37.97    2.21   3
  -5   6   7   36.32    2.16   1
  -4  -6   7   10.30    1.21   4
   4   6  -7   12.01    1.35   2
  -4   6   7   13.94    1.40   1
   4  -6  -7   10.51    1.33   4
  -4  -6   7   11.51    1.33   3
   3  -6  -7   21.70    1.55   4
   3   6  -7   22.47    1.52   2
  -3   6   7   25.60    1.67   1
  -3  -6   7   22.03    1.50   4
  -2   6   7   70.51    2.56   1
   2  -6  -7   67.27    2.42   3
  -2  -6   7   70.54    2.51   4
   2  -6  -7   69.39    2.46   4
   2   6  -7   68.43    2.38   2
   1   6  -7   -0.36    0.68   2
  -1  -6   7   -0.11    0.65   4
   1  -6  -7   -0.04    0.65   4
  -1   6   7    0.04    0.69   1
   1  -6  -7    0.03    0.67   3
   0  -6  -7   38.65    1.87   3
   0   6  -7   36.69    1.69   2
   0   6  -7   38.79    1.75   1
   0  -6  -7   40.53    1.79   4
   0   6   7   37.55    1.81   1
   0  -6   7   37.95    1.88   4
  -1   6  -7    0.39    0.64   2
   1   6   7    1.38    0.69   1
  -1   6  -7    0.01    0.68   1
  -1  -6  -7    0.19    0.58   4
  -1  -6  -7    0.59    0.71   3
   1  -6   7   -0.69    0.69   4
   2   6   7   51.03    2.05   1
  -2   6  -7   54.48    2.19   1
  -2   6  -7   52.17    1.91   2
   2  -6   7   47.77    2.10   4
  -2  -6  -7   52.83    2.16   3
   2   6   7   51.93    1.85   2
  -3   6  -7   28.75    1.52   2
   3   6   7   33.79    1.74   1
   3  -6   7   32.33    1.83   4
   3   6   7   33.80    1.66   2
  -3   6  -7   30.56    1.78   1
  -3  -6  -7   33.43    1.86   3
  -4   6  -7   34.75    2.03   1
  -4  -6  -7   37.40    2.14   3
  -4   6  -7   39.38    1.81   2
   4  -6   7   40.88    2.12   4
   4   6   7   38.37    1.89   2
  -5  -6  -7  176.33    5.29   3
   5   6   7  195.66    4.91   2
  -5   6  -7  189.05    5.27   1
   5  -6   7  195.13    5.23   4
   4  -7  -7   23.88    1.89   4
   4   7  -7   21.54    1.76   2
  -4   7   7   23.11    1.88   1
  -3   7   7   19.71    1.70   1
  -3  -7   7   22.58    1.61   4
   3   7  -7   19.44    1.59   2
   3  -7  -7   17.35    1.60   4
   2  -7  -7    0.17    0.83   4
  -2  -7   7    0.40    0.78   4
   2   7  -7    0.16    0.90   2
  -2   7   7   -0.45    0.80   1
   1   7  -7    5.04    0.96   2
   1  -7  -7    4.26    1.02   4
  -1  -7   7    4.68    1.04   4
  -1   7   7    5.37    1.04   1
   0  -7   7    5.47    1.07   4
   0   7   7    8.35    1.14   1
   0  -7  -7    9.23    1.16   3
   0  -7  -7    6.43    1.01   4
   0   7  -7    6.71    1.08   2
   1   7   7    0.10    0.81   1
  -1   7  -7    0.75    0.84   1
  -1  -7  -7   -0.38    0.77   3
  -1   7  -7   -0.58    0.74   2
   1  -7   7   -1.04    0.76   4
   2  -7   7    7.54    1.20   4
  -2   7  -7    6.34    0.98   2
  -2   7  -7    5.32    1.17   1
  -2  -7  -7    8.67    1.18   3
   2   7   7    5.33    1.02   1
  -3   7  -7   13.89    1.47   1
   3  -7   7   11.77    1.41   4
  -3  -7  -7   14.82    1.50   3
  -4   7  -7    2.00    1.14   1
  -4  -7  -7    3.54    1.26   3
   4   7   7    2.12    1.08   2
   4  -7   7    1.20    1.11   4
   2   8  -7  112.20    3.55   2
   2  -8  -7  110.29    3.71   4
  -2   8   7  108.45    3.76   1
  -2  -8   7  115.23    3.74   4
   1   8  -7   20.06    1.58   2
  -1   8   7   19.72    1.69   1
  -1  -8   7   18.61    1.65   4
   1  -8  -7   20.62    1.64   4
   0  -8   7   47.91    2.47   4
   0   8   7   47.09    2.35   1
   0  -8  -7   50.21    2.26   4
   0   8  -7   43.72    2.17   2
  -1   8  -7    1.44    1.06   1
  -1   8  -7    1.83    1.05   2
   1  -8   7    1.09    1.04   4
   1   8   7    2.73    1.09   1
   2  -8   7   -0.04    1.00   4
  -2   8  -7    3.92    1.21   1
  -2  -8  -7    2.69    1.14   3
   2   8   7    5.12    1.21   1
  -7   0   8   -0.47    0.98   3
  -7   0   8    0.69    1.04   4
  -6   0   8  100.05    3.32   3
  -6   0   8  107.66    3.26   4
  -5   0   8  160.78    4.03   4
   5   0  -8  154.42    3.57   2
  -5   0   8  156.45    4.12   3
  -4   0   8    6.63    0.84   3
   4   0  -8    8.00    0.73   2
  -4   0   8    8.97    0.87   4
   3   0  -8    0.34    0.37   2
  -3   0   8    0.32    0.46   3
  -3   0   8   -0.35    0.40   4
  -3   0   8    0.47    0.30   1
   2   0  -8  162.47    3.62   3
  -2   0   8  163.12    3.14   1
   2   0  -8  164.87    3.16   2
  -2   0   8  163.62    3.54   4
  -1   0   8    3.50    0.49   4
  -1   0   8    4.06    0.41   1
   1   0  -8    3.87    0.51   3
   1   0  -8    5.21    0.45   2
   0   0  -8  104.79    2.37   3
   0   0   8  107.31    2.28   4
   0   0  -8  106.16    2.16   2
   0   0   8  104.36    2.27   1
   1   0   8  506.89    9.29   1
  -1   0  -8  506.30    9.51   3
   1   0   8  516.62    9.15   4
  -1   0  -8  508.66    8.83   2
   2   0   8    3.24    0.49   1
   2   0   8    2.51    0.30   4
  -2   0  -8    3.26    0.48   2
  -2   0  -8    2.86    0.44   3
   3   0   8  178.27    3.90   1
  -3   0  -8  176.58    3.82   3
  -3   0  -8  169.89    3.69   2
  -4   0  -8   88.15    2.46   3
  -4   0  -8   91.47    2.49   2
   4   0   8   90.61    2.56   1
   5   0   8  149.68    3.78   1
  -5   0  -8  147.40    3.74   3
  -6   0  -8   53.85    2.18   2
   6   0   8   55.51    2.24   1
  -6   0  -8   55.86    2.23   3
  -7   0  -8  122.16    3.70   2
  -7  -1   8   14.54    1.49   4
  -7   1   8   13.84    1.46   4
  -7  -1   8   12.75    1.49   3
   7  -1  -8   12.19    1.53   3
  -6   1   8   37.24    1.95   4
   6   1  -8   35.24    1.71   2
  -6  -1   8   38.19    1.93   4
   6  -1  -8   35.73    1.97   3
  -6  -1   8   35.76    1.98   3
  -5   1   8   15.90    1.25   4
  -5  -1   8   14.55    1.16   4
  -5  -1   8   15.70    1.28   3
   5   1  -8   15.45    1.09   2
   5  -1  -8   16.77    1.32   3
   4   1  -8   41.64    1.52   2
  -4   1   8   41.33    1.43   1
   4  -1  -8   40.38    1.34   2
  -4  -1   8   42.07    1.76   3
   4  -1  -8   43.85    1.77   3
  -4   1   8   40.94    1.71   4
  -4  -1   8   40.95    1.70   4
   3   1  -8   40.63    1.36   2
  -3   1   8   38.81    1.51   4
   3  -1  -8   38.70    1.15   2
  -3  -1   8   37.35    1.49   3
  -3   1   8   39.20    1.28   1
  -3  -1   8   36.40    1.46   4
   3  -1  -8   36.65    1.52   3
  -2   1   8  202.58    3.98   1
   2   1  -8  206.40    3.93   2
   2  -1  -8  205.57    3.63   2
  -2   1   8  198.25    4.23   4
   2  -1  -8  195.48    4.33   3
  -2  -1   8  203.16    4.29   3
  -2  -1   8  202.40    4.25   4
   1   1  -8  826.64   14.52   2
  -1   1   8  867.97   15.43   4
   1  -1  -8  860.47   15.87   3
   1  -1  -8  845.51   14.27   2
  -1  -1   8  862.91   14.99   1
  -1   1   8  867.55   15.19   1
   1   1  -8  868.72   15.75   3
  -1  -1   8  876.56   15.46   4
   0   1   8  534.04    9.60   4
   0   1  -8  533.98    9.21   2
   0  -1   8  532.71    9.53   1
   0  -1   8  538.80    9.72   4
   0  -1  -8  530.86    8.99   2
   0   1  -8  527.18    9.80   3
   0  -1  -8  515.04    9.99   3
   0   1   8  540.52    9.65   1
   1  -1   8   91.43    2.19   1
  -1   1  -8   96.04    2.03   3
  -1  -1  -8   96.45    2.29   3
   1   1   8   92.23    2.23   1
  -1   1  -8   94.39    2.14   2
   1  -1   8   94.77    2.13   4
   1   1   8   96.24    1.91   4
  -1  -1  -8   96.65    2.05   2
   1  -1   8   94.41    2.21   5
   2   1   8  132.70    3.00   1
   2  -1   8  126.74    2.97   5
   2  -1   8  131.48    2.99   1
   2  -1   8  131.83    2.77   4
  -2   1  -8  132.01    2.76   3
  -2   1  -8  128.02    2.84   2
  -2  -1  -8  135.07    3.04   3
  -2  -1  -8  132.01    2.81   2
   3  -1   8  101.03    2.32   4
   3   1   8  100.81    2.61   1
  -3   1  -8  103.77    2.53   2
  -3  -1  -8   99.21    2.49   2
  -3  -1  -8  103.58    2.66   3
  -3   1  -8  102.15    2.39   3
   3  -1   8  102.50    2.65   5
   3  -1   8  102.86    2.65   1
   4  -1   8   65.05    2.08   5
  -4  -1  -8   58.27    1.96   2
  -4   1  -8   63.66    2.00   2
   4   1   8   59.03    1.99   1
   4  -1   8   58.83    2.04   1
  -4  -1  -8   59.82    2.01   3
  -4   1  -8   60.23    1.82   3
   5   1   8   19.14    1.32   1
  -5   1  -8   15.98    1.22   2
  -5   1  -8   18.68    1.23   3
   5  -1   8   18.25    1.31   1
  -5  -1  -8   17.99    1.28   3
   5  -1   8   18.80    1.29   5
  -5  -1  -8   19.06    1.27   2
  -6  -1  -8    1.09    0.79   2
   6   1   8    0.80    0.82   1
  -6  -1  -8    1.89    0.92   3
  -6   1  -8    0.06    0.76   2
   6  -1   8    0.67    0.84   1
  -7   1  -8    0.22    1.00   2
  -7  -1  -8    2.55    1.15   3
  -7  -1  -8   -0.40    0.93   2
   7  -1   8    1.07    1.07   1
   7   2  -8    1.65    1.07   2
  -7   2   8    1.98    1.13   4
   7  -2  -8    2.83    1.20   3
  -7  -2   8    2.17    1.14   3
  -6   2   8   25.37    1.69   4
  -6  -2   8   21.31    1.52   4
   6  -2  -8   24.06    1.71   3
   6   2  -8   22.30    1.53   2
  -6  -2   8   24.16    1.72   3
  -5   2   8   10.89    1.12   4
   5   2  -8    8.72    0.98   2
   5  -2  -8   10.41    1.13   3
  -5  -2   8    7.95    1.07   3
  -5   2   8    9.69    0.97   1
  -5  -2   8    8.87    1.01   4
  -4   2   8   83.89    2.57   4
  -4   2   8   79.57    2.25   1
  -4  -2   8   77.45    2.54   3
   4  -2  -8   79.88    2.51   3
   4   2  -8   80.54    2.31   2
  -4  -2   8   81.80    2.44   4
   3   2  -8  138.39    3.13   2
  -3  -2   8  132.95    3.28   4
  -3  -2   8  136.55    3.38   3
  -3   2   8  138.08    3.36   4
  -3   2   8  137.96    3.14   1
   3  -2  -8  136.86    3.38   3
  -2   2   8    1.49    0.47   4
  -2  -2   8    2.24    0.48   3
   2   2  -8    1.86    0.49   2
  -2   2   8    1.42    0.44   1
  -2  -2   8    1.94    0.49   4
   2  -2  -8    1.51    0.51   3
  -1   2   8   26.05    1.05   4
   1  -2  -8   25.30    1.17   3
  -1  -2   8   26.50    1.00   3
  -1  -2   8   25.07    0.77   1
  -1  -2   8   25.23    0.76   5
   1   2  -8   25.58    1.06   2
  -1  -2   8   24.11    1.09   4
  -1   2   8   25.40    1.07   1
   0   2   8  140.73    2.96   4
   0  -2   8  141.44    3.14   4
   0  -2  -8  142.26    3.25   3
   0   2  -8  145.15    2.89   3
   0   2  -8  146.43    3.02   2
   0  -2  -8  145.01    2.64   2
   0   2  -8  144.64    2.97   1
   0   2   8  143.40    3.13   1
   1  -2   8   66.37    1.78   4
  -1   2  -8   65.41    1.78   1
  -1  -2  -8   65.43    1.88   3
  -1   2  -8   63.01    1.72   2
   1   2   8   66.61    1.45   4
  -1  -2  -8   64.19    1.55   2
   1   2   8   65.12    1.82   1
  -2  -2  -8  536.01   10.52   3
   2   2   8  545.89   10.17   1
  -2   2  -8  547.54   10.21   1
  -2   2  -8  550.67    9.71   2
   2  -2   8  548.36   10.12   4
  -2  -2  -8  549.50    9.60   2
  -3  -2  -8   17.73    1.21   3
  -3   2  -8   17.45    0.81   3
  -3   2  -8   18.06    1.13   2
   3   2   8   19.22    1.14   1
  -3  -2  -8   18.97    1.09   2
   3  -2   8   17.29    0.99   4
  -3   2  -8   17.03    1.15   1
   4  -2   8   14.31    0.93   4
   4   2   8   13.56    1.02   1
   4  -2   8   14.11    1.07   1
  -4  -2  -8   10.51    1.00   3
  -4   2  -8   12.21    0.99   2
  -4  -2  -8   13.57    1.01   2
   4  -2   8   11.48    1.02   5
  -5   2  -8    0.39    0.66   2
   5  -2   8    0.33    0.69   5
   5  -2   8    0.23    0.67   1
  -5  -2  -8    0.05    0.63   2
   5   2   8    0.32    0.65   1
  -5  -2  -8    0.25    0.70   3
   6  -2   8    4.09    0.99   5
  -6   2  -8    2.79    0.88   2
   6  -2   8    3.03    0.97   1
  -6  -2  -8    2.44    0.88   2
  -6  -2  -8    3.00    1.01   3
  -7  -2  -8   27.37    2.00   3
   7  -2   8   23.92    1.87   1
  -7   2  -8   26.87    1.80   2
   7   2   8   27.38    1.86   2
  -6  -3   8   80.72    3.07   3
   6   3  -8   80.04    2.80   2
  -6   3   8   75.51    2.92   4
  -6  -3   8   75.20    2.72   4
   6  -3  -8   82.25    2.99   3
  -5  -3   8    2.90    0.87   3
   5  -3  -8    4.91    0.96   3
  -5  -3   8    3.87    0.84   4
  -5   3   8    3.38    0.88   4
   5   3  -8    2.80    0.84   2
  -5   3   8    2.09    0.80   1
  -4   3   8  350.66    7.38   4
   4  -3  -8  348.67    7.45   3
  -4   3   8  353.29    7.10   1
  -4  -3   8  344.49    7.46   3
  -4  -3   8  341.04    7.19   4
  -3   3   8  243.41    5.09   1
   3   3  -8  241.40    4.97   2
  -3  -3   8  238.75    5.17   4
  -3   3   8  233.05    5.24   4
  -3  -3   8  237.72    5.25   3
   3  -3  -8  234.40    5.29   3
  -2  -3   8  152.51    3.54   3
  -2   3   8  155.44    3.64   4
  -2  -3   8  159.71    3.66   4
  -2   3   8  160.20    3.60   1
   2  -3  -8  156.88    3.72   3
   2   3  -8  157.59    3.50   2
   1   3  -8   68.15    1.91   2
  -1  -3   8   65.76    1.76   3
  -1   3   8   70.34    1.94   4
  -1  -3   8   65.65    1.99   4
  -1   3   8   69.12    1.98   1
   1  -3  -8   66.82    2.04   3
   1   3  -8   68.50    1.64   1
   0   3   8   18.58    1.05   1
   0   3  -8   18.27    0.94   1
   0   3  -8   19.42    1.04   2
   0   3   8   17.35    0.64   2
   0  -3   8   17.38    1.06   4
   0  -3  -8   19.56    1.11   3
   0   3   8   19.01    0.91   4
  -1   3  -8  162.90    3.59   1
  -1  -3  -8  166.88    3.28   4
   1   3   8  165.40    3.20   2
   1   3   8  163.84    3.67   1
  -1   3  -8  164.31    3.48   2
  -1  -3  -8  157.59    3.76   3
   1  -3   8  163.25    3.66   4
   2   3   8   19.52    1.16   1
  -2  -3  -8   18.56    1.20   3
   2  -3   8   16.97    1.08   4
  -2   3  -8   16.19    1.05   2
  -2  -3  -8   17.97    1.01   2
  -2   3  -8   17.44    1.12   1
  -3   3  -8  561.77   10.24   2
  -3   3  -8  565.28   10.85   1
  -3  -3  -8  570.37   11.19   3
   3   3   8  559.90   10.73   1
   3  -3   8  559.80   10.76   4
  -3  -3  -8  574.29   10.21   2
  -4  -3  -8   12.15    1.09   3
  -4   3  -8    9.75    0.94   2
   4   3   8   10.55    0.99   1
  -4   3  -8    9.90    1.05   1
   4   3   8    9.88    0.94   2
   4  -3   8   10.81    0.97   4
  -5   3  -8   99.57    2.86   2
   5   3   8   95.63    2.86   2
  -5  -3  -8   95.26    3.10   3
   5   3   8   96.51    2.89   1
  -5   3  -8   94.52    3.07   1
  -6   3  -8    1.44    0.92   2
  -6  -3  -8    1.01    0.99   3
   6  -3   8    4.50    1.04   1
   6   3   8    1.91    0.90   2
   6  -3   8    2.65    1.01   5
   6   4  -8   15.39    1.53   2
  -6   4   8   18.68    1.64   4
  -6   4   8   20.14    1.62   1
  -6  -4   8   19.61    1.71   3
  -5  -4   8   40.33    2.03   3
   5  -4  -8   40.62    2.04   3
   5   4  -8   39.65    1.93   2
  -5   4   8   37.12    1.87   1
  -5   4   8   37.44    2.01   4
  -5  -4   8   43.05    1.99   4
  -4   4   8  113.76    3.22   1
  -4  -4   8  116.58    3.20   4
  -4  -4   8  105.65    3.25   3
  -4   4   8  115.61    3.39   4
   4  -4  -8  119.57    3.34   3
   4   4  -8  115.47    3.18   2
  -3   4   8  100.12    2.81   1
  -3  -4   8   96.21    2.76   3
   3  -4  -8   94.61    2.82   3
  -3  -4   8   97.14    2.79   4
  -3   4   8   90.98    2.81   4
   3   4  -8   92.32    2.68   2
  -2   4   8   33.73    1.58   1
  -2   4   8   31.11    1.52   4
  -2  -4   8   34.32    1.44   3
  -2  -4   8   38.23    1.62   4
   2   4  -8   36.28    1.57   2
   2  -4  -8   36.36    1.63   3
  -1   4   8   10.08    0.93   1
  -1  -4   8   10.79    0.73   3
   1   4  -8   11.39    0.72   1
  -1   4   8    9.57    0.84   4
   1  -4  -8   12.20    0.98   3
  -1  -4   8   10.68    0.92   4
   1   4  -8   10.80    0.93   2
   0   4   8    7.90    0.85   1
   0   4  -8    9.98    0.84   2
   0  -4  -8   10.11    0.88   3
   0  -4  -8    9.48    0.75   4
   0  -4   8   10.84    0.89   4
   0   4  -8    8.38    0.73   1
   0   4   8    8.73    0.57   2
  -1   4  -8   91.82    2.43   2
  -1  -4  -8   91.56    2.64   3
   1  -4   8   90.96    2.58   4
  -1   4  -8   91.40    2.48   1
   1   4   8   91.48    2.10   2
   1   4   8   90.37    2.55   1
  -1  -4  -8   92.64    2.23   4
  -2  -4  -8   65.41    2.25   3
   2   4   8   67.06    2.14   1
   2  -4   8   61.14    2.08   4
   2   4   8   65.80    1.87   2
  -2   4  -8   65.78    1.99   2
  -2   4  -8   64.32    2.14   1
   3   4   8   46.09    1.78   1
  -3  -4  -8   43.66    1.90   3
  -3   4  -8   40.81    1.83   1
  -3   4  -8   41.50    1.62   2
   3  -4   8   42.49    1.73   4
   3   4   8   44.03    1.62   2
  -4   4  -8   11.59    1.04   2
   4   4   8   10.98    1.04   2
  -4  -4  -8   14.09    1.26   3
  -4   4  -8   12.51    1.22   1
   4   4   8   10.49    1.06   1
   4  -4   8   13.77    1.15   4
  -5   4  -8    7.88    1.18   1
  -5  -4  -8    7.32    1.20   3
   5   4   8    7.80    1.05   2
  -5   4  -8    9.54    1.09   2
   6   4   8   44.63    2.21   2
   6  -4   8   43.48    2.30   1
   6  -4   8   40.68    2.27   5
  -6  -4  -8   42.68    2.38   3
  -6   4  -8   48.69    2.16   2
  -5   5   8    5.51    1.10   1
  -5  -5   8    4.58    1.01   4
   5   5  -8    2.56    1.03   2
  -5   5   8    4.55    1.19   4
  -5  -5   8    3.78    1.09   3
   4  -5  -8   23.70    1.65   3
   4   5  -8   27.33    1.64   2
  -4  -5   8   26.98    1.60   4
  -4   5   8   25.03    1.71   4
  -4  -5   8   24.29    1.59   3
  -4   5   8   28.85    1.72   1
   3  -5  -8   18.08    1.33   3
   3   5  -8   19.65    1.37   2
  -3  -5   8   15.89    1.23   3
  -3  -5   8   18.91    1.31   4
  -3   5   8   15.10    1.26   1
  -3   5   8   20.01    1.42   4
  -2  -5   8  132.23    3.52   4
  -2   5   8  126.31    3.48   1
   2  -5  -8  131.23    3.48   3
   2  -5  -8  134.32    3.52   4
  -2  -5   8  133.40    3.31   3
   2   5  -8  131.22    3.36   2
   1   5  -8   10.02    0.97   2
  -1  -5   8   11.70    1.05   4
  -1   5   8    9.35    0.99   1
   1  -5  -8   11.22    1.01   3
   1  -5  -8    8.65    0.92   4
   0   5  -8   39.84    1.68   2
   0   5   8   39.96    1.74   1
   0   5  -8   43.25    1.66   1
   0  -5   8   42.88    1.83   4
   0  -5  -8   39.87    1.79   3
   0  -5  -8   41.79    1.63   4
  -1   5  -8  236.64    5.20   1
   1  -5   8  237.40    5.37   4
  -1  -5  -8  234.86    5.44   3
  -1   5  -8  246.62    5.03   2
  -1  -5  -8  242.90    4.93   4
   1   5   8  239.15    4.60   2
   1   5   8  225.19    5.24   1
  -2   5  -8    7.42    0.85   2
   2  -5   8    8.18    0.97   4
   2   5   8    6.94    0.79   2
  -2  -5  -8   10.05    1.05   3
  -2   5  -8    6.83    0.93   1
   2   5   8    7.11    0.91   1
  -3   5  -8   18.82    1.21   2
   3   5   8   18.41    1.30   1
  -3   5  -8   19.92    1.44   1
   3  -5   8   22.24    1.42   4
  -3  -5  -8   19.46    1.42   3
   3   5   8   18.83    1.21   2
   4   5   8   -0.53    0.70   2
  -4  -5  -8   -0.44    0.75   3
   4   5   8    0.59    0.79   1
  -4   5  -8    0.07    0.70   2
   4  -5   8    0.67    0.73   4
  -4   5  -8    1.23    0.84   1
   5  -5   8   10.34    1.33   4
  -5   5  -8    8.60    1.16   2
  -5  -5  -8    7.89    1.29   3
  -5   5  -8   10.26    1.38   1
   5   5   8    6.40    1.13   2
  -5  -6   8   33.90    2.09   3
  -5   6   8   33.27    2.05   1
   5   6  -8   31.97    2.06   2
   5  -6  -8   29.08    2.09   4
  -4  -6   8   50.51    2.29   3
   4   6  -8   46.65    2.26   2
   4  -6  -8   51.68    2.39   4
  -4   6   8   51.62    2.37   1
  -4  -6   8   50.87    2.21   4
  -3  -6   8   62.14    2.38   4
   3  -6  -8   62.90    2.50   4
   3   6  -8   59.44    2.33   2
  -3   6   8   60.80    2.48   1
  -2  -6   8   63.46    2.44   4
   2  -6  -8   68.36    2.46   4
   2  -6  -8   66.19    2.44   3
  -2   6   8   66.22    2.48   1
   2   6  -8   68.65    2.38   2
  -1  -6   8    3.11    0.88   4
   1  -6  -8    4.28    0.91   3
   1  -6  -8    5.62    0.94   4
   1   6  -8    4.81    0.91   2
  -1   6   8    4.99    0.91   1
   0  -6   8    0.98    0.73   4
   0   6  -8    1.21    0.73   1
   0   6   8    0.44    0.70   1
   0   6  -8    0.64    0.69   2
   0  -6  -8    0.36    0.71   3
   0  -6  -8    0.84    0.65   4
  -1  -6  -8   65.99    2.44   3
   1  -6   8   68.58    2.49   4
  -1   6  -8   70.41    2.30   2
  -1   6  -8   68.33    2.37   1
   1   6   8   65.32    2.38   1
   2  -6   8   30.96    1.79   4
  -2  -6  -8   32.62    1.77   3
  -2   6  -8   32.63    1.57   2
   2   6   8   33.66    1.73   1
   2   6   8   36.67    1.56   2
  -2   6  -8   32.68    1.75   1
  -3  -6  -8   37.97    2.02   3
  -3   6  -8   43.23    2.08   1
   3  -6   8   43.74    2.08   4
  -3   6  -8   41.45    1.78   2
   3   6   8   41.62    1.94   1
   3   6   8   43.74    1.88   2
  -4   6  -8    1.88    1.04   1
  -4  -6  -8    3.93    1.16   3
   4  -6   8    4.78    1.11   4
  -4   6  -8    4.37    0.93   2
   4   6   8    1.70    0.89   2
   5   6   8   42.97    2.20   2
  -5   6  -8   41.37    2.41   1
  -5  -6  -8   44.62    2.49   3
   5  -6   8   43.33    2.35   4
   4   7  -8   41.72    2.28   2
   4  -7  -8   40.44    2.33   4
  -4  -7   8   41.70    2.21   4
  -4   7   8   43.11    2.38   1
  -3   7   8   13.74    1.52   1
  -3  -7   8   14.47    1.42   4
   3   7  -8   12.05    1.38   2
   3  -7  -8   15.43    1.54   4
  -2   7   8   -0.26    0.84   1
   2   7  -8    0.80    0.90   2
  -2  -7   8    1.78    0.92   4
   2  -7  -8    1.04    0.86   4
  -1   7   8    0.65    0.89   1
   1  -7  -8    0.74    0.85   4
   1   7  -8    1.43    0.86   2
  -1  -7   8    0.96    0.88   4
   0   7   8    9.38    1.21   1
   0  -7  -8    9.10    1.21   3
   0  -7  -8   10.00    1.16   4
   0   7  -8   11.53    1.20   2
   0  -7   8   11.92    1.29   4
  -1  -7  -8    0.67    0.83   3
   1   7   8    1.89    0.89   1
   1  -7   8   -0.41    0.86   4
  -1   7  -8    1.27    0.90   1
  -1   7  -8    1.33    0.83   2
  -2   7  -8    4.64    1.02   1
   2   7   8    7.00    1.17   1
   2  -7   8    6.37    1.16   4
  -2  -7  -8    8.15    1.20   3
  -2   7  -8    7.03    1.02   2
  -3  -7  -8   61.49    2.68   3
  -3   7  -8   58.72    2.63   1
   3  -7   8   62.86    2.68   4
  -4  -7  -8    0.74    1.16   3
  -4   7  -8    0.34    1.05   1
   4  -7   8   -0.95    1.05   4
   4   7   8    1.64    1.08   2
   2  -8  -8   32.11    2.17   4
  -2   8   8   30.13    2.12   1
   2   8  -8   27.49    1.90   2
  -2  -8   8   33.10    2.15   4
  -1  -8   8   10.47    1.44   4
  -1   8   8   13.57    1.57   1
   1  -8  -8   14.81    1.50   4
   1   8  -8   15.33    1.50   2
   0  -8   8   32.77    2.12   4
   0   8  -8   32.39    1.98   2
   0   8   8   31.15    2.01   1
  -1   8  -8   24.59    1.70   2
   1   8   8   23.98    1.82   1
   1  -8   8   22.50    1.88   4
  -1  -8  -8   20.67    1.70   3
   2   8   8    0.28    1.04   1
   2  -8   8   -1.79    0.97   4
  -2  -8  -8    1.67    1.08   3
  -2   8  -8   -0.67    1.02   1
  -7   0   9    1.12    1.08   4
   7   0  -9    0.98    1.04   3
  -6   0   9    0.02    0.83   4
  -6   0   9   -0.52    0.77   3
  -5   0   9    0.15    0.65   4
  -5   0   9   -0.23    0.63   3
   5   0  -9    0.15    0.60   2
   4   0  -9   -0.63    0.45   2
  -4   0   9   -0.30    0.51   4
  -4   0   9    0.44    0.57   3
   3   0  -9   -0.16    0.48   3
  -3   0   9    0.01    0.29   1
  -3   0   9    0.12    0.43   4
   3   0  -9   -0.26    0.38   2
  -2   0   9   -0.03    0.38   4
   2   0  -9   -0.44    0.38   3
   2   0  -9   -0.37    0.31   2
  -2   0   9   -0.26    0.24   1
   1   0  -9   -0.38    0.27   2
  -1   0   9    0.39    0.35   4
   1   0  -9   -0.13    0.34   3
  -1   0   9   -0.02    0.28   1
   0   0   9   -0.35    0.29   4
   0   0  -9   -0.24    0.28   2
   0   0   9    0.07    0.31   1
   0   0  -9    0.04    0.33   3
   1   0   9    0.16    0.34   1
  -1   0  -9    0.13    0.31   2
   1   0   9    0.04    0.25   4
  -1   0  -9   -0.02    0.33   3
   2   0   9    0.07    0.24   4
  -2   0  -9   -0.13    0.33   3
   2   0   9   -0.29    0.34   1
  -2   0  -9   -0.01    0.36   2
   3   0   9   -0.16    0.43   1
  -3   0  -9    0.02    0.42   3
  -3   0  -9    0.18    0.43   2
   4   0   9   -0.23    0.52   1
  -4   0  -9   -0.44    0.51   3
  -4   0  -9   -0.01    0.52   2
  -5   0  -9    0.37    0.64   2
  -5   0  -9   -0.78    0.56   3
   5   0   9   -0.94    0.60   1
   6   0   9    0.00    0.79   1
  -6   0  -9    0.79    0.82   3
  -6   0  -9   -0.44    0.74   2
  -7   0  -9   -1.36    0.99   2
   7  -1  -9    2.94    1.15   3
  -7  -1   9    3.99    1.19   3
  -7  -1   9    3.48    1.19   4
  -7   1   9    2.34    1.13   4
  -6  -1   9   21.05    1.49   4
  -6   1   9   20.22    1.56   4
  -6  -1   9   17.98    1.53   3
   6   1  -9   18.87    1.38   2
   6  -1  -9   19.90    1.53   3
  -5  -1   9   24.55    1.58   3
   5  -1  -9   26.94    1.59   3
   5   1  -9   27.59    1.42   2
  -5   1   9   27.40    1.59   4
  -5  -1   9   27.11    1.51   4
   4  -1  -9   25.58    1.44   3
  -4  -1   9   24.47    1.45   3
  -4  -1   9   26.82    1.43   4
  -4   1   9   24.82    1.17   1
   4   1  -9   23.66    1.24   2
  -4   1   9   24.05    1.40   4
   3  -1  -9   60.07    1.99   3
  -3  -1   9   61.19    1.97   4
  -3  -1   9   62.74    2.01   3
   3  -1  -9   63.54    1.56   2
   3   1  -9   63.43    1.80   2
  -3   1   9   64.07    2.01   4
  -3   1   9   66.02    1.73   1
  -2  -1   9    0.82    0.43   4
   2  -1  -9    1.84    0.50   3
   2   1  -9    0.11    0.36   2
  -2   1   9    0.45    0.35   1
  -2   1   9    0.69    0.42   4
  -2  -1   9    0.06    0.40   3
   2  -1  -9    1.32    0.31   2
   1   1  -9  515.29    9.56   3
  -1  -1   9  514.60    8.99   1
   1  -1  -9  507.02    8.55   2
   1  -1  -9  515.41    9.68   3
  -1   1   9  490.65    9.18   1
  -1  -1   9  509.23    9.42   4
  -1   1   9  490.57    9.35   4
   1   1  -9  503.39    8.83   2
   0   1  -9  171.72    3.55   3
   0  -1   9  176.76    3.50   1
   0  -1  -9  171.79    3.24   2
   0   1   9  174.33    3.62   1
   0  -1   9  180.50    3.63   4
   0  -1  -9  179.69    3.78   3
   0   1  -9  173.15    3.45   2
   0   1   9  177.51    3.51   4
   1  -1   9  166.40    3.47   1
   1   1   9  165.25    3.52   1
   1   1   9  160.73    3.16   4
   1  -1   9  167.85    3.40   4
  -1   1  -9  165.38    3.33   3
   1  -1   9  163.32    3.46   5
  -1   1  -9  164.10    3.34   2
  -1  -1  -9  165.91    3.23   2
  -1  -1  -9  168.11    3.61   3
  -2   1  -9    0.61    0.32   3
   2  -1   9   -0.20    0.38   5
   2  -1   9    0.09    0.37   1
  -2   1  -9   -0.49    0.34   2
   2  -1   9    0.05    0.31   4
  -2  -1  -9    0.05    0.40   3
   2   1   9    0.44    0.42   1
  -2  -1  -9    0.56    0.37   2
   3  -1   9   58.42    1.90   5
  -3  -1  -9   58.22    1.90   3
   3  -1   9   60.12    1.62   4
  -3  -1  -9   57.88    1.78   2
  -3   1  -9   56.74    1.63   3
  -3   1  -9   59.51    1.82   2
   3  -1   9   60.69    1.92   1
   3   1   9   59.27    1.91   1
  -4  -1  -9   -0.23    0.51   2
  -4   1  -9    0.18    0.55   2
   4  -1   9    0.50    0.56   1
  -4  -1  -9    0.34    0.54   3
  -4   1  -9   -0.18    0.47   3
   4   1   9    0.58    0.57   1
   4  -1   9    0.24    0.53   5
   5   1   9   15.66    1.21   1
   5  -1   9   14.74    1.22   1
  -5  -1  -9   14.57    1.19   2
  -5  -1  -9   17.03    1.25   3
  -5   1  -9   16.60    1.21   2
  -6   1  -9    8.91    1.16   2
  -6  -1  -9    7.68    1.06   2
   6  -1   9    9.26    1.19   1
  -6  -1  -9    8.46    1.16   3
   6   1   9    9.84    1.20   1
  -7  -1  -9    3.92    1.20   3
   7  -1   9    3.74    1.23   1
  -7  -1  -9    3.65    1.11   2
  -7   1  -9    1.13    1.04   2
   7  -2  -9    0.41    1.19   3
  -7  -2   9    1.55    1.12   3
   7   2  -9    2.06    1.09   2
  -7   2   9    0.05    1.05   4
   6  -2  -9   28.13    1.85   3
   6   2  -9   25.31    1.62   2
  -6   2   9   27.39    1.75   4
  -6  -2   9   26.55    1.72   4
  -6  -2   9   25.34    1.78   3
  -5  -2   9   12.98    1.20   3
  -5  -2   9   14.34    1.19   4
  -5   2   9   11.71    1.20   4
   5  -2  -9   13.52    1.25   3
   5   2  -9   11.53    1.09   2
  -4  -2   9    2.24    0.72   3
  -4   2   9    3.49    0.78   4
   4   2  -9    4.61    0.74   2
  -4   2   9    3.39    0.68   1
  -4  -2   9    3.53    0.74   4
   4  -2  -9    2.02    0.71   3
  -3   2   9  143.76    3.25   1
  -3   2   9  140.86    3.47   4
   3   2  -9  139.33    3.22   2
  -3  -2   9  143.77    3.45   4
  -3  -2   9  145.24    3.52   3
   3  -2  -9  137.81    3.52   3
  -2  -2   9   30.19    1.31   4
   2  -2  -9   31.32    1.37   3
  -2  -2   9   30.56    1.27   3
  -2   2   9   31.82    1.31   4
   2   2  -9   30.18    1.26   2
  -2   2   9   30.68    1.22   1
  -1   2   9   87.09    2.21   1
   1  -2  -9   93.49    2.41   3
   1   2  -9   92.08    2.19   2
  -1   2   9   90.56    2.23   4
  -1  -2   9   85.82    2.13   3
  -1  -2   9   86.96    2.28   4
  -1  -2   9   86.35    1.87   1
   0  -2  -9   22.74    1.09   3
   0   2   9   22.30    1.04   1
   0  -2   9   21.53    0.90   1
   0   2  -9   22.92    0.82   3
   0  -2   9   22.48    0.90   5
   0   2  -9   22.07    1.00   2
   0   2   9   22.84    0.90   4
   0  -2  -9   21.83    0.73   2
   0  -2   9   22.91    1.07   4
  -1   2  -9  103.58    2.48   1
   1  -2   9  105.07    2.48   4
   1   2   9  103.97    2.54   1
  -1  -2  -9  103.03    2.62   3
   1   2   9  105.42    2.14   4
  -1   2  -9  100.08    2.41   2
  -1  -2  -9  101.29    2.19   2
   2   2   9  591.55   10.99   1
  -2  -2  -9  583.32   10.35   2
   2  -2   9  597.87   10.92   4
  -2   2  -9  595.88   10.49   2
  -2   2  -9  589.70   11.00   1
  -2  -2  -9  584.81   11.35   3
   3  -2   9  263.47    5.60   1
   3  -2   9  265.59    5.38   4
   3  -2   9  259.20    5.59   5
  -3   2  -9  276.08    5.38   2
   3   2   9  269.97    5.58   1
  -3  -2  -9  261.58    5.27   2
  -3  -2  -9  267.98    5.76   3
   4  -2   9    5.14    0.81   5
  -4  -2  -9    3.61    0.77   3
  -4  -2  -9    6.09    0.78   2
  -4   2  -9    5.15    0.78   2
   4   2   9    5.29    0.78   1
   4  -2   9    4.84    0.83   1
   5   2   9   20.83    1.40   1
  -5  -2  -9   18.62    1.38   3
   5  -2   9   21.62    1.45   5
  -5  -2  -9   19.39    1.32   2
   5  -2   9   19.31    1.39   1
  -5   2  -9   22.95    1.43   2
   6  -2   9   15.80    1.44   1
  -6  -2  -9   15.23    1.38   2
  -6   2  -9   13.86    1.36   2
   6  -2   9   13.77    1.40   5
  -6  -2  -9   15.32    1.50   3
  -6   3   9   66.80    2.72   4
  -6  -3   9   64.05    2.54   4
  -6  -3   9   68.87    2.84   3
   6   3  -9   65.79    2.55   2
   6  -3  -9   65.77    2.73   3
  -5   3   9  122.10    3.24   1
  -5  -3   9  113.20    3.29   4
  -5   3   9  109.64    3.41   4
  -5  -3   9  109.33    3.48   3
   5   3  -9  117.84    3.24   2
   5  -3  -9  117.40    3.49   3
  -4  -3   9  252.45    5.70   4
  -4   3   9  260.99    5.58   1
  -4   3   9  261.18    5.88   4
   4   3  -9  258.96    5.51   2
  -4  -3   9  257.75    5.91   3
   4  -3  -9  265.85    5.96   3
  -3   3   9  170.26    4.18   4
  -3   3   9  179.58    4.04   1
  -3  -3   9  182.57    4.17   4
   3   3  -9  175.14    3.96   2
  -3  -3   9  170.67    4.14   3
   3  -3  -9  176.40    4.25   3
   2  -3  -9   18.04    1.23   3
  -2   3   9   16.76    1.11   1
   2   3  -9   19.30    1.16   2
  -2  -3   9   18.66    1.17   4
  -2   3   9   19.74    1.14   4
  -2  -3   9   16.97    1.08   3
   1  -3  -9   17.01    1.15   3
  -1  -3   9   18.29    1.12   4
  -1   3   9   17.67    1.07   1
   1   3  -9   17.51    0.84   1
   1   3  -9   16.89    1.06   2
  -1  -3   9   18.02    0.93   3
  -1   3   9   18.07    1.01   4
   0   3  -9   -0.03    0.36   1
   0   3  -9   -0.33    0.25   3
   0   3   9    0.41    0.24   2
   0  -3   9   -0.05    0.43   4
   0  -3  -9    0.01    0.48   3
   0   3   9    0.10    0.44   1
   0   3   9   -0.18    0.35   4
   0   3  -9    0.44    0.45   2
  -1  -3  -9  120.36    2.58   4
  -1  -3  -9  119.30    3.08   3
   1  -3   9  125.90    2.99   4
  -1   3  -9  123.92    2.92   1
  -1  -3  -9  124.66    2.59   2
   1   3   9  120.24    2.99   1
  -1   3  -9  124.10    2.87   2
  -2  -3  -9  192.43    4.42   3
   2  -3   9  189.46    4.20   4
  -2  -3  -9  193.37    3.89   2
   2   3   9  191.86    4.27   1
  -2   3  -9  191.22    4.07   2
  -2   3  -9  184.85    4.24   1
  -3   3  -9   13.98    1.09   1
   3  -3   9   15.98    1.10   4
  -3  -3  -9   15.37    1.01   2
  -3  -3  -9   12.40    1.08   3
  -3   3  -9   13.61    1.00   2
   3   3   9   14.25    1.06   1
  -4   3  -9   48.05    2.03   1
   4  -3   9   53.08    1.87   4
  -4   3  -9   49.46    1.87   2
   4   3   9   49.29    1.91   1
  -4  -3  -9   50.18    1.87   2
  -4  -3  -9   48.10    2.03   3
   5  -3   9   35.32    1.82   5
   5  -3   9   31.00    1.72   1
   5   3   9   29.71    1.64   1
  -5  -3  -9   31.57    1.81   3
   5   3   9   30.81    1.64   2
  -5   3  -9   34.40    1.69   2
   6  -3   9    1.51    0.97   5
  -6   3  -9    3.14    0.94   2
  -6  -3  -9    2.82    1.06   3
   6  -3   9    3.10    1.00   1
   6   3   9    2.58    0.93   2
  -6   4   9    1.53    1.04   4
   6   4  -9   -1.06    0.95   2
  -6  -4   9    0.67    1.02   3
   5  -4  -9   62.05    2.55   3
  -5   4   9   61.68    2.37   1
  -5   4   9   59.83    2.52   4
  -5  -4   9   65.70    2.60   3
   5   4  -9   65.77    2.46   2
  -5  -4   9   66.48    2.48   4
  -4  -4   9    2.59    0.77   4
  -4   4   9    3.55    0.83   1
  -4  -4   9    5.27    0.91   3
  -4   4   9    5.39    0.95   4
   4   4  -9    2.41    0.85   2
   4  -4  -9    3.05    0.85   3
  -3   4   9  244.98    5.62   4
  -3  -4   9  247.02    5.54   3
   3   4  -9  250.34    5.36   2
   3  -4  -9  248.70    5.67   3
  -3   4   9  248.49    5.49   1
  -3  -4   9  253.32    5.56   4
  -2   4   9  431.07    8.60   1
  -2  -4   9  437.47    8.60   3
  -2  -4   9  440.37    8.70   4
   2   4  -9  432.65    8.24   2
   2  -4  -9  431.21    8.86   3
  -2   4   9  432.27    8.66   4
  -1  -4   9   95.04    2.70   4
  -1  -4   9   94.92    2.35   3
  -1   4   9   96.33    2.56   4
  -1   4   9   94.27    2.67   1
   1   4  -9   94.48    2.56   2
   1  -4  -9   95.13    2.73   3
   0   4  -9   -0.11    0.43   1
   0  -4   9   -0.60    0.50   4
   0  -4  -9   -0.17    0.41   4
   0   4  -9   -0.07    0.52   2
   0  -4  -9    0.44    0.55   3
   0   4   9   -0.20    0.48   1
  -1  -4  -9    3.42    0.51   4
  -1   4  -9    3.31    0.67   2
   1  -4   9    2.80    0.67   4
  -1   4  -9    3.69    0.67   1
   1   4   9    2.93    0.48   2
  -1  -4  -9    4.44    0.75   3
   1   4   9    4.40    0.75   1
   2   4   9   49.86    1.86   1
  -2   4  -9   46.41    1.84   1
  -2   4  -9   51.34    1.75   2
   2   4   9   49.04    1.58   2
  -2  -4  -9   50.46    1.97   3
   2  -4   9   46.85    1.81   4
  -3  -4  -9   67.06    2.37   3
  -3   4  -9   62.91    2.07   2
   3   4   9   65.20    2.02   2
   3  -4   9   61.85    2.16   4
   3   4   9   66.59    2.23   1
  -3   4  -9   63.68    2.28   1
  -4   4  -9   47.17    1.86   2
  -4   4  -9   46.51    2.05   1
   4  -4   9   45.69    1.94   4
  -4  -4  -9   43.09    2.04   3
   4   4   9   47.26    1.85   2
   4   4   9   46.30    1.95   1
   5   4   9   -0.79    0.72   2
  -5   4  -9   -0.03    0.84   1
  -5  -4  -9   -0.16    0.86   3
  -5   4  -9    1.19    0.85   2
  -6   4  -9    0.12    0.99   2
   6  -4   9    0.23    0.98   1
  -6  -4  -9    0.32    1.09   3
   6   4   9    0.97    1.00   2
   6  -4   9    0.84    0.96   5
  -5   5   9   10.91    1.28   1
  -5   5   9    5.69    1.29   4
  -5  -5   9    9.48    1.32   3
   5   5  -9    8.59    1.26   2
  -5  -5   9   10.78    1.27   4
   4  -5  -9   22.76    1.59   3
  -4   5   9   22.56    1.59   1
  -4  -5   9   21.56    1.51   4
  -4  -5   9   19.84    1.48   3
  -4   5   9   22.34    1.63   4
   4   5  -9   22.61    1.55   2
  -3   5   9   52.05    2.11   1
   3   5  -9   50.69    2.02   2
  -3  -5   9   48.16    2.07   4
  -3  -5   9   48.46    1.97   3
   3  -5  -9   49.65    2.12   3
  -3   5   9   48.59    2.08   4
   2  -5  -9    1.06    0.71   4
   2   5  -9    1.93    0.73   2
   2  -5  -9    1.33    0.72   3
  -2  -5   9    2.29    0.75   4
  -2   5   9    1.16    0.69   1
  -1  -5   9  193.68    4.56   4
   1   5  -9  186.37    4.27   2
   1  -5  -9  186.80    4.55   3
  -1   5   9  185.31    4.49   1
   1  -5  -9  190.37    4.37   4
   0   5  -9  134.50    3.31   2
   0   5  -9  132.68    3.26   1
   0  -5  -9  133.42    3.24   4
   0  -5   9  132.46    3.52   4
   0   5   9  131.21    3.47   1
   0  -5  -9  128.42    3.52   3
  -1  -5  -9  271.27    5.45   4
  -1   5  -9  261.82    5.52   2
   1  -5   9  268.12    5.93   4
  -1   5  -9  267.79    5.73   1
   2   5   9    0.71    0.57   2
  -2   5  -9    1.20    0.60   2
   2  -5   9    2.01    0.75   4
  -2  -5  -9    2.12    0.79   3
  -2   5  -9    0.27    0.67   1
   2   5   9    0.97    0.70   1
  -3   5  -9    6.05    1.01   1
   3   5   9    6.84    0.90   2
  -3  -5  -9    6.54    0.99   3
   3  -5   9    7.25    1.00   4
   3   5   9    6.53    0.99   1
  -3   5  -9    6.62    0.90   2
   4  -5   9    3.12    0.93   4
  -4  -5  -9    3.47    1.03   3
  -4   5  -9    3.13    0.85   2
   4   5   9    1.44    0.85   2
  -4   5  -9    2.33    0.94   1
   4   5   9    3.11    0.95   1
   5  -5   9    2.28    1.00   4
   5   5   9    1.51    0.98   2
  -5   5  -9    2.96    0.95   2
  -5  -5  -9    1.68    1.08   3
  -5   5  -9    1.69    1.15   1
   5  -6  -9   16.15    1.65   4
  -5  -6   9   11.79    1.55   3
   5   6  -9   13.29    1.55   2
  -5   6   9   14.47    1.57   1
   4   6  -9   35.92    2.01   2
  -4   6   9   36.77    2.10   1
  -4  -6   9   37.70    1.96   4
   4  -6  -9   40.15    2.17   4
  -3  -6   9   20.53    1.49   4
  -3   6   9   17.06    1.46   1
   3   6  -9   18.10    1.47   2
   3  -6  -9   22.40    1.57   4
   2  -6  -9    0.65    0.75   4
   2  -6  -9    0.72    0.77   3
  -2  -6   9    0.59    0.78   4
  -2   6   9   -0.25    0.75   1
   2   6  -9   -0.25    0.70   2
   1  -6  -9   12.70    1.17   4
   1   6  -9   12.23    1.15   2
   1  -6  -9   11.24    1.17   3
  -1   6   9   13.50    1.26   1
  -1  -6   9   12.59    1.20   4
   0  -6  -9   10.87    1.16   3
   0  -6  -9    9.63    0.99   4
   0   6  -9    8.01    1.00   2
   0   6   9    8.35    1.06   1
   0  -6   9    9.16    1.12   4
  -1   6  -9   54.64    2.07   2
  -1   6  -9   45.86    2.00   1
  -1  -6  -9   51.45    2.20   3
   1   6   9   50.72    2.10   1
   1  -6   9   52.09    2.16   4
  -2  -6  -9   31.35    1.78   3
   2   6   9   31.49    1.73   1
  -2   6  -9   33.65    1.63   2
  -2   6  -9   33.22    1.77   1
   2  -6   9   36.36    1.86   4
  -3   6  -9    0.41    0.71   2
   3   6   9   -0.83    0.72   2
   3  -6   9    0.11    0.75   4
   3   6   9    0.18    0.75   1
  -3   6  -9   -0.79    0.80   1
  -3  -6  -9    0.09    0.77   3
  -4   6  -9   28.81    1.67   2
  -4   6  -9   27.42    1.89   1
  -4  -6  -9   30.34    1.99   3
   4  -6   9   32.37    1.93   4
   4   6   9   29.94    1.74   2
  -4   7   9    7.91    1.47   1
  -4  -7   9    7.29    1.26   4
   4   7  -9    5.78    1.29   2
   4  -7  -9    2.74    1.17   4
   3   7  -9   26.76    1.82   2
  -3   7   9   28.02    1.97   1
   3  -7  -9   27.11    1.91   4
  -3  -7   9   26.10    1.83   4
  -2  -7   9   -0.65    0.89   4
   2   7  -9   -0.57    0.82   2
  -2   7   9   -0.18    0.97   1
   2  -7  -9    0.46    0.86   4
   1  -7  -9    3.65    0.99   4
  -1  -7   9    4.74    1.05   4
  -1   7   9    4.41    1.07   1
   1   7  -9    4.27    0.99   2
   1  -7  -9    3.52    1.05   3
   0  -7  -9    1.81    0.88   4
   0   7  -9    0.84    0.83   2
   0  -7  -9    0.79    0.92   3
   0   7   9    2.03    0.94   1
   0  -7   9    1.13    0.85   4
  -1   7  -9    8.59    1.09   2
  -1   7  -9    5.70    1.09   1
   1  -7   9    8.13    1.22   4
   1   7   9    6.08    1.11   1
  -1  -7  -9    7.75    1.17   3
  -2   7  -9   57.70    2.44   1
  -2   7  -9   57.56    2.23   2
   2  -7   9   57.70    2.54   4
  -2  -7  -9   56.36    2.46   3
   2   7   9   56.37    2.39   1
  -3   7  -9   20.18    1.46   2
   3   7   9   20.79    1.67   1
  -3   7  -9   19.41    1.70   1
  -3  -7  -9   21.44    1.76   3
   3  -7   9   17.68    1.68   4
  -2   8   9    3.72    1.25   1
   2  -8  -9    3.65    1.25   4
   2   8  -9    2.80    1.14   2
  -2  -8   9    3.21    1.20   4
   1  -8  -9   54.99    2.59   4
  -1   8   9   52.60    2.56   1
   1   8  -9   52.28    2.44   2
  -1  -8   9   53.41    2.63   4
   0   8   9   38.16    2.22   1
   0  -8   9   35.94    2.21   4
  -1   8  -9  146.98    4.00   2
   1   8   9  139.26    4.28   1
   1  -8   9  140.79    4.38   4
  -1  -8  -9  138.26    4.23   3
  -2  -8  -9    6.57    1.34   3
   2  -8   9    7.94    1.41   4
  -2   8  -9    5.76    1.32   1
   2   8   9    5.69    1.34   1
   7   0 -10    1.84    1.12   3
  -7   0  10    1.28    1.09   4
   6   0 -10   30.56    1.90   3
  -6   0  10   35.39    1.93   4
  -5   0  10  207.61    4.99   4
   5   0 -10  207.90    5.17   3
  -4   0  10   57.40    2.07   4
   4   0 -10   59.93    1.76   2
   4   0 -10   55.23    2.12   3
  -3   0  10  409.37    8.06   4
   3   0 -10  405.65    8.26   3
   3   0 -10  399.62    7.30   2
  -3   0  10  414.41    7.38   1
  -2   0  10   46.58    1.56   4
   2   0 -10   43.93    1.54   3
   2   0 -10   43.61    1.29   2
  -2   0  10   41.90    1.20   1
  -1   0  10    6.26    0.51   1
  -1   0  10    7.61    0.64   4
   1   0 -10    6.70    0.60   3
   1   0 -10    6.43    0.51   2
   0   0  10    0.51    0.34   1
   0   0 -10    0.05    0.32   2
   0   0  10   -0.67    0.31   4
   0   0 -10    0.19    0.37   3
   1   0  10  600.45   10.79   4
  -1   0 -10  600.94   11.20   3
   1   0  10  594.96   10.95   1
  -1   0 -10  603.73   10.41   2
  -2   0 -10    1.76    0.46   3
   2   0  10    3.00    0.56   1
   2   0  10    2.60    0.35   4
  -2   0 -10    1.91    0.48   2
   3   0  10   28.58    1.30   1
  -3   0 -10   29.22    1.27   3
  -3   0 -10   27.78    1.28   2
  -4   0 -10  402.53    7.67   2
  -4   0 -10  391.13    7.98   3
  -5   0 -10   24.72    1.43   3
   5   0  10   21.85    1.42   1
  -5   0 -10   23.92    1.45   2
   6   0  10   -0.12    0.79   1
  -6   0 -10   -0.59    0.82   2
  -7   0 -10   12.98    1.45   2
  -7   1  10   22.71    1.85   4
   7  -1 -10   21.09    1.89   3
  -7  -1  10   24.91    1.88   4
  -7  -1  10   19.62    1.78   3
  -6  -1  10    2.08    0.95   3
  -6   1  10    1.54    0.96   4
   6  -1 -10    2.39    0.99   3
  -6  -1  10    3.53    0.93   4
  -5  -1  10    1.76    0.78   3
   5  -1 -10    2.39    0.82   3
  -5   1  10    1.50    0.77   4
   5   1 -10    1.92    0.71   2
  -5  -1  10    0.73    0.73   4
   4   1 -10   62.08    1.92   2
   4  -1 -10   62.12    2.23   3
  -4   1  10   64.45    1.82   1
  -4  -1  10   66.83    2.27   3
  -4  -1  10   63.96    2.21   4
  -4   1  10   66.91    2.28   4
   3   1 -10  100.57    2.45   2
  -3  -1  10  101.22    2.73   4
   3  -1 -10   97.03    2.75   3
  -3   1  10  102.44    2.37   1
  -3   1  10  100.28    2.74   4
  -3  -1  10  102.86    2.79   3
   3  -1 -10  102.08    2.21   2
   2   1 -10   96.43    2.30   2
   2   1 -10   99.49    2.56   3
   2  -1 -10  100.09    2.03   2
  -2   1  10   98.28    2.29   1
  -2  -1  10  103.36    2.59   4
   2  -1 -10   97.02    2.60   3
  -2   1  10   98.86    2.54   4
  -1  -1  10  154.62    3.05   1
  -1   1  10  147.55    3.23   1
   1  -1 -10  155.66    2.89   2
   1   1 -10  159.03    3.40   3
   1   1 -10  156.27    3.17   2
   1  -1 -10  155.24    3.51   3
  -1   1  10  156.47    3.36   4
  -1  -1  10  154.45    3.41   4
   0  -1  10  106.51    2.38   1
   0  -1 -10  105.36    2.60   3
   0   1 -10  107.91    2.39   2
   0   1  10  105.50    2.49   1
   0   1  10  108.00    2.38   4
   0  -1 -10  108.47    2.20   2
   0  -1  10  109.19    2.50   4
   0   1 -10  108.18    2.42   3
   1   1  10  302.08    5.53   4
   1  -1  10  295.18    5.82   1
   1  -1  10  309.35    5.78   4
   1   1  10  298.65    5.88   1
  -1   1 -10  295.53    5.59   2
  -1   1 -10  304.48    5.76   3
  -1  -1 -10  298.65    5.46   2
  -1  -1 -10  293.67    6.02   3
   2  -1  10    0.47    0.34   4
  -2  -1 -10    0.87    0.46   3
  -2  -1 -10    0.08    0.39   2
   2  -1  10    0.08    0.42   1
   2   1  10    0.45    0.45   1
   2  -1  10    0.02    0.42   5
  -2   1 -10   -0.15    0.32   3
  -2   1 -10    0.04    0.40   2
   3  -1  10   14.18    1.00   1
  -3   1 -10   15.37    0.87   3
  -3  -1 -10   15.54    1.02   2
   3  -1  10   13.94    0.99   5
   3  -1  10   13.97    0.92   4
   3   1  10   15.85    1.10   1
  -3  -1 -10   15.65    1.10   3
  -3   1 -10   14.71    0.96   2
  -4   1 -10   59.99    1.83   3
   4  -1  10   59.69    2.09   1
   4   1  10   57.64    2.04   1
  -4   1 -10   55.76    1.97   2
  -4  -1 -10   57.64    1.99   2
  -4  -1 -10   60.20    2.03   3
   5  -1  10    2.78    0.81   1
   5   1  10    3.43    0.84   1
  -5   1 -10    3.35    0.81   2
  -5  -1 -10    3.20    0.83   3
  -5  -1 -10    2.45    0.76   2
  -6  -1 -10   22.36    1.57   2
   6   1  10   24.94    1.69   1
  -6   1 -10   25.45    1.68   2
  -6  -1 -10   26.38    1.71   3
   6  -1  10   25.59    1.72   1
  -7  -1 -10   42.25    2.28   2
  -7   1 -10   49.18    2.36   2
   7  -1  10   41.22    2.31   1
  -6  -2  10   12.99    1.45   3
  -6  -2  10   11.55    1.29   4
   6  -2 -10    9.91    1.33   3
   6   2 -10   12.95    1.29   2
  -6   2  10   11.76    1.38   4
   5   2 -10    6.35    0.90   2
  -5  -2  10    6.97    0.96   4
  -5   2  10    7.02    1.03   4
  -5  -2  10    7.30    1.09   3
   5  -2 -10    8.13    1.11   3
  -4   2  10  115.47    2.95   1
  -4  -2  10  126.67    3.31   4
   4   2 -10  118.33    3.04   2
   4  -2 -10  120.71    3.38   3
  -4   2  10  119.67    3.32   4
  -4  -2  10  123.47    3.38   3
  -3  -2  10  153.26    3.72   3
  -3   2  10  146.35    3.66   4
  -3   2  10  150.88    3.41   1
   3  -2 -10  147.27    3.74   3
  -3  -2  10  150.87    3.66   4
   3   2 -10  153.67    3.45   2
  -2   2  10    8.38    0.77   4
   2  -2 -10    8.01    0.82   3
  -2  -2  10    7.37    0.75   4
   2   2 -10    8.20    0.74   2
  -2  -2  10    8.71    0.72   3
  -2   2  10    8.40    0.72   1
   1   2 -10  542.98   10.12   3
   1  -2 -10  543.36   10.40   3
  -1   2  10  538.10    9.95   1
  -1  -2  10  542.12    9.56   1
  -1  -2  10  530.08   10.11   4
  -1   2  10  530.22   10.00   4
   1   2 -10  527.80    9.51   2
   0  -2  10  677.42   12.12   1
   0  -2 -10  674.93   11.37   2
   0   2 -10  662.74   11.78   2
   0   2  10  683.86   12.23   4
   0  -2  10  681.43   12.45   4
   0  -2 -10  674.10   12.81   3
   0   2 -10  669.45   12.39   3
   0   2  10  676.37   12.33   1
   0  -2  10  680.81   12.12   5
   1   2  10    5.17    0.64   1
   1  -2  10    5.49    0.59   4
  -1   2 -10    6.69    0.65   2
   1  -2  10    4.44    0.56   5
   1   2  10    5.59    0.44   4
  -1  -2 -10    5.75    0.50   2
  -1  -2 -10    4.81    0.63   3
   1  -2  10    3.95    0.54   1
   2   2  10    6.76    0.74   1
  -2  -2 -10    5.81    0.73   3
   2  -2  10    6.78    0.70   1
   2  -2  10    6.07    0.64   4
  -2   2 -10    7.00    0.72   2
  -2  -2 -10    5.13    0.58   2
   2  -2  10    5.63    0.68   5
  -3  -2 -10   33.92    1.59   3
  -3  -2 -10   37.40    1.48   2
  -3   2 -10   36.53    1.52   2
   3  -2  10   34.98    1.39   4
   3  -2  10   37.84    1.61   1
   3   2  10   35.69    1.57   1
   3  -2  10   34.27    1.53   5
   4  -2  10    9.66    1.00   1
   4   2  10   10.06    0.98   1
  -4  -2 -10   11.79    1.00   2
  -4   2 -10   12.03    1.01   2
   4  -2  10   11.70    1.05   5
  -4  -2 -10   10.59    1.04   3
  -5  -2 -10   93.40    2.97   3
  -5  -2 -10   91.85    2.81   2
   5  -2  10   91.52    2.95   5
   5   2  10   94.12    2.87   1
  -5   2 -10   96.39    2.87   2
   5  -2  10   89.92    2.94   1
   6   2  10   43.99    2.12   1
  -6  -2 -10   47.58    2.26   3
   6  -2  10   49.36    2.27   1
  -6   2 -10   41.32    2.07   2
  -6  -2 -10   44.12    2.09   2
  -6   3  10    3.21    1.06   4
  -6  -3  10    4.13    1.09   3
  -6  -3  10    4.83    1.08   4
   6  -3 -10    2.25    1.14   3
   6   3 -10    3.61    1.04   2
   5  -3 -10   54.12    2.31   3
  -5  -3  10   52.64    2.32   3
   5   3 -10   56.00    2.17   2
  -5  -3  10   54.37    2.21   4
  -5   3  10   56.93    2.11   1
  -5   3  10   52.68    2.29   4
  -4  -3  10  117.93    3.40   3
  -4  -3  10  120.09    3.30   4
  -4   3  10  115.58    3.37   4
   4   3 -10  115.50    3.14   2
   4  -3 -10  119.89    3.44   3
  -4   3  10  126.57    3.21   1
  -3   3  10  154.42    3.65   1
   3   3 -10  145.06    3.59   2
   3  -3 -10  157.39    3.93   3
  -3   3  10  146.53    3.80   4
  -3  -3  10  158.60    3.83   3
  -3  -3  10  159.46    3.84   4
   2   3 -10   12.00    0.94   2
  -2  -3  10    9.78    0.91   4
  -2   3  10    9.07    0.86   4
   2  -3 -10   11.59    1.01   3
  -2  -3  10   10.87    0.82   3
  -2   3  10    9.40    0.84   1
  -1  -3  10    5.23    0.47   1
  -1   3  10    4.60    0.66   1
  -1  -3  10    4.43    0.54   3
   1  -3 -10    5.66    0.76   3
  -1  -3  10    4.10    0.64   4
  -1   3  10    5.53    0.65   4
   1   3 -10    5.40    0.70   2
  -1  -3  10    5.51    0.48   5
   0  -3 -10   20.15    1.24   3
   0   3 -10   22.35    0.85   3
   0   3  10   24.21    1.06   4
   0   3  10   23.45    1.21   1
   0   3 -10   21.70    1.15   2
   0   3 -10   23.77    1.08   1
   0  -3  10   22.49    1.21   4
   1   3  10    7.86    0.82   1
  -1  -3 -10    8.35    0.55   4
  -1   3 -10    9.39    0.78   1
  -1  -3 -10    8.87    0.85   3
   1  -3  10    8.18    0.78   4
  -1   3 -10    8.86    0.79   2
  -1  -3 -10    8.87    0.63   2
  -2   3 -10  803.59   15.02   1
  -2   3 -10  810.19   14.33   2
   2   3  10  840.56   15.09   1
  -2  -3 -10  798.66   15.55   3
  -2  -3 -10  820.82   14.11   2
   2  -3  10  826.33   15.07   4
   3  -3  10  485.47    9.54   4
  -3   3 -10  500.25    9.74   1
  -3   3 -10  489.01    9.19   2
   3   3  10  491.59    9.67   1
  -3  -3 -10  497.80   10.02   3
  -3  -3 -10  500.62    9.10   2
  -4   3 -10    6.12    0.90   2
  -4  -3 -10    4.87    0.83   2
   4  -3  10    4.19    0.83   1
   4  -3  10    5.22    0.88   5
   4   3  10    4.92    0.86   1
  -4  -3 -10    5.65    0.95   3
   4  -3  10    4.75    0.81   4
   5  -3  10   22.50    1.56   5
  -5   3 -10   21.42    1.44   2
   5  -3  10   22.03    1.56   1
  -5  -3 -10   19.82    1.51   3
   5   3  10   21.47    1.41   2
   5   3  10   20.16    1.44   1
   6  -3  10    0.89    0.90   5
   6   3  10    1.74    0.91   2
   6  -3  10    0.29    0.93   1
  -6  -3 -10    0.41    1.03   3
  -6   3 -10   -1.40    0.80   2
  -6   4  10   57.84    2.70   4
  -6  -4  10   59.41    2.63   4
   6   4 -10   62.46    2.62   2
  -6  -4  10   60.15    2.78   3
  -5   4  10   46.78    2.09   1
  -5   4  10   46.22    2.29   4
  -5  -4  10   48.55    2.21   4
   5  -4 -10   48.36    2.29   3
   5   4 -10   48.31    2.14   2
  -5  -4  10   45.83    2.27   3
   4   4 -10   -0.36    0.71   2
   4  -4 -10   -0.33    0.75   3
  -4  -4  10    0.65    0.75   3
  -4   4  10   -0.70    0.70   4
  -4  -4  10    1.33    0.77   4
  -4   4  10    0.46    0.72   1
   3  -4 -10    0.07    0.66   3
  -3   4  10   -0.14    0.60   4
  -3  -4  10    0.16    0.60   3
  -3  -4  10   -1.07    0.55   4
  -3   4  10   -0.20    0.57   1
   3   4 -10    0.43    0.64   2
  -2   4  10  614.89   12.05   4
   2  -4 -10  623.17   12.38   3
   2   4 -10  628.36   11.47   2
  -2  -4  10  641.96   12.09   3
  -2  -4  10  641.74   12.13   4
  -2   4  10  623.70   11.96   1
   1  -4 -10   71.91    2.37   3
   1   4 -10   75.87    2.24   2
  -1  -4  10   72.05    2.32   4
  -1   4  10   73.49    2.33   1
  -1   4  10   72.46    2.17   4
   0  -4 -10    0.51    0.56   3
   0   4  10    0.45    0.55   1
   0  -4 -10    0.17    0.47   4
   0   4 -10    0.65    0.50   1
   0   4 -10   -0.07    0.52   2
   0  -4  10    0.87    0.60   4
   1   4  10  426.68    7.65   2
   1   4  10  427.97    8.53   1
  -1   4 -10  427.40    8.38   1
  -1   4 -10  438.17    8.12   2
  -1  -4 -10  437.85    8.06   4
   1  -4  10  427.93    8.58   4
  -1  -4 -10  425.83    8.80   3
  -2   4 -10  102.39    2.73   2
  -2  -4 -10  104.77    3.05   3
   2   4  10  103.68    2.52   2
  -2   4 -10  103.54    2.89   1
   2  -4  10  101.07    2.85   4
   2   4  10  105.96    2.94   1
  -3   4 -10   71.68    2.47   1
   3  -4  10   75.43    2.41   4
   3   4  10   72.13    2.40   1
   3   4  10   76.20    2.22   2
  -3   4 -10   75.35    2.33   2
   4   4  10  166.08    3.95   2
  -4   4 -10  157.58    4.29   1
   4  -4  10  164.80    4.12   4
   4   4  10  160.68    4.14   1
  -4   4 -10  161.49    3.96   2
  -4  -4 -10  167.14    4.43   3
  -5   4 -10    8.69    1.27   1
   5   4  10    8.42    1.07   2
  -5   4 -10   11.22    1.22   2
   5   4  10   10.93    1.25   1
  -5  -4 -10   10.64    1.36   3
  -6  -4 -10    8.50    1.46   3
   6  -4  10   10.35    1.46   5
   6  -4  10   10.50    1.44   1
  -6   4 -10   10.60    1.35   2
   6   4  10    8.27    1.28   2
  -5  -5  10    1.16    0.92   4
  -5  -5  10   -0.07    1.00   3
   5   5 -10    0.21    0.94   2
  -5   5  10    0.66    0.97   4
  -5   5  10    0.46    0.89   1
  -4   5  10    0.08    0.78   4
  -4  -5  10    0.67    0.77   4
  -4  -5  10    0.31    0.79   3
  -4   5  10    1.63    0.81   1
   4   5 -10    0.40    0.82   2
   4  -5 -10    0.05    0.85   3
  -3   5  10   -0.05    0.69   4
   3  -5 -10   -0.04    0.77   3
  -3  -5  10    0.51    0.66   3
  -3  -5  10   -0.06    0.70   4
  -3   5  10   -0.03    0.74   1
   3   5 -10    0.00    0.69   2
  -2   5  10   -0.25    0.63   4
  -2  -5  10   -0.18    0.64   4
  -2   5  10    0.49    0.71   1
   2  -5 -10    0.23    0.67   3
   2   5 -10   -0.37    0.63   2
   1  -5 -10   -0.06    0.63   3
   1   5 -10    0.61    0.63   2
  -1   5  10    0.21    0.62   1
  -1  -5  10   -0.03    0.63   4
   1  -5 -10   -0.36    0.58   4
   0  -5 -10   11.56    0.91   4
   0  -5 -10    9.57    1.06   3
   0   5 -10    9.40    0.96   2
   0   5 -10    8.17    0.89   1
   0   5  10    8.83    0.98   1
   0  -5  10    9.98    1.03   4
  -1   5 -10    9.79    0.96   2
   1  -5  10    9.56    1.06   4
  -1   5 -10    9.57    1.00   1
  -1  -5 -10   11.86    1.13   3
   1   5  10    9.86    1.04   1
   2  -5  10   40.32    1.82   4
   2   5  10   40.71    1.53   2
   2   5  10   38.92    1.80   1
  -2   5 -10   39.48    1.66   2
  -2  -5 -10   38.42    1.86   3
  -2   5 -10   37.17    1.76   1
  -3  -5 -10   37.57    1.92   3
   3   5  10   44.57    1.98   1
   3  -5  10   39.93    1.89   4
  -3   5 -10   44.82    1.81   2
  -3   5 -10   37.63    1.90   1
   3   5  10   44.47    1.77   2
   4   5  10   18.70    1.33   2
  -4  -5 -10   18.90    1.55   3
   4   5  10   19.63    1.50   1
  -4   5 -10   17.85    1.52   1
  -4   5 -10   18.67    1.37   2
   4  -5  10   17.05    1.43   4
  -5  -5 -10    7.69    1.32   3
  -5   5 -10    8.23    1.17   2
   5   5  10    6.54    1.14   2
  -5   5 -10    6.95    1.28   1
   4  -6 -10    6.84    1.23   4
   4   6 -10    4.14    1.11   2
  -4   6  10    6.36    1.22   1
  -4  -6  10    6.79    1.17   4
   3  -6 -10    6.44    1.13   4
   3  -6 -10    6.95    1.15   3
  -3   6  10    6.49    1.11   1
  -3  -6  10    7.08    1.13   4
   3   6 -10    6.22    1.07   2
  -2   6  10   -0.08    0.78   1
   2  -6 -10    1.83    0.85   3
   2   6 -10    1.38    0.87   2
  -2  -6  10    0.85    0.74   4
   2  -6 -10   -0.98    0.76   4
   1   6 -10   35.63    1.76   2
  -1  -6  10   37.58    1.91   4
   1  -6 -10   40.88    1.94   3
   1  -6 -10   37.36    1.82   4
  -1   6  10   38.00    1.92   1
   0  -6 -10    5.33    0.84   4
   0  -6  10    4.01    0.88   4
   0   6  10    4.35    0.96   1
   0  -6 -10    4.22    0.97   3
   0   6 -10    4.58    0.90   2
  -1  -6 -10    9.47    1.17   3
   1  -6  10    8.48    1.15   4
  -1   6 -10    9.11    1.09   1
  -1   6 -10    7.88    1.01   2
   1   6  10    9.32    1.10   1
   2  -6  10    9.85    1.18   4
  -2   6 -10   10.43    1.09   2
   2   6  10   10.02    1.20   1
  -2   6 -10    9.95    1.19   1
  -2  -6 -10    9.16    1.15   3
  -3   6 -10    4.97    0.93   2
   3   6  10    3.54    1.02   1
   3  -6  10    1.44    0.95   4
  -3  -6 -10    3.02    0.99   3
  -3   6 -10    3.63    0.98   1
   3   6  10    2.86    0.90   2
   4   6  10   23.38    1.59   2
  -4   6 -10   17.89    1.67   1
  -4  -6 -10   22.14    1.83   3
  -4   6 -10   22.29    1.52   2
   4  -6  10   21.74    1.72   4
   3  -7 -10   15.85    1.54   4
  -3  -7  10   14.74    1.52   4
  -3   7  10   16.50    1.63   1
   3   7 -10   19.02    1.65   2
   2  -7 -10    8.71    1.26   4
  -2  -7  10    9.70    1.27   4
   2   7 -10   10.47    1.31   2
  -2   7  10    7.93    1.32   1
  -1   7  10  165.82    4.72   1
   1  -7 -10  180.52    4.78   3
   1   7 -10  173.14    4.44   2
   1  -7 -10  181.85    4.61   4
  -1  -7  10  176.55    4.79   4
   0  -7  10    3.75    1.06   4
   0  -7 -10    3.90    1.11   3
   0   7 -10    4.01    1.02   2
   0   7  10    4.02    0.99   1
  -1   7 -10    0.55    0.86   1
  -1  -7 -10    0.58    0.88   3
   1   7  10    0.47    0.87   1
  -1   7 -10    0.63    0.88   2
   1  -7  10   -1.61    0.87   4
  -2   7 -10    5.47    0.98   2
  -2  -7 -10    5.33    1.12   3
   2  -7  10    5.05    1.08   4
   2   7  10    4.13    1.09   1
  -2   7 -10    5.11    1.13   1
   3  -7  10    4.52    1.17   4
  -3   7 -10    5.48    1.23   1
  -3  -7 -10    5.42    1.19   3
   3   7  10    4.90    1.22   1
  -3   7 -10    6.04    1.08   2
  -1  -8  10    9.36    1.47   4
  -1   8  10   11.22    1.52   1
   1   8 -10   10.12    1.44   2
   1  -8 -10   12.32    1.48   4
   0  -8  10   -0.82    0.97   4
   0   8 -10    2.44    1.06   2
   0   8  10    0.63    1.00   1
  -1  -8 -10    0.72    1.08   3
  -1   8 -10    1.52    1.03   2
   1   8  10    1.19    1.08   1
   1  -8  10    0.65    1.01   4
  -7   0  11   -0.17    1.09   4
   7   0 -11    0.38    1.11   3
  -6   0  11    0.59    0.87   4
   6   0 -11   -1.14    0.79   3
   5   0 -11   -0.35    0.66   3
  -5   0  11    0.22    0.70   4
   4   0 -11    0.01    0.58   3
   4   0 -11   -0.63    0.46   2
  -4   0  11   -0.13    0.59   4
  -3   0  11   -0.01    0.48   4
   3   0 -11   -0.03    0.53   3
   3   0 -11   -0.94    0.42   2
  -3   0  11    0.06    0.32   1
  -2   0  11   -0.15    0.31   1
  -2   0  11   -0.36    0.41   4
   2   0 -11   -0.43    0.43   3
   2   0 -11   -0.27    0.38   2
   1   0 -11    0.22    0.40   3
  -1   0  11    0.31    0.33   1
  -1   0  11   -0.48    0.34   4
   1   0 -11   -0.07    0.32   2
   0   0 -11   -0.13    0.36   3
   0   0  11   -0.11    0.33   1
   0   0 -11    0.29    0.32   2
   0   0  11    0.07    0.33   4
   1   0  11   -0.22    0.37   1
  -1   0 -11   -0.08    0.36   3
   1   0  11   -0.24    0.30   4
  -1   0 -11   -0.01    0.35   2
   2   0  11   -0.16    0.30   4
  -2   0 -11   -0.32    0.37   3
   2   0  11    0.44    0.44   1
  -2   0 -11   -0.07    0.39   2
  -3   0 -11   -0.09    0.47   3
  -3   0 -11    0.84    0.52   2
   3   0  11   -0.22    0.49   1
   4   0  11   -0.39    0.52   1
  -4   0 -11    1.23    0.56   3
  -4   0 -11   -0.34    0.55   2
   5   0  11    0.05    0.71   1
  -5   0 -11   -0.60    0.68   2
  -5   0 -11    1.52    0.69   3
   6   0  11   -0.06    0.85   1
  -6   0 -11    0.69    0.85   2
  -7   1  11    1.58    1.16   4
  -7  -1  11    2.53    1.20   4
   7  -1 -11    0.68    1.12   3
   7   1 -11    2.49    1.13   3
  -6  -1  11    2.36    0.95   3
  -6   1  11    1.81    0.93   4
   6  -1 -11    3.31    1.01   3
  -6  -1  11    3.10    1.01   4
   5  -1 -11  113.84    3.48   3
  -5  -1  11  117.65    3.38   4
  -5  -1  11  113.57    3.45   3
  -5   1  11  114.92    3.43   4
   5   1 -11  120.13    3.07   2
  -4  -1  11    4.73    0.82   3
  -4  -1  11    4.78    0.80   4
   4  -1 -11    5.63    0.89   3
   4   1 -11    5.59    0.73   2
  -4   1  11    4.37    0.81   4
   3   1 -11    6.98    0.73   2
   3   1 -11    7.47    0.84   3
  -3   1  11    8.55    0.86   4
  -3   1  11    6.96    0.63   1
  -3  -1  11    8.04    0.84   4
   3  -1 -11    7.95    0.87   3
  -2  -1  11   58.51    1.90   4
  -2   1  11   61.14    1.68   1
  -2   1  11   61.67    1.91   4
   2   1 -11   61.26    1.73   2
   2  -1 -11   59.78    1.96   3
   2  -1 -11   59.74    1.45   2
   2   1 -11   61.56    1.90   3
   1   1 -11   49.50    1.54   3
   1   1 -11   49.87    1.49   2
   1  -1 -11   51.23    1.25   2
  -1  -1  11   48.45    1.32   1
  -1   1  11   48.41    1.55   4
  -1  -1  11   46.34    1.58   4
   1  -1 -11   50.85    1.69   3
  -1   1  11   49.68    1.47   1
   0  -1  11  134.60    3.00   4
   0  -1  11  133.29    2.87   1
   0   1 -11  132.09    2.91   3
   0   1  11  136.54    2.88   4
   0   1  11  131.93    2.99   1
   0  -1 -11  135.49    2.66   2
   0  -1 -11  130.24    3.12   3
   0   1 -11  128.62    2.84   2
  -1   1 -11   27.34    1.03   3
   1   1  11   29.39    1.24   1
   1   1  11   27.88    0.93   4
  -1  -1 -11   27.25    1.18   3
  -1   1 -11   27.92    1.16   2
   1  -1  11   26.41    1.15   1
   1  -1  11   26.76    1.05   4
  -1  -1 -11   28.25    1.05   2
   2   1  11  114.62    2.85   1
  -2   1 -11  112.80    2.70   2
   2  -1  11  111.90    2.80   1
  -2  -1 -11  108.24    2.59   2
   2  -1  11  116.98    2.57   4
  -2   1 -11  114.26    2.54   3
  -2  -1 -11  107.34    2.79   3
  -3   1 -11   -0.36    0.46   2
   3  -1  11    0.04    0.50   1
  -3  -1 -11   -0.18    0.46   2
  -3  -1 -11    0.17    0.52   3
   3   1  11   -0.25    0.51   1
  -3   1 -11   -0.04    0.41   3
   4  -1  11   32.28    1.59   1
   4   1  11   31.75    1.58   1
  -4  -1 -11   34.87    1.56   3
  -4   1 -11   35.20    1.38   3
  -4  -1 -11   34.40    1.58   2
  -4   1 -11   35.85    1.59   2
  -5  -1 -11   36.46    1.75   3
  -5  -1 -11   33.08    1.69   2
  -5   1 -11   38.69    1.81   2
   5  -1  11   34.01    1.77   1
   5   1  11   36.26    1.78   1
  -6   1 -11   27.92    1.73   2
  -6  -1 -11   25.00    1.66   2
   6  -1  11   24.47    1.71   1
   6   1  11   24.98    1.73   1
  -6  -1 -11   26.75    1.79   3
   6  -2 -11   56.22    2.58   3
  -6  -2  11   57.37    2.41   4
  -6  -2  11   54.58    2.51   3
   6   2 -11   59.44    2.33   2
  -6   2  11   57.88    2.55   4
  -5  -2  11   -0.01    0.68   4
  -5   2  11    1.56    0.79   4
   5   2 -11    0.19    0.72   2
  -5  -2  11    1.29    0.82   3
   5  -2 -11    1.27    0.86   3
  -4   2  11   92.19    2.50   1
  -4  -2  11   92.30    2.80   4
  -4  -2  11   88.23    2.84   3
  -4   2  11   91.87    2.83   4
   4   2 -11   93.33    2.59   2
   3  -2 -11  864.93   16.50   3
  -3  -2  11  872.25   16.07   4
   3   2 -11  877.91   15.09   2
  -3   2  11  862.37   15.60   1
  -3   2  11  834.52   16.04   4
  -3  -2  11  857.85   16.35   3
  -2  -2  11   16.78    1.08   3
   2  -2 -11   16.00    1.18   3
  -2   2  11   16.54    1.03   1
  -2  -2  11   18.55    1.16   4
  -2   2  11   19.09    1.11   4
   2   2 -11   17.29    1.10   2
  -1  -2  11   88.64    1.94   1
  -1   2  11   84.92    2.24   4
   1  -2 -11   87.40    2.45   3
  -1   2  11   82.24    2.24   1
   1   2 -11   91.01    2.21   3
  -1  -2  11   84.89    2.35   4
   1   2 -11   83.15    2.20   2
   0  -2  11   61.03    1.67   1
   0   2 -11   61.37    1.60   3
   0  -2 -11   62.03    1.46   2
   0  -2 -11   62.27    1.94   3
   0   2  11   63.54    1.68   4
   0  -2  11   66.07    1.89   4
   0   2 -11   61.97    1.80   2
   0   2  11   60.82    1.84   1
   1  -2  11   -0.05    0.38   5
  -1  -2 -11    0.40    0.46   3
   1  -2  11    0.55    0.41   1
  -1   2 -11   -0.53    0.38   2
   1   2  11    0.09    0.47   1
  -1  -2 -11    0.18    0.35   2
   1   2  11    0.42    0.30   4
  -1   2 -11    0.40    0.28   3
   1  -2  11    0.27    0.41   4
   2   2  11   66.98    2.10   1
   2  -2  11   68.74    1.96   4
  -2  -2 -11   67.96    1.85   2
   2  -2  11   67.36    2.05   5
  -2   2 -11   69.45    2.01   2
  -2  -2 -11   67.23    2.15   3
   2  -2  11   67.60    2.05   1
   3  -2  11  200.34    4.25   4
  -3   2 -11  201.95    4.35   2
   3  -2  11  195.90    4.52   5
  -3  -2 -11  202.16    4.25   2
  -3  -2 -11  201.06    4.62   3
   3   2  11  182.41    4.44   1
   3  -2  11  197.47    4.52   1
  -4   2 -11   31.82    1.54   2
   4   2  11   35.20    1.64   1
  -4  -2 -11   30.51    1.59   3
   4  -2  11   29.80    1.57   5
   4  -2  11   32.01    1.65   1
  -4  -2 -11   32.19    1.55   2
  -5   2 -11   14.53    1.25   2
   5  -2  11   15.30    1.33   5
  -5  -2 -11   17.95    1.31   2
   5  -2  11   11.91    1.26   1
   5   2  11   15.09    1.29   1
  -5  -2 -11   14.65    1.30   3
  -6   2 -11   14.46    1.36   2
   6   2  11   15.63    1.47   1
   6  -2  11   17.18    1.55   1
  -6  -2 -11   17.35    1.46   2
  -6  -2 -11   16.47    1.53   3
   6  -3 -11   17.74    1.67   3
  -6  -3  11   16.89    1.68   3
  -6  -3  11   16.53    1.53   4
   6   3 -11   17.55    1.55   2
  -6   3  11   17.98    1.66   4
  -5   3  11    4.06    0.97   4
  -5  -3  11    4.89    0.99   4
   5  -3 -11    3.72    1.02   3
  -5  -3  11    3.56    1.02   3
   5   3 -11    4.52    0.99   2
  -4   3  11   27.33    1.61   4
   4   3 -11   30.71    1.59   2
  -4   3  11   31.17    1.57   1
  -4  -3  11   28.82    1.58   4
  -4  -3  11   27.53    1.61   3
   4  -3 -11   31.89    1.74   3
   3  -3 -11   21.66    1.40   3
  -3  -3  11   21.78    1.36   3
  -3   3  11   19.68    1.28   4
  -3  -3  11   21.77    1.37   4
   3   3 -11   20.52    1.32   2
  -3   3  11   21.93    1.27   1
   2  -3 -11    0.08    0.58   3
   2   3 -11    0.41    0.57   2
  -2   3  11   -0.11    0.49   4
  -2   3  11    0.82    0.52   1
  -2  -3  11    0.34    0.49   3
  -2  -3  11    0.42    0.58   4
  -1   3  11   10.40    0.86   1
  -1  -3  11    8.57    0.58   5
  -1  -3  11    9.48    0.86   4
  -1   3  11    8.47    0.76   4
   1   3 -11    8.93    0.69   3
  -1  -3  11    9.19    0.59   1
   1   3 -11    9.40    0.86   2
   1  -3 -11    8.38    0.89   3
   0  -3  11   54.09    1.86   4
   0   3  11   54.81    1.66   4
   0  -3  11   58.85    1.64   5
   0   3 -11   51.61    1.73   2
   0   3 -11   57.58    1.44   3
   0  -3 -11   57.24    1.98   3
   0   3  11   54.79    1.87   1
   0  -3  11   55.18    1.63   1
  -1   3 -11   14.52    0.98   2
  -1   3 -11   13.76    0.94   1
  -1  -3 -11   15.86    1.09   3
  -1  -3 -11   14.08    0.86   2
   1  -3  11   15.38    1.00   4
   1   3  11   13.87    1.01   1
  -2  -3 -11    2.64    0.73   3
  -2   3 -11    3.54    0.70   2
  -2   3 -11    3.08    0.70   1
   2  -3  11    2.50    0.65   4
   2   3  11    3.98    0.74   1
  -2  -3 -11    2.40    0.54   2
   3  -3  11  165.12    4.09   5
   3   3  11  168.43    4.12   1
   3  -3  11  171.90    4.12   1
  -3  -3 -11  168.91    3.80   2
  -3  -3 -11  173.88    4.27   3
   3  -3  11  165.90    3.93   4
  -4  -3 -11   78.00    2.67   3
   4  -3  11   79.61    2.63   5
   4  -3  11   82.26    2.69   1
  -4  -3 -11   75.69    2.40   2
  -4   3 -11   80.47    2.51   2
   4   3  11   77.13    2.56   1
  -5  -3 -11    2.59    0.97   3
   5  -3  11    2.37    0.89   5
   5  -3  11    2.65    0.90   1
  -5   3 -11    2.38    0.89   2
   5   3  11    2.69    0.87   1
  -5  -3 -11    3.13    0.87   2
   6   3  11   13.88    1.41   2
   6  -3  11   13.46    1.53   5
  -6  -3 -11   14.16    1.57   3
  -6   3 -11   15.77    1.48   2
   6  -3  11   15.55    1.57   1
   6  -4 -11    2.42    1.23   3
  -6  -4  11    4.58    1.27   3
  -6  -4  11    3.73    1.15   4
  -6   4  11    1.02    1.10   4
   6   4 -11    3.22    1.16   2
   5  -4 -11   45.16    2.28   3
  -5  -4  11   46.82    2.29   3
  -5  -4  11   45.78    2.16   4
  -5   4  11   47.82    2.34   4
   5   4 -11   41.92    2.12   2
  -5   4  11   45.43    2.07   1
  -4   4  11   46.10    2.11   4
  -4  -4  11   45.29    2.00   4
  -4  -4  11   51.32    2.16   3
   4  -4 -11   45.13    2.12   3
  -4   4  11   48.99    2.05   1
   4   4 -11   43.93    1.99   2
  -3  -4  11   23.87    1.48   4
  -3   4  11   25.32    1.41   1
  -3   4  11   19.90    1.37   4
   3   4 -11   21.67    1.41   2
  -3  -4  11   23.72    1.48   3
   3  -4 -11   21.29    1.47   3
   2  -4 -11   11.53    1.10   3
  -2   4  11   11.21    1.01   4
   2   4 -11   12.48    1.05   2
  -2  -4  11   11.89    1.06   4
  -2   4  11   12.23    1.07   1
  -2  -4  11   12.44    0.95   3
   1   4 -11   15.43    1.10   2
   1  -4 -11   18.51    1.31   3
  -1   4  11   16.52    1.13   4
  -1   4  11   15.74    1.13   1
  -1  -4  11   17.64    1.20   4
   0   4 -11    2.44    0.67   2
   0   4  11    3.51    0.62   4
   0  -4 -11    3.71    0.78   3
   0   4  11    3.59    0.73   1
   0   4 -11    2.06    0.59   1
   0  -4  11    1.78    0.66   4
  -1   4 -11  161.52    3.73   2
  -1  -4 -11  155.35    4.00   3
   1   4  11  155.05    3.90   1
  -1  -4 -11  160.98    3.40   4
   1  -4  11  160.46    3.90   4
  -1   4 -11  162.76    3.78   1
   1   4  11  161.05    3.25   2
   2   4  11  160.27    3.38   2
  -2   4 -11  148.74    3.78   1
   2  -4  11  156.07    3.82   4
  -2  -4 -11  150.84    3.97   3
  -2   4 -11  150.57    3.63   2
   3   4  11    1.25    0.62   2
  -3  -4 -11    0.27    0.66   3
   3   4  11    0.44    0.66   1
  -3   4 -11    0.89    0.64   2
  -3   4 -11    0.96    0.71   1
   3  -4  11    0.84    0.66   4
   4  -4  11   42.71    1.91   4
  -4   4 -11   38.59    1.79   2
   4   4  11   40.18    1.76   2
  -4  -4 -11   40.64    2.02   3
  -4   4 -11   38.70    1.97   1
   4   4  11   37.92    1.90   1
  -5   4 -11    1.53    0.88   2
   5  -4  11    3.17    0.95   5
   5  -4  11    1.40    0.95   1
   5   4  11    3.72    0.98   2
   5   4  11    2.69    0.96   1
  -5  -4 -11    1.80    1.01   3
  -6   4 -11   24.21    1.74   2
   6  -4  11   20.25    1.78   5
   6   4  11   20.99    1.69   2
   6  -4  11   24.55    1.90   1
  -6  -4 -11   21.46    1.91   3
  -5   5  11   29.73    1.91   1
   5   5 -11   30.84    1.99   2
  -5  -5  11   33.27    2.13   3
  -5  -5  11   29.39    1.89   4
  -5   5  11   28.93    2.00   4
  -4   5  11   24.94    1.76   1
  -4  -5  11   23.00    1.63   3
   4  -5 -11   22.93    1.72   3
  -4   5  11   24.58    1.69   4
   4   5 -11   25.09    1.66   2
  -4  -5  11   25.98    1.65   4
   3  -5 -11   25.68    1.66   3
  -3   5  11   22.71    1.56   1
  -3   5  11   23.84    1.53   4
   3   5 -11   24.56    1.57   2
  -3  -5  11   29.06    1.71   4
   2  -5 -11  286.36    6.42   3
  -2   5  11  277.91    6.26   1
  -2   5  11  281.15    6.23   4
  -2  -5  11  277.12    6.30   4
   2   5 -11  285.17    6.06   2
   1   5 -11  353.91    7.19   2
  -1   5  11  362.87    7.58   1
   1  -5 -11  360.59    7.38   4
   1  -5 -11  359.28    7.76   3
   0  -5 -11    1.74    0.76   3
   0   5 -11    0.92    0.63   1
   0  -5  11    3.17    0.78   4
   0  -5 -11    2.37    0.66   4
   0   5 -11    1.54    0.70   2
   0   5  11    2.28    0.72   1
  -1  -5 -11    4.51    0.93   3
   1   5  11    6.49    0.93   1
  -1   5 -11    4.28    0.79   2
  -1   5 -11    4.46    0.81   1
   1  -5  11    4.75    0.88   4
  -2   5 -11    0.12    0.69   1
   2   5  11    1.13    0.60   2
  -2  -5 -11    1.54    0.75   3
  -2   5 -11    0.75    0.65   2
   2   5  11    1.03    0.76   1
   2  -5  11    1.10    0.74   4
   3  -5  11    5.87    0.98   4
  -3   5 -11    5.50    0.99   1
   3   5  11    6.28    1.01   1
  -3  -5 -11    3.92    0.96   3
   3   5  11    3.46    0.82   2
  -3   5 -11    4.82    0.88   2
   4   5  11   72.58    2.67   1
   4  -5  11   64.55    2.52   4
  -4   5 -11   66.54    2.39   2
   4   5  11   62.96    2.34   2
  -4   5 -11   66.33    2.67   1
  -4  -5 -11   68.23    2.76   3
  -5   5 -11   19.90    1.79   1
  -5  -5 -11   20.13    1.80   3
   5   5  11   23.53    1.67   2
   4   6 -11    1.74    1.13   2
  -4   6  11    3.17    1.11   1
  -4  -6  11    5.50    1.14   4
   4  -6 -11    4.56    1.15   4
   3  -6 -11   74.58    2.82   3
  -3   6  11   70.69    2.76   1
   3   6 -11   78.13    2.74   2
   3  -6 -11   74.43    2.80   4
  -3  -6  11   72.59    2.75   4
  -2   6  11    3.50    0.99   1
  -2  -6  11    3.91    0.94   4
   2  -6 -11    4.92    0.98   4
   2  -6 -11    4.08    1.01   3
   2   6 -11    2.63    0.91   2
  -1  -6  11   38.20    1.98   4
   1  -6 -11   42.92    1.93   4
   1  -6 -11   39.65    1.97   3
  -1   6  11   41.03    2.02   1
   1   6 -11   41.05    1.91   2
   0  -6 -11   11.97    1.25   3
   0   6  11   14.23    1.31   1
   0  -6 -11   11.56    1.09   4
   0   6 -11   12.01    1.18   2
   0  -6  11   13.46    1.25   4
  -1   6 -11   35.35    1.81   1
  -1  -6 -11   35.03    1.98   3
   1   6  11   33.26    1.80   1
  -1   6 -11   34.51    1.75   2
   1  -6  11   36.41    1.88   4
  -2   6 -11    2.75    0.91   1
   2  -6  11    4.22    0.97   4
   2   6  11    3.93    0.96   1
  -2  -6 -11    2.98    0.96   3
  -2   6 -11    3.58    0.85   2
   3  -6  11   45.09    2.18   4
   3   6  11   44.90    2.15   1
  -3   6 -11   45.49    2.21   1
  -3  -6 -11   44.81    2.22   3
  -3   6 -11   46.73    2.03   2
   4  -6  11   17.55    1.66   4
  -4   6 -11   16.20    1.43   2
  -4  -6 -11   18.53    1.72   3
  -4   6 -11   19.51    1.72   1
   4   6  11   19.66    1.55   2
   4   6  11   20.29    1.71   1
   3  -7 -11   18.91    1.68   4
  -3   7  11   17.38    1.69   1
   3   7 -11   15.22    1.57   2
  -3  -7  11   17.40    1.66   4
   2   7 -11   30.71    1.91   2
  -2  -7  11   32.14    1.97   4
  -2   7  11   27.90    1.95   1
   2  -7 -11   27.14    1.86   4
  -1   7  11    8.32    1.24   1
   1  -7 -11    4.78    1.21   3
  -1  -7  11    6.81    1.21   4
   1   7 -11    7.14    1.15   2
   1  -7 -11    7.12    1.19   4
   0  -7  11   59.31    2.55   4
   0  -7 -11   62.75    2.66   3
   0   7  11   55.27    2.51   1
   0   7 -11   59.67    2.41   2
  -1  -7 -11   -1.19    0.84   3
   1  -7  11    0.27    0.92   4
   1   7  11   -0.52    0.89   1
  -1   7 -11    0.12    0.89   2
   2  -7  11   22.43    1.76   4
   2   7  11   21.73    1.70   1
  -2   7 -11   25.61    1.68   2
  -2  -7 -11   24.27    1.77   3
  -2   7 -11   23.53    1.76   1
  -3   7 -11   13.09    1.37   2
   3  -7  11   13.82    1.58   4
  -3  -7 -11   13.04    1.54   3
   3   7  11   13.27    1.50   1
  -3   7 -11   13.07    1.58   1
   1   8 -11    1.75    1.17   2
  -1   8  11    0.64    1.08   1
  -1  -8  11    1.53    1.10   4
   0   8  11    2.96    1.21   1
   0  -8 -11    0.89    1.19   3
   0   8 -11    5.22    1.23   2
   0  -8  11    2.68    1.15   4
  -1   8 -11    6.03    1.22   2
  -1  -8 -11    3.43    1.20   3
   1   8  11    3.57    1.22   1
   1  -8  11    5.06    1.27   4
   6   0 -12    0.95    0.91   3
  -6   0  12    0.68    0.94   4
   5   0 -12   29.90    1.74   3
  -5   0  12   27.12    1.62   4
   4   0 -12  166.33    4.29   3
  -4   0  12  172.39    4.24   4
   3   0 -12    4.99    0.65   2
   3   0 -12    6.37    0.82   3
  -3   0  12    5.35    0.77   4
  -2   0  12  216.53    4.64   4
   2   0 -12  207.56    4.70   3
   2   0 -12  214.98    4.12   2
  -2   0  12  212.30    4.16   1
   1   0 -12   37.35    1.43   3
  -1   0  12   40.06    1.28   1
   1   0 -12   39.86    1.23   2
  -1   0  12   40.77    1.44   4
   0   0  12  372.70    7.01   4
   0   0  12  363.36    6.94   1
   0   0 -12  361.62    6.60   2
   0   0 -12  365.99    7.21   3
   1   0  12  274.43    5.27   4
  -1   0 -12  273.17    5.54   3
  -1   0 -12  273.34    5.20   2
   1   0  12  272.92    5.49   1
  -2   0 -12  168.98    3.77   3
   2   0  12  172.87    3.88   1
  -2   0 -12  177.18    3.69   2
   2   0  12  166.24    3.41   4
  -3   0 -12   11.56    0.87   3
   3   0  12   12.14    1.01   1
  -3   0 -12    8.98    0.87   2
  -4   0 -12   71.70    2.29   2
   4   0  12   70.93    2.38   1
  -4   0 -12   70.12    2.17   3
  -5   0 -12    0.86    0.70   2
  -5   0 -12    0.50    0.70   3
   5   0  12   -0.71    0.69   1
   6   0  12    4.99    1.12   1
  -6   0 -12    5.84    1.11   2
   6  -1 -12   -0.25    0.90   3
   6   1 -12    1.20    0.88   3
  -6  -1  12    0.37    0.88   4
  -6   1  12   -0.02    0.90   4
  -5   1  12   13.60    1.26   4
   5   1 -12    9.23    0.99   2
  -5  -1  12   10.53    1.16   4
   5  -1 -12    9.45    1.21   3
   5   1 -12   11.09    1.22   3
   4  -1 -12   10.19    1.09   3
  -4   1  12   12.03    1.11   4
   4   1 -12   12.17    1.12   3
  -4  -1  12   13.43    1.12   4
   4   1 -12   11.26    0.94   2
   3   1 -12   21.84    1.37   3
   3   1 -12   25.00    1.26   2
  -3   1  12   25.61    1.14   1
  -3  -1  12   25.45    1.41   4
   3  -1 -12   25.14    1.38   3
  -3   1  12   24.27    1.38   4
   2   1 -12   30.80    1.35   3
   2   1 -12   30.31    1.29   2
  -2   1  12   29.50    1.21   1
  -2   1  12   27.86    1.35   4
  -2  -1  12   30.85    0.95   1
   2  -1 -12   31.02    1.44   3
  -2  -1  12   31.37    1.40   4
   2  -1 -12   32.82    1.02   2
   1  -1 -12   30.31    0.98   2
  -1   1  12   29.39    1.25   4
  -1  -1  12   30.40    1.06   1
  -1  -1  12   26.36    1.25   4
  -1   1  12   27.38    1.15   1
   1   1 -12   30.20    1.19   2
   1   1 -12   30.73    1.24   3
   1  -1 -12   30.01    1.33   3
   0  -1  12  151.99    3.22   1
   0   1  12  148.70    3.20   4
   0  -1 -12  145.58    3.46   3
   0  -1 -12  153.40    2.98   2
   0  -1  12  149.94    3.32   4
   0   1 -12  148.05    3.27   3
   0   1 -12  147.02    3.17   2
   0   1  12  146.36    3.33   1
   1   1  12   78.33    2.20   1
   1   1  12   76.57    1.82   4
   1  -1  12   78.60    2.01   4
   1  -1  12   77.21    2.09   1
  -1  -1 -12   73.30    2.15   3
  -1   1 -12   79.15    2.08   2
  -1   1 -12   81.86    1.98   3
  -1  -1 -12   79.32    1.94   2
  -2   1 -12  132.72    3.00   2
   2   1  12  125.08    3.11   1
  -2   1 -12  124.23    2.81   3
   2  -1  12  121.76    3.07   1
  -2  -1 -12  122.24    3.07   3
  -2  -1 -12  127.29    2.88   2
   2  -1  12  122.59    2.80   4
  -3  -1 -12   18.14    1.15   2
   3   1  12   18.79    1.26   1
  -3   1 -12   18.39    1.21   2
   3  -1  12   18.44    1.25   1
  -3   1 -12   18.73    1.02   3
  -3  -1 -12   20.81    1.25   3
   4  -1  12   35.70    1.69   1
  -4   1 -12   35.83    1.64   2
   4   1  12   36.93    1.70   1
  -4  -1 -12   37.54    1.66   2
  -4  -1 -12   36.95    1.65   3
  -5  -1 -12   69.38    2.47   3
  -5   1 -12   72.01    2.47   2
  -5  -1 -12   74.44    2.50   2
   5   1  12   69.43    2.52   1
   5  -1  12   74.63    2.63   1
  -6   1 -12   39.50    2.06   2
  -6  -1 -12   45.48    2.11   2
   6  -1  12   42.44    2.14   1
   6   1  12   41.17    2.12   1
  -6  -1 -12   45.59    2.19   3
   6  -2 -12   29.66    2.01   3
   6   2 -12   30.30    1.77   2
  -6   2  12   26.91    1.91   4
  -6  -2  12   26.39    1.81   4
  -6  -2  12   28.05    1.93   3
  -5  -2  12   15.48    1.38   3
  -5  -2  12   19.60    1.41   4
   5  -2 -12   18.24    1.49   3
  -5   2  12   18.22    1.47   4
   5   2 -12   17.07    1.29   2
  -4   2  12   11.22    1.10   4
   4  -2 -12   12.82    1.19   3
  -4  -2  12   10.38    1.09   4
  -4  -2  12   11.09    1.11   3
  -4   2  12   11.63    0.93   1
   4   2 -12   11.41    1.05   2
   3  -2 -12  211.62    4.97   3
  -3   2  12  206.73    4.46   1
  -3  -2  12  213.66    4.84   3
   3   2 -12  211.89    4.47   2
  -3  -2  12  207.09    4.81   4
  -3   2  12  200.16    4.76   4
  -2   2  12  178.58    4.20   4
   2   2 -12  189.57    4.24   3
  -2   2  12  190.97    4.09   1
   2   2 -12  185.39    4.00   2
   2  -2 -12  188.52    4.43   3
  -2  -2  12  189.79    4.30   4
  -1   2  12    0.76    0.44   4
  -1   2  12   -0.17    0.44   1
   1  -2 -12    0.44    0.53   3
  -1  -2  12   -0.31    0.31   1
   1   2 -12    0.78    0.49   2
  -1  -2  12    0.09    0.48   4
   1   2 -12    0.67    0.44   3
   0   2 -12   13.38    0.79   3
   0   2  12   14.74    1.02   1
   0  -2 -12   14.95    0.74   2
   0  -2  12   14.01    0.98   4
   0  -2 -12   14.44    0.99   3
   0   2 -12   12.85    0.87   2
   0   2  12   13.60    0.84   4
   0  -2  12   12.99    0.83   1
   1  -2  12   77.99    2.13   4
   1   2  12   75.03    1.77   4
  -1   2 -12   75.73    2.09   2
  -1  -2 -12   68.83    2.18   3
  -1   2 -12   75.62    1.77   3
   1  -2  12   78.26    2.09   5
  -1  -2 -12   77.42    1.87   2
   1   2  12   70.40    2.16   1
   1  -2  12   74.88    2.08   1
   2  -2  12   18.58    1.10   4
   2   2  12   17.45    1.19   1
  -2   2 -12   19.23    1.16   2
   2  -2  12   21.21    1.21   1
  -2  -2 -12   18.41    1.24   3
   2  -2  12   15.48    1.12   5
  -2  -2 -12   18.23    0.99   2
   3  -2  12  197.85    4.60   5
  -3  -2 -12  200.41    4.30   2
  -3   2 -12  192.16    4.37   2
   3   2  12  205.24    4.64   1
  -3  -2 -12  198.77    4.67   3
   3  -2  12  201.61    4.62   1
   3  -2  12  196.83    4.30   4
   4   2  12    6.39    0.94   1
  -4  -2 -12    8.04    0.96   2
  -4   2 -12    7.17    0.92   2
   4  -2  12    7.93    0.97   5
   4  -2  12    7.60    0.97   1
  -4  -2 -12    7.56    0.99   3
  -5   2 -12    8.85    1.07   2
   5  -2  12    7.02    1.10   1
   5   2  12    9.95    1.17   1
  -5  -2 -12    8.53    1.15   3
  -5  -2 -12   10.19    1.11   2
   6   2  12   15.42    1.51   1
   6  -2  12   17.71    1.60   1
  -6  -2 -12   15.84    1.44   2
  -6  -2 -12   17.80    1.62   3
  -6   2 -12   16.61    1.51   2
   6   3 -12   14.98    1.52   2
   6  -3 -12   15.61    1.70   3
  -6   3  12   13.82    1.57   4
  -6  -3  12   18.32    1.67   3
  -5  -3  12   96.39    3.13   4
   5  -3 -12   99.42    3.34   3
  -5   3  12   95.99    3.27   4
   5   3 -12  100.47    3.07   2
  -5  -3  12  100.15    3.30   3
   4   3 -12   68.01    2.32   2
   4  -3 -12   68.23    2.50   3
  -4  -3  12   60.73    2.37   3
  -4  -3  12   61.24    2.31   4
  -4   3  12   66.95    2.24   1
  -4   3  12   62.04    2.38   4
  -3  -3  12   28.76    1.54   3
  -3   3  12   26.05    1.46   4
   3  -3 -12   25.64    1.55   3
  -3  -3  12   28.97    1.55   4
  -3   3  12   27.29    1.41   1
   3   3 -12   27.60    1.44   2
  -2   3  12    4.84    0.74   1
   2  -3 -12    4.74    0.82   3
  -2  -3  12    4.83    0.72   3
  -2  -3  12    5.56    0.82   4
  -2   3  12    5.51    0.77   4
   2   3 -12    6.12    0.80   2
  -1  -3  12    2.95    0.45   1
   1   3 -12    4.24    0.56   3
  -1   3  12    3.68    0.62   4
  -1  -3  12    4.00    0.69   4
  -1   3  12    2.31    0.64   1
   1   3 -12    2.96    0.66   2
   1  -3 -12    4.11    0.79   3
   0   3  12  246.41    5.31   1
   0  -3  12  250.18    5.00   5
   0  -3  12  254.57    5.01   1
   0   3  12  253.47    5.06   4
   0   3 -12  249.72    4.88   3
   0  -3 -12  246.60    5.52   3
   0   3 -12  242.30    5.07   2
  -1   3 -12   13.62    0.99   2
  -1  -3 -12   14.38    1.09   3
   1   3  12   12.54    1.01   1
  -1  -3 -12   12.51    0.76   2
   1  -3  12   15.71    1.04   1
   1  -3  12   13.59    0.98   4
   1  -3  12   12.05    0.88   5
  -2  -3 -12  361.52    7.54   3
   2   3  12  340.69    7.26   1
   2  -3  12  359.42    7.19   4
  -2   3 -12  359.00    6.96   2
   2  -3  12  357.30    7.20   5
  -2  -3 -12  356.72    6.67   2
   2  -3  12  356.43    7.21   1
   3  -3  12  111.34    2.92   4
   3  -3  12  108.15    3.06   1
  -3  -3 -12  103.03    2.76   2
   3  -3  12  104.59    3.03   5
   3   3  12  107.67    3.08   1
  -3  -3 -12  109.49    3.16   3
  -4  -3 -12  116.13    3.16   2
  -4   3 -12  117.82    3.24   2
  -4  -3 -12  121.88    3.52   3
   4  -3  12  126.44    3.52   1
   4  -3  12  113.15    3.39   5
   4   3  12  122.25    3.43   1
  -5  -3 -12    0.48    0.78   2
  -5  -3 -12    1.52    0.89   3
   5   3  12    1.50    0.86   1
  -5   3 -12    0.32    0.75   2
   5  -3  12    0.33    0.83   1
   5  -3  12    0.59    0.82   5
   6  -3  12   12.53    1.51   1
  -6  -3 -12   14.29    1.56   3
   6  -3  12   12.36    1.45   5
  -6   3 -12   12.62    1.42   2
   6   3  12   13.08    1.40   2
  -6  -4  12    8.38    1.52   3
  -6  -4  12   14.20    1.57   4
  -6   4  12   12.41    1.59   4
   6  -4 -12   12.76    1.63   3
   6   4 -12   12.14    1.55   2
  -5   4  12   35.30    1.88   1
   5   4 -12   29.51    1.91   2
  -5  -4  12   33.74    1.93   4
  -5   4  12   28.97    1.93   4
  -5  -4  12   31.61    2.00   3
   5  -4 -12   34.44    2.03   3
   4  -4 -12   26.32    1.72   3
  -4  -4  12   27.72    1.67   4
  -4   4  12   28.35    1.67   1
  -4  -4  12   26.10    1.68   3
   4   4 -12   27.62    1.62   2
  -4   4  12   27.56    1.70   4
   3  -4 -12    3.63    0.89   3
  -3  -4  12    3.76    0.82   3
  -3   4  12    1.94    0.71   1
  -3   4  12    2.27    0.79   4
  -3  -4  12    3.38    0.82   4
   3   4 -12    1.67    0.76   2
  -2  -4  12   41.05    1.83   4
  -2   4  12   39.61    1.72   4
  -2  -4  12   42.74    1.68   3
   2  -4 -12   39.21    1.86   3
   2   4 -12   38.35    1.71   2
  -2   4  12   41.93    1.78   1
  -1   4  12  100.99    2.77   4
   1   4 -12  103.92    2.82   2
   1   4 -12  105.10    2.54   3
  -1   4  12  103.97    2.94   1
  -1  -4  12  100.49    2.95   4
   0   4 -12   15.31    1.08   2
   0   4  12   14.95    1.03   4
   0  -4  12   16.73    1.17   4
   0   4  12   15.15    1.12   1
   0  -4 -12   12.97    1.10   3
   0   4 -12   15.32    0.99   1
  -1   4 -12   31.06    1.49   2
   1  -4  12   28.49    1.48   4
  -1   4 -12   30.67    1.49   1
   1   4  12   30.37    1.16   2
   1   4  12   27.08    1.51   1
  -1  -4 -12   30.38    1.64   3
  -2  -4 -12  107.47    3.18   3
   2  -4  12  100.61    2.96   4
   2   4  12  110.96    2.63   2
  -2   4 -12  105.46    3.00   1
  -3  -4 -12   78.21    2.74   3
   3   4  12   86.63    2.75   1
   3   4  12   87.84    2.44   2
  -3   4 -12   80.55    2.55   2
   3  -4  12   85.58    2.65   4
  -3   4 -12   82.32    2.71   1
   4  -4  12   27.13    1.61   4
   4  -4  12   28.16    1.70   5
  -4  -4 -12   27.97    1.76   3
   4   4  12   30.52    1.58   2
   4   4  12   24.27    1.58   1
  -4   4 -12   27.28    1.58   2
   4  -4  12   30.21    1.78   1
   5   4  12    8.42    1.14   2
   5   4  12    8.07    1.23   1
  -5  -4 -12    7.59    1.31   3
   5  -4  12    7.31    1.24   5
   5  -4  12    8.77    1.30   1
  -5   4 -12    7.13    1.16   2
  -5   5  12   58.41    2.66   4
  -5  -5  12   59.35    2.53   4
  -5   5  12   57.01    2.52   1
   5   5 -12   52.99    2.47   2
  -5  -5  12   55.62    2.62   3
   5  -5 -12   60.57    2.72   3
   4  -5 -12   57.22    2.51   3
  -4  -5  12   59.32    2.47   3
  -4   5  12   59.39    2.45   1
   4   5 -12   54.97    2.34   2
  -4  -5  12   55.50    2.39   4
  -4   5  12   52.22    2.36   4
  -3   5  12    1.94    0.80   4
   3  -5 -12    0.82    0.85   3
  -3   5  12    1.01    0.83   1
   3   5 -12    1.85    0.86   2
  -3  -5  12    1.01    0.76   4
  -2   5  12  160.99    4.19   1
   2   5 -12  160.36    4.06   2
  -2  -5  12  165.12    4.26   4
   2  -5 -12  166.92    4.33   3
  -2   5  12  159.71    4.13   4
  -1   5  12  311.77    6.77   1
   1  -5 -12  307.63    6.94   3
   1  -5 -12  309.19    6.53   4
   0  -5  12   18.45    1.33   4
   0   5  12   16.99    1.31   1
   0  -5 -12   17.33    1.34   3
   0   5 -12   18.06    1.27   2
   0  -5 -12   15.84    1.10   4
  -1  -5 -12   13.95    1.27   3
  -1   5 -12   12.66    1.11   2
   1  -5  12   12.12    1.15   4
  -1   5 -12   13.49    1.13   1
   1   5  12   13.29    1.21   1
  -2  -5 -12   65.79    2.48   3
   2  -5  12   66.24    2.41   4
   2   5  12   67.14    2.44   1
  -2   5 -12   63.45    2.35   1
  -2   5 -12   66.92    2.27   2
  -3  -5 -12    0.39    0.74   3
  -3   5 -12   -0.28    0.69   2
   3  -5  12   -0.27    0.71   4
   3   5  12    0.14    0.69   2
   3   5  12    1.18    0.84   1
  -3   5 -12    0.07    0.80   1
   4  -5  12   47.83    2.17   4
  -4   5 -12   50.23    2.11   2
   4   5  12   45.49    2.03   2
  -4   5 -12   47.58    2.34   1
   4   5  12   53.02    2.37   1
  -4  -5 -12   49.93    2.40   3
   5   5  12    3.66    1.04   2
   5  -5  12    2.94    1.09   1
  -5   5 -12    3.55    1.03   2
   5  -5  12    2.98    1.09   5
  -5  -5 -12    2.28    1.17   3
  -4   6  12    2.03    1.03   1
  -4  -6  12    1.18    1.03   4
   4  -6 -12    1.54    1.02   4
   4   6 -12    0.74    1.03   2
  -3   6  12    0.74    0.94   1
  -3  -6  12    1.45    0.89   4
   3  -6 -12    2.13    0.92   4
   3   6 -12    1.32    1.01   2
   3  -6 -12   -0.59    0.95   3
   2  -6 -12   -0.13    0.85   4
  -2  -6  12    2.09    0.90   4
   2   6 -12    0.98    0.84   2
   2  -6 -12    1.32    0.91   3
  -2   6  12    1.10    0.89   1
   1  -6 -12    1.77    0.89   3
  -1   6  12   -0.27    0.79   1
   1  -6 -12    0.54    0.80   4
  -1  -6  12    2.53    0.86   4
   1   6 -12    1.30    0.80   2
   0  -6  12   82.28    2.89   4
   0   6 -12   85.47    2.79   2
   0  -6 -12   86.15    3.01   3
   0   6  12   86.23    2.94   1
  -1   6 -12   19.35    1.39   1
  -1   6 -12   14.78    1.30   2
   1  -6  12   17.54    1.43   4
   1   6  12   13.65    1.30   1
  -1  -6 -12   15.30    1.43   3
   2  -6  12   62.90    2.51   4
  -2   6 -12   60.63    2.27   2
  -2   6 -12   57.48    2.36   1
  -2  -6 -12   53.91    2.44   3
   2   6  12   58.68    2.42   1
   3   6  12   60.11    2.55   1
  -3   6 -12   55.93    2.49   1
   3  -6  12   58.20    2.50   4
  -3   6 -12   61.77    2.35   2
  -3  -6 -12   59.94    2.61   3
   4  -6  12   45.64    2.35   4
  -4   6 -12   42.76    2.37   1
  -4  -6 -12   49.59    2.53   3
   4   6  12   46.43    2.40   1
  -4   6 -12   45.83    2.13   2
  -3   7  12   61.96    2.84   1
   3  -7 -12   57.95    2.76   4
  -3  -7  12   67.61    2.90   4
   3   7 -12   61.89    2.73   2
   2  -7 -12    0.90    1.02   3
  -2   7  12    2.38    1.10   1
   2  -7 -12   -0.02    0.91   4
   2   7 -12    0.71    0.96   2
  -2  -7  12    0.52    0.97   4
   1   7 -12    3.12    1.00   2
  -1  -7  12    1.80    1.03   4
  -1   7  12    1.61    1.03   1
   1  -7 -12    4.81    1.08   4
   1  -7 -12    2.92    1.12   3
   0   7  12    0.27    0.88   1
   0  -7 -12   -0.14    0.95   3
   0  -7  12   -0.22    0.92   4
   0   7 -12    1.02    0.94   2
  -1   7 -12    1.87    0.97   2
   1   7  12   -0.37    0.93   1
   1  -7  12    0.91    0.99   4
  -1  -7 -12    1.62    0.99   3
   2   7  12   58.76    2.59   1
  -2  -7 -12   60.81    2.69   3
  -2   7 -12   59.60    2.42   2
  -2   7 -12   59.99    2.59   1
   2  -7  12   59.45    2.67   4
  -3  -7 -12    3.06    1.21   3
   3   7  12    2.62    1.13   1
   3  -7  12    3.99    1.20   4
  -3   7 -12    2.70    1.17   1
  -3   7 -12    2.42    1.06   2
   6   0 -13    0.31    0.94   3
  -6   0  13   -0.63    0.89   4
  -5   0  13    0.30    0.79   4
   5   0 -13   -0.13    0.71   3
   4   0 -13   -0.25    0.64   3
  -4   0  13   -0.12    0.62   4
  -3   0  13   -0.28    0.52   4
   3   0 -13    0.02    0.53   3
   3   0 -13    1.16    0.52   2
  -2   0  13   -0.33    0.37   1
   2   0 -13   -0.21    0.50   3
   2   0 -13   -0.35    0.42   2
  -2   0  13    0.69    0.48   4
   1   0 -13    0.34    0.40   2
  -1   0  13   -0.53    0.40   4
  -1   0  13    0.00    0.39   1
   1   0 -13    0.01    0.46   3
   0   0  13    0.38    0.41   1
   0   0 -13    1.17    0.49   3
   0   0 -13    0.55    0.39   2
   0   0  13    0.97    0.42   4
  -1   0 -13    0.20    0.45   3
  -1   0 -13    0.15    0.40   2
   1   0  13   -0.15    0.42   1
   1   0  13    0.04    0.36   4
  -2   0 -13    0.03    0.44   2
   2   0  13   -0.13    0.47   1
  -2   0 -13   -0.25    0.43   3
  -3   0 -13   -0.76    0.46   2
  -3   0 -13   -0.40    0.50   3
   3   0  13    0.24    0.56   1
   4   0  13   -0.23    0.59   1
  -4   0 -13   -0.10    0.58   3
  -4   0 -13   -0.31    0.60   2
  -5   0 -13   -0.33    0.75   2
   5   0  13   -0.49    0.74   1
   6   0  13   -0.18    0.93   1
  -6   0 -13   -0.90    0.87   2
  -6   1  13   18.77    1.66   4
   6   1 -13   13.57    1.52   3
   6  -1 -13   15.31    1.55   3
  -6  -1  13   17.15    1.52   4
  -5   1  13   24.24    1.62   4
   5   1 -13   25.41    1.70   3
  -5  -1  13   25.85    1.64   4
   5  -1 -13   22.20    1.65   3
  -4  -1  13  103.99    3.16   4
   4  -1 -13  109.80    3.29   3
   4   1 -13  114.10    2.89   2
   4   1 -13  112.08    3.28   3
  -4   1  13  113.92    3.25   4
  -3  -1  13  407.01    8.17   4
   3   1 -13  406.51    8.33   3
   3   1 -13  405.08    7.50   2
   3  -1 -13  391.52    8.36   3
  -3   1  13  400.30    7.60   1
  -3   1  13  398.46    8.16   4
  -2  -1  13  867.59   15.10   1
  -2   1  13  874.64   15.42   1
   2   1 -13  864.41   14.84   2
  -2   1  13  811.82   15.83   4
   2   1 -13  859.06   16.21   3
  -2  -1  13  879.86   15.94   4
   2  -1 -13  856.19   16.32   3
  -1  -1  13    0.49    0.38   1
   1  -1 -13    1.10    0.54   3
  -1   1  13    1.09    0.48   1
  -1  -1  13    0.74    0.48   4
   1  -1 -13    0.42    0.36   2
   1   1 -13    0.89    0.47   2
  -1   1  13    1.55    0.50   4
   1   1 -13    1.06    0.48   3
   0  -1 -13   60.49    1.93   3
   0  -1  13   57.74    1.76   4
   0   1  13   60.58    1.72   4
   0   1 -13   58.81    1.72   3
   0   1  13   58.75    1.81   1
   0  -1  13   59.01    1.70   1
   0  -1 -13   58.68    1.56   2
   0   1 -13   57.62    1.70   2
   1  -1  13  147.35    3.26   4
  -1   1 -13  153.36    3.31   2
  -1  -1 -13  147.58    3.49   3
  -1   1 -13  143.25    3.23   3
   1   1  13  149.71    3.08   4
  -1  -1 -13  148.15    3.13   2
   1   1  13  141.99    3.43   1
   1  -1  13  148.64    3.37   1
  -2   1 -13   25.70    1.14   3
   2  -1  13   26.70    1.11   4
   2   1  13   28.88    1.41   1
   2  -1  13   28.04    1.34   1
  -2   1 -13   27.43    1.33   2
  -2  -1 -13   27.11    1.24   2
  -2  -1 -13   26.86    1.35   3
   3  -1  13   16.17    1.16   1
  -3   1 -13   16.23    1.10   2
   3   1  13   17.77    1.20   1
  -3  -1 -13   13.91    1.02   2
  -3  -1 -13   16.22    1.10   3
  -3   1 -13   15.47    1.00   3
   4   1  13    1.31    0.71   1
   4  -1  13    1.07    0.73   1
  -4  -1 -13    0.39    0.67   3
  -4   1 -13    1.43    0.70   2
  -4  -1 -13    1.21    0.68   2
  -5   1 -13   86.88    2.82   2
  -5  -1 -13   92.20    2.88   2
   5   1  13   87.38    2.91   1
  -5  -1 -13   88.88    2.85   3
   5  -1  13   88.32    2.96   1
  -6  -1 -13    3.17    1.02   2
   6   1  13    2.65    1.07   1
  -6  -1 -13    3.03    1.06   3
  -6   1 -13    0.94    0.97   2
   6  -1  13    3.07    1.08   1
   6  -2 -13   68.02    2.88   3
  -6  -2  13   63.56    2.67   4
  -6   2  13   68.68    2.89   4
  -6  -2  13   68.55    2.85   3
   5   2 -13   18.08    1.35   2
  -5   2  13   14.13    1.38   4
  -5  -2  13   16.10    1.34   4
   5  -2 -13   13.01    1.39   3
  -5  -2  13   13.17    1.35   3
  -4  -2  13   56.28    2.20   4
   4  -2 -13   53.96    2.25   3
  -4   2  13   55.62    2.19   4
   4   2 -13   57.13    2.03   2
  -4  -2  13   59.16    2.27   3
  -4   2  13   57.19    1.95   1
  -3   2  13  182.69    4.12   1
   3  -2 -13  194.61    4.67   3
   3   2 -13  189.92    4.50   3
  -3   2  13  181.40    4.45   4
  -3  -2  13  190.67    4.51   4
   3   2 -13  185.72    4.13   2
  -2   2  13   87.66    2.51   4
   2   2 -13   86.84    2.41   2
  -2  -2  13   90.79    2.61   4
   2   2 -13   92.45    2.52   3
   2  -2 -13   86.34    2.70   3
  -2   2  13   86.58    2.39   1
   1   2 -13    4.43    0.60   3
   1   2 -13    4.41    0.69   2
  -1   2  13    4.59    0.66   1
  -1   2  13    4.56    0.64   4
  -1  -2  13    3.50    0.65   4
  -1  -2  13    4.96    0.50   1
   1  -2 -13    3.85    0.74   3
   0   2 -13  100.43    2.55   2
   0  -2 -13  101.99    2.17   2
   0  -2  13  104.18    2.45   1
   0   2 -13  102.29    2.39   3
   0  -2 -13  100.01    2.77   3
   0  -2  13   97.08    2.59   4
   0   2  13   98.38    2.63   1
   0   2  13  100.02    2.42   4
  -1   2 -13   30.80    1.07   3
   1   2  13   30.58    1.40   1
   1  -2  13   30.39    1.30   4
  -1  -2 -13   31.92    1.43   3
  -1  -2 -13   29.22    1.15   2
  -1   2 -13   30.74    1.35   2
   1  -2  13   30.48    1.30   1
  -2  -2 -13    6.68    0.84   3
  -2   2 -13    5.56    0.77   2
   2   2  13    6.10    0.82   1
  -2  -2 -13    5.99    0.68   2
   2  -2  13    6.55    0.79   5
   2  -2  13    6.74    0.81   1
   2  -2  13    7.22    0.75   4
   3  -2  13   55.60    2.08   1
  -3  -2 -13   59.81    1.94   2
   3   2  13   58.36    2.12   1
  -3  -2 -13   59.17    2.13   3
  -3   2 -13   57.61    2.06   2
   3  -2  13   58.45    2.09   5
  -4  -2 -13   27.32    1.52   2
  -4   2 -13   27.87    1.54   2
   4   2  13   27.51    1.59   1
  -4  -2 -13   28.95    1.58   3
   4  -2  13   28.07    1.61   1
   4  -2  13   29.71    1.61   5
   5   2  13   21.98    1.58   1
  -5  -2 -13   21.79    1.46   2
   5  -2  13   19.83    1.54   1
  -5   2 -13   21.12    1.49   2
  -5  -2 -13   22.84    1.60   3
  -6  -2 -13    7.76    1.26   3
   6  -2  13    5.26    1.25   1
  -6  -2 -13    7.87    1.25   2
  -6   2 -13    5.91    1.18   2
   6   2  13    6.33    1.26   1
   6   3 -13    0.23    1.00   2
  -6  -3  13   -0.03    0.96   4
  -6   3  13   -0.10    1.00   4
   6  -3 -13    0.02    1.10   3
  -6  -3  13   -0.15    1.02   3
  -5  -3  13   -1.17    0.75   3
   5  -3 -13    0.26    0.91   3
  -5  -3  13    0.94    0.81   4
   5   3 -13   -0.10    0.83   2
  -5   3  13   -0.84    0.83   4
   4  -3 -13    0.60    0.71   3
   4   3 -13   -0.74    0.65   2
  -4   3  13   -0.30    0.69   4
  -4   3  13    0.62    0.66   1
  -4  -3  13    0.38    0.71   4
  -4  -3  13    0.17    0.69   3
  -3  -3  13   13.19    1.09   3
  -3   3  13   10.76    0.99   1
   3   3 -13   11.48    1.04   2
  -3   3  13    9.60    1.03   4
  -3  -3  13   12.00    1.12   4
   3  -3 -13   10.90    1.16   3
   2  -3 -13    3.93    0.82   3
  -2   3  13    5.28    0.76   4
   2   3 -13    4.24    0.76   2
  -2  -3  13    6.19    0.86   4
  -2   3  13    6.61    0.81   1
   2   3 -13    5.08    0.72   3
  -1   3  13  135.86    3.34   4
  -1  -3  13  139.80    2.99   1
   1   3 -13  142.28    3.23   3
   1   3 -13  137.32    3.34   2
   1  -3 -13  142.41    3.67   3
  -1   3  13  140.06    3.46   1
  -1  -3  13  140.51    3.54   4
   0   3  13  199.13    4.16   4
   0  -3  13  194.44    4.11   5
   0  -3  13  195.36    4.11   1
   0   3  13  191.70    4.42   1
   0  -3  13  192.97    4.43   4
   0  -3 -13  190.15    4.59   3
   0   3 -13  195.41    4.24   2
   1   3  13  137.24    3.45   1
  -1   3 -13  132.53    3.25   2
  -1  -3 -13  135.24    3.55   3
  -1  -3 -13  132.64    2.87   2
   1  -3  13  132.01    3.22   1
   1  -3  13  136.62    3.37   4
   1  -3  13  133.78    3.23   5
   2   3  13  369.74    7.68   1
   2  -3  13  369.51    7.53   4
  -2  -3 -13  378.62    7.01   2
  -2  -3 -13  375.49    7.91   3
  -2   3 -13  376.94    7.33   2
   2  -3  13  370.48    7.57   5
   2  -3  13  379.25    7.58   1
   3  -3  13  225.85    5.13   1
   3  -3  13  223.35    4.94   4
  -3  -3 -13  217.75    4.69   2
   3   3  13  222.60    5.16   1
  -3   3 -13  218.82    4.88   2
  -3  -3 -13  212.51    5.22   3
   4  -3  13   39.85    1.96   1
   4  -3  13   37.48    1.88   5
  -4  -3 -13   35.60    1.86   3
  -4   3 -13   37.70    1.78   2
  -4  -3 -13   36.01    1.70   2
   4   3  13   39.74    1.88   1
   5  -3  13    1.51    0.95   1
  -5  -3 -13    2.23    1.00   3
   5   3  13    2.97    0.93   1
  -5  -3 -13    3.25    0.92   2
   5  -3  13    2.90    0.97   5
  -5   3 -13    1.27    0.92   2
  -6   3 -13    2.32    1.05   2
   6  -3  13    4.80    1.25   1
   6   3  13    3.50    1.06   2
  -6  -3 -13    4.28    1.20   3
  -5  -4  13    1.34    1.00   4
  -5   4  13    1.36    1.00   4
  -5  -4  13    1.57    1.04   3
   5  -4 -13    2.65    1.14   3
   5   4 -13    1.62    0.99   2
  -4   4  13   25.02    1.71   4
   4   4 -13   26.80    1.66   2
  -4   4  13   29.74    1.75   1
  -4  -4  13   30.56    1.77   4
   4  -4 -13   28.94    1.81   3
  -4  -4  13   26.05    1.73   3
   3  -4 -13    0.86    0.76   3
  -3  -4  13    1.24    0.70   4
  -3   4  13    0.82    0.71   4
   3   4 -13   -0.30    0.71   2
  -3   4  13    0.37    0.69   1
  -3  -4  13    0.38    0.68   3
  -2  -4  13   53.37    2.13   4
  -2   4  13   54.02    2.04   1
   2   4 -13   55.44    2.05   2
  -2   4  13   52.57    2.01   4
   1   4 -13   61.86    2.10   2
  -1  -4  13   56.65    2.14   4
  -1   4  13   59.06    2.13   1
  -1   4  13   57.89    1.99   4
   0  -4  13    4.48    0.81   4
   0   4  13    6.79    0.74   4
   0  -4 -13    6.04    0.91   3
   0  -4  13    7.14    0.73   5
   0   4 -13    6.90    0.87   2
   0  -4  13    8.41    0.75   1
   0   4  13    7.58    0.93   1
  -1  -4 -13   65.87    2.39   3
  -1   4 -13   69.35    2.22   2
   1   4  13   65.26    2.29   1
   1  -4  13   68.38    2.28   4
  -1   4 -13   65.50    2.17   1
  -2  -4 -13    0.14    0.66   3
  -2   4 -13   -1.24    0.58   1
   2   4  13    0.52    0.55   2
   2   4  13    0.05    0.66   1
  -2   4 -13   -0.16    0.59   2
   2  -4  13    0.07    0.61   4
   3  -4  13  101.81    2.96   4
   3   4  13   99.01    3.06   1
   3  -4  13  100.61    3.03   1
  -3   4 -13   94.48    2.86   2
   3  -4  13   98.12    3.01   5
   3   4  13  106.42    2.76   2
  -3  -4 -13   92.10    3.07   3
   4   4  13  223.65    4.92   2
  -4  -4 -13  210.75    5.43   3
  -4   4 -13  204.76    4.97   2
   4  -4  13  220.72    5.35   1
   4  -4  13  215.55    5.32   5
   4   4  13  201.09    5.18   1
   5   4  13   62.53    2.59   1
  -5  -4 -13   62.14    2.75   3
   5   4  13   61.23    2.39   2
   5  -4  13   62.22    2.67   5
   5  -4  13   67.16    2.74   1
  -5   4 -13   60.53    2.49   2
   5  -5 -13   25.53    2.01   3
  -5   5  13   23.99    1.77   1
   5   5 -13   23.57    1.82   2
  -5   5  13   23.13    1.85   4
  -5  -5  13   25.63    1.80   4
  -5  -5  13   23.55    1.91   3
  -4  -5  13   41.24    2.11   4
  -4   5  13   39.24    2.08   4
  -4   5  13   42.25    2.16   1
   4  -5 -13   43.32    2.22   3
   4   5 -13   39.07    2.08   2
  -3  -5  13    2.81    0.90   4
  -3   5  13    3.52    0.92   4
   3   5 -13    3.13    0.91   2
  -3   5  13    2.64    0.88   1
   3  -5 -13    3.60    1.03   3
  -2   5  13   61.56    2.28   4
   2  -5 -13   63.53    2.46   3
   2   5 -13   57.70    2.27   2
  -2  -5  13   65.80    2.45   4
  -2   5  13   62.99    2.37   1
  -1   5  13  197.49    4.62   4
  -1   5  13  194.64    4.80   1
   1   5 -13  199.62    4.61   2
  -1  -5  13  192.65    4.84   4
   1  -5 -13  191.09    4.92   3
   0   5  13   82.29    2.77   1
   0  -5 -13   90.69    2.57   4
   0   5 -13   85.00    2.67   2
   0  -5 -13   83.95    2.86   3
   0  -5  13   87.67    2.81   4
   1   5  13    2.84    0.84   1
  -1   5 -13    2.51    0.82   1
   1  -5  13    2.37    0.79   4
  -1   5 -13    2.15    0.79   2
  -1  -5 -13    2.49    0.87   3
  -2  -5 -13    8.24    1.10   3
  -2   5 -13    6.10    0.95   2
   2  -5  13    6.26    1.00   4
   2   5  13    7.43    1.06   1
  -2   5 -13    5.93    1.00   1
   3   5  13   30.17    1.88   1
  -3  -5 -13   32.87    1.90   3
  -3   5 -13   33.43    1.86   1
  -3   5 -13   32.48    1.72   2
   3   5  13   37.27    1.68   2
   3  -5  13   34.13    1.81   4
   4   5  13   23.98    1.77   1
  -4   5 -13   21.00    1.54   2
   4  -5  13   23.28    1.66   4
  -4  -5 -13   22.76    1.77   3
   4   5  13   22.98    1.57   2
   5  -5  13   67.08    2.89   5
  -5   5 -13   71.40    2.75   2
  -5  -5 -13   68.38    3.03   3
   5   5  13   66.45    2.66   2
   5  -5  13   67.74    2.95   1
   4   6 -13   19.16    1.67   2
   4  -6 -13   15.86    1.61   4
  -4   6  13   17.91    1.71   1
  -4  -6  13   16.68    1.64   4
  -3  -6  13    8.87    1.31   4
   3  -6 -13   11.17    1.34   4
   3  -6 -13   10.43    1.38   3
   3   6 -13    8.32    1.26   2
  -3   6  13    7.76    1.28   1
   2   6 -13    8.39    1.18   2
  -2   6  13   10.16    1.27   1
  -2  -6  13    9.97    1.27   4
   2  -6 -13   10.82    1.27   4
   2  -6 -13    9.43    1.32   3
  -1   6  13   81.60    2.88   1
   1  -6 -13   73.96    2.85   3
   1   6 -13   72.56    2.63   2
  -1  -6  13   75.44    2.83   4
   1  -6 -13   82.37    2.73   4
   0  -6 -13  212.89    5.34   3
   0  -6  13  196.36    5.15   4
   0   6 -13  209.82    4.95   2
   0   6  13  201.24    5.16   1
  -1  -6 -13   22.56    1.69   3
   1  -6  13   19.78    1.55   4
  -1   6 -13   22.12    1.52   1
   1   6  13   23.47    1.66   1
  -1   6 -13   22.31    1.52   2
  -2   6 -13   26.23    1.65   2
  -2  -6 -13   26.03    1.82   3
   2   6  13   26.98    1.75   1
   2  -6  13   23.99    1.68   4
  -2   6 -13   23.76    1.67   1
  -3   6 -13   25.26    1.66   2
  -3  -6 -13   29.10    1.92   3
  -3   6 -13   27.32    1.87   1
   3   6  13   26.45    1.86   1
   3  -6  13   25.18    1.81   4
  -4   6 -13    0.56    0.93   2
  -4  -6 -13   -1.30    1.01   3
   4  -6  13   -0.42    1.05   4
   4   6  13    0.25    1.14   1
  -4   6 -13    1.15    1.08   1
   3  -7 -13    6.34    1.37   4
   3   7 -13    6.25    1.29   2
  -3  -7  13    5.26    1.32   4
  -3   7  13    7.39    1.42   1
  -2   7  13    0.91    1.06   1
  -2  -7  13    1.82    1.00   4
   2   7 -13    0.15    1.00   2
   2  -7 -13    2.29    1.20   3
   2  -7 -13    1.37    0.95   4
   1   7 -13    2.12    1.04   2
  -1   7  13    2.73    1.11   1
  -1  -7  13    1.65    1.06   4
   1  -7 -13    4.05    1.05   4
   1  -7 -13    2.27    1.15   3
   0  -7 -13   21.82    1.78   3
   0   7  13   20.88    1.74   1
   0  -7  13   21.37    1.71   4
   0   7 -13   22.37    1.70   2
   1   7  13    0.42    0.94   1
   1  -7  13   -0.72    0.89   4
  -1   7 -13    0.18    0.94   2
  -1  -7 -13    1.00    1.07   3
   2   7  13    1.99    1.08   1
  -2   7 -13    1.66    0.93   2
  -2   7 -13    2.01    1.13   1
  -2  -7 -13    2.66    1.09   3
   2  -7  13    2.11    1.08   4
  -6   0  14   51.31    2.45   4
   6   0 -14   46.96    2.41   3
  -5   0  14   16.69    1.43   4
   5   0 -14   13.88    1.41   3
  -4   0  14   36.50    1.81   4
   4   0 -14   40.46    1.89   3
   3   0 -14    2.87    0.75   3
   3   0 -14    3.93    0.66   2
  -3   0  14    4.22    0.77   4
  -2   0  14   39.16    1.33   1
  -2   0  14   39.03    1.63   4
   2   0 -14   42.72    1.42   2
   2   0 -14   40.70    1.69   3
  -1   0  14   22.15    1.20   4
   1   0 -14   21.86    1.02   2
   1   0 -14   22.96    1.23   3
  -1   0  14   23.42    1.09   1
   0   0  14    1.11    0.46   4
   0   0 -14    0.87    0.53   3
   0   0 -14    1.58    0.48   2
   0   0  14    1.13    0.50   1
   1   0  14  594.40   10.84   4
   1   0  14  596.01   11.04   1
  -1   0 -14  582.28   10.45   2
  -1   0 -14  584.14   11.25   3
  -2   0 -14  180.87    3.98   2
  -2   0 -14  183.52    4.10   3
   2   0  14  189.14    4.26   1
   3   0  14  208.82    4.84   1
  -3   0 -14  211.41    4.66   3
   4   0  14    7.95    1.00   1
  -4   0 -14    8.61    0.91   3
  -4   0 -14    6.90    0.94   2
   5   0  14    0.16    0.76   1
  -5   0 -14   -1.14    0.72   2
   6   0  14    0.64    0.95   1
  -6   0 -14   -0.03    0.93   2
  -6  -1  14   49.28    2.38   4
   6   1 -14   42.49    2.31   3
   6  -1 -14   44.15    2.40   3
  -6   1  14   43.89    2.33   4
   5   1 -14   49.40    2.30   3
  -5   1  14   52.20    2.30   4
   5  -1 -14   52.79    2.37   3
  -5  -1  14   52.54    2.26   4
   4   1 -14   18.48    1.38   3
  -4  -1  14   18.21    1.32   4
   4   1 -14   19.80    1.24   2
   4  -1 -14   19.41    1.40   3
  -4   1  14   18.31    1.37   4
   3  -1 -14    5.69    0.90   3
  -3  -1  14    4.51    0.79   4
   3   1 -14    4.49    0.72   2
  -3   1  14    4.44    0.63   1
  -3   1  14    4.67    0.77   4
   3   1 -14    3.89    0.79   3
  -2   1  14  661.07   12.25   1
   2   1 -14  670.66   11.83   2
  -2  -1  14  687.31   12.77   4
   2  -1 -14  674.78   13.08   3
   2   1 -14  673.28   12.96   3
  -2   1  14  659.89   12.69   4
  -1  -1  14  191.11    3.92   1
   1  -1 -14  194.13    4.48   3
  -1   1  14  191.65    4.12   1
  -1   1  14  191.91    4.24   4
   1   1 -14  191.58    3.99   2
   1  -1 -14  192.47    3.71   2
   1   1 -14  191.66    4.28   3
  -1  -1  14  198.95    4.33   4
   0   1  14    1.16    0.50   1
   0  -1  14    0.88    0.46   4
   0   1 -14    0.19    0.45   3
   0   1  14    1.11    0.46   4
   0  -1 -14    0.35    0.40   2
   0  -1 -14    0.40    0.53   3
   0   1 -14    0.60    0.47   2
   0  -1  14   -0.01    0.38   1
   1   1  14    4.01    0.50   4
  -1   1 -14    2.58    0.53   3
   1   1  14    4.41    0.71   1
  -1  -1 -14    3.98    0.57   2
   1  -1  14    3.50    0.58   4
  -1   1 -14    4.17    0.65   2
   1  -1  14    4.81    0.66   1
  -1  -1 -14    3.91    0.67   3
  -2  -1 -14  147.90    3.32   2
   2  -1  14  142.13    3.52   1
  -2   1 -14  149.16    3.29   3
   2  -1  14  145.09    3.24   4
  -2  -1 -14  143.91    3.55   3
  -2   1 -14  148.40    3.43   2
   2   1  14  147.78    3.61   1
  -3   1 -14    6.99    0.88   2
  -3  -1 -14    8.81    0.87   2
   3   1  14   10.31    1.00   1
   3  -1  14    7.74    0.93   1
  -3  -1 -14    8.03    0.88   3
   4   1  14   57.12    2.22   1
  -4  -1 -14   63.40    2.21   2
   4  -1  14   57.91    2.22   1
  -4   1 -14   55.14    2.13   2
  -4  -1 -14   57.41    2.12   3
   5  -1  14   20.21    1.52   1
  -5  -1 -14   18.73    1.40   3
  -5   1 -14   19.12    1.46   2
  -5  -1 -14   18.92    1.46   2
   5   1  14   17.49    1.45   1
   6  -1  14   12.38    1.48   1
  -6  -1 -14    9.81    1.31   2
  -6   1 -14   12.88    1.43   2
   6   1  14   14.17    1.50   1
  -6   2  14    2.39    1.17   4
  -6  -2  14    1.58    1.03   4
   6   2 -14    2.97    1.09   3
   6  -2 -14    1.41    1.14   3
   5   2 -14   26.67    1.76   3
  -5  -2  14   26.34    1.69   4
  -5   2  14   27.72    1.81   4
   5  -2 -14   28.95    1.84   3
   5   2 -14   26.75    1.64   2
   4  -2 -14   55.00    2.30   3
   4   2 -14   55.11    2.22   3
   4   2 -14   56.66    2.04   2
  -4   2  14   53.55    2.19   4
  -4  -2  14   52.92    2.16   4
  -3  -2  14   11.31    1.06   4
   3  -2 -14   12.75    1.16   3
  -3   2  14   11.30    1.02   4
  -3   2  14   11.33    0.93   1
   3   2 -14   11.44    0.99   2
   3   2 -14   11.28    1.03   3
   2  -2 -14   11.62    1.08   3
  -2  -2  14   12.53    1.04   4
  -2   2  14   12.26    0.94   1
   2   2 -14   12.93    0.98   2
  -2   2  14   11.64    0.98   4
   2   2 -14   12.29    0.96   3
   1   2 -14   13.56    0.91   3
  -1  -2  14   12.48    0.98   4
   1  -2 -14   13.27    1.08   3
   1   2 -14   12.63    0.95   2
  -1  -2  14   13.93    0.83   1
  -1   2  14   13.21    0.96   4
  -1   2  14   15.31    1.00   1
   0  -2 -14   35.66    1.15   2
   0  -2 -14   33.27    1.57   3
   0   2  14   33.22    1.26   4
   0   2 -14   32.37    1.41   2
   0  -2  14   33.13    1.29   1
   0   2  14   31.74    1.46   1
   0  -2  14   32.01    1.39   4
   0   2 -14   32.06    1.23   3
  -1  -2 -14   -0.73    0.52   3
   1  -2  14    0.72    0.52   1
   1  -2  14   -0.48    0.43   4
   1   2  14   -0.39    0.52   1
  -1   2 -14    0.14    0.49   2
  -1  -2 -14    0.12    0.43   2
  -1   2 -14   -0.09    0.38   3
   2  -2  14   65.81    2.16   1
  -2  -2 -14   66.67    2.25   3
   2  -2  14   66.65    2.04   4
  -2  -2 -14   64.11    1.92   2
   2   2  14   64.86    2.20   1
  -2   2 -14   73.34    2.21   2
  -3   2 -14  101.77    2.94   2
  -3  -2 -14  114.42    3.16   3
  -3  -2 -14  108.89    2.85   2
   3  -2  14  105.88    3.08   1
   3   2  14  110.08    3.13   1
  -4  -2 -14   -0.09    0.70   2
   4   2  14    0.24    0.74   1
  -4  -2 -14    0.35    0.74   3
  -4   2 -14   -0.54    0.67   2
   4  -2  14   -0.53    0.64   1
  -5  -2 -14   45.42    2.08   2
   5   2  14   49.28    2.22   1
  -5   2 -14   46.35    2.12   2
  -5  -2 -14   45.02    2.13   3
   5  -2  14   51.12    2.28   1
   6   2  14  100.22    3.45   1
  -6   2 -14   99.07    3.32   2
   6  -2  14   97.11    3.50   1
  -6  -2 -14  100.38    3.32   2
  -6  -2 -14  105.88    3.51   3
  -6   3  14   59.51    2.79   4
  -6  -3  14   55.06    2.61   4
   6  -3 -14   54.41    2.76   3
  -6  -3  14   55.16    2.69   3
   6   3 -14   54.67    2.55   2
  -5  -3  14   23.70    1.73   4
   5   3 -14   26.85    1.70   2
  -5  -3  14   27.69    1.90   3
   5  -3 -14   27.16    1.90   3
  -5   3  14   26.54    1.86   4
  -4   3  14    6.40    0.91   1
   4   3 -14    6.01    0.97   2
   4  -3 -14    5.56    1.06   3
  -4  -3  14    3.48    0.90   4
  -4  -3  14    5.74    0.98   3
  -4   3  14    5.57    1.05   4
   3   3 -14   -0.18    0.64   2
  -3  -3  14   -0.02    0.62   4
  -3   3  14   -0.17    0.63   4
   3   3 -14    1.26    0.66   3
  -3   3  14   -0.21    0.59   1
   3  -3 -14   -0.22    0.70   3
  -2   3  14  104.72    2.84   1
  -2  -3  14  103.29    2.98   4
   2  -3 -14   98.31    3.04   3
  -2   3  14  103.01    2.88   4
   2   3 -14  101.61    2.77   3
   2   3 -14   96.97    2.74   2
  -1   3  14   30.35    1.49   1
  -1   3  14   32.72    1.43   4
   1   3 -14   33.46    1.52   2
  -1  -3  14   32.52    1.55   4
   1   3 -14   31.17    1.35   3
   1  -3 -14   29.56    1.61   3
   0   3  14   16.07    1.03   4
   0   3  14   16.05    1.13   1
   0  -3  14   15.06    1.01   1
   0  -3  14   14.06    1.04   4
   0  -3 -14   16.07    1.21   3
   0   3 -14   16.25    1.10   2
   1  -3  14   75.03    2.21   1
  -1  -3 -14   72.14    2.45   3
   1  -3  14   69.39    2.17   5
   1   3  14   71.89    2.37   1
   1  -3  14   75.06    2.30   4
  -1   3 -14   74.57    2.24   2
   2  -3  14   40.37    1.71   5
   2   3  14   40.11    1.77   1
   2  -3  14   40.69    1.72   4
  -2   3 -14   40.48    1.72   2
  -2  -3 -14   39.58    1.53   2
   2  -3  14   37.38    1.70   1
  -2  -3 -14   39.10    1.83   3
   3  -3  14  200.80    4.81   1
  -3  -3 -14  196.48    4.37   2
  -3  -3 -14  189.71    4.87   3
   3   3  14  204.68    4.87   1
   3  -3  14  202.66    4.59   4
   4  -3  14    0.42    0.79   5
  -4  -3 -14    1.49    0.84   3
   4  -3  14    1.22    0.77   1
   4   3  14    2.32    0.87   1
  -4   3 -14    1.47    0.78   2
  -4  -3 -14    0.91    0.75   2
  -5   3 -14    1.20    0.90   2
  -5  -3 -14    2.14    1.04   3
  -5  -3 -14    1.34    0.91   2
   5  -3  14    2.25    0.98   5
   5  -3  14    1.98    0.97   1
   5   3  14    1.40    0.97   1
  -5  -4  14   10.10    1.34   4
   5   4 -14    7.94    1.26   2
  -5  -4  14    8.54    1.33   3
  -5   4  14    8.56    1.36   4
   5  -4 -14   10.41    1.46   3
   4   4 -14  101.05    3.17   2
  -4   4  14  113.51    3.26   1
   4  -4 -14  101.54    3.46   3
  -4  -4  14  111.42    3.42   3
  -4   4  14  106.68    3.44   4
  -4  -4  14  112.24    3.43   4
  -3  -4  14   38.20    1.87   4
   3  -4 -14   36.17    1.90   3
  -3   4  14   37.71    1.86   4
  -3  -4  14   39.01    1.89   3
   3   4 -14   36.14    1.79   2
  -3   4  14   37.91    1.77   1
  -2   4  14    0.57    0.67   4
  -2  -4  14    0.06    0.65   4
   2  -4 -14   -0.21    0.71   3
   2   4 -14    1.41    0.72   2
   2   4 -14    0.72    0.61   3
  -2   4  14    1.14    0.69   1
  -1  -4  14    2.40    0.72   4
   1   4 -14    3.32    0.78   2
  -1   4  14    2.28    0.74   1
  -1   4  14    3.06    0.72   4
   1  -4 -14    3.78    0.85   3
   0  -4  14   98.02    2.58   1
   0   4 -14   98.02    2.79   2
   0   4  14   98.34    2.94   1
   0  -4  14  103.22    2.60   5
   0  -4 -14   94.46    2.98   3
   1  -4  14   88.48    2.70   4
   1  -4  14   87.32    2.54   5
   1   4  14   88.11    2.76   1
   1  -4  14   86.26    2.53   1
  -1  -4 -14   86.30    2.84   3
  -1   4 -14   88.01    2.63   2
   2  -4  14   -0.42    0.60   5
   2  -4  14    0.12    0.65   4
   2  -4  14   -0.27    0.61   1
  -2   4 -14   -0.18    0.63   2
   2   4  14    0.00    0.72   1
  -2  -4 -14    0.17    0.71   3
  -3  -4 -14   11.44    1.19   3
   3   4  14   10.18    1.16   1
   3  -4  14    9.50    1.11   4
  -3   4 -14   11.17    1.10   2
   3  -4  14   10.70    1.11   1
   3  -4  14    7.45    1.06   5
   4  -4  14  258.78    6.08   5
   4  -4  14  256.76    6.07   1
   4   4  14  250.56    6.01   1
  -4  -4 -14  244.67    6.20   3
  -4   4 -14  250.48    5.75   2
  -5   4 -14   56.08    2.41   2
   5   4  14   54.96    2.32   2
   5  -4  14   54.72    2.62   1
   5   4  14   51.43    2.41   1
  -5  -4 -14   56.53    2.64   3
   5  -4  14   49.00    2.44   5
   5  -5 -14    1.39    1.18   3
  -5   5  14    1.32    1.08   4
  -5  -5  14    1.48    1.19   3
   5   5 -14    2.42    1.20   2
  -5   5  14    4.54    1.18   1
  -5  -5  14    3.39    1.20   4
   4   5 -14    3.11    1.09   2
   4  -5 -14    5.03    1.27   3
  -4  -5  14    4.29    1.07   4
  -4   5  14    4.74    1.13   4
  -4   5  14    5.37    1.12   1
  -3   5  14    1.67    0.88   1
  -3  -5  14    0.65    0.84   4
   3  -5 -14    1.26    0.91   3
   3   5 -14    1.29    0.85   2
  -3   5  14    0.10    0.76   4
  -2  -5  14    0.62    0.77   4
   2  -5 -14   -0.28    0.75   3
   2   5 -14   -0.37    0.72   2
  -2   5  14    0.15    0.68   4
  -2   5  14    0.80    0.77   1
   1  -5 -14   19.21    1.48   3
  -1  -5  14   17.90    1.37   4
  -1   5  14   19.49    1.43   1
  -1   5  14   15.69    1.23   4
   1   5 -14   18.00    1.35   2
   0  -5 -14   14.29    1.30   3
   0   5 -14   11.83    1.14   2
   0   5  14   11.88    1.19   1
   0  -5  14   12.03    1.02   5
   0  -5  14   13.91    1.05   1
   0  -5  14   12.47    1.20   4
  -1   5 -14    2.02    0.80   2
  -1  -5 -14    1.88    0.86   3
   1   5  14    2.57    0.88   1
  -1   5 -14    2.36    0.80   1
   1  -5  14    3.46    0.82   4
  -2  -5 -14   -0.38    0.77   3
   2  -5  14    1.75    0.81   4
  -2   5 -14    0.53    0.80   1
  -2   5 -14    0.99    0.76   2
   2   5  14    0.78    0.78   1
   3  -5  14    5.13    1.06   4
   3  -5  14    3.21    0.99   5
  -3   5 -14    3.18    0.88   2
   3   5  14    4.34    1.05   1
  -3  -5 -14    4.39    1.06   3
   3  -5  14    3.83    0.99   1
   4  -5  14    2.46    1.00   5
  -4  -5 -14    4.78    1.18   3
  -4   5 -14    4.70    1.03   2
   4   5  14    4.96    1.05   2
   4   5  14    4.69    1.18   1
   4  -5  14    2.87    1.00   1
   4  -6 -14    1.74    1.20   3
  -4  -6  14    4.10    1.22   4
   4   6 -14    1.09    1.10   2
   4  -6 -14    3.99    1.17   4
  -4   6  14    0.19    1.06   1
  -3   6  14    4.58    1.11   1
  -3  -6  14    4.02    1.14   4
   3  -6 -14    6.07    1.15   4
   3  -6 -14    5.42    1.28   3
   3   6 -14    4.72    1.16   2
   2  -6 -14    0.45    0.93   3
  -2   6  14    0.35    0.87   1
  -2  -6  14    0.97    0.89   4
   2   6 -14    3.04    0.98   2
   2  -6 -14    0.30    0.87   4
   1  -6 -14  216.09    5.57   3
  -1  -6  14  212.87    5.45   4
   1  -6 -14  221.11    5.20   4
   1   6 -14  213.76    5.17   2
  -1   6  14  208.84    5.38   1
   0   6 -14  140.75    3.84   2
   0  -6 -14  143.56    4.16   3
   0  -6  14  136.66    4.03   4
   0   6  14  130.71    3.97   1
   1   6  14    3.76    0.99   1
   1  -6  14    4.19    1.03   4
  -1  -6 -14    3.24    1.06   3
  -1   6 -14    3.29    0.98   2
  -2   6 -14    6.16    1.05   2
   2  -6  14    3.89    1.05   4
   2   6  14    4.69    1.12   1
  -2  -6 -14    4.26    1.09   3
  -2   6 -14    5.62    1.10   1
   3  -6  14    5.00    1.15   4
  -3   6 -14    1.38    0.95   2
  -3   6 -14    1.19    1.00   1
  -3  -6 -14    2.66    1.05   3
   3   6  14    2.31    1.12   1
  -2   7  14   26.28    1.97   1
  -2  -7  14   25.91    1.93   4
   2   7 -14   22.79    1.81   2
   2  -7 -14   27.92    1.89   4
   2  -7 -14   28.69    2.05   3
  -1   7  14    7.92    1.38   1
  -1  -7  14    9.88    1.42   4
   1   7 -14   11.74    1.44   2
   1  -7 -14   10.05    1.45   3
   0  -7  14   52.70    2.57   4
   0  -7 -14   56.86    2.77   3
   0   7 -14   57.91    2.54   2
   0   7  14   53.42    2.60   1
  -1   7 -14   40.69    2.15   2
  -1  -7 -14   40.73    2.36   3
   1  -7  14   47.53    2.40   4
   1   7  14   40.29    2.25   1
   2  -7  14   27.33    1.98   4
   2   7  14   28.55    2.02   1
  -2   7 -14   28.08    1.89   2
  -2  -7 -14   24.04    1.92   3
   6   0 -15    1.49    1.03   3
  -6   0  15    0.72    1.08   4
  -5   0  15    0.35    0.77   4
   5   0 -15   -0.67    0.79   3
  -4   0  15   -0.55    0.64   4
   4   0 -15    0.27    0.74   3
  -3   0  15   -0.15    0.57   4
   3   0 -15    0.07    0.58   3
  -2   0  15    0.46    0.57   4
  -2   0  15    0.31    0.45   1
   2   0 -15   -0.38    0.56   3
   2   0 -15    0.23    0.47   2
   1   0 -15   -0.71    0.53   3
   1   0 -15    0.26    0.45   2
  -1   0  15    0.69    0.50   4
  -1   0  15    1.15    0.48   1
   0   0  15    0.23    0.44   4
   0   0 -15   -0.06    0.53   3
   0   0 -15    0.24    0.45   2
   0   0  15   -0.28    0.44   1
   1   0  15    0.79    0.54   1
  -1   0 -15    0.13    0.53   3
  -1   0 -15    0.99    0.47   2
   1   0  15    0.60    0.42   4
   2   0  15    0.04    0.52   1
  -2   0 -15    0.18    0.53   2
  -2   0 -15   -0.34    0.50   3
  -3   0 -15   -0.51    0.55   2
  -3   0 -15    0.07    0.59   3
   3   0  15   -0.52    0.60   1
  -4   0 -15    0.42    0.68   3
   4   0  15    0.37    0.69   1
  -4   0 -15    0.30    0.67   2
  -5   0 -15    0.17    0.75   2
   5   0  15    0.23    0.81   1
   6   0  15    1.36    1.03   1
  -6   0 -15   -0.40    0.96   2
  -6   1  15  336.16    7.76   4
   6  -1 -15  331.76    7.96   3
  -6  -1  15  324.24    7.65   4
   6   1 -15  316.73    7.86   3
   5   1 -15   46.59    2.24   3
  -5   1  15   44.26    2.17   4
   5  -1 -15   46.42    2.28   3
  -5  -1  15   43.45    2.14   4
  -4   1  15   12.26    1.20   4
   4  -1 -15   12.34    1.26   3
   4   1 -15   15.60    1.32   3
  -4  -1  15   13.45    1.20   4
   4   1 -15   12.73    1.10   2
  -3  -1  15   27.78    1.57   4
   3  -1 -15   26.65    1.60   3
  -3   1  15   26.81    1.46   4
   3   1 -15   29.63    1.55   3
   3   1 -15   29.74    1.44   2
  -3   1  15   26.47    1.25   1
  -2  -1  15  209.92    4.77   4
  -2   1  15  200.51    4.37   1
   2   1 -15  207.05    4.33   2
  -2   1  15  210.75    4.75   4
   2  -1 -15  210.19    4.92   3
   2   1 -15  209.08    4.78   3
  -1   1  15   55.00    1.89   4
   1   1 -15   57.90    1.90   3
  -1  -1  15   58.89    1.67   1
   1  -1 -15   58.32    2.08   3
   1   1 -15   59.89    1.80   2
  -1  -1  15   59.83    1.98   4
  -1   1  15   57.07    1.85   1
   1  -1 -15   58.39    1.61   2
   0   1 -15    3.52    0.63   2
   0   1  15    3.57    0.65   1
   0   1 -15    3.86    0.62   3
   0  -1  15    3.78    0.60   1
   0  -1  15    3.76    0.63   4
   0  -1 -15    4.62    0.74   3
   0  -1 -15    4.71    0.57   2
   0   1  15    3.34    0.57   4
   1  -1  15  107.38    2.69   4
  -1   1 -15  108.57    2.74   2
   1  -1  15  106.64    2.80   1
   1   1  15  104.95    2.88   1
  -1  -1 -15  108.33    2.89   3
  -1  -1 -15  110.84    2.60   2
  -1   1 -15  108.84    2.67   3
  -2   1 -15    0.29    0.58   2
  -2  -1 -15    0.74    0.53   2
  -2   1 -15    0.53    0.46   3
   2  -1  15    0.27    0.56   1
  -2  -1 -15    0.64    0.58   3
   2   1  15    1.85    0.72   1
  -3  -1 -15    5.26    0.83   3
   3  -1  15    6.83    0.91   1
  -3   1 -15    5.40    0.85   2
  -3  -1 -15    5.08    0.81   2
   3   1  15    6.33    0.92   1
  -4  -1 -15   21.92    1.40   2
  -4   1 -15   20.94    1.42   2
   4   1  15   19.80    1.44   1
   4  -1  15   20.72    1.45   1
  -4  -1 -15   19.14    1.40   3
   5  -1  15   25.49    1.74   1
  -5   1 -15   24.35    1.61   2
   5   1  15   24.64    1.72   1
  -5  -1 -15   24.91    1.64   2
  -5  -1 -15   24.21    1.58   3
   6   1  15    4.78    1.21   1
   6  -1  15    4.39    1.22   1
  -6   1 -15    3.37    1.14   2
  -6  -1 -15    5.03    1.15   2
   6   2 -15   14.09    1.60   3
   6  -2 -15   12.00    1.64   3
  -6  -2  15   15.65    1.61   4
  -6   2  15   13.11    1.66   4
   5  -2 -15   -0.27    0.92   3
   5   2 -15   -0.15    0.83   3
  -5   2  15    0.62    0.87   4
   5   2 -15    0.32    0.82   2
  -5  -2  15    1.11    0.83   4
  -4   2  15    5.07    0.95   4
   4   2 -15    4.72    0.90   2
  -4  -2  15    3.82    0.89   4
   4  -2 -15    5.44    1.04   3
   4   2 -15    4.11    0.93   3
   3   2 -15  183.32    4.52   3
  -3   2  15  185.98    4.15   1
   3   2 -15  184.70    4.18   2
   3  -2 -15  175.95    4.62   3
  -3  -2  15  185.69    4.55   4
   2   2 -15  119.08    3.12   3
  -2  -2  15  115.26    3.20   4
   2  -2 -15  117.67    3.33   3
   2   2 -15  116.48    2.95   2
  -2   2  15  111.53    3.10   4
  -2   2  15  118.90    3.01   1
  -1  -2  15   30.93    1.50   4
  -1   2  15   32.49    1.40   4
   1   2 -15   30.85    1.36   3
  -1  -2  15   34.05    1.20   1
   1   2 -15   29.50    1.37   2
  -1   2  15   34.23    1.49   1
   1  -2 -15   30.36    1.63   3
   0  -2 -15   96.43    2.84   3
   0   2  15  100.76    2.73   1
   0  -2  15   96.94    2.48   1
   0  -2  15   95.45    2.66   4
   0   2 -15   95.07    2.41   3
   0   2  15   98.46    2.47   4
   0   2 -15   94.36    2.54   2
  -1   2 -15    1.44    0.59   2
  -1  -2 -15    1.39    0.52   2
   1  -2  15    2.13    0.58   4
   1   2  15    2.01    0.66   1
  -1  -2 -15    1.85    0.66   3
   1  -2  15    1.32    0.57   1
   2  -2  15   25.59    1.27   4
  -2  -2 -15   24.01    1.48   3
   2   2  15   29.38    1.49   1
  -2  -2 -15   25.58    1.25   2
  -2   2 -15   24.17    1.39   2
   2  -2  15   29.64    1.50   1
   3   2  15  608.98   11.87   1
  -3  -2 -15  596.06   11.12   2
  -3   2 -15  618.89   11.33   2
   4  -2  15   27.45    1.68   1
  -4  -2 -15   27.48    1.64   3
   4   2  15   25.15    1.65   1
  -4   2 -15   28.18    1.58   2
  -4  -2 -15   27.73    1.61   2
  -5  -2 -15    5.99    1.10   2
  -5  -2 -15    8.31    1.19   3
   5  -2  15    5.01    1.10   1
  -5   2 -15    6.82    1.09   2
   5   2  15    6.61    1.19   1
   6  -2  15   12.92    1.58   1
  -6  -2 -15   11.17    1.41   2
  -6  -2 -15   11.74    1.54   3
  -6   2 -15   11.37    1.43   2
   6   2  15   11.91    1.51   1
   5   3 -15    1.60    0.93   2
   5  -3 -15   -0.10    0.92   3
  -5   3  15    0.34    0.94   4
  -5  -3  15    1.22    0.92   4
   5   3 -15    1.63    0.96   3
  -4   3  15    9.68    1.08   1
   4   3 -15   11.02    1.22   3
  -4   3  15   11.01    1.29   4
   4   3 -15   11.59    1.20   2
   4  -3 -15    9.17    1.24   3
  -4  -3  15   12.85    1.25   4
  -3  -3  15   -1.00    0.63   4
   3  -3 -15   -0.01    0.73   3
  -3   3  15    0.71    0.68   4
  -3   3  15    0.59    0.65   1
   3   3 -15    0.17    0.71   2
   3   3 -15    0.78    0.66   3
  -2   3  15   -0.12    0.60   4
   2  -3 -15    0.42    0.71   3
   2   3 -15    1.54    0.69   2
  -2   3  15    0.81    0.66   1
  -2  -3  15    1.83    0.72   4
   2   3 -15    1.75    0.65   3
   1  -3 -15   54.72    2.15   3
   1   3 -15   53.93    1.94   2
  -1   3  15   53.03    1.97   1
   1   3 -15   57.33    1.82   3
  -1   3  15   55.20    1.89   4
  -1  -3  15   51.36    2.01   4
   0  -3  15   39.37    1.67   4
   0  -3 -15   41.08    1.86   3
   0  -3  15   41.16    1.54   1
   0   3  15   37.76    1.48   4
   0   3 -15   40.45    1.67   2
   0   3  15   39.29    1.73   1
   1   3  15    1.38    0.71   1
   1  -3  15    4.27    0.73   1
  -1  -3 -15    4.28    0.82   3
   1  -3  15    3.67    0.71   4
  -1   3 -15    3.62    0.74   2
   2  -3  15   29.50    1.53   1
   2   3  15   31.06    1.64   1
   2  -3  15   30.29    1.53   4
  -2  -3 -15   32.86    1.73   3
  -2   3 -15   32.01    1.58   2
   2  -3  15   31.87    1.57   5
  -2  -3 -15   32.42    1.43   2
   3   3  15   35.05    1.81   1
  -3  -3 -15   33.01    1.60   2
   3  -3  15   31.47    1.67   5
   3  -3  15   35.31    1.75   1
  -3   3 -15   36.32    1.72   2
  -3  -3 -15   36.35    1.84   3
  -4  -3 -15    0.09    0.79   3
  -4  -3 -15   -0.44    0.74   2
   4  -3  15   -0.10    0.76   5
   4  -3  15    0.45    0.82   1
  -4   3 -15    0.72    0.77   2
   4   3  15   -0.11    0.78   1
  -5   3 -15    0.91    0.94   2
   5  -3  15    2.57    1.04   1
   5   3  15    1.50    0.98   1
  -5  -3 -15    0.88    0.90   2
  -5  -3 -15    0.64    0.95   3
  -5   4  15   18.34    1.69   4
  -5  -4  15   17.60    1.65   3
   5   4 -15   20.72    1.68   2
   5  -4 -15   15.35    1.69   3
  -5  -4  15   19.70    1.66   4
  -4  -4  15   27.31    1.77   4
  -4   4  15   27.26    1.67   1
  -4   4  15   24.57    1.72   4
   4  -4 -15   25.40    1.84   3
  -4  -4  15   26.89    1.78   3
   4   4 -15   26.02    1.71   2
  -3  -4  15    7.70    1.07   4
   3  -4 -15    9.89    1.26   3
  -3   4  15    8.68    1.09   1
   3   4 -15    9.43    1.05   3
   3   4 -15    8.07    1.08   2
  -3   4  15    8.75    1.10   4
   2  -4 -15    2.57    0.87   3
   2   4 -15    1.87    0.78   2
  -2   4  15    1.61    0.75   1
  -2  -4  15    1.37    0.77   4
  -2   4  15    1.08    0.69   4
   2   4 -15    2.12    0.69   3
   1   4 -15   22.30    1.42   2
   1  -4 -15   22.10    1.54   3
  -1   4  15   23.31    1.48   1
  -1   4  15   24.63    1.40   4
  -1  -4  15   22.88    1.46   4
   0  -4  15    4.24    0.83   4
   0  -4  15    3.01    0.67   5
   0  -4  15    4.81    0.72   1
   0  -4 -15    2.65    0.86   3
   0   4 -15    2.36    0.77   2
   0   4  15    1.06    0.76   1
   1  -4  15   42.71    1.88   4
   1  -4  15   44.33    1.79   5
   1   4  15   48.48    2.03   1
  -1   4 -15   45.15    1.87   2
   1  -4  15   47.88    1.82   1
  -1  -4 -15   48.97    2.12   3
  -2   4 -15   85.01    2.67   2
   2  -4  15   80.30    2.64   4
   2  -4  15   80.89    2.62   1
  -2  -4 -15   83.27    2.88   3
   2  -4  15   87.15    2.68   5
   2   4  15   83.68    2.79   1
  -3   4 -15    0.34    0.76   2
   3  -4  15   -0.33    0.73   1
   3  -4  15    0.54    0.76   5
   3   4  15    0.85    0.82   1
  -3  -4 -15   -0.19    0.79   3
   3  -4  15   -0.33    0.70   4
   4  -4  15    3.38    1.02   5
  -4   4 -15    3.32    0.94   2
   4   4  15    4.76    0.95   2
  -4  -4 -15    4.72    1.03   3
   4   4  15    3.33    1.00   1
   4  -4  15    5.18    1.10   1
   5   4  15    6.10    1.27   1
   5  -4  15    8.19    1.30   5
  -5  -4 -15    9.17    1.44   3
  -5   4 -15    7.44    1.27   2
   5   4  15    7.15    1.20   2
   5  -4  15    6.62    1.32   1
   4   5 -15   37.33    2.09   2
  -4   5  15   34.72    2.14   4
   4  -5 -15   34.40    2.20   3
  -4   5  15   40.54    2.12   1
  -4  -5  15   34.32    2.11   4
   3  -5 -15   40.12    2.18   3
   3   5 -15   39.05    2.03   2
  -3   5  15   39.09    1.96   1
  -3  -5  15   39.75    2.05   4
  -3   5  15   41.52    2.08   4
  -2   5  15    1.60    0.77   4
  -2   5  15    1.81    0.88   1
   2  -5 -15    0.18    0.84   3
   2   5 -15    1.33    0.84   2
  -2  -5  15    1.05    0.85   4
  -1   5  15   18.80    1.44   1
   1  -5 -15   19.64    1.55   3
  -1  -5  15   19.09    1.43   4
   1   5 -15   18.80    1.38   2
  -1   5  15   19.78    1.38   4
   0  -5 -15    0.60    0.83   3
   0   5 -15   -0.02    0.70   2
   0  -5  15   -0.90    0.70   4
   0   5  15    0.32    0.77   1
   1  -5  15   45.84    1.90   1
  -1  -5 -15   46.25    2.23   3
  -1   5 -15   49.52    2.06   2
   1  -5  15   46.71    1.92   5
   1   5  15   45.49    2.13   1
   1  -5  15   47.28    2.11   4
   2  -5  15   13.68    1.25   1
  -2  -5 -15   13.45    1.36   3
   2  -5  15   10.72    1.21   5
   2   5  15   12.07    1.32   1
  -2   5 -15   11.54    1.20   2
   2  -5  15   12.88    1.29   4
   3  -5  15    7.21    1.17   4
   3  -5  15    8.42    1.18   1
   3   5  15    7.00    1.20   1
  -3   5 -15    6.06    1.06   2
  -3  -5 -15    6.52    1.19   3
   3  -5  15    6.81    1.16   5
   4  -5  15   97.46    3.41   5
  -4   5 -15  102.00    3.23   2
   4   5  15   98.95    3.05   2
  -4  -5 -15   91.66    3.42   3
   4  -5  15   94.90    3.37   1
   4   5  15   99.68    3.51   1
  -3  -6  15   34.13    2.07   4
   3  -6 -15   37.35    2.14   4
  -3   6  15   31.58    2.04   1
   3  -6 -15   36.52    2.27   3
   3   6 -15   35.00    2.09   2
  -2   6  15    3.61    1.04   1
  -2  -6  15    2.25    1.03   4
   2   6 -15    3.90    1.06   2
   2  -6 -15    4.72    1.08   4
   2  -6 -15    3.19    1.14   3
   1   6 -15    1.63    0.97   2
   1  -6 -15    3.39    0.99   4
  -1   6  15    3.24    1.07   1
  -1  -6  15    2.60    0.98   4
   1  -6 -15    2.95    1.09   3
   0  -6 -15  147.40    4.36   3
   0   6 -15  145.90    4.06   2
   0  -6  15  152.51    4.33   4
   0   6  15  147.94    4.27   1
   1  -6  15   24.10    1.70   4
   1   6  15   18.72    1.63   1
  -1  -6 -15   21.65    1.70   3
  -1   6 -15   21.12    1.57   2
  -2   6 -15    1.92    0.93   2
  -2  -6 -15    2.09    1.02   3
   2  -6  15    2.70    0.99   4
   2   6  15    2.38    1.05   1
  -2   6 -15    1.45    0.97   1
   3   6  15   51.19    2.54   1
  -3   6 -15   49.65    2.30   2
   3  -6  15   54.79    2.50   5
  -3  -6 -15   47.38    2.44   3
   3  -6  15   53.34    2.45   1
   3  -6  15   53.63    2.49   4
   2  -7 -15    7.80    1.41   4
  -2   7  15    9.89    1.49   1
   2   7 -15    9.48    1.46   2
  -2  -7  15    8.53    1.43   4
   2  -7 -15    7.46    1.48   3
  -1  -7  15   10.72    1.48   4
   1  -7 -15   10.38    1.57   3
  -1   7  15   10.93    1.46   1
   1   7 -15    8.13    1.37   2
   0   7 -15  129.38    3.90   2
   0   7  15  122.23    4.06   1
   0  -7 -15  136.38    4.27   3
   0  -7  15  124.16    4.09   4
  -1  -7 -15   17.45    1.74   3
   1   7  15   17.15    1.72   1
  -1   7 -15   20.46    1.66   2
   1  -7  15   17.96    1.70   4
   6   0 -16   36.98    2.32   3
  -6   0  16   42.39    2.39   4
  -5   0  16   18.96    1.61   4
   5   0 -16   20.14    1.66   3
  -4   0  16   52.07    2.21   4
   4   0 -16   55.97    2.31   3
   3   0 -16    4.06    0.86   3
  -3   0  16    4.62    0.83   4
   2   0 -16  722.11   13.97   3
  -2   0  16  733.93   13.66   4
   2   0 -16  709.72   12.53   2
  -2   0  16  706.11   13.00   1
   1   0 -16 2448.33   41.01   2
   1   0 -16 2471.94   44.82   3
  -1   0  16 2488.25   43.66   4
  -1   0  16 2476.61   43.01   1
   0   0 -16   73.48    2.28   3
   0   0  16   77.80    2.19   4
   0   0 -16   76.94    2.10   2
   0   0  16   71.71    2.16   1
   1   0  16   24.64    1.19   4
  -1   0 -16   28.23    1.38   3
   1   0  16   25.45    1.37   1
  -1   0 -16   30.53    1.36   2
  -2   0 -16  320.57    6.57   3
  -2   0 -16  311.82    6.27   2
   2   0  16  319.21    6.68   1
  -3   0 -16   36.47    1.62   3
   3   0  16   36.80    1.79   1
  -3   0 -16   34.73    1.60   2
  -4   0 -16   37.28    1.80   2
   4   0  16   41.80    1.97   1
  -5   0 -16   19.00    1.50   2
   5   0  16   16.34    1.51   1
  -6   0 -16   51.68    2.45   2
   6   0  16   51.87    2.59   1
   6   1 -16   14.20    1.64   3
  -6  -1  16   17.33    1.69   4
  -6   1  16   17.54    1.73   4
   6  -1 -16   15.98    1.73   3
   5   1 -16    3.81    1.04   3
  -5  -1  16    4.36    1.08   4
  -5   1  16    3.49    1.06   4
   5  -1 -16    4.57    1.15   3
   4   1 -16   63.99    2.49   3
  -4   1  16   63.72    2.44   4
   4  -1 -16   61.99    2.48   3
  -4  -1  16   60.88    2.38   4
  -3   1  16   41.21    1.82   4
   3   1 -16   41.27    1.86   3
   3   1 -16   43.64    1.69   2
  -3  -1  16   37.69    1.81   4
   3  -1 -16   38.81    1.89   3
  -2   1  16    0.19    0.56   4
   2   1 -16   -0.42    0.58   3
   2   1 -16    0.43    0.57   2
   2  -1 -16   -0.01    0.64   3
  -2   1  16    0.27    0.51   1
  -2  -1  16   -0.31    0.56   4
   1   1 -16   49.79    1.82   3
  -1   1  16   51.03    1.79   1
  -1  -1  16   53.65    1.90   4
   1   1 -16   53.65    1.75   2
   1  -1 -16   52.37    2.00   3
  -1  -1  16   53.99    1.63   1
  -1   1  16   53.51    1.88   4
   0   1  16   17.76    1.15   4
   0   1  16   16.47    1.12   1
   0  -1  16   16.13    1.05   1
   0   1 -16   16.44    1.12   3
   0  -1 -16   16.75    1.25   3
   0  -1 -16   17.92    1.03   2
   0  -1  16   18.21    1.13   4
   0   1 -16   17.18    1.10   2
   1   1  16    0.68    0.58   1
  -1  -1 -16    0.82    0.60   3
   1  -1  16    0.65    0.50   4
  -1   1 -16    1.49    0.55   3
  -1  -1 -16    0.73    0.50   2
   1  -1  16    0.20    0.52   1
  -1   1 -16    0.54    0.54   2
   2   1  16   54.35    2.07   1
  -2   1 -16   57.25    1.98   2
  -2   1 -16   55.97    1.77   3
  -2  -1 -16   50.44    1.77   2
  -2  -1 -16   51.88    1.96   3
   2  -1  16   54.63    2.02   1
  -3  -1 -16    3.07    0.80   3
  -3  -1 -16    3.52    0.76   2
   3  -1  16    2.35    0.79   1
   3   1  16    2.41    0.81   1
  -3   1 -16    2.01    0.71   2
  -4  -1 -16    4.55    0.91   3
  -4   1 -16    3.09    0.85   2
   4  -1  16    3.86    0.91   1
   4   1  16    2.19    0.90   1
  -4  -1 -16    3.06    0.86   2
  -5   1 -16   -0.99    0.81   2
  -5  -1 -16   -0.53    0.86   3
  -5  -1 -16   -0.30    0.83   2
   5  -1  16   -0.99    0.87   1
   5   1  16   -0.77    0.85   1
   6   1  16    7.64    1.35   1
  -6  -1 -16    7.44    1.31   2
  -6   1 -16    7.25    1.31   2
   6  -1  16    6.02    1.35   1
  -6  -2  16   29.58    2.07   4
  -6   2  16   28.83    2.11   4
   6  -2 -16   29.79    2.21   3
   6   2 -16   28.38    2.11   3
  -5   2  16    0.74    0.86   4
   5  -2 -16   -0.73    0.90   3
  -5  -2  16   -0.41    0.82   4
   5   2 -16   -0.08    0.82   3
   4   2 -16   21.86    1.59   3
  -4   2  16   19.63    1.48   4
  -4  -2  16   20.01    1.48   4
   4   2 -16   18.14    1.32   2
   4  -2 -16   19.02    1.53   3
   3  -2 -16   68.87    2.53   3
  -3  -2  16   67.74    2.43   4
   3   2 -16   66.73    2.22   2
   3   2 -16   68.99    2.41   3
  -3   2  16   63.54    2.34   4
  -3   2  16   65.46    2.13   1
   2   2 -16    7.67    0.87   2
   2  -2 -16    7.65    1.02   3
  -2   2  16    6.35    0.88   4
  -2  -2  16    6.23    0.91   4
  -2   2  16    6.56    0.87   1
   2   2 -16    8.32    0.92   3
  -1  -2  16   33.58    1.56   4
  -1   2  16   33.05    1.50   1
   1   2 -16   30.36    1.43   2
  -1  -2  16   31.09    1.20   1
   1   2 -16   32.19    1.41   3
  -1   2  16   31.02    1.41   4
   1  -2 -16   30.11    1.62   3
   0  -2  16   46.44    1.63   1
   0  -2  16   41.41    1.70   4
   0   2  16   44.38    1.55   4
   0   2 -16   45.14    1.56   3
   0   2 -16   42.38    1.65   2
   0   2  16   47.43    1.82   1
   0  -2 -16   43.03    1.87   3
  -1   2 -16   50.07    1.82   2
   1   2  16   48.25    1.89   1
   1  -2  16   51.18    1.82   1
  -1  -2 -16   48.43    1.93   3
   1  -2  16   52.12    1.80   4
  -1  -2 -16   52.12    1.63   2
  -2  -2 -16    1.27    0.71   3
  -2   2 -16    1.61    0.69   2
  -2  -2 -16    2.87    0.65   2
   2  -2  16    3.02    0.77   1
   2   2  16    1.63    0.68   1
   2  -2  16    1.45    0.61   4
   3  -2  16   84.18    2.78   1
   3   2  16   87.81    2.83   1
  -3  -2 -16   85.88    2.56   2
  -3  -2 -16   88.86    2.83   3
  -3   2 -16   88.90    2.71   2
   4   2  16  140.32    4.07   1
  -4   2 -16  143.82    3.90   2
  -4  -2 -16  148.01    4.09   3
  -4  -2 -16  160.65    3.95   2
   4  -2  16  161.04    4.24   1
   5   2  16    4.33    1.10   1
   5  -2  16    6.62    1.17   1
  -5   2 -16    2.67    1.01   2
  -5  -2 -16    5.10    1.04   2
  -5  -2 -16    6.42    1.19   3
  -5  -3  16    1.89    0.94   4
  -5   3  16    1.26    0.98   4
   5   3 -16   -0.27    0.99   3
   5   3 -16   -0.87    0.91   2
   5  -3 -16   -0.26    1.00   3
   4   3 -16    3.09    0.94   2
   4   3 -16    2.01    0.90   3
   4  -3 -16    2.34    1.00   3
  -4   3  16    2.74    0.96   4
  -4  -3  16    2.07    0.88   4
   3  -3 -16   76.27    2.77   3
  -3   3  16   69.73    2.36   1
   3   3 -16   78.91    2.61   3
  -3  -3  16   76.61    2.68   4
  -3   3  16   70.16    2.56   4
   3   3 -16   74.68    2.50   2
  -2  -3  16   37.72    1.81   4
   2   3 -16   39.37    1.73   2
   2  -3 -16   37.97    1.89   3
  -2   3  16   40.08    1.78   1
  -2   3  16   37.63    1.72   4
   2   3 -16   42.34    1.75   3
   1   3 -16    0.87    0.67   2
  -1   3  16    1.57    0.61   4
   1  -3 -16    0.91    0.71   3
   1   3 -16    0.36    0.58   3
  -1  -3  16    1.10    0.66   4
  -1   3  16    0.32    0.63   1
   0   3  16   30.27    1.54   1
   0  -3  16   29.06    1.39   1
   0  -3  16   29.98    1.50   4
   0  -3 -16   29.34    1.64   3
   0   3 -16   29.45    1.46   2
  -1   3 -16  205.00    4.61   2
   1  -3  16  209.19    4.65   1
   1   3  16  200.77    4.83   1
   1  -3  16  205.82    4.74   4
  -2  -3 -16   30.47    1.74   3
   2  -3  16   31.29    1.59   1
   2  -3  16   32.90    1.59   4
  -2   3 -16   29.74    1.58   2
   2   3  16   31.31    1.68   1
  -3  -3 -16   20.56    1.50   3
  -3  -3 -16   19.27    1.27   2
  -3   3 -16   21.40    1.45   2
   3   3  16   20.87    1.51   1
   3  -3  16   21.05    1.48   1
  -4   3 -16    3.72    0.96   2
   4  -3  16    4.74    1.09   1
  -4  -3 -16    4.27    0.99   3
   4   3  16    4.59    1.02   1
  -4  -3 -16    4.50    0.97   2
   5  -3  16    1.02    1.02   1
  -5   3 -16    1.80    1.03   2
  -5  -3 -16    2.28    1.01   2
   5   3  16    2.37    1.10   1
  -5  -3 -16    1.60    1.09   3
   5   4 -16   17.31    1.69   2
  -5   4  16   19.41    1.79   4
   5  -4 -16   22.51    1.93   3
  -5  -4  16   19.61    1.76   4
   5   4 -16   23.93    1.83   3
   4   4 -16    0.99    0.92   2
  -4  -4  16    2.47    0.99   4
   4  -4 -16    3.69    1.12   3
  -4   4  16    2.30    0.98   4
   4   4 -16    3.65    0.99   3
  -4   4  16    1.43    0.90   1
   3   4 -16    0.99    0.86   2
   3   4 -16    2.13    0.84   3
  -3   4  16    2.79    0.85   1
  -3   4  16    1.37    0.84   4
  -3  -4  16    0.52    0.78   4
   3  -4 -16    1.10    0.90   3
   2  -4 -16    1.18    0.84   3
  -2   4  16    0.83    0.72   4
  -2  -4  16    0.21    0.67   4
   2   4 -16   -0.50    0.67   2
  -2   4  16    1.08    0.76   1
  -1  -4  16  119.13    3.45   4
   1   4 -16  116.51    3.27   2
   1  -4 -16  119.00    3.56   3
  -1   4  16  124.16    3.26   4
  -1   4  16  115.16    3.37   1
   0  -4  16    7.80    0.86   1
   0  -4  16    7.15    0.98   4
   0  -4 -16    9.74    1.12   3
   0   4 -16    6.57    0.93   2
   0   4  16    7.69    1.04   1
  -1  -4 -16   43.25    2.06   3
   1  -4  16   37.06    1.82   4
  -1   4 -16   43.46    1.86   2
   1  -4  16   42.99    1.78   5
   1   4  16   41.86    1.94   1
   1  -4  16   43.02    1.77   1
   2   4  16   38.47    1.94   1
   2  -4  16   39.79    1.84   4
   2  -4  16   34.87    1.75   1
  -2  -4 -16   36.41    1.93   3
   2  -4  16   36.18    1.77   5
  -2   4 -16   34.46    1.75   2
   3  -4  16    8.07    1.13   1
  -3  -4 -16    7.31    1.13   3
   3  -4  16    7.57    1.06   4
  -3   4 -16    8.18    1.08   2
   3  -4  16    8.00    1.15   5
   3   4  16    8.91    1.20   1
   4   4  16   11.49    1.36   1
   4  -4  16   11.85    1.40   1
  -4  -4 -16    9.87    1.38   3
  -4   4 -16   11.33    1.31   2
   4  -4  16   13.23    1.40   5
  -5  -4 -16   69.87    3.01   3
  -5   4 -16   72.61    2.86   2
   5  -4  16   76.39    3.11   1
   5  -4  16   69.85    2.96   5
   5   4  16   67.16    2.90   1
   5   4  16   70.94    2.74   2
  -4   5  16  130.81    4.15   4
   4  -5 -16  136.40    4.34   3
  -4  -5  16  138.91    4.21   4
   4   5 -16  133.19    4.03   2
  -4   5  16  131.77    3.95   1
  -3  -5  16   19.34    1.61   4
   3  -5 -16   19.62    1.70   3
   3   5 -16   18.85    1.56   2
  -3   5  16   15.38    1.48   4
  -3   5  16   17.88    1.52   1
   2  -5 -16    6.85    1.15   3
  -2   5  16    7.81    1.08   4
   2   5 -16    7.29    1.10   2
  -2  -5  16    6.56    1.11   4
  -2   5  16    7.09    1.09   1
   1  -5 -16   40.24    2.08   3
  -1   5  16   36.18    1.93   1
   1   5 -16   37.33    1.89   2
  -1  -5  16   32.51    1.88   4
   0   5  16   34.41    1.87   1
   0   5 -16   33.98    1.83   2
   0  -5  16   35.17    1.88   4
   0  -5 -16   36.05    2.00   3
   1  -5  16   51.99    2.07   1
  -1  -5 -16   51.04    2.36   3
   1  -5  16   52.27    2.04   5
  -1   5 -16   48.33    2.09   2
   1   5  16   51.54    2.32   1
   1  -5  16   52.44    2.25   4
   2  -5  16   58.51    2.32   5
  -2   5 -16   54.68    2.29   2
   2  -5  16   55.98    2.34   4
   2   5  16   57.81    2.46   1
  -2  -5 -16   55.20    2.48   3
   2  -5  16   56.62    2.28   1
  -3  -5 -16   -1.12    0.86   3
   3  -5  16   -0.24    0.84   4
   3  -5  16    0.49    0.90   5
   3  -5  16    0.04    0.91   1
   3   5  16    0.36    0.95   1
  -3   5 -16   -0.46    0.85   2
  -4  -5 -16   49.88    2.54   3
   4  -5  16   51.82    2.53   5
   4  -5  16   52.76    2.55   1
   4   5  16   52.49    2.63   1
  -4   5 -16   52.66    2.39   2
  -3  -6  16   39.50    2.28   4
   3  -6 -16   39.02    2.41   3
   3   6 -16   39.13    2.23   2
  -3   6  16   41.61    2.30   4
  -3   6  16   39.46    2.27   1
  -2  -6  16    0.35    0.96   4
   2  -6 -16    0.34    0.95   4
   2   6 -16    1.22    0.98   2
   2  -6 -16    0.16    1.02   3
  -2   6  16    0.66    1.00   1
   1   6 -16   35.41    1.98   2
  -1   6  16   34.23    2.04   1
   1  -6 -16   33.45    2.11   3
  -1  -6  16   31.10    2.01   4
   0   6  16  124.46    3.88   1
   0   6 -16  124.89    3.70   2
   0  -6  16  119.69    3.84   4
   0  -6 -16  127.76    4.00   3
  -1  -6 -16   78.92    3.07   3
   1  -6  16   76.79    2.95   4
   1   6  16   75.04    2.95   1
  -1   6 -16   72.26    2.72   2
  -2   6 -16    3.85    1.12   2
   2  -6  16    7.52    1.16   5
   2  -6  16    5.70    1.18   4
  -2  -6 -16    7.11    1.24   3
   2  -6  16    6.69    1.10   1
   2   6  16    3.45    1.13   1
   3  -6  16    0.18    1.03   5
   3  -6  16    1.10    1.00   4
  -3  -6 -16   -0.39    1.00   3
   3  -6  16    1.13    1.04   1
  -3   6 -16   -1.11    0.96   2
   3   6  16   -0.19    1.08   1
  -1   7  16    0.97    1.14   1
   1  -7 -16    1.56    1.28   3
  -1  -7  16    0.21    1.03   4
   1   7 -16    1.18    1.10   2
   0  -7  16   29.46    2.11   4
   0   7  16   30.41    2.11   1
   0  -7 -16   27.22    2.12   3
   0   7 -16   30.69    2.08   2
  -1   7 -16   51.34    2.47   2
  -1  -7 -16   52.25    2.69   3
   1  -7  16   52.68    2.65   4
   1   7  16   49.01    2.56   1
   6   0 -17   -1.03    1.08   3
  -6   0  17    1.96    1.22   4
   5   0 -17    0.45    0.90   3
  -5   0  17    0.16    0.90   4
  -4   0  17   -0.20    0.71   4
   4   0 -17    0.21    0.79   3
   3   0 -17   -0.16    0.68   3
  -3   0  17    0.32    0.63   4
   2   0 -17   -0.06    0.65   3
  -2   0  17    0.30    0.60   4
  -2   0  17    0.75    0.53   1
   1   0 -17    1.94    0.67   3
   0   0  17    1.15    0.54   1
   0   0  17    1.25    0.53   4
   0   0 -17    0.56    0.54   2
   0   0 -17   -0.20    0.57   3
  -1   0 -17   -0.45    0.53   3
   1   0  17   -0.52    0.51   1
  -1   0 -17   -0.16    0.51   2
  -2   0 -17   -0.23    0.55   3
  -2   0 -17    0.44    0.56   2
   2   0  17    0.59    0.63   1
   3   0  17    0.28    0.72   1
  -3   0 -17   -0.62    0.64   2
  -3   0 -17    0.98    0.67   3
   4   0  17    0.00    0.77   1
  -4   0 -17   -0.51    0.68   2
   5   0  17    0.48    0.95   1
  -5   0 -17    0.45    0.88   2
  -5   1  17    0.37    0.94   4
   5  -1 -17    1.47    1.01   3
  -5  -1  17    1.32    0.95   4
   5   1 -17    0.86    0.95   3
  -4   1  17    0.04    0.76   4
  -4  -1  17    0.40    0.72   4
   4   1 -17    0.43    0.83   3
   4  -1 -17    0.68    0.88   3
  -3  -1  17   11.38    1.12   4
   3   1 -17   10.55    1.14   3
   3   1 -17   12.20    1.03   2
  -3   1  17   11.77    1.13   4
   3  -1 -17    9.75    1.13   3
  -2  -1  17   87.70    2.73   4
   2  -1 -17   90.26    2.87   3
  -2   1  17   90.60    2.44   1
   2   1 -17   87.23    2.43   2
   2   1 -17   93.89    2.78   3
  -2   1  17   87.61    2.69   4
  -1  -1  17   14.02    1.08   4
   1   1 -17   13.99    1.06   3
  -1  -1  17   14.72    0.98   1
   1   1 -17   13.36    0.98   2
  -1   1  17   12.55    1.03   4
  -1   1  17   13.48    1.01   1
   1  -1 -17   13.64    1.17   3
   0   1 -17   22.46    1.31   3
   0  -1 -17   25.03    1.44   3
   0  -1 -17   25.80    1.20   2
   0   1  17   26.89    1.35   4
   0   1 -17   25.28    1.31   2
   0   1  17   25.73    1.32   1
   0  -1  17   24.85    1.25   1
   0  -1  17   25.27    1.31   4
   1   1  17    9.41    0.96   1
   1  -1  17   11.07    0.87   4
  -1  -1 -17   10.33    0.99   3
  -1  -1 -17   10.71    0.85   2
  -1   1 -17   10.06    0.93   2
   1  -1  17    9.43    0.93   1
  -1   1 -17   10.36    0.87   3
   2   1  17   84.26    2.72   1
  -2  -1 -17   82.74    2.58   3
  -2  -1 -17   81.57    2.38   2
   2  -1  17   85.60    2.64   1
  -2   1 -17   89.23    2.57   2
   3  -1  17  215.62    5.19   1
  -3  -1 -17  217.76    4.86   2
  -3  -1 -17  224.85    5.16   3
  -3   1 -17  216.33    4.94   2
   3   1  17  223.06    5.26   1
   4   1  17  384.85    8.31   1
  -4  -1 -17  389.87    7.85   2
  -4   1 -17  377.24    7.89   2
   4  -1  17  372.55    8.25   1
  -4  -1 -17  395.63    8.25   3
  -5  -1 -17    1.52    1.00   2
   5   1  17    3.27    1.08   1
  -5   1 -17    3.81    1.05   2
   5  -1  17    1.67    1.00   1
   5   2 -17  313.94    7.62   3
  -5   2  17  323.36    7.56   4
   5  -2 -17  331.67    7.79   3
  -5  -2  17  313.12    7.41   4
  -4   2  17   20.28    1.52   4
   4   2 -17   22.85    1.64   3
   4   2 -17   21.64    1.48   2
  -4  -2  17   21.99    1.58   4
   4  -2 -17   21.40    1.65   3
  -3   2  17   -0.72    0.66   1
  -3   2  17   -0.12    0.64   4
   3   2 -17    0.36    0.73   3
   3   2 -17    0.67    0.70   2
   3  -2 -17    0.13    0.77   3
  -3  -2  17   -0.63    0.64   4
   2  -2 -17   46.51    2.03   3
  -2   2  17   43.95    1.80   1
   2   2 -17   45.25    1.79   2
  -2   2  17   42.31    1.81   4
  -2  -2  17   44.39    1.93   4
   2   2 -17   43.36    1.84   3
   1   2 -17   55.23    1.94   2
   1  -2 -17   60.99    2.25   3
   1   2 -17   57.03    1.94   3
  -1  -2  17   58.66    2.12   4
  -1   2  17   58.43    2.03   1
  -1   2  17   54.95    1.95   4
   0   2  17   85.66    2.39   4
   0  -2  17   86.07    2.59   4
   0  -2  17   88.44    2.44   1
   0  -2 -17   90.88    2.81   3
   0   2 -17   84.20    2.51   2
   0   2  17   92.95    2.71   1
   0   2 -17   94.76    2.45   3
   1  -2  17   47.07    1.79   4
  -1  -2 -17   47.58    1.63   2
   1   2  17   44.19    1.85   1
  -1  -2 -17   49.38    1.97   3
   1  -2  17   49.19    1.85   1
  -1   2 -17   50.09    1.88   2
   2  -2  17   24.12    1.44   1
  -2  -2 -17   25.73    1.36   2
   2   2  17   23.84    1.49   1
  -2  -2 -17   25.46    1.57   3
  -2   2 -17   22.85    1.49   2
  -3   2 -17   84.00    2.69   2
  -3  -2 -17   85.37    2.82   3
   3  -2  17   89.05    2.85   1
  -3  -2 -17   89.01    2.62   2
   3   2  17   81.78    2.80   1
   4  -2  17   78.34    2.88   1
   4   2  17   85.55    2.97   1
  -4  -2 -17   82.18    2.74   2
  -4  -2 -17   85.20    2.89   3
  -4   2 -17   81.51    2.78   2
   5   2  17    4.77    1.09   1
  -5  -2 -17    4.34    1.10   3
  -5   2 -17    4.47    1.07   2
  -5  -2 -17    6.49    1.18   2
   5  -2  17    4.80    1.14   1
  -5  -3  17    6.37    1.23   4
  -5   3  17    4.44    1.21   4
   5   3 -17    5.36    1.17   2
   5  -3 -17    5.68    1.28   3
   5   3 -17    6.72    1.26   3
   4   3 -17    0.68    0.88   3
   4   3 -17    0.48    0.86   2
   4  -3 -17    0.00    0.91   3
  -4   3  17    0.87    0.86   4
  -4  -3  17   -0.12    0.85   4
  -3   3  17    0.10    0.73   1
  -3   3  17   -0.26    0.69   4
   3  -3 -17    0.42    0.85   3
   3   3 -17    0.30    0.74   3
   3   3 -17    0.28    0.74   2
  -3  -3  17    0.31    0.75   4
  -2   3  17   30.16    1.60   4
   2   3 -17   37.21    1.68   3
  -2   3  17   36.11    1.74   1
   2  -3 -17   27.96    1.75   3
  -2  -3  17   31.19    1.69   4
   2   3 -17   32.10    1.63   2
   1  -3 -17   10.23    1.15   3
  -1  -3  17    9.59    1.02   4
  -1   3  17    8.08    0.99   1
   1   3 -17   10.14    1.03   2
  -1   3  17    9.86    0.97   4
   0  -3 -17    1.07    0.74   3
   0  -3  17    0.32    0.57   1
   0  -3  17    1.51    0.66   4
   0   3 -17   -0.22    0.60   2
   0   3  17    0.53    0.68   1
   1  -3  17   -0.59    0.62   1
  -1  -3 -17    0.25    0.70   3
   1  -3  17    0.07    0.58   4
  -1   3 -17   -0.47    0.63   2
   1   3  17   -0.51    0.66   1
  -2   3 -17    0.06    0.62   2
   2   3  17    0.48    0.72   1
   2  -3  17   -1.95    0.60   1
   2  -3  17   -0.72    0.60   4
  -2  -3 -17   -0.82    0.73   3
  -3   3 -17   13.39    1.23   2
  -3  -3 -17   14.16    1.31   3
   3   3  17   15.30    1.35   1
  -3  -3 -17   14.11    1.18   2
   3  -3  17   12.97    1.26   1
  -4   3 -17   12.43    1.32   2
  -4  -3 -17    8.17    1.18   3
  -4  -3 -17   10.38    1.17   2
   4   3  17   12.01    1.35   1
   4  -3  17    8.74    1.24   1
  -5  -3 -17   26.94    1.93   3
  -5  -3 -17   31.19    1.93   2
  -5   3 -17   29.01    1.93   2
   5   3  17   27.41    1.98   1
   5  -3  17   29.49    2.03   1
  -4   4  17   89.50    2.99   1
   4   4 -17   90.17    3.10   2
  -4   4  17   87.03    3.20   4
  -4  -4  17   90.52    3.24   4
   4  -4 -17   87.12    3.34   3
   4   4 -17   95.21    3.22   3
  -3  -4  17   35.26    1.98   4
  -3   4  17   34.95    1.91   4
   3  -4 -17   30.98    1.97   3
   3   4 -17   36.71    1.93   2
  -3   4  17   34.40    1.81   1
   3   4 -17   37.73    1.94   3
  -2   4  17   27.02    1.64   1
   2   4 -17   25.18    1.59   2
   2  -4 -17   25.05    1.78   3
  -2   4  17   28.27    1.63   4
  -2  -4  17   28.73    1.71   4
   1   4 -17   22.69    1.47   2
  -1   4  17   20.54    1.36   4
  -1  -4  17   18.51    1.43   4
   1  -4 -17   21.34    1.57   3
  -1   4  17   21.01    1.48   1
   0   4  17    2.77    0.85   1
   0  -4  17    4.06    0.87   4
   0  -4 -17    2.23    0.89   3
   0   4 -17    1.47    0.78   2
   1  -4  17    3.29    0.85   4
  -1  -4 -17    4.17    0.96   3
   1  -4  17    3.56    0.80   1
  -1   4 -17    5.14    0.91   2
   1   4  17    4.00    0.91   1
   2  -4  17   26.31    1.61   4
   2  -4  17   24.87    1.57   5
   2   4  17   24.58    1.69   1
  -2  -4 -17   22.24    1.63   3
   2  -4  17   24.90    1.56   1
  -2   4 -17   23.45    1.52   2
   3   4  17    0.94    0.88   1
  -3  -4 -17    1.84    0.95   3
   3  -4  17    0.44    0.78   5
   3  -4  17   -0.67    0.79   1
  -3   4 -17   -0.46    0.75   2
   4  -4  17   25.17    1.83   5
  -4  -4 -17   24.23    1.81   3
   4  -4  17   23.10    1.79   1
   4   4  17   22.67    1.76   1
  -4   4 -17   28.08    1.79   2
  -4   5  17    0.44    1.01   4
  -4  -5  17    1.74    1.10   4
  -4   5  17    1.62    1.07   1
   4  -5 -17   -0.35    1.10   3
   4   5 -17    0.76    1.12   2
  -3  -5  17   55.72    2.54   4
  -3   5  17   55.95    2.52   4
   3   5 -17   57.98    2.50   2
  -3   5  17   53.51    2.40   1
   3  -5 -17   58.99    2.71   3
  -2   5  17    8.88    1.26   1
  -2  -5  17    8.20    1.27   4
  -2   5  17   10.93    1.25   4
   2   5 -17   11.93    1.31   2
   2  -5 -17    9.25    1.34   3
   1   5 -17   -0.28    0.80   2
   1  -5 -17    1.27    0.90   3
  -1  -5  17    0.30    0.85   4
  -1   5  17    0.93    0.83   1
   0  -5 -17    2.34    0.96   3
   0  -5  17    1.18    0.87   4
   0   5 -17    1.19    0.81   2
   0   5  17    1.28    0.91   1
  -1   5 -17   13.07    1.30   2
   1  -5  17   12.28    1.19   1
   1  -5  17   15.47    1.28   5
   1  -5  17   12.17    1.30   4
   1   5  17   11.94    1.36   1
  -1  -5 -17   14.42    1.48   3
   2  -5  17   26.22    1.70   1
   2  -5  17   26.47    1.73   4
  -2   5 -17   25.72    1.71   2
   2  -5  17   26.32    1.72   5
  -2  -5 -17   31.52    1.94   3
   2   5  17   28.15    1.87   1
   3   5  17   11.16    1.45   1
  -3   5 -17   10.73    1.32   2
   3  -5  17   11.74    1.41   1
   3  -5  17   11.98    1.40   5
  -3  -5 -17    8.43    1.35   3
   3  -5  17   11.97    1.38   4
   4   5  17   35.90    2.35   1
  -4  -5 -17   34.66    2.22   3
   4  -5  17   36.27    2.22   5
   4  -5  17   36.84    2.28   1
  -4   5 -17   35.51    2.10   2
   3  -6 -17   30.45    2.27   3
  -3   6  17   29.43    2.04   1
   3   6 -17   29.25    2.01   2
  -3  -6  17   31.85    2.12   4
  -3   6  17   28.11    2.01   4
   2   6 -17   43.61    2.27   2
  -2   6  17   43.19    2.33   1
  -2  -6  17   46.14    2.42   4
   2  -6 -17   44.87    2.50   3
   2  -6 -17   49.24    2.39   4
   1  -6 -17    9.36    1.46   3
   1   6 -17   10.26    1.36   2
  -1  -6  17   13.30    1.51   4
  -1   6  17   14.94    1.52   1
   0  -6 -17   56.94    2.64   3
   0   6 -17   56.69    2.46   2
   0  -6  17   53.48    2.53   4
   0   6  17   50.39    2.46   1
   1  -6  17   56.09    2.55   4
  -1  -6 -17   58.21    2.70   3
   1   6  17   56.81    2.62   1
  -1   6 -17   56.75    2.44   2
  -2  -6 -17   27.06    2.02   3
   2  -6  17   26.74    1.84   1
   2  -6  17   25.77    1.86   5
   2   6  17   28.76    2.02   1
  -2   6 -17   28.14    1.88   2
   2  -6  17   27.96    1.95   4
  -5   0  18   67.07    2.83   4
   5   0 -18   75.55    3.01   3
  -4   0  18   81.11    2.85   4
   4   0 -18   73.19    2.83   3
   3   0 -18   31.73    1.78   3
  -3   0  18   28.84    1.65   4
  -2   0  18   62.52    2.25   4
   2   0 -18   59.42    2.24   3
   1   0 -18  106.74    2.66   2
  -1   0  18  107.29    2.82   1
   1   0 -18  102.97    3.02   3
  -1   0  18  109.76    3.01   4
   0   0 -18  244.42    5.03   2
   0   0 -18  248.02    5.51   3
   0   0  18  249.69    5.31   4
   0   0  18  244.97    5.30   1
  -1   0 -18    0.51    0.61   3
   1   0  18    0.87    0.62   1
  -1   0 -18    0.12    0.58   2
   2   0  18   17.02    1.29   1
  -2   0 -18   15.54    1.14   2
  -2   0 -18   17.84    1.26   3
   3   0  18    1.13    0.77   1
  -3   0 -18    0.13    0.67   2
  -3   0 -18    0.59    0.71   3
  -4   0 -18   20.13    1.43   2
   4   0  18   19.49    1.59   1
   5   0  18    1.85    1.05   1
  -5   0 -18    3.24    1.08   2
  -5   1  18    4.97    1.13   4
   5  -1 -18    2.67    1.12   3
   5   1 -18    3.13    1.16   3
  -5  -1  18    2.83    1.12   4
  -4   1  18   15.72    1.43   4
   4  -1 -18   16.12    1.48   3
  -4  -1  18   12.26    1.25   4
   4   1 -18   18.06    1.52   3
  -3   1  18   23.31    1.51   4
  -3  -1  18   23.79    1.51   4
   3  -1 -18   24.35    1.63   3
   3   1 -18   23.44    1.59   3
   2  -1 -18   49.93    2.13   3
   2   1 -18   51.34    1.85   2
  -2   1  18   54.50    1.85   1
   2   1 -18   53.84    2.08   3
  -2  -1  18   51.49    2.07   4
  -2   1  18   54.90    2.05   4
  -1  -1  18  416.72    8.34   4
  -1   1  18  405.22    8.22   4
  -1   1  18  411.87    8.09   1
   1   1 -18  392.88    7.71   2
   1   1 -18  402.44    8.36   3
  -1  -1  18  418.29    7.90   1
   0  -1 -18  217.35    4.46   2
   0   1  18  228.71    4.96   1
   0   1 -18  219.75    4.70   2
   0  -1  18  214.24    4.76   1
   0  -1 -18  219.40    5.13   3
   0  -1  18  211.58    4.88   4
   0   1  18  224.66    4.81   4
   0   1 -18  220.58    4.92   3
  -1   1 -18   42.46    1.71   2
   1  -1  18   39.72    1.72   1
   1   1  18   43.37    1.79   1
  -1  -1 -18   42.89    1.62   2
  -1  -1 -18   45.34    1.85   3
  -1   1 -18   43.72    1.67   3
   1  -1  18   39.78    1.61   4
  -2  -1 -18    6.01    0.91   3
   2   1  18    6.62    0.95   1
   2  -1  18    6.70    0.97   1
  -2   1 -18    6.07    0.90   2
  -2  -1 -18    8.66    0.91   2
  -3  -1 -18   17.13    1.31   3
  -3  -1 -18   17.23    1.24   2
   3  -1  18   15.75    1.34   1
   3   1  18   15.85    1.38   1
  -3   1 -18   17.42    1.28   2
   4  -1  18  200.21    5.13   1
   4   1  18  202.05    5.16   1
  -4   1 -18  191.90    4.84   2
  -4  -1 -18  204.53    4.85   2
  -4  -1 -18  203.13    4.98   3
  -5  -1 -18   91.86    3.13   2
   5  -1  18   85.92    3.21   1
   5   1  18   80.43    3.15   1
  -5   1 -18   90.79    3.10   2
   5   2 -18   61.81    2.76   3
  -5  -2  18   58.91    2.64   4
  -5   2  18   59.75    2.72   4
   5  -2 -18   57.61    2.75   3
   4   2 -18    2.55    0.95   2
  -4   2  18    2.74    0.98   4
  -4  -2  18    2.82    0.89   4
   4  -2 -18    1.72    0.99   3
   4   2 -18    3.42    0.97   3
  -3  -2  18    4.18    0.88   4
  -3   2  18    4.27    0.90   4
   3   2 -18    4.16    0.87   2
   3   2 -18    3.03    0.93   3
   3  -2 -18    3.63    0.99   3
  -2  -2  18    3.00    0.83   4
  -2   2  18    4.30    0.82   1
   2   2 -18    3.58    0.79   2
   2  -2 -18    3.67    0.89   3
   2   2 -18    4.28    0.83   3
  -2   2  18    1.71    0.73   4
  -1   2  18    2.72    0.71   4
   1   2 -18    3.81    0.75   3
  -1  -2  18    4.98    0.84   4
   1  -2 -18    3.23    0.85   3
   1   2 -18    5.12    0.83   2
  -1   2  18    2.81    0.78   1
   0  -2 -18    1.45    0.74   3
   0   2  18    0.13    0.67   1
   0  -2  18    1.50    0.63   1
   0  -2  18    2.16    0.68   4
   0   2 -18    1.40    0.68   2
  -1   2 -18   25.17    1.44   2
   1  -2  18   26.34    1.45   1
   1  -2  18   24.47    1.41   4
   1   2  18   26.16    1.54   1
  -1  -2 -18   25.24    1.50   3
   2  -2  18   69.76    2.40   1
  -2  -2 -18   68.06    2.16   2
   2   2  18   63.66    2.43   1
  -2   2 -18   68.87    2.39   2
  -2  -2 -18   67.61    2.47   3
  -3  -2 -18    0.96    0.82   3
   3   2  18    0.02    0.75   1
   3  -2  18    0.30    0.74   1
  -3   2 -18    0.75    0.76   2
  -3  -2 -18    0.75    0.72   2
   4   2  18    2.28    0.97   1
  -4  -2 -18    2.99    0.96   3
  -4  -2 -18    0.71    0.88   2
   4  -2  18    3.00    1.00   1
  -4   2 -18    3.07    0.98   2
   5  -2  18    5.28    1.25   1
  -5  -2 -18    7.20    1.27   3
   5   2  18    5.45    1.20   1
  -5  -2 -18    3.94    1.15   2
  -5   2 -18    5.16    1.18   2
  -5  -3  18    5.74    1.28   4
   5  -3 -18    6.89    1.43   3
  -5   3  18    4.23    1.30   4
   5   3 -18    8.46    1.36   2
   5   3 -18    6.03    1.35   3
  -4   3  18    0.93    0.91   4
   4  -3 -18    2.39    1.07   3
   4   3 -18    4.01    1.05   3
  -4  -3  18    1.74    0.97   4
   4   3 -18    1.04    0.94   2
  -3  -3  18    0.72    0.78   4
  -3   3  18    0.58    0.78   1
   3  -3 -18    1.47    0.90   3
  -3   3  18    1.19    0.79   4
   3   3 -18    0.07    0.76   2
   3   3 -18    0.84    0.83   3
  -2   3  18   65.41    2.32   1
   2   3 -18   65.63    2.29   3
  -2  -3  18   56.62    2.33   4
   2  -3 -18   59.83    2.48   3
   2   3 -18   58.82    2.21   2
  -2   3  18   62.50    2.30   4
  -1   3  18   36.02    1.67   4
   1  -3 -18   37.02    1.89   3
   1   3 -18   34.45    1.66   2
  -1  -3  18   32.90    1.71   4
  -1   3  18   35.09    1.72   1
   0   3 -18  113.45    3.22   2
   0  -3  18  124.00    3.43   4
   0   3  18  122.76    3.44   1
   0  -3  18  126.92    3.14   1
   0  -3 -18  122.31    3.60   3
   1   3  18   18.63    1.37   1
  -1  -3 -18   16.44    1.35   3
  -1   3 -18   15.66    1.24   2
   1  -3  18   17.44    1.23   1
   1  -3  18   17.05    1.24   4
   2  -3  18    7.62    0.94   4
   2  -3  18    6.15    0.99   1
  -2   3 -18    5.02    0.94   2
   2   3  18    6.53    1.08   1
  -2  -3 -18    6.57    1.09   3
   3   3  18    0.80    0.78   1
  -3  -3 -18    0.83    0.86   3
   3  -3  18    1.33    0.83   1
  -3   3 -18    1.79    0.81   2
  -4   3 -18   24.67    1.71   2
  -4  -3 -18   23.69    1.72   3
  -4  -3 -18   27.22    1.68   2
   4   3  18   25.18    1.81   1
   4  -3  18   26.90    1.86   1
   4   4 -18   46.56    2.30   2
   4  -4 -18   46.57    2.49   3
  -4  -4  18   44.72    2.35   4
  -4   4  18   45.97    2.34   4
   4   4 -18   45.74    2.37   3
  -3  -4  18   88.46    3.10   4
   3   4 -18   85.12    2.88   2
  -3   4  18   75.03    2.74   1
   3  -4 -18   81.84    3.16   3
  -3   4  18   76.85    2.89   4
   2   4 -18   20.72    1.50   2
  -2   4  18   19.74    1.45   4
   2  -4 -18   22.00    1.66   3
  -2  -4  18   19.84    1.56   4
  -2   4  18   18.96    1.47   1
  -1   4  18    5.46    1.00   1
  -1  -4  18    4.87    0.97   4
   1   4 -18    6.19    1.00   2
   1  -4 -18    7.27    1.11   3
   0  -4 -18    3.47    0.96   3
   0   4  18    3.60    1.00   1
   0  -4  18    3.97    0.86   4
   0   4 -18    3.06    0.87   2
   1  -4  18    4.37    0.91   4
  -1   4 -18    3.38    0.89   2
   1  -4  18    6.31    0.96   1
  -1  -4 -18    5.29    1.05   3
   1   4  18    6.58    1.07   1
   2   4  18  106.37    3.45   1
  -2   4 -18  106.95    3.28   2
   2  -4  18  109.75    3.30   4
   2  -4  18  112.37    3.32   1
  -2  -4 -18  110.57    3.53   3
   3   4  18   16.55    1.57   1
  -3  -4 -18   16.97    1.56   3
   3  -4  18   18.16    1.54   1
  -3   4 -18   15.32    1.43   2
  -4   4 -18    0.54    0.93   2
  -4  -4 -18    1.72    1.03   3
   4   4  18    0.48    0.99   1
   4  -4  18    0.67    1.06   1
  -3   5  18   39.19    2.14   4
   3  -5 -18   39.20    2.29   3
   3   5 -18   37.59    2.13   2
  -3   5  18   36.09    1.99   1
  -3  -5  18   38.59    2.22   4
   2   5 -18   -0.10    0.87   2
  -2   5  18    0.82    0.91   4
  -2  -5  18    0.73    0.92   4
  -2   5  18   -0.42    0.86   1
   2  -5 -18    0.42    1.00   3
   1   5 -18    1.71    0.86   2
   1  -5 -18    1.97    1.01   3
  -1  -5  18    1.02    0.88   4
  -1   5  18   -0.49    0.85   1
   0   5  18   18.73    1.58   1
   0  -5 -18   18.36    1.62   3
   0  -5  18   15.14    1.42   4
   0   5 -18   17.37    1.48   2
  -1  -5 -18   12.55    1.46   3
  -1   5 -18   10.24    1.26   2
   1   5  18   10.48    1.36   1
   1  -5  18   10.77    1.27   4
   1  -5  18    7.73    1.12   1
   1  -5  18    8.63    1.15   5
  -2  -5 -18    0.49    0.95   3
   2   5  18    2.57    1.05   1
   2  -5  18    0.59    0.89   5
  -2   5 -18    1.92    0.96   2
   2  -5  18    2.00    0.95   4
   2  -5  18    1.62    0.90   1
   3  -5  18    2.67    1.07   1
   3  -5  18    2.98    1.11   5
  -3   5 -18    3.26    1.09   2
   3   5  18    3.49    1.15   1
  -3  -5 -18    2.56    1.09   3
   2  -6 -18  188.16    4.93   4
  -2  -6  18  183.07    5.19   4
   2  -6 -18  190.09    5.40   3
  -2   6  18  174.78    5.03   1
   2   6 -18  177.12    4.91   2
  -1   6  18   12.84    1.54   1
   1  -6 -18   13.58    1.65   3
  -1  -6  18   11.27    1.47   4
   1   6 -18   13.98    1.49   2
   0  -6  18   26.53    1.93   4
   0  -6 -18   28.87    2.08   3
   0   6  18   26.74    1.93   1
   0   6 -18   28.25    1.94   2
  -1   6 -18   12.70    1.44   2
  -1  -6 -18   11.03    1.48   3
   1   6  18   12.59    1.57   1
   1  -6  18   11.80    1.42   4
  -2   6 -18    6.56    1.25   2
   2   6  18    9.20    1.47   1
  -2  -6 -18    5.74    1.31   3
   2  -6  18    5.92    1.26   4
   2  -6  18    6.84    1.26   1
   2  -6  18    5.72    1.26   5
  -5   0  19    0.50    1.00   4
   5   0 -19    1.06    1.03   3
   4   0 -19    1.64    0.98   3
  -4   0  19   -0.93    0.76   4
  -3   0  19    0.02    0.69   4
   3   0 -19   -0.35    0.75   3
   2   0 -19   -0.53    0.71   3
  -2   0  19   -0.17    0.61   4
   1   0 -19   -0.24    0.63   3
  -1   0  19    0.41    0.62   4
   1   0 -19    0.36    0.59   2
  -1   0  19   -0.35    0.61   1
   0   0  19    0.98    0.62   1
   0   0 -19    2.95    0.76   3
   0   0  19    0.62    0.62   4
   0   0 -19    1.64    0.63   2
  -1   0 -19   -0.43    0.57   2
  -1   0 -19   -0.24    0.62   3
   1   0  19   -0.50    0.62   1
   2   0  19   -0.77    0.64   1
  -2   0 -19   -0.45    0.59   2
  -2   0 -19   -0.34    0.63   3
   3   0  19    0.53    0.79   1
  -3   0 -19   -1.12    0.63   2
  -4   0 -19   -0.30    0.76   2
   4   0  19    0.58    0.91   1
  -5   0 -19   -0.28    0.96   2
   5   0  19   -0.06    1.04   1
   5  -1 -19   88.55    3.45   3
  -5  -1  19   89.24    3.35   4
  -5   1  19   89.33    3.33   4
   5   1 -19   95.86    3.47   3
   4   1 -19   28.63    1.84   3
  -4  -1  19   30.81    1.83   4
   4  -1 -19   26.92    1.87   3
  -4   1  19   24.97    1.73   4
   3   1 -19   44.31    2.06   3
  -3  -1  19   37.15    1.88   4
  -3   1  19   36.30    1.84   4
   3  -1 -19   35.43    1.95   3
  -2  -1  19   -0.50    0.67   4
   2   1 -19   -0.12    0.66   3
   2   1 -19    0.65    0.65   2
   2  -1 -19    0.22    0.72   3
  -2   1  19    0.09    0.60   1
  -2   1  19    0.26    0.66   4
   1   1 -19   23.18    1.44   3
  -1   1  19   25.16    1.49   1
  -1   1  19   24.52    1.44   4
  -1  -1  19   28.83    1.37   1
   1   1 -19   21.66    1.29   2
  -1  -1  19   25.56    1.46   4
   1  -1 -19   25.38    1.56   3
   0   1 -19  586.78   10.62   2
   0   1  19  595.10   11.05   4
   0   1  19  561.37   11.11   1
   0  -1  19  570.31   11.17   4
   0   1 -19  570.31   11.31   3
   0  -1  19  574.11   10.97   1
  -1   1 -19  107.68    2.90   3
  -1  -1 -19  110.41    2.80   2
   1   1  19  107.32    3.10   1
   1  -1  19  103.58    2.99   1
  -1  -1 -19  107.04    3.13   3
  -1   1 -19  110.49    2.96   2
   2  -1  19   27.19    1.60   1
  -2  -1 -19   23.12    1.37   2
  -2  -1 -19   24.58    1.54   3
   2   1  19   23.39    1.54   1
  -2   1 -19   25.55    1.51   2
   3  -1  19   23.99    1.66   1
  -3   1 -19   23.33    1.50   2
   3   1  19   23.97    1.63   1
  -3  -1 -19   23.32    1.58   3
  -3  -1 -19   21.64    1.43   2
   4   1  19  103.17    3.50   1
  -4  -1 -19  111.06    3.31   2
  -4  -1 -19  100.99    3.26   3
  -4   1 -19  111.24    3.36   2
   4  -1  19  113.75    3.58   1
   5   1  19   51.14    2.57   1
  -5   1 -19   52.78    2.43   2
  -5  -1 -19   52.01    2.46   2
   5  -1  19   51.29    2.57   1
   5   2 -19    1.12    1.14   3
  -5  -2  19    1.01    1.02   4
  -5   2  19    0.20    1.00   4
   5  -2 -19   -0.61    1.05   3
  -4  -2  19    0.20    0.84   4
   4  -2 -19    0.76    0.92   3
  -4   2  19    1.49    0.90   4
   4   2 -19    0.86    0.96   3
   3   2 -19    8.36    1.14   3
   3  -2 -19    9.59    1.24   3
  -3  -2  19    8.94    1.17   4
   3   2 -19    9.94    1.09   2
  -3   2  19    7.81    1.08   4
   2   2 -19   21.90    1.50   3
  -2  -2  19   21.23    1.47   4
   2   2 -19   24.13    1.41   2
   2  -2 -19   21.49    1.56   3
  -2   2  19   22.24    1.43   4
  -2   2  19   23.42    1.51   1
   1   2 -19   17.79    1.24   2
  -1   2  19   19.18    1.29   4
   1   2 -19   21.31    1.31   3
  -1   2  19   19.08    1.34   1
   1  -2 -19   19.80    1.48   3
  -1  -2  19   18.92    1.35   4
   0   2  19    6.69    0.99   1
   0  -2  19    9.88    0.95   1
   0  -2 -19    7.62    1.06   3
   0   2 -19    9.69    0.99   2
   0  -2  19    9.00    0.98   4
   1  -2  19   -0.10    0.63   4
  -1   2 -19    0.58    0.68   2
   1  -2  19   -0.58    0.58   1
   1   2  19    0.12    0.70   1
  -1  -2 -19    0.08    0.72   3
  -2   2 -19   28.59    1.63   2
  -2  -2 -19   27.63    1.74   3
   2   2  19   27.72    1.71   1
   2  -2  19   28.18    1.66   1
  -2  -2 -19   29.62    1.52   2
  -3   2 -19   93.79    2.96   2
   3  -2  19   92.21    3.05   1
  -3  -2 -19   95.57    2.84   2
   3   2  19   89.55    3.08   1
  -3  -2 -19   91.81    3.05   3
  -4  -2 -19   82.69    2.84   2
   4  -2  19   79.00    3.01   1
  -4  -2 -19   82.76    2.92   3
  -4   2 -19   87.06    2.95   2
   4   2  19   82.20    3.05   1
   5  -2  19   20.93    1.85   1
  -5  -2 -19   22.33    1.74   3
  -5   2 -19   19.60    1.71   2
   5   2  19   20.29    1.77   1
  -5  -2 -19   19.77    1.71   2
   4   3 -19   76.84    2.82   2
   4   3 -19   86.45    3.13   3
  -4   3  19   82.72    3.12   4
   4  -3 -19   80.26    3.21   3
  -4  -3  19   84.06    3.11   4
  -3   3  19    9.34    1.16   1
  -3   3  19   10.88    1.22   4
   3   3 -19    9.68    1.17   3
   3   3 -19   11.23    1.20   2
  -3  -3  19    8.17    1.20   4
   3  -3 -19   10.46    1.33   3
   2   3 -19   75.11    2.56   2
  -2  -3  19   77.20    2.75   4
  -2   3  19   76.35    2.62   4
   2  -3 -19   80.01    2.93   3
  -2   3  19   77.03    2.61   1
  -1   3  19   46.13    1.98   1
   1   3 -19   47.69    1.97   2
  -1   3  19   46.48    1.92   4
   1  -3 -19   47.14    2.17   3
  -1  -3  19   44.10    2.01   4
   0  -3 -19   25.35    1.67   3
   0  -3  19   27.42    1.48   1
   0  -3  19   26.89    1.58   4
   0   3 -19   28.00    1.54   2
   0   3  19   26.13    1.61   1
   1  -3  19    2.04    0.78   4
   1  -3  19    2.27    0.79   1
   1   3  19    1.55    0.83   1
  -1   3 -19    1.08    0.76   2
  -1  -3 -19    1.54    0.89   3
   2  -3  19    7.05    1.07   1
   2   3  19    6.04    1.07   1
  -2   3 -19    7.40    1.08   2
  -2  -3 -19    5.73    1.10   3
   3  -3  19    0.57    0.85   1
  -3  -3 -19   -0.43    0.85   3
  -3   3 -19    0.67    0.81   2
   3   3  19   -0.09    0.86   1
  -4  -3 -19    1.03    0.91   2
  -4   3 -19    0.94    0.95   2
  -4  -3 -19    1.06    0.91   3
   4   3  19   -0.19    0.97   1
   4  -3  19    0.99    0.98   1
   4   4 -19    5.44    1.23   2
   4  -4 -19    4.07    1.27   3
  -4  -4  19    5.51    1.25   4
  -4   4  19    5.26    1.22   4
  -3   4  19   29.68    1.88   4
  -3  -4  19   31.38    1.98   4
   3  -4 -19   29.13    2.03   3
  -3   4  19   26.70    1.78   1
   3   4 -19   31.11    1.89   2
  -2  -4  19    7.92    1.18   4
   2   4 -19    8.85    1.19   2
  -2   4  19    6.44    1.08   4
   2  -4 -19    9.01    1.32   3
  -2   4  19    8.72    1.20   1
  -1  -4  19    0.54    0.88   4
   1   4 -19    0.25    0.81   2
   1  -4 -19   -0.71    0.82   3
  -1   4  19    0.67    0.84   1
   0   4  19    0.10    0.81   1
   0  -4  19    1.68    0.85   4
   0   4 -19    1.62    0.84   2
   0  -4 -19    1.08    0.90   3
  -1   4 -19   23.34    1.58   2
   1  -4  19   21.11    1.54   4
   1  -4  19   22.93    1.51   1
   1   4  19   19.82    1.56   1
  -1  -4 -19   22.87    1.66   3
   2   4  19   24.17    1.77   1
   2  -4  19   28.82    1.75   1
  -2  -4 -19   28.45    1.88   3
   2  -4  19   23.49    1.62   4
  -2   4 -19   25.36    1.71   2
  -3  -4 -19    3.15    1.07   3
  -3   4 -19    1.25    0.94   2
   3  -4  19    1.57    0.96   1
   3   4  19    2.62    1.06   1
  -4  -4 -19    0.64    1.06   3
   4   4  19   -1.02    1.00   1
  -4   4 -19   -0.90    0.93   2
   4  -4  19   -0.67    1.02   1
  -3   5  19   13.03    1.49   4
   3   5 -19   18.02    1.60   2
   3  -5 -19   13.25    1.65   3
  -3  -5  19   13.54    1.59   4
  -3   5  19   14.45    1.50   1
  -2   5  19    9.17    1.35   1
  -2  -5  19   11.86    1.43   4
   2   5 -19   10.40    1.35   2
   2  -5 -19   12.72    1.53   3
   1   5 -19    5.29    1.11   2
  -1   5  19    4.10    1.08   1
  -1  -5  19    5.64    1.19   4
   1  -5 -19    3.64    1.18   3
   0  -5 -19   35.04    2.15   3
   0   5 -19   40.75    2.06   2
   0   5  19   35.54    2.07   1
   0  -5  19   38.56    2.06   4
  -1   5 -19   48.82    2.24   2
   1   5  19   50.31    2.44   1
   1  -5  19   52.28    2.34   4
  -1  -5 -19   47.11    2.49   3
   2  -5  19   51.27    2.30   1
  -2  -5 -19   44.14    2.39   3
   2  -5  19   45.96    2.27   4
   2   5  19   48.92    2.45   1
  -2   5 -19   50.79    2.36   2
   3   5  19   48.34    2.57   1
  -3  -5 -19   40.94    2.40   3
   3  -5  19   44.26    2.35   1
  -3   5 -19   45.55    2.28   2
   1  -6 -19   33.91    2.27   3
  -1  -6  19   28.62    2.08   4
   1   6 -19   32.46    2.14   2
  -1   6  19   31.14    2.17   1
   0   6  19   28.96    2.02   1
   0  -6 -19   32.12    2.25   3
   0  -6  19   29.42    2.03   4
   0   6 -19   32.03    2.07   2
   1   6  19   45.30    2.50   1
  -1   6 -19   48.69    2.39   2
  -1  -6 -19   47.34    2.55   3
   1  -6  19   40.15    2.34   4
   5   0 -20    0.35    1.13   3
  -5   0  20   -0.29    1.00   4
  -4   0  20   88.15    3.16   4
   4   0 -20   86.13    3.20   3
   3   0 -20    3.02    0.97   3
  -3   0  20    2.91    0.94   4
  -2   0  20   24.64    1.51   4
   2   0 -20   23.79    1.60   3
  -1   0  20  621.87   11.54   1
  -1   0  20  593.83   11.83   4
   0   0  20  245.70    5.37   4
   0   0 -20  234.44    5.03   2
   0   0 -20  244.19    5.55   3
   0   0  20  236.80    5.33   1
  -1   0 -20    2.11    0.73   2
   1   0  20    0.06    0.68   1
  -1   0 -20    1.19    0.73   3
  -2   0 -20   41.46    1.81   2
   2   0  20   45.20    2.03   1
  -2   0 -20   42.10    1.84   3
  -3   0 -20    0.05    0.80   2
   3   0  20    0.28    0.80   1
   4   0  20  130.94    4.01   1
  -4   0 -20  129.90    3.74   2
   5   0  20  699.98   14.19   1
  -5   0 -20  692.05   13.44   2
  -5  -1  20    4.81    1.25   4
   5  -1 -20    5.89    1.34   3
   5   1 -20    5.97    1.33   3
  -5   1  20    6.98    1.32   4
  -4  -1  20   98.87    3.38   4
   4   1 -20  108.59    3.58   3
  -4   1  20   94.53    3.36   4
   4  -1 -20  102.76    3.54   3
   3  -1 -20   14.60    1.47   3
   3   1 -20   15.81    1.40   3
  -3  -1  20   13.32    1.32   4
  -3   1  20   16.10    1.35   4
  -2  -1  20    1.32    0.76   4
   2  -1 -20    2.54    0.84   3
   2   1 -20    1.44    0.80   3
  -2   1  20    2.33    0.80   4
   1  -1 -20    1.46    0.80   3
   1   1 -20    0.65    0.63   2
  -1  -1  20    0.45    0.66   4
   1   1 -20   -0.59    0.65   3
  -1   1  20   -0.52    0.66   1
  -1   1  20   -1.16    0.59   4
   0  -1 -20   40.45    1.92   3
   0  -1  20   39.50    1.73   1
   0   1 -20   41.10    1.75   2
   0   1  20   37.03    1.74   1
   0  -1  20   36.44    1.74   4
  -1  -1 -20    3.98    0.79   2
  -1   1 -20    4.24    0.85   2
   1  -1  20    4.25    0.86   1
   1   1  20    6.31    0.98   1
  -1  -1 -20    4.03    0.88   3
  -2  -1 -20   49.83    2.11   3
  -2  -1 -20   49.45    1.93   2
  -2   1 -20   47.27    2.01   2
   2   1  20   48.52    2.11   1
   2  -1  20   48.28    2.08   1
  -3  -1 -20    2.43    0.90   3
   3  -1  20    1.97    0.93   1
   3   1  20    3.24    0.99   1
  -3  -1 -20    2.39    0.81   2
  -3   1 -20    1.37    0.84   2
   4   1  20   -0.49    0.91   1
   4  -1  20   -0.29    0.92   1
  -4  -1 -20    1.72    0.92   2
  -4   1 -20    0.47    0.91   2
   4   2 -20    1.98    1.02   3
  -4  -2  20    0.87    0.89   4
  -4   2  20    0.84    0.92   4
   4  -2 -20    2.34    1.15   3
  -3  -2  20    1.18    0.84   4
   3   2 -20    0.49    0.85   3
   3  -2 -20    0.40    0.90   3
   3   2 -20    1.18    0.83   2
  -3   2  20    0.77    0.82   4
  -2  -2  20    9.25    1.14   4
  -2   2  20    9.15    1.08   1
  -2   2  20    8.08    1.07   4
   2  -2 -20    9.56    1.20   3
   2   2 -20    9.53    1.09   3
   2   2 -20    8.65    1.02   2
   1   2 -20    0.36    0.68   2
  -1  -2  20   -0.53    0.64   4
   1  -2 -20   -0.94    0.74   3
  -1   2  20   -0.10    0.65   4
  -1   2  20   -0.52    0.68   1
   1   2 -20    1.31    0.73   3
   0   2 -20   38.63    1.77   2
   0  -2 -20   43.55    2.02   3
   0   2  20   40.65    1.91   1
   0  -2  20   37.63    1.82   4
   0  -2  20   43.13    1.75   1
  -1  -2 -20    0.21    0.78   3
   1  -2  20    0.40    0.68   1
   1  -2  20    1.33    0.70   4
   1   2  20    0.78    0.78   1
  -1   2 -20    1.49    0.81   2
  -2  -2 -20    9.04    1.17   3
  -2   2 -20    7.48    1.04   2
   2  -2  20    7.03    1.06   1
   2   2  20    6.64    1.06   1
   3  -2  20   43.74    2.15   1
  -3  -2 -20   45.44    2.01   2
  -3  -2 -20   44.69    2.17   3
  -3   2 -20   44.82    2.10   2
   3   2  20   41.12    2.14   1
  -4  -2 -20    4.97    1.15   2
   4   2  20    5.48    1.22   1
  -4   2 -20    6.87    1.17   2
   4  -2  20    5.48    1.22   1
  -4  -2 -20    6.18    1.20   3
  -4   3  20   93.03    3.38   4
  -4  -3  20   92.02    3.35   4
   4  -3 -20   88.85    3.50   3
   4   3 -20   99.86    3.21   2
   4   3 -20   97.51    3.40   3
   3   3 -20  176.37    4.58   3
  -3  -3  20  162.97    4.64   4
   3  -3 -20  168.70    4.83   3
   3   3 -20  169.55    4.35   2
  -3   3  20  158.43    4.53   4
  -2   3  20   56.63    2.28   1
  -2  -3  20   54.49    2.39   4
  -2   3  20   54.86    2.27   4
   2   3 -20   55.71    2.23   2
   2  -3 -20   58.45    2.57   3
   1  -3 -20    0.09    0.81   3
   1   3 -20    0.78    0.74   2
  -1  -3  20    0.46    0.75   4
  -1   3  20    0.92    0.85   1
   0  -3  20   21.13    1.51   4
   0  -3 -20   19.31    1.54   3
   0   3  20   20.91    1.51   1
   0   3 -20   20.55    1.43   2
  -1  -3 -20    2.22    0.92   3
   1  -3  20    3.28    0.88   1
  -1   3 -20    2.81    0.85   2
   1  -3  20    2.89    0.86   4
   1   3  20    3.15    0.88   1
   2   3  20   -0.24    0.85   1
   2  -3  20    0.67    0.80   1
  -2   3 -20    0.29    0.77   2
  -2  -3 -20   -0.17    0.87   3
  -3  -3 -20   39.96    2.14   3
   3  -3  20   42.84    2.16   1
   3   3  20   40.62    2.17   1
  -3   3 -20   39.32    2.08   2
   4  -3  20   11.74    1.49   1
  -4   3 -20   14.74    1.48   2
   4   3  20    9.69    1.42   1
  -4  -3 -20   12.91    1.42   3
  -3   4  20    4.16    1.12   4
  -3   4  20    3.78    1.05   1
  -3  -4  20    3.02    1.11   4
   3   4 -20    5.12    1.17   2
   3  -4 -20    4.87    1.26   3
  -2  -4  20    0.60    0.89   4
  -2   4  20   -0.42    0.86   4
   2  -4 -20    0.36    0.97   3
   2   4 -20   -0.10    0.81   2
  -2   4  20    1.08    0.89   1
  -1   4  20   47.28    2.20   1
  -1  -4  20   43.21    2.15   4
   1  -4 -20   42.59    2.28   3
   1   4 -20   44.93    2.09   2
   0   4  20   15.00    1.44   1
   0  -4 -20   14.64    1.50   3
   0   4 -20   13.51    1.32   2
   0  -4  20   18.10    1.51   4
  -1   4 -20   18.62    1.50   2
   1   4  20   22.86    1.71   1
   1  -4  20   20.43    1.47   1
  -1  -4 -20   22.43    1.74   3
   1  -4  20   19.06    1.51   4
   2  -4  20    0.57    0.92   1
  -2  -4 -20    0.38    0.97   3
   2   4  20    0.96    0.93   1
  -2   4 -20    0.01    0.84   2
  -3   4 -20   -1.14    0.84   2
   3   4  20    0.96    0.97   1
   3  -4  20   -1.22    0.95   1
  -3  -4 -20   -0.57    1.01   3
  -2  -5  20   62.24    2.79   4
  -2   5  20   60.28    2.68   1
   2  -5 -20   68.43    2.98   3
   2   5 -20   64.41    2.70   2
  -1  -5  20  161.51    4.71   4
   1  -5 -20  165.52    4.89   3
  -1   5  20  166.45    4.69   1
   1   5 -20  165.66    4.51   2
   0  -5  20   25.05    1.81   4
   0  -5 -20   22.16    1.89   3
   0   5  20   24.79    1.83   1
   0   5 -20   26.16    1.79   2
   1  -5  20   13.73    1.45   4
  -1  -5 -20   14.90    1.63   3
   1   5  20   15.31    1.60   1
  -1   5 -20   14.53    1.52   2
  -2  -5 -20  128.77    4.22   3
   2  -5  20  126.54    3.95   4
   2  -5  20  138.75    3.98   1
   2   5  20  126.30    4.13   1
  -2   5 -20  130.57    3.94   2
   4   0 -21   -0.52    0.97   3
  -4   0  21    0.50    0.94   4
   3   0 -21    0.35    0.89   3
  -3   0  21   -0.75    0.77   4
  -2   0  21    0.64    0.74   4
   2   0 -21    0.17    0.78   3
  -1   0  21    2.00    0.79   4
   1   0 -21    2.12    0.81   3
   0   0 -21    3.11    0.88   3
   0   0  21    2.65    0.82   1
   0   0 -21    2.35    0.75   2
  -1   0 -21    0.57    0.69   2
   1   0  21    0.21    0.69   1
  -1   0 -21   -0.53    0.69   3
   2   0  21   -0.60    0.73   1
  -2   0 -21    0.55    0.72   2
   3   0  21   -1.20    0.76   1
  -3   0 -21   -0.23    0.79   2
   4   0  21    0.22    1.02   1
  -4   0 -21   -0.26    0.91   2
  -4   1  21    5.70    1.20   4
  -4  -1  21    7.05    1.20   4
   4   1 -21    5.18    1.26   3
   4  -1 -21    5.01    1.23   3
   3   1 -21    4.06    1.04   3
   3  -1 -21    3.70    1.04   3
  -3  -1  21    2.38    0.95   4
  -3   1  21    3.46    0.98   4
  -2   1  21   -0.11    0.72   4
  -2  -1  21    0.07    0.72   4
   2   1 -21   -0.07    0.82   3
   2  -1 -21   -0.06    0.79   3
  -1   1  21   66.70    2.39   4
  -1  -1  21   68.95    2.45   4
   1  -1 -21   64.83    2.55   3
   1   1 -21   70.81    2.46   3
  -1   1  21   71.68    2.42   1
   1   1 -21   69.71    2.27   2
   0  -1  21    3.12    0.81   4
   0  -1  21    2.24    0.77   1
   0   1 -21    3.97    0.84   3
   0   1 -21    1.29    0.75   2
   0   1  21    2.69    0.81   1
   0  -1 -21    2.99    0.91   3
  -1   1 -21    2.54    0.83   2
  -1  -1 -21    2.97    0.89   3
   1   1  21    2.97    0.89   1
   1  -1  21    3.20    0.82   1
   2  -1  21    3.65    0.94   1
  -2  -1 -21    2.78    0.84   2
  -2   1 -21    4.09    0.97   2
   2   1  21    3.65    0.92   1
  -2  -1 -21    3.72    0.95   3
  -3  -1 -21   11.65    1.22   2
   3  -1  21   13.24    1.39   1
  -3   1 -21   11.16    1.27   2
   3   1  21   13.62    1.41   1
  -3  -1 -21   15.81    1.38   3
  -4  -1 -21   35.17    2.06   2
  -4   1 -21   32.81    1.98   2
   4   1  21   31.36    2.15   1
   4  -1  21   33.49    2.15   1
  -4   2  21   39.86    2.22   4
   4  -2 -21   41.17    2.39   3
   4   2 -21   47.01    2.41   3
  -4  -2  21   35.65    2.18   4
  -3   2  21    1.14    0.85   4
   3  -2 -21   -0.07    0.97   3
  -3  -2  21    2.68    0.99   4
   3   2 -21    1.97    1.01   3
  -2   2  21   18.32    1.42   4
   2   2 -21   19.18    1.46   3
   2   2 -21   16.57    1.33   2
  -2  -2  21   21.55    1.55   4
   2  -2 -21   17.71    1.55   3
  -2   2  21   18.10    1.38   1
   1  -2 -21    2.39    0.91   3
  -1  -2  21    1.63    0.80   4
  -1   2  21    2.77    0.83   1
   1   2 -21    0.99    0.75   2
  -1   2  21    1.57    0.79   4
   0  -2  21  118.92    3.14   1
   0  -2 -21  114.26    3.53   3
   0   2 -21  113.79    3.22   2
   0  -2  21  111.76    3.32   4
   0   2  21  115.37    3.39   1
  -1   2 -21  460.73    9.13   2
  -1  -2 -21  462.76    9.88   3
   1  -2  21  468.46    9.38   1
   1   2  21  464.60    9.62   1
   2  -2  21    0.70    0.82   1
   2   2  21   -0.29    0.82   1
  -2  -2 -21   -0.11    0.90   3
  -2   2 -21    0.49    0.81   2
   3   2  21   -1.07    0.87   1
  -3  -2 -21    1.61    0.95   3
   3  -2  21   -0.88    0.88   1
  -3   2 -21   -1.14    0.85   2
  -4  -2 -21   34.08    2.04   2
  -4   2 -21   32.02    1.98   2
  -4  -2 -21   36.24    2.04   3
   4   2  21   34.38    2.13   1
   4  -2  21   35.10    2.20   1
  -4  -3  21    3.62    1.15   4
  -4   3  21    2.00    1.07   4
   4  -3 -21    1.60    1.20   3
   4   3 -21    2.54    1.21   3
  -3   3  21   13.45    1.43   4
   3   3 -21   10.75    1.32   2
  -3  -3  21   10.08    1.35   4
   3  -3 -21   10.89    1.52   3
  -2   3  21    3.58    1.04   1
  -2   3  21    5.59    1.05   4
   2   3 -21    5.11    1.03   2
   2  -3 -21    5.30    1.17   3
  -2  -3  21    5.78    1.16   4
   1  -3 -21    1.21    0.96   3
   1   3 -21    1.48    0.83   2
  -1  -3  21    0.82    0.79   4
  -1   3  21    1.17    0.87   1
   0  -3  21   -0.94    0.76   4
   0  -3 -21   -0.98    0.82   3
   0   3 -21    0.05    0.75   2
   0   3  21    1.60    0.85   1
  -1  -3 -21    6.81    1.17   3
   1  -3  21    5.86    1.01   1
  -1   3 -21    5.50    1.00   2
   1  -3  21    3.10    0.95   4
   1   3  21    4.65    1.06   1
   2   3  21    0.65    0.90   1
  -2  -3 -21    0.42    0.93   3
  -2   3 -21   -0.87    0.83   2
   2  -3  21   -1.02    0.81   1
   3  -3  21   -0.14    0.92   1
   3   3  21    0.54    0.95   1
  -3  -3 -21    1.62    1.01   3
  -3   3 -21    0.40    0.92   2
  -3  -4  21    8.36    1.36   4
  -3   4  21    8.94    1.33   4
   3   4 -21    8.37    1.36   2
  -3   4  21    8.23    1.27   1
   3  -4 -21    7.94    1.45   3
  -2  -4  21    1.56    1.07   4
   2   4 -21    2.71    1.09   2
  -2   4  21    0.82    0.95   1
   2  -4 -21    2.32    1.08   3
  -1  -4  21   13.79    1.43   4
   1  -4 -21   15.15    1.57   3
  -1   4  21   12.77    1.43   1
   1   4 -21   12.78    1.32   2
   0   4  21    3.80    1.03   1
   0  -4 -21    2.55    1.09   3
   0  -4  21    2.97    1.05   4
   0   4 -21    1.35    0.94   2
  -1   4 -21    1.48    0.88   2
  -1  -4 -21    0.93    0.99   3
   1   4  21    0.76    0.96   1
   1  -4  21    0.65    0.90   4
   2   4  21   57.07    2.68   1
  -2  -4 -21   65.41    2.80   3
   2  -4  21   61.20    2.57   1
  -2   4 -21   55.71    2.46   2
   3   4  21   36.09    2.24   1
  -3  -4 -21   31.41    2.17   3
   3  -4  21   34.57    2.21   1
  -3   4 -21   30.10    1.98   2
   2  -5 -21   37.38    2.36   3
   2   5 -21   30.51    2.07   2
  -2   5  21   29.97    2.06   1
  -2  -5  21   30.69    2.13   4
  -1   5  21  203.21    5.45   1
   1  -5 -21  203.38    5.70   3
   1   5 -21  203.85    5.24   2
  -1  -5  21  202.24    5.49   4
   0   5 -21   13.47    1.52   2
   0  -5 -21   12.62    1.62   3
   0  -5  21   13.64    1.55   4
   0   5  21   13.81    1.56   1
   1  -5  21    0.18    0.95   4
  -1  -5 -21    1.83    1.11   3
   1   5  21    0.60    1.04   1
  -1   5 -21   -0.62    0.92   2
  -2  -5 -21    2.00    1.17   3
   2  -5  21    1.94    1.10   1
   2   5  21   -0.61    1.03   1
  -2   5 -21    2.65    1.14   2
  -4   0  22   94.40    3.41   4
   4   0 -22   95.17    3.49   3
  -3   0  22  278.83    6.80   4
   3   0 -22  301.71    7.07   3
   2   0 -22    3.52    1.01   3
  -2   0  22    4.35    1.00   4
   1   0 -22    0.92    0.83   3
  -1   0  22    0.33    0.78   4
   0   0  22   47.32    2.00   1
   0   0 -22   50.84    2.20   3
  -1   0 -22   32.19    1.71   2
  -1   0 -22   31.94    1.73   3
   1   0  22   29.54    1.69   1
  -2   0 -22   48.04    2.06   2
   2   0  22   47.53    2.22   1
  -3   0 -22   42.09    2.07   2
   3   0  22   48.64    2.39   1
  -4   0 -22    6.89    1.25   2
   4   0  22    4.64    1.28   1
  -4  -1  22   10.85    1.40   4
  -4   1  22   10.37    1.40   4
   4  -1 -22    8.30    1.44   3
   4   1 -22   11.21    1.53   3
  -3  -1  22    8.35    1.23   4
   3   1 -22   12.44    1.41   3
   3  -1 -22    7.66    1.31   3
  -3   1  22   12.32    1.39   4
   2   1 -22    4.11    1.01   3
  -2  -1  22    2.52    0.92   4
  -2   1  22    3.38    0.92   4
   2  -1 -22    4.40    1.01   3
   1   1 -22    0.37    0.80   3
  -1  -1  22    0.70    0.77   4
  -1   1  22   -0.40    0.72   1
   1  -1 -22    0.98    0.86   3
   1   1 -22    0.43    0.74   2
  -1   1  22    0.65    0.77   4
   0  -1 -22  196.24    4.94   3
   0  -1  22  192.07    4.56   1
   0   1  22  190.53    4.72   1
   0  -1  22  186.64    4.64   4
   0   1 -22  191.45    4.50   2
  -1   1 -22    4.17    0.89   2
   1   1  22    2.51    0.89   1
  -1  -1 -22    3.03    0.91   3
   1  -1  22    1.48    0.80   1
  -2  -1 -22   18.62    1.47   3
  -2   1 -22   15.34    1.37   2
   2  -1  22   15.57    1.40   1
   2   1  22   17.12    1.45   1
  -2  -1 -22   15.31    1.30   2
   3  -1  22   19.32    1.65   1
  -3  -1 -22   14.71    1.40   2
   3   1  22   12.60    1.46   1
  -3   1 -22   14.97    1.39   2
   4   1  22    2.32    1.16   1
  -4   1 -22    2.32    1.04   2
   4  -1  22    3.37    1.16   1
  -4  -1 -22    3.29    1.12   2
  -4   2  22   27.43    1.96   4
   4   2 -22   27.90    2.04   3
   4  -2 -22   24.81    2.02   3
  -4  -2  22   28.10    2.01   4
   3   2 -22   11.86    1.39   3
  -3   2  22   12.05    1.36   4
  -3  -2  22   12.06    1.38   4
   3  -2 -22    9.66    1.35   3
   2   2 -22   80.39    2.84   3
  -2  -2  22   74.59    2.85   4
   2   2 -22   80.44    2.64   2
   2  -2 -22   79.21    3.05   3
  -2   2  22   80.26    2.81   4
  -1   2  22    7.33    1.09   1
   1  -2 -22    5.00    1.08   3
  -1  -2  22    4.41    1.04   4
   1   2 -22    6.59    1.05   2
   0   2 -22   17.90    1.35   2
   0   2  22   20.78    1.53   1
   0  -2  22   18.39    1.44   4
   0  -2 -22   18.50    1.55   3
   1  -2  22   84.68    2.84   1
  -1  -2 -22   90.12    3.11   3
  -1   2 -22   92.98    2.93   2
   1   2  22   88.01    3.04   1
  -2   2 -22    0.18    0.89   2
   2   2  22    0.85    0.88   1
   2  -2  22    2.42    0.94   1
  -2  -2 -22    1.19    0.97   3
   3  -2  22    1.02    1.01   1
  -3   2 -22    1.63    0.93   2
  -3  -2 -22    2.25    1.01   3
   3   2  22    0.89    1.01   1
  -3   3  22   -0.60    0.95   4
   3   3 -22    0.34    1.00   2
   3  -3 -22   -0.30    1.04   3
  -3  -3  22    0.54    0.92   4
  -2   3  22   42.08    2.10   4
  -2  -3  22   44.19    2.28   4
  -2   3  22   47.01    2.18   1
   2  -3 -22   44.31    2.43   3
   2   3 -22   42.38    2.08   2
  -1  -3  22    0.50    0.86   4
   1  -3 -22    0.58    0.92   3
   1   3 -22    0.40    0.85   2
  -1   3  22   -0.02    0.85   1
   0  -3 -22   13.54    1.45   3
   0  -3  22   10.79    1.29   4
   0   3  22    8.80    1.26   1
   0   3 -22   12.24    1.29   2
  -1  -3 -22    6.96    1.20   3
   1  -3  22    7.06    1.08   1
   1   3  22    5.22    1.11   1
  -1   3 -22    3.98    1.04   2
   1  -3  22    3.86    1.02   4
  -2  -3 -22    1.14    1.03   3
   2   3  22    1.62    1.02   1
   2  -3  22    2.80    0.97   1
  -2   3 -22    2.40    1.02   2
  -3  -3 -22    1.96    1.12   3
   3   3  22    1.91    1.14   1
   3  -3  22    3.71    1.13   1
  -3   3 -22    2.48    1.03   2
  -2  -4  22   33.14    2.14   4
  -2   4  22   31.27    1.99   1
   2   4 -22   28.97    1.94   2
   2  -4 -22   29.11    2.14   3
   1   4 -22   54.95    2.42   2
  -1  -4  22   57.16    2.59   4
   1  -4 -22   55.79    2.75   3
  -1   4  22   61.32    2.61   1
   0  -4  22   68.84    2.77   4
   0  -4 -22   64.43    2.85   3
   0   4  22   65.48    2.75   1
   0   4 -22   64.70    2.61   2
  -1  -4 -22   16.00    1.70   3
   1   4  22   18.23    1.69   1
   1  -4  22   19.25    1.64   4
  -1   4 -22   16.01    1.53   2
  -2  -4 -22   27.67    1.99   3
  -2   4 -22   27.46    1.88   2
   2   4  22   26.90    1.98   1
   2  -4  22   25.88    1.83   1
   1   5 -22   20.40    1.74   2
  -1   5  22   17.71    1.78   1
   1  -5 -22   22.65    1.99   3
  -1  -5  22   19.50    1.78   4
   0  -5  22   16.53    1.71   4
   0   5  22   14.93    1.65   1
   0   5 -22   16.29    1.62   2
   0  -5 -22   16.45    1.80   3
  -4   0  23    0.24    1.02   4
   4   0 -23   -0.60    1.03   3
  -3   0  23    0.57    0.89   4
   3   0 -23   -1.84    0.94   3
   2   0 -23   -1.30    0.84   3
  -2   0  23   -0.36    0.79   4
  -1   0  23    0.09    0.75   4
   1   0 -23    2.37    0.93   3
   0   0  23    0.01    0.76   1
   0   0 -23    1.30    0.90   3
   1   0  23   -0.03    0.80   1
  -1   0 -23   -0.04    0.78   2
  -1   0 -23    1.26    0.86   3
   2   0  23   -0.47    0.88   1
  -2   0 -23   -0.82    0.81   2
   3   0  23   -0.81    0.96   1
  -3   0 -23    0.51    0.97   2
  -4   1  23    1.34    1.08   4
   4  -1 -23    0.78    1.18   3
  -4  -1  23    1.49    1.10   4
   4   1 -23    1.03    1.15   3
  -3  -1  23   36.73    2.08   4
   3   1 -23   37.23    2.13   3
  -3   1  23   34.81    2.06   4
   3  -1 -23   35.37    2.16   3
   2   1 -23    9.71    1.26   3
  -2  -1  23   10.31    1.30   4
   2  -1 -23   12.77    1.42   3
  -2   1  23   12.44    1.32   4
   1  -1 -23    4.38    1.08   3
   1   1 -23    5.62    1.06   3
  -1   1  23    8.98    1.10   1
  -1  -1  23    5.12    1.04   4
   0   1  23  133.96    3.78   1
   0   1 -23  128.85    3.55   2
   0  -1  23  136.12    3.62   1
   0  -1 -23  135.73    3.93   3
  -1   1 -23  155.00    3.99   2
   1   1  23  148.22    4.12   1
  -1  -1 -23  148.06    4.16   3
   1  -1  23  149.17    4.07   1
  -2   1 -23   55.80    2.36   2
  -2  -1 -23   59.35    2.48   3
   2   1  23   51.49    2.38   1
   2  -1  23   60.40    2.50   1
   3  -1  23   10.08    1.39   1
  -3  -1 -23   10.98    1.33   2
   3   1  23    9.19    1.36   1
  -3   1 -23    9.61    1.29   2
  -3  -2  23   28.59    1.94   4
   3  -2 -23   28.06    2.05   3
  -3   2  23   28.56    1.91   4
   3   2 -23   27.80    1.97   3
   2  -2 -23   41.61    2.31   3
  -2   2  23   45.15    2.14   4
  -2  -2  23   43.70    2.20   4
  -1   2  23   41.52    2.00   1
   1  -2 -23   38.66    2.14   3
   1   2 -23   41.47    1.96   2
  -1  -2  23   41.57    2.12   4
   0   2 -23   43.68    2.04   2
   0   2  23   43.52    2.14   1
   0  -2  23   45.82    2.17   4
   0  -2 -23   45.68    2.30   3
  -1   2 -23    2.89    1.02   2
   1   2  23    4.14    1.07   1
   1  -2  23    3.85    0.99   1
  -1  -2 -23    2.49    1.01   3
   2  -2  23    5.26    1.10   1
  -2   2 -23    3.21    1.04   2
  -2  -2 -23    6.26    1.21   3
   2   2  23    3.66    1.11   1
   3  -2  23    2.35    1.11   1
  -3   2 -23    1.56    1.01   2
  -3  -2 -23    2.46    1.08   3
   3   2  23    2.32    1.07   1
  -3  -3  23   39.40    2.29   4
   3  -3 -23   40.64    2.51   3
  -3   3  23   36.74    2.16   4
  -2  -3  23    3.34    1.12   4
  -2   3  23    7.12    1.21   1
   2   3 -23    6.63    1.19   2
   2  -3 -23    5.69    1.29   3
   1   3 -23   28.84    1.80   2
   1  -3 -23   29.56    2.03   3
  -1  -3  23   29.09    1.94   4
  -1   3  23   24.78    1.78   1
   0  -3 -23    0.64    0.96   3
   0  -3  23   -0.50    0.85   4
   0   3  23    0.15    0.94   1
   0   3 -23    0.13    0.89   2
  -1  -3 -23   72.58    2.96   3
  -1   3 -23   70.25    2.73   2
   1   3  23   70.30    2.88   1
  -2   3 -23   61.12    2.65   2
   2  -3  23   65.15    2.67   1
   2   3  23   61.14    2.75   1
  -2  -3 -23   66.20    2.87   3
  -2   4  23   21.08    1.72   1
   2  -4 -23   16.53    1.80   3
   2   4 -23   16.86    1.63   2
  -2  -4  23   15.39    1.65   4
  -1  -4  23   94.49    3.47   4
   1  -4 -23   95.38    3.63   3
  -1   4  23  110.26    3.59   1
   1   4 -23   96.86    3.31   2
   0  -4 -23  144.94    4.51   3
   0   4 -23  136.75    4.03   2
   0   4  23  134.81    4.22   1
   0  -4  23  138.01    4.18   4
   1  -4  23   28.30    1.94   4
   1   4  23   23.80    1.93   1
  -1  -4 -23   26.72    2.03   3
  -1   4 -23   23.39    1.82   2
   3   0 -24   13.98    1.59   3
  -3   0  24   17.53    1.59   4
  -2   0  24   33.99    1.95   4
   2   0 -24   32.39    1.97   3
   1   0 -24   22.34    1.64   3
  -1   0  24   18.28    1.46   4
   0   0 -24   18.65    1.55   3
   0   0  24   17.61    1.42   1
   1   0  24    1.91    0.93   1
  -2   0 -24   44.21    2.12   2
   2   0  24   47.35    2.30   1
  -3   0 -24    5.01    1.19   2
   3   0  24    4.84    1.25   1
   3  -1 -24   54.59    2.64   3
  -3  -1  24   48.24    2.44   4
  -3   1  24   54.26    2.54   4
   3   1 -24   57.48    2.69   3
   2   1 -24   84.67    3.02   3
  -2   1  24   79.78    2.93   4
   2  -1 -24   80.24    3.11   3
  -2  -1  24   80.02    3.00   4
   1  -1 -24    6.69    1.20   3
  -1  -1  24    5.73    1.11   4
   0   1 -24   16.30    1.37   2
   0   1  24   21.48    1.56   1
   0  -1 -24   16.18    1.54   3
   1   1  24   23.68    1.68   1
  -1  -1 -24   22.88    1.72   3
  -1   1 -24   26.04    1.69   2
   1  -1  24   23.75    1.68   1
   2   1  24   42.95    2.23   1
  -2   1 -24   40.50    2.12   2
   2  -1  24   45.40    2.25   1
   3  -1  24   17.88    1.69   1
   3   1  24   13.62    1.58   1
  -3   1 -24   14.36    1.49   2
  -3   2  24    7.95    1.35   4
  -3  -2  24    8.07    1.40   4
   3   2 -24   10.18    1.43   3
   3  -2 -24    9.76    1.49   3
  -2   2  24    1.86    1.00   4
   2  -2 -24    1.77    1.10   3
  -2  -2  24    2.71    1.03   4
   1  -2 -24   10.28    1.46   3
  -1   2  24    9.94    1.24   1
   1   2 -24    8.00    1.16   2
  -1  -2  24    7.03    1.21   4
   0  -2  24   59.35    2.51   4
   0   2 -24   58.67    2.40   2
   0  -2 -24   57.51    2.61   3
   0   2  24   60.73    2.53   1
   1   2  24   50.81    2.45   1
  -1  -2 -24   60.03    2.65   3
   1  -2  24   52.32    2.32   1
  -1   2 -24   59.80    2.52   2
   2  -2  24    0.02    0.93   1
  -2  -2 -24    0.16    1.05   3
  -2   2 -24    0.79    1.01   2
   2   2  24    0.56    0.98   1
   2   3 -24   21.52    1.70   2
   2  -3 -24   17.51    1.80   3
  -2  -3  24   20.21    1.79   4
  -1  -3  24    1.40    1.06   4
  -1   3  24    1.98    1.05   1
   1  -3 -24    1.62    1.09   3
   1   3 -24    0.09    0.89   2
   0   3  24   24.04    1.80   1
   0  -3  24   24.65    1.84   4
   0   3 -24   24.62    1.72   2
   0  -3 -24   22.63    1.91   3
  -1   3 -24    8.08    1.28   2
   1   3  24    6.52    1.32   1
  -1  -3 -24    9.58    1.43   3
   2  -3  24  115.80    3.67   1
  -2  -3 -24  115.67    3.89   3
   2   3  24  105.33    3.77   1
  -2   3 -24  110.60    3.65   2
   0   4  24   40.30    2.35   1
   0  -4 -24   41.43    2.42   3
   0  -4  24   36.34    2.24   4
   0   4 -24   42.35    2.28   2
   3   0 -25    1.44    1.10   3
  -3   0  25   -1.21    0.96   4
  -2   0  25    0.46    1.01   4
   2   0 -25    2.77    1.11   3
   1   0 -25    0.61    0.99   3
   0   0 -25    1.63    1.09   3
   0   0  25    1.08    0.96   1
   1   0  25    0.65    0.96   1
   2   0  25    0.39    1.01   1
   2   1 -25   70.40    2.82   3
  -2   1  25   68.49    2.76   4
   2  -1 -25   69.46    2.99   3
  -2  -1  25   67.71    2.83   4
   1  -1 -25   28.72    1.98   3
  -1  -1  25   33.28    2.00   4
   0  -1 -25   13.71    1.53   3
   0   1  25   15.02    1.48   1
  -1  -1 -25    3.02    1.15   3
   1   1  25    2.52    1.07   1
  -1   1 -25    1.64    1.00   2
   1  -1  25    0.82    0.95   1
   2   1  25    1.90    1.13   1
   2  -1  25    0.82    1.04   1
  -2   1 -25    3.07    1.09   2
   2  -2 -25    3.89    1.33   3
  -2  -2  25    5.59    1.22   4
   1  -2 -25    1.33    1.08   3
  -1   2  25    1.20    1.02   1
  -1  -2  25    0.33    0.93   4
   0  -2 -25    3.39    1.21   3
   0   2  25    5.96    1.20   1
   0   2 -25    4.66    1.13   2
  -1  -2 -25  198.18    5.44   3
   1   2  25  207.58    5.40   1
  -1   2 -25  199.35    5.09   2
  -2   2 -25   62.82    2.75   2
  -2  -2 -25   69.01    2.96   3
   2  -2  25   62.89    2.72   1
   2   2  25   60.08    2.78   1
  -1  -3  25    3.75    1.20   4
   1   3 -25    1.66    1.04   2
   1  -3 -25    1.18    1.14   3
  -1   3  25    4.61    1.19   1
   0   3  25   13.35    1.55   1
   0  -3 -25   14.93    1.70   3
   0   3 -25   13.44    1.48   2
   0  -3  25   10.16    1.49   4
  -1   3 -25   21.42    1.79   2
  -1  -3 -25   22.84    1.97   3
   1   3  25   19.73    1.82   1
   2   0 -26    1.20    1.17   3
  -2   0  26    1.80    1.11   4
   1   0 -26    1.50    1.12   3
   1   0  26    2.31    1.09   1
  -2  -1  26    8.48    1.40   4
   2  -1 -26   10.86    1.53   3
   1  -1 -26   53.74    2.64   3
   0   1  26   13.83    1.52   1
   0  -1 -26   12.41    1.54   3
   1   1  26   -0.16    1.03   1
   1  -1  26    0.73    1.00   1
  -1  -1 -26   -0.47    1.07   3
  -1  -2  26   86.54    3.23   4
   1  -2 -26   85.04    3.37   3
   0   2  26    3.32    1.16   1
   0  -2 -26    4.22    1.33   3
   0   2 -26    3.32    1.14   2
   1   2  26   40.34    2.31   1
  -1   2 -26   37.37    2.23   2
  -1  -2 -26   43.29    2.44   3
   0   0   0    0.00    0.00   0
;
_shelx_hkl_checksum              69960
_olex2_submission_special_instructions 'No special instructions were received'
#END Tags that were not found in dictionaries
loop_
_space_group_symop_operation_xyz
'x, y, z'
'-x, y+1/2, -z+1/2'
'-x, -y, -z'
'x, -y-1/2, z-1/2'
loop_
_atom_site_label
_atom_site_type_symbol
_atom_site_fract_x
_atom_site_fract_y
_atom_site_fract_z
_atom_site_U_iso_or_equiv
_atom_site_adp_type
_atom_site_occupancy
_atom_site_site_symmetry_order
_atom_site_calc_flag
_atom_site_refinement_flags_posn
C1 C 0.94190(14) 0.86620(13) 0.09003(4) 0.01283(18) Uani 1 1 d .
C2 C 0.75271(15) 0.90790(13) 0.13757(4) 0.01389(18) Uani 1 1 d .
C3 C 0.71571(15) 0.77041(14) 0.19316(4) 0.01634(19) Uani 1 1 d .
H3 H 0.5857 0.7970 0.2242 0.020 Uiso 1 1 calc R
C4 C 0.86636(17) 0.59519(14) 0.20373(4) 0.0179(2) Uani 1 1 d .
H4 H 0.8430 0.5045 0.2425 0.021 Uiso 1 1 calc R
C5 C 1.05174(16) 0.55376(14) 0.15702(4) 0.01711(19) Uani 1 1 d .
H5 H 1.1544 0.4336 0.1643 0.021 Uiso 1 1 calc R
C6 C 1.09094(14) 0.68481(14) 0.09957(4) 0.01424(18) Uani 1 1 d .
C7 C 0.97920(14) 1.02173(13) 0.03350(4) 0.01382(18) Uani 1 1 d .
H7 H 0.9730 1.1673 0.0460 0.017 Uiso 1 1 calc R
C8 C 0.58521(16) 1.09645(14) 0.12792(5) 0.01782(19) Uani 1 1 d .
H81 H 0.5133 1.0947 0.0807 0.027 Uiso 1 1 calc GR
H82 H 0.6798 1.2273 0.1349 0.027 Uiso 1 1 calc GR
H83 H 0.4537 1.0900 0.1619 0.027 Uiso 1 1 calc GR
C9 C 1.29441(16) 0.62457(14) 0.05133(4) 0.01709(19) Uani 1 1 d .
H91 H 1.3757 0.7531 0.0348 0.026 Uiso 1 1 calc GR
H92 H 1.2253 0.5460 0.0115 0.026 Uiso 1 1 calc GR
H93 H 1.4144 0.5354 0.0763 0.026 Uiso 1 1 calc GR
loop_
_atom_site_aniso_label
_atom_site_aniso_U_11
_atom_site_aniso_U_22
_atom_site_aniso_U_33
_atom_site_aniso_U_23
_atom_site_aniso_U_13
_atom_site_aniso_U_12
C1 0.0135(4) 0.0137(4) 0.0113(4) -0.0013(3) 0.0005(3) -0.0003(3)
C2 0.0141(4) 0.0151(4) 0.0125(4) -0.0021(3) 0.0008(3) 0.0003(3)
C3 0.0164(4) 0.0196(4) 0.0132(4) -0.0007(3) 0.0026(3) -0.0004(3)
C4 0.0204(4) 0.0191(4) 0.0143(4) 0.0029(3) 0.0016(3) -0.0009(3)
C5 0.0191(4) 0.0163(4) 0.0159(4) 0.0020(3) 0.0004(3) 0.0026(3)
C6 0.0146(4) 0.0147(4) 0.0134(4) -0.0010(3) 0.0009(3) 0.0008(3)
C7 0.0134(4) 0.0136(4) 0.0145(4) 0.0003(3) 0.0007(3) 0.0009(3)
C8 0.0176(4) 0.0176(4) 0.0184(4) -0.0011(3) 0.0037(3) 0.0035(3)
C9 0.0169(4) 0.0179(4) 0.0166(4) 0.0003(3) 0.0029(3) 0.0046(3)
loop_
_atom_type_symbol
_atom_type_description
_atom_type_scat_dispersion_real
_atom_type_scat_dispersion_imag
_atom_type_scat_source
C C 0.0033 0.0016 'International Tables Vol C Tables 4.2.6.8 and 6.1.1.4'
H H 0.0000 0.0000 'International Tables Vol C Tables 4.2.6.8 and 6.1.1.4'
loop_
_geom_angle_atom_site_label_1
_geom_angle_atom_site_label_2
_geom_angle_atom_site_label_3
_geom_angle
_geom_angle_site_symmetry_1
C2 C1 C7 117.62(7) .
C6 C1 C2 119.36(7) .
C6 C1 C7 122.99(7) .
C1 C2 C8 120.88(7) .
C3 C2 C1 119.88(8) .
C3 C2 C8 119.22(7) .
C2 C3 H3 119.6 .
C4 C3 C2 120.85(8) .
C4 C3 H3 119.6 .
C3 C4 H4 120.3 .
C3 C4 C5 119.32(8) .
C5 C4 H4 120.3 .
C4 C5 H5 119.2 .
C4 C5 C6 121.59(8) .
C6 C5 H5 119.2 .
C1 C6 C9 123.48(7) .
C5 C6 C1 118.95(7) .
C5 C6 C9 117.57(7) .
C1 C7 H7 116.6 .
C7 C7 C1 126.72(10) 3_775
C7 C7 H7 116.6 3_775
C2 C8 H81 109.5 .
C2 C8 H82 109.5 .
C2 C8 H83 109.5 .
H81 C8 H82 109.5 .
H81 C8 H83 109.5 .
H82 C8 H83 109.5 .
C6 C9 H91 109.5 .
C6 C9 H92 109.5 .
C6 C9 H93 109.5 .
H91 C9 H92 109.5 .
H91 C9 H93 109.5 .
H92 C9 H93 109.5 .
loop_
_geom_bond_atom_site_label_1
_geom_bond_atom_site_label_2
_geom_bond_distance
_geom_bond_site_symmetry_2
C1 C2 1.4160(11) .
C1 C6 1.4121(11) .
C1 C7 1.4813(11) .
C2 C3 1.3941(12) .
C2 C8 1.5075(12) .
C3 H3 0.9500 .
C3 C4 1.3885(12) .
C4 H4 0.9500 .
C4 C5 1.3896(12) .
C5 H5 0.9500 .
C5 C6 1.3996(12) .
C6 C9 1.5081(11) .
C7 C7 1.3406(16) 3_775
C7 H7 0.9500 .
C8 H81 0.9800 .
C8 H82 0.9800 .
C8 H83 0.9800 .
C9 H91 0.9800 .
C9 H92 0.9800 .
C9 H93 0.9800 .
loop_
_geom_torsion_atom_site_label_1
_geom_torsion_atom_site_label_2
_geom_torsion_atom_site_label_3
_geom_torsion_atom_site_label_4
_geom_torsion
_geom_torsion_site_symmetry_4
C1 C2 C3 C4 1.68(13) .
C2 C1 C6 C5 -1.70(12) .
C2 C1 C6 C9 179.05(7) .
C2 C1 C7 C7 -137.19(11) 3_775
C2 C3 C4 C5 -1.83(13) .
C3 C4 C5 C6 0.17(14) .
C4 C5 C6 C1 1.59(13) .
C4 C5 C6 C9 -179.12(8) .
C6 C1 C2 C3 0.11(12) .
C6 C1 C2 C8 -178.22(7) .
C6 C1 C7 C7 45.04(15) 3_775
C7 C1 C2 C3 -177.74(7) .
C7 C1 C2 C8 3.94(12) .
C7 C1 C6 C5 176.02(8) .
C7 C1 C6 C9 -3.23(12) .
C8 C2 C3 C4 -179.96(8) .
