#------------------------------------------------------------------------------
#$Date: 2016-03-24 14:28:49 +0200 (Thu, 24 Mar 2016) $
#$Revision: 179665 $
#$URL: svn://www.crystallography.net/cod/cif/4/51/18/4511877.cif $
#------------------------------------------------------------------------------
#
# This file is available in the Crystallography Open Database (COD),
# http://www.crystallography.net/
#
# All data on this site have been placed in the public domain by the
# contributors.
#
data_4511877
loop_
_publ_author_name
'Harada, Jun'
'Ogawa, Keiichiro'
_publ_section_title
;
 What Molecules Are Likely or Unlikely To Undergo Pedal Motions in
 Crystals?
;
_journal_issue                   10
_journal_name_full               'Crystal Growth &amp; Design'
_journal_page_first              5182
_journal_paper_doi               10.1021/cg500962y
_journal_volume                  14
_journal_year                    2014
_chemical_formula_moiety         'C18 H22'
_chemical_formula_sum            'C18 H22'
_chemical_formula_weight         238.35
_chemical_name_systematic
;
 ?
;
_space_group_crystal_system      monoclinic
_space_group_IT_number           14
_space_group_name_Hall           '-P 2yn'
_space_group_name_H-M_alt        'P 1 21/n 1'
_symmetry_space_group_name_Hall  '-P 2yn'
_symmetry_space_group_name_H-M   'P 1 21/n 1'
_atom_sites_solution_hydrogens   geom
_atom_sites_solution_primary     direct
_audit_creation_date             2014-06-26
_audit_creation_method
;
Olex2 1.2
(compiled 2014.06.23 svn.r2946 for OlexSys, GUI svn.r4855)
;
_cell_angle_alpha                90
_cell_angle_beta                 97.340(1)
_cell_angle_gamma                90
_cell_formula_units_Z            2
_cell_length_a                   10.4841(2)
_cell_length_b                   6.5711(1)
_cell_length_c                   10.3523(2)
_cell_measurement_reflns_used    6634
_cell_measurement_temperature    90
_cell_measurement_theta_max      42.034
_cell_measurement_theta_min      2.603
_cell_volume                     707.35(2)
_computing_cell_refinement       'SAINT v6.02A (Bruker, 2001)'
_computing_data_collection       'SMART v5.054 (Bruker, 1998)'
_computing_data_reduction        'SAINT v6.02A (Bruker, 2001)'
_computing_molecular_graphics    'XP (Bruker, 1998)'
_computing_publication_material  'Olex2 (Dolomanov et al., 2009)'
_computing_structure_refinement  'ShelXL (Sheldrick, 2008)'
_computing_structure_solution    'ShelXS (Sheldrick, 2008)'
_diffrn_ambient_temperature      90
_diffrn_detector_area_resol_mean 8.192
_diffrn_measured_fraction_theta_full 1.000
_diffrn_measured_fraction_theta_max 1.000
_diffrn_measurement_device_type  'Bruker SMART 1000'
_diffrn_measurement_method       '\w scans'
_diffrn_radiation_type           MoK\a
_diffrn_radiation_wavelength     0.71073
_diffrn_reflns_av_R_equivalents  0.0113
_diffrn_reflns_av_unetI/netI     0.0071
_diffrn_reflns_Laue_measured_fraction_full 1.000
_diffrn_reflns_Laue_measured_fraction_max 1.000
_diffrn_reflns_limit_h_max       14
_diffrn_reflns_limit_h_min       -14
_diffrn_reflns_limit_k_max       9
_diffrn_reflns_limit_k_min       -9
_diffrn_reflns_limit_l_max       14
_diffrn_reflns_limit_l_min       -14
_diffrn_reflns_number            19460
_diffrn_reflns_point_group_measured_fraction_full 1.000
_diffrn_reflns_point_group_measured_fraction_max 1.000
_diffrn_reflns_theta_full        25.242
_diffrn_reflns_theta_max         30.030
_diffrn_reflns_theta_min         2.604
_diffrn_source                   'sealed X-ray tube'
_diffrn_standards_number         0
_exptl_absorpt_coefficient_mu    0.062
_exptl_absorpt_correction_type   multi-scan
_exptl_absorpt_process_details   'SADABS was used for absorption correction.'
_exptl_crystal_colour            colourless
_exptl_crystal_colour_primary    colourless
_exptl_crystal_density_diffrn    1.119
_exptl_crystal_description       block
_exptl_crystal_F_000             260
_exptl_crystal_size_max          0.6
_exptl_crystal_size_mid          0.25
_exptl_crystal_size_min          0.25
_exptl_transmission_factor_max   0.979004
_exptl_transmission_factor_min   0.897124
_refine_diff_density_max         0.441
_refine_diff_density_min         -0.138
_refine_diff_density_rms         0.047
_refine_ls_extinction_method     none
_refine_ls_goodness_of_fit_ref   1.061
_refine_ls_hydrogen_treatment    constr
_refine_ls_matrix_type           full
_refine_ls_number_parameters     84
_refine_ls_number_reflns         2078
_refine_ls_number_restraints     0
_refine_ls_restrained_S_all      1.061
_refine_ls_R_factor_all          0.0440
_refine_ls_R_factor_gt           0.0405
_refine_ls_shift/su_max          0.000
_refine_ls_shift/su_mean         0.000
_refine_ls_structure_factor_coef Fsqd
_refine_ls_weighting_details
'w=1/[\s^2^(Fo^2^)+(0.0683P)^2^+0.1693P] where P=(Fo^2^+2Fc^2^)/3'
_refine_ls_weighting_scheme      calc
_refine_ls_wR_factor_gt          0.1138
_refine_ls_wR_factor_ref         0.1176
_reflns_Friedel_coverage         0.000
_reflns_number_gt                1871
_reflns_number_total             2078
_reflns_threshold_expression     'I > 2\s(I)'
_cod_data_source_file            cg500962y_si_001.cif
_cod_data_source_block           2266MeDPE90K
_cod_depositor_comments
'Adding full bibliography for 4511872--4511883.cif.'
_cod_database_code               4511877
#BEGIN Tags that were not found in dictionaries:
_shelxl_version_number           2013-4
_shelx_space_group_comment
;
The symmetry employed for this shelxl refinement is uniquely defined
by the following loop, which should always be used as a source of
symmetry information in preference to the above space-group names.
They are only intended as comments.
;
_shelx_estimated_absorpt_t_max   0.985
_shelx_estimated_absorpt_t_min   0.964
_olex2_refinement_description
;
1. Others
 Fixed Uiso: H3(0.022) H4(0.025) H5(0.023) H7A(0.018) H7B(0.018) H8A(0.036)
 H8B(0.036) H8C(0.036) H9A(0.029) H9B(0.029) H9C(0.029)
 Fixed X: H3(0.4558) H4(0.6149) H5(0.7109) H7A(0.3697) H7B(0.4703) H8A(0.3253)
 H8B(0.2726) H8C(0.3807) H9A(0.7391) H9B(0.7174) H9C(0.612)
 Fixed Y: H3(0.3174) H4(0.0662) H5(-0.0271) H7A(0.4389) H7B(0.3015)
 H8A(0.5544) H8B(0.4848) H8C(0.6574) H9A(-0.0024) H9B(0.2215) H9C(0.0482)
 Fixed Z: H3(0.9522) H4(0.97) H5(0.787) H7A(0.51) H7B(0.4452) H8A(0.8383)
 H8B(0.6932) H8C(0.7169) H9A(0.5717) H9B(0.512) H9C(0.4741)
;
_shelx_res_file
;
TITL 2,2',6,6'-Tetramethyldiphenylethane at 90 K in P2(1)/n
CELL 0.71073  10.4841   6.5711  10.3523  90.0000  97.340  90.0000
ZERR    2.00   0.0002   0.0001   0.0002   0.0000   0.001   0.0000
LATT  1
SYMM 0.5-X, 0.5+Y, 0.5-Z
SFAC C H
UNIT 36 44
L.S. 5
BOND $H
CONF
LIST 4
ACTA
TEMP -183
FMAP 2
PLAN 40
SIZE 0.25 0.25 0.6
WGHT    0.068300    0.169300
FVAR       0.79294
C1    1    0.507444    0.310005    0.645803    11.00000    0.01428    0.01372 =
         0.01527    0.00239    0.00134   -0.00145
C2    1    0.452007    0.369414    0.757164    11.00000    0.01603    0.01681 =
         0.01711    0.00247    0.00339    0.00003
C3    1    0.493330    0.277700    0.877265    11.00000    0.01855    0.02176 =
         0.01591    0.00298    0.00357   -0.00191
AFIX  43
H3    2    0.455799    0.317414    0.952187    11.00000   -1.20000
AFIX   0
C4    1    0.588637    0.129157    0.888349    11.00000    0.01960    0.02363 =
         0.01772    0.00719    0.00029   -0.00060
AFIX  43
H4    2    0.614923    0.066159    0.970012    11.00000   -1.20000
AFIX   0
C5    1    0.645214    0.073404    0.779220    11.00000    0.01697    0.01777 =
         0.02134    0.00554    0.00060    0.00133
AFIX  43
H5    2    0.710908   -0.027061    0.787024    11.00000   -1.20000
AFIX   0
C6    1    0.606606    0.163383    0.658162    11.00000    0.01477    0.01386 =
         0.01741    0.00163    0.00194   -0.00105
C7    1    0.461908    0.403592    0.513962    11.00000    0.01516    0.01552 =
         0.01487    0.00262    0.00098   -0.00059
AFIX  23
H7A   2    0.369698    0.438932    0.510025    11.00000   -1.20000
H7B   2    0.470310    0.301535    0.445210    11.00000   -1.20000
AFIX   0
C8    1    0.348520    0.530718    0.750843    11.00000    0.02487    0.02590 =
         0.02215    0.00467    0.00875    0.00829
AFIX 137
H8A   2    0.325266    0.554442    0.838328    11.00000   -1.50000
H8B   2    0.272553    0.484806    0.693160    11.00000   -1.50000
H8C   2    0.380674    0.657438    0.716945    11.00000   -1.50000
AFIX   0
C9    1    0.674769    0.102297    0.543965    11.00000    0.01979    0.01729 =
         0.02093    0.00081    0.00509    0.00297
AFIX 137
H9A   2    0.739051   -0.002387    0.571703    11.00000   -1.50000
H9B   2    0.717432    0.221474    0.512033    11.00000   -1.50000
H9C   2    0.612011    0.048205    0.474127    11.00000   -1.50000
AFIX   0
HKLF 4

REM  2,2',6,6'-Tetramethyldiphenylethane at 90 K in P2(1)/n
REM R1 =  0.0405 for    1871 Fo > 4sig(Fo)  and  0.0440 for all    2078 data
REM     84 parameters refined using      0 restraints

END

WGHT      0.0682      0.1690

REM Highest difference peak  0.441,  deepest hole -0.138,  1-sigma level  0.047
Q1    1   0.6274  0.1197  0.7193  11.00000  0.05    0.44
Q2    1   0.4760  0.3246  0.8168  11.00000  0.05    0.42
Q3    1   0.4799  0.3338  0.7016  11.00000  0.05    0.41
Q4    1   0.5634  0.2360  0.6528  11.00000  0.05    0.40
Q5    1   0.5468  0.2038  0.8787  11.00000  0.05    0.40
Q6    1   0.4870  0.3564  0.5802  11.00000  0.05    0.39
Q7    1   0.6217  0.1103  0.8355  11.00000  0.05    0.38
Q8    1   0.6391  0.1332  0.6015  11.00000  0.05    0.36
Q9    1   0.4064  0.4440  0.7526  11.00000  0.05    0.33
Q10   1   0.5000  0.5000  0.5000  10.50000  0.05    0.31
Q11   1   0.4019  0.6151  0.7768  11.00000  0.05    0.16
Q12   1   0.3405  0.6248  0.6938  11.00000  0.05    0.15
Q13   1   0.5599  0.3684  0.6690  11.00000  0.05    0.14
Q14   1   0.6957 -0.0022  0.5443  11.00000  0.05    0.11
Q15   1   0.6865  0.1792  0.4838  11.00000  0.05    0.11
Q16   1   0.3567  0.6138  0.8467  11.00000  0.05    0.11
Q17   1   0.6460  0.0908  0.4742  11.00000  0.05    0.10
Q18   1   0.3141  0.5367  0.7939  11.00000  0.05    0.10
Q19   1   0.3830  0.3864  0.4723  11.00000  0.05    0.09
Q20   1   0.7543  0.1828  0.5451  11.00000  0.05    0.09
Q21   1   0.2547  0.4787  0.7494  11.00000  0.05    0.09
Q22   1   0.4284  0.3360  0.4336  11.00000  0.05    0.08
Q23   1   0.4750  0.3445  0.4738  11.00000  0.05    0.08
Q24   1   0.7420  0.0318  0.7765  11.00000  0.05    0.07
Q25   1   0.4137  0.7159  0.7549  11.00000  0.05    0.07
Q26   1   0.7774  0.0628  0.5793  11.00000  0.05    0.07
Q27   1   0.6392  0.0855  1.0173  11.00000  0.05    0.07
Q28   1   0.4525  0.3751  0.9946  11.00000  0.05    0.06
Q29   1   0.7245  0.0021  0.8405  11.00000  0.05    0.06
Q30   1   0.6966 -0.1240  0.7710  11.00000  0.05    0.05
Q31   1   0.5191  0.3137  0.4026  11.00000  0.05    0.05
Q32   1   0.1511  0.4362  0.6250  11.00000  0.05    0.04
Q33   1   0.3728  0.7039  0.8850  11.00000  0.05    0.04
Q34   1   0.7317  0.0269  1.0051  11.00000  0.05    0.04
Q35   1   0.2162  0.3962  0.6957  11.00000  0.05    0.04
Q36   1   0.5209  0.3375  0.9759  11.00000  0.05    0.04
Q37   1   0.8830  0.0254  0.6238  11.00000  0.05    0.04
Q38   1   0.4208  0.4114  1.1262  11.00000  0.05    0.04
Q39   1   0.7544 -0.1200  0.6997  11.00000  0.05    0.04
Q40   1   0.7434  0.0074  0.9157  11.00000  0.05    0.04
;
_shelx_res_checksum              14041
_shelx_hkl_file
;
  -1   0   0    1.48    0.10
  -2   0   0 2132.40   13.08
  -3   0   0    0.12    0.11
  -4   0   0   37.00    0.70
  -5   0   0    0.01    0.14
  -6   0   0  347.11    3.04
  -7   0   0    0.15    0.20
  -8   0   0   67.57    1.36
  -9   0   0    0.14    0.27
 -10   0   0    0.17    0.28
 -11   0   0   -0.28    0.29
 -12   0   0   18.35    0.99
 -13   0   0    0.10    0.38
 -14   0   0   -0.18    0.47
   0   1   0    0.03    0.06
  -1   1   0  158.64    1.33
   1   1   0  157.95    1.34
  -2   1   0  994.73    6.30
   2   1   0  992.48    6.21
  -3   1   0 1174.46    7.20
   3   1   0 1176.77    7.21
  -4   1   0  217.69    1.96
   4   1   0  216.80    1.99
  -5   1   0  262.19    2.38
  -5  -1   0  259.99    2.42
  -6   1   0  372.99    3.19
  -6  -1   0  372.50    3.24
  -7   1   0    9.95    0.53
  -7  -1   0   10.25    0.57
  -8   1   0   80.95    1.49
  -8  -1   0   82.17    1.52
  -9   1   0   21.17    0.86
  -9  -1   0   20.86    0.87
 -10   1   0   15.84    0.83
 -10  -1   0   14.85    0.81
 -11   1   0   56.94    1.53
 -11  -1   0   56.76    1.54
 -12   1   0   11.69    0.82
 -12  -1   0   11.85    0.84
 -13   1   0    2.11    0.51
 -13  -1   0    2.94    0.58
 -14   1   0   23.36    1.22
 -14  -1   0   22.66    1.21
   0   2   0   23.12    0.49
  -1   2   0 1408.98    8.59
   1   2   0 1383.55    8.42
  -2   2   0 1061.85    6.63
   2   2   0 1059.96    6.61
  -3   2   0 1364.39    8.26
   3   2   0 1352.96    8.25
  -4   2   0  528.18    3.84
   4   2   0  530.12    3.92
  -5   2   0   59.89    1.05
   5   2   0   58.50    1.09
  -6   2   0   -0.09    0.16
   6   2   0   -0.01    0.17
  -7   2   0   32.34    0.90
  -7  -2   0   31.79    0.93
  -8   2   0   41.47    1.09
  -8  -2   0   41.78    1.14
  -9   2   0    1.46    0.36
  -9  -2   0    1.56    0.38
 -10   2   0  172.53    2.57
 -10  -2   0  171.43    2.62
 -11   2   0    1.00    0.38
 -11  -2   0    1.12    0.42
 -12   2   0   11.72    0.85
 -12  -2   0   10.91    0.82
 -13   2   0    6.35    0.72
 -13  -2   0    6.40    0.75
 -14   2   0    1.04    0.50
 -14  -2   0    0.85    0.50
   0   3   0    0.07    0.12
  -1   3   0   71.29    1.05
   1   3   0   69.55    1.04
  -2   3   0  422.85    3.26
   2   3   0  415.02    3.26
  -3   3   0  926.09    6.10
   3   3   0  921.54    6.13
  -4   3   0  275.68    2.56
   4   3   0  271.81    2.63
  -5   3   0  321.14    2.95
   5   3   0  318.97    3.02
  -6   3   0  236.75    2.56
   6   3   0  232.54    2.60
  -7   3   0   23.36    0.82
   7   3   0   22.50    0.84
  -8   3   0   -0.01    0.25
   8   3   0   -0.17    0.25
  -9   3   0    0.03    0.25
  -9  -3   0   -0.18    0.27
 -10   3   0   29.17    1.09
 -10  -3   0   30.18    1.14
 -11   3   0   12.19    0.79
 -11  -3   0   11.85    0.82
 -12   3   0    1.26    0.43
 -12  -3   0    1.05    0.45
 -13   3   0    0.86    0.43
 -13  -3   0    0.86    0.46
   0   4   0  337.96    2.94
  -1   4   0    3.41    0.35
   1   4   0    3.52    0.36
  -2   4   0   74.18    1.22
   2   4   0   74.01    1.26
  -3   4   0    0.31    0.19
   3   4   0    0.62    0.22
  -4   4   0   74.22    1.33
   4   4   0   76.02    1.37
  -5   4   0    5.15    0.47
   5   4   0    5.43    0.49
  -6   4   0   53.22    1.22
   6   4   0   52.08    1.25
  -7   4   0   39.98    1.11
   7   4   0   39.62    1.16
  -8   4   0   65.15    1.50
  -9   4   0   16.21    0.82
 -10   4   0    4.90    0.59
 -10  -4   0    4.97    0.61
 -11   4   0    2.67    0.49
 -11  -4   0    3.05    0.55
 -12   4   0   12.13    0.86
 -12  -4   0   12.95    0.97
 -13   4   0    0.06    0.39
 -13  -4   0   -0.31    0.44
   0   5   0   -0.05    0.20
  -1   5   0   79.46    1.41
   1   5   0   78.08    1.40
  -2   5   0    0.30    0.22
   2   5   0    0.38    0.23
  -3   5   0   37.43    0.99
   3   5   0   37.89    1.02
  -4   5   0   21.30    0.78
   4   5   0   22.36    0.82
  -5   5   0   60.53    1.36
  -6   5   0    4.11    0.50
   6   5   0    4.17    0.51
  -7   5   0  128.93    2.14
   7   5   0  122.68    2.15
  -8   5   0  106.22    2.00
   8   5   0  104.74    2.05
  -9   5   0    8.74    0.75
   9   5   0    7.35    0.74
 -10   5   0   -0.21    0.32
 -10  -5   0    0.03    0.37
 -11   5   0   93.21    2.15
 -11  -5   0   89.88    2.21
 -12   5   0   72.81    1.99
 -12  -5   0   73.50    2.10
   0   6   0    4.54    0.51
  -1   6   0   59.30    1.34
   1   6   0   57.94    1.31
  -2   6   0    2.77    0.40
   2   6   0    2.60    0.39
  -3   6   0   57.93    1.36
   3   6   0   59.92    1.39
  -4   6   0    0.43    0.28
   4   6   0    0.24    0.28
  -5   6   0    6.18    0.56
   5   6   0    6.77    0.60
  -6   6   0   33.87    1.13
  -7   6   0   23.48    1.00
   7   6   0   24.95    1.05
  -8   6   0    9.43    0.75
   8   6   0    9.12    0.77
  -9   6   0    0.14    0.35
   9   6   0    0.05    0.39
 -11  -6   0    1.29    0.53
   0   7   0   -0.48    0.25
  -1   7   0   20.56    0.89
   1   7   0   20.84    0.91
  -2   7   0   12.01    0.75
   2   7   0   12.10    0.75
  -3   7   0   48.87    1.35
   3   7   0   49.36    1.37
  -4   7   0   35.90    1.17
   4   7   0   34.99    1.19
  -5   7   0   -0.02    0.30
   5   7   0   -0.15    0.31
   6   7   0    1.32    0.43
   7   7   0    0.00    0.34
   8   7   0   16.82    1.03
   9   7   0   77.70    2.06
   1   8   0   16.16    0.89
   2   8   0    0.11    0.34
   3   8   0    0.59    0.39
   4   8   0   -0.05    0.35
   5   8   0    5.72    0.67
   6   8   0   18.45    1.04
   7   8   0   71.00    1.93
 -14   0   1   -0.02    0.41
 -13   0   1    1.89    0.49
 -12   0   1    0.01    0.35
 -11   0   1    3.12    0.50
 -10   0   1   -0.05    0.27
  -9   0   1   81.46    1.60
  -8   0   1   -0.02    0.21
  -7   0   1  120.54    1.73
  -6   0   1   -0.12    0.15
  -5   0   1    2.60    0.30
  -4   0   1    0.05    0.12
  -3   0   1    0.28    0.12
  -2   0   1    0.12    0.09
  -1   0   1  869.87    6.40
   0   0   1    0.21    0.04
   1   0   1   52.76    0.57
   2   0   1    0.30    0.10
  -4   0  -1    0.09    0.12
  -5   0  -1  401.35    3.17
  -6   0  -1    0.22    0.17
  -7   0  -1  242.25    2.56
  -8   0  -1    0.02    0.22
  -9   0  -1    1.91    0.36
 -10   0  -1    0.12    0.28
 -11   0  -1   25.93    1.07
 -12   0  -1    0.01    0.35
 -13   0  -1  113.74    2.40
 -14   0  -1    0.03    0.45
 -14   1   1    0.26    0.44
 -14  -1   1   -0.36    0.41
 -13   1   1    3.31    0.57
 -13  -1   1    3.39    0.58
 -12   1   1    1.93    0.48
 -12  -1   1    1.97    0.48
 -11   1   1    4.05    0.53
 -11  -1   1    3.92    0.54
 -10   1   1    4.46    0.54
 -10  -1   1    4.49    0.56
  -9   1   1   31.22    1.02
  -9  -1   1   30.82    1.02
  -8   1   1   26.94    0.89
  -8  -1   1   25.19    0.87
  -7   1   1   15.14    0.64
  -7  -1   1   15.38    0.64
  -6   1   1    0.13    0.17
  -6  -1   1    0.03    0.16
  -5   1   1   96.28    1.34
  -5  -1   1   92.04    1.29
  -4   1   1   56.75    0.91
  -4  -1   1   57.58    0.90
  -3   1   1  580.31    3.97
  -3  -1   1  577.77    3.89
  -2   1   1  877.55    5.57
   1   1  -1 2021.52   13.83
  -1   1   1 2017.45   12.37
   0   1   1   70.53    0.80
  -1   1  -1 3342.65   25.90
   1   1   1 3365.74   20.06
  -2   1  -1 4857.35   29.58
   2   1   1 4858.69   27.62
  -3   1  -1   88.30    0.99
   3   1   1   86.49    1.08
  -4   1  -1    2.27    0.26
   4   1   1    2.19    0.24
  -5   1  -1    5.94    0.37
   5   1   1    5.13    0.39
  -6   1  -1   80.90    1.27
  -6  -1  -1   79.28    1.31
  -7   1  -1   44.89    1.02
  -7  -1  -1   46.99    1.09
  -8   1  -1   64.39    1.31
  -8  -1  -1   64.68    1.36
  -9   1  -1   29.21    0.98
  -9  -1  -1   28.99    1.00
 -10   1  -1    2.31    0.42
 -10  -1  -1    1.94    0.42
 -11   1  -1   34.91    1.20
 -11  -1  -1   35.80    1.23
 -12   1  -1   41.15    1.41
 -12  -1  -1   39.85    1.39
 -13   1  -1   19.55    1.07
 -13  -1  -1   17.34    1.06
 -14   1  -1    4.52    0.68
 -14  -1  -1    5.11    0.72
 -14   2   1    4.99    0.71
 -14  -2   1    5.02    0.72
 -13   2   1    4.21    0.63
 -13  -2   1    4.21    0.65
 -12   2   1   -0.10    0.34
 -12  -2   1    0.31    0.38
 -11   2   1    0.04    0.32
 -11  -2   1    0.07    0.31
 -10   2   1    0.91    0.35
 -10  -2   1    0.87    0.37
  -9   2   1    2.87    0.42
  -9  -2   1    3.44    0.45
  -8   2   1    8.42    0.58
  -8  -2   1    8.48    0.60
  -7   2   1    3.56    0.42
  -7  -2   1    3.93    0.45
  -6   2   1   74.16    1.29
  -6  -2   1   72.85    1.28
   5   2  -1   49.04    0.96
  -5   2   1   51.50    1.00
   4   2  -1  692.37    4.76
  -4   2   1  694.07    4.83
   3   2  -1    0.36    0.14
  -3   2   1    0.66    0.17
   2   2  -1  896.93    5.65
  -2   2   1  898.38    5.76
   1   2  -1    0.28    0.11
  -1   2   1    0.15    0.12
   0   2  -1  201.74    1.64
   0   2   1  205.31    1.84
  -1   2  -1  133.65    1.22
   1   2   1  134.08    1.43
  -2   2  -1   94.24    1.01
   2   2   1   89.05    1.16
  -3   2  -1   57.17    0.83
   3   2   1   55.01    0.94
  -4   2  -1 1420.98    8.61
   4   2   1 1417.37    8.79
  -5   2  -1    2.44    0.29
   5   2   1    2.07    0.28
  -6   2  -1    2.83    0.34
   6   2   1    2.59    0.33
  -7   2  -1   -0.07    0.19
   7   2   1    0.13    0.22
  -8   2  -1  105.57    1.73
  -8  -2  -1  104.53    1.82
  -9   2  -1    5.66    0.54
  -9  -2  -1    5.64    0.59
 -10   2  -1    4.59    0.55
 -10  -2  -1    5.06    0.61
 -11   2  -1    0.21    0.32
 -11  -2  -1   -0.17    0.34
 -12   2  -1   26.20    1.13
 -12  -2  -1   25.30    1.17
 -13   2  -1    2.13    0.53
 -13  -2  -1    2.00    0.55
 -14   2  -1    7.74    0.80
 -14  -2  -1    7.42    0.84
 -13   3   1    6.55    0.71
 -13  -3   1    6.03    0.74
 -12   3   1    6.90    0.72
 -12  -3   1    6.89    0.75
 -11   3   1    0.20    0.34
 -11  -3   1    0.69    0.38
 -10   3   1    0.02    0.29
 -10  -3   1    0.32    0.33
  -9   3   1    0.38    0.30
  -9  -3   1    0.88    0.35
  -8  -3   1   34.08    1.07
   7   3  -1   18.90    0.76
  -7   3   1   20.27    0.80
   6   3  -1    7.50    0.52
  -6   3   1    7.97    0.51
   5   3  -1    2.75    0.32
  -5   3   1    2.53    0.31
   4   3  -1  118.78    1.56
  -4   3   1  118.64    1.61
   3   3  -1    6.59    0.38
  -3   3   1    6.69    0.43
   2   3  -1    1.53    0.20
  -2   3   1    1.64    0.23
   1   3  -1   36.72    0.70
  -1   3   1   38.27    0.81
   0   3  -1    0.20    0.13
   0   3   1    0.54    0.17
  -1   3  -1   12.37    0.42
   1   3   1   12.80    0.51
  -2   3  -1  200.29    1.85
   2   3   1  199.21    2.09
  -3   3  -1  361.89    2.87
   3   3   1  356.40    3.11
  -4   3  -1  387.94    3.12
   4   3   1  384.73    3.40
  -5   3  -1  340.34    2.97
   5   3   1  336.42    3.20
  -6   3  -1    0.12    0.18
   6   3   1    0.04    0.22
  -7   3  -1   18.06    0.72
   7   3   1   17.87    0.79
  -8   3  -1   32.28    0.98
   8   3   1   31.08    1.04
  -9   3  -1  113.30    1.94
  -9  -3  -1  114.12    2.11
 -10   3  -1    0.07    0.26
 -10  -3  -1    0.21    0.33
 -11  -3  -1   60.11    1.70
 -12   3  -1   22.19    1.05
 -12  -3  -1   22.80    1.15
 -13   3  -1    3.58    0.58
 -13  -3  -1    3.33    0.63
 -13   4   1    2.64    0.56
 -13  -4   1    2.54    0.62
 -12   4   1    4.11    0.59
 -12  -4   1    3.87    0.64
 -11   4   1    0.19    0.34
 -11  -4   1    0.15    0.38
 -10   4   1   17.79    0.91
 -10  -4   1   18.30    0.97
  -9   4   1   13.50    0.80
  -9  -4   1   13.17    0.80
   8   4  -1    1.50    0.38
  -8   4   1    1.79    0.37
   7   4  -1    0.47    0.28
  -7   4   1    0.14    0.24
   6   4  -1   58.83    1.29
  -6   4   1   61.13    1.35
   5   4  -1    4.31    0.43
  -5   4   1    4.35    0.45
   4   4  -1    2.07    0.30
  -4   4   1    2.37    0.32
   3   4  -1   20.02    0.65
  -3   4   1   21.68    0.72
   2   4  -1    1.74    0.25
  -2   4   1    2.17    0.29
   1   4  -1  248.59    2.34
  -1   4   1  251.56    2.58
   0   4  -1  226.26    2.17
   0   4   1  224.67    2.38
  -1   4  -1    1.71    0.23
   1   4   1    1.70    0.27
  -2   4  -1   51.62    0.95
   2   4   1   51.34    1.10
  -3   4  -1    2.09    0.26
   3   4   1    1.62    0.28
  -4   4  -1   17.33    0.64
   4   4   1   16.78    0.70
  -5   4  -1  347.07    3.19
   5   4   1  352.43    3.52
  -6   4  -1  428.91    3.82
   6   4   1  424.95    4.06
  -7   4  -1   89.40    1.60
   7   4   1   88.14    1.74
  -8   4  -1  117.78    1.94
  -9   4  -1    0.10    0.28
   9   4   1    0.07    0.32
 -10   4  -1   10.19    0.71
 -10  -4  -1   11.10    0.83
 -11   4  -1    0.23    0.33
 -11  -4  -1    0.14    0.38
 -12   4  -1   28.34    1.19
 -12  -4  -1   26.50    1.29
 -13   4  -1   51.39    1.68
 -13  -4  -1   52.90    1.83
 -12   5   1    8.71    0.83
 -12  -5   1    8.13    0.88
 -11   5   1    0.94    0.43
 -11  -5   1    0.92    0.48
 -10   5   1    1.31    0.44
 -10  -5   1    1.66    0.48
  -9   5   1    3.75    0.52
  -9  -5   1    3.96    0.56
   8   5  -1    1.44    0.41
  -8   5   1    1.16    0.38
   7   5  -1   12.56    0.75
  -7   5   1   11.26    0.72
   6   5  -1   61.37    1.41
  -6   5   1   61.97    1.45
   5   5  -1    4.67    0.48
  -5   5   1    4.93    0.53
   4   5  -1    3.44    0.42
  -4   5   1    3.43    0.40
   3   5  -1    1.16    0.26
  -3   5   1    1.47    0.31
   2   5  -1    9.61    0.53
  -2   5   1   10.18    0.59
   1   5  -1   49.71    1.06
  -1   5   1   49.56    1.16
   0   5  -1   20.45    0.70
   0   5   1   20.84    0.79
  -1   5  -1  102.49    1.51
   1   5   1  102.30    1.68
  -2   5  -1  118.30    1.66
   2   5   1  121.88    1.89
  -3   5  -1    0.06    0.19
   3   5   1   -0.05    0.23
  -4   5  -1   12.51    0.60
   4   5   1   13.80    0.71
  -5   5  -1   37.85    1.03
   5   5   1   38.76    1.16
  -6   5  -1   12.71    0.69
   6   5   1   13.09    0.75
  -7   5  -1   11.33    0.68
   7   5   1   11.31    0.74
  -8   5  -1   17.40    0.84
   8   5   1   16.15    0.90
  -9   5  -1    0.82    0.38
   9   5   1    1.47    0.45
 -10   5  -1    1.74    0.44
  10   5   1    1.54    0.48
 -11  -5  -1    1.79    0.53
 -12  -5  -1   20.44    1.21
 -11   6   1   63.33    1.93
 -11  -6   1   64.63    1.94
 -10   6   1   63.35    1.83
 -10  -6   1   64.03    1.85
   9   6  -1   19.48    1.08
  -9   6   1   18.27    1.01
   8   6  -1    2.86    0.51
  -8   6   1    2.74    0.49
   7   6  -1    2.11    0.44
  -7   6   1    1.78    0.41
   6   6  -1   12.19    0.74
  -6   6   1   10.88    0.72
   5   6  -1    6.12    0.56
  -5   6   1    5.91    0.57
   4   6  -1   40.03    1.14
  -4   6   1   41.03    1.22
   3   6  -1    9.71    0.61
  -3   6   1   10.24    0.67
   2   6  -1    5.20    0.49
  -2   6   1    5.28    0.53
   1   6  -1    6.99    0.55
  -1   6   1    6.63    0.59
   0   6  -1   -0.11    0.21
   0   6   1    0.13    0.27
  -1   6  -1    7.14    0.53
   1   6   1    7.70    0.60
  -2   6  -1   17.32    0.75
   2   6   1   16.63    0.81
  -3   6  -1    0.00    0.24
   3   6   1    0.01    0.26
  -4   6  -1    6.38    0.54
   4   6   1    6.06    0.61
  -5   6  -1   38.16    1.09
   5   6   1   40.04    1.26
  -6   6  -1   11.91    0.69
   6   6   1   11.79    0.78
   7   6   1   50.75    1.48
   8   6   1   84.79    2.00
   9   6   1   78.52    1.99
  10   6   1  128.87    2.66
   9   7  -1   15.15    1.02
   8   7  -1    6.31    0.72
  -8   7   1    5.47    0.67
   7   7  -1    5.09    0.62
  -7   7   1    4.91    0.60
   6   7  -1    6.27    0.63
  -6   7   1    6.27    0.65
   5   7  -1   30.14    1.12
  -5   7   1   30.08    1.16
   4   7  -1   23.86    0.97
  -4   7   1   22.69    1.00
   3   7  -1    3.14    0.45
  -3   7   1    3.03    0.48
   2   7  -1    4.99    0.54
  -2   7   1    4.70    0.55
   1   7  -1    0.72    0.34
  -1   7   1    1.21    0.36
   0   7  -1    0.02    0.28
   0   7   1   -0.08    0.28
  -1   7  -1    3.47    0.44
   1   7   1    3.34    0.49
   2   7   1    3.54    0.49
   4   7   1   29.90    1.14
   5   7   1   18.79    0.96
   6   7   1    7.89    0.74
   7   7   1    1.29    0.43
   8   7   1    9.48    0.82
   9   7   1   66.99    1.94
   7   8  -1   13.31    0.96
   6   8  -1   20.13    1.03
  -3   8   1   30.61    1.23
  -2   8   1   16.22    0.96
  -1   8   1   29.01    1.18
   0   8   1   18.29    0.98
   1   8   1    0.39    0.38
   2   8   1    0.32    0.36
   3   8   1    0.16    0.36
   4   8   1    0.02    0.35
   5   8   1    1.78    0.49
   6   8   1   11.69    0.89
   7   8   1    8.12    0.81
   3   9   1    8.21    0.83
 -14   0   2   32.00    1.39
 -13   0   2    0.32    0.40
 -12   0   2   55.79    1.62
 -11   0   2   -0.15    0.32
 -10   0   2  108.36    2.01
  -9   0   2   -0.12    0.24
  -8   0   2    2.93    0.37
  -7   0   2    0.02    0.18
  -6   0   2    0.97    0.23
  -5   0   2    0.29    0.16
  -4   0   2  151.62    1.58
  -3   0   2    0.50    0.14
  -2   0   2   27.02    0.49
  -1   0   2    0.19    0.08
   0   0   2  311.42    2.43
   1   0   2    0.19    0.08
   2   0   2    3.20    0.25
   3   0   2    0.03    0.11
   4   0   2  304.77    2.49
  -5   0  -2    0.19    0.15
  -6   0  -2   40.38    0.90
  -7   0  -2    0.07    0.19
  -8   0  -2  121.05    1.83
  -9   0  -2    0.09    0.25
 -10   0  -2    1.76    0.39
 -11   0  -2    0.03    0.31
 -12   0  -2   34.97    1.26
 -13   0  -2   -0.12    0.39
 -14   0  -2   47.04    1.66
 -14   1   2    2.98    0.63
 -14  -1   2    2.66    0.59
 -13   1   2    7.65    0.79
 -13  -1   2    7.58    0.80
 -12   1   2    1.46    0.47
 -12  -1   2    1.54    0.45
 -11   1   2   21.22    1.00
 -11  -1   2   21.57    1.00
 -10   1   2   44.19    1.30
 -10  -1   2   43.19    1.27
  -9   1   2   23.20    0.91
  -9  -1   2   22.57    0.90
  -8   1   2   12.40    0.65
  -8  -1   2   12.39    0.65
  -7   1   2    0.08    0.20
  -7  -1   2    0.04    0.20
  -6   1   2   20.32    0.69
  -6  -1   2   19.74    0.66
  -5   1   2    2.22    0.26
  -5  -1   2    2.83    0.31
  -4   1   2    0.06    0.13
  -4  -1   2    0.05    0.12
  -3   1   2  450.08    3.31
  -3  -1   2  446.84    3.15
  -2   1   2    3.20    0.27
  -2  -1   2    2.84    0.21
  -1   1   2   29.65    0.56
  -1  -1   2   29.51    0.40
   0   1   2    0.81    0.14
   1   1   2   18.23    0.46
  -2   1  -2  155.01    1.28
   2   1   2  153.86    1.51
  -3   1  -2    9.98    0.32
   3   1   2   10.17    0.41
  -4   1  -2   30.39    0.62
   4   1   2   30.14    0.72
  -5   1  -2   22.85    0.61
   5   1   2   22.50    0.67
  -6   1  -2   69.33    1.16
   6   1   2   67.80    1.22
  -7   1  -2    3.14    0.34
  -7  -1  -2    2.49    0.35
  -8   1  -2    0.21    0.24
  -8  -1  -2    0.19    0.26
  -9   1  -2   16.39    0.76
  -9  -1  -2   17.48    0.82
 -10   1  -2   12.13    0.76
 -10  -1  -2   12.14    0.78
 -11   1  -2    5.53    0.63
 -11  -1  -2    5.25    0.64
 -12   1  -2    4.09    0.56
 -12  -1  -2    4.41    0.61
 -13   1  -2    3.01    0.56
 -13  -1  -2    2.56    0.56
 -14   1  -2   21.37    1.20
 -14  -1  -2   21.29    1.20
 -14   2   2   40.82    1.58
 -14  -2   2   40.44    1.59
 -13   2   2   93.27    2.22
 -13  -2   2   92.84    2.22
 -12   2   2   20.88    1.07
 -12  -2   2   19.84    1.05
 -11   2   2    2.47    0.48
 -11  -2   2    2.05    0.45
 -10   2   2   -0.02    0.28
 -10  -2   2   -0.17    0.27
  -9   2   2    0.20    0.27
  -9  -2   2    0.20    0.29
  -8   2   2   11.18    0.64
  -8  -2   2    9.69    0.62
  -7   2   2   33.29    0.96
  -7  -2   2   32.10    0.91
  -6   2   2   32.05    0.89
  -6  -2   2   31.44    0.83
  -5   2   2    9.35    0.49
  -5  -2   2    7.41    0.42
  -4   2   2    0.52    0.18
  -4  -2   2    0.49    0.16
   3   2  -2   19.37    0.50
  -3   2   2   20.08    0.59
   2   2  -2   12.32    0.36
  -2   2   2   12.23    0.46
   1   2  -2  195.18    1.56
  -1   2   2  195.92    1.91
   0   2   2   50.68    0.87
   1   2   2    4.49    0.33
  -2   2  -2  353.30    2.54
   2   2   2  351.43    2.90
  -3   2  -2   88.76    1.01
   3   2   2   87.97    1.27
  -4   2  -2  131.53    1.40
   4   2   2  130.06    1.67
  -5   2  -2    0.17    0.14
   5   2   2    0.12    0.19
  -6   2  -2   17.61    0.62
   6   2   2   17.74    0.69
  -7   2  -2   38.03    0.95
   7   2   2   38.62    1.06
  -8   2  -2   -0.02    0.21
   8   2   2   -0.25    0.21
  -9   2  -2    2.72    0.41
  -9  -2  -2    2.59    0.43
 -10   2  -2   78.07    1.65
 -10  -2  -2   75.72    1.74
 -11   2  -2   -0.11    0.31
 -11  -2  -2    0.33    0.35
 -12   2  -2    2.83    0.51
 -12  -2  -2    2.74    0.54
 -13   2  -2   -0.10    0.38
 -13  -2  -2   -0.04    0.42
 -13   3   2    6.07    0.74
 -13  -3   2    5.61    0.71
 -12   3   2   12.93    0.87
 -12  -3   2   12.79    0.90
 -11   3   2    0.31    0.33
 -11  -3   2    0.19    0.36
 -10   3   2   40.60    1.30
 -10  -3   2   41.93    1.30
  -9   3   2    7.40    0.62
  -9  -3   2    7.99    0.64
  -8   3   2   32.34    1.06
  -8  -3   2   30.37    1.01
  -7   3   2   54.40    1.28
  -7  -3   2   54.55    1.25
  -6   3   2    7.56    0.54
  -6  -3   2    6.93    0.50
   5   3  -2   17.10    0.62
  -5   3   2   18.68    0.72
   4   3  -2   51.69    0.96
  -4   3   2   49.90    1.06
   3   3  -2   37.79    0.75
  -3   3   2   39.83    0.92
   2   3  -2   43.27    0.74
  -2   3   2   42.74    0.91
   1   3  -2   16.90    0.44
  -1   3   2   17.65    0.61
   0   3  -2    5.90    0.28
   0   3   2    6.31    0.42
  -1   3  -2    0.61    0.13
   1   3   2    0.77    0.20
  -2   3  -2   31.59    0.59
   2   3   2   30.80    0.81
  -3   3  -2   42.57    0.75
   3   3   2   41.14    0.96
  -4   3  -2   51.88    0.88
   4   3   2   52.14    1.12
  -5   3  -2  115.98    1.48
   5   3   2  116.03    1.78
  -6   3  -2  132.49    1.73
   6   3   2  129.40    1.96
  -7   3  -2    0.21    0.21
   7   3   2    0.17    0.26
  -8   3  -2   30.17    0.93
   8   3   2   30.54    1.07
  -9   3  -2    0.90    0.31
   9   3   2    0.89    0.34
 -10   3  -2   24.25    0.97
 -10  -3  -2   24.63    1.09
 -11   3  -2    1.15    0.38
 -11  -3  -2    1.04    0.42
 -12   3  -2   12.56    0.84
 -12  -3  -2   12.79    0.93
 -13   3  -2    0.58    0.43
 -13  -3  -2    0.34    0.46
 -13   4   2    0.20    0.42
 -13  -4   2    0.23    0.47
 -12   4   2   12.71    0.92
 -12  -4   2   11.83    0.92
 -11   4   2    2.56    0.52
 -11  -4   2    2.74    0.54
 -10   4   2   -0.19    0.28
 -10  -4   2   -0.11    0.31
  -9   4   2    2.15    0.43
  -9  -4   2    1.85    0.42
  -8   4   2    0.78    0.32
  -8  -4   2    0.40    0.31
  -7   4   2   11.15    0.69
   6   4  -2   26.25    0.87
  -6   4   2   26.99    0.95
   5   4  -2   30.35    0.86
  -5   4   2   29.03    0.93
   4   4  -2   52.83    1.04
  -4   4   2   56.04    1.23
   3   4  -2    0.29    0.17
  -3   4   2    0.12    0.19
   2   4  -2   36.50    0.78
  -2   4   2   37.10    0.97
   1   4  -2   75.46    1.08
  -1   4   2   76.11    1.37
   0   4  -2   18.85    0.54
  -1   4  -2    0.19    0.15
   1   4   2    0.08    0.19
  -2   4  -2   15.08    0.51
   2   4   2   16.15    0.69
  -3   4  -2   61.39    1.01
   3   4   2   61.91    1.29
  -4   4  -2   22.58    0.67
   4   4   2   21.80    0.83
  -5   4  -2   57.93    1.11
   5   4   2   56.57    1.33
  -6   4  -2   53.10    1.13
   6   4   2   54.28    1.36
  -7   4  -2   12.28    0.64
   7   4   2   11.43    0.72
  -8   4  -2    5.67    0.53
   8   4   2    5.51    0.61
  -9   4  -2    2.48    0.40
   9   4   2    1.60    0.44
 -10   4  -2   -0.10    0.28
  10   4   2   -0.15    0.35
 -11   4  -2    9.42    0.73
 -11  -4  -2    8.94    0.82
 -12  -4  -2    6.69    0.80
 -12   5   2   26.71    1.30
 -12  -5   2   26.30    1.30
 -11   5   2   34.83    1.39
 -11  -5   2   34.91    1.40
 -10   5   2    9.95    0.81
 -10  -5   2   11.24    0.85
  -9   5   2    7.58    0.73
  -9  -5   2    7.68    0.69
  -8   5   2    1.27    0.37
  -8  -5   2    1.50    0.40
   7   5  -2    8.78    0.65
  -7   5   2    8.74    0.69
   6   5  -2   13.71    0.71
  -6   5   2   14.03    0.77
   5   5  -2    0.16    0.24
  -5   5   2    0.22    0.26
   4   5  -2    2.61    0.34
  -4   5   2    2.61    0.40
   3   5  -2   21.33    0.72
  -3   5   2   21.63    0.85
   2   5  -2   15.57    0.61
  -2   5   2   15.42    0.73
   1   5  -2   19.06    0.64
  -1   5   2   19.02    0.79
   0   5  -2   35.60    0.84
   0   5   2   33.44    1.00
  -1   5  -2    2.99    0.37
   1   5   2    3.41    0.41
  -2   5  -2  113.78    1.54
   2   5   2  116.44    1.93
  -3   5  -2    2.70    0.31
   3   5   2    2.52    0.39
  -4   5  -2    0.98    0.25
   4   5   2    1.07    0.33
  -5   5  -2    5.12    0.46
   5   5   2    5.08    0.54
  -6   5  -2   34.80    0.99
  -7   5  -2  136.59    2.03
   7   5   2  135.14    2.36
   8   5   2  160.68    2.68
   9   5   2   10.64    0.82
  10   5   2    9.07    0.81
 -11  -5  -2    5.97    0.75
 -11   6   2    5.72    0.72
 -11  -6   2    5.51    0.74
 -10   6   2    8.79    0.81
 -10  -6   2    8.48    0.84
  -9   6   2    1.37    0.44
  -9  -6   2    0.89    0.43
   8   6  -2    4.10    0.56
  -8   6   2    3.37    0.55
   7   6  -2    9.26    0.72
  -7   6   2    8.99    0.72
   6   6  -2   18.28    0.85
  -6   6   2   17.42    0.89
   5   6  -2   20.95    0.85
  -5   6   2   20.91    0.95
   4   6  -2    0.49    0.27
  -4   6   2    0.06    0.29
   3   6  -2    0.25    0.25
  -3   6   2    0.05    0.27
   2   6  -2    0.15    0.24
  -2   6   2    0.04    0.27
   1   6  -2    1.16    0.29
  -1   6   2    1.40    0.34
   0   6  -2   59.54    1.20
   0   6   2   58.62    1.45
  -1   6  -2    7.19    0.53
   1   6   2    7.08    0.62
   3   6   2   19.36    0.90
   4   6   2   27.24    1.06
   5   6   2    2.17    0.44
   6   6   2    2.44    0.46
   7   6   2    4.28    0.57
   8   6   2   15.44    0.95
   9   6   2    9.57    0.85
  10   6   2    9.48    0.89
  -9   7   2    1.60    0.54
   8   7  -2   41.23    1.40
  -8   7   2   40.29    1.48
   7   7  -2    0.62    0.41
  -7   7   2    0.28    0.36
   6   7  -2    9.59    0.74
  -6   7   2    8.49    0.73
   5   7  -2    1.43    0.39
  -5   7   2    1.02    0.40
   4   7  -2   10.15    0.68
  -4   7   2   10.67    0.77
  -3   7   2    0.23    0.31
  -2   7   2  131.34    2.36
  -1   7   2   45.48    1.39
   0   7   2   44.32    1.39
   1   7   2   21.69    1.02
   2   7   2   -0.05    0.31
   3   7   2    0.01    0.31
   4   7   2   21.82    1.05
   5   7   2    3.06    0.53
   6   7   2    3.06    0.55
   7   7   2    0.01    0.37
   8   7   2   16.68    1.04
   9   7   2   52.13    1.76
  -6   8   2    8.65    0.83
  -5   8   2    0.04    0.39
  -4   8   2   33.45    1.35
  -3   8   2   -0.25    0.37
  -2   8   2   16.01    0.99
  -1   8   2    0.21    0.39
   0   8   2    4.55    0.63
   1   8   2    0.37    0.38
   2   8   2   -0.29    0.36
   3   8   2   15.42    0.97
   4   8   2   -0.05    0.37
   5   8   2   84.51    2.14
   6   8   2    3.53    0.66
  -1   9   2    0.51    0.48
   0   9   2   15.86    1.05
   1   9   2    3.55    0.63
   2   9   2    3.02    0.60
 -14   0   3   -0.11    0.40
 -13   0   3    6.31    0.74
 -12   0   3    0.43    0.37
 -11   0   3   59.57    1.61
 -10   0   3    0.21    0.30
  -9   0   3  239.15    2.95
  -8   0   3    0.09    0.23
  -7   0   3   11.30    0.59
  -6   0   3   -0.02    0.17
  -5   0   3  210.61    2.15
  -4   0   3   -0.04    0.12
  -3   0   3   89.43    1.10
  -2   0   3   -0.06    0.09
  -1   0   3 1747.84   10.71
   0   0   3   -0.08    0.09
   1   0   3   42.03    0.61
   2   0   3   -0.04    0.10
   3   0   3  360.96    2.72
   4   0   3    0.85    0.18
   5   0   3   21.62    0.62
  -6   0  -3   -0.03    0.17
  -7   0  -3   10.71    0.58
  -8   0  -3   -0.02    0.23
  -9   0  -3   29.50    1.00
 -10   0  -3    0.20    0.32
 -11   0  -3    0.68    0.40
 -12   0  -3   -0.27    0.36
 -13   0  -3    7.82    0.84
 -14   1   3   31.03    1.42
 -14  -1   3   30.88    1.39
 -13   1   3   38.45    1.47
 -13  -1   3   38.20    1.48
 -12   1   3  194.80    3.11
 -12  -1   3  193.35    3.06
 -11   1   3  306.21    3.79
 -11  -1   3  295.54    3.66
 -10   1   3    8.60    0.68
 -10  -1   3    8.39    0.68
  -9   1   3  156.38    2.34
  -9  -1   3  153.57    2.27
  -8   1   3  101.15    1.75
  -8  -1   3  101.46    1.73
  -7   1   3   21.93    0.79
  -7  -1   3   21.43    0.75
  -6   1   3   72.44    1.30
  -6  -1   3   70.64    1.24
  -5   1   3  173.56    1.97
  -5  -1   3  172.27    1.86
  -4   1   3    5.40    0.37
  -4  -1   3    5.14    0.33
  -3   1   3  253.07    2.27
  -3  -1   3  247.87    2.04
  -2   1   3  617.84    4.25
  -2  -1   3  627.31    4.14
  -1   1   3  254.64    2.15
  -1  -1   3  249.87    1.95
   0   1   3    9.51    0.38
   1   1   3  286.90    2.35
  -2   1  -3    3.14    0.19
   2   1   3    3.10    0.30
  -3   1  -3   84.83    0.95
   3   1   3   83.52    1.16
  -4   1  -3   37.10    0.69
   4   1   3   37.80    0.84
  -5   1  -3    9.41    0.43
   5   1   3    9.81    0.50
  -6   1  -3    0.84    0.22
   6   1   3    1.19    0.27
  -7   1  -3   13.21    0.61
   7   1   3   12.04    0.61
  -8   1  -3   74.64    1.40
  -8  -1  -3   75.95    1.52
  -9   1  -3    2.26    0.40
  -9  -1  -3    2.35    0.41
 -10   1  -3   19.49    0.91
 -10  -1  -3   19.95    0.94
 -11   1  -3    3.08    0.52
 -11  -1  -3    2.93    0.51
 -12   1  -3    2.11    0.50
 -12  -1  -3    2.07    0.49
 -13   1  -3    0.86    0.45
 -13  -1  -3    0.49    0.47
 -14   2   3   62.80    1.96
 -14  -2   3   61.56    1.94
 -13   2   3    0.57    0.43
 -13  -2   3   -0.07    0.40
 -12   2   3    0.17    0.38
 -12  -2   3    0.50    0.38
 -11   2   3    5.25    0.61
 -11  -2   3    4.92    0.61
 -10   2   3    3.08    0.48
 -10  -2   3    2.70    0.46
  -9   2   3    0.33    0.29
  -9  -2   3    0.39    0.29
  -8   2   3  471.39    4.43
  -8  -2   3  469.39    4.26
  -7   2   3   19.63    0.79
  -7  -2   3   20.07    0.74
  -6   2   3  416.46    3.74
  -6  -2   3  412.61    3.52
  -5   2   3   40.73    0.97
  -5  -2   3   40.91    0.86
  -4   2   3    7.93    0.45
  -4  -2   3    7.57    0.38
  -3   2   3   64.94    1.11
  -3  -2   3   65.01    0.89
  -2   2   3   67.99    1.11
  -2  -2   3   66.00    0.78
  -1   2   3  285.35    2.55
   0   2   3   86.20    1.25
   1   2   3   61.75    1.05
   2   2   3  178.77    1.97
  -3   2  -3    1.70    0.18
   3   2   3    1.90    0.27
  -4   2  -3    2.00    0.23
   4   2   3    1.62    0.26
  -5   2  -3    1.00    0.20
   5   2   3    1.04    0.27
  -6   2  -3    0.04    0.18
   6   2   3   -0.04    0.21
  -7   2  -3    0.00    0.20
   7   2   3    0.02    0.25
  -8   2  -3    0.01    0.23
   8   2   3    0.13    0.28
  -9   2  -3    0.01    0.25
  -9  -2  -3   -0.31    0.27
 -10   2  -3    1.98    0.41
 -10  -2  -3    1.89    0.44
 -11   2  -3    1.14    0.41
 -11  -2  -3    1.06    0.44
 -12   2  -3   -0.11    0.34
 -12  -2  -3   -0.21    0.38
 -13   2  -3    5.62    0.69
 -13  -2  -3    6.29    0.76
 -13   3   3   16.81    1.08
 -13  -3   3   16.86    1.07
 -12   3   3   22.84    1.15
 -12  -3   3   23.07    1.14
 -11   3   3   35.03    1.32
 -11  -3   3   33.99    1.25
 -10   3   3    3.87    0.51
 -10  -3   3    3.47    0.50
  -9   3   3    0.43    0.31
  -9  -3   3    0.30    0.31
  -8   3   3    4.84    0.55
  -8  -3   3    4.70    0.53
  -7   3   3   16.95    0.80
  -7  -3   3   15.82    0.70
  -6   3   3    0.58    0.25
  -6  -3   3    0.55    0.25
  -5   3   3   32.09    0.95
  -5  -3   3   31.81    0.82
  -4   3   3    0.18    0.19
  -4  -3   3    0.36    0.17
   3   3  -3   95.49    1.18
  -3   3   3   97.10    1.53
   2   3  -3  149.96    1.43
  -2   3   3  152.28    1.93
   1   3  -3  111.54    1.09
  -1   3   3  112.37    1.61
   0   3   3    2.60    0.30
   1   3   3    3.25    0.36
   2   3   3   85.37    1.41
  -3   3  -3  109.03    1.17
   3   3   3  108.87    1.65
  -4   3  -3  118.81    1.34
   4   3   3  116.63    1.76
  -5   3  -3  142.17    1.62
   5   3   3  140.95    2.05
  -6   3  -3  118.92    1.58
   6   3   3  118.39    1.92
  -7   3  -3   27.54    0.82
   7   3   3   27.75    1.00
  -8   3  -3   -0.19    0.22
   8   3   3   -0.23    0.27
  -9   3  -3   17.74    0.78
   9   3   3   17.33    0.89
 -10   3  -3    8.04    0.62
 -10  -3  -3    8.36    0.73
 -11   3  -3    0.96    0.37
 -11  -3  -3    0.94    0.45
 -12  -3  -3   11.86    0.95
 -13  -3  -3    0.56    0.50
 -13   4   3    0.96    0.47
 -13  -4   3    0.59    0.49
 -12   4   3   11.34    0.87
 -12  -4   3   13.28    0.95
 -11   4   3    0.18    0.34
 -11  -4   3    0.47    0.41
 -10   4   3   53.23    1.58
 -10  -4   3   55.06    1.53
  -9  -4   3  136.20    2.29
  -8   4   3    0.16    0.28
  -8  -4   3   -0.03    0.28
  -7   4   3    1.54    0.38
  -7  -4   3    1.77    0.37
  -6   4   3   25.67    0.97
  -6  -4   3   24.29    0.84
   5   4  -3   63.00    1.19
  -5   4   3   66.06    1.45
   4   4  -3   77.05    1.23
  -4   4   3   79.03    1.56
   3   4  -3   39.88    0.82
  -3   4   3   38.90    1.07
   2   4  -3   45.20    0.81
  -2   4   3   45.12    1.14
   1   4  -3   45.53    0.76
  -1   4   3   44.82    1.10
   0   4  -3   18.07    0.47
   0   4   3   18.31    0.74
   1   4   3    0.20    0.22
  -2   4  -3  165.87    1.59
   2   4   3  165.25    2.22
  -3   4  -3   71.88    1.02
   3   4   3   72.85    1.47
  -4   4  -3  114.30    1.41
   4   4   3  113.31    1.89
  -5   4  -3   25.76    0.73
   5   4   3   25.81    0.98
  -6   4  -3    4.38    0.43
   6   4   3    4.08    0.48
  -7   4  -3   15.36    0.67
   7   4   3   15.36    0.83
  -8   4  -3    0.41    0.26
   8   4   3    0.21    0.33
   9   4   3    5.44    0.64
  10   4   3   43.94    1.48
 -11  -4  -3    8.09    0.82
 -12  -4  -3    8.32    0.89
 -12   5   3   29.92    1.42
 -12  -5   3   32.05    1.40
 -11   5   3   23.93    1.20
 -11  -5   3   24.17    1.19
 -10   5   3    4.12    0.60
 -10  -5   3    3.53    0.57
  -9   5   3   22.00    1.08
  -9  -5   3   22.76    1.05
  -8   5   3    0.68    0.35
  -8  -5   3    1.16    0.38
  -7   5   3   18.15    0.92
  -7  -5   3   19.04    0.87
   6   5  -3    0.15    0.26
  -6   5   3    0.29    0.30
   5   5  -3   73.56    1.39
  -5   5   3   72.48    1.65
   4   5  -3  170.03    2.08
  -4   5   3  172.38    2.52
   3   5  -3    2.52    0.31
  -3   5   3    2.16    0.40
   2   5  -3    9.65    0.48
  -2   5   3   10.86    0.68
   1   5  -3    2.03    0.26
  -1   5   3    2.02    0.37
   0   5  -3    0.24    0.18
   0   5   3   -0.10    0.24
  -1   5  -3   29.23    0.69
   1   5   3   30.83    1.03
   2   5   3   98.43    1.85
   3   5   3   47.80    1.32
   4   5   3   33.40    1.12
   5   5   3    3.82    0.48
   6   5   3    1.45    0.39
   7   5   3    2.03    0.45
   8   5   3   -0.11    0.32
   9   5   3    2.77    0.53
  10   5   3   25.07    1.21
  11   5   3    2.37    0.58
 -11   6   3    2.77    0.59
 -11  -6   3    3.03    0.63
 -10   6   3    2.10    0.53
 -10  -6   3    2.18    0.55
  -9   6   3    1.97    0.50
  -9  -6   3    2.94    0.55
  -8   6   3    0.13    0.35
  -8  -6   3   -0.12    0.33
  -7   6   3   17.06    0.96
   6   6  -3    5.31    0.57
  -6   6   3    4.76    0.58
   5   6  -3    4.17    0.46
  -5   6   3    4.20    0.53
   4   6  -3    5.18    0.47
  -4   6   3    5.14    0.58
   3   6  -3   13.35    0.62
  -3   6   3   14.16    0.81
  -2   6   3    7.35    0.63
   0   6   3  271.40    3.38
   1   6   3  255.13    3.25
   3   6   3   20.11    0.95
   4   6   3    0.56    0.34
   5   6   3    1.39    0.40
   6   6   3   29.83    1.19
   7   6   3   23.72    1.11
   8   6   3   -0.10    0.37
   9   6   3   32.41    1.40
  10   6   3   12.52    0.99
  -9   7   3    9.48    0.88
  -8   7   3   22.36    1.20
  -7   7   3    0.44    0.42
  -6   7   3   37.10    1.40
  -5   7   3   21.36    1.07
  -4   7   3    4.19    0.58
  -3   7   3    3.20    0.52
  -2   7   3   14.77    0.88
  -1   7   3   21.57    1.04
   0   7   3    1.58    0.44
   1   7   3    6.76    0.71
   2   7   3   -0.12    0.34
   3   7   3   -0.07    0.35
   4   7   3   25.55    1.16
   5   7   3   15.74    0.99
   6   7   3   23.43    1.14
   7   7   3   29.00    1.29
   8   7   3    1.02    0.50
  -7   8   3    6.94    0.81
  -6   8   3    0.23    0.45
  -5   8   3    5.90    0.71
  -4   8   3   24.81    1.23
  -3   8   3   61.61    1.81
  -2   8   3  141.08    2.72
  -1   8   3   94.08    2.21
   0   8   3    2.47    0.56
   1   8   3    0.66    0.44
   2   8   3    2.00    0.52
   3   8   3    0.28    0.41
   4   8   3    1.38    0.50
   5   8   3    1.76    0.53
   6   8   3    6.45    0.77
  -1   9   3   -0.04    0.44
   0   9   3    0.17    0.46
   1   9   3    3.34    0.63
 -14   0   4   12.01    0.99
 -13   0   4    0.18    0.41
 -12   0   4  241.59    3.56
 -11   0   4   -0.06    0.35
 -10   0   4  820.53    6.78
  -9   0   4    0.01    0.27
  -8   0   4   33.54    1.01
  -7   0   4   -0.04    0.20
  -6   0   4   67.38    1.26
  -5   0   4   -0.03    0.16
  -4   0   4 1094.66    6.97
  -3   0   4   -0.05    0.12
  -2   0   4  307.43    2.43
  -1   0   4    0.58    0.13
   0   0   4  209.05    1.78
   1   0   4    0.03    0.10
   2   0   4  257.37    2.11
   3   0   4    0.01    0.13
   4   0   4   29.54    0.69
   5   0   4    0.15    0.17
  -7   0  -4   -0.13    0.21
  -8   0  -4  281.35    3.04
  -9   0  -4    0.12    0.29
 -10   0  -4  316.87    3.64
 -11   0  -4    0.20    0.38
 -12   0  -4   39.02    1.39
 -13   0  -4    0.00    0.42
 -14   1   4    2.64    0.61
 -14  -1   4    2.37    0.57
 -13   1   4   10.85    0.91
 -13  -1   4   10.47    0.87
 -12   1   4    2.97    0.56
 -12  -1   4    2.74    0.53
 -11   1   4    2.40    0.50
 -11  -1   4    2.20    0.47
 -10   1   4   25.79    1.07
 -10  -1   4   27.14    1.07
  -9   1   4   64.89    1.53
  -9  -1   4   65.10    1.49
  -8   1   4   61.76    1.41
  -8  -1   4   60.67    1.34
  -7   1   4  249.04    2.80
  -7  -1   4  245.20    2.67
  -6   1   4  133.87    1.86
  -6  -1   4  135.74    1.77
  -5   1   4   19.70    0.67
  -5  -1   4   19.04    0.62
  -4   1   4  387.44    3.26
  -4  -1   4  386.24    3.04
  -3   1   4   79.31    1.18
  -3  -1   4   79.60    1.01
  -2   1   4    0.35    0.15
  -2  -1   4    0.55    0.12
  -1   1   4   63.71    1.00
  -1  -1   4   63.17    0.72
   0   1   4   36.54    0.74
   1   1   4  709.48    4.83
   2   1   4  422.79    3.30
   2  -1   4  424.39    2.95
  -3   1  -4    0.58    0.13
   3   1   4    0.46    0.18
  -4   1  -4  366.68    2.79
   4   1   4  366.00    3.12
  -5   1  -4  139.70    1.57
   5   1   4  143.54    1.83
  -6   1  -4    0.93    0.23
   6   1   4    1.19    0.28
  -7   1  -4    6.56    0.50
   7   1   4    5.98    0.52
  -8   1  -4    5.87    0.53
  -8  -1  -4    6.59    0.57
  -9   1  -4   -0.17    0.27
  -9  -1  -4    0.07    0.30
 -10   1  -4   57.64    1.45
 -10  -1  -4   56.80    1.51
 -11   1  -4   37.40    1.28
 -11  -1  -4   36.13    1.32
 -12   1  -4   18.11    1.00
 -12  -1  -4   17.98    1.06
 -13   1  -4   17.87    1.04
 -13  -1  -4   16.70    1.07
 -14   2   4   25.93    1.33
 -14  -2   4   23.13    1.24
 -13   2   4   60.87    1.86
 -13  -2   4   58.79    1.84
 -12   2   4   25.99    1.22
 -12  -2   4   28.68    1.23
 -11   2   4    5.81    0.69
 -11  -2   4    5.95    0.64
 -10   2   4    2.09    0.45
 -10  -2   4    2.28    0.43
  -9   2   4  198.17    2.81
  -9  -2   4  199.76    2.69
  -8   2   4   84.56    1.70
  -8  -2   4   81.86    1.57
  -7   2   4  107.63    1.86
  -7  -2   4  105.55    1.67
  -6   2   4  151.61    2.11
  -6  -2   4  148.58    1.87
  -5   2   4   24.23    0.79
  -5  -2   4   22.77    0.66
  -4   2   4    9.21    0.51
  -4  -2   4    9.26    0.41
  -3   2   4   50.92    1.03
  -3  -2   4   50.60    0.78
  -2   2   4  371.43    3.22
  -2  -2   4  369.32    2.63
  -1   2   4   19.49    0.67
   0   2   4 1175.71    7.59
   1   2   4    4.86    0.39
   2   2   4   44.53    0.96
   3   2   4   28.68    0.80
  -4   2  -4   11.16    0.40
   4   2   4   10.74    0.56
  -5   2  -4  277.08    2.39
   5   2   4  265.38    2.83
  -6   2  -4  193.66    2.05
   6   2   4  193.28    2.44
  -7   2  -4  476.36    3.93
   7   2   4  471.00    4.39
  -8   2  -4   66.90    1.35
   8   2   4   65.58    1.53
  -9   2  -4   25.76    0.96
   9   2   4   24.44    1.01
 -10   2  -4    1.29    0.37
 -10  -2  -4    1.32    0.41
 -11   2  -4    0.14    0.34
 -11  -2  -4    0.22    0.38
 -12   2  -4   11.27    0.84
 -12  -2  -4   12.16    0.93
 -13  -2  -4   -0.24    0.45
 -13   3   4   41.63    1.60
 -13  -3   4   43.44    1.58
 -12   3   4   19.86    1.10
 -12  -3   4   19.21    1.06
 -11   3   4    5.14    0.64
 -11  -3   4    4.41    0.58
 -10   3   4    1.14    0.40
 -10  -3   4    0.75    0.38
  -9   3   4   13.71    0.82
  -9  -3   4   13.98    0.79
  -8   3   4   15.86    0.84
  -8  -3   4   15.19    0.76
  -7   3   4  356.11    3.79
  -7  -3   4  360.23    3.47
  -6   3   4  378.75    3.82
  -6  -3   4  373.28    3.35
  -5   3   4  232.31    2.74
  -5  -3   4  233.14    2.34
  -4   3   4  239.27    2.71
  -4  -3   4  235.54    2.19
  -3   3   4   18.83    0.74
  -3  -3   4   18.91    0.51
  -2   3   4    0.15    0.20
  -2  -3   4    0.41    0.13
  -1   3   4   58.82    1.19
   0   3   4  169.32    2.13
   1   3   4   -0.02    0.19
   2   3   4    2.45    0.32
   3   3   4   46.57    1.13
  -4   3  -4  227.45    1.95
   4   3   4  225.03    2.66
  -5   3  -4  174.07    1.81
   5   3   4  160.25    2.26
  -6   3  -4    5.44    0.40
   6   3   4    5.15    0.56
  -7   3  -4   21.75    0.73
  -8   3  -4    1.00    0.29
   8   3   4    1.16    0.38
   9   3   4   -0.09    0.31
  10   3   4   25.04    1.12
 -11  -3  -4   22.64    1.14
 -12  -3  -4    9.03    0.88
 -13   4   4    2.01    0.57
 -13  -4   4    1.79    0.57
 -12   4   4   24.66    1.24
 -12  -4   4   25.12    1.23
 -11   4   4    4.22    0.62
 -11  -4   4    4.13    0.60
 -10   4   4   52.71    1.63
 -10  -4   4   54.00    1.53
  -9   4   4    5.45    0.63
  -9  -4   4    6.33    0.66
  -8   4   4    2.92    0.48
  -8  -4   4    2.12    0.41
  -7   4   4    2.60    0.43
  -7  -4   4    2.45    0.38
  -6   4   4   43.89    1.27
  -6  -4   4   44.34    1.08
  -5   4   4   21.88    0.91
  -5  -4   4   21.22    0.72
  -4   4   4   32.74    1.07
  -4  -4   4   32.60    0.80
  -3   4   4  335.30    3.52
   2   4  -4   99.17    1.15
  -2   4   4   97.00    1.74
  -1   4   4   16.64    0.76
   0   4   4   30.53    0.96
   1   4   4   34.66    1.03
   2   4   4  102.39    1.79
   3   4   4   23.17    0.89
   4   4   4  380.43    3.91
   5   4   4   32.45    1.08
   6   4   4   50.09    1.37
   7   4   4   -0.15    0.29
   8   4   4   24.75    1.08
   9   4   4    0.37    0.37
  10   4   4    3.45    0.58
 -12  -4  -4    8.82    0.91
 -12   5   4    1.93    0.56
 -12  -5   4    2.19    0.57
 -11   5   4    6.50    0.79
 -11  -5   4    6.21    0.71
 -10   5   4    0.12    0.35
 -10  -5   4    0.06    0.39
  -9   5   4   10.93    0.83
  -9  -5   4   11.46    0.82
  -8   5   4    0.21    0.33
  -8  -5   4    0.45    0.32
  -7   5   4   24.14    1.07
  -7  -5   4   24.47    0.93
  -6   5   4    1.62    0.42
  -6  -5   4    1.57    0.35
   4   5  -4   65.79    1.19
   3   5  -4  210.27    2.14
  -3   5   4  211.97    2.91
  -2   5   4  127.12    2.19
  -1   5   4   24.63    0.98
   0   5   4   33.82    1.12
   1   5   4  310.70    3.56
   2   5   4  212.53    2.86
   3   5   4  378.28    4.05
   4   5   4   -0.08    0.28
   5   5   4    4.75    0.59
   6   5   4   10.58    0.77
   7   5   4    7.74    0.73
   8   5   4   22.54    1.08
   9   5   4   23.21    1.16
  10   5   4    9.38    0.87
  11   5   4   -0.22    0.42
 -10   6   4    0.18    0.41
  -9   6   4   47.81    1.69
  -8   6   4    2.58    0.54
  -7   6   4   83.67    2.06
  -6   6   4   12.23    0.84
  -5   6   4    1.35    0.42
  -4   6   4   26.00    1.12
  -3   6   4   18.88    0.95
   1   6   4    5.14    0.58
   2   6   4   15.00    0.89
   3   6   4    9.68    0.77
   4   6   4   -0.19    0.30
   5   6   4    6.25    0.69
   6   6   4   17.37    0.98
   7   6   4   43.29    1.52
   8   6   4    3.29    0.62
   9   6   4    6.28    0.78
  -9   7   4    6.27    0.79
  -8   7   4   11.70    0.96
  -7   7   4    6.42    0.76
  -6   7   4   30.55    1.33
  -5   7   4    2.57    0.54
  -4   7   4    9.38    0.79
  -3   7   4   16.12    0.96
  -2   7   4   19.44    1.02
  -1   7   4  206.41    3.21
   0   7   4   73.35    1.89
   1   7   4   43.05    1.49
   2   7   4    1.72    0.48
   3   7   4    6.13    0.71
   4   7   4   13.12    0.92
   5   7   4    7.48    0.76
   6   7   4    0.44    0.42
   7   7   4   15.53    1.04
   8   7   4    6.65    0.81
  -6   8   4    9.53    0.91
  -5   8   4    2.13    0.54
  -4   8   4   20.78    1.16
  -3   8   4   64.96    1.92
  -2   8   4   11.51    0.95
  -1   8   4    4.95    0.68
   0   8   4    6.27    0.74
   1   8   4   63.22    1.87
   2   8   4   16.31    1.06
   3   8   4    0.92    0.47
   4   8   4   38.64    1.53
   5   8   4   11.52    0.97
 -14   0   5   -0.23    0.42
 -13   0   5    1.16    0.49
 -12   0   5    0.07    0.38
 -11   0   5    3.73    0.57
 -10   0   5   -0.17    0.31
  -9   0   5   -0.25    0.26
  -8   0   5   -0.07    0.23
  -7   0   5    0.98    0.28
  -6   0   5    0.09    0.18
  -5   0   5  127.09    1.68
  -4   0   5    1.20    0.22
  -3   0   5  182.79    1.88
  -2   0   5    0.75    0.17
  -1   0   5  202.81    1.86
   0   0   5   -0.07    0.12
   1   0   5  433.73    3.17
   2   0   5    0.13    0.14
   3   0   5  969.62    6.21
   4   0   5    0.02    0.16
   5   0   5   87.91    1.33
   6   0   5    0.15    0.20
  -7   0  -5   37.85    1.01
  -8   0  -5   -0.04    0.26
  -9   0  -5   41.56    1.21
 -10   0  -5   -0.33    0.32
 -11   0  -5   74.80    1.78
 -12   0  -5   -0.18    0.39
 -13   0  -5    2.63    0.60
 -14   1   5   -0.03    0.42
 -14  -1   5   -0.07    0.42
 -13   1   5   30.34    1.36
 -13  -1   5   28.68    1.30
 -12   1   5    1.43    0.48
 -12  -1   5    1.43    0.46
 -11   1   5   51.88    1.56
 -11  -1   5   50.58    1.49
 -10   1   5   20.67    0.99
 -10  -1   5   19.93    0.91
  -9   1   5   62.05    1.52
  -9  -1   5   61.18    1.47
  -8   1   5  137.26    2.15
  -8  -1   5  136.85    2.09
  -7   1   5    3.80    0.46
  -7  -1   5    3.90    0.43
  -6   1   5    2.45    0.33
  -6  -1   5    2.21    0.30
  -5   1   5    0.09    0.17
  -5  -1   5    0.33    0.19
  -4   1   5  103.89    1.51
  -4  -1   5  106.39    1.35
  -3   1   5  169.86    1.92
  -3  -1   5  171.07    1.68
  -2   1   5  284.00    2.59
  -2  -1   5  286.35    2.25
  -1   1   5  207.99    2.09
  -1  -1   5  209.45    1.73
   0   1   5   58.34    1.01
   1   1   5   65.80    1.08
   2   1   5  193.88    2.03
   2  -1   5  195.87    1.60
   3   1   5   41.05    0.89
   3  -1   5   41.51    0.68
  -4   1  -5    9.22    0.40
   4   1   5    9.27    0.50
  -5   1  -5    0.62    0.20
   5   1   5    0.61    0.25
  -6   1  -5   98.65    1.42
   6   1   5  101.10    1.65
  -7   1  -5  152.57    1.96
   7   1   5  144.19    2.10
  -8   1  -5  214.89    2.53
   8   1   5  215.07    2.82
  -9   1  -5  388.56    3.84
  -9  -1  -5  387.27    4.08
 -10   1  -5   34.45    1.18
 -10  -1  -5   32.30    1.19
 -11   1  -5   80.02    1.83
 -11  -1  -5   79.01    1.91
 -12   1  -5   54.69    1.62
 -12  -1  -5   53.98    1.70
 -13  -1  -5    8.51    0.93
 -14   2   5   11.49    0.99
 -14  -2   5   11.53    0.95
 -13   2   5    1.80    0.53
 -13  -2   5    2.45    0.55
 -12   2   5    8.07    0.79
 -12  -2   5    7.80    0.74
 -11   2   5    0.91    0.41
 -11  -2   5    0.99    0.39
 -10   2   5    1.33    0.41
 -10  -2   5    2.03    0.44
  -9   2   5   25.05    1.04
  -9  -2   5   26.55    1.00
  -8   2   5   51.15    1.38
  -8  -2   5   52.28    1.27
  -7   2   5   33.28    1.06
  -7  -2   5   35.09    0.98
  -6   2   5  162.14    2.24
  -6  -2   5  162.61    1.98
  -5   2   5   -0.04    0.19
  -5  -2   5    1.14    0.24
  -4   2   5   44.86    1.05
  -4  -2   5   45.38    0.84
  -3   2   5    4.78    0.42
  -3  -2   5    4.90    0.30
  -2   2   5  275.28    2.76
  -1   2   5    9.33    0.51
   0   2   5    0.10    0.18
   1   2   5   49.85    1.06
   2   2   5    8.83    0.51
   3   2   5    0.00    0.19
  -4   2  -5  102.40    1.14
   4   2   5   99.80    1.61
  -5   2  -5    7.52    0.40
   5   2   5    7.52    0.56
  -6   2  -5  385.27    3.19
   6   2   5  386.40    3.79
  -7   2  -5    3.73    0.44
   7   2   5    3.82    0.47
  -8   2  -5    1.14    0.31
   8   2   5    1.22    0.36
  -9   2  -5    1.66    0.38
   9   2   5    1.61    0.42
 -10  -2  -5    0.38    0.39
 -11  -2  -5   10.23    0.86
 -12  -2  -5  133.31    2.65
 -13   3   5   14.53    1.04
 -13  -3   5   13.74    1.00
 -12   3   5    0.10    0.38
 -12  -3   5    1.27    0.49
 -11   3   5   -0.19    0.34
 -11  -3   5    0.37    0.38
 -10   3   5    1.27    0.42
 -10  -3   5    1.22    0.40
  -9   3   5   12.01    0.80
  -9  -3   5   12.21    0.75
  -8   3   5    9.93    0.72
  -8  -3   5   10.56    0.67
  -7   3   5   62.22    1.52
  -7  -3   5   63.61    1.31
  -6   3   5   34.87    1.11
  -6  -3   5   35.26    0.94
  -5   3   5   74.37    1.54
  -5  -3   5   74.52    1.22
  -4   3   5    1.31    0.31
  -4  -3   5    1.19    0.23
  -3   3   5   32.93    0.97
  -3  -3   5   33.81    0.65
  -2   3   5   79.06    1.48
  -1   3   5  320.34    3.25
   0   3   5   45.58    1.12
   1   3   5  121.26    1.86
   2   3   5   32.95    0.97
   3   3   5   10.03    0.61
   4   3   5   42.60    1.16
   5   3   5  118.04    1.99
   7   3   5    0.98    0.37
   8   3   5   26.89    1.08
   9   3   5   72.71    1.79
  10   3   5    2.88    0.52
 -11  -3  -5    0.71    0.45
 -12  -3  -5    3.04    0.64
 -12   4   5    5.34    0.71
 -12  -4   5    6.36    0.76
 -11   4   5   14.25    0.96
 -11  -4   5   14.89    0.96
 -10   4   5   22.73    1.14
 -10  -4   5   23.72    1.07
  -9   4   5    4.04    0.56
  -9  -4   5    4.08    0.52
  -8   4   5   11.93    0.81
  -8  -4   5    9.09    0.67
  -7   4   5    5.78    0.62
  -7  -4   5    4.63    0.53
  -6   4   5   42.19    1.30
  -6  -4   5   43.16    1.08
  -5   4   5  301.94    3.56
  -5  -4   5  299.76    2.82
  -4   4   5  318.83    3.58
  -3   4   5   91.50    1.77
  -2   4   5   51.90    1.35
  -1   4   5   25.94    0.95
   0   4   5   15.34    0.77
   1   4   5    3.30    0.42
   2   4   5  142.79    2.23
   3   4   5   47.62    1.29
   4   4   5  168.47    2.54
   5   4   5   39.80    1.27
   6   4   5    2.70    0.46
   7   4   5   48.86    1.46
   8   4   5    2.89    0.51
   9   4   5    0.42    0.40
  10   4   5   24.44    1.22
  11   4   5   20.96    1.20
 -11   5   5    9.68    0.87
 -10   5   5   14.85    0.99
  -9   5   5   36.62    1.42
  -8   5   5    9.11    0.79
  -7   5   5    1.40    0.43
  -6   5   5    3.18    0.51
  -4   5   5    1.98    0.43
  -3   5   5    9.83    0.74
  -2   5   5   24.60    1.02
  -1   5   5   22.67    0.99
   0   5   5    1.56    0.39
   1   5   5   25.13    1.03
   2   5   5   32.63    1.17
   4   5   5    0.14    0.33
   5   5   5   20.54    1.00
   6   5   5   15.23    0.92
   7   5   5    2.20    0.50
   8   5   5    7.52    0.76
   9   5   5   22.82    1.18
  10   5   5   20.57    1.17
 -10   6   5    8.85    0.88
  -9   6   5    0.23    0.40
  -8   6   5    6.08    0.72
  -7   6   5    0.11    0.37
  -6   6   5    4.87    0.63
  -5   6   5    1.59    0.44
  -4   6   5   19.73    1.02
  -3   6   5   93.67    2.11
   1   6   5   30.07    1.22
   2   6   5   31.74    1.25
   3   6   5    5.53    0.66
   4   6   5    0.35    0.37
   5   6   5   81.44    2.01
   6   6   5    9.74    0.83
   7   6   5    1.25    0.47
   8   6   5   24.90    1.23
   9   6   5    2.32    0.58
  -8   7   5    8.13    0.87
  -7   7   5   28.08    1.35
  -6   7   5   24.02    1.25
  -5   7   5   19.45    1.15
  -4   7   5   -0.03    0.36
  -3   7   5    1.14    0.45
  -2   7   5    0.35    0.37
  -1   7   5   78.77    2.02
   0   7   5   63.15    1.83
   1   7   5   74.24    1.98
   2   7   5   48.52    1.63
   3   7   5    6.39    0.74
   4   7   5    4.52    0.67
   5   7   5    1.90    0.52
   6   7   5   11.74    0.93
   7   7   5    2.70    0.60
  -6   8   5   11.99    1.00
  -5   8   5    4.93    0.69
  -4   8   5    6.41    0.79
  -3   8   5   12.11    0.97
  -2   8   5    2.14    0.58
  -1   8   5    5.07    0.72
   0   8   5   22.57    1.23
   1   8   5   13.89    1.02
   2   8   5    0.10    0.43
   3   8   5    0.63    0.47
   4   8   5    1.44    0.58
 -14   0   6   26.15    1.35
 -13   0   6   -0.23    0.42
 -12   0   6    0.81    0.42
 -11   0   6    0.22    0.35
 -10   0   6    0.12    0.32
  -9   0   6    0.17    0.29
  -8   0   6   -0.05    0.25
  -7   0   6   -0.15    0.21
  -6   0   6    3.09    0.38
  -5   0   6    0.12    0.18
  -4   0   6   40.75    0.92
  -3   0   6   -0.10    0.14
  -2   0   6   42.50    0.84
  -1   0   6    0.01    0.14
   0   0   6    1.01    0.19
   1   0   6    0.07    0.14
   2   0   6   47.34    0.86
   3   0   6   -0.06    0.16
   4   0   6   49.85    0.97
   5   0   6   -0.05    0.19
   6   0   6   11.32    0.58
  -7   0  -6   -0.19    0.23
  -8   0  -6  122.69    1.97
  -9   0  -6    0.21    0.31
 -10   0  -6  294.88    3.54
 -11   0  -6   -0.32    0.36
 -12   0  -6    3.03    0.58
 -14   1   6    0.10    0.44
 -14  -1   6    0.17    0.46
 -13   1   6   28.01    1.32
 -13  -1   6   27.25    1.29
 -12   1   6    0.05    0.40
 -12  -1   6    0.48    0.42
 -11   1   6    0.49    0.38
 -11  -1   6    0.60    0.36
 -10   1   6    0.71    0.36
 -10  -1   6    0.50    0.32
  -9   1   6   34.28    1.17
  -9  -1   6   31.75    1.07
  -8   1   6    0.70    0.30
  -8  -1   6    0.72    0.29
  -7   1   6   21.27    0.84
  -7  -1   6   21.33    0.79
  -6   1   6    0.21    0.22
  -6  -1   6   -0.13    0.19
  -5   1   6    0.11    0.20
  -5  -1   6    0.06    0.17
  -4   1   6    1.04    0.25
  -4  -1   6    1.22    0.22
  -3   1   6   32.03    0.84
  -3  -1   6   32.12    0.70
  -2   1   6    4.38    0.38
  -2  -1   6    4.04    0.30
  -1   1   6    8.73    0.48
  -1  -1   6    7.96    0.36
   0   1   6   25.07    0.71
   1   1   6    2.30    0.28
   2   1   6   13.07    0.55
   3   1   6   24.29    0.74
   3  -1   6   24.51    0.56
   4   1   6   39.91    0.97
  -5   1  -6   61.33    1.04
   5   1   6   61.75    1.25
  -6   1  -6    2.28    0.31
   6   1   6    2.50    0.37
  -7   1  -6    8.35    0.56
   7   1   6    7.88    0.58
  -8   1  -6   16.60    0.77
   8   1   6   16.02    0.79
  -9   1  -6    7.22    0.64
  -9  -1  -6    7.29    0.67
 -10   1  -6   18.88    0.92
 -10  -1  -6   19.01    0.98
 -11  -1  -6    2.85    0.54
 -12  -1  -6   25.33    1.25
 -13   2   6    0.41    0.43
 -13  -2   6    0.29    0.43
 -12   2   6    1.49    0.48
 -12  -2   6    1.16    0.44
 -11   2   6   10.39    0.83
 -11  -2   6   10.56    0.77
 -10   2   6    0.20    0.33
 -10  -2   6    0.36    0.32
  -9   2   6    9.72    0.73
  -9  -2   6    9.95    0.69
  -8   2   6   19.74    0.92
  -8  -2   6   18.32    0.81
  -7   2   6    1.24    0.34
  -7  -2   6    1.77    0.33
  -6   2   6    8.13    0.59
  -6  -2   6    9.04    0.52
  -5   2   6   30.95    0.97
  -5  -2   6   30.65    0.79
  -4   2   6   28.01    0.89
  -4  -2   6   27.10    0.67
  -3   2   6    1.55    0.30
  -3  -2   6    1.98    0.20
  -2   2   6    0.37    0.21
  -1   2   6    5.13    0.45
   0   2   6   94.30    1.54
   1   2   6   19.25    0.72
   2   2   6   14.95    0.65
   3   2   6    0.21    0.22
   4   2   6   11.42    0.63
   5   2   6    2.20    0.37
   6   2   6   32.67    1.05
   7   2   6   59.18    1.46
   8   2   6   15.04    0.82
   9   2   6    0.10    0.31
 -10  -2  -6    0.46    0.40
 -11  -2  -6   94.88    2.21
 -12  -2  -6   33.33    1.43
 -13   3   6    8.78    0.88
 -13  -3   6    8.57    0.85
 -12   3   6    1.16    0.47
 -12  -3   6    0.85    0.45
 -11   3   6    4.16    0.62
 -11  -3   6    4.61    0.61
 -10   3   6   10.01    0.80
 -10  -3   6   11.59    0.79
  -9   3   6    0.78    0.36
  -9  -3   6    0.88    0.36
  -8   3   6    6.97    0.66
  -8  -3   6    7.41    0.61
  -7   3   6   12.41    0.77
  -7  -3   6   12.91    0.67
  -6   3   6   13.02    0.75
  -6  -3   6   12.62    0.63
  -5   3   6   34.06    1.11
  -5  -3   6   32.06    0.82
  -4   3   6    1.96    0.38
  -3   3   6    4.86    0.51
  -2   3   6   21.98    0.87
  -1   3   6   13.11    0.68
   0   3   6    4.96    0.51
   1   3   6   10.60    0.63
   2   3   6   53.26    1.29
   3   3   6    6.36    0.55
   4   3   6    0.10    0.26
   5   3   6   23.11    0.93
   6   3   6    4.25    0.50
   7   3   6   33.64    1.19
   8   3   6   98.53    2.06
   9   3   6    0.52    0.38
  10   3   6    0.00    0.37
 -11  -3  -6    7.90    0.85
 -12   4   6    6.68    0.78
 -12  -4   6    6.60    0.82
 -11   4   6   22.45    1.20
 -10   4   6   13.47    0.93
  -9   4   6   11.82    0.85
  -8   4   6    7.37    0.70
  -6   4   6   33.11    1.21
  -5   4   6    9.19    0.72
  -4   4   6    7.36    0.65
  -3   4   6    3.25    0.45
  -2   4   6    7.12    0.61
  -1   4   6   13.96    0.76
   0   4   6    1.82    0.37
   1   4   6   19.96    0.90
   2   4   6   41.52    1.25
   3   4   6   -0.04    0.26
   4   4   6    4.39    0.54
   5   4   6   14.13    0.85
   6   4   6    0.99    0.38
   7   4   6    8.07    0.73
   8   4   6   18.77    1.01
   9   4   6   11.58    0.89
  10   4   6   12.84    0.95
 -11   5   6    0.07    0.43
 -10   5   6   21.94    1.22
  -9   5   6    8.53    0.82
  -8   5   6   42.03    1.55
  -7   5   6    0.95    0.42
  -6   5   6    1.00    0.41
  -5   5   6    9.03    0.77
  -1   5   6   -0.04    0.31
   0   5   6    0.79    0.34
   1   5   6   30.32    1.16
   2   5   6   13.50    0.84
   3   5   6   12.18    0.81
   4   5   6   16.74    0.94
   5   5   6    3.91    0.56
   6   5   6   12.32    0.88
   7   5   6    0.97    0.45
   8   5   6    2.61    0.55
   9   5   6   35.76    1.46
 -10   6   6   57.70    1.99
  -9   6   6    2.80    0.62
  -8   6   6   50.95    1.76
  -7   6   6    0.32    0.42
  -6   6   6   -0.32    0.35
  -5   6   6    0.53    0.39
  -4   6   6    0.32    0.35
  -3   6   6   -0.06    0.33
  -2   6   6   -0.16    0.32
  -1   6   6   56.88    1.66
   0   6   6    1.36    0.44
   1   6   6    3.33    0.55
   2   6   6    0.95    0.41
   3   6   6   26.86    1.20
   4   6   6   22.65    1.14
   5   6   6    0.74    0.42
   6   6   6    0.12    0.40
   7   6   6    0.84    0.45
   8   6   6    4.50    0.69
  -8   7   6    3.21    0.69
  -7   7   6    1.87    0.58
  -6   7   6   17.12    1.10
  -5   7   6    7.18    0.81
  -4   7   6   23.25    1.20
  -3   7   6    1.29    0.49
  -2   7   6   16.98    1.03
  -1   7   6   50.27    1.68
   0   7   6   69.07    1.95
   1   7   6   13.68    0.97
   2   7   6    4.18    0.66
   3   7   6    0.14    0.41
   4   7   6    3.35    0.62
   5   7   6   14.85    1.03
   6   7   6    2.71    0.60
  -5   8   6   44.87    1.77
  -4   8   6    1.25    0.54
  -3   8   6   15.89    1.12
  -2   8   6    0.12    0.44
  -1   8   6   -0.32    0.41
   0   8   6   23.25    1.28
   1   8   6   21.35    1.22
   2   8   6   70.75    2.13
   3   8   6   15.56    1.13
 -13   0   7    0.66    0.49
 -12   0   7   -0.17    0.38
 -11   0   7   33.40    1.29
 -10   0   7    0.26    0.36
  -9   0   7   19.18    0.91
  -8   0   7   -0.14    0.23
  -7   0   7  114.50    1.90
  -6   0   7    0.01    0.21
  -5   0   7   58.17    1.20
  -4   0   7    0.18    0.19
  -3   0   7    5.10    0.40
  -2   0   7    0.04    0.17
  -1   0   7  470.95    3.67
   0   0   7   -0.10    0.16
   1   0   7   30.62    0.75
   2   0   7   -0.06    0.17
   3   0   7    0.71    0.22
   4   0   7   -0.01    0.20
   5   0   7   12.32    0.60
   6   0   7   -0.15    0.22
  -7   0  -7    1.99    0.37
  -8   0  -7   -0.10    0.27
  -9   0  -7    2.81    0.48
 -10   0  -7    0.23    0.36
 -13   1   7   28.15    1.37
 -13  -1   7   29.97    1.36
 -12   1   7   32.30    1.35
 -12  -1   7   33.03    1.36
 -11   1   7   11.52    0.84
 -11  -1   7   12.40    0.86
 -10   1   7    0.15    0.32
 -10  -1   7    0.23    0.32
  -9   1   7    8.51    0.68
  -9  -1   7    9.50    0.68
  -8   1   7    4.81    0.54
  -8  -1   7    4.11    0.46
  -7   1   7   22.20    0.90
  -7  -1   7   21.88    0.82
  -6   1   7    7.99    0.58
  -6  -1   7    7.86    0.52
  -5   1   7    5.92    0.51
  -5  -1   7    5.15    0.42
  -4   1   7  137.09    1.93
  -4  -1   7  136.56    1.71
  -3   1   7  106.93    1.65
  -3  -1   7  107.80    1.39
  -2   1   7  138.05    1.87
  -2  -1   7  139.34    1.53
  -1   1   7   45.49    1.03
  -1  -1   7   44.80    0.77
   0   1   7    3.58    0.40
   1   1   7    7.16    0.50
   2   1   7    2.02    0.30
   3   1   7   36.41    0.94
   4   1   7   14.27    0.64
  -5   1  -7    8.48    0.47
   5   1   7    8.78    0.58
  -6   1  -7    5.99    0.48
   6   1   7    6.12    0.55
   7   1   7    4.12    0.48
   8   1   7   16.50    0.83
  -9  -1  -7    0.72    0.40
 -10  -1  -7   -0.05    0.37
 -11  -1  -7    3.94    0.62
 -13   2   7   -0.10    0.39
 -13  -2   7   -0.08    0.42
 -12   2   7    0.36    0.44
 -12  -2   7    0.66    0.45
 -11   2   7   59.38    1.79
 -11  -2   7   60.35    1.66
 -10   2   7   11.90    0.84
 -10  -2   7   12.34    0.78
  -9   2   7    7.64    0.69
  -9  -2   7    7.67    0.62
  -8   2   7   25.57    1.06
  -8  -2   7   26.49    0.94
  -7  -2   7   15.68    0.70
  -6   2   7   25.54    0.97
  -6  -2   7   26.45    0.82
  -5   2   7   22.63    0.89
  -5  -2   7   22.09    0.68
  -4   2   7    4.32    0.48
  -4  -2   7    3.95    0.34
  -3   2   7    3.86    0.45
  -2   2   7   85.01    1.55
  -1   2   7   12.05    0.63
   0   2   7    5.42    0.49
   1   2   7    1.04    0.29
   2   2   7   30.52    0.95
   3   2   7   -0.06    0.23
   4   2   7   30.45    0.99
   5   2   7   27.63    0.98
   6   2   7    3.96    0.49
   7   2   7    0.67    0.35
   8   2   7    0.24    0.32
   9   2   7    2.42    0.50
 -10  -2  -7    8.63    0.82
 -11  -2  -7   -0.02    0.43
 -12   3   7    1.62    0.51
 -12  -3   7    1.47    0.49
 -11   3   7   28.08    1.30
 -11  -3   7   26.49    1.14
 -10   3   7    3.93    0.59
 -10  -3   7    4.02    0.53
  -9   3   7    0.37    0.37
  -9  -3   7    0.63    0.33
  -8   3   7    9.57    0.75
  -7   3   7  140.90    2.47
  -4   3   7  185.25    2.63
  -3   3   7    1.93    0.39
  -2   3   7    0.01    0.26
  -1   3   7   13.21    0.72
   0   3   7    7.82    0.61
   1   3   7    6.22    0.57
   2   3   7   31.24    1.06
   3   3   7   13.50    0.75
   4   3   7    4.47    0.55
   5   3   7    0.33    0.32
   6   3   7    0.08    0.30
   7   3   7   -0.02    0.34
   8   3   7    0.99    0.42
   9   3   7    0.48    0.40
  10   3   7    1.28    0.49
 -11  -3  -7    2.49    0.61
 -12   4   7   10.39    1.00
 -11   4   7    3.51    0.64
 -10   4   7    3.81    0.60
  -9   4   7    0.25    0.37
  -8   4   7  126.33    2.57
  -7   4   7   23.41    1.10
  -6   4   7   15.92    0.93
  -5   4   7    1.74    0.43
  -4   4   7    0.29    0.32
  -3   4   7    5.27    0.61
   0   4   7   45.38    1.33
   2   4   7    4.82    0.58
   3   4   7   30.50    1.13
   4   4   7    2.63    0.48
   5   4   7   -0.20    0.31
   6   4   7    2.30    0.49
   7   4   7    1.75    0.49
   8   4   7   11.59    0.90
   9   4   7    0.23    0.42
  10   4   7   16.57    1.07
 -11   5   7    0.12    0.46
 -10   5   7   -0.15    0.40
  -9   5   7   61.74    1.96
  -8   5   7  113.08    2.56
  -7   5   7   35.10    1.40
  -6   5   7   30.57    1.32
  -5   5   7    0.68    0.39
  -4   5   7   30.48    1.26
  -3   5   7   -0.10    0.32
  -2   5   7   -0.31    0.29
  -1   5   7    2.95    0.50
   0   5   7   11.41    0.81
   1   5   7   11.49    0.81
   2   5   7    8.77    0.75
   3   5   7    1.10    0.40
   4   5   7   26.41    1.18
   5   5   7    9.91    0.81
   6   5   7    0.89    0.43
   7   5   7    0.08    0.39
   8   5   7    2.64    0.57
   9   5   7    5.14    0.72
  -9   6   7   69.03    2.16
  -8   6   7   27.77    1.43
  -7   6   7    0.00    0.42
  -6   6   7   -0.03    0.37
  -5   6   7    3.43    0.61
  -4   6   7   40.57    1.53
  -3   6   7   33.10    1.37
  -2   6   7   10.80    0.87
  -1   6   7    7.84    0.77
   0   6   7    7.01    0.75
   1   6   7    0.42    0.38
   2   6   7   11.63    0.88
   3   6   7    1.25    0.46
   4   6   7    0.50    0.43
   5   6   7    1.20    0.49
   6   6   7   40.24    1.56
   7   6   7    0.19    0.42
  -7   7   7    0.69    0.52
  -6   7   7   25.30    1.35
  -5   7   7   32.74    1.50
  -4   7   7    4.76    0.70
  -3   7   7   13.92    1.02
  -2   7   7    1.80    0.53
  -1   7   7   -0.07    0.38
   0   7   7    0.01    0.38
   1   7   7   33.64    1.44
   2   7   7   14.42    1.03
   3   7   7   19.86    1.16
   4   7   7   15.07    1.08
   5   7   7    0.68    0.48
  -3   8   7    0.06    0.48
  -2   8   7    1.31    0.57
  -1   8   7   12.71    1.04
   0   8   7    6.73    0.82
   1   8   7   21.80    1.27
 -13   0   8    0.39    0.45
 -12   0   8   14.75    0.98
 -11   0   8   -0.22    0.34
 -10   0   8   18.16    0.95
  -9   0   8   -0.23    0.27
  -8   0   8    1.43    0.36
  -7   0   8    0.09    0.27
  -6   0   8    5.36    0.51
  -5   0   8    0.06    0.22
  -4   0   8    0.45    0.23
  -3   0   8    0.16    0.22
  -2   0   8  886.47    6.14
  -1   0   8   -0.20    0.21
   0   0   8  451.57    3.64
   1   0   8   -0.16    0.20
   2   0   8   10.97    0.53
 -13   1   8    3.25    0.62
 -13  -1   8    3.20    0.63
 -12   1   8    9.19    0.84
 -12  -1   8    9.86    0.87
 -11   1   8    7.63    0.75
 -11  -1   8    6.86    0.74
 -10   1   8   22.46    1.06
 -10  -1   8   23.87    1.08
  -9   1   8   46.26    1.44
  -9  -1   8   46.33    1.36
  -8   1   8   56.95    1.51
  -8  -1   8   55.20    1.38
  -7   1   8    3.72    0.47
  -7  -1   8    3.27    0.42
  -6   1   8   56.84    1.40
  -6  -1   8   52.94    1.19
  -5   1   8   62.29    1.39
  -5  -1   8   61.20    1.22
  -4   1   8   -0.17    0.22
  -4  -1   8   -0.04    0.19
  -3   1   8   56.45    1.25
  -3  -1   8   56.20    1.04
  -2   1   8   62.20    1.29
  -1   1   8    0.08    0.23
   0   1   8  321.42    3.15
   1   1   8  298.11    3.01
   2   1   8   30.11    0.91
   3   1   8   42.05    1.07
   4   1   8    6.80    0.52
   5   1   8   10.28    0.65
   6   1   8    8.24    0.63
   7   1   8   28.39    1.03
  -9  -1  -8    8.87    0.77
 -10  -1  -8    2.42    0.52
 -12   2   8   38.37    1.56
 -12  -2   8   40.04    1.48
 -11   2   8    6.37    0.75
 -11  -2   8    7.28    0.74
 -10   2   8   78.61    2.02
 -10  -2   8   79.93    1.85
  -9   2   8    0.41    0.36
  -9  -2   8    0.65    0.35
  -8   2   8    0.54    0.36
  -8  -2   8    0.84    0.32
  -7   2   8    3.31    0.49
  -6   2   8   10.94    0.73
  -5   2   8  308.82    3.54
  -4   2   8  237.62    2.99
  -3   2   8  489.43    4.56
  -2   2   8   33.75    1.09
  -1   2   8    0.56    0.28
   0   2   8    1.90    0.35
   1   2   8    5.30    0.53
   2   2   8   16.03    0.78
   3   2   8   18.80    0.83
   4   2   8    6.83    0.61
   5   2   8    4.86    0.55
   6   2   8    0.77    0.36
   7   2   8    2.35    0.44
   8   2   8   19.78    0.97
   9   2   8    1.54    0.47
 -10  -2  -8   11.98    0.94
 -12   3   8   -0.40    0.40
 -11   3   8    1.85    0.55
 -10   3   8   20.99    1.13
  -9   3   8   23.44    1.16
  -8   3   8    0.55    0.34
  -7   3   8   20.72    1.02
  -6   3   8   92.25    2.01
  -5   3   8   22.36    1.00
  -4   3   8    6.59    0.65
  -3   3   8    4.68    0.58
  -2   3   8   -0.30    0.28
  -1   3   8    0.26    0.27
   0   3   8   89.32    1.79
   1   3   8   63.53    1.53
   2   3   8    2.45    0.44
   3   3   8  162.37    2.52
   4   3   8   38.52    1.25
   5   3   8   33.40    1.21
   6   3   8   18.07    0.95
   7   3   8    4.70    0.61
   8   3   8   44.32    1.48
   9   3   8    5.86    0.69
  10   3   8   24.80    1.23
 -11   4   8    1.39    0.51
 -10   4   8   32.07    1.42
  -9   4   8    1.77    0.52
  -8   4   8   68.72    1.92
  -7   4   8   60.68    1.80
  -6   4   8  205.32    3.20
  -5   4   8   10.20    0.80
  -4   4   8    5.27    0.64
  -3   4   8    4.66    0.57
  -1   4   8   10.72    0.79
   0   4   8    0.94    0.37
   1   4   8    0.14    0.32
   2   4   8   -0.05    0.31
   3   4   8    0.10    0.32
   4   4   8    6.40    0.68
   5   4   8   87.59    2.03
   6   4   8   12.92    0.92
   7   4   8   42.12    1.51
   8   4   8    0.85    0.50
   9   4   8   -0.09    0.42
 -10   5   8   25.20    1.36
  -9   5   8   79.81    2.25
  -8   5   8   21.29    1.21
  -7   5   8  126.74    2.74
  -6   5   8   13.98    0.99
  -5   5   8    0.14    0.38
  -4   5   8    5.12    0.65
  -3   5   8   12.41    0.87
  -2   5   8   32.42    1.31
  -1   5   8   33.12    1.30
   0   5   8   19.04    1.02
   1   5   8   10.15    0.81
   2   5   8    0.37    0.36
   3   5   8    2.57    0.53
   4   5   8   -0.23    0.36
   5   5   8    0.16    0.39
   6   5   8   16.96    1.07
   7   5   8    4.33    0.69
   8   5   8    6.91    0.81
  -8   6   8   21.61    1.30
  -7   6   8    0.30    0.45
  -6   6   8    5.37    0.75
  -5   6   8    2.94    0.60
  -4   6   8   15.94    1.06
  -3   6   8   28.65    1.33
  -2   6   8    3.21    0.59
  -1   6   8    0.19    0.38
   0   6   8   -0.23    0.34
   1   6   8   23.72    1.19
   2   6   8   16.81    1.04
   3   6   8   36.51    1.48
   4   6   8   65.87    1.97
   5   6   8   20.46    1.19
   6   6   8   -0.21    0.41
  -6   7   8   14.74    1.12
  -5   7   8   20.14    1.24
  -4   7   8    0.79    0.50
  -3   7   8   20.32    1.22
  -2   7   8    3.43    0.64
  -1   7   8    3.93    0.68
   0   7   8    0.41    0.45
   1   7   8   11.28    0.98
   2   7   8   30.11    1.42
   3   7   8    0.23    0.47
   4   7   8    0.27    0.48
 -12   0   9    0.11    0.40
 -11   0   9   15.02    0.95
 -10   0   9   -0.27    0.31
  -9   0   9  103.12    2.13
  -8   0   9   -0.19    0.29
  -7   0   9  100.28    1.91
  -6   0   9    0.17    0.26
  -5   0   9    5.19    0.51
  -4   0   9   -0.04    0.23
  -3   0   9    0.57    0.26
  -2   0   9    0.12    0.23
 -12   1   9    5.12    0.71
 -12  -1   9    5.32    0.69
 -11   1   9    9.89    0.85
 -11  -1   9    9.08    0.80
 -10   1   9    0.05    0.36
 -10  -1   9   -0.14    0.33
  -9   1   9   -0.07    0.33
  -9  -1   9    0.21    0.31
  -8   1   9   51.23    1.50
  -8  -1   9   47.79    1.31
  -7   1   9    0.36    0.32
  -7  -1   9    0.49    0.30
  -6   1   9    2.47    0.42
  -5   1   9   16.55    0.80
  -4   1   9   64.66    1.44
  -3   1   9  222.97    2.73
  -2   1   9  111.75    1.84
  -1   1   9  371.94    3.62
   0   1   9  141.79    2.05
   1   1   9   32.61    0.99
   2   1   9   54.45    1.25
   3   1   9    1.26    0.34
 -12   2   9   17.27    1.12
 -11   2   9   14.67    1.03
 -10   2   9    1.18    0.47
  -9   2   9    2.83    0.53
  -8   2   9    6.28    0.67
  -7   2   9   -0.17    0.29
  -6   2   9   25.04    1.05
  -5   2   9   15.36    0.85
  -4   2   9   83.97    1.79
  -3   2   9   24.30    0.98
  -2   2   9    1.43    0.37
  -1   2   9    3.75    0.47
   0   2   9   20.57    0.87
   1   2   9   73.42    1.58
   2   2   9  406.85    4.07
   3   2   9   81.00    1.69
   4   2   9   56.44    1.44
   5   2   9   -0.06    0.31
   6   2   9   12.12    0.79
   7   2   9    3.13    0.52
 -11   3   9   11.92    0.98
 -10   3   9    5.99    0.73
  -9   3   9   16.38    1.02
  -8   3   9    0.15    0.37
  -7   3   9    9.92    0.81
  -6   3   9   90.66    2.07
  -5   3   9   20.42    1.02
  -4   3   9  133.29    2.40
  -3   3   9   14.34    0.88
  -2   3   9    3.40    0.50
  -1   3   9   68.40    1.66
   0   3   9    7.74    0.67
   1   3   9   32.61    1.16
   2   3   9    0.18    0.31
   3   3   9   22.96    1.03
   4   3   9    8.38    0.74
   5   3   9    0.64    0.41
   6   3   9   12.45    0.87
   7   3   9   59.10    1.68
   8   3   9    8.34    0.80
   9   3   9   41.05    1.52
 -10   4   9    0.39    0.45
  -9   4   9    0.51    0.46
  -8   4   9   39.75    1.54
  -7   4   9    0.69    0.43
  -6   4   9   33.19    1.38
  -5   4   9    5.13    0.64
  -4   4   9   10.04    0.82
  -3   4   9   16.36    0.94
  -2   4   9    3.45    0.52
  -1   4   9    0.16    0.35
   0   4   9   25.58    1.12
   1   4   9   26.28    1.15
   2   4   9    3.13    0.54
   3   4   9   72.37    1.87
   4   4   9   54.45    1.65
   5   4   9  133.07    2.58
   6   4   9   43.36    1.54
   7   4   9   26.17    1.28
   8   4   9    0.06    0.44
  -9   5   9   32.55    1.53
  -8   5   9    4.79    0.75
  -7   5   9   11.26    0.97
  -6   5   9   -0.14    0.42
  -5   5   9    0.06    0.39
  -4   5   9    2.29    0.52
  -3   5   9    0.50    0.38
  -2   5   9    1.91    0.52
  -1   5   9   18.30    1.06
   0   5   9   76.77    2.01
   1   5   9    6.17    0.70
   2   5   9   21.28    1.12
   3   5   9   22.22    1.16
   4   5   9   24.92    1.21
   5   5   9   11.57    0.95
   6   5   9   96.89    2.40
   7   5   9   12.74    1.07
  -7   6   9    5.38    0.79
  -6   6   9    6.58    0.81
  -5   6   9   33.22    1.49
  -4   6   9   16.01    1.08
  -3   6   9    3.43    0.64
  -2   6   9   14.31    1.00
  -1   6   9    5.67    0.73
   0   6   9    0.42    0.43
   1   6   9    1.36    0.51
   2   6   9    2.74    0.61
   3   6   9   32.80    1.45
   4   6   9    4.14    0.69
   5   6   9   -0.14    0.47
  -4   7   9    0.10    0.48
  -3   7   9    4.97    0.76
  -2   7   9    0.84    0.53
  -1   7   9   11.91    1.02
   0   7   9    2.24    0.60
   1   7   9    1.37    0.56
   2   7   9   15.61    1.12
 -11   0  10    0.51    0.44
 -10   0  10   -0.26    0.37
  -9   0  10    0.04    0.34
  -8   0  10    0.12    0.33
  -7   0  10   -0.26    0.31
  -6   0  10   10.52    0.71
 -11   1  10    1.39    0.50
 -10   1  10    0.39    0.42
  -9   1  10    2.37    0.50
  -8   1  10    2.81    0.52
  -7   1  10   31.59    1.19
  -6   1  10    0.82    0.37
  -5   1  10    1.58    0.40
  -4   1  10    2.79    0.44
  -3   1  10    8.57    0.67
  -2   1  10    2.86    0.43
  -1   1  10    0.00    0.27
 -11   2  10    0.48    0.47
 -10   2  10    2.36    0.54
  -9   2  10   16.69    1.02
  -8   2  10    1.62    0.47
  -7   2  10    0.21    0.34
  -6   2  10    9.16    0.76
  -5   2  10   15.96    0.89
  -4   2  10   15.27    0.86
  -3   2  10    1.44    0.39
  -2   2  10    8.56    0.68
  -1   2  10   10.60    0.73
   0   2  10    1.44    0.39
   1   2  10   42.64    1.26
   2   2  10   43.41    1.28
   3   2  10    4.74    0.56
   4   2  10   14.09    0.83
 -10   3  10    0.72    0.47
  -9   3  10    2.82    0.59
  -8   3  10   11.92    0.91
  -7   3  10    0.57    0.42
  -6   3  10   12.99    0.92
  -5   3  10   -0.01    0.34
  -4   3  10    3.04    0.52
  -3   3  10   22.14    1.06
  -2   3  10   27.11    1.12
  -1   3  10    1.22    0.40
   0   3  10    0.23    0.34
   1   3  10    8.88    0.74
   2   3  10    2.53    0.49
   3   3  10  122.12    2.31
   4   3  10   97.54    2.10
   5   3  10   17.13    0.99
   6   3  10    5.71    0.68
   7   3  10    7.55    0.80
  -9   4  10    0.42    0.46
  -8   4  10    8.23    0.86
  -7   4  10    1.38    0.51
  -6   4  10    0.38    0.41
  -5   4  10    0.10    0.39
  -4   4  10   19.11    1.06
  -3   4  10   15.97    0.98
  -2   4  10    4.34    0.62
  -1   4  10   34.26    1.34
   0   4  10    0.03    0.35
   1   4  10    1.76    0.47
   2   4  10    8.45    0.78
   3   4  10    8.07    0.78
   4   4  10    3.80    0.61
   5   4  10    6.81    0.78
   6   4  10    0.08    0.43
   7   4  10   19.40    1.16
  -8   5  10    0.07    0.46
  -7   5  10    1.35    0.54
  -6   5  10    7.87    0.88
  -5   5  10   19.60    1.16
  -4   5  10    0.25    0.42
  -3   5  10    0.12    0.41
  -2   5  10    6.66    0.78
  -1   5  10    9.10    0.84
   0   5  10   -0.17    0.37
   1   5  10    5.26    0.69
   2   5  10    2.13    0.54
   3   5  10    0.19    0.42
   4   5  10    7.63    0.88
   5   5  10   64.66    1.98
  -6   6  10    0.32    0.50
  -5   6  10    2.22    0.61
  -4   6  10    0.12    0.46
  -3   6  10    5.15    0.75
  -2   6  10    9.74    0.93
  -1   6  10    2.06    0.58
   0   6  10   27.23    1.38
   1   6  10   13.35    1.03
   2   6  10   23.18    1.28
   3   6  10    8.68    0.91
 -10   1  11    0.51    0.46
  -9   1  11    0.40    0.41
  -8   1  11   10.66    0.84
  -7   1  11   34.74    1.29
  -6   1  11    7.72    0.70
 -10   2  11   32.03    1.46
  -9   2  11    6.64    0.78
  -8   2  11   44.67    1.59
  -7   2  11    1.73    0.49
  -6   2  11   10.64    0.82
  -5   2  11   26.16    1.14
  -4   2  11   18.54    0.99
  -3   2  11    3.31    0.52
  -2   2  11    0.28    0.36
  -1   2  11   30.06    1.14
  -9   3  11   16.67    1.12
  -8   3  11   29.36    1.36
  -7   3  11   18.69    1.11
  -6   3  11    0.59    0.43
  -5   3  11    0.11    0.40
  -4   3  11   -0.23    0.36
  -3   3  11   11.93    0.86
  -2   3  11    1.89    0.48
  -1   3  11   14.38    0.91
   0   3  11    6.59    0.73
   1   3  11    4.05    0.58
   2   3  11   -0.03    0.34
   3   3  11   11.61    0.87
  -8   4  11    3.41    0.67
  -7   4  11    1.31    0.51
  -6   4  11   -0.13    0.42
  -5   4  11    3.24    0.62
  -4   4  11   14.49    1.00
  -3   4  11   22.51    1.17
  -2   4  11    8.03    0.81
  -1   4  11    0.12    0.40
   0   4  11    1.08    0.43
   1   4  11   -0.19    0.38
   2   4  11   -0.20    0.38
   3   4  11    0.36    0.45
   4   4  11    4.27    0.68
   5   4  11   14.14    1.05
  -6   5  11   22.47    1.29
  -5   5  11    4.65    0.72
  -4   5  11    7.06    0.83
  -3   5  11    3.41    0.67
  -2   5  11    5.99    0.78
  -1   5  11   11.86    0.97
   0   5  11   25.73    1.31
   1   5  11   70.81    2.10
   2   5  11   49.78    1.75
   3   5  11    6.25    0.81
   4   5  11    7.98    0.93
  -2   6  11   11.13    1.02
  -1   6  11   31.04    1.51
   0   6  11   31.39    1.49
  -9   2  12    0.29    0.51
  -8   2  12    6.63    0.80
  -7   2  12   48.48    1.66
  -6   2  12    7.25    0.78
  -8   3  12   16.36    1.13
  -7   3  12   78.19    2.17
  -6   3  12   49.95    1.75
  -5   3  12    2.74    0.59
  -4   3  12   21.95    1.18
  -3   3  12   22.82    1.18
  -2   3  12   84.02    2.06
  -1   3  12    1.49    0.51
  -6   4  12   12.11    1.03
  -5   4  12  108.16    2.64
  -4   4  12    1.51    0.57
  -3   4  12   21.78    1.24
  -2   4  12    5.06    0.72
  -1   4  12    4.74    0.70
   0   4  12    1.56    0.52
   1   4  12   45.41    1.65
   2   4  12  117.00    2.59
   3   4  12   76.71    2.12
  -4   5  12   12.64    1.06
  -3   5  12    0.61    0.51
  -2   5  12   -0.11    0.46
  -1   5  12   32.40    1.52
   0   5  12   21.84    1.25
   1   5  12   64.77    2.03
  -3   4  13    4.56    0.73
  -2   4  13   -0.06    0.47
   1   0   0    1.11    0.12
   2   0   0 2128.07   13.13
   3   0   0    0.09    0.11
   4   0   0   37.42    0.76
   5   0   0    0.00    0.15
   6   0   0  348.18    3.21
   7   0   0   -0.13    0.20
   8   0   0   68.49    1.47
   9   0   0    0.11    0.27
  10   0   0    0.08    0.31
  11   0   0   -0.12    0.33
  12   0   0   18.35    1.05
  13   0   0    0.09    0.40
  14   0   0    0.52    0.50
   1   1   0  159.68    1.36
   1  -1   0  158.17    1.46
   2   1   0  993.72    6.29
   2  -1   0  993.47    6.49
   3   1   0 1171.17    7.27
   3  -1   0 1174.28    7.26
   4   1   0  216.46    2.09
   4  -1   0  213.85    1.97
   5   1   0  265.43    2.58
   5  -1   0  262.95    2.44
   6   1   0  372.31    3.41
   6  -1   0  378.17    3.31
   7   1   0    9.42    0.58
   7  -1   0    9.86    0.56
   8   1   0   82.62    1.65
   8  -1   0   82.19    1.58
   9   1   0   20.56    0.92
   9  -1   0   19.65    0.87
  10   1   0   15.26    0.88
  10  -1   0   15.73    0.85
  11   1   0   56.83    1.64
  11  -1   0   56.10    1.59
  12   1   0   10.61    0.85
  12  -1   0   11.79    0.89
  13   1   0    3.12    0.60
  13  -1   0    2.91    0.59
  14   1   0   21.05    1.25
  14  -1   0   22.35    1.26
   1   2   0 1402.73    8.88
   2   2   0 1060.48    6.61
   2  -2   0 1060.25    6.90
   3   2   0 1364.38    8.33
   3  -2   0 1366.21    8.32
   4   2   0  527.43    3.98
   4  -2   0  530.06    3.76
   5   2   0   60.71    1.16
   5  -2   0   60.33    1.03
   6   2   0    0.08    0.20
   6  -2   0    0.16    0.20
   7   2   0   32.35    1.00
   7  -2   0   32.04    0.90
   8   2   0   41.94    1.21
   8  -2   0   41.93    1.13
   9   2   0    1.14    0.37
   9  -2   0    1.25    0.35
  10  -2   0  170.30    2.61
  11   2   0    1.19    0.43
  11  -2   0    1.24    0.43
  12   2   0   11.14    0.90
  12  -2   0   11.02    0.89
  13   2   0    6.53    0.77
  13  -2   0    7.31    0.84
  14   2   0    0.32    0.48
  14  -2   0    1.47    0.54
   1   3   0   69.87    0.86
   2   3   0  417.26    3.10
   3   3   0  928.93    6.05
   3  -3   0  926.89    5.86
   4   3   0  275.73    2.60
   4  -3   0  271.61    2.27
   5   3   0  319.37    3.05
   5  -3   0  324.61    2.74
   6   3   0  232.85    2.66
   6  -3   0  234.19    2.39
   7   3   0   23.62    0.90
   7  -3   0   22.12    0.77
   8   3   0    0.18    0.28
   8  -3   0   -0.08    0.24
   9   3   0   -0.37    0.29
   9  -3   0    0.04    0.28
  10   3   0   29.90    1.21
  10  -3   0   30.97    1.13
  11   3   0   12.38    0.89
  11  -3   0   12.32    0.85
  12   3   0    1.68    0.51
  12  -3   0    1.11    0.49
  13   3   0    0.92    0.52
  -1  -4   0    3.76    0.30
   2   4   0   74.74    1.06
   3   4   0    0.38    0.18
   4   4   0   73.41    1.27
   4  -4   0   73.29    1.01
   5   4   0    4.44    0.48
   5  -4   0    5.01    0.43
   6   4   0   52.77    1.27
   7   4   0   41.02    1.22
   8   4   0   64.83    1.58
   9   4   0   16.77    0.94
  10   4   0    4.54    0.63
  11   4   0    2.88    0.58
  12   4   0   12.16    0.98
  13   4   0    0.05    0.48
   3   5   0   37.21    0.86
   4   5   0   22.74    0.75
   5   5   0   60.47    1.30
   6   5   0    4.18    0.47
   7   5   0  127.24    2.19
   8   5   0  106.33    2.11
   9   5   0    7.15    0.74
  10   5   0   -0.07    0.39
  11   5   0   93.08    2.31
  12   5   0   75.12    2.18
   6   6   0   36.80    1.14
   7   6   0   23.75    1.02
   8   6   0    8.48    0.80
   9   6   0    0.05    0.42
  10   6   0   41.98    1.55
  11   6   0    1.77    0.58
  14   0  -1    0.15    0.46
  13   0  -1    1.51    0.52
  12   0  -1    0.05    0.38
  11   0  -1    3.12    0.52
  10   0  -1   -0.19    0.27
   9   0  -1   80.22    1.69
   8   0  -1   -0.10    0.22
   7   0  -1  122.94    1.84
   6   0  -1   -0.07    0.17
   5   0  -1    2.56    0.27
   4   0  -1   -0.02    0.12
   3   0  -1    0.23    0.12
   2   0  -1    0.11    0.09
   1   0  -1  866.58    6.30
   0   0   1    0.28    0.06
   2   0   1    0.18    0.10
   3   0   1  159.85    1.55
   4   0   1    0.03    0.14
   5   0   1  406.71    3.37
   6   0   1   -0.02    0.17
   7   0   1  242.22    2.74
   8   0   1    0.13    0.25
   9   0   1    1.86    0.39
  10   0   1    0.04    0.31
  11   0   1   26.79    1.16
  12   0   1    0.01    0.39
  13   0   1  112.67    2.56
  14   0   1    0.02    0.45
  14   1  -1   -0.08    0.44
  14  -1  -1   -0.27    0.39
  13   1  -1    2.63    0.59
  13  -1  -1    2.81    0.60
  12   1  -1    1.62    0.49
  12  -1  -1    1.97    0.49
  11   1  -1    4.22    0.60
  11  -1  -1    4.71    0.58
  10   1  -1    4.61    0.55
  10  -1  -1    4.52    0.55
   9   1  -1   29.50    1.06
   9  -1  -1   31.72    1.06
   8   1  -1   25.82    0.93
   8  -1  -1   25.86    0.90
   7   1  -1   15.33    0.71
   7  -1  -1   14.80    0.64
   6   1  -1    0.15    0.20
   6  -1  -1    0.01    0.17
   5   1  -1   92.91    1.38
   5  -1  -1   94.70    1.31
   4   1  -1   56.66    0.98
   4  -1  -1   58.65    0.91
   3   1  -1  578.94    4.02
   3  -1  -1  577.17    3.90
   2   1  -1  877.28    5.62
   2  -1  -1  871.73    5.93
   1   1  -1 2016.53   12.65
   0  -1   1   70.23    0.75
   1   1   1 3350.56   21.81
   1  -1   1 3354.82   20.95
   2   1   1 4859.74   28.10
   2  -1   1 4862.71   28.22
   3   1   1   87.38    1.12
   3  -1   1   87.03    1.07
   4  -1   1    2.13    0.24
   5   1   1    6.05    0.44
   5  -1   1    5.88    0.43
   6   1   1   81.85    1.42
   6  -1   1   80.41    1.36
   7   1   1   46.20    1.16
   7  -1   1   44.77    1.11
   8   1   1   62.46    1.44
   8  -1   1   63.13    1.40
   9   1   1   29.51    1.09
   9  -1   1   28.51    1.04
  10   1   1    2.12    0.46
  10  -1   1    2.09    0.44
  11   1   1   35.43    1.33
  11  -1   1   34.97    1.30
  12   1   1   40.06    1.50
  12  -1   1   39.52    1.45
  13   1   1   17.90    1.13
  13  -1   1   17.78    1.10
  14   1   1    4.00    0.70
  14  -1   1    4.27    0.73
  14   2  -1    4.22    0.75
  14  -2  -1    4.48    0.71
  13   2  -1    4.00    0.67
  13  -2  -1    4.13    0.65
  12   2  -1   -0.38    0.35
  12  -2  -1    0.08    0.37
  11   2  -1    0.03    0.34
  11  -2  -1   -0.17    0.33
  10   2  -1    0.50    0.37
  10  -2  -1    0.57    0.34
   9   2  -1    2.91    0.46
   9  -2  -1    3.31    0.44
   8   2  -1    8.23    0.62
   8  -2  -1    8.69    0.58
   7   2  -1    3.85    0.46
   7  -2  -1    3.79    0.43
   6   2  -1   74.29    1.38
   6  -2  -1   74.13    1.23
   5   2  -1   50.37    1.04
   5  -2  -1   51.31    0.93
   4   2  -1  696.67    4.93
   4  -2  -1  696.17    4.64
   3   2  -1    0.48    0.17
   3  -2  -1    0.46    0.12
   2   2  -1  901.51    5.76
   1   2  -1    0.28    0.11
   0  -2   1  205.31    1.67
   1   2   1  135.38    1.21
   1  -2   1  131.72    1.21
   2   2   1   91.40    1.04
   2  -2   1   90.19    1.00
   3   2   1   56.47    0.91
   3  -2   1   54.50    0.83
   4   2   1 1423.23    8.81
   4  -2   1 1423.29    8.69
   5   2   1    2.45    0.30
   5  -2   1    1.95    0.26
   6   2   1    2.58    0.34
   6  -2   1    2.69    0.32
   7   2   1    0.30    0.25
   7  -2   1   -0.03    0.21
   8   2   1  101.87    1.87
   8  -2   1  102.53    1.78
   9   2   1    5.08    0.59
   9  -2   1    5.44    0.58
  10   2   1    5.15    0.63
  10  -2   1    4.92    0.57
  11   2   1    0.06    0.37
  11  -2   1    0.34    0.36
  12   2   1   25.10    1.21
  12  -2   1   25.29    1.19
  13   2   1    2.47    0.61
  13  -2   1    2.85    0.60
  14   2   1    7.52    0.90
  14  -2   1    7.61    0.95
  13   3  -1    6.86    0.81
  12   3  -1    6.29    0.77
  11   3  -1    0.58    0.42
  11  -3  -1    0.22    0.35
  10   3  -1    0.05    0.36
  10  -3  -1    0.33    0.32
   9   3  -1    0.63    0.34
   9  -3  -1    0.87    0.34
   8   3  -1   34.72    1.14
   8  -3  -1   33.61    0.98
   7   3  -1   19.26    0.86
   7  -3  -1   18.50    0.70
   6   3  -1    7.01    0.55
   6  -3  -1    7.24    0.46
   5   3  -1    2.11    0.32
   5  -3  -1    2.69    0.27
   4   3  -1  118.48    1.61
   4  -3  -1  119.79    1.27
   3   3  -1    6.57    0.42
   2   3  -1    1.37    0.21
  -1  -3   1   37.13    0.68
   0  -3   1    0.30    0.12
   1   3   1   12.94    0.37
   1  -3   1   12.32    0.37
   2   3   1  202.04    1.81
   2  -3   1  198.62    1.73
   3   3   1  355.83    2.87
   3  -3   1  354.98    2.73
   4   3   1  385.54    3.25
   4  -3   1  386.27    3.06
   5   3   1  343.61    3.21
   5  -3   1  339.17    2.95
   6   3   1    0.11    0.23
   6  -3   1    0.12    0.22
   7   3   1   19.83    0.85
   7  -3   1   18.05    0.74
   8   3   1   31.92    1.10
   8  -3   1   31.16    1.01
   9  -3   1  113.42    1.99
  10   3   1    0.08    0.32
  10  -3   1   -0.07    0.32
  11   3   1   57.59    1.74
  11  -3   1   57.61    1.62
  12   3   1   22.26    1.19
  12  -3   1   22.73    1.15
  13   3   1    4.01    0.66
  13   4  -1    2.37    0.66
  12   4  -1    3.36    0.65
  11   4  -1    0.35    0.42
  10   4  -1   17.91    1.02
   9   4  -1   13.99    0.88
   8   4  -1    1.71    0.42
   7   4  -1    0.40    0.31
   6   4  -1   58.04    1.32
   5   4  -1    4.47    0.46
   4   4  -1    2.30    0.31
   3   4  -1   20.21    0.64
   2   4  -1    2.19    0.25
  -1  -4   1  254.46    2.20
   0  -4   1  227.38    1.96
   1  -4   1    1.81    0.20
   2   4   1   52.18    0.85
   2  -4   1   51.50    0.80
   3   4   1    2.02    0.26
   3  -4   1    1.93    0.23
   4   4   1   16.92    0.65
   4  -4   1   16.63    0.56
   5   4   1  346.79    3.29
   5  -4   1  347.47    3.00
   6   4   1  423.76    3.97
   6  -4   1  425.50    3.63
   7   4   1   92.40    1.76
   7  -4   1   89.92    1.55
   8   4   1  116.97    2.12
   9   4   1    0.13    0.34
  10   4   1   10.68    0.80
  11   4   1   -0.09    0.38
  12   4   1   29.19    1.36
  13   4   1   52.09    1.87
  12   5  -1    7.77    0.95
  11   5  -1    0.73    0.48
  10   5  -1    1.31    0.46
   9   5  -1    3.85    0.59
   8   5  -1    1.13    0.40
   7   5  -1   11.48    0.78
   6   5  -1   61.33    1.42
   5   5  -1    4.71    0.49
   4   5  -1    3.70    0.42
   3   5  -1    1.04    0.25
  -2  -5   1    9.98    0.48
  -1  -5   1   50.83    0.91
   2   5   1  123.96    1.41
   3   5   1    0.17    0.18
   4   5   1   13.47    0.61
   5   5   1   40.51    1.07
   6   5   1   13.26    0.74
   7   5   1   11.88    0.78
   8   5   1   16.60    0.91
   9   5   1    1.16    0.43
  10   5   1    1.48    0.51
  11   5   1    2.26    0.58
  12   5   1   21.84    1.28
  11   6  -1   64.35    2.00
  10   6  -1   68.43    1.96
   9   6  -1   18.39    1.06
   8   6  -1    2.87    0.53
   7   6  -1    2.12    0.45
   6   6  -1   11.72    0.75
   5   6  -1    5.99    0.55
   8   6   1   85.26    1.90
   9   6   1   78.85    1.95
  10   6   1  131.52    2.63
  14   0  -2   31.25    1.49
  13   0  -2    0.09    0.42
  12   0  -2   52.58    1.64
  11   0  -2    0.15    0.34
   9   0  -2   -0.09    0.27
   8   0  -2    2.95    0.39
   7   0  -2   -0.16    0.20
   6   0  -2    0.82    0.22
   5   0  -2    0.41    0.17
   4   0  -2  156.68    1.70
   3   0  -2    0.04    0.12
   2   0  -2   26.60    0.52
  -1   0   2    0.17    0.09
   0   0   2  309.51    2.29
   1   0   2    0.10    0.09
   2   0   2    3.04    0.28
   3   0   2    0.06    0.12
   4   0   2  299.97    2.65
   5   0   2    0.02    0.17
   6   0   2   41.76    1.04
   7   0   2    0.04    0.21
   8   0   2  123.67    2.04
   9   0   2    0.00    0.25
  10   0   2    1.58    0.43
  11   0   2   -0.01    0.36
  12   0   2   33.01    1.39
  13   0   2    0.12    0.44
  14   0   2   45.08    1.77
  14   1  -2    2.60    0.65
  14  -1  -2    3.30    0.65
  13   1  -2    7.26    0.84
  13  -1  -2    7.31    0.81
  12   1  -2    1.55    0.49
  12  -1  -2    1.11    0.44
  11   1  -2   19.87    1.01
  11  -1  -2   20.70    1.01
  10   1  -2   42.82    1.36
  10  -1  -2   44.32    1.33
   9   1  -2   22.08    0.93
   9  -1  -2   22.36    0.90
   8   1  -2   11.16    0.66
   8  -1  -2   12.19    0.66
   7   1  -2   -0.17    0.20
   7  -1  -2   -0.14    0.18
   6   1  -2   19.79    0.72
   6  -1  -2   19.58    0.67
   5   1  -2    2.29    0.28
   5  -1  -2    2.56    0.27
   4   1  -2    0.00    0.14
   4  -1  -2    0.06    0.12
   3   1  -2  453.53    3.38
   3  -1  -2  447.16    3.19
   2   1  -2    3.40    0.27
   2  -1  -2    2.94    0.21
  -1   1   2   29.37    0.43
  -1  -1   2   30.70    0.57
   0   1   2    0.81    0.10
   0  -1   2    0.83    0.14
   1   1   2   18.74    0.41
   1  -1   2   17.96    0.44
   2   1   2  154.24    1.47
   2  -1   2  153.60    1.49
   3   1   2   10.62    0.43
   3  -1   2    9.24    0.43
   4   1   2   30.43    0.74
   4  -1   2   30.63    0.74
   5   1   2   23.47    0.74
   5  -1   2   22.46    0.70
   6   1   2   69.22    1.33
   6  -1   2   69.10    1.29
   7   1   2    2.66    0.39
   7  -1   2    3.18    0.39
   8   1   2    0.14    0.26
   8  -1   2    0.13    0.26
   9   1   2   16.89    0.86
   9  -1   2   16.09    0.83
  10   1   2   11.60    0.82
  10  -1   2   11.91    0.81
  11   1   2    5.55    0.69
  11  -1   2    5.21    0.63
  12   1   2    3.91    0.62
  12  -1   2    3.49    0.58
  13   1   2    3.10    0.62
  13  -1   2    2.38    0.59
  14   1   2   19.76    1.25
  14  -1   2   20.32    1.27
  14   2  -2   40.73    1.70
  14  -2  -2   40.81    1.60
  13   2  -2   95.46    2.40
  13  -2  -2   92.73    2.22
  12   2  -2   18.92    1.11
  12  -2  -2   20.37    1.06
  11   2  -2    2.49    0.52
  11  -2  -2    2.92    0.50
  10   2  -2   -0.34    0.30
  10  -2  -2    0.03    0.32
   9   2  -2    0.47    0.33
   9  -2  -2    0.24    0.27
   8   2  -2   10.45    0.70
   8  -2  -2    9.76    0.60
   7   2  -2   34.04    1.03
   7  -2  -2   34.02    0.90
   6   2  -2   30.54    0.91
   6  -2  -2   31.31    0.80
   5   2  -2    7.13    0.48
   5  -2  -2    7.50    0.42
   4   2  -2    0.19    0.18
   4  -2  -2    0.43    0.14
   3   2  -2   20.06    0.59
   3  -2  -2   18.77    0.42
   2   2  -2   12.23    0.44
  -1  -2   2  194.39    1.77
   0  -2   2   51.08    0.78
   1   2   2    4.52    0.23
   1  -2   2    4.57    0.30
   2   2   2  347.80    2.64
   2  -2   2  348.63    2.70
   3   2   2   88.22    1.18
   3  -2   2   85.15    1.15
   4   2   2  133.52    1.64
   4  -2   2  133.17    1.60
   5   2   2    0.10    0.18
   5  -2   2    0.07    0.17
   6   2   2   17.64    0.71
   6  -2   2   17.84    0.70
   7   2   2   38.23    1.09
   7  -2   2   38.36    1.07
   8   2   2   -0.10    0.25
   8  -2   2    0.04    0.24
   9   2   2    2.67    0.47
   9  -2   2    2.70    0.45
  10   2   2   75.96    1.85
  10  -2   2   77.13    1.79
  11   2   2    0.03    0.38
  11  -2   2    0.20    0.36
  12   2   2    3.07    0.60
  12  -2   2    2.72    0.56
  13   2   2   -0.16    0.43
  13  -2   2   -0.34    0.44
  13   3  -2    6.13    0.81
  12   3  -2   12.60    0.98
  11   3  -2    0.35    0.40
  10   3  -2   43.43    1.45
  10  -3  -2   40.82    1.23
   9   3  -2    8.37    0.71
   9  -3  -2    8.04    0.60
   8   3  -2   30.56    1.10
   8  -3  -2   30.77    0.93
   7   3  -2   52.98    1.32
   7  -3  -2   53.24    1.09
   6   3  -2    7.32    0.55
   6  -3  -2    6.79    0.43
   5   3  -2   16.93    0.68
   5  -3  -2   17.84    0.53
   4   3  -2   49.43    1.04
   4  -3  -2   50.15    0.74
   3   3  -2   39.59    0.87
   2   3  -2   44.68    0.88
  -1  -3   2   17.24    0.53
   0  -3   2    5.90    0.35
   1   3   2    0.91    0.14
   1  -3   2    0.90    0.18
   2   3   2   31.89    0.63
   2  -3   2   31.11    0.67
   3   3   2   42.21    0.84
   3  -3   2   41.88    0.82
   4   3   2   51.46    1.01
   4  -3   2   51.36    0.98
   5   3   2  113.85    1.68
   5  -3   2  111.65    1.58
   6   3   2  134.16    1.99
   6  -3   2  130.92    1.84
   7   3   2    0.09    0.27
   7  -3   2   -0.19    0.23
   8   3   2   31.11    1.09
   8  -3   2   31.08    1.07
   9   3   2    1.10    0.40
   9  -3   2    0.66    0.35
  10   3   2   24.42    1.11
  10  -3   2   25.51    1.09
  11   3   2    0.91    0.46
  11  -3   2    0.93    0.43
  12   3   2   13.39    0.97
  12  -3   2   11.80    0.91
  13   3   2    0.63    0.50
  13  -3   2    0.23    0.49
  13   4  -2    0.44    0.51
  12   4  -2   12.16    0.98
  11   4  -2    2.51    0.55
  10   4  -2    0.12    0.37
   9   4  -2    2.08    0.47
   8   4  -2    0.52    0.34
   7   4  -2   10.90    0.69
   6   4  -2   25.00    0.93
   5   4  -2   28.45    0.91
   4   4  -2   53.91    1.15
   3   4  -2    0.32    0.18
  -2  -4   2   35.88    0.83
  -1  -4   2   77.55    1.16
   0  -4   2   18.86    0.56
   1  -4   2    0.05    0.16
   2   4   2   14.85    0.51
   2  -4   2   15.06    0.51
   3   4   2   62.40    1.04
   3  -4   2   62.59    1.05
   4   4   2   20.81    0.68
   4  -4   2   22.42    0.70
   5   4   2   56.74    1.20
   5  -4   2   56.31    1.12
   6   4   2   52.81    1.25
   6  -4   2   52.54    1.16
   7   4   2   12.03    0.71
   7  -4   2   11.77    0.67
   8   4   2    5.57    0.61
   8  -4   2    5.74    0.62
   9   4   2    2.29    0.46
  10   4   2    0.48    0.40
  11   4   2    8.85    0.84
  12   4   2    6.79    0.82
  12   5  -2   27.55    1.43
  11   5  -2   33.26    1.45
  10   5  -2   10.24    0.90
   9   5  -2    7.48    0.76
   8   5  -2    1.12    0.41
   7   5  -2    8.82    0.69
   6   5  -2   13.69    0.75
   5   5  -2    0.15    0.26
   4   5  -2    2.65    0.37
  -3  -5   2   20.73    0.76
  -2  -5   2   15.21    0.63
  -1  -5   2   18.80    0.62
   0  -5   2   34.42    0.78
   3   5   2    2.57    0.31
   4   5   2    0.96    0.27
   5   5   2    6.14    0.54
   6   5   2   35.73    1.10
   7   5   2  137.26    2.21
   8   5   2  158.84    2.53
   9   5   2   10.39    0.80
  10   5   2    9.69    0.82
  11   5   2    5.84    0.74
  11   6  -2    6.19    0.81
  10   6  -2    8.62    0.92
   9   6  -2    0.59    0.43
   8   6  -2    3.84    0.58
   7   6  -2    9.76    0.77
   6   6  -2   18.29    0.87
   5   6  -2   22.12    0.91
  14   0  -3   -0.14    0.48
  13   0  -3    7.10    0.85
  12   0  -3   -0.10    0.39
  11   0  -3   59.16    1.64
  10   0  -3    0.23    0.33
   9   0  -3  239.72    3.06
   8   0  -3    0.05    0.25
   7   0  -3   10.62    0.61
   6   0  -3   -0.02    0.17
   5   0  -3  210.65    2.23
   4   0  -3    0.01    0.14
   3   0  -3   87.98    1.15
  -2   0   3    0.08    0.13
  -1   0   3 1747.98   10.44
   0   0   3    0.00    0.11
   1   0   3   41.74    0.72
   2   0   3    0.02    0.12
   3   0   3  361.50    2.95
   4   0   3    0.08    0.17
   5   0   3   21.74    0.73
   6   0   3   -0.06    0.20
   7   0   3   12.14    0.69
   8   0   3   -0.06    0.25
   9   0   3   31.61    1.19
  10   0   3   -0.25    0.33
  11   0   3    1.22    0.47
  12   0   3   -0.12    0.39
  13   0   3    7.04    0.86
  14   1  -3   28.22    1.46
  14  -1  -3   32.56    1.50
  13   1  -3   40.13    1.59
  13  -1  -3   39.71    1.53
  12   1  -3  192.84    3.26
  12  -1  -3  193.01    3.13
  11   1  -3  305.51    3.99
  11  -1  -3  303.48    3.86
  10   1  -3    9.50    0.76
  10  -1  -3    8.43    0.70
   9   1  -3  155.12    2.46
   9  -1  -3  151.96    2.32
   8   1  -3  102.81    1.88
   8  -1  -3  101.50    1.77
   7   1  -3   22.33    0.84
   7  -1  -3   22.97    0.81
   6   1  -3   72.48    1.37
   6  -1  -3   71.97    1.25
   5   1  -3  168.72    2.02
   5  -1  -3  172.53    1.89
   4   1  -3    4.63    0.38
   4  -1  -3    5.02    0.35
   3   1  -3  247.83    2.30
   3  -1  -3  250.56    2.13
  -2   1   3  619.51    4.16
  -2  -1   3  617.98    4.30
  -1   1   3  251.76    1.98
  -1  -1   3  252.10    2.16
   0   1   3    9.80    0.34
   0  -1   3    9.54    0.40
   1   1   3  283.57    2.23
   1  -1   3  283.33    2.34
   2   1   3    2.87    0.30
   2  -1   3    3.00    0.31
   3   1   3   85.72    1.21
   3  -1   3   85.17    1.22
   4   1   3   36.58    0.84
   4  -1   3   36.09    0.85
   5   1   3    9.03    0.53
   5  -1   3    8.93    0.51
   6   1   3    0.81    0.27
   6  -1   3    1.52    0.30
   7   1   3   13.06    0.72
   7  -1   3   13.04    0.71
   8   1   3   75.82    1.65
   8  -1   3   72.71    1.60
   9   1   3    1.91    0.43
   9  -1   3    1.72    0.41
  10   1   3   19.65    1.02
  10  -1   3   19.89    1.00
  11   1   3    2.61    0.55
  11  -1   3    2.92    0.55
  12   1   3    1.86    0.55
  12  -1   3    1.51    0.51
  13   1   3    0.53    0.48
  13  -1   3    0.76    0.49
  14   2  -3   62.62    2.05
  13   2  -3   -0.10    0.45
  13  -2  -3    0.19    0.43
  12   2  -3    0.41    0.45
  12  -2  -3    0.28    0.40
  11   2  -3    5.72    0.68
  11  -2  -3    5.48    0.62
  10   2  -3    3.17    0.53
  10  -2  -3    4.53    0.54
   9   2  -3    0.23    0.33
   9  -2  -3    0.30    0.29
   8   2  -3  470.83    4.59
   8  -2  -3  468.25    4.22
   7   2  -3   19.52    0.83
   7  -2  -3   20.30    0.75
   6   2  -3  412.14    3.83
   6  -2  -3  415.16    3.44
   5   2  -3   40.79    1.01
   5  -2  -3   41.66    0.84
   4   2  -3    7.45    0.46
   4  -2  -3    7.87    0.37
   3   2  -3   65.59    1.11
   3  -2  -3   66.37    0.85
  -2   2   3   66.97    0.77
  -2  -2   3   66.75    1.07
  -1   2   3  282.89    2.13
  -1  -2   3  282.52    2.45
   0   2   3   84.52    0.89
   0  -2   3   86.28    1.16
   1   2   3   60.15    0.80
   1  -2   3   59.83    0.95
   2   2   3  184.00    1.77
   2  -2   3  182.66    1.87
   3   2   3    1.84    0.23
   3  -2   3    1.68    0.24
   4   2   3    2.06    0.27
   4  -2   3    1.61    0.26
   5   2   3    1.08    0.26
   5  -2   3    1.09    0.26
   6   2   3   -0.04    0.22
   6  -2   3   -0.01    0.22
   7   2   3   -0.09    0.25
   7  -2   3    0.02    0.26
   8   2   3   -0.29    0.27
   8  -2   3    0.01    0.28
   9   2   3    0.14    0.32
   9  -2   3    0.34    0.29
  10   2   3    1.71    0.47
  10  -2   3    1.93    0.45
  11   2   3    0.98    0.46
  11  -2   3    1.35    0.45
  12   2   3   -0.42    0.38
  12  -2   3   -0.04    0.41
  13   2   3    5.39    0.77
  13  -2   3    5.71    0.77
  13   3  -3   17.04    1.16
  12   3  -3   21.84    1.20
  11   3  -3   35.03    1.39
  10   3  -3    3.25    0.54
   9   3  -3    0.47    0.35
   8   3  -3    5.06    0.58
   8  -3  -3    4.64    0.50
   7   3  -3   16.96    0.83
   7  -3  -3   17.08    0.66
   6   3  -3    0.56    0.27
   6  -3  -3    0.69    0.22
   5   3  -3   31.45    0.93
   5  -3  -3   31.84    0.69
   4   3  -3    0.40    0.21
   3   3  -3   95.05    1.44
  -2  -3   3  146.51    1.74
  -1  -3   3  113.80    1.47
   0  -3   3    2.75    0.32
   1   3   3    2.94    0.25
   1  -3   3    3.07    0.32
   2   3   3   85.39    1.10
   2  -3   3   81.35    1.20
   3   3   3  109.67    1.42
   3  -3   3  108.85    1.47
   4   3   3  116.68    1.58
   4  -3   3  115.89    1.62
   5   3   3  141.34    1.92
   5  -3   3  140.25    1.89
   6   3   3  118.70    1.87
   6  -3   3  117.89    1.85
   7   3   3   27.99    1.00
   7  -3   3   28.01    0.96
   8   3   3    0.17    0.30
   8  -3   3   -0.02    0.28
   9   3   3   17.80    0.94
   9  -3   3   18.03    0.95
  10   3   3    7.95    0.73
  10  -3   3    8.23    0.75
  11   3   3    1.23    0.47
  11  -3   3    1.12    0.44
  12   3   3   12.23    0.97
  12  -3   3   12.05    0.93
  13   3   3    1.16    0.56
  13  -3   3    1.16    0.55
  13   4  -3    0.76    0.55
  12   4  -3   11.36    0.97
  11   4  -3    0.21    0.42
  10   4  -3   56.28    1.69
   9   4  -3  136.21    2.52
   8   4  -3   -0.01    0.32
   7   4  -3    1.44    0.38
   6   4  -3   24.51    0.93
   5   4  -3   65.40    1.39
   4   4  -3   78.80    1.47
  -3  -4   3   39.63    0.99
  -2  -4   3   44.68    1.00
  -1  -4   3   45.91    0.97
   0  -4   3   18.29    0.61
   1  -4   3    0.25    0.18
   2   4   3  169.39    1.68
   2  -4   3  165.39    1.89
   3   4   3   75.63    1.17
   3  -4   3   70.93    1.21
   4   4   3  116.58    1.63
   4  -4   3  112.29    1.62
   5   4   3   27.22    0.88
   5  -4   3   24.75    0.83
   6   4   3    3.88    0.44
   6  -4   3    4.12    0.46
   7   4   3   15.65    0.81
   7  -4   3   15.72    0.78
   8   4   3    0.15    0.34
   8  -4   3    0.26    0.32
   9   4   3    5.93    0.67
   9  -4   3    6.26    0.65
  10   4   3   42.82    1.47
  10  -4   3   43.18    1.43
  11   4   3    8.49    0.81
  12   4   3    9.85    0.92
  12   5  -3   32.78    1.54
  11   5  -3   25.16    1.31
  10   5  -3    3.93    0.62
   9   5  -3   23.20    1.12
   8   5  -3    1.25    0.41
   7   5  -3   17.87    0.90
   6   5  -3    0.22    0.28
   5   5  -3   72.33    1.53
  -4  -5   3  167.99    2.28
  -3  -5   3    2.27    0.35
  -2  -5   3   10.00    0.60
  -1  -5   3    2.42    0.32
   0  -5   3    0.13    0.20
   1  -5   3   28.47    0.78
   2  -5   3   97.47    1.46
   3  -5   3   48.74    1.05
   4   5   3   32.53    0.88
   5   5   3    3.84    0.43
   6   5   3    0.97    0.32
   7   5   3    2.49    0.44
   8   5   3    0.31    0.35
   9   5   3    2.77    0.54
  10   5   3   25.35    1.19
  11   5   3    2.44    0.59
  11   6  -3    3.17    0.69
  10   6  -3    1.78    0.57
   9   6  -3    2.52    0.56
   8   6  -3    0.47    0.40
   7   6  -3   19.33    0.96
   6   6  -3    4.80    0.60
  -5  -6   3    4.37    0.52
  14   0  -4   13.10    1.06
  13   0  -4   -0.27    0.43
  12   0  -4  244.36    3.67
  11   0  -4    0.02    0.40
  10   0  -4  818.96    6.96
   9   0  -4    0.03    0.31
   8   0  -4   32.44    1.04
   7   0  -4    0.02    0.22
   6   0  -4   63.48    1.25
   5   0  -4   -0.03    0.17
   4   0  -4 1098.08    7.16
   3   0  -4   -0.17    0.13
  -2   0   4  295.17    2.50
  -1   0   4    0.35    0.15
   0   0   4  206.06    1.94
   1   0   4   -0.10    0.12
   2   0   4  260.14    2.38
   3   0   4    0.06    0.15
   4   0   4   27.92    0.81
   5   0   4   -0.05    0.19
   6   0   4   18.56    0.77
   7   0   4    0.12    0.25
   8   0   4  278.90    3.38
   9   0   4    0.09    0.32
  10   0   4  314.37    4.08
  11   0   4   -0.23    0.40
  12   0   4   37.44    1.51
  13   0   4   -0.36    0.44
  14   1  -4    1.98    0.62
  14  -1  -4    2.30    0.64
  13   1  -4    9.93    0.95
  13  -1  -4   11.03    0.99
  12   1  -4    2.40    0.56
  12  -1  -4    2.79    0.59
  11   1  -4    2.11    0.51
  11  -1  -4    2.44    0.53
  10   1  -4   25.16    1.10
  10  -1  -4   27.35    1.10
   9  -1  -4   64.67    1.52
   8   1  -4   61.60    1.47
   8  -1  -4   60.61    1.36
   7   1  -4  247.17    2.92
   7  -1  -4  244.54    2.71
   6   1  -4  136.27    1.96
   6  -1  -4  132.27    1.78
   5   1  -4   19.09    0.70
   5  -1  -4   19.86    0.64
   4   1  -4  378.83    3.33
   4  -1  -4  393.11    3.18
   3   1  -4   79.07    1.24
  -3   1   4   79.20    1.09
  -2   1   4    0.48    0.15
  -2  -1   4    0.30    0.16
  -1   1   4   61.73    0.89
  -1  -1   4   61.55    1.01
   0   1   4   36.85    0.69
   0  -1   4   37.76    0.78
   1   1   4  712.62    4.77
   1  -1   4  712.67    4.92
   2   1   4  419.57    3.25
   2  -1   4  419.98    3.38
   3   1   4    0.38    0.19
   3  -1   4    0.54    0.20
   4   1   4  365.46    3.25
   4  -1   4  358.17    3.23
   5   1   4  139.78    1.91
   5  -1   4  141.07    1.94
   6   1   4    0.85    0.28
   6  -1   4    0.81    0.28
   7   1   4    5.80    0.59
   7  -1   4    6.90    0.58
   8   1   4    6.41    0.63
   8  -1   4    5.88    0.62
   9   1   4   -0.07    0.34
   9  -1   4   -0.15    0.35
  10   1   4   56.05    1.65
  10  -1   4   54.83    1.60
  11   1   4   35.45    1.41
  11  -1   4   34.16    1.38
  12   1   4   16.87    1.11
  12  -1   4   15.55    1.06
  13   1   4   16.32    1.15
  13  -1   4   15.96    1.13
  14   2  -4   24.28    1.38
  13   2  -4   59.28    1.94
  12   2  -4   27.01    1.28
  12  -2  -4   28.34    1.25
  11   2  -4    6.94    0.75
  11  -2  -4    6.77    0.71
  10   2  -4    1.48    0.43
  10  -2  -4    1.93    0.43
   9   2  -4  200.22    2.94
   9  -2  -4  200.77    2.67
   8   2  -4   81.77    1.75
   8  -2  -4   80.57    1.51
   7   2  -4  104.36    1.87
   7  -2  -4  104.98    1.64
   6   2  -4  147.01    2.12
   6  -2  -4  149.03    1.85
   5   2  -4   21.85    0.78
   5  -2  -4   23.54    0.66
   4   2  -4    9.73    0.53
   4  -2  -4    9.29    0.42
  -3   2   4   51.86    0.81
  -3  -2   4   49.48    1.02
  -2   2   4  370.71    2.73
  -2  -2   4  372.03    3.20
  -1   2   4   18.67    0.45
  -1  -2   4   18.78    0.63
   0   2   4 1165.77    7.17
   0  -2   4 1165.61    7.44
   1   2   4    5.04    0.34
   1  -2   4    4.99    0.40
   2   2   4   44.90    0.83
   2  -2   4   44.62    0.93
   3   2   4   30.25    0.75
   3  -2   4   28.41    0.79
   4   2   4   10.36    0.52
   4  -2   4   10.73    0.57
   5   2   4  264.20    2.80
   5  -2   4  265.79    2.84
   6   2   4  198.18    2.52
   6  -2   4  190.78    2.49
   7   2   4  473.04    4.49
   7  -2   4  471.82    4.52
   8  -2   4   65.44    1.61
   9   2   4   25.07    1.08
   9  -2   4   24.13    1.06
  10   2   4    1.29    0.44
  10  -2   4    1.35    0.41
  11   2   4   -0.04    0.38
  11  -2   4    0.10    0.41
  12   2   4   10.44    0.96
  12  -2   4   11.39    0.96
  13   2   4    0.05    0.49
  13  -2   4    0.22    0.50
  13   3  -4   42.20    1.71
  12   3  -4   19.84    1.19
  11   3  -4    5.48    0.68
  10   3  -4    0.91    0.43
   9   3  -4   13.84    0.86
   8   3  -4   13.81    0.82
   7   3  -4  359.54    3.88
   6   3  -4  375.06    3.85
   6  -3  -4  378.68    3.17
   5   3  -4  229.77    2.73
   5  -3  -4  237.21    2.16
   4   3  -4  239.18    2.67
  -4   3   4  238.17    2.00
  -3  -3   4   18.89    0.71
  -2  -3   4    0.12    0.19
  -1  -3   4   58.75    1.11
   0  -3   4  167.18    1.94
   1   3   4   -0.02    0.13
   1  -3   4   -0.07    0.16
   2   3   4    2.53    0.31
   2  -3   4    2.10    0.29
   3   3   4   45.56    0.92
   3  -3   4   45.42    1.02
   4   3   4  225.88    2.41
   4  -3   4  224.87    2.51
   5   3   4  160.35    2.11
   5  -3   4  159.03    2.15
   6   3   4    5.96    0.59
   6  -3   4    5.56    0.54
   7   3   4   23.01    0.92
   7  -3   4   21.22    0.91
   8   3   4    1.08    0.37
   8  -3   4    1.02    0.37
   9   3   4    0.48    0.36
   9  -3   4    0.00    0.34
  10   3   4   26.37    1.18
  10  -3   4   25.93    1.18
  11   3   4   21.94    1.16
  11  -3   4   22.91    1.18
  12   3   4    7.87    0.88
  12  -3   4    8.75    0.89
  13   4  -4    2.48    0.66
  12   4  -4   26.25    1.36
  11   4  -4    3.67    0.65
  10   4  -4   53.49    1.68
   9   4  -4    5.61    0.68
   8   4  -4    1.90    0.44
   7   4  -4    2.63    0.44
   6   4  -4   42.99    1.24
   5   4  -4   21.55    0.87
  -4  -4   4   32.47    0.99
  -3  -4   4  332.96    3.28
  -2  -4   4   96.77    1.56
  -1  -4   4   16.38    0.66
   0  -4   4   29.24    0.82
   1  -4   4   36.25    0.90
   2   4   4  106.14    1.32
   2  -4   4  104.27    1.59
   3   4   4   24.05    0.71
   3  -4   4   23.48    0.79
   4   4   4  379.92    3.40
   4  -4   4  378.31    3.55
   5   4   4   32.18    0.98
   5  -4   4   31.68    1.01
   6   4   4   50.65    1.28
   6  -4   4   50.27    1.27
   7   4   4   -0.05    0.28
   7  -4   4    0.07    0.30
   8   4   4   25.30    1.06
   8  -4   4   26.22    1.06
   9   4   4    0.13    0.37
   9  -4   4    0.09    0.37
  10   4   4    3.39    0.58
  10  -4   4    3.98    0.58
  11   4   4    1.71    0.54
  12   4   4    9.66    0.94
  12   5  -4    1.84    0.63
  11   5  -4    5.93    0.79
  10   5  -4   -0.07    0.41
   9   5  -4   11.05    0.88
   8   5  -4    0.27    0.35
   7   5  -4   25.45    1.09
   6   5  -4    1.36    0.38
  -5  -5   4   74.52    1.62
  -4  -5   4   66.08    1.47
  -3  -5   4  211.21    2.61
  -2  -5   4  127.89    1.91
  -1  -5   4   25.16    0.84
   0  -5   4   33.92    0.93
   1  -5   4  308.23    3.05
   2  -5   4  212.56    2.46
   3  -5   4  377.52    3.54
   4  -5   4   -0.05    0.27
   5   5   4    4.99    0.54
   6   5   4   10.74    0.71
   7   5   4    8.49    0.68
   8   5   4   22.92    1.03
   9   5   4   24.09    1.11
  10   5   4    9.88    0.85
  11   5   4    0.06    0.46
  10   6  -4   -0.06    0.45
   9   6  -4   49.48    1.64
   8   6  -4    3.58    0.58
  -7  -6   4   85.51    2.00
  -6  -6   4   12.73    0.86
  -5  -6   4    1.29    0.40
  -4  -6   4   26.92    1.03
  -3  -6   4   20.56    0.87
  14   0  -5   -0.03    0.49
  13   0  -5    0.53    0.47
  12   0  -5    0.15    0.41
  11   0  -5    3.89    0.60
  10   0  -5   -0.38    0.35
   9   0  -5   -0.23    0.30
   8   0  -5    0.09    0.26
   7   0  -5    1.14    0.30
   6   0  -5    0.01    0.20
   5   0  -5  127.26    1.77
  -4   0   5   -0.10    0.17
  -3   0   5  181.18    2.00
  -2   0   5   -0.12    0.15
  -1   0   5  203.70    2.05
   0   0   5    0.14    0.16
   1   0   5  436.34    3.49
   2   0   5   -0.15    0.16
   3   0   5  968.25    6.62
   4   0   5   -0.03    0.19
   5   0   5   88.14    1.57
   6   0   5   -0.03    0.24
   7   0   5   37.16    1.16
   8   0   5    0.29    0.31
   9   0   5   39.39    1.37
  10   0   5   -0.09    0.39
  11   0   5   74.09    2.03
  12   0   5   -0.31    0.38
  13   0   5    3.51    0.72
  14   1  -5   -0.30    0.44
  14  -1  -5   -0.43    0.47
  13   1  -5   31.15    1.44
  13  -1  -5   28.11    1.34
  12   1  -5    1.41    0.51
  12  -1  -5    1.35    0.52
  11   1  -5   52.53    1.64
  11  -1  -5   50.95    1.55
  10   1  -5   21.41    1.05
  10  -1  -5   20.11    0.97
   9  -1  -5   61.31    1.49
   8   1  -5  135.78    2.26
   8  -1  -5  137.28    2.13
   7   1  -5    3.87    0.46
   7  -1  -5    3.75    0.42
   6   1  -5    2.83    0.37
   6  -1  -5    2.11    0.32
   5   1  -5    0.07    0.20
   5  -1  -5    0.28    0.20
  -4   1   5  104.73    1.43
  -4  -1   5  105.54    1.60
  -3   1   5  171.27    1.83
  -3  -1   5  166.06    2.00
  -2   1   5  285.62    2.48
  -2  -1   5  286.09    2.70
  -1   1   5  208.19    1.99
  -1  -1   5  207.95    2.19
   0   1   5   59.32    0.99
   0  -1   5   57.68    1.07
   1   1   5   69.19    1.10
   1  -1   5   67.42    1.17
   2   1   5  192.83    2.05
   2  -1   5  195.53    2.19
   3   1   5   40.81    0.94
   3  -1   5   40.58    0.97
   4   1   5    9.08    0.53
   4  -1   5    8.96    0.56
   5   1   5    0.57    0.26
   5  -1   5    0.42    0.25
   6   1   5   99.21    1.78
   6  -1   5   98.64    1.80
   7   1   5  145.74    2.29
   7  -1   5  144.87    2.32
   8  -1   5  213.95    2.99
   9   1   5  379.95    4.37
   9  -1   5  383.91    4.39
  10   1   5   31.67    1.31
  10  -1   5   31.06    1.30
  11   1   5   77.44    2.07
  11  -1   5   77.50    2.05
  12   1   5   53.13    1.83
  12  -1   5   53.60    1.87
  13   1   5    8.34    0.95
  13  -1   5    7.33    0.90
  14   2  -5   11.16    1.04
  13   2  -5    1.94    0.60
  12   2  -5    7.88    0.82
  11   2  -5    0.60    0.42
  11  -2  -5    0.68    0.40
  10   2  -5    1.58    0.44
  10  -2  -5    1.62    0.43
   9   2  -5   25.56    1.09
   9  -2  -5   25.33    0.97
   8   2  -5   50.54    1.42
   8  -2  -5   51.70    1.27
   7   2  -5   36.23    1.17
   7  -2  -5   35.30    0.99
   6   2  -5  162.48    2.34
   6  -2  -5  163.74    2.01
   5   2  -5   -0.18    0.20
   5  -2  -5    0.08    0.18
  -4   2   5   46.49    0.89
  -4  -2   5   45.63    1.09
  -3   2   5    5.01    0.36
  -3  -2   5    5.12    0.44
  -2   2   5  276.39    2.33
  -2  -2   5  273.26    2.73
  -1   2   5   10.07    0.41
  -1  -2   5    9.52    0.53
   0   2   5    0.33    0.16
   0  -2   5    0.40    0.21
   1   2   5   52.36    0.92
   1  -2   5   52.71    1.09
   2   2   5    8.99    0.47
   2  -2   5    9.28    0.53
   3   2   5    0.07    0.17
   3  -2   5   -0.06    0.19
   4   2   5   97.44    1.56
   4  -2   5  100.86    1.66
   5   2   5    6.83    0.53
   5  -2   5    7.05    0.57
   6   2   5  388.67    3.87
   6  -2   5  382.44    3.91
   7   2   5    5.66    0.62
   7  -2   5    3.58    0.49
   8   2   5    1.18    0.38
   8  -2   5    1.06    0.40
   9   2   5    2.06    0.47
   9  -2   5    1.59    0.46
  10   2   5    0.62    0.36
  10  -2   5    0.38    0.41
  11   2   5    9.25    0.87
  11  -2   5   10.36    0.92
  12   2   5  128.09    2.83
  12  -2   5  127.82    2.78
  13   3  -5   15.23    1.13
  12   3  -5    0.63    0.48
  11   3  -5    0.59    0.42
  10   3  -5    1.28    0.44
   9   3  -5   12.12    0.84
   8   3  -5   11.61    0.80
   7   3  -5   63.29    1.56
   6   3  -5   34.12    1.13
   5   3  -5   73.15    1.54
  -5   3   5   73.99    1.12
  -4   3   5    1.33    0.21
  -4  -3   5    1.12    0.30
  -3   3   5   34.19    0.64
  -3  -3   5   33.48    0.97
  -2  -3   5   78.49    1.43
  -1   3   5  317.84    2.44
  -1  -3   5  319.56    3.10
   0   3   5   45.65    0.77
   0  -3   5   45.03    1.04
   1   3   5  120.82    1.41
   1  -3   5  119.01    1.72
   2   3   5   33.56    0.78
   2  -3   5   32.42    0.91
   3   3   5   10.15    0.51
   3  -3   5   10.83    0.60
   4   3   5   43.43    1.04
   4  -3   5   41.50    1.10
   5   3   5  119.91    1.87
   5  -3   5  118.67    1.94
   6   3   5  216.23    2.73
   6  -3   5  213.19    2.78
   7   3   5    0.58    0.33
   7  -3   5    0.79    0.36
   8   3   5   27.62    1.12
   8  -3   5   28.25    1.11
   9   3   5   74.39    1.86
   9  -3   5   73.93    1.85
  10   3   5    3.30    0.58
  10  -3   5    2.56    0.56
  11   3   5    0.31    0.44
  11  -3   5    0.23    0.45
  12   3   5    3.20    0.65
  12  -3   5    3.04    0.68
  12   4  -5    5.30    0.76
  11   4  -5   14.82    1.06
  10   4  -5   24.42    1.21
   9   4  -5    4.00    0.59
   8   4  -5    9.24    0.75
   7   4  -5    4.94    0.60
   6   4  -5   41.80    1.29
  -5  -4   5  294.72    3.40
  -4  -4   5  311.24    3.40
  -3  -4   5   89.14    1.65
  -2  -4   5   50.83    1.20
  -1  -4   5   25.04    0.84
   0  -4   5   14.17    0.66
   1   4   5    3.08    0.32
   1  -4   5    3.04    0.37
   2   4   5  143.41    1.65
   2  -4   5  144.88    2.04
   3   4   5   48.62    1.03
   3  -4   5   48.05    1.18
   4   4   5  169.88    2.13
   4  -4   5  168.84    2.32
   5   4   5   39.55    1.09
   5  -4   5   39.09    1.15
   6   4   5    3.16    0.43
   6  -4   5    3.08    0.46
   7   4   5   47.25    1.37
   7  -4   5   47.03    1.37
   8   4   5    3.21    0.52
   8  -4   5    2.88    0.50
   9   4   5    0.35    0.38
   9  -4   5    0.00    0.36
  10   4   5   24.74    1.19
  10  -4   5   24.80    1.24
  11   4   5   21.36    1.19
  11  -4   5   23.87    1.26
  11   5  -5   11.43    1.00
  10   5  -5   16.80    1.07
   9   5  -5   38.05    1.46
   8   5  -5    9.07    0.79
  -6  -5   5    3.65    0.51
  -5  -5   5   34.62    1.18
  -4  -5   5    2.15    0.42
  -3  -5   5    8.82    0.67
  -2  -5   5   25.44    0.95
  -1  -5   5   22.23    0.86
   0  -5   5    1.78    0.35
   1  -5   5   24.80    0.88
   2  -5   5   32.52    1.01
   3  -5   5   76.56    1.55
   4  -5   5   -0.07    0.28
   5  -5   5   21.99    0.94
   6   5   5   16.03    0.82
   6  -5   5   15.56    0.86
   7   5   5    1.92    0.46
   8   5   5    8.25    0.74
   9   5   5   22.40    1.12
  10   5   5   21.22    1.16
  10   6  -5    8.73    0.85
  -8  -6   5    7.01    0.81
  -7  -6   5   -0.16    0.41
  -6  -6   5    5.10    0.64
  -5  -6   5    1.28    0.42
  -4  -6   5   21.53    0.99
  -3  -6   5   94.17    1.84
  -2  -6   5  160.56    2.39
  14   0  -6   25.78    1.37
  13   0  -6    0.47    0.45
  12   0  -6    0.78    0.45
  11   0  -6    0.09    0.38
  10   0  -6   -0.03    0.34
   9   0  -6   -0.45    0.28
   8   0  -6   -0.05    0.27
   7   0  -6   -0.09    0.23
   6   0  -6    3.03    0.39
  -5   0   6   -0.15    0.20
  -4   0   6   40.82    1.00
  -3   0   6    0.05    0.19
  -2   0   6   43.07    0.98
  -1   0   6   -0.06    0.17
   0   0   6    1.23    0.25
   1   0   6    0.06    0.17
   2   0   6   47.16    1.07
   3   0   6   -0.01    0.20
   4   0   6   50.24    1.20
   5   0   6    0.01    0.23
   6   0   6   11.02    0.70
   7   0   6   -0.19    0.29
   9   0   6    0.13    0.36
  10   0   6  289.63    4.04
  11   0   6    0.19    0.44
  12   0   6    3.39    0.69
  14   1  -6    0.23    0.49
  14  -1  -6    0.49    0.51
  13   1  -6   27.78    1.38
  13  -1  -6   27.83    1.32
  12   1  -6    0.71    0.45
  12  -1  -6    0.43    0.44
  11   1  -6    0.59    0.43
  11  -1  -6    0.45    0.40
  10   1  -6    0.21    0.36
  10  -1  -6    0.94    0.38
   9   1  -6   34.32    1.25
   9  -1  -6   33.75    1.15
   8   1  -6    0.86    0.34
   8  -1  -6    0.53    0.32
   7   1  -6   20.97    0.89
   7  -1  -6   20.99    0.83
   6   1  -6   -0.04    0.23
   6  -1  -6   -0.10    0.20
  -5   1   6    0.02    0.20
  -5  -1   6    0.05    0.23
  -4   1   6    1.37    0.26
  -4  -1   6    1.28    0.28
  -3   1   6   31.73    0.81
  -3  -1   6   31.90    0.91
  -2   1   6    4.68    0.41
  -2  -1   6    3.85    0.43
  -1   1   6    8.16    0.46
  -1  -1   6    8.10    0.51
   0   1   6   25.17    0.72
   0  -1   6   25.49    0.79
   1   1   6    2.38    0.29
   1  -1   6    2.32    0.32
   2   1   6   13.16    0.59
   2  -1   6   13.63    0.64
   3   1   6   23.84    0.78
   3  -1   6   23.83    0.83
   4   1   6   39.60    1.05
   4  -1   6   39.34    1.09
   5   1   6   61.33    1.39
   5  -1   6   60.96    1.41
   6   1   6    2.05    0.39
   6  -1   6    2.76    0.42
   7   1   6    7.94    0.66
   7  -1   6    8.49    0.69
   8   1   6   16.07    0.89
   8  -1   6   16.11    0.95
   9   1   6    6.98    0.74
   9  -1   6    6.98    0.75
  10   1   6   19.39    1.10
  10  -1   6   17.97    1.08
  11   1   6    3.16    0.63
  11  -1   6    2.93    0.61
  12   1   6   23.00    1.28
  12  -1   6   24.04    1.33
  13   2  -6   -0.01    0.43
  12   2  -6    1.41    0.51
  11   2  -6   10.45    0.86
  10   2  -6   -0.01    0.37
  10  -2  -6   -0.04    0.32
   9   2  -6    9.43    0.76
   9  -2  -6   10.60    0.73
   8   2  -6   19.45    0.95
   8  -2  -6   18.64    0.83
   7   2  -6    0.91    0.35
   7  -2  -6    0.95    0.30
   6   2  -6    8.86    0.62
  -6   2   6    8.51    0.54
  -5   2   6   31.52    0.84
  -5  -2   6   32.09    1.03
  -4   2   6   27.57    0.75
  -4  -2   6   28.05    0.93
  -3   2   6    2.20    0.28
  -3  -2   6    1.68    0.32
  -2   2   6    0.28    0.17
  -2  -2   6    0.30    0.22
  -1   2   6    5.61    0.39
  -1  -2   6    5.57    0.47
   0   2   6   93.30    1.31
   0  -2   6   90.90    1.52
   1   2   6   19.29    0.63
   1  -2   6   19.63    0.76
   2   2   6   15.74    0.62
   2  -2   6   15.92    0.70
   3   2   6    0.11    0.19
   3  -2   6   -0.01    0.22
   4   2   6   11.38    0.61
   4  -2   6   10.91    0.65
   5   2   6    2.13    0.37
   5  -2   6    2.08    0.39
   6   2   6   33.07    1.11
   6  -2   6   32.93    1.13
   7   2   6   60.15    1.53
   7  -2   6   59.70    1.56
   8   2   6   15.30    0.90
   8  -2   6   15.38    0.92
   9   2   6    0.20    0.36
   9  -2   6   -0.15    0.35
  10   2   6    0.27    0.41
  10  -2   6    0.24    0.42
  11   2   6   89.50    2.29
  11  -2   6   93.80    2.35
  12   2   6   33.04    1.54
  12  -2   6   32.92    1.51
  13   3  -6    9.06    0.97
  12   3  -6    0.95    0.51
  11   3  -6    4.10    0.64
  10   3  -6   10.00    0.84
   9   3  -6    0.70    0.39
   8   3  -6    6.86    0.69
   7   3  -6   12.74    0.80
  -7   3   6   12.27    0.64
  -6   3   6   12.14    0.59
  -6  -3   6   12.08    0.76
  -5   3   6   33.87    0.81
  -5  -3   6   33.65    1.11
  -4   3   6    2.07    0.26
  -4  -3   6    1.68    0.35
  -3   3   6    4.89    0.39
  -3  -3   6    4.98    0.53
  -2   3   6   21.52    0.58
  -2  -3   6   21.07    0.81
  -1   3   6   13.26    0.47
  -1  -3   6   13.57    0.66
   0   3   6    4.74    0.36
   0  -3   6    5.21    0.48
   1   3   6   10.63    0.49
   1  -3   6    9.84    0.59
   2   3   6   53.40    1.06
   2  -3   6   53.41    1.26
   3   3   6    6.22    0.48
   3  -3   6    5.96    0.54
   4   3   6   -0.02    0.22
   4  -3   6   -0.20    0.24
   5   3   6   23.26    0.86
   5  -3   6   24.29    0.96
   6   3   6    3.26    0.46
   6  -3   6    4.27    0.52
   7   3   6   34.90    1.19
   7  -3   6   33.32    1.21
   8   3   6  101.51    2.11
   8  -3   6   99.39    2.14
   9   3   6    0.83    0.44
   9  -3   6    0.48    0.41
  10   3   6    0.10    0.40
  10  -3   6    0.30    0.45
  11   3   6    7.95    0.87
  11  -3   6    7.46    0.86
  12   4  -6    6.57    0.81
  11   4  -6   23.30    1.25
  10   4  -6   13.76    0.96
   9   4  -6   12.16    0.89
   8   4  -6    6.69    0.72
  -7  -4   6   85.82    1.96
  -6  -4   6   32.62    1.20
  -5  -4   6    8.35    0.69
  -4  -4   6    7.25    0.64
  -3  -4   6    2.95    0.43
  -2  -4   6    6.88    0.59
  -1  -4   6   14.03    0.73
   0  -4   6    1.40    0.30
   1   4   6   19.70    0.61
   1  -4   6   20.58    0.83
   2   4   6   41.89    0.92
   2  -4   6   41.06    1.16
   3   4   6    0.15    0.22
   3  -4   6    0.11    0.27
   4   4   6    4.40    0.50
   4  -4   6    4.47    0.49
   5   4   6   14.26    0.76
   5  -4   6   13.82    0.81
   6   4   6    0.91    0.36
   6  -4   6    0.79    0.37
   7   4   6    8.06    0.69
   7  -4   6    8.29    0.74
   8   4   6   18.82    0.99
   8  -4   6   18.20    1.00
   9   4   6   11.62    0.88
   9  -4   6   11.69    0.92
  10   4   6   13.14    0.95
  10  -4   6   13.84    1.04
  11   5  -6   -0.08    0.49
  10   5  -6   21.42    1.22
   9   5  -6    8.23    0.81
  -8  -5   6   41.23    1.50
  -7  -5   6    0.70    0.43
  -6  -5   6    1.03    0.42
  -5  -5   6    8.39    0.72
  -4  -5   6   52.27    1.43
  -3  -5   6   40.03    1.23
  -2  -5   6  138.26    2.22
  -1  -5   6   -0.38    0.25
   0  -5   6    0.47    0.32
   1  -5   6   30.13    1.04
   2  -5   6   13.43    0.77
   3  -5   6   11.98    0.74
   4  -5   6   17.23    0.88
   5  -5   6    4.38    0.55
   6  -5   6   12.98    0.86
   7  -5   6    0.84    0.43
 -10  -6   6   59.62    2.00
  -9  -6   6    3.61    0.69
  -8  -6   6   51.02    1.73
  -7  -6   6    0.21    0.40
  -6  -6   6   -0.04    0.38
  -5  -6   6    0.65    0.41
  -4  -6   6    0.27    0.36
  -3  -6   6    0.08    0.34
  -2  -6   6   -0.06    0.32
  -1  -6   6   53.62    1.41
   0  -6   6    0.72    0.38
  13   0  -7    0.64    0.51
  12   0  -7   -0.46    0.38
  11   0  -7   36.34    1.41
  10   0  -7    0.02    0.34
   9   0  -7   20.12    0.97
   8   0  -7   -0.15    0.29
   7   0  -7  117.62    2.04
  -6   0   7   -0.10    0.23
  -5   0   7   58.63    1.30
  -4   0   7   -0.16    0.20
  -3   0   7    5.71    0.50
  -2   0   7    0.05    0.20
  -1   0   7  467.34    4.02
   0   0   7   -0.15    0.20
   1   0   7   31.45    0.93
   2   0   7    0.02    0.21
   3   0   7    0.82    0.28
   4   0   7    0.20    0.25
   5   0   7   12.17    0.74
   6   0   7   -0.04    0.28
   7   0   7    1.60    0.43
   8   0   7    0.22    0.36
   9   0   7    2.75    0.57
  10   0   7    0.28    0.42
  11   0   7   11.43    0.97
  13   1  -7   30.09    1.46
  13  -1  -7   30.93    1.41
  12   1  -7   33.36    1.45
  12  -1  -7   33.74    1.39
  11   1  -7   11.56    0.91
  11  -1  -7   12.47    0.92
  10   1  -7   -0.15    0.33
  10  -1  -7   -0.10    0.33
   9   1  -7    8.13    0.73
   9  -1  -7    9.07    0.73
   8   1  -7    4.64    0.56
   8  -1  -7    4.27    0.51
   7   1  -7   22.10    0.95
  -7   1   7   22.62    0.90
  -6   1   7    8.25    0.58
  -6  -1   7    8.59    0.64
  -5   1   7    5.47    0.49
  -5  -1   7    5.21    0.53
  -4   1   7  138.02    1.90
  -4  -1   7  138.64    2.08
  -3   1   7  109.49    1.64
  -3  -1   7  109.33    1.78
  -2   1   7  138.68    1.85
  -2  -1   7  138.31    2.00
  -1   1   7   45.42    1.03
  -1  -1   7   45.44    1.11
   0   1   7    3.60    0.41
   0  -1   7    3.89    0.46
   1   1   7    7.25    0.50
   1  -1   7    7.52    0.57
   2   1   7    2.07    0.33
   2  -1   7    1.94    0.35
   3   1   7   37.31    1.04
   3  -1   7   36.92    1.09
   4   1   7   13.86    0.72
   4  -1   7   13.75    0.75
   5   1   7    7.83    0.62
   5  -1   7    8.41    0.66
   6   1   7    5.93    0.62
   6  -1   7    5.89    0.62
   7   1   7    4.15    0.55
   7  -1   7    4.63    0.57
   8   1   7   16.14    0.94
   8  -1   7   15.35    0.95
   9   1   7    0.78    0.42
   9  -1   7    0.30    0.42
  10   1   7    0.50    0.43
  10  -1   7    0.14    0.43
  11   1   7    4.08    0.70
  11  -1   7    3.98    0.71
  13   2  -7   -0.16    0.47
  12   2  -7    0.56    0.47
  11   2  -7   60.76    1.85
  10   2  -7   12.19    0.89
   9   2  -7    7.11    0.69
   9  -2  -7    7.22    0.67
   8   2  -7   26.78    1.13
  -7   2   7   14.49    0.73
  -7  -2   7   13.85    0.85
  -6   2   7   25.73    0.87
  -6  -2   7   26.50    1.04
  -5   2   7   22.32    0.78
  -5  -2   7   22.97    0.93
  -4   2   7    4.11    0.44
  -4  -2   7    3.97    0.46
  -3   2   7    4.14    0.43
  -3  -2   7    4.01    0.45
  -2   2   7   85.65    1.34
  -2  -2   7   83.36    1.59
  -1   2   7   11.93    0.56
  -1  -2   7   12.71    0.66
   0   2   7    5.62    0.43
   0  -2   7    5.83    0.52
   1   2   7    1.14    0.27
   1  -2   7    1.18    0.31
   2   2   7   29.30    0.85
   2  -2   7   29.76    0.98
   3   2   7   -0.11    0.21
   3  -2   7   -0.17    0.23
   4   2   7   30.25    0.98
   4  -2   7   31.68    1.07
   5   2   7   26.30    0.98
   5  -2   7   26.02    1.01
   6   2   7    3.94    0.50
   6  -2   7    3.88    0.54
   7   2   7    0.77    0.37
   7  -2   7    0.58    0.37
   8   2   7    0.04    0.35
   8  -2   7    0.12    0.36
   9   2   7    2.37    0.53
   9  -2   7    2.71    0.56
  10   2   7    9.00    0.91
  10  -2   7    8.25    0.87
  11   2   7   -0.37    0.43
  11  -2   7   -0.24    0.48
  12   3  -7    1.49    0.54
  11   3  -7   27.19    1.35
  10   3  -7    3.67    0.62
   9   3  -7    0.47    0.39
  -7  -3   7  144.40    2.54
  -6  -3   7  116.68    2.17
  -5   3   7  274.47    2.66
  -5  -3   7  270.73    3.37
  -4   3   7  189.36    2.06
  -4  -3   7  188.46    2.66
  -3   3   7    1.94    0.28
  -3  -3   7    1.86    0.38
  -2   3   7    0.33    0.19
  -2  -3   7    0.03    0.24
  -1   3   7   13.81    0.54
  -1  -3   7   14.12    0.72
   0   3   7    8.11    0.47
   0  -3   7    8.15    0.59
   1   3   7    6.26    0.47
   1  -3   7    6.77    0.57
   2   3   7   29.95    0.87
   2  -3   7   29.94    1.02
   3   3   7   13.36    0.66
   3  -3   7   13.51    0.76
   4   3   7    3.87    0.44
   4  -3   7    3.54    0.47
   5   3   7    0.04    0.27
   5  -3   7    0.08    0.32
   6   3   7    0.35    0.31
   6  -3   7    0.41    0.35
   7   3   7    0.10    0.34
   7  -3   7    0.12    0.36
   8   3   7    1.49    0.47
   8  -3   7    1.40    0.49
   9   3   7    0.70    0.44
   9  -3   7    0.07    0.45
  10   3   7    1.29    0.50
  10  -3   7    0.69    0.52
  11   3   7    3.13    0.66
  11  -3   7    3.34    0.71
  12   4  -7   10.75    1.02
  11   4  -7    3.22    0.66
  10   4  -7    3.26    0.62
  -9  -4   7    0.11    0.41
  -8  -4   7  130.82    2.58
  -7  -4   7   25.77    1.16
  -6  -4   7   16.00    0.93
  -5  -4   7    2.05    0.44
  -4  -4   7    0.42    0.33
  -3  -4   7    4.98    0.57
  -2  -4   7   25.75    0.99
  -1  -4   7   40.29    1.19
   0  -4   7   45.50    1.26
   1  -4   7   32.04    1.07
   2   4   7    4.30    0.44
   2  -4   7    4.45    0.51
   3   4   7   32.01    0.94
   3  -4   7   32.26    1.12
   4   4   7    2.90    0.40
   4  -4   7    2.14    0.43
   5   4   7    0.04    0.28
   5  -4   7    0.25    0.32
   6   4   7    2.61    0.46
   6  -4   7    2.62    0.51
   7   4   7    1.65    0.46
   7  -4   7    1.53    0.48
   8   4   7   12.18    0.87
   8  -4   7   11.61    0.92
   9   4   7    0.52    0.44
   9  -4   7    0.45    0.47
  10   4   7   16.46    1.10
  10  -4   7   17.69    1.18
 -11  -5   7    0.71    0.55
 -10  -5   7   -0.39    0.47
  -9  -5   7   63.91    1.96
  -8  -5   7  115.31    2.52
  -7  -5   7   36.59    1.42
  -6  -5   7   28.80    1.22
  -5  -5   7    0.80    0.39
  -4  -5   7   29.67    1.16
  -3  -5   7   -0.18    0.30
  -2  -5   7   -0.10    0.29
  -1  -5   7    3.42    0.47
   0  -5   7   11.16    0.73
   1  -5   7   11.51    0.75
   2  -5   7    8.08    0.69
   3  -5   7    1.58    0.42
   4  -5   7   26.30    1.10
   5  -5   7   10.20    0.82
   6  -5   7    1.32    0.46
   7  -5   7   -0.19    0.39
  -9  -6   7   70.94    2.18
  -8  -6   7   27.89    1.38
  -7  -6   7   -0.22    0.45
  -6  -6   7    0.05    0.40
  -5  -6   7    3.45    0.58
  -4  -6   7   39.41    1.39
  -3  -6   7   32.85    1.23
  -2  -6   7   11.28    0.78
  -1  -6   7    7.90    0.70
   0  -6   7    6.97    0.69
   1  -6   7    0.34    0.35
  13   0  -8    0.12    0.50
  12   0  -8   16.10    1.04
  11   0  -8    0.23    0.43
  10   0  -8   19.22    1.03
  -8   0   8    2.07    0.45
  -7   0   8    0.04    0.29
  -6   0   8    5.61    0.56
  -5   0   8    0.05    0.26
  -4   0   8    0.52    0.30
  -3   0   8   -0.07    0.25
  -2   0   8  886.21    6.59
  -1   0   8   -0.20    0.27
   0   0   8  455.99    4.16
   1   0   8   -0.06    0.27
   2   0   8   10.85    0.67
   3   0   8    0.09    0.26
   4   0   8   68.40    1.56
   5   0   8   -0.04    0.30
   6   0   8   98.66    2.05
   7   0   8    0.13    0.35
   8   0   8   25.39    1.18
   9   0   8    0.08    0.41
  10   0   8    0.38    0.46
  11   0   8   -0.12    0.42
  13   1  -8    3.17    0.68
  12   1  -8    8.07    0.90
  12  -1  -8    8.39    0.88
  11   1  -8    8.01    0.83
  11  -1  -8    7.40    0.79
  10   1  -8   23.69    1.16
  10  -1  -8   23.86    1.12
  -9   1   8   48.18    1.42
  -8   1   8   56.89    1.47
  -8  -1   8   57.81    1.60
  -7   1   8    3.49    0.48
  -7  -1   8    3.24    0.49
  -6   1   8   56.37    1.34
  -5   1   8   62.08    1.37
  -5  -1   8   63.06    1.50
  -4   1   8   -0.18    0.23
  -4  -1   8    0.02    0.26
  -3   1   8   56.59    1.26
  -3  -1   8   56.56    1.38
  -2   1   8   62.44    1.31
  -2  -1   8   61.70    1.41
  -1   1   8    0.00    0.23
  -1  -1   8    0.02    0.25
   0   1   8  325.76    3.26
   0  -1   8  325.46    3.45
   1   1   8  299.42    3.19
   1  -1   8  304.74    3.37
   2   1   8   30.93    1.00
   2  -1   8   32.41    1.09
   3   1   8   40.83    1.16
   3  -1   8   41.70    1.24
   4   1   8    6.75    0.61
   4  -1   8    6.52    0.62
   5   1   8   10.87    0.74
   5  -1   8   10.44    0.75
   6   1   8    7.83    0.69
   6  -1   8    7.09    0.71
   7   1   8   27.93    1.19
   7  -1   8   27.55    1.20
   8   1   8    3.71    0.58
   8  -1   8    3.20    0.58
   9   1   8    7.66    0.83
   9  -1   8    8.66    0.85
  10   1   8    2.25    0.63
  10  -1   8    1.92    0.58
  11   1   8   12.94    1.07
  11  -1   8   13.47    1.11
  12   2  -8   39.06    1.64
  11   2  -8    6.49    0.80
  10   2  -8   80.06    2.10
 -10   2   8   81.77    1.85
  -9   2   8    0.43    0.36
  -9  -2   8    0.70    0.43
  -8   2   8    0.86    0.36
  -8  -2   8    0.78    0.41
  -7   2   8    3.31    0.44
  -7  -2   8    3.24    0.52
  -6   2   8   10.95    0.67
  -6  -2   8   10.25    0.73
  -5   2   8  312.03    3.17
  -5  -2   8  311.88    3.64
  -4   2   8  237.31    2.64
  -4  -2   8  237.92    3.08
  -3   2   8  489.48    4.12
  -3  -2   8  489.30    4.65
  -2   2   8   32.61    0.94
  -2  -2   8   31.13    1.06
  -1   2   8    0.70    0.27
  -1  -2   8    0.62    0.31
   0   2   8    1.83    0.32
   0  -2   8    2.42    0.42
   1   2   8    5.30    0.49
   1  -2   8    5.21    0.56
   2   2   8   17.03    0.76
   2  -2   8   16.10    0.83
   3   2   8   19.23    0.84
   3  -2   8   20.35    0.93
   4   2   8    7.58    0.63
   4  -2   8    7.64    0.68
   5   2   8    4.61    0.57
   5  -2   8    4.56    0.57
   6   2   8    0.91    0.38
   6  -2   8    0.93    0.40
   7   2   8    2.12    0.48
   7  -2   8    2.18    0.50
   8   2   8   20.64    1.08
   8  -2   8   20.34    1.11
   9   2   8    2.02    0.58
   9  -2   8    1.58    0.54
  10   2   8   12.30    1.01
  10  -2   8   10.64    0.99
  12   3  -8   -0.06    0.45
  11   3  -8    2.04    0.59
 -10  -3   8   22.30    1.24
  -9  -3   8   22.92    1.19
  -8  -3   8    0.38    0.41
  -7  -3   8   18.84    1.03
  -6  -3   8   90.81    2.00
  -5  -3   8   22.38    1.03
  -4   3   8    6.45    0.56
  -4  -3   8    5.95    0.64
  -3   3   8    4.79    0.47
  -3  -3   8    4.74    0.59
  -2   3   8   -0.09    0.21
  -2  -3   8   -0.08    0.27
  -1   3   8    0.29    0.23
  -1  -3   8    0.46    0.30
   0   3   8   91.65    1.48
   1   3   8   64.40    1.28
   2   3   8    2.39    0.37
   2  -3   8    2.13    0.42
   3   3   8  164.02    2.31
   3  -3   8  161.90    2.57
   4   3   8   39.58    1.18
   4  -3   8   39.47    1.30
   5   3   8   33.68    1.14
   5  -3   8   32.39    1.23
   6   3   8   18.23    0.93
   6  -3   8   18.09    1.02
   7   3   8    4.02    0.58
   7  -3   8    4.13    0.63
   8   3   8   45.07    1.52
   8  -3   8   44.24    1.59
   9   3   8    6.33    0.76
   9  -3   8    6.62    0.80
  10   3   8   24.94    1.30
  10  -3   8   23.57    1.30
 -11  -4   8    2.08    0.63
 -10  -4   8   33.87    1.52
  -9  -4   8    2.32    0.60
  -8  -4   8   70.14    1.97
  -7  -4   8   62.72    1.80
  -6  -4   8  201.80    3.15
  -5  -4   8    9.70    0.78
  -4  -4   8    4.54    0.57
  -3  -4   8    5.07    0.60
  -2  -4   8   97.70    1.99
  -1  -4   8   10.64    0.73
   0  -4   8    0.94    0.36
   1  -4   8   -0.10    0.30
   2  -4   8   -0.13    0.31
   3  -4   8    0.33    0.34
   4   4   8    6.43    0.62
   4  -4   8    6.94    0.71
   5   4   8   89.18    1.84
   5  -4   8   89.52    2.04
   6   4   8   14.91    0.91
   6  -4   8   13.93    0.98
   7   4   8   42.55    1.47
   7  -4   8   41.88    1.54
   8   4   8    0.68    0.46
   8  -4   8    1.68    0.54
   9   4   8    0.39    0.45
   9  -4   8   -0.55    0.48
 -10  -5   8   28.87    1.47
  -9  -5   8   86.35    2.32
  -8  -5   8   22.07    1.27
  -7  -5   8  127.27    2.64
  -6  -5   8   14.13    0.97
  -5  -5   8   -0.12    0.38
  -4  -5   8    5.58    0.69
  -3  -5   8   11.44    0.79
  -2  -5   8   31.52    1.20
  -1  -5   8   33.58    1.23
   0  -5   8   18.66    0.96
   1  -5   8   10.20    0.76
   2  -5   8    0.18    0.34
   3  -5   8    2.66    0.51
   4  -5   8   -0.13    0.35
   5  -5   8    0.21    0.40
   6  -5   8   16.41    1.06
   7  -5   8    4.27    0.69
   8  -5   8    7.97    0.87
  -8  -6   8   22.32    1.31
  -7  -6   8    0.46    0.50
  -6  -6   8    5.66    0.76
  -5  -6   8    3.80    0.63
  -4  -6   8   16.90    1.01
  -3  -6   8   29.90    1.24
  -2  -6   8    3.66    0.57
  -1  -6   8    0.22    0.37
   0  -6   8    0.12    0.35
   1  -6   8   23.57    1.09
   2  -6   8   17.16    0.99
 -12   0   9   -0.19    0.50
 -11   0   9   16.28    1.08
 -10   0   9    0.36    0.42
  -9   0   9  106.34    2.24
  -8   0   9    0.41    0.37
  -7   0   9   98.58    2.00
  -6   0   9   -0.13    0.30
  -5   0   9    5.13    0.60
  -4   0   9   -0.09    0.26
  -3   0   9    0.12    0.29
  -2   0   9    0.34    0.28
  -1   0   9  274.93    3.20
   0   0   9    0.15    0.31
   1   0   9  149.35    2.32
   2   0   9    0.06    0.29
   4   0   9   -0.09    0.30
   5   0   9   26.80    1.13
   6   0   9   -0.13    0.36
   7   0   9    1.07    0.45
   8   0   9    0.09    0.44
   9   0   9    1.32    0.53
  10   0   9    0.10    0.49
 -12   1   9    5.26    0.78
 -12  -1   9    5.84    0.85
 -11   1   9    8.99    0.90
 -11  -1   9    9.25    0.93
 -10   1   9    0.11    0.42
 -10  -1   9    0.12    0.45
  -9   1   9   -0.19    0.34
  -9  -1   9    0.28    0.41
  -8   1   9   51.67    1.48
  -8  -1   9   51.99    1.60
  -7   1   9    0.22    0.33
  -7  -1   9    0.41    0.36
  -6   1   9    3.27    0.46
  -6  -1   9    2.55    0.47
  -5   1   9   17.24    0.84
  -5  -1   9   16.01    0.87
  -4   1   9   64.55    1.45
  -4  -1   9   63.71    1.56
  -3   1   9  220.43    2.73
  -3  -1   9  221.67    2.95
  -2   1   9  112.48    1.88
  -2  -1   9  111.57    2.00
  -1   1   9  376.81    3.76
  -1  -1   9  369.07    3.91
   0   1   9  143.61    2.19
   0  -1   9  144.52    2.32
   1   1   9   32.62    1.07
   1  -1   9   32.39    1.12
   2   1   9   55.38    1.40
   2  -1   9   54.75    1.46
   3   1   9    0.73    0.35
   3  -1   9    1.43    0.40
   4   1   9   25.50    1.04
   4  -1   9   24.13    1.07
   5   1   9   49.63    1.46
   5  -1   9   49.91    1.50
   6   1   9    5.42    0.63
   6  -1   9    5.54    0.69
   7   1   9   22.58    1.15
   7  -1   9   22.64    1.15
   8   1   9   16.15    1.03
   8  -1   9   15.68    1.07
   9   1   9   11.00    0.94
   9  -1   9   10.07    0.94
  10   1   9    0.27    0.53
  10  -1   9    0.49    0.55
 -12  -2   9   18.13    1.26
 -11  -2   9   15.66    1.14
 -10  -2   9    1.11    0.52
  -9   2   9    3.35    0.52
  -9  -2   9    3.08    0.61
  -8   2   9    6.77    0.69
  -8  -2   9    6.55    0.74
  -7   2   9    0.09    0.30
  -7  -2   9    0.14    0.35
  -6   2   9   26.05    0.98
  -6  -2   9   25.80    1.13
  -5   2   9   15.33    0.80
  -5  -2   9   14.60    0.88
  -4   2   9   84.69    1.61
  -4  -2   9   79.27    1.78
  -3   2   9   24.92    0.90
  -3  -2   9   23.84    1.02
  -2   2   9    1.56    0.33
  -2  -2   9    0.76    0.37
  -1   2   9    3.57    0.42
  -1  -2   9    2.99    0.46
   0   2   9   20.30    0.82
   0  -2   9   21.01    0.94
   1   2   9   72.62    1.52
   1  -2   9   70.34    1.67
   2   2   9  408.75    4.05
   2  -2   9  404.12    4.36
   3   2   9   82.28    1.73
   3  -2   9   80.89    1.87
   4   2   9   56.89    1.49
   4  -2   9   54.32    1.56
   5   2   9    0.06    0.32
   5  -2   9    0.39    0.37
   6   2   9   12.20    0.85
   6  -2   9   10.98    0.89
   7   2   9    2.60    0.53
   7  -2   9    3.48    0.61
   8   2   9    8.54    0.83
   8  -2   9    9.38    0.89
   9   2   9   38.89    1.56
   9  -2   9   39.16    1.64
 -11  -3   9   12.66    1.08
 -10  -3   9    5.92    0.78
  -9  -3   9   15.74    1.07
  -8  -3   9    0.03    0.38
  -7  -3   9    9.66    0.82
  -6  -3   9   91.40    2.08
  -5  -3   9   19.36    1.01
  -4  -3   9  131.25    2.41
  -3  -3   9   15.28    0.89
  -2   3   9    3.49    0.41
  -2  -3   9    3.30    0.52
  -1   3   9   67.90    1.35
  -1  -3   9   67.56    1.67
   0   3   9    7.72    0.57
   0  -3   9    7.66    0.69
   1   3   9   33.76    1.01
   1  -3   9   34.19    1.22
   2   3   9   -0.06    0.27
   2  -3   9    0.03    0.33
   3   3   9   23.42    0.95
   3  -3   9   22.77    1.06
   4   3   9    8.62    0.71
   4  -3   9    7.86    0.76
   5   3   9    1.00    0.41
   5  -3   9    0.88    0.46
   6   3   9   11.95    0.87
   6  -3   9   11.91    0.93
   7   3   9   57.76    1.70
   7  -3   9   56.82    1.79
   8   3   9    8.88    0.90
   8  -3   9    8.36    0.86
   9   3   9   45.67    1.69
   9  -3   9   42.24    1.72
 -10  -4   9    0.62    0.52
  -9  -4   9    0.48    0.46
  -8  -4   9   40.22    1.55
  -7  -4   9    0.58    0.47
  -6  -4   9   31.79    1.35
  -5  -4   9    4.40    0.61
  -4  -4   9    9.60    0.82
  -3  -4   9   15.31    0.89
  -2  -4   9    3.44    0.53
  -1  -4   9    0.14    0.32
   0  -4   9   25.24    1.10
   1  -4   9   24.38    1.09
   2  -4   9    3.71    0.56
   3  -4   9   72.27    1.84
   4  -4   9   54.64    1.64
   5  -4   9  130.85    2.60
   6   4   9   42.05    1.44
   6  -4   9   40.11    1.54
   7   4   9   26.25    1.23
   7  -4   9   25.97    1.31
   8   4   9    0.44    0.47
   8  -4   9    0.20    0.49
  -9  -5   9   34.25    1.56
  -8  -5   9    4.34    0.74
  -7  -5   9   11.49    0.99
  -6  -5   9   -0.23    0.42
  -5  -5   9   -0.18    0.40
  -4  -5   9    2.02    0.50
  -3  -5   9    0.56    0.38
  -2  -5   9    2.27    0.48
  -1  -5   9   17.00    0.96
   0  -5   9   79.26    1.92
   1  -5   9    5.43    0.63
   2  -5   9   22.58    1.11
   3  -5   9   20.46    1.11
   4  -5   9   24.76    1.22
   5  -5   9   10.96    0.96
   6  -5   9  100.97    2.40
   7  -5   9   12.37    1.05
  -7  -6   9    5.88    0.82
  -6  -6   9    6.40    0.78
  -5  -6   9   32.61    1.42
  -4  -6   9   16.76    1.05
  -3  -6   9    4.48    0.64
  -2  -6   9   14.99    0.97
  -1  -6   9    5.41    0.68
   0  -6   9    0.74    0.44
   1  -6   9    1.16    0.49
   2  -6   9    2.71    0.59
   3  -6   9   34.44    1.41
 -11   0  10   -0.11    0.48
 -10   0  10    0.65    0.44
  -9   0  10    0.12    0.41
  -8   0  10    0.43    0.41
  -7   0  10   -0.49    0.32
  -6   0  10   10.47    0.80
  -5   0  10    0.05    0.34
  -4   0  10    0.93    0.37
  -3   0  10   -0.12    0.28
  -2   0  10   66.39    1.57
  -1   0  10   -0.09    0.30
   0   0  10  114.18    2.11
   1   0  10   -0.06    0.31
   2   0  10   32.16    1.19
   3   0  10    0.18    0.32
   4   0  10    9.80    0.78
   5   0  10    0.45    0.39
   6   0  10   82.08    2.07
   7   0  10   -0.30    0.39
   8   0  10    4.83    0.73
   9   0  10    0.05    0.47
 -11   1  10    1.72    0.58
 -11  -1  10    1.66    0.59
 -10   1  10    0.44    0.47
 -10  -1  10    1.12    0.52
  -9   1  10    2.97    0.57
  -9  -1  10    2.33    0.59
  -8   1  10    3.08    0.54
  -8  -1  10    2.98    0.56
  -7   1  10   32.17    1.20
  -7  -1  10   31.45    1.28
  -6   1  10    1.00    0.39
  -6  -1  10    0.59    0.39
  -5   1  10    1.64    0.41
  -5  -1  10    1.86    0.43
  -4   1  10    2.95    0.45
  -4  -1  10    3.39    0.52
  -3   1  10    9.21    0.65
  -3  -1  10    7.96    0.69
  -2   1  10    3.26    0.45
  -2  -1  10    2.96    0.51
  -1   1  10   -0.08    0.27
  -1  -1  10    0.09    0.31
   0   1  10   42.86    1.27
   0  -1  10   40.34    1.31
   1   1  10   35.74    1.18
   1  -1  10   34.60    1.23
   2   1  10   30.32    1.13
   2  -1  10   31.78    1.21
   3   1  10   11.72    0.80
   3  -1  10   11.71    0.81
   4   1  10   12.90    0.86
   4  -1  10   12.48    0.87
   5   1  10   12.26    0.87
   5  -1  10   11.77    0.87
   6   1  10    0.93    0.45
   6  -1  10    1.26    0.48
   7   1  10    3.17    0.61
   7  -1  10    3.42    0.62
   8   1  10   16.58    1.10
   8  -1  10   18.19    1.17
   9   1  10   -0.28    0.49
   9  -1  10    0.38    0.50
 -11  -2  10    0.12    0.53
 -10  -2  10    2.59    0.61
  -9  -2  10   16.11    1.08
  -8   2  10    1.59    0.46
  -8  -2  10    1.81    0.52
  -7   2  10    0.34    0.36
  -7  -2  10    0.37    0.38
  -6   2  10    9.73    0.75
  -6  -2  10    9.01    0.81
  -5   2  10   16.50    0.85
  -5  -2  10   14.65    0.90
  -4   2  10   15.54    0.81
  -4  -2  10   15.60    0.93
  -3   2  10    1.87    0.39
  -3  -2  10    1.77    0.45
  -2   2  10    9.01    0.66
  -2  -2  10    9.09    0.74
  -1   2  10   11.09    0.69
  -1  -2  10    9.71    0.76
   0   2  10    1.66    0.38
   0  -2  10    1.26    0.40
   1   2  10   43.55    1.25
   1  -2  10   43.65    1.39
   2   2  10   44.31    1.31
   2  -2  10   44.43    1.44
   3   2  10    4.98    0.57
   3  -2  10    4.84    0.62
   4   2  10   14.98    0.89
   4  -2  10   14.71    0.95
   5   2  10   23.29    1.10
   5  -2  10   23.27    1.16
   6   2  10    0.25    0.38
   6  -2  10    0.11    0.43
   7   2  10    1.73    0.52
   7  -2  10    1.52    0.55
   8   2  10   28.85    1.37
   8  -2  10   28.83    1.41
 -10  -3  10    0.68    0.52
  -9  -3  10    2.04    0.58
  -8  -3  10   11.16    0.94
  -7  -3  10    0.73    0.45
  -6  -3  10   13.48    0.96
  -5  -3  10    0.24    0.38
  -4  -3  10    2.12    0.49
  -3  -3  10   21.46    1.06
  -2  -3  10   28.08    1.17
  -1   3  10    1.12    0.36
  -1  -3  10    1.21    0.42
   0   3  10    0.69    0.32
   0  -3  10    0.68    0.39
   1   3  10    9.41    0.67
   1  -3  10    8.35    0.73
   2   3  10    2.68    0.46
   2  -3  10    2.68    0.52
   3   3  10  121.11    2.18
   3  -3  10  119.88    2.45
   4   3  10   94.11    1.99
   5   3  10   17.23    0.98
   5  -3  10   16.93    1.07
   6   3  10    5.15    0.66
   6  -3  10    5.64    0.74
   7   3  10    8.16    0.83
   7  -3  10    8.33    0.89
   8   3  10    5.44    0.77
   8  -3  10    5.08    0.77
  -9  -4  10    0.55    0.48
  -8  -4  10    8.73    0.90
  -7  -4  10    0.75    0.51
  -6  -4  10   -0.05    0.40
  -5  -4  10   -0.13    0.38
  -4  -4  10   16.97    1.01
  -3  -4  10   15.31    0.98
  -2  -4  10    4.21    0.59
  -1  -4  10   32.51    1.32
   0  -4  10    0.24    0.37
   1  -4  10    1.65    0.47
   2  -4  10    9.16    0.84
   3  -4  10    7.49    0.81
   4  -4  10    3.96    0.64
   5  -4  10    7.73    0.88
   6  -4  10    0.56    0.49
   7  -4  10   19.92    1.23
  -8  -5  10   -0.16    0.49
  -7  -5  10    1.00    0.53
  -6  -5  10    7.17    0.85
  -5  -5  10   18.59    1.12
  -4  -5  10   -0.05    0.40
  -3  -5  10    0.36    0.41
  -2  -5  10    7.04    0.76
  -1  -5  10    9.22    0.83
   0  -5  10   -0.11    0.40
   1  -5  10    4.93    0.67
   2  -5  10    1.79    0.53
   3  -5  10    0.34    0.45
   4  -5  10    8.20    0.88
   5  -5  10   66.52    1.97
  -6  -6  10    0.46    0.51
  -5  -6  10    2.36    0.59
  -4  -6  10    0.09    0.46
  -3  -6  10    5.42    0.73
  -2  -6  10   10.66    0.90
  -1  -6  10    2.02    0.57
   0  -6  10   27.91    1.31
   1  -6  10   13.42    1.02
   2  -6  10   23.56    1.26
   3  -6  10    8.30    0.91
 -11   0  11  237.18    3.88
 -10   0  11    0.27    0.50
  -9   0  11    7.89    0.87
  -8   0  11   -0.09    0.41
  -7   0  11    4.24    0.62
  -6   0  11    0.04    0.37
  -5   0  11   31.06    1.21
  -4   0  11    0.02    0.34
  -3   0  11   12.94    0.85
  -2   0  11   -0.24    0.33
  -1   0  11   41.52    1.37
   0   0  11   -0.10    0.34
   1   0  11    0.30    0.36
   2   0  11    0.15    0.34
   3   0  11    0.49    0.41
   4   0  11   -0.09    0.36
   5   0  11    2.21    0.55
   6   0  11    0.26    0.44
   7   0  11   -0.11    0.44
   8   0  11    0.13    0.51
 -10   1  11    0.70    0.53
 -10  -1  11    0.19    0.51
  -9   1  11    0.12    0.44
  -9  -1  11   -0.03    0.44
  -8   1  11   11.84    0.92
  -8  -1  11   11.45    0.95
  -7   1  11   36.50    1.37
  -7  -1  11   34.67    1.39
  -6   1  11    7.23    0.74
  -6  -1  11    7.96    0.82
  -5   1  11   28.86    1.15
  -5  -1  11   27.83    1.23
  -4   1  11    0.16    0.34
  -4  -1  11    0.78    0.42
  -3   1  11    7.07    0.68
  -3  -1  11    7.15    0.71
  -2   1  11    5.28    0.58
  -2  -1  11    4.93    0.60
  -1   1  11    8.64    0.70
  -1  -1  11    8.01    0.74
   0   1  11    6.96    0.66
   0  -1  11    7.06    0.71
   1   1  11    0.73    0.38
   1  -1  11    0.40    0.38
   2   1  11    0.28    0.36
   2  -1  11    0.31    0.38
   3   1  11    3.45    0.56
   3  -1  11    3.21    0.58
   4   1  11   12.96    0.92
   4  -1  11   13.72    0.96
   5   1  11    1.64    0.50
   5  -1  11    1.61    0.53
   6   1  11    2.12    0.56
   6  -1  11    1.84    0.55
   7   1  11    6.73    0.82
   7  -1  11    6.32    0.82
   8   1  11   13.38    1.08
   8  -1  11   12.15    1.09
 -10  -2  11   31.75    1.54
  -9  -2  11    7.50    0.89
  -8  -2  11   45.41    1.67
  -7  -2  11    1.97    0.55
  -6   2  11   11.05    0.82
  -6  -2  11   11.00    0.88
  -5   2  11   27.25    1.09
  -5  -2  11   26.37    1.23
  -4   2  11   18.77    0.93
  -4  -2  11   18.72    1.04
  -3   2  11    3.55    0.49
  -3  -2  11    3.14    0.56
  -2   2  11   -0.17    0.30
  -2  -2  11   -0.01    0.35
  -1   2  11   31.50    1.13
  -1  -2  11   29.93    1.25
   0   2  11    2.45    0.46
   0  -2  11    2.27    0.51
   1   2  11    2.03    0.45
   1  -2  11    1.51    0.47
   2   2  11    4.08    0.55
   2  -2  11    4.07    0.61
   3   2  11    3.90    0.59
   3  -2  11    4.60    0.64
   4   2  11   19.43    1.04
   4  -2  11   18.41    1.09
   5   2  11    7.51    0.78
   5  -2  11    7.49    0.83
   6   2  11    0.05    0.43
   6  -2  11    0.33    0.49
   7   2  11    3.45    0.66
   7  -2  11    2.92    0.69
  -9  -3  11   18.12    1.19
  -8  -3  11   31.34    1.47
  -7  -3  11   18.88    1.15
  -6  -3  11    0.63    0.46
  -5  -3  11    0.13    0.42
  -4  -3  11    0.23    0.40
  -3  -3  11   11.01    0.85
  -2  -3  11    1.23    0.46
  -1  -3  11   13.70    0.94
   0  -3  11    6.36    0.73
   1   3  11    4.50    0.54
   1  -3  11    3.59    0.61
   2   3  11   -0.12    0.32
   2  -3  11    0.33    0.41
   3   3  11   11.69    0.84
   3  -3  11   12.26    0.94
   4   3  11   14.74    0.93
   4  -3  11   14.31    1.04
   5   3  11   20.55    1.12
   5  -3  11   21.45    1.20
   6   3  11    0.32    0.48
   6  -3  11    0.57    0.52
  -8  -4  11    2.62    0.68
  -7  -4  11    1.77    0.59
  -6  -4  11    0.20    0.44
  -5  -4  11    3.57    0.65
  -4  -4  11   14.40    0.99
  -3  -4  11   21.43    1.15
  -2  -4  11    8.60    0.82
  -1  -4  11    0.17    0.42
   0  -4  11    0.75    0.45
   1  -4  11    0.14    0.43
   2  -4  11   -0.22    0.42
   3  -4  11    0.13    0.44
   4  -4  11    5.12    0.74
   5  -4  11   13.68    1.07
  -6  -5  11   23.16    1.30
  -5  -5  11    4.31    0.71
  -4  -5  11    6.30    0.77
  -3  -5  11    3.23    0.64
  -2  -5  11    7.09    0.81
  -1  -5  11   12.30    0.97
   0  -5  11   24.61    1.27
   1  -5  11   70.54    2.05
   2  -5  11   47.99    1.73
   3  -5  11    6.71    0.85
   4  -5  11    7.88    0.94
  -2  -6  11   10.98    1.01
  -1  -6  11   30.41    1.46
   0  -6  11   31.13    1.46
  -9   0  12    0.05    0.50
  -8   0  12    0.99    0.53
  -7   0  12    0.22    0.47
  -6   0  12   91.01    2.14
  -5   0  12   -0.02    0.40
  -4   0  12  114.03    2.33
  -3   0  12   -0.16    0.38
  -2   0  12   16.80    1.00
  -1   0  12   -0.12    0.37
   0   0  12    0.00    0.37
   1   0  12   -0.04    0.38
   2   0  12   43.25    1.52
   3   0  12   -0.18    0.42
   4   0  12   30.91    1.36
   5   0  12   -0.21    0.45
   6   0  12   -0.12    0.47
  -9   1  12  155.35    2.91
  -9  -1  12  149.95    3.08
  -8   1  12    1.65    0.58
  -8  -1  12    1.02    0.53
  -7   1  12   11.80    0.94
  -7  -1  12   10.69    0.96
  -6   1  12   10.18    0.85
  -6  -1  12   10.12    0.89
  -5   1  12    0.39    0.39
  -5  -1  12   -0.16    0.42
  -4   1  12    0.15    0.37
  -4  -1  12    0.23    0.39
  -3   1  12   28.20    1.19
  -3  -1  12   28.63    1.25
  -2   1  12    0.35    0.41
  -2  -1  12    0.94    0.45
  -1   1  12   26.50    1.14
  -1  -1  12   29.46    1.28
   0   1  12   15.43    0.94
   0  -1  12   14.91    0.98
   1   1  12   48.84    1.56
   1  -1  12   47.35    1.60
   2   1  12   17.62    1.03
   2  -1  12   17.94    1.07
   3   1  12    7.04    0.80
   3  -1  12    6.78    0.79
   4   1  12    0.47    0.46
   4  -1  12    0.40    0.46
   5   1  12    6.20    0.78
   5  -1  12    5.35    0.77
   6   1  12   10.09    0.97
   6  -1  12   10.04    1.00
  -9  -2  12    0.34    0.56
  -8  -2  12    6.52    0.83
  -7  -2  12   48.72    1.76
  -6  -2  12    7.50    0.87
  -5  -2  12    4.93    0.69
  -4   2  12    9.57    0.78
  -4  -2  12    7.57    0.81
  -3   2  12   13.96    0.88
  -3  -2  12   13.93    0.96
  -2   2  12   21.98    1.02
  -2  -2  12   22.64    1.17
  -1   2  12    2.38    0.49
  -1  -2  12    2.36    0.56
   0   2  12    7.36    0.76
   0  -2  12    6.27    0.75
   1   2  12   41.50    1.41
   1  -2  12   42.39    1.56
   2   2  12    0.92    0.43
   2  -2  12    1.13    0.50
   3   2  12    3.71    0.62
   3  -2  12    3.61    0.66
   4   2  12   13.43    1.00
   4  -2  12   13.96    1.06
   5  -2  12   93.41    2.44
   6   2  12   26.01    1.34
   6  -2  12   26.05    1.40
  -8  -3  12   16.24    1.17
  -7  -3  12   80.50    2.31
  -6  -3  12   49.56    1.76
  -5  -3  12    2.11    0.59
  -4  -3  12   21.58    1.20
  -3  -3  12   20.68    1.16
  -2  -3  12   83.79    2.17
  -1  -3  12    1.39    0.53
   0  -3  12   24.75    1.25
   1  -3  12    7.80    0.85
   2  -3  12    0.52    0.48
   3  -3  12   -0.24    0.45
   4  -3  12    1.25    0.56
   5   3  12    9.27    0.92
   5  -3  12    8.29    0.95
  -6  -4  12   12.10    1.03
  -5  -4  12  108.06    2.60
  -4  -4  12    2.10    0.59
  -3  -4  12   21.00    1.20
  -2  -4  12    5.22    0.74
  -1  -4  12    4.29    0.71
   0  -4  12    1.63    0.55
   1  -4  12   45.89    1.70
   2  -4  12  118.23    2.74
   3  -4  12   78.16    2.24
  -4  -5  12   11.45    1.00
  -3  -5  12    0.54    0.51
  -2  -5  12    0.10    0.49
  -1  -5  12   33.84    1.53
   0  -5  12   20.26    1.24
   1  -5  12   61.80    2.03
  -8   0  13    0.06    0.52
  -7   0  13   47.30    1.70
  -6   0  13   -0.43    0.42
  -5   0  13    1.52    0.53
  -4   0  13    0.11    0.43
  -3   0  13   17.00    1.06
  -2   0  13   -0.12    0.41
  -1   0  13    3.88    0.63
   0   0  13    0.25    0.44
   1   0  13  128.58    2.68
   2   0  13    0.04    0.47
   3   0  13   93.89    2.37
   4   0  13   -0.60    0.46
  -8   1  13    5.20    0.79
  -8  -1  13    4.99    0.83
  -7   1  13    2.26    0.62
  -7  -1  13    2.06    0.64
  -6   1  13   16.27    1.05
  -6  -1  13   15.54    1.10
  -5   1  13   47.28    1.59
  -5  -1  13   45.60    1.64
  -4   1  13    5.43    0.71
  -4  -1  13    5.00    0.70
  -3   1  13   15.17    1.01
  -3  -1  13   15.24    1.04
  -2   1  13   17.74    1.05
  -2  -1  13   17.27    1.08
  -1   1  13    0.39    0.44
  -1  -1  13    0.45    0.44
   0   1  13    1.35    0.50
   0  -1  13    1.80    0.54
   1   1  13    0.84    0.49
   1  -1  13    0.93    0.49
   2   1  13    2.67    0.61
   2  -1  13    1.94    0.58
   3   1  13   18.08    1.15
   3  -1  13   17.40    1.16
   4   1  13   33.09    1.49
   4  -1  13   32.65    1.48
  -7  -2  13   29.98    1.51
  -6  -2  13    3.77    0.73
  -5  -2  13   -0.28    0.47
  -4  -2  13   31.03    1.41
  -3  -2  13   12.07    0.99
  -2   2  13    7.04    0.77
  -2  -2  13    7.91    0.89
  -1   2  13   87.23    2.06
  -1  -2  13   85.67    2.28
   0   2  13   12.38    0.97
   0  -2  13   11.69    1.00
   1   2  13    4.81    0.69
   1  -2  13    4.52    0.73
   2   2  13   -0.34    0.43
   2  -2  13   -0.28    0.47
   3   2  13    0.04    0.46
   3  -2  13    0.51    0.51
   4   2  13   12.81    1.06
   4  -2  13   12.35    1.07
  -6  -3  13   15.43    1.18
  -5  -3  13    2.26    0.64
  -4  -3  13    2.89    0.68
  -3  -3  13   47.99    1.78
  -2  -3  13   -0.44    0.47
  -1  -3  13   37.29    1.59
   0  -3  13    2.23    0.62
   1  -3  13    2.96    0.68
   2  -3  13    5.92    0.82
  -3  -4  13    5.12    0.83
  -2  -4  13   -0.41    0.47
  -1  -4  13   -0.18    0.48
   0  -4  13   28.42    1.46
  -5   0  14   -0.18    0.47
  -4   0  14   38.91    1.56
  -3   0  14    0.15    0.49
  -2   0  14    4.00    0.67
  -1   0  14    0.01    0.46
   0   0  14    6.32    0.78
   1   0  14    0.09    0.48
   2   0  14    0.43    0.54
  -5   1  14    4.69    0.72
  -5  -1  14    3.61    0.69
  -4   1  14    0.48    0.51
  -4  -1  14    0.54    0.52
  -3   1  14    0.77    0.49
  -3  -1  14    1.02    0.54
  -2   1  14   30.11    1.36
  -2  -1  14   29.47    1.42
  -1   1  14    0.18    0.46
  -1  -1  14    0.10    0.48
   0   1  14   25.65    1.30
   0  -1  14   24.76    1.34
   1   1  14    1.10    0.54
   1  -1  14    0.43    0.50
  -4  -2  14   -0.01    0.47
  -3  -2  14    0.47    0.57
  -2  -2  14    7.49    0.93
  -1  -2  14    0.10    0.49
   0  -2  14    4.46    0.74
   1   0   0    1.49    0.09
   2   0   0 2118.67   15.02
   3   0   0    0.19    0.10
   4   0   0   37.49    0.57
   5   0   0   -0.02    0.11
   6   0   0  348.23    2.66
   7   0   0    0.05    0.15
   8   0   0   71.26    1.10
   9   0   0   -0.10    0.19
   0  -1   0    0.12    0.08
   1   1   0  160.27    1.37
   1  -1   0  157.66    1.35
   2   1   0  996.39    6.83
   2  -1   0  996.95    6.27
   3   1   0 1170.17    7.57
   3  -1   0 1170.16    7.18
   4   1   0  217.04    1.70
   4  -1   0  214.79    1.88
   5   1   0  263.11    2.03
   5  -1   0  261.31    2.22
   6   1   0  373.14    2.72
   6  -1   0  374.13    2.97
   7   1   0   10.08    0.42
   7  -1   0   10.04    0.47
   8   1   0   82.80    1.12
   8  -1   0   80.61    1.25
   9  -1   0   21.19    0.72
  10  -1   0   15.64    0.66
   0  -2   0   21.84    0.52
   1   2   0 1399.76    8.53
   1  -2   0 1405.13    8.50
   2   2   0 1062.99    6.65
   2  -2   0 1060.55    6.67
   3   2   0 1360.49    8.29
   3  -2   0 1360.48    8.32
   4   2   0  526.75    3.64
   4  -2   0  526.31    3.90
   5   2   0   59.95    0.85
   5  -2   0   60.28    1.06
   6   2   0    0.01    0.12
   6  -2   0    0.17    0.17
   7   2   0   32.19    0.67
   7  -2   0   31.96    0.84
   8   2   0   41.43    0.79
   8  -2   0   42.11    1.01
   9  -2   0    1.10    0.31
  10  -2   0  172.46    2.27
  11  -2   0    0.75    0.34
   0  -3   0   -0.06    0.14
  -1  -3   0   68.35    1.06
   1  -3   0   69.48    1.13
  -2  -3   0  403.18    3.14
   2  -3   0  420.35    3.44
   3   3   0  925.23    6.05
   3  -3   0  923.67    6.28
   4   3   0  268.24    2.37
   4  -3   0  268.29    2.65
   5   3   0  322.83    2.69
   5  -3   0  321.22    3.05
   6   3   0  234.18    2.18
   6  -3   0  227.73    2.53
   7   3   0   22.51    0.62
   7  -3   0   22.02    0.80
   8  -3   0   -0.18    0.25
   9  -3   0   -0.01    0.26
  10  -3   0   30.03    1.02
  11  -3   0   12.92    0.78
   0  -4   0  339.84    3.15
  -1  -4   0    3.60    0.38
   1  -4   0    3.35    0.41
  -2  -4   0   72.06    1.23
   2  -4   0   77.39    1.41
  -3  -4   0    0.70    0.20
   3  -4   0    0.37    0.23
   4  -4   0   76.83    1.46
   5   4   0    4.82    0.42
   5  -4   0    4.89    0.52
   6   4   0   51.33    1.04
   6  -4   0   51.83    1.28
   8  -4   0   62.68    1.50
   9  -4   0   16.15    0.85
  10  -4   0    4.88    0.60
  11  -4   0    2.68    0.51
  12  -4   0   12.48    0.88
   0  -5   0   -0.29    0.20
  -1  -5   0   75.60    1.45
   1  -5   0   79.55    1.54
  -2  -5   0    0.39    0.24
   2  -5   0    0.16    0.25
  -3  -5   0   36.42    1.00
   3  -5   0   37.69    1.12
  -4  -5   0   21.64    0.78
   4  -5   0   22.38    0.91
  -5  -5   0   58.23    1.24
   5  -5   0   59.85    1.46
   6  -5   0    4.13    0.51
   8  -5   0  106.44    2.09
   9  -5   0    7.66    0.74
  10  -5   0   -0.33    0.39
  11  -5   0   92.55    2.12
  12  -5   0   74.52    1.96
   0  -6   0    4.32    0.50
  -1  -6   0   56.67    1.41
   1  -6   0   58.05    1.46
  -2  -6   0    3.00    0.43
   2  -6   0    2.74    0.45
  -3  -6   0   57.71    1.39
   3  -6   0   59.03    1.53
  -4  -6   0    0.11    0.26
   4  -6   0   -0.07    0.30
   5  -6   0    6.83    0.70
   6  -6   0   33.48    1.24
   7  -6   0   23.53    1.11
   8  -6   0    8.52    0.79
   9  -6   0   -0.15    0.43
  10  -6   0   39.84    1.52
  11  -6   0    1.14    0.58
   0  -7   0    0.28    0.34
  -1  -7   0   20.55    0.99
   1  -7   0   20.59    1.00
  -2  -7   0   12.05    0.81
   2  -7   0   11.76    0.83
  -3  -7   0   48.62    1.41
   3  -7   0   47.08    1.49
   4  -7   0   35.79    1.35
   5  -7   0   -0.18    0.38
   6  -7   0    1.74    0.50
   7  -7   0   -0.14    0.42
   8  -7   0   15.39    1.04
   9  -7   0   77.41    2.17
   0  -8   0    0.10    0.35
  -1  -8   0   15.53    0.95
   1  -8   0   14.41    0.96
  -2  -8   0   -0.14    0.38
   2  -8   0   -0.02    0.38
  -3  -8   0    0.71    0.44
   3  -8   0    0.79    0.44
   4  -8   0    0.02    0.43
   5  -8   0    6.10    0.76
   6  -8   0   18.67    1.16
   7  -8   0   70.01    2.13
   0  -9   0    0.08    0.43
  -1  -9   0   24.48    1.26
   1  -9   0   24.85    1.28
  -2  -9   0   -0.45    0.43
   2  -9   0    0.25    0.46
   3  -9   0   11.38    1.01
  10   0  -1   -0.18    0.22
   9   0  -1   82.83    1.33
   8   0  -1    0.12    0.19
   7   0  -1  123.74    1.48
   6   0  -1   -0.02    0.14
   5   0  -1    2.42    0.28
   4   0  -1    0.02    0.11
   3   0  -1    0.33    0.12
   2   0  -1    0.08    0.09
   1   0  -1  864.84    6.10
   0   0  -1    0.20    0.04
   3   0   1  162.08    1.35
   4   0   1    0.14    0.09
   5   0   1  399.01    2.81
   6   0   1    0.12    0.12
   7   0   1  242.29    2.04
   8   0   1   -0.01    0.16
  11  -1  -1    4.29    0.52
  10  -1  -1    4.32    0.48
   9   1  -1   31.93    0.81
   9  -1  -1   31.31    0.88
   8   1  -1   26.92    0.71
   8  -1  -1   25.18    0.76
   7   1  -1   15.20    0.53
   7  -1  -1   15.30    0.57
   6   1  -1    0.03    0.13
   6  -1  -1    0.09    0.17
   5   1  -1   92.90    1.10
   5  -1  -1   95.58    1.23
   4   1  -1   58.44    0.81
   4  -1  -1   56.21    0.86
   3   1  -1  583.55    3.86
   3  -1  -1  576.72    3.89
   2   1  -1  888.28    5.63
   2  -1  -1  879.92    5.55
   1   1  -1 2017.35   12.47
   1  -1  -1 2027.93   12.41
   0   1  -1   69.42    0.79
   0  -1  -1   69.06    0.72
  -1  -1  -1 3344.16   25.59
   1  -1   1 3366.58   20.36
   2  -1   1 4863.93   28.44
   3  -1   1   85.97    0.99
   4  -1   1    2.24    0.21
   5  -1   1    5.60    0.32
   6  -1   1   80.97    1.10
   7  -1   1   46.06    0.87
   8  -1   1   63.04    1.08
   9  -1   1   30.01    0.80
  11  -2  -1    0.05    0.28
  10  -2  -1    0.66    0.32
   9   2  -1    3.62    0.40
   9  -2  -1    2.77    0.39
   8   2  -1    8.61    0.47
   8  -2  -1    8.63    0.56
   7   2  -1    4.21    0.36
   7  -2  -1    3.66    0.41
   6   2  -1   74.62    1.07
   6  -2  -1   72.31    1.23
   5   2  -1   50.67    0.84
   5  -2  -1   49.35    0.96
   4   2  -1  690.19    4.63
   4  -2  -1  687.85    4.80
   3   2  -1    0.51    0.14
   3  -2  -1    0.24    0.16
   2   2  -1  896.05    5.73
   2  -2  -1  895.24    5.74
   1   2  -1    0.25    0.13
   1  -2  -1    0.14    0.13
   0   2  -1  206.60    1.88
   0  -2  -1  204.12    1.77
  -1  -2  -1  134.45    1.29
   1  -2   1  134.70    1.44
  -2  -2  -1   90.67    0.97
   2  -2   1   92.41    1.19
   3  -2   1   54.95    0.93
   4  -2   1 1419.37    8.69
   5  -2   1    2.03    0.27
   6  -2   1    2.52    0.30
   7  -2   1    0.02    0.20
   8  -2   1  104.23    1.56
   9  -2   1    4.53    0.46
  10  -2   1    4.71    0.51
  12  -3  -1    7.38    0.72
  11  -3  -1    0.26    0.35
  10  -3  -1   -0.09    0.30
   9  -3  -1    0.90    0.33
   8   3  -1   33.87    0.86
   8  -3  -1   34.12    1.02
   7   3  -1   18.73    0.65
   7  -3  -1   18.82    0.77
   6   3  -1    7.67    0.44
   6  -3  -1    7.70    0.53
   5   3  -1    2.62    0.32
   5  -3  -1    2.47    0.33
   4   3  -1  119.28    1.51
   4  -3  -1  118.27    1.65
   3   3  -1    7.11    0.41
   3  -3  -1    6.11    0.44
   2   3  -1    1.92    0.25
   2  -3  -1    1.73    0.25
   1   3  -1   38.28    0.84
   1  -3  -1   37.10    0.80
   0  -3  -1    0.33    0.16
   0  -3   1    0.22    0.16
  -1  -3  -1   12.68    0.46
   1  -3   1   11.99    0.52
  -2  -3  -1  198.35    1.89
   2  -3   1  198.39    2.13
  -3  -3  -1  356.49    2.79
   3  -3   1  353.02    3.14
  -4  -3  -1  381.10    2.90
   4  -3   1  385.78    3.40
   5   3   1  336.89    2.66
   5  -3   1  335.72    3.15
   6  -3   1    0.03    0.23
   7  -3   1   18.24    0.75
   8  -3   1   31.83    0.96
   9  -3   1  112.90    1.86
  10  -3   1   -0.14    0.30
  12  -4  -1    3.42    0.59
  11  -4  -1    0.54    0.39
  10  -4  -1   17.14    0.90
   9  -4  -1   12.91    0.79
   8  -4  -1    1.69    0.41
   7   4  -1    0.40    0.24
   7  -4  -1    0.19    0.30
   6   4  -1   58.42    1.18
   6  -4  -1   57.38    1.33
   5   4  -1    4.45    0.43
   5  -4  -1    4.69    0.51
   4   4  -1    2.63    0.32
   4  -4  -1    2.40    0.35
   3   4  -1   20.49    0.70
   3  -4  -1   21.04    0.77
   2   4  -1    1.74    0.28
   2  -4  -1    1.92    0.31
   1  -4  -1  249.10    2.59
  -1  -4   1  247.86    2.59
   0  -4  -1  224.79    2.38
   0  -4   1  226.16    2.46
  -1  -4  -1    1.96    0.27
   1  -4   1    1.90    0.29
  -2  -4  -1   49.94    0.99
   2  -4   1   51.13    1.14
  -3  -4  -1    1.71    0.25
   3  -4   1    1.61    0.31
  -4  -4  -1   16.61    0.59
   4  -4   1   16.44    0.74
  -5  -4  -1  340.34    2.92
   5  -4   1  346.49    3.51
   6  -4   1  424.23    4.03
   8  -4   1  114.62    1.98
   9  -4   1   -0.11    0.30
  10  -4   1   10.29    0.75
  11  -4   1    0.24    0.38
  12  -5  -1    7.49    0.83
  11  -5  -1    0.88    0.48
  10  -5  -1    1.42    0.47
   9  -5  -1    3.58    0.57
   8  -5  -1    1.01    0.42
   7   5  -1   10.32    0.62
   7  -5  -1   10.77    0.76
   6   5  -1   59.17    1.31
   6  -5  -1   62.09    1.53
   5   5  -1    4.61    0.50
   5  -5  -1    4.61    0.55
   4  -5  -1    3.42    0.44
  -4  -5   1    3.69    0.46
   3  -5  -1    0.97    0.32
  -3  -5   1    1.33    0.30
   2  -5  -1   10.51    0.64
  -2  -5   1    9.71    0.59
   1  -5  -1   48.77    1.20
  -1  -5   1   48.52    1.20
   0  -5  -1   20.05    0.78
   0  -5   1   20.76    0.83
  -1  -5  -1  100.60    1.66
   1  -5   1   98.81    1.74
  -2  -5  -1  121.10    1.80
   2  -5   1  122.52    2.02
  -3  -5  -1   -0.05    0.21
   3  -5   1   -0.13    0.26
  -4  -5  -1   12.76    0.61
   4  -5   1   13.04    0.75
   5  -5   1   39.17    1.21
   6  -5   1   12.32    0.77
   7  -5   1   11.77    0.78
   8  -5   1   16.35    0.91
   9  -5   1    0.83    0.44
  10  -5   1    1.29    0.47
  11  -5   1    2.76    0.59
  11  -6  -1   64.28    1.92
  10  -6  -1   62.15    1.84
   9  -6  -1   19.04    1.09
   8  -6  -1    2.32    0.55
   7  -6  -1    2.04    0.49
   6  -6  -1   11.17    0.82
   5  -6  -1    5.76    0.64
  -5  -6   1    6.49    0.59
   4  -6  -1   40.38    1.29
  -4  -6   1   40.50    1.20
   3  -6  -1    9.82    0.72
  -3  -6   1   10.60    0.70
   2  -6  -1    4.73    0.55
  -2  -6   1    5.34    0.56
   1  -6  -1    6.61    0.60
  -1  -6   1    6.57    0.60
   0  -6  -1   -0.04    0.25
   0  -6   1   -0.04    0.28
  -1  -6  -1    6.87    0.59
   1  -6   1    7.33    0.65
  -2  -6  -1   16.28    0.78
   2  -6   1   16.17    0.86
  -3  -6  -1   -0.04    0.25
   3  -6   1   -0.20    0.28
   4  -6   1    6.51    0.66
   5  -6   1   39.83    1.33
   6  -6   1   12.53    0.84
   7  -6   1   53.01    1.57
   8  -6   1   81.77    2.00
   9  -6   1   76.10    1.96
  10  -6   1  129.52    2.60
   9  -7  -1   13.21    1.04
   8  -7  -1    6.26    0.77
   7  -7  -1    4.84    0.68
   6  -7  -1    5.68    0.70
   5  -7  -1   30.08    1.26
   4  -7  -1   23.43    1.12
  -4  -7   1   22.36    1.01
   3  -7  -1    2.73    0.52
  -3  -7   1    3.58    0.53
   2  -7  -1    5.12    0.60
  -2  -7   1    4.68    0.58
   1  -7  -1    1.24    0.41
  -1  -7   1    1.26    0.43
   0  -7  -1   -0.02    0.30
   0  -7   1   -0.18    0.32
  -1  -7  -1    3.29    0.51
   1  -7   1    3.39    0.55
  -2  -7  -1    3.28    0.49
   2  -7   1    3.20    0.53
  -3  -7  -1   75.56    1.71
   3  -7   1   75.40    1.89
   4  -7   1   30.73    1.26
   5  -7   1   18.05    1.04
   6  -7   1    7.58    0.80
   7  -7   1    1.41    0.52
   8  -7   1    8.97    0.88
   9  -7   1   63.63    1.94
   7  -8  -1   12.54    1.04
   6  -8  -1   19.58    1.18
   5  -8  -1    0.78    0.46
   4  -8  -1    2.17    0.57
   3  -8  -1   29.12    1.31
  -3  -8   1   30.33    1.29
   2  -8  -1   15.90    1.00
  -2  -8   1   15.85    1.01
   1  -8  -1   28.78    1.25
  -1  -8   1   29.62    1.28
   0  -8  -1   17.39    0.99
   0  -8   1   18.69    1.08
  -1  -8  -1    0.53    0.40
   1  -8   1    0.63    0.43
  -2  -8  -1    0.90    0.42
   2  -8   1    0.06    0.40
   3  -8   1    0.33    0.42
   4  -8   1    0.40    0.44
   5  -8   1    1.79    0.58
   6  -8   1   12.27    1.04
   7  -8   1    7.41    0.91
   3  -9  -1    4.70    0.73
   2  -9  -1   11.69    1.00
  -2  -9   1   10.78    0.96
   1  -9  -1    0.49    0.50
  -1  -9   1    0.07    0.46
   0  -9  -1   -0.39    0.44
   0  -9   1   -0.29    0.41
  -1  -9  -1    4.12    0.67
   1  -9   1    4.57    0.71
   2  -9   1    0.18    0.44
   3  -9   1    7.37    0.90
  11   0  -2    0.40    0.28
  10   0  -2  109.22    1.68
   9   0  -2   -0.21    0.20
   8   0  -2    3.30    0.35
   7   0  -2   -0.07    0.16
   6   0  -2    0.89    0.20
   5   0  -2    0.56    0.17
   4   0  -2  153.60    1.53
   3   0  -2    0.01    0.12
   2   0  -2   27.33    0.52
   1   0  -2    0.37    0.10
   0   0  -2  309.87    2.27
  -1   0  -2    0.16    0.07
  11  -1  -2   21.87    0.87
  10   1  -2   44.96    1.07
  10  -1  -2   42.77    1.10
   9   1  -2   23.47    0.77
   9  -1  -2   22.23    0.78
   8   1  -2   12.55    0.57
   8  -1  -2   12.02    0.59
   7   1  -2   -0.05    0.16
   7  -1  -2    0.14    0.19
   6   1  -2   20.22    0.59
   6  -1  -2   19.62    0.63
   5   1  -2    2.61    0.31
   5  -1  -2    2.68    0.33
   4   1  -2   -0.06    0.11
   4  -1  -2    0.09    0.15
   3   1  -2  444.59    3.17
   3  -1  -2  443.01    3.21
   2   1  -2    2.67    0.25
   2  -1  -2    3.23    0.27
   1   1  -2   30.25    0.54
   1  -1  -2   29.78    0.53
   0   1  -2    0.81    0.14
   0  -1  -2    0.86    0.12
  -1   1  -2   18.67    0.45
  -1  -1  -2   18.58    0.32
   2  -1   2  153.32    1.41
   3  -1   2   10.11    0.35
   4  -1   2   30.37    0.61
   5  -1   2   22.96    0.57
   6  -1   2   69.15    0.99
   7  -1   2    2.68    0.31
   8  -1   2    0.14    0.20
  12  -2  -2   19.66    0.91
  11  -2  -2    2.64    0.44
  10  -2  -2    0.04    0.27
   9   2  -2    0.37    0.23
   9  -2  -2    0.36    0.28
   8   2  -2   10.39    0.53
   8  -2  -2    9.35    0.59
   7   2  -2   33.81    0.81
   7  -2  -2   33.82    0.92
   6   2  -2   33.03    0.77
   6  -2  -2   31.92    0.84
   5   2  -2    7.57    0.40
   5  -2  -2    7.55    0.45
   4   2  -2    0.47    0.15
   4  -2  -2    0.30    0.18
   3   2  -2   19.67    0.55
   3  -2  -2   18.89    0.57
   2   2  -2   12.55    0.46
   2  -2  -2   11.99    0.44
   1   2  -2  193.60    1.86
   1  -2  -2  195.69    1.80
   0   2  -2   50.98    0.87
   0  -2  -2   50.55    0.74
  -1   2  -2    4.13    0.33
  -1  -2  -2    4.27    0.25
  -2  -2  -2  351.45    2.55
   2  -2   2  348.48    2.83
   3  -2   2   87.25    1.21
   4  -2   2  131.53    1.56
   5  -2   2    0.20    0.18
   6  -2   2   17.85    0.64
   7  -2   2   37.70    0.89
   8  -2   2   -0.15    0.21
   9  -2   2    2.94    0.37
  12  -3  -2   12.68    0.84
  11  -3  -2    0.45    0.36
  10  -3  -2   43.81    1.26
   9   3  -2    7.72    0.51
   9  -3  -2    7.64    0.61
   8   3  -2   30.37    0.86
   8  -3  -2   31.51    1.01
   7   3  -2   52.55    1.09
   7  -3  -2   53.90    1.25
   6   3  -2    7.66    0.47
   6  -3  -2    7.53    0.54
   5   3  -2   17.42    0.62
   5  -3  -2   17.52    0.69
   4   3  -2   50.59    1.00
   4  -3  -2   49.95    1.06
   3   3  -2   38.19    0.86
   3  -3  -2   38.58    0.90
   2   3  -2   44.94    0.95
   2  -3  -2   43.70    0.91
   1  -3  -2   17.18    0.57
   0   3  -2    5.59    0.40
   0  -3  -2    6.17    0.38
  -1  -3  -2    0.63    0.17
   1  -3   2    0.76    0.21
  -2  -3  -2   29.78    0.63
   2  -3   2   28.88    0.78
  -3  -3  -2   40.32    0.71
   3  -3   2   41.82    0.96
  -4  -3  -2   50.52    0.76
   4  -3   2   50.87    1.09
   5  -3   2  114.33    1.70
   6  -3   2  131.31    1.86
   7  -3   2   -0.02    0.24
   8  -3   2   29.43    0.92
   9  -3   2    0.72    0.32
  10  -3   2   26.29    0.95
  13  -4  -2    0.47    0.49
  12  -4  -2   11.66    0.89
  11  -4  -2    2.04    0.51
  10  -4  -2    0.10    0.35
   9  -4  -2    1.46    0.42
   8   4  -2    0.77    0.28
   8  -4  -2    0.52    0.34
   7   4  -2   10.84    0.61
   7  -4  -2   11.03    0.70
   6   4  -2   26.80    0.86
   6  -4  -2   26.57    0.94
   5   4  -2   29.71    0.89
   5  -4  -2   29.41    0.96
   4   4  -2   53.53    1.16
   4  -4  -2   53.58    1.23
   3   4  -2    0.14    0.21
   3  -4  -2    0.25    0.24
   2   4  -2   36.05    0.95
   2  -4  -2   35.78    0.94
   1   4  -2   77.06    1.41
   1  -4  -2   76.33    1.31
   0  -4  -2   18.53    0.65
   0  -4   2   17.42    0.70
  -1  -4  -2    0.15    0.18
   1  -4   2    0.14    0.21
  -2  -4  -2   14.46    0.55
   2  -4   2   13.86    0.66
  -3  -4  -2   61.64    1.05
   3  -4   2   60.59    1.29
  -4  -4  -2   21.25    0.63
   4  -4   2   21.70    0.83
   5  -4   2   55.11    1.30
   6  -4   2   53.27    1.30
   7  -4   2   10.85    0.70
   8  -4   2    5.53    0.58
   9  -4   2    2.47    0.46
  10  -4   2   -0.09    0.34
  12  -5  -2   26.27    1.28
  11  -5  -2   32.76    1.35
  10  -5  -2    9.74    0.81
   9  -5  -2    7.26    0.71
   8  -5  -2    0.71    0.41
   7   5  -2    8.38    0.62
   7  -5  -2    8.44    0.70
   6   5  -2   13.04    0.70
   6  -5  -2   13.10    0.78
   5   5  -2    0.10    0.24
   5  -5  -2    0.29    0.30
   4   5  -2    2.42    0.37
   4  -5  -2    2.60    0.41
   3   5  -2   21.14    0.85
   3  -5  -2   21.13    0.87
   2  -5  -2   15.37    0.74
  -2  -5   2   14.87    0.74
   1  -5  -2   19.72    0.79
  -1  -5   2   18.07    0.79
   0  -5  -2   34.27    0.97
   0  -5   2   34.24    1.05
  -1  -5  -2    3.17    0.38
   1  -5   2    3.53    0.44
  -2  -5  -2  114.67    1.71
   2  -5   2  117.14    1.99
  -3  -5  -2    2.51    0.34
   3  -5   2    2.40    0.42
   4  -5   2    1.26    0.38
   5  -5   2    5.03    0.59
   6  -5   2   34.13    1.16
   7  -5   2  137.10    2.33
   8  -5   2  159.06    2.57
   9  -5   2    9.85    0.79
  10  -5   2    9.08    0.82
  11  -5   2    5.65    0.70
  11  -6  -2    5.64    0.78
  10  -6  -2    8.82    0.88
   9  -6  -2    1.19    0.49
   8  -6  -2    3.60    0.60
   7   6  -2   10.13    0.74
   7  -6  -2    8.89    0.78
   6  -6  -2   18.10    0.97
   5  -6  -2   20.90    0.99
  -5  -6   2   22.02    0.96
   4  -6  -2    0.54    0.34
  -4  -6   2    0.30    0.31
   3  -6  -2    0.09    0.30
  -3  -6   2    0.04    0.26
   2  -6  -2    0.14    0.29
  -2  -6   2    0.46    0.31
   1  -6  -2    1.55    0.37
  -1  -6   2    1.71    0.40
   0  -6  -2   57.16    1.39
  -1  -6  -2    6.94    0.58
   1  -6   2    6.38    0.67
  -2  -6  -2   47.70    1.23
   2  -6   2   47.07    1.41
  -3  -6  -2   17.70    0.77
   3  -6   2   18.24    0.94
   4  -6   2   26.30    1.10
   5  -6   2    2.16    0.48
   6  -6   2    2.61    0.50
   7  -6   2    3.48    0.59
   8  -6   2   16.06    0.99
   9  -6   2    8.70    0.85
  10  -6   2   10.11    0.91
   9  -7  -2    1.52    0.58
   8  -7  -2   38.55    1.53
   7  -7  -2    0.78    0.49
   6  -7  -2    9.22    0.84
   5  -7  -2    0.68    0.44
  -5  -7   2    1.23    0.43
   4  -7  -2    9.83    0.79
  -4  -7   2   11.48    0.84
   3  -7  -2    0.27    0.37
  -3  -7   2    0.63    0.35
   2  -7  -2  128.22    2.38
  -2  -7   2  127.01    2.41
   1  -7  -2   46.47    1.41
  -1  -7   2   46.59    1.49
   0  -7  -2   42.84    1.32
   0  -7   2   43.52    1.44
  -1  -7  -2   20.80    0.96
   1  -7   2   21.50    1.08
  -2  -7  -2   -0.16    0.30
   2  -7   2   -0.35    0.35
   3  -7   2   -0.01    0.36
   4  -7   2   22.01    1.11
   5  -7   2    3.20    0.58
   6  -7   2    3.23    0.61
   7  -7   2    0.10    0.45
   8  -7   2   15.78    1.07
   9  -7   2   52.24    1.78
   7  -8  -2    3.06    0.68
   6  -8  -2    8.43    0.88
   5  -8  -2   -0.20    0.42
   4  -8  -2   34.78    1.43
  -4  -8   2   35.10    1.41
   3  -8  -2    0.06    0.40
  -3  -8   2    0.08    0.42
   2  -8  -2   14.36    0.95
  -2  -8   2   14.56    0.98
   1  -8  -2    0.57    0.43
  -1  -8   2    0.01    0.42
   0  -8  -2    5.30    0.66
   0  -8   2    5.46    0.71
  -1  -8  -2    0.71    0.42
   1  -8   2   -0.17    0.40
   2  -8   2    0.16    0.42
   3  -8   2   15.20    1.03
   4  -8   2    0.17    0.43
   5  -8   2   84.77    2.25
   6  -8   2    4.13    0.73
   3  -9  -2   51.44    1.82
  -3  -9   2   52.62    1.85
   2  -9  -2   23.97    1.27
  -2  -9   2   23.80    1.32
   1  -9  -2    0.05    0.44
  -1  -9   2    0.18    0.49
   0  -9  -2   14.04    1.01
   0  -9   2   14.73    1.10
   1  -9   2    3.89    0.70
   2  -9   2    3.40    0.69
  12   0  -3   -0.24    0.31
  11   0  -3   61.77    1.38
  10   0  -3    0.09    0.26
   9   0  -3  241.14    2.65
   8   0  -3   -0.02    0.20
   7   0  -3   10.81    0.54
   6   0  -3   -0.06    0.17
   5   0  -3  211.62    2.09
   4   0  -3    0.06    0.14
   3   0  -3   87.66    1.10
   2   0  -3   -0.04    0.11
   1   0  -3 1743.79   10.32
   0   0  -3    2.32    0.22
  -1   0  -3   40.68    0.55
  -2   0  -3    0.11    0.09
  12  -1  -3  194.77    2.66
  11   1  -3  309.37    3.28
  11  -1  -3  306.44    3.37
  10   1  -3    9.08    0.62
  10  -1  -3    8.82    0.63
   9   1  -3  155.96    2.02
   9  -1  -3  154.16    2.11
   8   1  -3  101.33    1.54
   8  -1  -3  100.17    1.60
   7   1  -3   22.86    0.72
   7  -1  -3   21.81    0.74
   6   1  -3   72.94    1.18
   6  -1  -3   71.09    1.22
   5   1  -3  171.81    1.82
   5  -1  -3  171.85    1.90
   4   1  -3    5.37    0.38
   4  -1  -3    5.21    0.37
   3   1  -3  251.27    2.19
   3  -1  -3  250.81    2.20
   2   1  -3  621.65    4.21
   2  -1  -3  619.48    4.18
   1   1  -3  249.16    2.09
   1  -1  -3  248.79    2.01
   0   1  -3    9.66    0.37
   0  -1  -3   10.02    0.34
  -1   1  -3  288.70    2.30
  -1  -1  -3  288.84    2.12
  -2   1  -3    3.33    0.27
   3  -1   3   81.57    1.02
   4  -1   3   34.78    0.65
   5  -1   3    9.33    0.41
   6  -1   3    0.87    0.19
   7  -1   3   13.06    0.48
  13  -2  -3    0.31    0.39
  12  -2  -3    0.18    0.36
  11  -2  -3    4.45    0.56
  10   2  -3    3.27    0.41
  10  -2  -3    3.37    0.47
   9   2  -3    0.44    0.27
   9  -2  -3    0.28    0.29
   8   2  -3  472.85    3.99
   8  -2  -3  469.00    4.17
   7   2  -3   20.44    0.72
   7  -2  -3   19.30    0.78
   6   2  -3  418.46    3.48
   6  -2  -3  420.23    3.65
   5   2  -3   39.77    0.86
   5  -2  -3   41.81    0.96
   4   2  -3    7.41    0.41
   4  -2  -3    8.17    0.46
   3   2  -3   66.31    1.08
   3  -2  -3   66.83    1.08
   2   2  -3   65.37    1.05
   2  -2  -3   66.18    1.01
   1   2  -3  285.86    2.52
   1  -2  -3  284.63    2.35
   0   2  -3   83.83    1.20
   0  -2  -3   86.01    1.04
  -1   2  -3   61.97    1.03
  -1  -2  -3   61.39    0.79
  -2   2  -3  181.13    1.93
  -2  -2  -3  179.14    1.48
   3  -2   3    1.70    0.24
   4  -2   3    1.92    0.26
   5  -2   3    0.97    0.23
   6  -2   3    0.34    0.21
   7  -2   3    0.08    0.22
   8  -2   3    0.80    0.28
  13  -3  -3   17.48    0.99
  12  -3  -3   23.24    1.06
  11  -3  -3   34.73    1.23
  10   3  -3    3.96    0.45
  10  -3  -3    3.81    0.53
   9   3  -3    0.38    0.26
   9  -3  -3    0.31    0.31
   8   3  -3    4.71    0.47
   8  -3  -3    5.28    0.56
   7   3  -3   15.89    0.68
   7  -3  -3   16.99    0.78
   6   3  -3    0.38    0.21
   6  -3  -3    0.97    0.30
   5   3  -3   32.73    0.89
   5  -3  -3   32.99    0.93
   4   3  -3    0.36    0.20
   4  -3  -3    0.28    0.22
   3   3  -3   94.07    1.45
   3  -3  -3   96.93    1.45
   2   3  -3  151.66    1.88
   2  -3  -3  151.18    1.79
   1   3  -3  111.79    1.59
   1  -3  -3  114.45    1.47
   0   3  -3    2.88    0.35
   0  -3  -3    3.33    0.33
  -1   3  -3    2.98    0.33
  -1  -3  -3    3.01    0.30
  -2  -3  -3   85.07    1.08
   2  -3   3   81.84    1.36
  -3  -3  -3  108.67    1.16
   3  -3   3  105.98    1.58
   4  -3   3  116.24    1.69
   5  -3   3  139.15    1.91
   6  -3   3  117.81    1.79
   7  -3   3   28.51    0.92
   8  -3   3   -0.05    0.27
   9  -3   3   17.08    0.77
  13  -4  -3    0.37    0.48
  12  -4  -3   12.04    0.89
  11  -4  -3    0.43    0.42
  10  -4  -3   55.46    1.56
   9   4  -3  136.24    2.15
   9  -4  -3  136.35    2.37
   8   4  -3    0.09    0.26
   8  -4  -3    0.26    0.32
   7   4  -3    2.02    0.35
   7  -4  -3    1.95    0.40
   6   4  -3   24.08    0.86
   6  -4  -3   25.46    0.95
   5   4  -3   65.73    1.37
   5  -4  -3   65.75    1.41
   4   4  -3   77.50    1.47
   4  -4  -3   78.25    1.49
   3   4  -3   38.54    1.04
   3  -4  -3   40.60    1.05
   2   4  -3   43.61    1.09
   2  -4  -3   43.89    1.05
   1   4  -3   45.61    1.13
   1  -4  -3   47.66    1.06
   0   4  -3   17.70    0.74
   0  -4  -3   17.94    0.64
  -1  -4  -3    0.30    0.19
   1  -4   3    0.15    0.23
  -2  -4  -3  167.01    1.84
   2  -4   3  168.71    2.25
  -3  -4  -3   73.44    1.11
   3  -4   3   71.92    1.46
   4  -4   3  112.24    1.85
   5  -4   3   26.75    0.97
   6  -4   3    4.28    0.48
   7  -4   3   15.15    0.79
   8  -4   3    0.41    0.33
   9  -4   3    5.28    0.61
  12  -5  -3   32.47    1.39
  11  -5  -3   25.23    1.24
  10  -5  -3    3.66    0.60
   9  -5  -3   21.94    1.06
   8   5  -3    1.01    0.34
   8  -5  -3    1.12    0.41
   7   5  -3   17.79    0.84
   7  -5  -3   17.76    0.92
   6   5  -3    0.28    0.28
   6  -5  -3    0.19    0.31
   5   5  -3   71.72    1.56
   4   5  -3  172.44    2.47
   4  -5  -3  175.74    2.50
   3   5  -3    2.53    0.41
   3  -5  -3    2.41    0.41
   2   5  -3   10.31    0.67
   2  -5  -3   10.51    0.65
   1  -5  -3    2.22    0.36
   0  -5  -3    0.02    0.22
   0  -5   3    0.62    0.28
  -1  -5  -3   30.48    0.90
   1  -5   3   29.86    1.04
  -2  -5  -3   96.81    1.54
   2  -5   3   97.28    1.85
  -3  -5  -3   48.82    1.05
   3  -5   3   47.65    1.33
   4  -5   3   32.70    1.14
   5  -5   3    4.03    0.52
   6  -5   3    0.78    0.38
   7  -5   3    2.38    0.47
   8  -5   3    0.03    0.36
   9  -5   3    2.73    0.54
  10  -5   3   25.68    1.14
  11  -6  -3    3.12    0.66
  10  -6  -3    1.85    0.57
   9  -6  -3    2.81    0.59
   8  -6  -3    0.14    0.39
   7   6  -3   17.29    0.92
   7  -6  -3   18.66    1.01
   6   6  -3    4.52    0.56
   6  -6  -3    4.81    0.60
   5   6  -3    4.19    0.54
   5  -6  -3    4.13    0.55
   4   6  -3    5.89    0.63
   4  -6  -3    5.14    0.62
   3  -6  -3   13.66    0.80
  -3  -6   3   13.40    0.80
   2  -6  -3    7.65    0.64
  -2  -6   3    7.80    0.66
   1  -6  -3   91.54    1.76
   0  -6  -3  271.31    3.15
   0  -6   3  270.64    3.45
  -1  -6  -3  256.41    2.99
   1  -6   3  258.09    3.38
  -2  -6  -3   61.80    1.37
   2  -6   3   61.30    1.62
   3  -6   3   18.78    0.97
   4  -6   3    0.75    0.38
   5  -6   3    1.86    0.45
   6  -6   3   28.99    1.21
   7  -6   3   23.53    1.13
   8  -6   3   -0.14    0.40
   9  -6   3   31.27    1.33
  10  -6   3   10.69    0.94
   9  -7  -3   10.21    0.98
   8  -7  -3   22.61    1.21
   7  -7  -3    0.49    0.48
   6  -7  -3   38.60    1.44
  -6  -7   3   41.16    1.43
   5  -7  -3   20.87    1.09
  -5  -7   3   20.83    1.05
   4  -7  -3    3.66    0.58
  -4  -7   3    4.50    0.59
   3  -7  -3    3.04    0.55
  -3  -7   3    3.13    0.53
   2  -7  -3   14.89    0.86
  -2  -7   3   15.13    0.95
   1  -7  -3   21.45    0.99
  -1  -7   3   21.59    1.08
   0  -7  -3    2.49    0.46
   0  -7   3    1.85    0.50
  -1  -7  -3    6.49    0.66
   1  -7   3    5.18    0.66
   2  -7   3   -0.19    0.35
   3  -7   3    0.16    0.40
   4  -7   3   24.69    1.20
   5  -7   3   16.24    1.02
   6  -7   3   23.45    1.19
   7  -7   3   29.25    1.36
   8  -7   3    1.82    0.58
   7  -8  -3    6.68    0.84
   6  -8  -3    0.56    0.50
   5  -8  -3    5.37    0.74
  -5  -8   3    6.43    0.75
   4  -8  -3   23.74    1.22
  -4  -8   3   25.38    1.26
   3  -8  -3   58.34    1.76
  -3  -8   3   57.73    1.81
   2  -8  -3  135.56    2.64
  -2  -8   3  136.75    2.77
   1  -8  -3   95.86    2.18
  -1  -8   3   92.90    2.28
   0  -8  -3    3.17    0.56
   0  -8   3    3.12    0.60
   1  -8   3    1.58    0.53
   2  -8   3    1.76    0.56
   3  -8   3    0.11    0.43
   4  -8   3    1.83    0.57
   5  -8   3    1.81    0.59
   6  -8   3    5.87    0.81
   1  -9  -3    0.14    0.47
  -1  -9   3   -0.17    0.46
   0  -9   3    0.03    0.47
   1  -9   3    3.41    0.71
  12   0  -4  243.76    3.08
  11   0  -4   -0.14    0.33
  10   0  -4  827.50    6.33
   9   0  -4   -0.10    0.24
   8   0  -4   33.56    0.96
   7   0  -4   -0.01    0.20
   6   0  -4   64.71    1.18
   5   0  -4   -0.01    0.17
   4   0  -4 1097.68    7.00
   3   0  -4   -0.01    0.14
   2   0  -4  300.28    2.46
   1   0  -4    0.57    0.15
   0   0  -4  204.96    1.77
  -1   0  -4    0.00    0.10
  -2   0  -4  262.67    2.06
  -3   0  -4    0.01    0.11
  13  -1  -4   10.54    0.79
  12   1  -4    3.00    0.49
  12  -1  -4    2.95    0.50
  11   1  -4    2.56    0.43
  11  -1  -4    2.25    0.44
  10   1  -4   25.50    0.94
  10  -1  -4   25.58    0.94
   9   1  -4   65.89    1.36
   9  -1  -4   64.78    1.42
   8   1  -4   62.24    1.26
   8  -1  -4   61.25    1.29
   7   1  -4  248.24    2.60
   7  -1  -4  248.99    2.67
   6   1  -4  133.83    1.74
   6  -1  -4  136.14    1.81
   5   1  -4   19.36    0.65
   5  -1  -4   19.90    0.67
   4   1  -4  384.29    3.17
   4  -1  -4  386.86    3.19
   3   1  -4   79.47    1.15
   3  -1  -4   79.41    1.16
   2   1  -4    0.58    0.16
   2  -1  -4    0.37    0.16
   1   1  -4   60.00    0.93
   1  -1  -4   59.07    0.88
   0   1  -4   37.06    0.72
   0  -1  -4   36.76    0.63
  -1   1  -4  714.35    4.78
  -1  -1  -4  713.01    4.59
  -2   1  -4  422.70    3.18
  -3   1  -4    0.40    0.16
   4  -1   4  365.43    2.84
   5  -1   4  140.80    1.50
   6  -1   4    0.46    0.20
   7  -1   4    5.58    0.38
  13  -2  -4   59.59    1.62
  12  -2  -4   26.60    1.10
  11   2  -4    6.38    0.62
  11  -2  -4    6.57    0.63
  10   2  -4    1.99    0.38
  10  -2  -4    1.66    0.41
   9   2  -4  201.36    2.52
   8   2  -4   81.17    1.49
   8  -2  -4   82.84    1.59
   7   2  -4  107.35    1.69
   7  -2  -4  104.46    1.73
   6   2  -4  151.53    1.95
   6  -2  -4  148.08    1.99
   5   2  -4   23.11    0.73
   5  -2  -4   23.09    0.76
   4   2  -4    9.94    0.50
   4  -2  -4    9.26    0.52
   3   2  -4   50.58    0.99
   3  -2  -4   52.25    1.01
   2   2  -4  366.53    3.12
   2  -2  -4  368.68    3.02
   1   2  -4   18.61    0.62
   1  -2  -4   19.60    0.57
   0   2  -4 1167.65    7.48
   0  -2  -4 1171.73    7.17
  -1   2  -4    4.96    0.39
  -1  -2  -4    5.08    0.31
  -2   2  -4   46.55    0.95
  -2  -2  -4   46.75    0.65
   3  -2   4   29.88    0.76
   4  -2   4   10.33    0.51
   5  -2   4  266.28    2.57
   6  -2   4  196.10    2.16
   7  -2   4  473.74    3.83
  13  -3  -4   42.52    1.46
  12  -3  -4   20.41    1.02
  11  -3  -4    5.25    0.61
  10   3  -4    1.15    0.35
  10  -3  -4    0.81    0.39
   9   3  -4   14.33    0.74
   9  -3  -4   15.76    0.85
   8   3  -4   14.22    0.71
   8  -3  -4   14.57    0.81
   7   3  -4  355.88    3.53
   7  -3  -4  361.57    3.70
   6   3  -4  377.16    3.60
   6  -3  -4  379.48    3.69
   5   3  -4  230.27    2.60
   5  -3  -4  233.87    2.67
   4   3  -4  239.62    2.63
   4  -3  -4  238.29    2.59
   3   3  -4   19.04    0.71
   3  -3  -4   18.41    0.68
   2   3  -4    0.31    0.20
   2  -3  -4    0.27    0.19
   1   3  -4   58.77    1.17
   1  -3  -4   59.48    1.05
   0   3  -4  170.88    2.11
   0  -3  -4  172.28    1.82
  -1   3  -4    0.49    0.23
  -1  -3  -4    0.08    0.15
  -2   3  -4    2.10    0.32
  -2  -3  -4    2.63    0.29
   3  -3   4   45.12    1.06
   4  -3   4  226.54    2.53
   5  -3   4  162.16    2.13
   6  -3   4    5.60    0.53
   7  -3   4   23.17    0.86
   8  -3   4    0.92    0.33
  13  -4  -4    2.63    0.60
  12  -4  -4   27.20    1.24
  11  -4  -4    3.91    0.61
  10   4  -4   52.82    1.42
  10  -4  -4   53.09    1.53
   9   4  -4    5.74    0.58
   9  -4  -4    5.18    0.64
   8   4  -4    1.97    0.39
   8  -4  -4    1.94    0.43
   7   4  -4    2.34    0.40
   7  -4  -4    2.66    0.45
   6   4  -4   43.12    1.19
   6  -4  -4   43.19    1.23
   5   4  -4   20.82    0.86
   5  -4  -4   20.94    0.86
   4   4  -4   32.01    1.01
   4  -4  -4   32.93    1.02
   3   4  -4  333.09    3.44
   3  -4  -4  333.91    3.32
   2   4  -4   98.73    1.71
   2  -4  -4   99.50    1.59
   1   4  -4   16.89    0.75
   1  -4  -4   16.24    0.66
   0   4  -4   30.28    0.96
   0  -4  -4   30.56    0.82
  -1   4  -4   34.34    1.03
  -1  -4  -4   35.21    0.84
  -2  -4  -4  105.86    1.40
   2  -4   4  103.97    1.76
   3  -4   4   23.53    0.89
   4  -4   4  378.02    3.80
   5  -4   4   31.58    1.05
   6  -4   4   50.30    1.31
   7  -4   4   -0.04    0.30
   8  -4   4   25.01    1.00
   9  -4   4    0.20    0.36
  12  -5  -4    1.90    0.61
  11  -5  -4    6.27    0.75
  10  -5  -4    0.09    0.42
   9   5  -4   11.79    0.79
   9  -5  -4   10.35    0.83
   8   5  -4    0.38    0.33
   8  -5  -4    0.17    0.37
   7   5  -4   23.49    0.98
   7  -5  -4   22.94    1.04
   6   5  -4    1.29    0.36
   6  -5  -4    1.61    0.42
   5   5  -4   71.55    1.62
   5  -5  -4   74.08    1.67
   4   5  -4   65.30    1.55
   3   5  -4  211.54    2.84
   3  -5  -4  210.57    2.71
   2   5  -4  126.35    2.17
   2  -5  -4  125.95    1.98
   1   5  -4   24.89    0.99
   1  -5  -4   25.23    0.90
   0  -5  -4   34.34    0.98
   0  -5   4   33.63    1.13
  -1  -5  -4  311.59    3.07
   1  -5   4  314.43    3.56
  -2  -5  -4  216.86    2.40
   2  -5   4  212.89    2.86
   3  -5   4  378.22    4.06
   4  -5   4    0.05    0.32
   5  -5   4    4.24    0.53
   6  -5   4   10.85    0.75
   7  -5   4    7.80    0.70
   8  -5   4   23.20    1.06
   9  -5   4   22.98    1.08
  10  -6  -4   -0.44    0.43
   9  -6  -4   46.41    1.61
   8   6  -4    3.72    0.57
   8  -6  -4    3.23    0.60
   7   6  -4   84.47    1.95
   7  -6  -4   84.24    2.01
   6   6  -4   11.89    0.83
   6  -6  -4   13.36    0.88
   5   6  -4    1.28    0.40
   5  -6  -4    1.83    0.46
   4   6  -4   25.84    1.09
   4  -6  -4   26.07    1.07
   3   6  -4   20.01    0.99
   3  -6  -4   19.67    0.94
   2  -6  -4   83.96    1.76
   1  -6  -4   30.67    1.10
  -1  -6   4   30.37    1.18
   0  -6  -4   74.34    1.58
   0  -6   4   71.86    1.76
  -1  -6  -4    5.38    0.60
   1  -6   4    5.93    0.67
   2  -6   4   15.25    0.91
   3  -6   4   11.36    0.82
   4  -6   4    0.07    0.35
   5  -6   4    6.17    0.70
   6  -6   4   16.41    0.98
   7  -6   4   41.45    1.45
   8  -6   4    3.48    0.62
   9  -6   4    7.01    0.82
   9  -7  -4    7.25    0.84
   8  -7  -4   11.06    0.99
   7   7  -4    7.48    0.80
   7  -7  -4    6.91    0.80
   6  -7  -4   31.77    1.35
   5  -7  -4    2.53    0.55
  -5  -7   4    3.08    0.58
   4  -7  -4    9.67    0.82
  -4  -7   4    9.65    0.81
   3  -7  -4   16.91    0.97
  -3  -7   4   17.73    1.01
   2  -7  -4   19.04    0.99
  -2  -7   4   19.79    1.08
   1  -7  -4  209.80    3.01
  -1  -7   4  210.57    3.27
   0  -7  -4   74.16    1.71
   0  -7   4   72.04    1.93
   1  -7   4   42.30    1.50
   2  -7   4    1.61    0.52
   3  -7   4    6.00    0.74
   4  -7   4   13.03    0.95
   5  -7   4    7.44    0.78
   6  -7   4    0.94    0.48
   7  -7   4   15.21    1.06
   8  -7   4    7.70    0.89
   6  -8  -4    9.91    0.94
   5  -8  -4    2.10    0.61
  -5  -8   4    1.71    0.58
   4  -8  -4   19.58    1.14
  -4  -8   4   20.18    1.19
   3  -8  -4   66.71    1.93
  -3  -8   4   67.88    2.00
   2  -8  -4   12.09    0.95
  -2  -8   4   11.92    0.97
   1  -8  -4    4.95    0.68
  -1  -8   4    5.17    0.72
   0  -8   4    5.48    0.75
   1  -8   4   62.18    1.95
   2  -8   4   16.41    1.13
   3  -8   4    1.20    0.54
   4  -8   4   39.24    1.58
   5  -8   4   12.25    1.04
  13   0  -5    0.83    0.41
  12   0  -5   -0.16    0.30
  11   0  -5    3.77    0.50
  10   0  -5   -0.11    0.29
   9   0  -5   -0.08    0.25
   8   0  -5    0.06    0.26
   7   0  -5    0.94    0.28
   6   0  -5   -0.03    0.20
   5   0  -5  127.66    1.71
   4   0  -5   -0.08    0.17
   3   0  -5  185.90    2.00
   2   0  -5    0.13    0.14
   1   0  -5  199.40    1.90
   0   0  -5    0.40    0.14
  -1   0  -5  435.78    3.17
  -2   0  -5    0.16    0.13
  -3   0  -5  971.88    6.13
  13  -1  -5   27.23    1.14
  12   1  -5    1.04    0.40
  12  -1  -5    1.03    0.39
  11   1  -5   51.99    1.36
  11  -1  -5   53.13    1.43
  10   1  -5   21.37    0.91
  10  -1  -5   20.37    0.90
   9   1  -5   62.36    1.40
   9  -1  -5   63.48    1.43
   8   1  -5  137.02    2.01
   8  -1  -5  137.63    2.07
   7   1  -5    4.18    0.45
   7  -1  -5    3.83    0.44
   6   1  -5    2.31    0.33
   6  -1  -5    2.16    0.34
   5   1  -5    0.18    0.20
   5  -1  -5    0.42    0.23
   4   1  -5  106.97    1.53
   4  -1  -5  103.77    1.49
   3   1  -5  168.76    1.91
   3  -1  -5  167.05    1.87
   2   1  -5  284.38    2.60
   2  -1  -5  285.17    2.53
   1   1  -5  200.69    2.01
   1  -1  -5  208.13    1.98
   0   1  -5   59.61    1.00
   0  -1  -5   57.54    0.88
  -1   1  -5   67.39    1.06
  -1  -1  -5   66.28    0.88
  -2   1  -5  195.85    1.94
  -2  -1  -5  195.70    1.65
  -3   1  -5   41.97    0.83
   4  -1   5    8.83    0.42
   5  -1   5    0.72    0.21
   6  -1   5  100.12    1.28
  14  -2  -5   10.79    0.90
  13  -2  -5    2.21    0.53
  12   2  -5    8.65    0.72
  12  -2  -5    8.53    0.75
  11   2  -5    0.91    0.37
  11  -2  -5    1.18    0.41
  10   2  -5    2.05    0.41
  10  -2  -5    1.39    0.41
   9   2  -5   25.59    0.94
   9  -2  -5   26.17    1.01
   8   2  -5   50.86    1.24
   8  -2  -5   49.76    1.28
   7   2  -5   36.51    1.03
   7  -2  -5   35.29    1.07
   6   2  -5  164.56    2.16
   6  -2  -5  162.79    2.18
   5   2  -5    0.00    0.19
   5  -2  -5    0.12    0.23
   4   2  -5   45.80    1.04
   4  -2  -5   46.20    1.04
   3   2  -5    5.18    0.42
   3  -2  -5    5.03    0.42
   2   2  -5  273.21    2.68
   2  -2  -5  272.62    2.54
   1   2  -5    9.79    0.52
   1  -2  -5    9.90    0.46
   0   2  -5    0.19    0.18
   0  -2  -5    0.36    0.17
  -1   2  -5   52.67    1.06
  -1  -2  -5   51.67    0.81
  -2   2  -5    9.30    0.50
  -2  -2  -5    8.99    0.34
  -3   2  -5   -0.06    0.17
   4  -2   5  100.20    1.49
   5  -2   5    7.19    0.48
   6  -2   5  388.30    3.37
   7  -2   5    3.13    0.38
  13  -3  -5   14.89    0.98
  12  -3  -5    0.97    0.46
  11   3  -5    0.18    0.33
  11  -3  -5    0.15    0.37
  10   3  -5    0.96    0.36
  10  -3  -5    0.91    0.41
   9   3  -5   11.99    0.72
   9  -3  -5   11.74    0.78
   8   3  -5   10.16    0.66
   8  -3  -5    9.65    0.70
   7   3  -5   62.64    1.41
   7  -3  -5   64.07    1.47
   6   3  -5   35.56    1.05
   6  -3  -5   35.58    1.10
   5   3  -5   74.14    1.46
   5  -3  -5   74.68    1.47
   4   3  -5    1.48    0.31
   4  -3  -5    1.35    0.32
   3   3  -5   34.15    0.97
   3  -3  -5   33.13    0.92
   2   3  -5   80.20    1.48
   2  -3  -5   80.27    1.34
   1   3  -5  320.68    3.20
   1  -3  -5  320.23    2.88
   0   3  -5   45.75    1.09
   0  -3  -5   46.58    0.92
  -1   3  -5  121.74    1.83
  -1  -3  -5  122.89    1.45
  -2   3  -5   32.96    0.96
  -2  -3  -5   33.63    0.68
   3  -3   5    9.94    0.60
   4  -3   5   41.13    1.06
   5  -3   5  116.84    1.83
   6  -3   5  216.69    2.60
   7  -3   5    0.78    0.34
  12  -4  -5    6.31    0.76
  11  -4  -5   14.51    0.95
  10   4  -5   22.07    1.01
  10  -4  -5   23.34    1.11
   9   4  -5    3.27    0.49
   9  -4  -5    3.21    0.53
   8   4  -5    9.94    0.70
   8  -4  -5   10.67    0.77
   7   4  -5    5.21    0.57
   7  -4  -5    5.85    0.62
   6  -4  -5   41.42    1.24
   5   4  -5  306.84    3.47
   5  -4  -5  298.72    3.36
   4   4  -5  313.75    3.45
   4  -4  -5  315.47    3.36
   3   4  -5   91.90    1.74
   3  -4  -5   90.26    1.62
   2   4  -5   51.82    1.29
   2  -4  -5   52.62    1.18
   1   4  -5   25.28    0.93
   1  -4  -5   26.48    0.83
   0   4  -5   14.27    0.74
   0  -4  -5   14.39    0.62
  -1   4  -5    3.38    0.42
  -1  -4  -5    3.60    0.40
  -2  -4  -5  145.10    1.70
   2  -4   5  141.77    2.16
   3  -4   5   50.40    1.30
   4  -4   5  166.92    2.41
   5  -4   5   37.70    1.16
   6  -4   5    3.25    0.46
   7  -4   5   49.59    1.35
   8  -4   5    4.40    0.54
  11  -5  -5   11.42    0.96
  10   5  -5   17.58    1.00
  10  -5  -5   16.60    1.03
   9   5  -5   37.86    1.35
   9  -5  -5   37.06    1.37
   8   5  -5    8.64    0.74
   8  -5  -5    8.82    0.77
   7   5  -5    1.31    0.40
   7  -5  -5    1.59    0.45
   6   5  -5    2.82    0.47
   6  -5  -5    3.57    0.53
   5   5  -5   33.09    1.17
   5  -5  -5   34.44    1.18
   4   5  -5    2.55    0.45
   4  -5  -5    2.24    0.43
   3   5  -5    8.83    0.70
   3  -5  -5    9.67    0.69
   2   5  -5   24.85    1.03
   2  -5  -5   26.17    0.96
   1   5  -5   22.88    0.97
   1  -5  -5   23.64    0.90
   0   5  -5    1.62    0.38
   0  -5  -5    1.50    0.35
  -1  -5  -5   24.08    0.85
   1  -5   5   24.79    1.03
   4  -5   5    0.36    0.35
   5  -5   5   20.56    0.98
   6  -5   5   15.05    0.90
   7  -5   5    1.67    0.46
   8  -5   5    8.06    0.75
  10  -6  -5    7.97    0.91
   9   6  -5   -0.29    0.39
   9  -6  -5   -0.09    0.43
   8   6  -5    5.80    0.68
   8  -6  -5    6.37    0.77
   7   6  -5    0.45    0.39
   7  -6  -5    0.23    0.42
   6   6  -5    3.57    0.57
   6  -6  -5    4.78    0.63
   5   6  -5    1.76    0.44
   5  -6  -5    1.43    0.45
   4   6  -5   20.49    1.03
   4  -6  -5   20.55    1.00
   3   6  -5   93.46    2.06
   3  -6  -5   93.46    1.94
   2  -6  -5  161.47    2.52
   1  -6  -5   75.72    1.66
  -1  -6   5   74.10    1.84
   0  -6  -5  147.11    2.23
   0  -6   5  147.49    2.59
   1  -6   5   29.89    1.21
   2  -6   5   32.45    1.26
   3  -6   5    4.92    0.62
   4  -6   5    0.30    0.38
   5  -6   5   82.67    2.01
   6  -6   5   11.14    0.85
   7  -6   5    1.65    0.52
   8  -6   5   24.88    1.23
   9  -6   5    1.76    0.57
   8   7  -5    8.77    0.87
   8  -7  -5    8.08    0.88
   7   7  -5   31.02    1.36
   7  -7  -5   30.35    1.36
   6   7  -5   25.78    1.25
   6  -7  -5   24.66    1.25
   5   7  -5   20.55    1.13
   5  -7  -5   20.86    1.12
   4   7  -5   -0.26    0.33
   4  -7  -5   -0.12    0.38
   3  -7  -5    1.30    0.48
  -3  -7   5    1.44    0.50
   2  -7  -5    0.34    0.42
  -2  -7   5    0.21    0.41
   1  -7  -5   78.02    1.81
  -1  -7   5   76.95    2.03
   0  -7  -5   63.47    1.60
   0  -7   5   63.22    1.85
   1  -7   5   75.80    2.03
   2  -7   5   49.48    1.66
   3  -7   5    7.42    0.78
   4  -7   5    5.28    0.71
   5  -7   5    2.13    0.57
   6  -7   5   13.27    1.01
   7  -7   5    3.57    0.68
   6  -8  -5   11.63    1.04
  -6  -8   5   12.22    1.02
   5  -8  -5    5.24    0.75
  -5  -8   5    4.60    0.73
   4  -8  -5    6.93    0.81
  -4  -8   5    6.53    0.81
   3  -8  -5   12.76    0.99
  -3  -8   5   12.43    1.04
   2  -8  -5    2.72    0.60
  -2  -8   5    2.27    0.61
   1  -8  -5    5.25    0.69
  -1  -8   5    5.16    0.76
   0  -8   5   22.97    1.27
   1  -8   5   13.79    1.07
   2  -8   5   -0.06    0.47
   3  -8   5    0.67    0.56
   4  -8   5    1.38    0.58
  13   0  -6    0.27    0.38
  12   0  -6    0.76    0.38
  11   0  -6    0.04    0.30
  10   0  -6    0.12    0.30
   9   0  -6   -0.09    0.27
   8   0  -6    0.06    0.28
   7   0  -6   -0.15    0.23
   6   0  -6    2.66    0.38
   5   0  -6    0.14    0.21
   4   0  -6   40.98    0.98
   3   0  -6    0.01    0.17
   2   0  -6   40.84    0.88
   1   0  -6   -0.04    0.14
   0   0  -6    1.29    0.21
  -1   0  -6    0.03    0.14
  -2   0  -6   47.24    0.84
  -3   0  -6   -0.13    0.14
  14  -1  -6    0.44    0.43
  13   1  -6   27.20    1.16
  13  -1  -6   29.15    1.25
  12   1  -6    0.74    0.38
  12  -1  -6    0.91    0.42
  11   1  -6    0.93    0.37
  11  -1  -6    0.81    0.37
  10   1  -6    0.46    0.33
  10  -1  -6    0.46    0.34
   9   1  -6   34.23    1.10
   9  -1  -6   34.00    1.10
   8   1  -6    0.66    0.30
   8  -1  -6    0.94    0.34
   7   1  -6   23.30    0.88
   7  -1  -6   22.31    0.87
   6   1  -6    0.10    0.22
   6  -1  -6   -0.06    0.23
   5   1  -6    0.10    0.21
   5  -1  -6    0.15    0.22
   4   1  -6    1.06    0.25
   4  -1  -6    1.11    0.27
   3   1  -6   31.39    0.84
   3  -1  -6   31.10    0.82
   2   1  -6    4.01    0.38
   2  -1  -6    4.28    0.38
   1   1  -6    8.49    0.46
   1  -1  -6    7.99    0.43
   0   1  -6   26.08    0.72
   0  -1  -6   25.05    0.63
  -1   1  -6    2.43    0.28
  -1  -1  -6    2.27    0.27
  -2   1  -6   14.49    0.56
  -2  -1  -6   14.31    0.45
  -3   1  -6   25.15    0.71
  -4   1  -6   40.45    0.88
   5  -1   6   60.52    1.03
  13  -2  -6    0.15    0.42
  12   2  -6    1.23    0.42
  12  -2  -6    1.79    0.48
  11   2  -6   11.33    0.77
  11  -2  -6   11.85    0.82
  10   2  -6    0.02    0.30
  10  -2  -6   -0.05    0.34
   9   2  -6   10.13    0.68
   9  -2  -6   10.06    0.72
   8   2  -6   19.24    0.84
   8  -2  -6   19.41    0.89
   7   2  -6    1.12    0.33
   7  -2  -6    1.07    0.35
   6   2  -6    8.48    0.59
   6  -2  -6    8.95    0.62
   5   2  -6   32.30    0.96
   5  -2  -6   30.63    0.94
   4   2  -6   28.85    0.90
   4  -2  -6   27.17    0.85
   3   2  -6    2.09    0.31
   3  -2  -6    2.18    0.31
   2   2  -6    0.25    0.20
   2  -2  -6    0.12    0.20
   1   2  -6    6.20    0.47
   1  -2  -6    5.15    0.40
   0   2  -6   92.57    1.49
   0  -2  -6   93.12    1.27
  -1   2  -6   19.68    0.71
  -1  -2  -6   20.22    0.56
  -2   2  -6   15.55    0.65
  -2  -2  -6   15.43    0.46
  -3   2  -6    0.15    0.21
   4  -2   6   10.65    0.57
   5  -2   6    1.88    0.32
   6  -2   6   32.51    0.89
  13  -3  -6    9.01    0.84
  12   3  -6    1.22    0.44
  12  -3  -6    1.53    0.51
  11   3  -6    4.56    0.57
  11  -3  -6    4.49    0.61
  10   3  -6   11.07    0.78
  10  -3  -6   11.35    0.82
   9   3  -6    0.79    0.34
   9  -3  -6    0.79    0.39
   8   3  -6    7.82    0.64
   8  -3  -6    7.33    0.66
   7   3  -6   12.09    0.72
   7  -3  -6   12.09    0.75
   6   3  -6   12.80    0.72
   6  -3  -6   12.70    0.74
   5   3  -6   34.70    1.07
   5  -3  -6   35.05    1.07
   4   3  -6    1.28    0.32
   4  -3  -6    1.49    0.35
   3   3  -6    4.43    0.49
   3  -3  -6    4.72    0.48
   2   3  -6   21.91    0.83
   2  -3  -6   21.80    0.75
   1   3  -6   13.52    0.68
   1  -3  -6   12.75    0.58
   0   3  -6    4.63    0.47
   0  -3  -6    6.92    0.45
  -1   3  -6   10.44    0.62
  -1  -3  -6   10.15    0.47
  -2   3  -6   52.51    1.27
  -3   3  -6    5.80    0.53
   4  -3   6    0.43    0.28
   5  -3   6   22.09    0.85
   6  -3   6    4.03    0.50
   7  -3   6   35.17    1.07
  12  -4  -6    6.59    0.78
  11   4  -6   23.99    1.12
  11  -4  -6   21.85    1.14
  10   4  -6   14.81    0.90
  10  -4  -6   14.25    0.94
   9   4  -6   11.37    0.79
   9  -4  -6   12.01    0.86
   8   4  -6    6.80    0.65
   8  -4  -6    7.63    0.73
   7   4  -6   85.98    1.86
   7  -4  -6   86.88    1.86
   6  -4  -6   33.05    1.17
   5   4  -6    8.94    0.68
   5  -4  -6    8.30    0.66
   4   4  -6    7.49    0.63
   4  -4  -6    7.14    0.62
   3   4  -6    3.14    0.44
   3  -4  -6    2.90    0.43
   2   4  -6    7.88    0.61
   2  -4  -6    7.58    0.56
   1   4  -6   13.73    0.76
   1  -4  -6   13.92    0.66
   0   4  -6    2.16    0.38
   0  -4  -6    1.69    0.32
  -1   4  -6   20.84    0.90
  -1  -4  -6   19.66    0.69
  -2   4  -6   41.10    1.23
   3  -4   6   -0.02    0.27
   4  -4   6    4.50    0.55
   5  -4   6   15.05    0.80
   6  -4   6    1.38    0.40
   7  -4   6    7.83    0.67
  11  -5  -6   -0.08    0.46
  10   5  -6   23.92    1.19
  10  -5  -6   21.96    1.19
   9   5  -6    7.76    0.78
   9  -5  -6    7.21    0.78
   8   5  -6   42.02    1.44
   8  -5  -6   42.19    1.47
   7   5  -6    0.66    0.37
   7  -5  -6    0.84    0.43
   6   5  -6    1.20    0.41
   6  -5  -6    0.92    0.39
   5   5  -6    8.11    0.71
   5  -5  -6    8.62    0.71
   4  -5  -6   52.44    1.41
   3  -5  -6   39.90    1.22
   2   5  -6  139.08    2.42
   2  -5  -6  138.17    2.16
   1   5  -6   -0.02    0.30
   1  -5  -6   -0.13    0.26
   0   5  -6    0.67    0.36
   0  -5  -6    1.04    0.32
   2  -5   6   13.33    0.83
   3  -5   6   12.62    0.82
   4  -5   6   17.07    0.92
   5  -5   6    3.46    0.56
   6  -5   6   12.99    0.86
   7  -5   6    1.37    0.45
   8  -5   6    2.48    0.55
  10  -6  -6   60.06    1.92
   9   6  -6    2.96    0.60
   9  -6  -6    3.88    0.68
   8   6  -6   49.77    1.65
   8  -6  -6   50.36    1.69
   7   6  -6    0.23    0.40
   7  -6  -6    0.33    0.42
   6   6  -6   -0.42    0.33
   6  -6  -6   -0.21    0.36
   5   6  -6    0.59    0.39
   5  -6  -6    0.72    0.42
   4   6  -6    0.26    0.37
   4  -6  -6    0.56    0.37
   3   6  -6    0.20    0.35
   3  -6  -6   -0.27    0.34
   2   6  -6    0.00    0.33
   2  -6  -6    0.14    0.37
   1   6  -6   54.45    1.63
   1  -6  -6   57.49    1.47
   0  -6  -6    0.93    0.38
   0  -6   6    0.51    0.41
   1  -6   6    3.08    0.53
   2  -6   6    0.71    0.41
   3  -6   6   26.44    1.19
   4  -6   6   23.71    1.15
   5  -6   6    0.82    0.43
   6  -6   6   -0.19    0.42
   7  -6   6    0.26    0.46
   8  -6   6    5.05    0.70
   8   7  -6    2.85    0.63
   8  -7  -6    3.30    0.66
   7   7  -6    2.43    0.59
   7  -7  -6    2.00    0.59
   6   7  -6   18.82    1.13
   6  -7  -6   17.86    1.09
   5   7  -6    7.52    0.80
   5  -7  -6    6.91    0.77
   4   7  -6   23.56    1.22
   4  -7  -6   22.47    1.14
   3   7  -6    1.29    0.47
   3  -7  -6    1.33    0.48
   2  -7  -6   16.09    0.96
  -2  -7   6   17.15    1.08
   1  -7  -6   52.00    1.50
  -1  -7   6   50.70    1.71
   0  -7   6   70.40    1.99
   1  -7   6   14.78    1.05
   2  -7   6    4.64    0.70
   3  -7   6    0.06    0.44
   4  -7   6    4.99    0.73
   5  -7   6   15.15    1.05
   6  -7   6    2.31    0.60
   5  -8  -6   43.85    1.65
  -5  -8   6   46.36    1.78
   4  -8  -6    0.89    0.53
  -4  -8   6    1.23    0.54
   3  -8  -6   17.55    1.12
  -3  -8   6   17.39    1.19
   2  -8  -6    0.79    0.49
  -2  -8   6    0.67    0.51
  -1  -8   6   -0.30    0.43
   0  -8   6   23.41    1.33
   1  -8   6   19.22    1.24
   2  -8   6   68.95    2.14
   3  -8   6   18.17    1.24
  13   0  -7    0.69    0.41
  12   0  -7   -0.32    0.33
  11   0  -7   35.56    1.22
  10   0  -7   -0.02    0.30
   9   0  -7   19.58    0.88
   8   0  -7   -0.15    0.27
   7   0  -7  118.64    1.97
   6   0  -7   -0.14    0.23
   4   0  -7   -0.02    0.20
   3   0  -7    5.71    0.46
   2   0  -7   -0.02    0.18
   1   0  -7  463.13    3.79
   0   0  -7    0.06    0.17
  -1   0  -7   31.13    0.77
  -2   0  -7   -0.09    0.16
  -3   0  -7    0.58    0.21
  13   1  -7   29.24    1.25
  13  -1  -7   29.57    1.27
  12   1  -7   34.77    1.29
  12  -1  -7   33.85    1.33
  11   1  -7   12.57    0.82
  11  -1  -7   10.81    0.80
  10   1  -7    0.00    0.31
  10  -1  -7    0.21    0.33
   9   1  -7    9.22    0.70
   9  -1  -7    8.88    0.69
   8   1  -7    4.42    0.50
   8  -1  -7    4.34    0.52
   7   1  -7   23.06    0.92
   7  -1  -7   22.41    0.91
   6   1  -7    8.38    0.60
   6  -1  -7    7.92    0.59
   5   1  -7    5.16    0.49
   5  -1  -7    5.05    0.51
   4   1  -7  134.13    1.94
   4  -1  -7  136.61    1.93
   3   1  -7  106.58    1.68
   3  -1  -7  108.80    1.63
   2   1  -7  137.49    1.88
   2  -1  -7  136.26    1.79
   1   1  -7   46.72    1.05
   1  -1  -7   44.41    0.95
   0   1  -7    3.56    0.40
   0  -1  -7    3.76    0.36
  -1   1  -7    7.52    0.49
  -1  -1  -7    7.44    0.42
  -2   1  -7    2.07    0.30
  -2  -1  -7    2.35    0.26
  -3   1  -7   37.07    0.92
  13   2  -7    0.20    0.39
  13  -2  -7    0.12    0.41
  12   2  -7    0.85    0.40
  12  -2  -7    0.65    0.43
  11   2  -7   62.93    1.67
  11  -2  -7   59.27    1.66
  10   2  -7   11.57    0.80
  10  -2  -7   12.74    0.85
   9   2  -7    8.09    0.68
   9  -2  -7    7.55    0.68
   8   2  -7   28.49    1.06
   8  -2  -7   27.22    1.05
   7   2  -7   15.93    0.81
   7  -2  -7   15.10    0.81
   6   2  -7   27.49    0.98
   6  -2  -7   27.39    0.98
   5   2  -7   23.25    0.88
   5  -2  -7   23.74    0.89
   4   2  -7    4.07    0.48
   4  -2  -7    3.93    0.47
   3   2  -7    4.33    0.47
   3  -2  -7    4.43    0.46
   2   2  -7   84.14    1.53
   2  -2  -7   83.58    1.40
   1   2  -7   11.85    0.63
   1  -2  -7   11.30    0.54
   0   2  -7    5.76    0.48
   0  -2  -7    5.62    0.42
  -1   2  -7    1.11    0.28
  -1  -2  -7    0.99    0.22
  -2   2  -7   31.02    0.93
  -3   2  -7    0.10    0.23
  -4   2  -7   31.31    0.93
   5  -2   7   26.68    0.86
  12   3  -7    1.29    0.47
  12  -3  -7    1.65    0.53
  11   3  -7   29.03    1.21
  11  -3  -7   27.71    1.25
  10   3  -7    4.21    0.58
  10  -3  -7    3.81    0.59
   9   3  -7    0.34    0.34
   9  -3  -7    0.85    0.41
   8   3  -7    9.46    0.71
   8  -3  -7    9.69    0.76
   7   3  -7  143.84    2.37
   7  -3  -7  145.84    2.38
   6  -3  -7  121.17    2.10
   5   3  -7  276.61    3.29
   4   3  -7  192.11    2.63
   4  -3  -7  187.68    2.49
   3   3  -7    1.49    0.36
   3  -3  -7    1.84    0.36
   2   3  -7    0.00    0.24
   2  -3  -7    0.27    0.25
   1   3  -7   14.45    0.73
   1  -3  -7   14.26    0.63
   0   3  -7    8.06    0.60
   0  -3  -7    8.01    0.48
  -1   3  -7    6.27    0.56
  -1  -3  -7    6.08    0.42
  -2   3  -7   29.55    0.99
  -3   3  -7   13.69    0.74
   4  -3   7    3.65    0.46
   5  -3   7    0.52    0.32
   6  -3   7   -0.03    0.31
  12  -4  -7   10.62    0.98
  11   4  -7    4.38    0.63
  11  -4  -7    4.19    0.65
  10   4  -7    4.47    0.61
  10  -4  -7    3.46    0.62
   9   4  -7    0.01    0.33
   9  -4  -7   -0.25    0.38
   8   4  -7  128.56    2.43
   8  -4  -7  130.65    2.44
   7   4  -7   24.65    1.08
   7  -4  -7   23.95    1.07
   6   4  -7   15.18    0.89
   6  -4  -7   15.96    0.88
   5   4  -7    2.14    0.44
   5  -4  -7    2.04    0.44
   4   4  -7    0.37    0.31
   4  -4  -7    0.56    0.33
   3   4  -7    5.01    0.58
   3  -4  -7    4.94    0.54
   2   4  -7   24.81    1.01
   2  -4  -7   26.06    0.92
   1   4  -7   40.10    1.24
   1  -4  -7   38.81    1.04
   0  -4  -7   46.40    1.08
  -1   4  -7   34.12    1.17
  -2   4  -7    4.56    0.53
   3  -4   7   31.39    1.12
   4  -4   7    2.66    0.45
   5  -4   7   -0.17    0.32
   6  -4   7    2.24    0.46
  11   5  -7    1.09    0.51
  11  -5  -7    0.30    0.51
  10   5  -7    0.36    0.44
  10  -5  -7    0.13    0.44
   9   5  -7   61.80    1.81
   9  -5  -7   64.18    1.88
   8   5  -7  115.83    2.43
   8  -5  -7  118.71    2.45
   7   5  -7   36.23    1.37
   7  -5  -7   36.47    1.35
   6   5  -7   29.10    1.21
   6  -5  -7   31.01    1.21
   5   5  -7    0.80    0.40
   5  -5  -7    0.64    0.39
   4   5  -7   28.53    1.17
   4  -5  -7   30.69    1.12
   3   5  -7   -0.02    0.32
   3  -5  -7   -0.06    0.30
   2   5  -7    0.05    0.32
   2  -5  -7   -0.14    0.31
   1   5  -7    3.08    0.50
   1  -5  -7    3.08    0.45
   0   5  -7   11.18    0.79
   0  -5  -7   11.24    0.66
  -1   5  -7   11.64    0.82
   2  -5   7    8.37    0.74
   3  -5   7    1.29    0.44
   4  -5   7   26.02    1.12
   5  -5   7   10.51    0.83
   6  -5   7    1.08    0.46
   7  -5   7   -0.43    0.40
   9   6  -7   66.20    2.02
   9  -6  -7   65.73    1.99
   8   6  -7   25.88    1.28
   8  -6  -7   27.21    1.30
   7   6  -7    0.03    0.38
   7  -6  -7   -0.23    0.41
   6   6  -7    0.07    0.38
   6  -6  -7    0.22    0.40
   5   6  -7    3.85    0.60
   5  -6  -7    3.61    0.59
   4   6  -7   39.30    1.49
   4  -6  -7   40.31    1.38
   3   6  -7   32.21    1.34
   3  -6  -7   33.58    1.22
   2   6  -7   10.55    0.85
   2  -6  -7   10.96    0.78
   1   6  -7    7.49    0.76
   1  -6  -7    8.05    0.69
   0   6  -7    6.71    0.73
   1  -6   7    0.35    0.40
   2  -6   7   11.10    0.88
   3  -6   7    1.28    0.45
   4  -6   7    0.84    0.46
   5  -6   7    1.33    0.51
   6  -6   7   41.84    1.53
   7  -6   7    0.75    0.51
   7   7  -7    1.62    0.58
   7  -7  -7    1.41    0.56
   6   7  -7   25.18    1.31
   6  -7  -7   25.55    1.30
   5   7  -7   33.61    1.51
   5  -7  -7   32.36    1.37
   4   7  -7    4.47    0.69
   4  -7  -7    4.98    0.67
   3   7  -7   12.83    0.98
   3  -7  -7   14.34    0.96
   2  -7  -7    1.79    0.50
  -1  -7   7   -0.44    0.41
   0  -7   7    0.03    0.40
   1  -7   7   34.29    1.48
   2  -7   7   14.88    1.07
   3  -7   7   21.57    1.24
   4  -7   7   14.68    1.06
   5  -7   7    0.52    0.55
   3  -8  -7    0.45    0.50
  -3  -8   7    0.12    0.48
  -2  -8   7    1.37    0.61
  -1  -8   7   13.98    1.13
   0  -8   7    6.72    0.88
   1  -8   7   24.88    1.43
  13   0  -8    0.35    0.43
  12   0  -8   14.29    0.93
  11   0  -8    0.47    0.37
  10   0  -8   19.06    0.95
   9   0  -8   -0.12    0.29
   8   0  -8    2.02    0.42
   7   0  -8    0.10    0.27
   6   0  -8    5.09    0.54
   5   0  -8    0.08    0.25
   4   0  -8    0.45    0.26
   3   0  -8    0.05    0.23
   2   0  -8  883.90    6.38
   1   0  -8   -0.14    0.21
   0   0  -8  448.40    3.78
  -1   0  -8   -0.13    0.20
  -2   0  -8   10.27    0.55
  13   1  -8    2.99    0.58
  13  -1  -8    4.09    0.63
  12   1  -8    8.39    0.80
  12  -1  -8    8.54    0.80
  11   1  -8    8.05    0.74
  11  -1  -8    7.88    0.77
  10   1  -8   24.45    1.10
  10  -1  -8   23.27    1.06
   9   1  -8   46.85    1.40
   9  -1  -8   47.35    1.41
   8   1  -8   58.25    1.50
   7   1  -8    4.06    0.49
   7  -1  -8    4.03    0.49
   6   1  -8   56.95    1.39
   6  -1  -8   55.21    1.37
   5   1  -8   63.40    1.43
   5  -1  -8   61.96    1.40
   4   1  -8   -0.09    0.23
   4  -1  -8   -0.30    0.23
   3   1  -8   54.25    1.26
   3  -1  -8   56.97    1.27
   2   1  -8   60.38    1.29
   2  -1  -8   60.65    1.24
   1   1  -8   -0.17    0.22
   1  -1  -8    0.02    0.21
   0   1  -8  326.86    3.21
   0  -1  -8  322.35    2.97
  -1   1  -8  301.96    3.04
  -1  -1  -8  301.69    2.75
  -2   1  -8   31.04    0.91
  -3   1  -8   42.26    1.04
  12   2  -8   39.16    1.44
  12  -2  -8   39.82    1.49
  11   2  -8    6.73    0.70
  11  -2  -8    7.26    0.76
  10   2  -8   79.57    1.91
  10  -2  -8   78.72    1.91
   9   2  -8    0.41    0.35
   9  -2  -8    0.50    0.38
   8   2  -8    0.96    0.38
   8  -2  -8    1.13    0.41
   7   2  -8    3.37    0.47
   7  -2  -8    3.11    0.50
   6   2  -8   10.51    0.70
   6  -2  -8   11.26    0.73
   5   2  -8  311.13    3.51
   4   2  -8  238.03    2.95
   4  -2  -8  234.01    2.83
   3   2  -8  490.11    4.53
   3  -2  -8  487.33    4.31
   2   2  -8   32.28    1.03
   2  -2  -8   32.74    0.93
   1   2  -8    0.76    0.31
   1  -2  -8    0.88    0.27
   0   2  -8    2.17    0.37
   0  -2  -8    2.13    0.33
  -1   2  -8    4.91    0.52
  -1  -2  -8    4.88    0.41
  -2   2  -8   15.11    0.74
  -3   2  -8   20.70    0.85
  12   3  -8    0.04    0.41
  12  -3  -8   -0.13    0.43
  11   3  -8    2.01    0.50
  11  -3  -8    1.63    0.52
  10   3  -8   22.06    1.10
  10  -3  -8   23.72    1.17
   9   3  -8   22.63    1.08
   9  -3  -8   23.08    1.12
   8   3  -8    0.36    0.34
   8  -3  -8   -0.12    0.35
   7   3  -8   19.52    0.98
   7  -3  -8   19.10    0.97
   6   3  -8   92.66    1.94
   6  -3  -8   90.51    1.87
   5   3  -8   22.89    1.00
   5  -3  -8   22.43    0.96
   4   3  -8    6.45    0.63
   4  -3  -8    6.56    0.59
   3   3  -8    4.52    0.56
   3  -3  -8    5.05    0.53
   2   3  -8   -0.13    0.25
   2  -3  -8   -0.16    0.24
   1   3  -8    0.06    0.25
   1  -3  -8    0.33    0.26
   0   3  -8   89.14    1.78
   0  -3  -8   87.73    1.45
  -1   3  -8   66.09    1.54
  -2   3  -8    1.92    0.40
  -3   3  -8  162.86    2.45
   4  -3   8   39.25    1.19
   5  -3   8   34.17    1.11
  11   4  -8    1.62    0.51
  11  -4  -8    2.54    0.62
  10   4  -8   31.69    1.35
  10  -4  -8   32.12    1.39
   9   4  -8    1.96    0.49
   9  -4  -8    1.57    0.53
   8   4  -8   68.19    1.85
   8  -4  -8   71.88    1.86
   7   4  -8   63.39    1.76
   7  -4  -8   62.24    1.69
   6   4  -8  208.51    3.16
   6  -4  -8  206.41    3.02
   5   4  -8    9.90    0.77
   5  -4  -8   10.45    0.76
   4   4  -8    5.02    0.60
   4  -4  -8    4.65    0.55
   3   4  -8    4.79    0.57
   3  -4  -8    4.82    0.55
   2   4  -8   96.57    2.02
   2  -4  -8   98.49    1.79
   1   4  -8   11.38    0.77
   1  -4  -8   11.43    0.65
   0   4  -8    0.31    0.34
  -1   4  -8    0.12    0.31
  -2   4  -8    0.06    0.32
   4  -4   8    6.64    0.66
   5  -4   8   88.61    1.92
   6  -4   8   14.41    0.89
  10   5  -8   27.32    1.36
  10  -5  -8   25.72    1.33
   9   5  -8   83.78    2.19
   9  -5  -8   84.44    2.17
   8   5  -8   22.57    1.18
   8  -5  -8   21.64    1.16
   7   5  -8  123.71    2.58
   7  -5  -8  124.88    2.49
   6   5  -8   13.88    0.95
   6  -5  -8   14.27    0.92
   5   5  -8   -0.11    0.36
   5  -5  -8    0.02    0.36
   4   5  -8    5.66    0.67
   4  -5  -8    6.10    0.65
   3   5  -8   12.12    0.85
   3  -5  -8   11.60    0.75
   2   5  -8   30.68    1.25
   2  -5  -8   33.30    1.12
   1   5  -8   34.04    1.31
   1  -5  -8   32.96    1.08
   0   5  -8   19.84    1.06
  -1   5  -8   10.28    0.81
   2  -5   8   -0.05    0.39
   3  -5   8    2.40    0.48
   4  -5   8    0.16    0.40
   5  -5   8   -0.06    0.40
   6  -5   8   18.48    1.06
   8   6  -8   22.00    1.22
   8  -6  -8   21.25    1.21
   7   6  -8    0.16    0.42
   7  -6  -8   -0.09    0.46
   6   6  -8    5.19    0.69
   6  -6  -8    6.35    0.78
   5   6  -8    3.58    0.63
   5  -6  -8    3.28    0.59
   4   6  -8   17.85    1.09
   4  -6  -8   15.54    0.95
   3   6  -8   28.13    1.31
   3  -6  -8   29.80    1.18
   2   6  -8    3.75    0.61
   2  -6  -8    4.09    0.56
   1   6  -8   -0.05    0.35
   0   6  -8    0.07    0.38
   1  -6   8   23.26    1.19
   2  -6   8   18.03    1.09
   3  -6   8   37.83    1.47
   4  -6   8   67.15    1.95
   5  -6   8   21.20    1.19
   6  -6   8   -0.01    0.47
   6   7  -8   14.45    1.13
   6  -7  -8   14.52    1.06
   5   7  -8   21.08    1.24
   5  -7  -8   19.91    1.16
   4   7  -8    1.74    0.55
   4  -7  -8    1.56    0.54
   3   7  -8   19.13    1.20
   3  -7  -8   22.80    1.18
   2   7  -8    3.38    0.64
  -1  -7   8    3.71    0.74
   0  -7   8    0.06    0.48
   1  -7   8   13.28    1.06
   2  -7   8   31.63    1.49
   3  -7   8    0.73    0.51
   4  -7   8    0.12    0.52
  12   0  -9   -0.15    0.40
  11   0  -9   13.84    0.94
  10   0  -9    0.04    0.36
   9   0  -9  103.55    2.13
   8   0  -9    0.05    0.32
   7   0  -9  101.24    1.98
   6   0  -9   -0.12    0.27
   5   0  -9    5.50    0.58
   4   0  -9   -0.05    0.25
   3   0  -9    0.24    0.27
   2   0  -9    0.21    0.26
   1   0  -9  276.04    2.96
   0   0  -9    0.11    0.24
  -1   0  -9  150.07    2.00
  12   1  -9    5.74    0.72
  12  -1  -9    6.01    0.71
  11   1  -9    9.59    0.82
  11  -1  -9    8.80    0.80
  10   1  -9   -0.12    0.34
  10  -1  -9    0.15    0.37
   9   1  -9   -0.12    0.33
   9  -1  -9    0.25    0.37
   8   1  -9   53.40    1.52
   8  -1  -9   52.62    1.51
   7   1  -9    0.19    0.33
   7  -1  -9    0.50    0.37
   6   1  -9    2.58    0.44
   6  -1  -9    2.95    0.47
   5   1  -9   16.18    0.82
   5  -1  -9   17.13    0.84
   4  -1  -9   63.00    1.44
   3   1  -9  217.32    2.75
   3  -1  -9  219.17    2.69
   2   1  -9  111.32    1.90
   2  -1  -9  109.04    1.76
   1   1  -9  373.01    3.70
   1  -1  -9  370.28    3.53
   0   1  -9  142.09    2.09
   0  -1  -9  140.65    1.91
  -1   1  -9   32.73    1.01
  -1  -1  -9   33.85    0.93
  -2   1  -9   57.13    1.28
  12   2  -9   17.90    1.06
  12  -2  -9   18.46    1.11
  11   2  -9   14.57    0.95
  11  -2  -9   15.00    1.01
  10   2  -9    1.58    0.45
  10  -2  -9    1.46    0.48
   9   2  -9    2.72    0.51
   9  -2  -9    2.65    0.54
   8   2  -9    6.03    0.67
   8  -2  -9    6.54    0.68
   7   2  -9   -0.01    0.29
   7  -2  -9    0.08    0.31
   6  -2  -9   25.30    1.03
   5   2  -9   15.79    0.84
   5  -2  -9   15.05    0.81
   4   2  -9   84.36    1.79
   4  -2  -9   82.44    1.68
   3  -2  -9   24.69    0.91
   2   2  -9    1.06    0.35
   2  -2  -9    1.18    0.34
   1   2  -9    3.49    0.46
   1  -2  -9    3.37    0.40
   0   2  -9   21.04    0.88
   0  -2  -9   20.51    0.74
  -1   2  -9   70.01    1.54
  -2   2  -9  408.20    4.06
  -3   2  -9   84.29    1.68
  11   3  -9   13.22    0.96
  11  -3  -9   12.48    0.94
  10   3  -9    5.95    0.73
  10  -3  -9    6.10    0.73
   9   3  -9   16.05    0.99
   9  -3  -9   16.23    1.00
   8   3  -9    0.46    0.38
   8  -3  -9    0.08    0.39
   7   3  -9    9.97    0.78
   7  -3  -9    8.93    0.78
   6   3  -9   91.03    2.01
   6  -3  -9   88.60    1.91
   5   3  -9   20.92    1.01
   5  -3  -9   19.91    0.93
   4   3  -9  133.52    2.38
   4  -3  -9  129.38    2.17
   3   3  -9   14.74    0.86
   3  -3  -9   14.39    0.76
   2   3  -9    3.53    0.50
   2  -3  -9    3.24    0.45
   1   3  -9   67.61    1.64
   1  -3  -9   67.35    1.39
   0   3  -9    8.08    0.66
  -1   3  -9   34.10    1.17
  -2   3  -9    0.20    0.32
  -3   3  -9   22.74    1.03
  10   4  -9    0.50    0.45
  10  -4  -9    0.64    0.52
   9   4  -9    0.12    0.41
   9  -4  -9    0.18    0.47
   8   4  -9   39.47    1.48
   8  -4  -9   41.26    1.47
   7   4  -9    1.17    0.44
   7  -4  -9    0.78    0.46
   6   4  -9   32.95    1.32
   6  -4  -9   34.60    1.29
   5   4  -9    5.55    0.69
   5  -4  -9    5.21    0.63
   4   4  -9    9.94    0.79
   4  -4  -9    9.96    0.75
   3   4  -9   17.35    0.96
   3  -4  -9   16.60    0.85
   2   4  -9    3.57    0.54
   2  -4  -9    3.59    0.47
   1   4  -9    0.17    0.32
   1  -4  -9    0.16    0.30
   0   4  -9   24.48    1.08
  -1   4  -9   25.85    1.13
  -2   4  -9    3.34    0.55
  -3   4  -9   71.76    1.80
   4  -4   9   53.57    1.55
   5  -4   9  130.37    2.40
   9   5  -9   34.82    1.51
   9  -5  -9   33.75    1.46
   8   5  -9    4.61    0.69
   8  -5  -9    4.09    0.70
   7   5  -9   11.99    0.93
   7  -5  -9   10.89    0.92
   6   5  -9    0.10    0.40
   6  -5  -9    0.20    0.42
   5   5  -9    0.08    0.37
   5  -5  -9    0.29    0.40
   4   5  -9    2.69    0.55
   4  -5  -9    2.56    0.52
   3   5  -9    0.85    0.42
   3  -5  -9    0.55    0.40
   2   5  -9    1.72    0.49
   2  -5  -9    2.02    0.44
   1   5  -9   16.02    1.00
   0   5  -9   80.64    2.05
  -1   5  -9    6.04    0.72
  -2   5  -9   21.23    1.11
   3  -5   9   20.83    1.09
   4  -5   9   24.00    1.17
   5  -5   9   11.95    0.91
   7   6  -9    6.65    0.81
   7  -6  -9    6.45    0.80
   6   6  -9    5.80    0.76
   6  -6  -9    6.84    0.80
   5   6  -9   32.23    1.46
   5  -6  -9   31.13    1.31
   4   6  -9   16.79    1.11
   4  -6  -9   17.50    1.01
   3   6  -9    3.85    0.64
   3  -6  -9    3.24    0.57
   2   6  -9   12.51    0.99
   1   6  -9    5.04    0.70
   0   6  -9    1.18    0.50
   1  -6   9    1.38    0.55
   2  -6   9    2.85    0.62
   3  -6   9   34.80    1.48
   4  -6   9    4.93    0.74
   5  -6   9    0.08    0.49
   4   7  -9    0.39    0.48
   4  -7  -9   -0.11    0.47
   3   7  -9    5.50    0.77
   2   7  -9    1.11    0.54
  -1  -7   9   11.40    1.11
   0  -7   9    2.34    0.65
   1  -7   9    1.36    0.60
   2  -7   9   15.07    1.14
  11   0 -10    0.03    0.42
  10   0 -10    0.40    0.40
   9   0 -10   -0.02    0.36
   8   0 -10    0.55    0.38
   7   0 -10   -0.03    0.33
   6   0 -10    9.77    0.74
   5   0 -10   -0.01    0.28
   4   0 -10    1.43    0.37
   3   0 -10   -0.11    0.25
   2   0 -10   66.57    1.49
   1   0 -10    0.14    0.26
   0   0 -10  115.57    1.88
  -1   0 -10    0.20    0.27
  11   1 -10    1.87    0.52
  11  -1 -10    2.33    0.54
  10   1 -10    0.58    0.42
  10  -1 -10    0.92    0.46
   9   1 -10    2.86    0.56
   9  -1 -10    2.58    0.53
   8   1 -10    3.34    0.55
   8  -1 -10    3.10    0.52
   7   1 -10   32.92    1.24
   7  -1 -10   32.48    1.19
   6   1 -10    1.06    0.39
   6  -1 -10    0.51    0.36
   5   1 -10    1.41    0.39
   5  -1 -10    1.58    0.39
   4   1 -10    3.08    0.47
   4  -1 -10    2.43    0.42
   3   1 -10    8.39    0.64
   3  -1 -10    8.26    0.63
   2   1 -10    2.96    0.44
   2  -1 -10    3.18    0.43
   1   1 -10    0.10    0.28
   1  -1 -10   -0.01    0.25
   0   1 -10   41.22    1.18
   0  -1 -10   42.31    1.11
  -1   1 -10   35.90    1.11
  11   2 -10    0.73    0.45
  11  -2 -10    0.56    0.50
  10   2 -10    2.37    0.53
  10  -2 -10    2.30    0.54
   9   2 -10   16.62    1.00
   9  -2 -10   16.20    0.98
   8   2 -10    1.92    0.47
   8  -2 -10    1.15    0.47
   7   2 -10    0.16    0.33
   7  -2 -10    0.12    0.35
   6   2 -10    8.67    0.73
   6  -2 -10    9.19    0.76
   5   2 -10   13.13    0.82
   5  -2 -10   14.66    0.84
   4   2 -10   15.13    0.86
   4  -2 -10   13.36    0.77
   3   2 -10    1.72    0.41
   3  -2 -10    1.67    0.39
   2   2 -10    9.70    0.70
   2  -2 -10    8.98    0.65
   1   2 -10   10.30    0.72
   1  -2 -10    9.34    0.62
   0   2 -10    1.39    0.38
  -1   2 -10   43.65    1.29
  -2   2 -10   43.90    1.29
  10   3 -10    0.94    0.48
  10  -3 -10    0.92    0.49
   9   3 -10    2.56    0.57
   9  -3 -10    3.62    0.62
   8   3 -10   11.40    0.90
   8  -3 -10   11.91    0.87
   7   3 -10    0.82    0.40
   7  -3 -10    0.46    0.39
   6   3 -10   14.57    0.93
   6  -3 -10   13.37    0.85
   5   3 -10    0.19    0.35
   5  -3 -10   -0.06    0.33
   4   3 -10    3.00    0.54
   4  -3 -10    2.56    0.47
   3   3 -10   22.36    1.04
   3  -3 -10   22.02    0.95
   2   3 -10   26.92    1.13
   2  -3 -10   27.48    1.00
   1   3 -10    0.97    0.41
   0   3 -10    0.04    0.34
  -1   3 -10    9.74    0.77
  -2   3 -10    2.30    0.47
   9   4 -10    0.31    0.43
   9  -4 -10    0.14    0.46
   8   4 -10    8.54    0.85
   8  -4 -10    9.67    0.88
   7   4 -10    1.15    0.48
   7  -4 -10    1.39    0.49
   6   4 -10    0.37    0.41
   6  -4 -10   -0.03    0.38
   5   4 -10    0.26    0.38
   5  -4 -10    0.04    0.35
   4   4 -10   18.15    1.03
   4  -4 -10   18.83    0.95
   3   4 -10   16.09    0.97
   3  -4 -10   16.45    0.87
   2   4 -10    4.00    0.59
   2  -4 -10    4.14    0.52
   1   4 -10   32.91    1.29
   0   4 -10   -0.24    0.34
  -1   4 -10    1.75    0.49
  -2   4 -10    8.47    0.79
  -3   4 -10    7.60    0.77
   4  -4  10    4.04    0.60
   8   5 -10   -0.56    0.41
   8  -5 -10    0.10    0.47
   7   5 -10    1.44    0.52
   7  -5 -10    1.24    0.53
   6   5 -10    7.07    0.81
   6  -5 -10    8.01    0.84
   5   5 -10   19.17    1.13
   5  -5 -10   20.33    1.10
   4   5 -10    0.04    0.39
   4  -5 -10    0.06    0.39
   3   5 -10    0.04    0.38
   3  -5 -10    0.38    0.39
   2   5 -10    6.75    0.75
   1   5 -10    9.21    0.83
   0   5 -10   -0.03    0.39
  -1   5 -10    6.21    0.76
  -2   5 -10    1.92    0.54
   3  -5  10    0.25    0.43
   4  -5  10    8.33    0.86
   6   6 -10   -0.01    0.45
   6  -6 -10    0.70    0.53
   5   6 -10    2.12    0.61
   5  -6 -10    2.88    0.62
   4   6 -10    0.16    0.47
   4  -6 -10    0.28    0.46
   3   6 -10    6.04    0.81
   2   6 -10   10.01    0.93
   1   6 -10    2.16    0.60
   0   6 -10   28.87    1.42
   1  -6  10   13.80    1.10
   2  -6  10   23.80    1.30
   3  -6  10    8.14    0.90
  11   0 -11  234.62    3.77
  10   0 -11    0.03    0.44
   9   0 -11    8.20    0.84
   8   0 -11   -0.17    0.38
   7   0 -11    3.80    0.58
   6   0 -11    0.30    0.36
   5   0 -11   30.22    1.15
   4   0 -11    0.12    0.30
   3   0 -11   13.55    0.81
   2   0 -11   -0.02    0.28
   1   0 -11   41.65    1.23
   0   0 -11   -0.11    0.29
  10   1 -11    0.57    0.46
  10  -1 -11    0.80    0.46
   9   1 -11    0.03    0.40
   9  -1 -11   -0.03    0.40
   8   1 -11   11.99    0.90
   8  -1 -11   11.52    0.88
   7   1 -11   34.72    1.34
   7  -1 -11   34.54    1.31
   6   1 -11    8.14    0.76
   6  -1 -11    8.19    0.73
   5   1 -11   27.69    1.14
   5  -1 -11   29.10    1.14
   4   1 -11    0.68    0.35
   4  -1 -11    0.83    0.37
   3   1 -11    6.97    0.64
   3  -1 -11    7.33    0.66
   2   1 -11    4.63    0.55
   2  -1 -11    4.85    0.57
   1   1 -11    7.91    0.67
   1  -1 -11    8.67    0.66
   0   1 -11    7.32    0.68
  10   2 -11   31.58    1.43
  10  -2 -11   31.99    1.43
   9   2 -11    6.47    0.79
   9  -2 -11    6.80    0.81
   8   2 -11   46.46    1.61
   8  -2 -11   45.33    1.56
   7   2 -11    2.26    0.52
   7  -2 -11    1.67    0.51
   6   2 -11   11.20    0.83
   6  -2 -11   11.82    0.86
   5   2 -11   25.21    1.14
   5  -2 -11   26.46    1.12
   4   2 -11   18.16    0.97
   4  -2 -11   19.18    0.92
   3   2 -11    3.15    0.50
   3  -2 -11    3.54    0.48
   2   2 -11    0.12    0.34
   2  -2 -11    0.23    0.31
   1   2 -11   29.49    1.16
   0   2 -11    2.57    0.49
  -1   2 -11    1.86    0.45
   9   3 -11   18.11    1.14
   9  -3 -11   17.49    1.08
   8   3 -11   31.56    1.40
   8  -3 -11   29.87    1.32
   7   3 -11   18.58    1.11
   7  -3 -11   18.70    1.06
   6   3 -11    0.93    0.46
   6  -3 -11    0.86    0.44
   5   3 -11    0.28    0.36
   5  -3 -11    0.23    0.37
   4   3 -11   -0.04    0.34
   4  -3 -11   -0.09    0.35
   3   3 -11   11.48    0.83
   3  -3 -11   11.96    0.77
   2   3 -11    1.47    0.44
   2  -3 -11    1.56    0.40
   1   3 -11   15.02    0.93
   0   3 -11    6.56    0.69
  -1   3 -11    4.25    0.61
  -2   3 -11   -0.01    0.36
   8   4 -11    2.79    0.61
   8  -4 -11    3.58    0.65
   7   4 -11    1.49    0.51
   7  -4 -11    1.75    0.52
   6   4 -11    0.25    0.40
   6  -4 -11    0.18    0.41
   5   4 -11    3.58    0.63
   5  -4 -11    4.95    0.63
   4   4 -11   15.41    1.00
   4  -4 -11   14.99    0.90
   3   4 -11   21.57    1.15
   3  -4 -11   23.00    1.04
   2   4 -11    8.68    0.79
   1   4 -11    0.26    0.39
   0   4 -11    0.81    0.45
  -1   4 -11    0.14    0.42
  -2   4 -11   -0.06    0.41
   6   5 -11   23.00    1.28
   6  -5 -11   25.13    1.28
   5   5 -11    5.43    0.76
   5  -5 -11    5.81    0.71
   4   5 -11    6.29    0.80
   4  -5 -11    6.27    0.76
   3   5 -11    3.58    0.64
   2   5 -11    6.34    0.77
   1   5 -11   11.94    0.95
   0   5 -11   27.93    1.37
  -1   5 -11   70.05    2.07
  -2   5 -11   48.38    1.74
   3  -5  11    7.01    0.85
   2   6 -11    9.65    0.98
   1   6 -11   31.73    1.54
   0   6 -11   31.39    1.53
   9   0 -12   -0.15    0.46
   8   0 -12    1.12    0.49
   7   0 -12   -0.09    0.37
   6   0 -12   87.82    2.08
   5   0 -12    0.20    0.36
   4   0 -12  107.99    2.19
   3   0 -12    0.24    0.34
   2   0 -12   15.62    0.86
   1   0 -12    0.36    0.34
   9   1 -12  146.24    2.96
   9  -1 -12  149.48    2.99
   8   1 -12    1.20    0.51
   8  -1 -12    1.52    0.53
   7   1 -12   10.27    0.88
   7  -1 -12   11.07    0.91
   6   1 -12    9.98    0.83
   6  -1 -12   10.15    0.82
   5   1 -12    0.19    0.38
   5  -1 -12    0.26    0.39
   4   1 -12    0.19    0.34
   4  -1 -12    0.35    0.34
   3   1 -12   28.46    1.18
   3  -1 -12   27.24    1.10
   2   1 -12    0.60    0.38
   2  -1 -12    0.67    0.36
   1   1 -12   28.56    1.14
   9   2 -12    0.40    0.49
   9  -2 -12    0.81    0.51
   8   2 -12    6.57    0.80
   8  -2 -12    6.99    0.84
   7   2 -12   49.59    1.69
   7  -2 -12   50.35    1.63
   6   2 -12    7.56    0.78
   6  -2 -12    7.26    0.77
   5   2 -12    4.88    0.65
   5  -2 -12    4.48    0.61
   4   2 -12    8.47    0.76
   4  -2 -12    8.18    0.74
   3   2 -12   12.28    0.87
   3  -2 -12   12.58    0.82
   2   2 -12   20.92    1.06
   1   2 -12    2.06    0.46
   0   2 -12    7.18    0.75
   8   3 -12   17.44    1.19
   8  -3 -12   17.38    1.12
   7   3 -12   79.69    2.19
   7  -3 -12   80.12    2.14
   6   3 -12   47.92    1.70
   6  -3 -12   50.45    1.65
   5   3 -12    2.74    0.58
   5  -3 -12    2.40    0.54
   4   3 -12   20.67    1.13
   4  -3 -12   20.95    1.07
   3   3 -12   21.33    1.13
   3  -3 -12   20.81    1.00
   2   3 -12   80.20    2.07
   1   3 -12    1.20    0.48
   0   3 -12   24.25    1.19
  -1   3 -12    8.87    0.81
   6   4 -12   12.28    1.04
   6  -4 -12   12.71    0.96
   5   4 -12  105.15    2.59
   5  -4 -12  109.16    2.35
   4   4 -12    2.62    0.61
   4  -4 -12    2.06    0.55
   3   4 -12   21.23    1.19
   2   4 -12    4.71    0.69
   1   4 -12    4.40    0.67
   0   4 -12    1.43    0.54
  -1   4 -12   44.81    1.64
   4   5 -12   11.59    1.01
   3   5 -12    1.04    0.54
   2   5 -12    0.12    0.46
   1   5 -12   32.02    1.49
   0   5 -12   20.86    1.31
  -1   5 -12   62.08    1.99
   8   0 -13    0.34    0.44
   7   0 -13   45.80    1.65
   6   0 -13   -0.33    0.39
   5   0 -13    1.08    0.47
   4   0 -13    0.17    0.37
   3   0 -13   16.67    0.96
   2   0 -13   -0.02    0.34
   8   1 -13    5.47    0.74
   8  -1 -13    5.47    0.80
   7   1 -13    2.35    0.58
   7  -1 -13    1.59    0.56
   6   1 -13   15.51    1.02
   6  -1 -13   16.06    1.02
   5   1 -13   44.32    1.56
   5  -1 -13   44.57    1.51
   4   1 -13    5.08    0.67
   4  -1 -13    6.63    0.71
   3   1 -13   14.35    0.94
   3  -1 -13   14.28    0.91
   2   1 -13   16.53    0.98
   7   2 -13   29.81    1.42
   7  -2 -13   29.97    1.38
   6   2 -13    3.47    0.65
   6  -2 -13    3.63    0.64
   5   2 -13    0.09    0.41
   5  -2 -13    0.21    0.42
   4   2 -13   29.65    1.33
   4  -2 -13   31.72    1.30
   3   2 -13   11.52    0.95
   2   2 -13    7.80    0.77
   1   2 -13   84.07    2.10
   6   3 -13   16.74    1.17
   6  -3 -13   17.05    1.13
   5   3 -13    2.06    0.58
   5  -3 -13    1.23    0.52
   4   3 -13    2.26    0.57
   4  -3 -13    3.03    0.60
   3   3 -13   47.21    1.71
   2   3 -13   -0.13    0.43
   1   3 -13   37.80    1.50
   0   3 -13    1.35    0.52
   3   4 -13    4.57    0.72
   2   4 -13    0.06    0.44
   1   4 -13    0.60    0.50
   0   4 -13   28.88    1.40
   5   0 -14   -0.13    0.40
   4   0 -14   36.34    1.45
   3   0 -14   -0.30    0.38
   5   1 -14    4.29    0.68
   5  -1 -14    4.08    0.66
   4   1 -14    0.35    0.45
   4  -1 -14    0.71    0.46
   3   1 -14    0.14    0.42
   4   2 -14    0.16    0.45
   3   2 -14    1.19    0.52
   2   2 -14    7.39    0.80
  -2   0   0 2117.09   15.06
  -3   0   0    0.06    0.10
  -4   0   0   37.74    0.58
  -5   0   0   -0.05    0.11
  -6   0   0  347.94    2.66
  -7   0   0   -0.04    0.15
  -8   0   0   66.66    1.05
   0   1   0    0.27    0.08
  -1   1   0  157.67    1.35
   1   1   0  157.45    1.34
  -2   1   0  999.22    6.38
  -2  -1   0  989.08    6.32
  -3   1   0 1174.84    7.26
  -3  -1   0 1185.90    7.31
  -4   1   0  214.69    1.81
  -4  -1   0  217.30    1.80
  -5   1   0  262.59    2.17
  -5  -1   0  265.27    2.15
  -6   1   0  372.37    2.88
  -6  -1   0  369.63    2.84
  -7   1   0   10.37    0.45
  -7  -1   0    9.98    0.47
  -8   1   0   83.36    1.25
  -8  -1   0   81.52    1.21
   0   2   0   22.93    0.54
  -1   2   0 1416.38    8.59
   1   2   0 1401.85    8.52
  -2   2   0 1065.98    6.71
   2   2   0 1060.42    6.65
  -3   2   0 1363.65    8.31
   3   2   0 1361.46    8.25
  -4   2   0  523.19    3.83
  -4  -2   0  528.56    3.75
  -5   2   0   59.17    0.99
  -5  -2   0   60.14    0.97
  -6   2   0    0.13    0.16
  -6  -2   0    0.15    0.18
  -7   2   0   32.36    0.81
  -7  -2   0   33.42    0.81
  -8   2   0   40.70    0.95
  -8  -2   0   42.32    0.94
   0   3   0    0.03    0.14
  -1   3   0   70.99    1.16
   1   3   0   70.64    1.15
  -2   3   0  410.94    3.37
   2   3   0  416.80    3.37
  -3   3   0  931.48    6.27
   3   3   0  924.88    6.18
  -4   3   0  271.56    2.65
   4   3   0  272.12    2.56
  -5   3   0  316.28    2.98
  -5  -3   0  320.00    2.88
  -6   3   0  230.74    2.48
  -6  -3   0  232.90    2.40
  -7   3   0   21.81    0.76
  -7  -3   0   23.28    0.77
  -8   3   0    0.86    0.27
  -8  -3   0    0.17    0.25
   0   4   0  339.28    3.23
  -1   4   0    3.65    0.40
   1   4   0    3.88    0.41
  -2   4   0   73.63    1.38
   2   4   0   74.59    1.34
  -3   4   0    0.44    0.23
   3   4   0    0.42    0.22
  -4   4   0   70.32    1.37
   4   4   0   72.07    1.34
  -5   4   0    5.19    0.49
  -5  -4   0    5.18    0.49
  -6   4   0   52.02    1.25
  -6  -4   0   51.64    1.18
  -7   4   0   40.64    1.15
  -7  -4   0   39.75    1.07
  -8   4   0   65.29    1.48
  -8  -4   0   64.49    1.38
   0   5   0   -0.19    0.22
  -1   5   0   79.44    1.59
   1   5   0   79.30    1.58
  -2   5   0    0.27    0.25
   2   5   0    0.38    0.27
  -3   5   0   35.68    1.11
   3   5   0   36.50    1.07
  -4   5   0   21.56    0.90
   4   5   0   22.63    0.86
  -5   5   0   60.08    1.47
  -6   5   0    4.36    0.53
  -6  -5   0    3.84    0.47
  -7   5   0  122.08    2.20
  -7  -5   0  123.04    2.05
  -8   5   0  101.52    1.99
  -8  -5   0  106.24    1.93
   0   6   0    4.35    0.54
  -1   6   0   58.77    1.53
   1   6   0   59.04    1.52
  -2   6   0    3.24    0.47
   2   6   0    2.70    0.45
  -4   6   0    0.35    0.32
   4   6   0    0.18    0.30
  -5   6   0    6.71    0.63
   5   6   0    6.68    0.63
  -6   6   0   32.85    1.23
  -6  -6   0   35.38    1.21
  -7   6   0   22.98    1.08
  -7  -6   0   24.49    1.04
  -8   6   0    8.09    0.76
  -8  -6   0    9.76    0.76
   0   7   0   -0.05    0.31
  -1   7   0   19.73    1.01
   1   7   0   20.37    1.04
  -2   7   0   11.07    0.82
   2   7   0   11.84    0.83
  -3   7   0   50.30    1.59
   3   7   0   47.61    1.48
  -4   7   0   35.42    1.34
   4   7   0   36.35    1.32
  -5   7   0    0.12    0.36
   5   7   0    0.01    0.35
  -6   7   0    1.25    0.46
  -6  -7   0    1.73    0.49
  -7   7   0    0.01    0.39
  -7  -7   0   -0.37    0.37
  -8   7   0   15.81    1.03
   0   8   0    0.09    0.38
  -1   8   0   16.06    1.04
   1   8   0   15.39    1.00
  -2   8   0    0.26    0.40
   2   8   0   -0.32    0.35
  -3   8   0    1.03    0.48
   3   8   0    0.33    0.42
  -4   8   0    0.01    0.39
   4   8   0   -0.20    0.38
  -5   8   0    5.47    0.72
  -5  -8   0    5.74    0.72
  -6   8   0   20.26    1.19
  -6  -8   0   19.77    1.16
  -7   8   0   69.61    2.11
  -7  -8   0   70.26    2.03
   0   9   0    0.04    0.46
  -1   9   0   24.82    1.34
   1   9   0   24.87    1.31
  -2   9   0    0.16    0.43
   2   9   0    0.06    0.44
  -3   9   0   10.51    0.98
   3   9   0   11.88    0.98
  -7   0   1  118.56    1.24
  -6   0   1   -0.03    0.10
  -5   0   1    2.37    0.21
   0   0  -1    0.24    0.05
  -1   0  -1   49.99    0.56
  -2   0  -1   -0.02    0.11
  -3   0  -1  162.98    1.45
  -4   0  -1    0.11    0.12
  -5   0  -1  401.03    3.02
  -6   0  -1    0.02    0.15
  -7   0  -1  242.12    2.30
  -8   0  -1   -0.04    0.19
  -9   0  -1    2.22    0.32
  -7   1   1   15.13    0.47
  -7  -1   1   15.52    0.47
  -6   1   1    0.06    0.12
  -6  -1   1    0.09    0.14
  -5   1   1   91.79    1.02
  -5  -1   1   93.75    1.00
  -4   1   1   56.92    0.73
  -4  -1   1   58.18    0.71
  -3   1   1  578.35    3.93
  -3  -1   1  587.71    3.98
   2   1  -1  880.92    5.95
  -2   1   1  884.12    5.90
   1   1  -1 2011.49   13.07
  -1   1   1 2022.85   13.05
   0   1  -1   70.37    0.77
   0   1   1   69.91    0.77
  -1   1  -1 3354.76   19.99
  -1  -1  -1 3358.72   19.98
  -2   1  -1 4854.56   27.83
  -2  -1  -1 4860.27   27.84
  -3   1  -1   85.88    1.01
  -3  -1  -1   86.27    1.01
  -4   1  -1    1.97    0.24
  -4  -1  -1    1.99    0.22
  -5   1  -1    5.17    0.33
  -5  -1  -1    5.87    0.36
  -6   1  -1   80.55    1.17
  -6  -1  -1   80.85    1.16
  -7   1  -1   44.59    0.91
  -7  -1  -1   46.23    0.94
  -8   1  -1   63.43    1.16
  -8  -1  -1   61.20    1.14
  -9   1  -1   29.68    0.85
  -9  -1  -1   29.59    0.84
  -8   2   1    8.78    0.48
  -7   2   1    3.57    0.35
  -7  -2   1    3.74    0.37
  -6   2   1   73.48    1.10
  -6  -2   1   75.15    1.06
  -5   2   1   49.51    0.87
  -5  -2   1   50.85    0.84
   4   2  -1  696.39    4.62
  -4   2   1  697.78    4.72
   3   2  -1    0.33    0.14
  -3   2   1    0.46    0.16
   2   2  -1  898.93    5.76
  -2   2   1  898.09    5.78
   1   2  -1    0.47    0.15
  -1   2   1    0.19    0.13
   0   2  -1  204.12    1.85
   0   2   1  205.66    1.86
  -1   2  -1  131.98    1.43
   1   2   1  132.70    1.41
  -2   2  -1   92.90    1.19
   2   2   1   93.64    1.18
  -3   2  -1   54.45    0.92
  -3  -2  -1   55.07    0.90
  -4   2  -1 1422.31    8.77
  -4  -2  -1 1409.65    8.57
  -5   2  -1    1.98    0.25
  -5  -2  -1    2.21    0.27
  -6   2  -1    2.82    0.34
  -6  -2  -1    2.64    0.31
  -7   2  -1    0.07    0.18
  -7  -2  -1    0.66    0.25
  -8   2  -1  101.04    1.59
  -8  -2  -1  102.86    1.56
  -9   2  -1    5.00    0.49
  -9  -2  -1    5.55    0.51
  -8   3   1   34.20    0.95
  -7   3   1   18.81    0.72
  -7  -3   1   18.78    0.68
  -6   3   1    7.25    0.48
  -6  -3   1    7.22    0.46
  -5   3   1    2.54    0.31
  -5  -3   1    2.45    0.29
   4   3  -1  121.35    1.54
  -4   3   1  120.15    1.60
   3   3  -1    6.98    0.41
  -3   3   1    6.56    0.43
   2   3  -1    1.77    0.26
  -2   3   1    1.51    0.24
   1   3  -1   37.05    0.82
  -1   3   1   36.59    0.83
   0   3  -1    0.27    0.16
   0   3   1    0.21    0.16
  -1   3  -1   13.05    0.54
   1   3   1   12.12    0.51
  -2   3  -1  196.52    2.13
   2   3   1  201.99    2.13
  -3   3  -1  354.35    3.13
   3   3   1  356.12    3.08
  -4   3  -1  384.12    3.38
  -4  -3  -1  386.50    3.29
  -5   3  -1  334.37    3.15
  -5  -3  -1  336.71    3.06
  -6   3  -1    0.14    0.20
  -6  -3  -1    0.05    0.22
  -7   3  -1   18.71    0.74
  -7  -3  -1   18.69    0.74
  -8   3  -1   30.28    0.95
  -8  -3  -1   32.19    0.96
  -9   3  -1  111.34    1.90
  -9  -3  -1  112.25    1.82
  -8   4   1    2.16    0.39
  -7   4   1    0.29    0.27
  -7  -4   1    0.35    0.26
  -6   4   1   59.10    1.31
  -6  -4   1   58.26    1.22
   5   4  -1    4.60    0.44
  -5   4   1    4.64    0.48
   4   4  -1    2.27    0.32
  -4   4   1    2.42    0.34
   3   4  -1   19.95    0.73
  -3   4   1   19.60    0.72
   2   4  -1    2.02    0.31
  -2   4   1    1.71    0.30
   1   4  -1  249.32    2.68
  -1   4   1  246.06    2.67
   0   4  -1  227.93    2.57
   0   4   1  222.53    2.50
  -1   4  -1    1.89    0.31
   1   4   1    1.67    0.30
  -2   4  -1   53.47    1.19
   2   4   1   50.36    1.11
  -3   4  -1    1.97    0.32
   3   4   1    1.84    0.30
  -4   4  -1   17.30    0.74
  -4  -4  -1   16.29    0.72
  -5   4  -1  346.39    3.51
  -5  -4  -1  347.71    3.38
  -6   4  -1  423.92    4.07
  -6  -4  -1  425.73    3.91
  -7   4  -1   92.53    1.75
  -7  -4  -1   92.13    1.66
  -8   4  -1  114.05    2.00
  -8  -4  -1  115.32    1.89
  -9   4  -1    0.18    0.30
  -9  -4  -1    0.09    0.31
  -8   5   1    0.85    0.38
  -7   5   1   10.46    0.72
  -7  -5   1   10.92    0.70
  -6   5   1   57.30    1.43
  -6  -5   1   61.08    1.41
   5   5  -1    4.18    0.50
  -5   5   1    4.26    0.50
   4   5  -1    3.54    0.43
  -4   5   1    3.53    0.45
   3   5  -1    1.29    0.32
  -3   5   1    1.04    0.32
   2   5  -1   10.83    0.65
  -2   5   1    9.40    0.63
   1   5  -1   50.03    1.27
  -1   5   1   51.07    1.29
   0   5  -1   19.92    0.83
   0   5   1   20.60    0.84
  -1   5  -1  101.79    1.82
   1   5   1  103.31    1.81
  -2   5  -1  122.88    2.06
   2   5   1  123.60    1.98
  -3   5  -1   -0.18    0.22
   3   5   1    0.02    0.24
  -4   5  -1   12.43    0.72
   4   5   1   14.54    0.74
  -5   5  -1   38.51    1.21
  -5  -5  -1   38.45    1.16
  -6   5  -1   12.46    0.77
  -6  -5  -1   13.39    0.75
  -7   5  -1   11.43    0.76
  -7  -5  -1   11.56    0.74
  -8   5  -1   16.60    0.91
  -8  -5  -1   17.40    0.91
  -9   5  -1    1.44    0.43
  -9  -5  -1    1.00    0.43
  -8   6   1    2.34    0.49
  -7   6   1    2.46    0.49
  -7  -6   1    2.10    0.45
  -6   6   1   12.14    0.78
   5   6  -1    6.17    0.62
  -5   6   1    5.65    0.61
   4   6  -1   41.08    1.26
  -4   6   1   38.38    1.24
   3   6  -1    9.78    0.71
  -3   6   1    9.27    0.69
   2   6  -1    5.07    0.58
  -2   6   1    5.35    0.56
   1   6  -1    5.90    0.62
  -1   6   1    7.17    0.62
   0   6  -1    0.03    0.29
   0   6   1   -0.08    0.27
  -1   6  -1    6.91    0.65
   1   6   1    6.81    0.61
  -2   6  -1   16.26    0.86
   2   6   1   16.36    0.85
  -3   6  -1   -0.01    0.29
   3   6   1    0.09    0.29
  -4   6  -1    6.43    0.64
   4   6   1    6.72    0.63
  -5   6  -1   39.16    1.34
  -5  -6  -1   38.72    1.26
  -6   6  -1   11.48    0.82
  -6  -6  -1   11.85    0.79
  -7   6  -1   51.30    1.58
  -7  -6  -1   55.10    1.53
  -8   6  -1   80.96    2.01
  -8  -6  -1   82.54    1.90
  -9   6  -1   76.92    2.00
  -7   7   1    4.12    0.63
  -7  -7   1    4.61    0.62
  -6   7   1    7.10    0.74
   5   7  -1   30.00    1.21
  -5   7   1   27.88    1.22
   4   7  -1   24.07    1.10
  -4   7   1   22.36    1.09
   3   7  -1    3.20    0.56
  -3   7   1    3.42    0.56
   2   7  -1    4.69    0.61
  -2   7   1    5.01    0.61
   1   7  -1    1.23    0.44
  -1   7   1    1.31    0.43
   0   7  -1   -0.17    0.32
   0   7   1    0.22    0.33
  -1   7  -1    3.55    0.56
   1   7   1    3.12    0.51
  -2   7  -1    3.51    0.54
   2   7   1    3.27    0.54
  -3   7  -1   72.71    1.88
   3   7   1   72.49    1.81
  -4   7  -1   30.36    1.27
   4   7   1   28.74    1.18
  -5   7  -1   18.84    1.04
  -5  -7  -1   18.73    1.01
  -6   7  -1    7.85    0.76
  -6  -7  -1    9.13    0.80
  -7   7  -1    1.26    0.49
  -7  -7  -1    1.42    0.51
  -8   7  -1    9.07    0.88
  -8  -7  -1    8.19    0.83
  -7   8   1   11.93    1.00
  -7  -8   1   12.83    1.00
  -6   8   1   19.76    1.19
  -6  -8   1   20.83    1.18
   5   8  -1    0.08    0.43
  -5   8   1    0.06    0.42
   4   8  -1    1.81    0.52
  -4   8   1    1.15    0.48
   3   8  -1   27.85    1.28
  -3   8   1   29.33    1.34
   2   8  -1   15.64    1.00
  -2   8   1   16.36    1.02
   1   8  -1   28.06    1.29
  -1   8   1   28.73    1.29
   0   8  -1   18.28    1.08
   0   8   1   19.05    1.09
  -1   8  -1    0.71    0.44
   1   8   1    0.61    0.42
  -2   8  -1    0.97    0.47
   2   8   1    0.19    0.39
  -3   8  -1   -0.28    0.39
   3   8   1    0.01    0.39
  -4   8  -1   -0.02    0.38
  -5   8  -1    2.52    0.58
  -5  -8  -1    1.69    0.55
  -6   8  -1   11.21    0.95
  -6  -8  -1   11.98    0.96
  -7   8  -1    7.54    0.90
  -7  -8  -1    6.81    0.84
   3   9  -1    4.30    0.74
  -3   9   1    4.66    0.74
   2   9  -1   11.75    1.00
  -2   9   1   11.40    0.97
   1   9  -1    0.34    0.46
  -1   9   1    0.22    0.43
   0   9  -1    0.04    0.42
   0   9   1   -0.36    0.42
  -1   9  -1    4.93    0.78
   1   9   1    4.02    0.69
  -2   9  -1    0.10    0.45
   2   9   1   -0.26    0.41
  -3   9  -1    8.25    0.92
   3   9   1    7.87    0.85
   1   0  -2    0.07    0.08
   0   0  -2  307.19    2.25
  -1   0  -2    0.24    0.12
  -2   0  -2    2.75    0.28
  -3   0  -2    0.00    0.13
  -4   0  -2  296.73    2.46
  -5   0  -2    0.05    0.15
  -6   0  -2   39.48    0.85
  -7   0  -2   -0.04    0.20
  -8   0  -2  123.41    1.73
  -9   0  -2    0.00    0.21
   3   1  -2  445.93    3.23
  -3   1   2  443.25    3.18
   2   1  -2    2.97    0.19
  -2   1   2    3.22    0.21
   1   1  -2   29.62    0.48
   0   1  -2    0.60    0.12
   0  -1  -2    0.88    0.14
  -1   1  -2   18.21    0.44
  -1  -1  -2   18.67    0.48
  -2   1  -2  153.80    1.49
  -2  -1  -2  154.68    1.48
  -3   1  -2    9.87    0.40
  -3  -1  -2   10.51    0.42
  -4   1  -2   30.05    0.68
  -4  -1  -2   29.27    0.69
  -5   1  -2   21.50    0.62
  -5  -1  -2   22.65    0.66
  -6   1  -2   67.93    1.15
  -6  -1  -2   69.04    1.16
  -7   1  -2    3.13    0.34
  -7  -1  -2    3.06    0.35
  -8   1  -2    0.14    0.22
  -8  -1  -2    0.28    0.25
  -9   1  -2   16.41    0.70
  -9  -1  -2   15.77    0.70
 -10   1  -2   11.59    0.65
  -7   2   2   34.53    0.76
  -7  -2   2   34.32    0.70
  -6   2   2   32.48    0.70
  -6  -2   2   32.90    0.67
  -5   2   2    7.41    0.38
  -5  -2   2    9.49    0.40
   4   2  -2    0.38    0.14
  -4   2   2    0.33    0.14
   3   2  -2   19.03    0.49
  -3   2   2   18.30    0.49
   2   2  -2   11.26    0.41
  -2   2   2   11.55    0.41
   1   2  -2  194.49    1.81
  -1   2   2  195.79    1.81
   0   2  -2   50.15    0.84
   0   2   2   50.14    0.82
  -1   2  -2    4.41    0.31
  -1  -2  -2    4.76    0.34
  -2   2  -2  360.85    2.94
  -2  -2  -2  351.33    2.83
  -3   2  -2   87.79    1.24
  -3  -2  -2   87.64    1.23
  -4   2  -2  133.18    1.64
  -4  -2  -2  127.95    1.60
  -5   2  -2    0.13    0.17
  -5  -2  -2    0.03    0.19
  -6   2  -2   17.27    0.66
  -6  -2  -2   17.66    0.67
  -7   2  -2   38.33    0.98
  -7  -2  -2   38.77    0.98
  -8   2  -2    0.13    0.22
  -8  -2  -2   -0.08    0.25
  -9   2  -2    2.67    0.39
  -9  -2  -2    2.78    0.41
 -10   2  -2   76.74    1.58
  -7   3   2   52.08    1.08
  -7  -3   2   53.86    1.01
  -6   3   2    7.25    0.46
  -6  -3   2    7.83    0.46
   5   3  -2   18.21    0.60
  -5   3   2   17.08    0.61
   4   3  -2   51.03    0.96
  -4   3   2   49.47    0.97
   3   3  -2   42.03    0.88
  -3   3   2   38.13    0.85
   2   3  -2   42.80    0.89
  -2   3   2   42.93    0.91
   1   3  -2   17.25    0.58
  -1   3   2   17.00    0.58
   0   3  -2    5.60    0.39
   0   3   2    5.39    0.38
  -1   3  -2    0.56    0.19
   1   3   2    0.68    0.20
  -2   3  -2   31.24    0.82
  -2  -3  -2   30.35    0.80
  -3   3  -2   42.24    0.98
  -3  -3  -2   41.24    0.94
  -4   3  -2   51.06    1.09
  -4  -3  -2   47.14    1.03
  -5   3  -2  114.41    1.73
  -5  -3  -2  113.59    1.66
  -6   3  -2  130.65    1.93
  -6  -3  -2  128.72    1.83
  -7   3  -2    0.00    0.21
  -7  -3  -2    0.08    0.28
  -8   3  -2   28.44    0.96
  -8  -3  -2   29.88    0.97
  -9   3  -2    0.79    0.32
  -9  -3  -2    1.12    0.37
 -10   3  -2   25.23    0.98
  -7   4   2   10.60    0.60
  -7  -4   2   10.98    0.60
   6   4  -2   25.67    0.81
  -6   4   2   24.81    0.84
   5   4  -2   30.43    0.87
  -5   4   2   27.86    0.87
   4   4  -2   52.94    1.13
  -4   4   2   51.88    1.14
   3   4  -2    0.09    0.21
  -3   4   2    0.37    0.21
   2   4  -2   34.89    0.93
  -2   4   2   36.06    0.96
   1   4  -2   76.32    1.39
  -1   4   2   74.64    1.37
   0   4  -2   19.11    0.74
   0   4   2   18.35    0.71
  -1   4  -2    0.08    0.20
   1   4   2   -0.05    0.19
  -2   4  -2   14.65    0.67
   2   4   2   14.89    0.67
  -3   4  -2   60.65    1.30
  -3  -4  -2   59.72    1.26
  -4   4  -2   21.60    0.83
  -4  -4  -2   22.55    0.82
  -5   4  -2   56.23    1.32
  -5  -4  -2   56.59    1.29
  -6   4  -2   51.56    1.31
  -6  -4  -2   52.42    1.27
  -7   4  -2   11.41    0.70
  -7  -4  -2   11.62    0.70
  -8   4  -2    5.49    0.57
  -8  -4  -2    5.83    0.60
  -9   4  -2    1.64    0.40
  -9  -4  -2    2.12    0.46
  -7   5   2    7.99    0.64
  -7  -5   2    8.69    0.64
   6   5  -2   14.19    0.73
  -6   5   2   12.99    0.73
   5   5  -2    0.26    0.27
  -5   5   2    0.07    0.25
   4   5  -2    2.12    0.38
  -4   5   2    2.36    0.40
   3   5  -2   20.99    0.85
  -3   5   2   20.88    0.85
   2   5  -2   15.21    0.75
  -2   5   2   15.59    0.74
   1   5  -2   18.91    0.82
  -1   5   2   17.79    0.78
   0   5  -2   34.71    1.08
   0   5   2   33.04    1.04
  -1   5  -2    3.42    0.44
   1   5   2    3.06    0.41
  -2   5  -2  113.66    1.98
   2   5   2  118.08    1.94
  -3   5  -2    2.50    0.43
   3   5   2    2.55    0.45
  -4   5  -2    0.81    0.32
  -4  -5  -2    0.77    0.34
  -5   5  -2    5.35    0.57
  -5  -5  -2    5.45    0.56
  -6   5  -2   33.49    1.19
  -6  -5  -2   33.16    1.11
  -7   5  -2  130.69    2.37
  -7  -5  -2  135.56    2.26
  -8   5  -2  160.21    2.69
  -8  -5  -2  160.23    2.52
  -9   5  -2    9.69    0.79
  -9  -5  -2    9.67    0.79
  -7   6   2    7.93    0.71
  -7  -6   2    9.67    0.75
   6   6  -2   17.74    0.87
  -6   6   2   17.57    0.92
   5   6  -2   21.02    0.95
  -5   6   2   21.40    0.96
   4   6  -2    0.24    0.32
  -4   6   2    0.30    0.31
   3   6  -2   -0.08    0.29
  -3   6   2   -0.22    0.27
   2   6  -2    0.20    0.31
  -2   6   2    0.25    0.28
   1   6  -2    1.48    0.41
  -1   6   2    1.44    0.39
   0   6  -2   57.39    1.52
   0   6   2   55.61    1.47
  -1   6  -2    6.12    0.63
   1   6   2    6.40    0.62
  -2   6  -2   47.71    1.43
   2   6   2   48.89    1.37
  -3   6  -2   18.93    0.96
   3   6   2   18.90    0.91
  -4   6  -2   26.11    1.12
  -4  -6  -2   26.84    1.08
  -5   6  -2    2.47    0.47
  -5  -6  -2    2.42    0.47
  -6   6  -2    2.42    0.51
  -6  -6  -2    2.39    0.48
  -7   6  -2    3.76    0.58
  -7  -6  -2    3.63    0.56
  -8   6  -2   15.18    1.00
  -8  -6  -2   14.80    0.94
  -9   6  -2    9.99    0.89
  -9  -6  -2    9.09    0.83
  -7   7   2    0.46    0.42
   6   7  -2    9.37    0.80
  -6   7   2    8.47    0.76
   5   7  -2    1.27    0.47
  -5   7   2    1.00    0.43
   4   7  -2   11.71    0.83
  -4   7   2   10.52    0.80
   3   7  -2    0.09    0.34
  -3   7   2    0.39    0.36
   2   7  -2  128.97    2.49
  -2   7   2  126.24    2.45
   1   7  -2   44.43    1.47
  -1   7   2   43.90    1.44
   0   7  -2   44.52    1.49
   0   7   2   39.12    1.35
  -1   7  -2   21.81    1.08
   1   7   2   21.04    1.04
  -2   7  -2   -0.07    0.31
   2   7   2   -0.15    0.31
  -3   7  -2   -0.22    0.32
   3   7   2   -0.25    0.30
  -4   7  -2   22.54    1.14
  -4  -7  -2   20.01    1.04
  -5   7  -2    3.75    0.62
  -5  -7  -2    3.66    0.60
  -6   7  -2    2.66    0.57
  -6  -7  -2    2.59    0.55
  -7   7  -2   -0.07    0.41
  -7  -7  -2    0.09    0.42
  -8   7  -2   16.55    1.11
  -8  -7  -2   16.33    1.05
  -9   7  -2   53.25    1.87
  -7   8   2    2.95    0.64
   6   8  -2    8.50    0.84
  -6   8   2    8.42    0.84
   5   8  -2   -0.37    0.38
  -5   8   2   -0.15    0.39
   4   8  -2   34.64    1.41
  -4   8   2   34.09    1.44
   3   8  -2   -0.04    0.40
  -3   8   2    0.24    0.41
   2   8  -2   14.69    0.99
  -2   8   2   14.87    1.00
   1   8  -2    0.47    0.43
  -1   8   2    0.32    0.39
   0   8  -2    5.53    0.71
   0   8   2    5.34    0.71
  -1   8  -2    0.27    0.43
   1   8   2    0.57    0.40
  -2   8  -2   -0.02    0.38
   2   8   2   -0.10    0.37
  -3   8  -2   15.46    1.06
  -3  -8  -2   15.48    1.01
  -4   8  -2   -0.01    0.41
  -4  -8  -2    0.35    0.46
  -5   8  -2   82.21    2.29
  -5  -8  -2   84.92    2.21
  -6   8  -2    3.90    0.69
  -6  -8  -2    4.35    0.72
   3   9  -2   52.83    1.86
  -3   9   2   51.24    1.82
   2   9  -2   22.81    1.29
  -2   9   2   24.60    1.31
   1   9  -2    0.35    0.46
  -1   9   2    0.22    0.47
   0   9  -2   14.51    1.10
   0   9   2   14.82    1.04
  -1   9  -2    3.60    0.70
   1   9   2    3.83    0.69
  -2   9  -2    2.95    0.68
   2   9   2    3.37    0.65
   2   0  -3    0.03    0.08
   1   0  -3 1759.72   10.84
   0   0  -3    0.03    0.12
  -1   0  -3   41.79    0.70
  -2   0  -3   -0.08    0.15
  -3   0  -3  360.55    2.88
  -4   0  -3    0.04    0.16
  -5   0  -3   22.09    0.68
  -6   0  -3   -0.08    0.18
  -7   0  -3   10.52    0.57
  -8   0  -3    0.27    0.25
  -9   0  -3   30.00    0.97
 -10   0  -3    0.61    0.30
   3   1  -3  249.87    1.94
   3  -1  -3  251.16    1.91
   2   1  -3  614.73    4.12
   2  -1  -3  622.84    4.11
   1   1  -3  250.05    1.98
   1  -1  -3  253.78    1.98
   0   1  -3    9.80    0.36
   0  -1  -3    9.87    0.38
  -1   1  -3  286.11    2.31
  -1  -1  -3  288.65    2.32
  -2   1  -3    3.10    0.29
  -2  -1  -3    3.32    0.31
  -3   1  -3   86.69    1.21
  -3  -1  -3   84.87    1.20
  -4   1  -3   36.85    0.82
  -4  -1  -3   36.93    0.83
  -5   1  -3    9.25    0.49
  -5  -1  -3    8.96    0.51
  -6   1  -3    0.64    0.23
  -6  -1  -3    1.00    0.28
  -7   1  -3   12.74    0.62
  -7  -1  -3   13.17    0.65
  -8   1  -3   72.50    1.41
  -8  -1  -3   74.72    1.43
  -9   1  -3    2.18    0.38
  -9  -1  -3    2.31    0.39
 -10   1  -3   19.93    0.86
 -10  -1  -3   20.03    0.86
  -6   2   3  417.26    3.13
  -6  -2   3  415.60    2.98
   5   2  -3   41.04    0.69
  -5   2   3   40.55    0.72
   4   2  -3    7.85    0.34
  -4   2   3    7.98    0.36
   3   2  -3   67.13    0.95
  -3   2   3   66.08    0.94
   2   2  -3   66.45    0.96
  -2   2   3   67.03    0.96
   1   2  -3  282.62    2.39
   0   2  -3   84.72    1.15
   0  -2  -3   86.66    1.15
  -1   2  -3   62.57    1.02
  -1  -2  -3   62.27    1.00
  -2   2  -3  181.07    1.94
  -2  -2  -3  182.62    1.90
  -3   2  -3    2.16    0.27
  -3  -2  -3    1.89    0.27
  -4   2  -3    1.73    0.26
  -4  -2  -3    1.96    0.29
  -5   2  -3    1.11    0.25
  -5  -2  -3    1.14    0.28
  -6   2  -3    0.08    0.20
  -6  -2  -3    0.71    0.28
  -7   2  -3    0.09    0.23
  -7  -2  -3    0.03    0.28
  -8   2  -3    0.13    0.26
  -8  -2  -3    0.18    0.28
  -9   2  -3    0.08    0.27
  -9  -2  -3   -0.04    0.29
 -10   2  -3    1.93    0.42
 -10  -2  -3    2.24    0.44
   6   3  -3    0.68    0.22
  -6   3   3    0.60    0.22
   5   3  -3   32.28    0.77
  -5   3   3   31.94    0.78
   4   3  -3    0.43    0.19
  -4   3   3    0.45    0.19
   3   3  -3   95.62    1.36
  -3   3   3   95.68    1.36
   2   3  -3  149.09    1.77
  -2   3   3  152.85    1.79
   1   3  -3  110.97    1.52
  -1   3   3  108.07    1.49
   0   3  -3    2.96    0.34
   0   3   3    3.23    0.35
  -1   3  -3    3.07    0.32
  -1  -3  -3    3.24    0.37
  -2   3  -3   83.78    1.38
  -2  -3  -3   84.63    1.35
  -3   3  -3  109.70    1.65
  -3  -3  -3  108.13    1.59
  -4   3  -3  118.34    1.77
  -4  -3  -3  119.82    1.73
  -5   3  -3  143.21    2.07
  -5  -3  -3  140.31    1.94
  -6   3  -3  119.53    1.93
  -6  -3  -3  117.33    1.83
  -7   3  -3   28.49    0.98
  -7  -3  -3   27.96    0.96
  -8   3  -3    0.05    0.25
  -8  -3  -3   -0.08    0.29
  -9   3  -3   16.81    0.85
  -9  -3  -3   17.58    0.86
 -10   3  -3    8.38    0.65
 -10  -3  -3    8.57    0.70
   6   4  -3   24.82    0.82
  -6   4   3   24.48    0.83
   5   4  -3   67.23    1.30
  -5   4   3   63.32    1.30
   4   4  -3   78.57    1.40
  -4   4   3   76.68    1.40
   3   4  -3   39.26    1.00
  -3   4   3   39.13    0.98
   2   4  -3   44.00    1.07
  -2   4   3   43.24    1.04
   1   4  -3   46.06    1.09
  -1   4   3   46.39    1.07
   0   4  -3   17.86    0.72
   0   4   3   18.43    0.72
  -1   4  -3    0.21    0.22
   1   4   3    0.20    0.22
  -2   4  -3  167.25    2.25
  -2  -4  -3  168.15    2.19
  -3   4  -3   73.71    1.48
  -3  -4  -3   72.84    1.43
  -4   4  -3  114.82    1.93
  -4  -4  -3  114.14    1.84
  -5   4  -3   25.86    0.95
  -5  -4  -3   25.69    0.92
  -6   4  -3    4.26    0.52
  -6  -4  -3    4.34    0.50
  -7   4  -3   14.97    0.81
  -7  -4  -3   15.03    0.79
  -8   4  -3    0.25    0.30
  -8  -4  -3    0.02    0.33
  -9   4  -3    5.69    0.61
  -9  -4  -3    5.71    0.66
 -10   4  -3   40.56    1.36
 -10  -4  -3   43.75    1.38
   7   5  -3   18.07    0.79
   6   5  -3    0.05    0.27
  -6   5   3    0.17    0.28
   5   5  -3   71.45    1.51
  -5   5   3   69.36    1.50
   4   5  -3  173.78    2.42
  -4   5   3  170.12    2.41
   3   5  -3    2.10    0.39
  -3   5   3    2.18    0.38
   2   5  -3   10.45    0.67
  -2   5   3    9.62    0.62
   1   5  -3    2.22    0.38
  -1   5   3    2.22    0.37
   0   5  -3    0.00    0.23
   0   5   3   -0.12    0.23
  -1   5  -3   29.41    1.05
   1   5   3   30.62    1.02
  -2   5  -3   99.34    1.89
  -2  -5  -3   98.73    1.82
  -3   5  -3   49.88    1.38
  -3  -5  -3   46.13    1.24
  -4   5  -3   32.59    1.15
  -5   5  -3    3.70    0.49
  -5  -5  -3    3.57    0.49
  -6   5  -3    1.29    0.38
  -6  -5  -3    0.89    0.37
  -7   5  -3    2.07    0.45
  -7  -5  -3    2.91    0.50
  -8   5  -3    0.01    0.32
  -8  -5  -3   -0.14    0.35
  -9   5  -3    2.73    0.52
  -9  -5  -3    3.28    0.57
 -10   5  -3   23.95    1.15
 -10  -5  -3   25.23    1.19
   7   6  -3   19.49    0.91
   6   6  -3    5.28    0.59
  -6   6   3    4.66    0.56
   5   6  -3    4.72    0.55
  -5   6   3    4.39    0.55
   4   6  -3    5.28    0.62
  -4   6   3    5.29    0.58
   3   6  -3   14.18    0.82
  -3   6   3   13.32    0.78
   2   6  -3    6.89    0.65
  -2   6   3    6.49    0.62
   0   6   3  268.47    3.36
  -1   6  -3  253.43    3.43
   1   6   3  253.51    3.26
  -2   6  -3   61.48    1.65
  -3   6  -3   19.36    0.96
  -3  -6  -3   19.84    0.95
  -4   6  -3    0.57    0.36
  -4  -6  -3    0.62    0.36
  -5   6  -3    1.81    0.46
  -5  -6  -3    1.52    0.44
  -6   6  -3   28.53    1.21
  -6  -6  -3   29.45    1.18
  -7   6  -3   23.88    1.17
  -7  -6  -3   23.24    1.10
  -8   6  -3   -0.25    0.38
  -8  -6  -3    0.06    0.39
  -9   6  -3   31.23    1.39
  -9  -6  -3   32.75    1.34
 -10   6  -3   11.06    0.96
   7   7  -3    0.81    0.44
   6   7  -3   38.77    1.37
  -6   7   3   36.51    1.35
   5   7  -3   21.14    1.04
  -5   7   3   19.96    1.05
   4   7  -3    4.25    0.61
  -4   7   3    4.35    0.58
   3   7  -3    2.80    0.53
  -3   7   3    3.15    0.53
   2   7  -3   14.49    0.94
  -2   7   3   14.22    0.88
   1   7  -3   21.34    1.09
  -1   7   3   20.32    1.03
   0   7  -3    1.98    0.50
   0   7   3    2.12    0.48
  -1   7  -3    7.15    0.73
   1   7   3    6.73    0.68
  -2   7  -3    0.21    0.35
  -2  -7  -3    0.22    0.35
  -3   7  -3    0.46    0.40
  -3  -7  -3    0.61    0.42
  -4   7  -3   24.89    1.22
  -4  -7  -3   25.85    1.18
  -5   7  -3   15.93    1.00
  -5  -7  -3   15.83    0.98
  -6   7  -3   22.39    1.21
  -6  -7  -3   23.97    1.17
  -7   7  -3   28.81    1.37
  -7  -7  -3   29.57    1.31
  -8   7  -3    1.81    0.57
  -8  -7  -3    1.00    0.55
   6   8  -3    0.26    0.45
  -6   8   3    0.61    0.47
   5   8  -3    5.55    0.74
  -5   8   3    6.07    0.75
   4   8  -3   23.49    1.22
  -4   8   3   23.18    1.21
   3   8  -3   59.48    1.84
  -3   8   3   57.72    1.78
   2   8  -3  139.07    2.83
  -2   8   3  135.67    2.72
   1   8  -3   92.19    2.31
  -1   8   3   92.30    2.21
   0   8  -3    3.23    0.62
   0   8   3    2.46    0.55
  -1   8  -3    1.01    0.48
   1   8   3    0.85    0.44
  -2   8  -3    2.30    0.58
  -2  -8  -3    2.29    0.58
  -3   8  -3    0.61    0.44
  -3  -8  -3   -0.17    0.43
  -4   8  -3    1.81    0.55
  -4  -8  -3    2.35    0.60
  -5   8  -3    1.69    0.54
  -5  -8  -3    2.08    0.60
  -6   8  -3    6.18    0.82
  -6  -8  -3    6.10    0.79
   1   9  -3   -0.10    0.46
  -1   9   3   -0.05    0.43
   0   9  -3    0.44    0.50
   0   9   3   -0.27    0.42
  -1   9  -3    2.71    0.66
  -1  -9  -3    3.21    0.67
   2   0  -4  302.31    2.22
   1   0  -4    0.38    0.13
   0   0  -4  208.40    1.84
  -1   0  -4   -0.01    0.14
  -2   0  -4  263.91    2.36
  -3   0  -4   -0.06    0.17
  -4   0  -4   28.66    0.79
  -5   0  -4    0.01    0.21
  -6   0  -4   19.09    0.72
  -7   0  -4   -0.03    0.25
  -8   0  -4  279.93    3.08
  -9   0  -4   -0.22    0.27
 -10   0  -4  322.31    3.58
 -11   0  -4    0.17    0.32
   3   1  -4   79.83    0.89
   3  -1  -4   79.58    0.87
   2   1  -4    0.28    0.12
   2  -1  -4    0.37    0.13
   1   1  -4   60.16    0.84
   1  -1  -4   61.81    0.86
   0   1  -4   37.56    0.70
   0  -1  -4   37.63    0.71
  -1   1  -4  711.80    4.80
  -1  -1  -4  711.57    4.79
  -2   1  -4  423.28    3.31
  -2  -1  -4  425.68    3.33
  -3   1  -4    0.66    0.20
  -3  -1  -4    0.84    0.23
  -4   1  -4  368.81    3.21
  -4  -1  -4  370.60    3.23
  -5   1  -4  139.98    1.84
  -5  -1  -4  142.24    1.87
  -6   1  -4    0.79    0.27
  -6  -1  -4    0.84    0.30
  -7   1  -4    6.00    0.54
  -7  -1  -4    6.56    0.62
  -8   1  -4    5.91    0.57
  -8  -1  -4    6.79    0.61
  -9   1  -4    0.20    0.28
  -9  -1  -4    0.12    0.30
 -10   1  -4   58.75    1.48
 -10  -1  -4   57.49    1.44
 -11   1  -4   36.62    1.25
 -11  -1  -4   36.30    1.21
   5   2  -4   23.93    0.54
  -5   2   4   24.11    0.56
   4   2  -4    9.81    0.39
  -4   2   4    9.63    0.41
   3   2  -4   50.74    0.84
   3  -2  -4   50.43    0.82
   2   2  -4  374.88    2.95
   2  -2  -4  371.48    2.88
   1   2  -4   20.02    0.57
   1  -2  -4   19.96    0.58
   0   2  -4 1165.61    7.38
   0  -2  -4 1170.30    7.34
  -1   2  -4    4.60    0.37
  -1  -2  -4    5.37    0.42
  -2   2  -4   45.74    0.97
  -2  -2  -4   45.42    0.94
  -3   2  -4   29.43    0.83
  -3  -2  -4   30.20    0.81
  -4   2  -4   11.13    0.58
  -4  -2  -4   10.48    0.56
  -5   2  -4  267.48    2.83
  -5  -2  -4  263.47    2.79
  -6   2  -4  193.59    2.42
  -6  -2  -4  196.69    2.45
  -7   2  -4  473.17    4.34
  -7  -2  -4  470.68    4.32
  -8   2  -4   66.41    1.54
  -8  -2  -4   66.27    1.49
  -9   2  -4   24.66    0.99
  -9  -2  -4   25.91    1.01
 -10   2  -4    0.83    0.38
 -10  -2  -4    1.19    0.40
 -11   2  -4    0.17    0.34
   6   3  -4  382.01    3.10
  -6   3   4  377.37    3.15
   5   3  -4  234.05    2.26
  -5   3   4  236.67    2.32
   4   3  -4  240.62    2.36
  -4   3   4  242.84    2.38
   3   3  -4   19.99    0.66
  -3   3   4   19.22    0.64
   2   3  -4    0.36    0.18
  -2   3   4    0.35    0.19
   1   3  -4   59.43    1.12
   1  -3  -4   58.66    1.08
   0   3  -4  173.46    2.07
   0  -3  -4  170.57    1.98
  -1   3  -4    0.07    0.17
  -1  -3  -4    0.06    0.19
  -2   3  -4    2.29    0.32
  -2  -3  -4    2.33    0.32
  -3   3  -4   45.83    1.11
  -3  -3  -4   46.48    1.09
  -4   3  -4  227.94    2.67
  -4  -3  -4  227.81    2.58
  -5   3  -4  161.05    2.27
  -5  -3  -4  158.33    2.18
  -6   3  -4    5.13    0.53
  -6  -3  -4    4.78    0.55
  -7   3  -4   23.76    0.94
  -7  -3  -4   23.53    0.94
  -8   3  -4    0.90    0.34
  -8  -3  -4    1.15    0.38
  -9   3  -4    0.41    0.32
  -9  -3  -4    0.32    0.34
 -10   3  -4   25.72    1.10
 -10  -3  -4   26.41    1.10
 -11   3  -4   22.70    1.09
   6   4  -4   43.48    1.04
  -6   4   4   43.68    1.08
   5   4  -4   20.66    0.76
  -5   4   4   22.17    0.80
   4   4  -4   33.16    0.94
  -4   4   4   33.80    0.94
   3   4  -4  335.56    3.30
  -3   4   4  333.31    3.23
   2   4  -4   96.89    1.61
  -2   4   4   98.90    1.59
   1   4  -4   15.53    0.68
  -1   4   4   15.98    0.69
   0   4  -4   31.13    0.95
   0  -4  -4   31.04    0.92
  -1   4  -4   35.12    1.03
  -1  -4  -4   35.03    1.00
  -2   4  -4  106.55    1.82
  -2  -4  -4  104.23    1.75
  -3   4  -4   25.00    0.93
  -3  -4  -4   23.00    0.88
  -4   4  -4  379.41    3.92
  -4  -4  -4  379.26    3.78
  -5  -4  -4   31.52    1.06
  -6  -4  -4   48.72    1.32
  -7   4  -4   -0.06    0.27
  -7  -4  -4    0.17    0.32
  -8   4  -4   25.37    1.07
  -8  -4  -4   24.34    1.03
  -9   4  -4    0.25    0.34
  -9  -4  -4    0.48    0.39
 -10   4  -4    3.84    0.55
 -10  -4  -4    4.25    0.59
   7   5  -4   24.19    0.90
   6   5  -4    1.14    0.35
  -6   5   4    1.83    0.39
   5   5  -4   71.77    1.51
  -5   5   4   75.53    1.56
   4   5  -4   63.42    1.44
  -4   5   4   66.00    1.45
   3   5  -4  212.41    2.74
  -3   5   4  209.15    2.69
   2   5  -4  126.42    2.09
  -2   5   4  126.80    2.03
   1   5  -4   25.15    0.97
  -1   5   4   25.07    0.93
   0   5  -4   33.65    1.12
   0   5   4   32.62    1.06
  -1   5  -4  312.06    3.61
  -1  -5  -4  314.65    3.47
  -2   5  -4  216.88    2.96
  -2  -5  -4  211.04    2.78
  -3   5  -4  381.62    4.12
  -3  -5  -4  377.60    3.98
  -4   5  -4    0.06    0.28
  -4  -5  -4    0.12    0.30
  -5   5  -4    4.68    0.56
  -5  -5  -4    4.90    0.59
  -6   5  -4   10.65    0.75
  -6  -5  -4   11.02    0.77
  -7   5  -4    7.57    0.67
  -7  -5  -4    8.87    0.74
  -8   5  -4   21.35    1.05
  -8  -5  -4   22.04    1.05
  -9   5  -4   22.74    1.11
  -9  -5  -4   24.04    1.14
 -10   5  -4    9.13    0.81
 -10  -5  -4    9.32    0.85
   6   6  -4   12.44    0.78
  -6   6   4   12.58    0.81
   5   6  -4    1.05    0.38
  -5   6   4    1.48    0.41
   4   6  -4   27.43    1.10
  -4   6   4   26.89    1.07
   3   6  -4   21.16    1.00
  -3   6   4   20.37    0.94
   2   6  -4   82.89    1.86
  -2   6   4   83.47    1.81
  -1   6   4   29.02    1.09
   0   6   4   70.03    1.67
  -1   6  -4    5.71    0.64
  -1  -6  -4    5.08    0.60
  -2   6  -4   15.58    0.92
  -2  -6  -4   14.21    0.83
  -3   6  -4   10.09    0.78
  -3  -6  -4    9.96    0.74
  -4   6  -4    0.03    0.32
  -4  -6  -4   -0.06    0.32
  -5   6  -4    6.71    0.69
  -5  -6  -4    7.27    0.70
  -6   6  -4   17.54    1.01
  -6  -6  -4   16.66    0.96
  -7   6  -4   40.92    1.51
  -7  -6  -4   41.11    1.44
  -8   6  -4    3.07    0.60
  -8  -6  -4    3.18    0.60
  -9   6  -4    6.04    0.76
  -9  -6  -4    6.62    0.80
   6   7  -4   32.30    1.26
  -6   7   4   30.19    1.23
   5   7  -4    2.40    0.53
  -5   7   4    2.75    0.53
   4   7  -4    9.50    0.80
  -4   7   4    9.11    0.77
   3   7  -4   17.47    0.99
  -3   7   4   16.57    0.96
   2   7  -4   19.62    1.06
  -2   7   4   18.91    1.00
   1   7  -4  207.11    3.27
  -1   7   4  204.84    3.15
   0   7  -4   71.73    1.93
   0   7   4   69.62    1.80
  -1   7  -4   42.80    1.52
  -1  -7  -4   41.89    1.43
  -2   7  -4    1.43    0.49
  -2  -7  -4    1.93    0.54
  -3   7  -4    5.25    0.67
  -3  -7  -4    5.93    0.70
  -4   7  -4   13.74    0.97
  -4  -7  -4   13.05    0.91
  -5   7  -4    6.82    0.75
  -5  -7  -4    7.33    0.77
  -6   7  -4    0.73    0.46
  -6  -7  -4    0.66    0.48
  -7   7  -4   14.77    1.05
  -7  -7  -4   15.80    1.06
  -8   7  -4    6.51    0.81
  -8  -7  -4    6.51    0.80
   6   8  -4   10.22    0.92
   5   8  -4    2.64    0.61
  -5   8   4    2.02    0.60
   4   8  -4   21.40    1.18
  -4   8   4   20.30    1.14
   3   8  -4   65.74    1.96
  -3   8   4   65.39    1.89
   2   8  -4   12.59    0.98
  -2   8   4   11.60    0.91
   1   8  -4    5.66    0.75
  -1   8   4    4.89    0.68
   0   8  -4    5.20    0.75
   0  -8  -4    6.10    0.73
  -1   8  -4   64.71    2.00
  -1  -8  -4   63.86    1.92
  -2   8  -4   15.74    1.08
  -2  -8  -4   16.70    1.05
  -3   8  -4    0.47    0.44
  -3  -8  -4    0.82    0.50
  -4   8  -4   37.41    1.61
  -4  -8  -4   37.53    1.53
  -5   8  -4   10.61    0.98
  -5  -8  -4   12.19    0.99
   3   0  -5  185.87    1.56
   2   0  -5    0.03    0.12
   1   0  -5  203.06    1.84
   0   0  -5    0.20    0.16
  -1   0  -5  432.01    3.37
  -2   0  -5   -0.08    0.17
  -3   0  -5  970.04    6.52
  -4   0  -5   -0.12    0.20
  -5   0  -5   86.23    1.50
  -6   0  -5   -0.01    0.25
  -7   0  -5   35.70    1.08
  -8   0  -5   -0.20    0.28
  -9   0  -5   41.03    1.26
 -10   0  -5    0.10    0.34
 -11   0  -5   74.68    1.79
   3   1  -5  171.87    1.57
   3  -1  -5  170.10    1.53
   2   1  -5  287.37    2.33
   2  -1  -5  283.81    2.29
   1   1  -5  206.49    1.93
   1  -1  -5  207.68    1.93
   0   1  -5   60.77    1.00
   0  -1  -5   58.85    0.99
  -1   1  -5   66.94    1.10
  -1  -1  -5   67.30    1.12
  -2   1  -5  189.30    2.05
  -2  -1  -5  195.43    2.10
  -3   1  -5   40.71    0.94
  -3  -1  -5   41.49    0.96
  -4   1  -5    8.69    0.52
  -4  -1  -5    8.89    0.56
  -5   1  -5    0.84    0.27
  -5  -1  -5    0.56    0.30
  -6   1  -5   95.87    1.69
  -6  -1  -5   98.46    1.73
  -7   1  -5  146.96    2.17
  -7  -1  -5  148.75    2.20
  -8   1  -5  214.17    2.78
  -8  -1  -5  213.68    2.78
  -9   1  -5  387.35    4.10
  -9  -1  -5  387.55    4.10
 -10   1  -5   33.44    1.21
 -10  -1  -5   33.97    1.19
 -11   1  -5   79.15    1.87
 -11  -1  -5   80.77    1.86
   5   2  -5    0.09    0.14
   5  -2  -5    0.16    0.16
   4   2  -5   46.11    0.82
   4  -2  -5   47.41    0.80
   3   2  -5    5.09    0.34
   3  -2  -5    4.86    0.34
   2   2  -5  280.01    2.50
   2  -2  -5  270.41    2.39
   1   2  -5   10.23    0.47
   1  -2  -5    9.72    0.46
   0   2  -5    0.37    0.18
   0  -2  -5    0.35    0.20
  -1   2  -5   52.20    1.04
  -1  -2  -5   51.12    1.02
  -2   2  -5    8.71    0.51
  -2  -2  -5    9.23    0.52
  -3   2  -5   -0.06    0.19
  -3  -2  -5   -0.05    0.21
  -4   2  -5  101.05    1.65
  -4  -2  -5  100.87    1.65
  -5   2  -5    7.15    0.56
  -5  -2  -5    7.44    0.61
  -6   2  -5  374.44    3.77
  -6  -2  -5  390.06    3.83
  -7   2  -5    3.70    0.49
  -7  -2  -5    3.33    0.48
  -8   2  -5    0.72    0.35
  -8  -2  -5    0.83    0.37
  -9   2  -5    1.48    0.45
  -9  -2  -5    2.22    0.51
 -10   2  -5    0.43    0.37
 -10  -2  -5    0.52    0.40
 -11   2  -5   10.12    0.83
 -11  -2  -5   11.41    0.87
   6   3  -5   35.36    0.80
   5   3  -5   74.25    1.20
   4   3  -5    1.58    0.27
   4  -3  -5    1.66    0.26
   3   3  -5   32.82    0.83
   3  -3  -5   32.14    0.78
   2   3  -5   78.08    1.32
   2  -3  -5   77.28    1.27
   1   3  -5  322.65    3.06
   1  -3  -5  322.35    2.98
   0   3  -5   46.49    1.05
   0  -3  -5   46.67    1.03
  -1   3  -5  125.53    1.82
  -1  -3  -5  122.35    1.76
  -2   3  -5   33.57    0.97
  -2  -3  -5   34.16    0.96
  -3   3  -5   10.87    0.62
  -3  -3  -5   10.51    0.62
  -4   3  -5   42.83    1.16
  -4  -3  -5   41.93    1.14
  -5   3  -5  119.84    2.01
  -5  -3  -5  117.80    1.94
  -7   3  -5    1.12    0.35
  -7  -3  -5    0.76    0.37
  -8   3  -5   31.60    1.16
  -8  -3  -5   27.53    1.09
  -9   3  -5   72.93    1.79
  -9  -3  -5   71.06    1.73
 -10   3  -5    2.84    0.53
 -10  -3  -5    3.53    0.59
 -11   3  -5    0.32    0.40
 -11  -3  -5    0.31    0.45
   6   4  -5   43.23    1.05
   5   4  -5  296.17    3.02
  -5   4   5  300.26    3.01
   4   4  -5  313.99    3.17
  -4   4   5  313.61    3.08
   3   4  -5   88.82    1.58
   2   4  -5   52.48    1.23
   2  -4  -5   51.30    1.16
   1   4  -5   25.55    0.89
   1  -4  -5   26.01    0.86
   0   4  -5   14.88    0.72
   0  -4  -5   14.43    0.69
  -1   4  -5    3.22    0.42
  -1  -4  -5    3.47    0.43
  -2   4  -5  146.92    2.26
  -2  -4  -5  145.49    2.15
  -3   4  -5   49.08    1.31
  -3  -4  -5   49.10    1.27
  -4   4  -5  166.95    2.50
  -4  -4  -5  167.04    2.41
  -5   4  -5   40.08    1.26
  -5  -4  -5   39.47    1.21
  -6   4  -5    2.77    0.46
  -6  -4  -5    3.24    0.51
  -7   4  -5   47.43    1.45
  -7  -4  -5   46.82    1.40
  -8   4  -5    3.25    0.52
  -8  -4  -5    2.91    0.54
  -9   4  -5   -0.02    0.33
  -9  -4  -5   -0.28    0.39
 -10   4  -5   24.20    1.16
 -10  -4  -5   24.27    1.18
 -11   4  -5   21.49    1.13
 -11  -4  -5   23.13    1.21
   6   5  -5    3.19    0.44
   5   5  -5   34.29    1.07
  -5   5   5   34.61    1.08
   4   5  -5    2.22    0.42
  -4   5   5    2.38    0.42
   3   5  -5    9.47    0.69
  -3   5   5    8.59    0.67
   2   5  -5   26.02    0.97
   1   5  -5   22.01    0.94
   1  -5  -5   21.92    0.89
   0   5  -5    1.80    0.39
   0  -5  -5    1.77    0.39
  -1   5  -5   25.38    1.02
  -1  -5  -5   24.04    0.97
  -2   5  -5   32.73    1.17
  -2  -5  -5   32.32    1.11
  -4   5  -5    0.25    0.30
  -4  -5  -5    0.01    0.32
  -5   5  -5   20.46    1.00
  -5  -5  -5   21.84    0.99
  -6   5  -5   12.73    0.84
  -6  -5  -5   15.10    0.88
  -7   5  -5    1.48    0.44
  -7  -5  -5    2.25    0.51
  -8   5  -5    6.88    0.71
  -8  -5  -5    6.95    0.75
  -9   5  -5   20.52    1.11
  -9  -5  -5   21.14    1.16
 -10   5  -5   19.12    1.11
 -10  -5  -5   20.09    1.16
   6   6  -5    4.89    0.58
   5   6  -5    1.67    0.45
  -5   6   5    1.91    0.44
   4   6  -5   21.23    0.99
  -4   6   5   21.32    0.97
   3   6  -5   97.36    2.01
  -3   6   5   93.83    1.91
   2   6  -5  161.75    2.65
  -2   6   5  161.40    2.57
   1   6  -5   74.70    1.84
   0   6  -5  149.48    2.64
  -1   6  -5   31.40    1.25
  -1  -6  -5   30.20    1.16
  -2   6  -5   31.45    1.24
  -2  -6  -5   31.21    1.20
  -3   6  -5    4.81    0.61
  -3  -6  -5    5.13    0.60
  -4   6  -5    0.45    0.37
  -4  -6  -5    0.92    0.42
  -5   6  -5   82.33    2.09
  -5  -6  -5   82.61    1.98
  -6   6  -5   11.06    0.88
  -6  -6  -5   11.18    0.84
  -7   6  -5    1.82    0.50
  -7  -6  -5    1.08    0.48
  -8   6  -5   24.52    1.25
  -8  -6  -5   26.45    1.25
  -9   6  -5    1.68    0.55
  -9  -6  -5    1.75    0.60
   6   7  -5   23.68    1.15
   5   7  -5   21.41    1.07
  -5   7   5   19.78    1.06
   4   7  -5   -0.03    0.37
  -4   7   5   -0.20    0.34
   3   7  -5    1.74    0.51
  -3   7   5    1.11    0.44
   2   7  -5    0.63    0.43
  -2   7   5    0.65    0.40
   1   7  -5   78.84    2.03
   1  -7  -5   74.31    1.89
   0   7  -5   62.81    1.84
   0  -7  -5   62.33    1.77
  -1   7  -5   76.09    2.06
  -1  -7  -5   74.92    1.92
  -2   7  -5   48.22    1.66
  -2  -7  -5   48.09    1.57
  -3   7  -5    7.19    0.77
  -3  -7  -5    7.23    0.75
  -4   7  -5    5.30    0.71
  -4  -7  -5    4.07    0.64
  -5   7  -5    2.37    0.58
  -5  -7  -5    1.68    0.55
  -6   7  -5   12.76    0.99
  -6  -7  -5   13.33    0.99
  -7   7  -5    2.84    0.62
  -7  -7  -5    3.17    0.65
   5   8  -5    4.37    0.69
  -5   8   5    5.36    0.73
   4   8  -5    6.82    0.84
  -4   8   5    6.27    0.75
   3   8  -5   10.82    0.94
  -3   8   5   11.19    0.93
   2   8  -5    3.05    0.62
   2  -8  -5    2.52    0.57
   1   8  -5    5.34    0.75
   1  -8  -5    5.40    0.72
   0   8  -5   22.24    1.26
   0  -8  -5   21.68    1.18
  -1   8  -5   13.25    1.02
  -1  -8  -5   13.55    1.01
  -2   8  -5   -0.04    0.46
  -2  -8  -5    0.40    0.49
  -3   8  -5    0.73    0.50
  -3  -8  -5    0.07    0.48
  -4   8  -5    1.75    0.60
  -4  -8  -5    1.20    0.57
   3   0  -6    0.04    0.13
   2   0  -6   42.82    0.79
   1   0  -6   -0.06    0.15
   0   0  -6    1.07    0.23
  -1   0  -6   -0.03    0.18
  -2   0  -6   45.65    1.02
  -3   0  -6   -0.12    0.21
  -4   0  -6   51.46    1.20
  -5   0  -6   -0.07    0.25
  -6   0  -6   10.10    0.67
  -7   0  -6    0.05    0.27
  -8   0  -6  120.17    2.14
  -9   0  -6   -0.01    0.33
 -10   0  -6  291.91    3.70
 -11   0  -6    0.33    0.40
   4   1  -6    1.34    0.18
   4  -1  -6    1.14    0.19
   3   1  -6   32.85    0.67
   3  -1  -6   31.20    0.65
   2   1  -6    3.80    0.33
   2  -1  -6    4.06    0.35
   1   1  -6    8.39    0.43
   1  -1  -6    8.23    0.44
   0   1  -6   24.74    0.69
   0  -1  -6   25.23    0.71
  -1   1  -6    2.15    0.29
  -1  -1  -6    2.30    0.31
  -2   1  -6   14.16    0.61
  -2  -1  -6   13.54    0.62
  -3   1  -6   23.92    0.79
  -3  -1  -6   24.18    0.83
  -4   1  -6   37.92    1.02
  -4  -1  -6   39.53    1.08
  -5   1  -6   62.12    1.36
  -5  -1  -6   62.16    1.39
  -6   1  -6    2.43    0.40
  -6  -1  -6    2.49    0.43
  -7   1  -6    7.89    0.64
  -7  -1  -6    8.44    0.69
  -8   1  -6   16.28    0.86
  -8  -1  -6   15.39    0.84
  -9   1  -6    7.58    0.72
  -9  -1  -6    7.68    0.72
 -10   1  -6   18.91    1.03
 -10  -1  -6   18.39    0.98
 -11   1  -6    3.51    0.58
 -11  -1  -6    3.87    0.60
   5   2  -6   31.51    0.68
   5  -2  -6   31.72    0.66
   4   2  -6   28.08    0.68
   4  -2  -6   27.85    0.65
   3   2  -6    2.23    0.27
   3  -2  -6    1.90    0.26
   2   2  -6    0.26    0.18
   2  -2  -6    0.25    0.19
   1   2  -6    5.94    0.41
   1  -2  -6    5.84    0.43
   0   2  -6   90.23    1.44
   0  -2  -6   93.59    1.42
  -1   2  -6   20.57    0.72
  -1  -2  -6   19.37    0.71
  -2   2  -6   15.98    0.69
  -2  -2  -6   16.06    0.69
  -3   2  -6    0.13    0.21
  -3  -2  -6    0.16    0.26
  -4   2  -6   11.19    0.64
  -4  -2  -6   12.05    0.70
  -5   2  -6    2.00    0.37
  -5  -2  -6    3.63    0.47
  -6   2  -6   32.98    1.09
  -7   2  -6   60.78    1.52
  -7  -2  -6   58.76    1.49
  -8   2  -6   15.50    0.87
  -8  -2  -6   15.23    0.88
  -9   2  -6   -0.09    0.32
  -9  -2  -6   -0.17    0.35
 -10   2  -6    0.79    0.41
 -10  -2  -6    0.25    0.38
 -11   2  -6   95.74    2.21
 -11  -2  -6   93.45    2.14
   5   3  -6   34.25    0.85
   5  -3  -6   33.50    0.81
   4   3  -6    1.93    0.29
   4  -3  -6    1.57    0.28
   3   3  -6    4.78    0.42
   3  -3  -6    4.39    0.41
   2   3  -6   22.27    0.75
   2  -3  -6   21.63    0.71
   1   3  -6   14.34    0.64
   1  -3  -6   12.79    0.60
   0   3  -6    5.35    0.46
   0  -3  -6    5.52    0.48
  -1   3  -6   10.12    0.60
  -1  -3  -6   10.71    0.62
  -2   3  -6   53.10    1.26
  -2  -3  -6   52.94    1.23
  -3   3  -6    5.85    0.54
  -3  -3  -6    5.95    0.58
  -4   3  -6    0.11    0.25
  -4  -3  -6    0.15    0.29
  -5   3  -6   23.07    0.96
  -5  -3  -6   22.61    0.95
  -6   3  -6    4.01    0.51
  -6  -3  -6    3.69    0.52
  -7   3  -6   36.92    1.26
  -7  -3  -6   33.46    1.18
  -8   3  -6   97.55    2.08
  -8  -3  -6   98.44    2.07
  -9   3  -6    0.46    0.37
  -9  -3  -6    0.83    0.45
 -10   3  -6    0.38    0.38
 -10  -3  -6    0.06    0.42
 -11   3  -6    6.91    0.76
 -11  -3  -6    8.67    0.89
   6  -4  -6   31.17    0.89
   5   4  -6    8.88    0.59
   5  -4  -6    8.42    0.54
   4   4  -6    8.22    0.59
   4  -4  -6    7.22    0.52
   3   4  -6    3.30    0.41
   3  -4  -6    3.24    0.40
   2   4  -6    6.80    0.53
   2  -4  -6    6.68    0.53
   1   4  -6   14.40    0.72
   1  -4  -6   14.18    0.71
   0   4  -6    1.74    0.36
   0  -4  -6    1.54    0.35
  -1   4  -6   21.63    0.91
  -1  -4  -6   20.49    0.86
  -2   4  -6   42.84    1.24
  -2  -4  -6   41.35    1.18
  -3   4  -6    0.13    0.26
  -3  -4  -6    0.01    0.29
  -4   4  -6    4.59    0.55
  -4  -4  -6    4.78    0.54
  -5   4  -6   15.23    0.85
  -5  -4  -6   14.79    0.83
  -6   4  -6    1.18    0.38
  -6  -4  -6    1.04    0.43
  -7   4  -6    7.55    0.69
  -7  -4  -6    7.23    0.72
  -8   4  -6   17.30    0.98
  -8  -4  -6   18.00    1.00
  -9   4  -6   11.78    0.85
  -9  -4  -6   11.72    0.90
 -10   4  -6   12.42    0.92
 -10  -4  -6   12.85    0.99
   6  -5  -6    1.08    0.34
   5   5  -6    9.16    0.67
   5  -5  -6    8.16    0.60
   4   5  -6   52.89    1.37
   3   5  -6   40.59    1.24
   3  -5  -6   40.00    1.17
   2   5  -6  138.73    2.27
   2  -5  -6  140.93    2.20
   1   5  -6    0.15    0.28
   1  -5  -6    0.33    0.30
   0   5  -6    0.47    0.33
   0  -5  -6    0.47    0.33
  -1  -5  -6   29.15    1.07
  -2   5  -6   13.52    0.83
  -2  -5  -6   12.98    0.79
  -3   5  -6   10.86    0.79
  -3  -5  -6   10.80    0.77
  -4   5  -6   17.16    0.94
  -4  -5  -6   16.12    0.89
  -5   5  -6    4.70    0.59
  -5  -5  -6    4.32    0.59
  -6   5  -6   12.99    0.87
  -6  -5  -6   12.67    0.87
  -7   5  -6    0.77    0.41
  -7  -5  -6    1.13    0.47
  -8   5  -6    2.65    0.54
  -8  -5  -6    2.76    0.60
  -9   5  -6   35.78    1.47
  -9  -5  -6   35.42    1.45
   5   6  -6    0.65    0.39
   5  -6  -6    0.85    0.37
   4   6  -6    0.67    0.38
   4  -6  -6    0.45    0.35
   3   6  -6   -0.11    0.31
   3  -6  -6   -0.09    0.33
   2   6  -6    0.16    0.33
   2  -6  -6   -0.31    0.32
   1   6  -6   58.32    1.66
   1  -6  -6   52.37    1.48
   0   6  -6    0.89    0.40
   0  -6  -6    0.58    0.41
  -1   6  -6    2.70    0.51
  -1  -6  -6    2.67    0.52
  -2   6  -6    0.76    0.39
  -2  -6  -6    0.79    0.41
  -3   6  -6   26.60    1.21
  -3  -6  -6   27.65    1.18
  -4   6  -6   24.01    1.18
  -4  -6  -6   22.39    1.12
  -5   6  -6    0.57    0.42
  -5  -6  -6    0.39    0.41
  -6   6  -6   -0.10    0.38
  -6  -6  -6   -0.16    0.41
  -7   6  -6    0.51    0.43
  -7  -6  -6    0.27    0.46
  -8   6  -6    5.54    0.75
  -8  -6  -6    4.75    0.74
   5   7  -6    8.47    0.81
   5  -7  -6    8.05    0.74
   4   7  -6   23.57    1.12
   4  -7  -6   23.46    1.09
   3   7  -6    1.58    0.50
   3  -7  -6    1.38    0.46
   2   7  -6   16.67    1.01
   2  -7  -6   15.38    0.92
   1   7  -6   50.42    1.67
   1  -7  -6   50.15    1.57
   0   7  -6   67.59    1.96
   0  -7  -6   67.90    1.84
  -1   7  -6   14.38    0.99
  -1  -7  -6   13.49    0.97
  -2   7  -6    4.20    0.64
  -2  -7  -6    4.12    0.65
  -3   7  -6   -0.28    0.37
  -3  -7  -6    0.02    0.42
  -4   7  -6    4.03    0.66
  -4  -7  -6    3.60    0.65
  -5   7  -6   13.07    1.00
  -5  -7  -6   16.64    1.09
  -6   7  -6    2.77    0.62
  -6  -7  -6    2.23    0.60
   5   8  -6   45.20    1.64
   5  -8  -6   45.02    1.60
   4   8  -6    1.28    0.54
   4  -8  -6    0.81    0.50
   3   8  -6   18.12    1.14
   3  -8  -6   16.98    1.09
   2   8  -6    0.74    0.49
   2  -8  -6    0.13    0.44
   1   8  -6    0.09    0.45
   1  -8  -6    0.03    0.45
   0   8  -6   24.71    1.35
   0  -8  -6   23.51    1.25
  -1   8  -6   20.32    1.25
  -1  -8  -6   20.20    1.22
  -2   8  -6   70.56    2.21
  -2  -8  -6   72.08    2.10
  -3   8  -6   17.01    1.19
  -3  -8  -6   17.19    1.15
   4   0  -7   -0.01    0.14
   3   0  -7    5.10    0.39
   2   0  -7    0.01    0.18
   1   0  -7  466.72    3.67
   0   0  -7   -0.01    0.20
  -1   0  -7   30.48    0.88
  -2   0  -7    0.01    0.23
  -3   0  -7    0.80    0.30
  -4   0  -7    0.14    0.27
  -5   0  -7   13.05    0.73
  -6   0  -7   -0.02    0.28
  -7   0  -7    2.72    0.46
  -8   0  -7   -0.02    0.31
  -9   0  -7    3.21    0.52
 -10   0  -7   -0.16    0.37
 -11   0  -7   12.83    0.95
   4   1  -7  138.02    1.50
   4  -1  -7  136.43    1.46
   3   1  -7  114.98    1.44
   3  -1  -7  109.79    1.37
   2   1  -7  137.52    1.64
   2  -1  -7  139.50    1.67
   1   1  -7   45.71    0.96
   1  -1  -7   45.88    0.98
   0   1  -7    3.54    0.41
   0  -1  -7    4.03    0.42
  -1   1  -7    7.73    0.52
  -1  -1  -7    7.08    0.53
  -2   1  -7    2.34    0.35
  -2  -1  -7    1.97    0.36
  -3   1  -7   36.54    1.03
  -3  -1  -7   36.42    1.05
  -4   1  -7   13.67    0.72
  -4  -1  -7   14.50    0.77
  -5   1  -7    8.60    0.64
  -5  -1  -7    8.74    0.67
  -6   1  -7    5.96    0.60
  -6  -1  -7    6.36    0.64
  -7   1  -7    4.21    0.52
  -7  -1  -7    4.40    0.54
  -8   1  -7   16.12    0.90
  -8  -1  -7   16.35    0.90
  -9   1  -7    1.26    0.43
  -9  -1  -7    1.19    0.43
 -10   1  -7    0.33    0.38
 -10  -1  -7    0.11    0.38
 -11   1  -7    3.86    0.61
 -11  -1  -7    4.87    0.65
   5  -2  -7   22.72    0.61
   4   2  -7    4.06    0.38
   4  -2  -7    4.50    0.39
   3   2  -7    3.68    0.37
   3  -2  -7    4.33    0.39
   2   2  -7   84.39    1.36
   2  -2  -7   85.05    1.35
   1   2  -7   11.61    0.56
   1  -2  -7   11.39    0.57
   0   2  -7    5.66    0.47
   0  -2  -7    6.09    0.50
  -1   2  -7    1.03    0.28
  -1  -2  -7    1.06    0.32
  -2   2  -7   31.27    0.97
  -2  -2  -7   31.56    0.99
  -3   2  -7    0.25    0.25
  -3  -2  -7    0.17    0.30
  -4   2  -7   31.79    1.04
  -4  -2  -7   31.80    1.06
  -5   2  -7   26.01    0.99
  -5  -2  -7   26.21    1.02
  -6   2  -7    4.13    0.51
  -6  -2  -7    4.64    0.56
  -7   2  -7    0.69    0.36
  -7  -2  -7    0.98    0.39
  -8   2  -7    0.38    0.37
  -8  -2  -7   -0.05    0.38
  -9   2  -7    2.59    0.53
  -9  -2  -7    3.64    0.58
 -10   2  -7    8.01    0.80
 -10  -2  -7    8.48    0.82
 -11   2  -7    0.15    0.42
 -11  -2  -7    0.38    0.45
   5   3  -7  275.72    2.72
   5  -3  -7  269.89    2.58
   4   3  -7  185.15    2.20
   4  -3  -7  189.09    2.12
   3   3  -7    1.99    0.33
   3  -3  -7    2.02    0.34
   2   3  -7    0.00    0.20
   2  -3  -7    0.18    0.23
   1   3  -7   14.41    0.68
   1  -3  -7   15.33    0.69
   0   3  -7    7.31    0.55
   0  -3  -7    7.90    0.59
  -1   3  -7    7.28    0.57
  -1  -3  -7    6.73    0.56
  -2   3  -7   30.83    1.02
  -2  -3  -7   29.64    1.00
  -3   3  -7   13.50    0.76
  -3  -3  -7   13.06    0.75
  -4   3  -7    4.39    0.52
  -4  -3  -7    3.90    0.52
  -5   3  -7    0.30    0.30
  -5  -3  -7    0.32    0.35
  -6   3  -7    0.28    0.32
  -6  -3  -7    0.26    0.35
  -7   3  -7    0.05    0.31
  -7  -3  -7    0.33    0.38
  -8   3  -7    1.32    0.43
  -8  -3  -7    1.61    0.50
  -9   3  -7    0.46    0.38
  -9  -3  -7    0.37    0.43
 -10   3  -7    0.78    0.44
 -10  -3  -7    1.44    0.54
 -11   3  -7    3.10    0.62
 -11  -3  -7    3.47    0.66
   5   4  -7    2.11    0.37
   5  -4  -7    2.03    0.36
   4   4  -7    0.56    0.29
   4  -4  -7    0.47    0.28
   3   4  -7    5.42    0.50
   3  -4  -7    5.24    0.49
   2   4  -7   26.70    0.96
   2  -4  -7   24.76    0.88
   1   4  -7   40.42    1.17
   1  -4  -7   37.54    1.08
   0  -4  -7   47.27    1.25
  -1   4  -7   33.73    1.13
  -1  -4  -7   32.99    1.08
  -2   4  -7    4.41    0.55
  -2  -4  -7    4.43    0.53
  -3   4  -7   32.69    1.17
  -3  -4  -7   32.41    1.16
  -4   4  -7    2.51    0.45
  -4  -4  -7    1.90    0.45
  -5   4  -7   -0.29    0.30
  -5  -4  -7    0.19    0.35
  -6   4  -7    2.45    0.50
  -6  -4  -7    2.12    0.51
  -7   4  -7    1.02    0.44
  -7  -4  -7    1.75    0.49
  -8   4  -7   10.42    0.86
  -8  -4  -7   11.61    0.89
  -9   4  -7    0.68    0.43
  -9  -4  -7    0.70    0.48
 -10   4  -7   16.16    1.05
 -10  -4  -7   16.89    1.12
   5   5  -7    0.76    0.39
   5  -5  -7    0.73    0.35
   4   5  -7   32.29    1.12
   4  -5  -7   32.41    1.07
   3   5  -7    0.19    0.31
   3  -5  -7    0.07    0.31
   2   5  -7    0.06    0.27
   2  -5  -7   -0.17    0.30
   1   5  -7    3.38    0.49
   1  -5  -7    3.07    0.48
   0   5  -7   11.43    0.79
   0  -5  -7   11.52    0.75
  -1   5  -7   12.24    0.81
  -1  -5  -7   11.45    0.76
  -2   5  -7    9.40    0.75
  -2  -5  -7    8.24    0.72
  -3   5  -7    1.47    0.43
  -3  -5  -7    1.65    0.44
  -4   5  -7   26.30    1.18
  -4  -5  -7   24.98    1.11
  -5   5  -7   10.77    0.85
  -5  -5  -7    9.72    0.80
  -6   5  -7    1.27    0.45
  -6  -5  -7    1.41    0.51
  -7   5  -7   -0.04    0.35
  -7  -5  -7   -0.24    0.42
  -8   5  -7    2.29    0.54
  -8  -5  -7    2.73    0.62
  -9   5  -7    4.12    0.69
  -9  -5  -7    5.02    0.75
   5  -6  -7    4.14    0.55
   4   6  -7   41.52    1.39
   4  -6  -7   40.52    1.29
   3   6  -7   35.72    1.30
   3  -6  -7   35.34    1.23
   2   6  -7   10.87    0.80
   2  -6  -7   10.60    0.78
   1   6  -7    9.10    0.77
   1  -6  -7    7.73    0.71
   0   6  -7    6.63    0.70
   0  -6  -7    6.95    0.69
  -1   6  -7    0.13    0.35
  -1  -6  -7    0.42    0.40
  -2   6  -7   10.18    0.82
  -2  -6  -7   10.78    0.82
  -3   6  -7    1.66    0.50
  -3  -6  -7    1.14    0.47
  -4   6  -7    0.94    0.44
  -4  -6  -7    0.70    0.43
  -5   6  -7    0.95    0.45
  -5  -6  -7    1.25    0.50
  -6   6  -7   40.45    1.59
  -7   6  -7    0.38    0.44
  -7  -6  -7    0.20    0.49
   5  -7  -7   32.17    1.27
   4   7  -7    5.92    0.71
   4  -7  -7    4.93    0.66
   3   7  -7   14.91    1.03
   3  -7  -7   14.49    0.93
   2   7  -7    2.33    0.54
   2  -7  -7    1.71    0.52
   1   7  -7   -0.16    0.39
   1  -7  -7   -0.30    0.40
   0   7  -7    0.06    0.41
   0  -7  -7   -0.09    0.42
  -1   7  -7   33.14    1.43
  -1  -7  -7   32.99    1.38
  -2   7  -7   14.90    1.05
  -2  -7  -7   14.56    1.00
  -3   7  -7   21.91    1.25
  -3  -7  -7   21.33    1.18
  -4   7  -7   14.69    1.07
  -4  -7  -7   15.00    1.04
  -5   7  -7    0.77    0.47
  -5  -7  -7    0.77    0.52
   3   8  -7    0.04    0.47
   3  -8  -7   -0.05    0.46
   2   8  -7    1.28    0.56
   2  -8  -7    1.13    0.56
   1   8  -7   13.18    1.06
   1  -8  -7   13.69    1.05
   0   8  -7    6.77    0.84
   0  -8  -7    6.16    0.81
  -1   8  -7   23.28    1.34
  -1  -8  -7   23.19    1.29
   4   0  -8    0.68    0.20
   3   0  -8    0.18    0.19
   2   0  -8  883.63    6.00
   1   0  -8    0.04    0.23
   0   0  -8  451.77    3.87
  -1   0  -8    0.07    0.26
  -2   0  -8   10.64    0.65
  -3   0  -8   -0.06    0.27
  -4   0  -8   68.77    1.52
  -5   0  -8    0.01    0.29
  -6   0  -8   98.07    1.97
  -7   0  -8    0.30    0.34
  -8   0  -8   25.21    1.12
  -9   0  -8    0.03    0.36
 -10   0  -8    0.32    0.43
 -11   0  -8    0.02    0.42
   4   1  -8    0.16    0.19
   4  -1  -8   -0.12    0.20
   3   1  -8   57.35    1.06
   3  -1  -8   56.47    1.07
   2   1  -8   62.86    1.16
   2  -1  -8   60.65    1.14
   1   1  -8   -0.06    0.20
   1  -1  -8    0.08    0.24
   0   1  -8  324.10    3.15
   0  -1  -8  320.82    3.15
  -1   1  -8  300.75    3.10
  -1  -1  -8  300.23    3.13
  -2   1  -8   31.34    1.00
  -2  -1  -8   31.33    1.03
  -3   1  -8   42.61    1.18
  -3  -1  -8   41.42    1.20
  -4   1  -8    6.73    0.61
  -4  -1  -8    6.06    0.61
  -5   1  -8    9.79    0.71
  -5  -1  -8   10.73    0.75
  -6   1  -8    7.53    0.67
  -6  -1  -8    7.72    0.68
  -7   1  -8   28.54    1.15
  -7  -1  -8   28.94    1.17
  -8   1  -8    3.85    0.57
  -8  -1  -8    3.49    0.57
  -9   1  -8    7.61    0.77
  -9  -1  -8    7.81    0.78
 -10   1  -8    2.59    0.56
 -10  -1  -8    2.44    0.57
 -11   1  -8   13.99    1.01
 -11  -1  -8   12.76    0.97
   4   2  -8  236.56    2.41
   4  -2  -8  237.43    2.36
   3   2  -8  490.86    4.06
   3  -2  -8  486.58    3.95
   2   2  -8   32.06    0.90
   2  -2  -8   32.92    0.91
   1   2  -8    0.39    0.26
   1  -2  -8    0.79    0.30
   0   2  -8    3.90    0.45
   0  -2  -8    2.11    0.39
  -1   2  -8    5.28    0.54
  -1  -2  -8    5.13    0.56
  -2   2  -8   16.93    0.80
  -2  -2  -8   17.02    0.83
  -3   2  -8   20.71    0.89
  -3  -2  -8   20.44    0.90
  -4   2  -8    7.67    0.63
  -4  -2  -8    7.98    0.67
  -5   2  -8    4.45    0.55
  -5  -2  -8    5.01    0.59
  -6   2  -8    1.03    0.38
  -6  -2  -8    0.63    0.40
  -7   2  -8    2.13    0.46
  -7  -2  -8    2.62    0.54
  -8   2  -8   20.63    1.04
  -8  -2  -8   21.04    1.08
  -9   2  -8    2.34    0.52
  -9  -2  -8    2.58    0.56
 -10   2  -8   12.00    0.99
 -10  -2  -8   11.68    0.92
   4   3  -8    6.75    0.52
   4  -3  -8    6.65    0.52
   3   3  -8    5.25    0.49
   3  -3  -8    5.37    0.49
   2   3  -8    0.16    0.24
   2  -3  -8   -0.10    0.25
   1   3  -8    0.27    0.25
   1  -3  -8   -0.05    0.28
   0   3  -8   89.43    1.70
  -1   3  -8   63.98    1.48
  -1  -3  -8   65.06    1.46
  -2   3  -8    2.33    0.43
  -2  -3  -8    2.05    0.44
  -3   3  -8  163.74    2.57
  -4   3  -8   39.70    1.29
  -5   3  -8   34.37    1.24
  -5  -3  -8   32.43    1.22
  -6   3  -8   18.77    0.98
  -6  -3  -8   19.77    1.01
  -7   3  -8    4.51    0.60
  -7  -3  -8    4.49    0.65
  -8   3  -8   43.33    1.53
  -8  -3  -8   44.30    1.53
  -9   3  -8    6.01    0.73
  -9  -3  -8    6.97    0.80
 -10   3  -8   23.11    1.24
 -10  -3  -8   24.70    1.28
   4   4  -8    4.44    0.50
   4  -4  -8    5.62    0.57
   3   4  -8    4.87    0.51
   3  -4  -8    4.86    0.55
   2   4  -8  101.08    1.87
   2  -4  -8   98.09    1.77
   1   4  -8   11.90    0.73
   1  -4  -8   12.26    0.72
   0   4  -8    1.10    0.37
   0  -4  -8    0.89    0.36
  -1   4  -8    0.01    0.28
  -1  -4  -8    0.31    0.34
  -2   4  -8    0.01    0.31
  -2  -4  -8    0.09    0.33
  -3   4  -8   -0.28    0.28
  -3  -4  -8    0.09    0.35
  -4   4  -8    7.16    0.71
  -4  -4  -8    7.35    0.74
  -5   4  -8   86.59    2.07
  -5  -4  -8   88.58    2.03
  -6   4  -8   14.82    0.95
  -6  -4  -8   14.25    0.96
  -7   4  -8   40.26    1.50
  -7  -4  -8   38.79    1.45
  -8   4  -8    1.01    0.49
  -8  -4  -8    1.46    0.55
  -9   4  -8    0.00    0.44
  -9  -4  -8    0.26    0.49
   4   5  -8    5.56    0.62
   4  -5  -8    5.01    0.55
   3   5  -8   11.75    0.77
   3  -5  -8   11.61    0.73
   2   5  -8   31.60    1.17
   2  -5  -8   31.73    1.11
   1   5  -8   32.73    1.21
   1  -5  -8   32.55    1.18
   0   5  -8   18.99    0.98
   0  -5  -8   18.80    0.94
  -1   5  -8   10.93    0.81
  -1  -5  -8   11.47    0.79
  -2   5  -8    0.46    0.37
  -2  -5  -8    0.29    0.37
  -3   5  -8    1.88    0.49
  -3  -5  -8    2.10    0.50
  -4   5  -8   -0.19    0.35
  -4  -5  -8   -0.12    0.38
  -5   5  -8    0.17    0.37
  -5  -5  -8   -0.07    0.43
  -6   5  -8   17.41    1.06
  -6  -5  -8   17.60    1.09
  -7   5  -8    5.07    0.70
  -7  -5  -8    4.74    0.73
  -8   5  -8    7.74    0.82
  -8  -5  -8    8.20    0.89
   4   6  -8   18.87    1.01
   4  -6  -8   17.51    0.92
   3   6  -8   29.64    1.23
   3  -6  -8   27.22    1.12
   2   6  -8    3.84    0.61
   2  -6  -8    3.93    0.58
   1   6  -8    0.00    0.37
   1  -6  -8    0.09    0.39
   0   6  -8    0.33    0.38
   0  -6  -8    0.28    0.40
  -1   6  -8   22.23    1.14
  -1  -6  -8   23.28    1.12
  -2   6  -8   17.79    1.06
  -2  -6  -8   17.13    1.01
  -3   6  -8   37.71    1.50
  -3  -6  -8   37.07    1.42
  -4   6  -8   66.86    2.00
  -4  -6  -8   65.35    1.91
  -5   6  -8   19.22    1.17
  -5  -6  -8   19.62    1.14
  -6   6  -8    0.12    0.43
  -6  -6  -8    0.08    0.47
   4   7  -8    1.12    0.50
   4  -7  -8    1.01    0.50
   3   7  -8   20.68    1.16
   3  -7  -8   20.57    1.10
   2   7  -8    4.36    0.68
   2  -7  -8    3.30    0.63
   1   7  -8    4.10    0.67
   1  -7  -8    3.87    0.66
   0   7  -8    0.46    0.45
   0  -7  -8    0.33    0.44
  -1   7  -8   11.98    0.98
  -1  -7  -8   11.87    0.95
  -2   7  -8   29.54    1.44
  -2  -7  -8   30.46    1.38
  -3   7  -8    0.54    0.46
  -3  -7  -8    0.50    0.50
  -4   7  -8   -0.05    0.45
  -4  -7  -8   -0.08    0.47
   3   0  -9    0.16    0.23
   2   0  -9   -0.23    0.23
   1   0  -9  272.58    2.86
   0   0  -9   -0.08    0.25
  -1   0  -9  149.81    2.17
  -2   0  -9   -0.19    0.27
  -3   0  -9   72.64    1.60
  -4   0  -9   -0.10    0.28
  -5   0  -9   27.03    1.09
  -6   0  -9   -0.16    0.31
  -7   0  -9    1.11    0.43
  -8   0  -9   -0.08    0.33
  -9   0  -9    1.32    0.51
 -10   0  -9   -0.09    0.41
   3   1  -9  218.84    2.36
   3  -1  -9  223.63    2.37
   2   1  -9  111.84    1.69
   2  -1  -9  115.59    1.71
   1   1  -9  373.65    3.51
   1  -1  -9  370.17    3.49
   0   1  -9  143.95    2.06
   0  -1  -9  141.87    2.07
  -1   1  -9   32.17    1.03
  -2   1  -9   54.10    1.34
  -2  -1  -9   55.13    1.38
  -3   1  -9    0.90    0.35
  -3  -1  -9    0.95    0.39
  -4   1  -9   24.82    1.01
  -5   1  -9   51.00    1.45
  -5  -1  -9   49.22    1.43
  -6   1  -9    5.03    0.60
  -6  -1  -9    5.24    0.62
  -7   1  -9   21.74    1.07
  -7  -1  -9   21.62    1.06
  -8   1  -9   16.09    0.98
  -8  -1  -9   15.12    0.98
  -9   1  -9   11.34    0.93
  -9  -1  -9   11.32    0.92
 -10   1  -9    1.06    0.49
 -10  -1  -9    0.79    0.47
   4  -2  -9   82.61    1.37
   3   2  -9   24.76    0.81
   3  -2  -9   24.62    0.81
   2   2  -9    1.53    0.33
   2  -2  -9    1.14    0.34
   1   2  -9    3.07    0.41
   1  -2  -9    3.93    0.44
   0   2  -9   21.54    0.91
   0  -2  -9   20.56    0.86
  -2   2  -9  415.63    4.23
  -4   2  -9   54.89    1.49
  -4  -2  -9   56.26    1.54
  -5   2  -9    0.27    0.33
  -5  -2  -9    0.34    0.39
  -6   2  -9   13.35    0.86
  -6  -2  -9   12.31    0.88
  -7   2  -9    2.60    0.54
  -7  -2  -9    3.36    0.60
  -8   2  -9    9.18    0.82
  -8  -2  -9    8.36    0.81
  -9   2  -9   39.87    1.54
  -9  -2  -9   39.57    1.51
   4  -3  -9  131.67    1.90
   3   3  -9   15.53    0.75
   3  -3  -9   14.56    0.71
   2   3  -9    3.67    0.45
   2  -3  -9    3.58    0.46
   1   3  -9   66.88    1.51
   1  -3  -9   68.53    1.51
   0   3  -9    8.07    0.63
   0  -3  -9    8.12    0.67
  -1   3  -9   33.40    1.14
  -1  -3  -9   33.12    1.13
  -2   3  -9    0.02    0.31
  -2  -3  -9   -0.03    0.34
  -3   3  -9   22.76    1.03
  -3  -3  -9   23.41    1.05
  -4   3  -9    9.16    0.75
  -4  -3  -9    8.54    0.78
  -5   3  -9    0.80    0.40
  -5  -3  -9    1.48    0.49
  -6   3  -9   10.56    0.82
  -6  -3  -9   11.13    0.89
  -7   3  -9   57.02    1.76
  -7  -3  -9   56.99    1.75
  -8   3  -9    8.47    0.82
  -8  -3  -9    8.92    0.95
  -9   3  -9   42.90    1.65
  -9  -3  -9   42.47    1.62
   4  -4  -9    9.86    0.68
   3   4  -9   16.98    0.83
   3  -4  -9   16.83    0.84
   2   4  -9    3.69    0.51
   2  -4  -9    3.47    0.48
   1   4  -9   -0.16    0.29
   1  -4  -9    0.29    0.34
   0   4  -9   27.16    1.10
   0  -4  -9   24.32    1.01
  -1   4  -9   26.25    1.12
  -1  -4  -9   26.25    1.08
  -2   4  -9    3.69    0.54
  -2  -4  -9    4.07    0.58
  -3   4  -9   73.32    1.91
  -3  -4  -9   70.00    1.80
  -4   4  -9   53.47    1.66
  -4  -4  -9   55.99    1.67
  -5   4  -9  121.66    2.56
  -5  -4  -9  130.86    2.57
  -6   4  -9   40.94    1.54
  -6  -4  -9   41.77    1.56
  -7   4  -9   26.61    1.31
  -7  -4  -9   27.05    1.31
  -8   4  -9    0.50    0.44
  -8  -4  -9   -0.44    0.45
   4  -5  -9    2.59    0.48
   3   5  -9    0.57    0.36
   3  -5  -9    0.09    0.36
   2   5  -9    1.50    0.42
   2  -5  -9    1.93    0.44
   1   5  -9   19.02    1.01
   1  -5  -9   18.16    0.96
   0   5  -9   81.59    1.96
   0  -5  -9   80.01    1.87
  -1   5  -9    6.34    0.71
  -1  -5  -9    5.58    0.66
  -2   5  -9   21.76    1.11
  -2  -5  -9   21.82    1.07
  -3   5  -9   19.85    1.12
  -3  -5  -9   19.97    1.09
  -4   5  -9   24.34    1.21
  -4  -5  -9   23.91    1.22
  -5   5  -9   11.60    0.96
  -5  -5  -9   10.44    0.93
  -6   5  -9   95.58    2.44
  -6  -5  -9   96.17    2.39
  -7   5  -9   12.46    1.03
  -7  -5  -9   12.74    1.05
   3   6  -9    4.47    0.62
   3  -6  -9    3.94    0.59
   2   6  -9   13.92    0.94
   2  -6  -9   14.17    0.93
   1   6  -9    5.23    0.66
   1  -6  -9    4.97    0.66
   0   6  -9    0.68    0.43
   0  -6  -9    1.06    0.45
  -1   6  -9    1.25    0.49
  -1  -6  -9    1.17    0.52
  -2   6  -9    3.13    0.62
  -2  -6  -9    3.65    0.64
  -3   6  -9   32.59    1.44
  -3  -6  -9   31.49    1.37
  -4   6  -9    4.09    0.70
  -4  -6  -9    4.50    0.72
  -5   6  -9    0.05    0.43
  -5  -6  -9    0.11    0.49
   3   7  -9    6.22    0.77
   3  -7  -9    5.10    0.71
   2   7  -9    1.42    0.55
   2  -7  -9    0.96    0.53
   1   7  -9   12.74    1.02
   1  -7  -9   11.71    0.95
   0   7  -9    1.79    0.58
   0  -7  -9    2.69    0.61
  -1   7  -9    0.91    0.53
  -1  -7  -9   -0.05    0.46
  -2   7  -9   15.05    1.11
  -2  -7  -9   16.21    1.09
   3   0 -10   -0.02    0.23
   2   0 -10   64.27    1.30
   1   0 -10    0.27    0.27
   0   0 -10  115.56    1.93
  -1   0 -10    0.11    0.32
  -2   0 -10   32.53    1.12
  -3   0 -10    0.02    0.32
  -4   0 -10    8.94    0.74
  -5   0 -10   -0.02    0.34
  -6   0 -10   81.72    1.98
  -7   0 -10   -0.04    0.36
  -8   0 -10    4.83    0.68
  -9   0 -10    0.33    0.43
   3   1 -10    9.55    0.60
   3  -1 -10    8.83    0.59
   2   1 -10    3.41    0.40
   2  -1 -10    3.16    0.41
   1   1 -10   -0.14    0.26
   1  -1 -10    0.31    0.29
   0   1 -10   40.50    1.17
   0  -1 -10   41.14    1.16
  -1   1 -10   36.78    1.16
  -1  -1 -10   36.28    1.14
  -2   1 -10   30.32    1.10
  -2  -1 -10   29.91    1.09
  -3   1 -10   11.49    0.78
  -3  -1 -10   10.80    0.78
  -4   1 -10   13.33    0.85
  -4  -1 -10   12.22    0.84
  -5   1 -10   12.23    0.84
  -5  -1 -10   11.31    0.84
  -6   1 -10    1.07    0.43
  -6  -1 -10    1.85    0.50
  -7   1 -10    3.98    0.61
  -7  -1 -10    3.39    0.61
  -8   1 -10   17.52    1.07
  -8  -1 -10   16.96    1.06
  -9   1 -10    0.11    0.42
  -9  -1 -10    0.81    0.48
   3   2 -10    1.67    0.35
   3  -2 -10    1.85    0.37
   2   2 -10    8.63    0.61
   2  -2 -10    9.49    0.65
   1   2 -10   10.31    0.68
   1  -2 -10    9.66    0.69
   0   2 -10    1.10    0.35
   0  -2 -10    0.81    0.38
  -1   2 -10   42.53    1.28
  -1  -2 -10   43.31    1.29
  -2   2 -10   42.94    1.33
  -2  -2 -10   41.68    1.31
  -3   2 -10    5.06    0.62
  -3  -2 -10    4.93    0.64
  -4   2 -10   14.92    0.89
  -4  -2 -10   12.83    0.92
  -5   2 -10   22.17    1.07
  -5  -2 -10   23.27    1.12
  -6   2 -10    0.07    0.37
  -6  -2 -10    0.43    0.41
  -7   2 -10    0.85    0.43
  -7  -2 -10    1.17    0.50
  -8   2 -10   29.41    1.35
  -8  -2 -10   26.90    1.30
   3   3 -10   22.22    0.90
   3  -3 -10   21.92    0.91
   2   3 -10   28.83    1.04
   2  -3 -10   27.74    1.04
   1   3 -10    1.57    0.37
   1  -3 -10    1.53    0.43
   0   3 -10    0.26    0.31
   0  -3 -10    0.58    0.36
  -1   3 -10    8.49    0.71
  -1  -3 -10    8.68    0.72
  -2   3 -10    3.09    0.51
  -2  -3 -10    2.60    0.51
  -3   3 -10  121.83    2.40
  -3  -3 -10  121.07    2.36
  -4   3 -10   95.02    2.17
  -4  -3 -10   93.61    2.14
  -5   3 -10   16.01    0.98
  -5  -3 -10   16.64    1.04
  -6   3 -10    5.22    0.67
  -6  -3 -10    5.51    0.73
  -7   3 -10    7.81    0.80
  -7  -3 -10    6.96    0.85
  -8   3 -10    5.81    0.75
  -8  -3 -10    4.59    0.74
   3   4 -10   17.59    0.90
   3  -4 -10   16.83    0.85
   2   4 -10    4.55    0.56
   2  -4 -10    4.52    0.57
   1   4 -10   34.20    1.25
   0   4 -10    0.55    0.37
   0  -4 -10    0.22    0.40
  -1   4 -10    2.12    0.47
  -1  -4 -10    1.53    0.48
  -2   4 -10    8.12    0.75
  -2  -4 -10    8.45    0.78
  -3   4 -10    6.97    0.73
  -3  -4 -10    6.42    0.79
  -4   4 -10    4.00    0.62
  -4  -4 -10    2.91    0.61
  -5   4 -10    6.92    0.77
  -5  -4 -10    6.43    0.80
  -6   4 -10    0.26    0.42
  -6  -4 -10    0.06    0.50
  -7   4 -10   19.91    1.20
  -7  -4 -10   18.79    1.21
   3   5 -10    0.16    0.36
   3  -5 -10    0.01    0.40
   2   5 -10    6.79    0.73
   2  -5 -10    6.74    0.70
   1   5 -10   10.50    0.84
   1  -5 -10    9.58    0.81
   0   5 -10    0.29    0.37
   0  -5 -10   -0.17    0.38
  -1   5 -10    5.78    0.69
  -1  -5 -10    5.66    0.69
  -2   5 -10    1.50    0.51
  -2  -5 -10    2.14    0.58
  -3   5 -10    0.20    0.41
  -3  -5 -10    0.20    0.46
  -4   5 -10    7.78    0.86
  -4  -5 -10    6.98    0.85
  -5   5 -10   64.23    2.04
  -5  -5 -10   63.54    2.01
   3  -6 -10    5.93    0.71
   2   6 -10   11.48    0.92
   2  -6 -10    9.92    0.86
   1   6 -10    2.11    0.55
   1  -6 -10    2.36    0.57
   0   6 -10   29.08    1.35
   0  -6 -10   28.13    1.30
  -1   6 -10   12.83    1.01
  -1  -6 -10   14.25    1.00
  -2   6 -10   24.08    1.29
  -2  -6 -10   23.97    1.24
  -3   6 -10    8.58    0.91
  -3  -6 -10    8.04    0.88
   2   0 -11    0.09    0.28
   1   0 -11   42.51    1.20
   0   0 -11    0.20    0.31
  -1   0 -11    0.58    0.34
  -2   0 -11   -0.12    0.31
  -3   0 -11    0.65    0.38
  -4   0 -11    0.23    0.35
  -5   0 -11    2.45    0.51
  -6   0 -11   -0.05    0.38
  -7   0 -11    0.02    0.40
  -8   0 -11    0.30    0.44
   2   1 -11    5.45    0.58
   2  -1 -11    4.85    0.57
   1   1 -11    8.36    0.68
   1  -1 -11    8.12    0.67
   0   1 -11    7.54    0.66
   0  -1 -11    7.12    0.65
  -1   1 -11    0.93    0.36
  -1  -1 -11    0.65    0.37
  -2   1 -11    0.12    0.32
  -2  -1 -11    0.33    0.36
  -3   1 -11    3.26    0.53
  -3  -1 -11    3.87    0.57
  -4   1 -11   12.88    0.87
  -4  -1 -11   11.89    0.85
  -5   1 -11    2.25    0.51
  -5  -1 -11    2.15    0.51
  -6   1 -11    1.93    0.50
  -6  -1 -11    1.54    0.51
  -7   1 -11    6.72    0.77
  -7  -1 -11    6.42    0.77
  -8   1 -11   12.85    0.98
  -8  -1 -11   12.70    0.98
   2   2 -11    0.32    0.30
   2  -2 -11    0.40    0.34
   1   2 -11   30.42    1.09
   1  -2 -11   30.50    1.11
   0   2 -11    2.73    0.47
   0  -2 -11    2.96    0.53
  -1   2 -11    1.75    0.43
  -1  -2 -11    2.06    0.48
  -2   2 -11    4.72    0.59
  -2  -2 -11    3.99    0.59
  -3   2 -11    4.64    0.59
  -3  -2 -11    3.93    0.60
  -4   2 -11   18.07    1.04
  -4  -2 -11   18.99    1.06
  -5   2 -11    7.18    0.73
  -5  -2 -11    7.85    0.81
  -6   2 -11    0.13    0.37
  -6  -2 -11    0.01    0.43
  -7   2 -11    3.78    0.64
  -7  -2 -11    3.40    0.64
   2   3 -11    1.47    0.41
   2  -3 -11    1.73    0.44
   1   3 -11   14.62    0.83
   1  -3 -11   15.24    0.87
   0   3 -11    6.33    0.66
   0  -3 -11    5.56    0.66
  -1   3 -11    3.72    0.56
  -1  -3 -11    4.17    0.61
  -2   3 -11    0.47    0.37
  -2  -3 -11   -0.09    0.39
  -3   3 -11   10.56    0.84
  -3  -3 -11   11.31    0.91
  -4   3 -11   13.80    0.95
  -4  -3 -11   15.83    1.02
  -5   3 -11   20.14    1.13
  -5  -3 -11   21.78    1.27
  -6   3 -11    0.74    0.47
  -6  -3 -11    0.07    0.48
   2   4 -11    9.18    0.76
   2  -4 -11    8.55    0.76
   1   4 -11    0.12    0.37
   1  -4 -11    0.31    0.41
   0   4 -11    0.65    0.42
   0  -4 -11    0.55    0.45
  -1   4 -11    0.11    0.37
  -1  -4 -11    0.20    0.43
  -2   4 -11    0.16    0.38
  -2  -4 -11   -0.56    0.41
  -3   4 -11    0.26    0.42
  -3  -4 -11    0.04    0.47
  -4   4 -11    4.85    0.70
  -4  -4 -11    4.16    0.71
  -5   4 -11   13.80    1.02
  -5  -4 -11   14.09    1.07
   2   5 -11    6.63    0.75
   2  -5 -11    6.28    0.76
   1   5 -11   13.51    0.96
   1  -5 -11   12.56    0.93
   0   5 -11   25.74    1.25
   0  -5 -11   27.26    1.28
  -1   5 -11   69.93    2.01
  -1  -5 -11   70.14    1.95
  -2   5 -11   50.15    1.78
  -2  -5 -11   48.20    1.70
  -3   5 -11    6.57    0.81
  -3  -5 -11    6.68    0.87
  -4   5 -11    9.07    0.97
  -4  -5 -11    8.03    0.95
   2  -6 -11   11.80    0.94
   1   6 -11   31.09    1.41
   1  -6 -11   30.13    1.34
   0   6 -11   30.44    1.43
   0  -6 -11   31.92    1.41
   2   0 -12   16.36    0.85
   1   0 -12    0.18    0.34
   0   0 -12   -0.18    0.32
  -1   0 -12    0.19    0.36
  -2   0 -12   42.84    1.40
  -3   0 -12   -0.09    0.37
  -4   0 -12   28.68    1.25
  -5   0 -12    0.17    0.40
  -6   0 -12   -0.01    0.41
   2   1 -12    0.78    0.33
   2  -1 -12    0.68    0.36
   1   1 -12   27.96    1.07
   1  -1 -12   27.88    1.05
   0   1 -12   15.96    0.89
   0  -1 -12   14.99    0.88
  -1   1 -12   47.51    1.45
  -1  -1 -12   47.42    1.43
  -2   1 -12   16.79    0.99
  -2  -1 -12   17.70    0.97
  -3   1 -12    6.48    0.74
  -3  -1 -12    6.66    0.76
  -4   1 -12    0.51    0.41
  -4  -1 -12    0.19    0.42
  -5   1 -12    6.33    0.76
  -5  -1 -12    6.60    0.78
  -6   1 -12    9.29    0.88
  -6  -1 -12    9.23    0.88
   2  -2 -12   22.88    1.00
   1   2 -12    2.59    0.47
   1  -2 -12    1.77    0.47
   0   2 -12    7.81    0.74
   0  -2 -12    7.37    0.75
  -1   2 -12   41.20    1.40
  -1  -2 -12   40.68    1.39
  -2   2 -12    0.66    0.40
  -2  -2 -12    1.25    0.48
  -3   2 -12    3.26    0.58
  -3  -2 -12    4.05    0.63
  -4   2 -12   13.39    0.96
  -4  -2 -12   12.79    0.98
  -5   2 -12   93.29    2.32
  -5  -2 -12   93.61    2.32
  -6   2 -12   24.41    1.27
  -6  -2 -12   25.98    1.31
   2  -3 -12   86.31    1.88
   1   3 -12    1.75    0.45
   1  -3 -12    1.29    0.47
   0   3 -12   24.10    1.10
   0  -3 -12   25.83    1.16
  -1   3 -12    8.93    0.80
  -1  -3 -12    9.70    0.86
  -2   3 -12    0.64    0.43
  -2  -3 -12    0.53    0.50
  -3   3 -12   -0.33    0.39
  -3  -3 -12    0.25    0.55
  -4   3 -12    2.07    0.55
  -4  -3 -12    1.92    0.59
  -5   3 -12    7.34    0.84
  -5  -3 -12    8.55    0.91
   1   4 -12    5.01    0.69
   1  -4 -12    4.93    0.69
   0   4 -12    2.42    0.57
   0  -4 -12    1.60    0.55
  -1   4 -12   45.73    1.63
  -1  -4 -12   44.28    1.57
  -2   4 -12  116.55    2.60
  -2  -4 -12  114.85    2.55
  -3   4 -12   75.48    2.17
  -3  -4 -12   78.37    2.14
   1   5 -12   35.14    1.46
   1  -5 -12   35.36    1.46
   0   5 -12   23.06    1.26
   0  -5 -12   21.53    1.22
  -1   5 -12   63.33    1.98
  -1  -5 -12   62.21    1.92
   1   0 -13    3.87    0.56
   0   0 -13    0.34    0.38
  -1   0 -13  130.30    2.47
  -2   0 -13    0.50    0.44
  -3   0 -13   94.89    2.23
  -4   0 -13    0.12    0.44
   1   1 -13    0.24    0.38
   1  -1 -13    0.54    0.40
   0   1 -13    2.43    0.49
   0  -1 -13    1.73    0.49
  -1   1 -13    0.57    0.44
  -1  -1 -13    0.75    0.44
  -2   1 -13    2.53    0.55
  -2  -1 -13    2.89    0.58
  -3   1 -13   17.31    1.08
  -3  -1 -13   18.35    1.09
  -4   1 -13   31.19    1.39
  -4  -1 -13   31.61    1.41
   1   2 -13   84.07    1.95
   1  -2 -13   87.58    1.94
   0   2 -13   12.22    0.86
   0  -2 -13   13.56    0.96
  -1   2 -13    4.72    0.68
  -1  -2 -13    5.20    0.70
  -2   2 -13    0.28    0.44
  -2  -2 -13    0.19    0.46
  -3   2 -13    0.21    0.44
  -3  -2 -13    0.94    0.49
  -4   2 -13   12.35    0.99
  -4  -2 -13   11.91    1.00
   1   3 -13   36.43    1.36
   1  -3 -13   40.34    1.44
   0   3 -13    1.99    0.52
   0  -3 -13    2.32    0.60
  -1   3 -13    3.88    0.63
  -1  -3 -13    3.40    0.66
  -2   3 -13    4.72    0.71
  -2  -3 -13    5.00    0.76
   1  -4 -13    0.16    0.51
   0   4 -13   30.75    1.39
   0  -4 -13   31.44    1.41
   0   0 -14    6.50    0.79
  -1   0 -14    0.58    0.44
  -2   0 -14    1.22    0.50
   0   1 -14   26.51    1.20
   0  -1 -14   26.50    1.18
  -1   1 -14    1.32    0.51
  -1  -1 -14    1.40    0.49
   0   2 -14    5.23    0.67
   0  -2 -14    5.76    0.74
  -1   0   0    1.45    0.09
  -2   0   0 2132.77   13.07
  -3   0   0    0.06    0.11
  -4   0   0   37.12    0.71
  -5  -1   0  260.93    2.42
  -6  -1   0  371.45    3.23
  -7  -1   0   10.04    0.56
  -8  -1   0   82.21    1.52
  -7  -2   0   31.51    0.93
  -8  -2   0   42.63    1.14
  -9  -2   0    1.60    0.38
 -10  -2   0  172.89    2.62
  -9  -3   0   -0.01    0.29
 -10  -3   0   30.00    1.15
 -11  -3   0   12.73    0.85
 -10  -4   0    5.34    0.65
 -11  -4   0    3.08    0.56
 -12  -4   0   12.46    0.97
 -10  -5   0    0.09    0.39
 -11  -5   0   92.12    2.24
 -12  -5   0   73.19    2.10
 -11  -6   0    1.23    0.59
  -4   0  -1    0.23    0.13
  -5   0  -1  401.72    3.17
  -6   0  -1   -0.01    0.16
  -6  -1   1    0.02    0.16
  -5  -1   1   91.31    1.27
  -4  -1   1   55.25    0.88
  -3  -1   1  577.53    3.89
  -6  -1  -1   81.78    1.34
  -7  -1  -1   45.43    1.06
  -8  -1  -1   64.15    1.36
  -9  -1  -1   29.44    1.00
  -9  -2   1    3.22    0.46
  -8  -2   1    8.95    0.60
  -7  -2   1    3.80    0.43
  -6  -2   1   73.43    1.27
  -8  -2  -1  103.47    1.81
  -9  -2  -1    5.08    0.57
 -10  -2  -1    4.82    0.56
 -11  -2  -1    0.20    0.38
 -10  -3   1    0.36    0.34
  -9  -3   1    0.85    0.35
  -8  -3   1   33.42    1.05
  -9  -3  -1  112.15    2.09
 -10  -3  -1    0.02    0.33
 -11  -3  -1   59.75    1.69
 -12  -3  -1   22.36    1.14
 -11  -4   1    0.14    0.40
 -10  -4   1   17.75    0.96
  -9  -4   1   14.06    0.82
 -10  -4  -1   10.54    0.82
 -11  -4  -1    0.01    0.40
 -12  -4  -1   28.53    1.33
 -13  -4  -1   51.68    1.83
 -12  -5   1    8.48    0.92
 -11  -5   1    0.56    0.48
 -10  -5   1    1.25    0.49
  -9  -5   1    4.31    0.59
 -11  -5  -1    1.87    0.57
 -12  -5  -1   20.28    1.21
 -11  -6   1   63.24    1.94
 -10  -6   1   62.92    1.86
  -5   0  -2    0.01    0.15
  -6   0  -2   40.12    0.90
  -7   0  -2    0.17    0.20
  -7  -1  -2    2.35    0.35
  -8  -1  -2    0.09    0.25
  -9  -1  -2   16.73    0.81
 -10  -1  -2   12.23    0.76
  -7  -2   2   34.03    0.94
  -6  -2   2   30.60    0.82
  -5  -2   2    7.38    0.42
  -4  -2   2    0.36    0.16
  -9  -2  -2    2.93    0.46
 -10  -2  -2   76.07    1.75
 -11  -2  -2    0.17    0.35
  -9  -3   2    7.43    0.62
  -8  -3   2   31.15    1.02
  -7  -3   2   54.37    1.22
  -6  -3   2    7.23    0.50
 -10  -3  -2   26.82    1.14
 -11  -3  -2    0.90    0.44
 -12  -3  -2   12.26    0.92
 -10  -4   2   -0.21    0.33
  -9  -4   2    2.11    0.44
  -8  -4   2    0.88    0.34
 -11  -4  -2    8.97    0.83
 -12  -4  -2    6.42    0.79
 -11  -5   2   34.78    1.40
 -10  -5   2   10.37    0.84
  -9  -5   2    7.72    0.72
  -8  -5   2    1.42    0.42
 -11  -5  -2    5.80    0.78
 -11  -6   2    6.29    0.80
 -10  -6   2    8.08    0.84
  -9  -6   2    1.22    0.45
  -6   0  -3    0.03    0.17
  -7   0  -3   12.02    0.61
  -8   0  -3   -0.08    0.23
  -2   1  -3    3.25    0.19
  -3   1  -3   86.45    0.96
  -4   1  -3   36.84    0.68
  -8  -1  -3   73.64    1.50
  -9  -1  -3    2.62    0.43
 -10  -1  -3   19.33    0.93
  -4  -2   3    7.18    0.37
  -3  -2   3   64.74    0.88
  -2  -2   3   65.29    0.78
  -9  -2  -3   -0.16    0.28
 -10  -2  -3    2.20    0.47
 -11  -2  -3    0.82    0.43
 -12  -2  -3   -0.03    0.41
  -7  -3   3   15.45    0.70
  -6  -3   3    0.54    0.25
  -5  -3   3   30.85    0.79
  -4  -3   3    0.33    0.18
 -10  -3  -3    8.34    0.75
 -11  -3  -3    1.08    0.47
 -12  -3  -3   12.62    0.97
 -13  -3  -3    1.04    0.54
  -9  -4   3  134.74    2.28
  -8  -4   3    0.36    0.31
  -7  -4   3    1.73    0.36
  -6  -4   3   24.26    0.83
 -11  -4  -3    8.33    0.84
 -12  -4  -3    8.84    0.92
 -10  -5   3    4.41    0.62
  -9  -5   3   22.28    1.03
  -8  -5   3    0.74    0.37
  -7  -5   3   18.33    0.85
 -10  -6   3    2.17    0.57
  -9  -6   3    2.36    0.53
  -8  -6   3    0.14    0.36
  -7   0  -4    0.05    0.23
  -8   0  -4  278.17    3.01
  -9   0  -4   -0.25    0.29
  -3   1  -4    0.78    0.14
  -4   1  -4  366.48    2.79
  -5   1  -4  141.00    1.58
  -8  -1  -4    6.04    0.57
  -9  -1  -4   -0.10    0.31
 -10  -1  -4   58.52    1.53
 -11  -1  -4   36.12    1.29
 -10  -2  -4    1.09    0.42
 -11  -2  -4    0.15    0.38
 -12  -2  -4   10.35    0.89
  -4  -3   4  236.15    2.19
  -3  -3   4   18.76    0.50
  -2  -3   4    0.49    0.14
 -11  -3  -4   24.29    1.19
 -12  -3  -4    8.76    0.87
  -7  -4   4    2.52    0.39
  -6  -4   4   42.91    1.06
  -5  -4   4   21.45    0.73
  -4  -4   4   32.35    0.78
 -12  -4  -4    9.90    0.94
  -8  -5   4    0.25    0.32
  -7  -5   4   24.53    0.93
  -6  -5   4    1.76    0.35
  -7   0  -5   37.20    1.00
  -8   0  -5   -0.12    0.26
  -9   0  -5   42.23    1.22
  -4   1  -5    9.10    0.41
  -5   1  -5    0.54    0.20
  -6   1  -5   98.68    1.43
  -9  -1  -5  387.18    4.06
 -10  -1  -5   33.11    1.22
 -11  -1  -5   78.95    1.89
 -10  -2  -5    0.47    0.41
 -11  -2  -5   10.77    0.88
 -12  -2  -5  132.69    2.66
 -11  -3  -5    0.71    0.47
 -12  -3  -5    2.73    0.65
  -7   0  -6   -0.45    0.23
  -8   0  -6  123.90    1.97
  -9   0  -6   -0.08    0.31
  -5   1  -6   61.37    1.05
  -6   1  -6    2.38    0.32
  -9  -1  -6    7.22    0.69
 -10  -1  -6   19.64    1.01
 -11  -1  -6    2.99    0.56
 -10  -2  -6    0.41    0.41
 -11  -2  -6   96.76    2.23
 -12  -2  -6   32.76    1.41
 -11  -3  -6    8.11    0.90
  -7   0  -7    1.87    0.38
  -8   0  -7    0.06    0.29
  -9   0  -7    3.25    0.49
  -5   1  -7    8.68    0.48
  -6   1  -7    5.99    0.49
  -9  -1  -7    0.49    0.39
 -10  -1  -7    0.33    0.40
 -11  -1  -7    4.24    0.64
 -10  -2  -7    8.46    0.83
 -11  -2  -7   -0.18    0.43
 -11  -3  -7    3.28    0.69
  -9  -1  -8    7.55    0.74
 -10  -1  -8    2.07    0.53
 -10  -2  -8   11.90    0.98
   7   0   0    0.07    0.21
   8   0   0   66.69    1.37
   9   0   0    0.11    0.26
  10   0   0    0.30    0.29
  11   0   0   -0.16    0.32
  12   0   0   17.98    0.96
  13   0   0    0.26    0.41
  14   0   0    0.48    0.48
   6   1   0  369.53    3.34
   7   1   0    9.81    0.60
   8   1   0   82.16    1.56
   8  -1   0   82.12    1.45
   9   1   0   21.39    0.91
   9  -1   0   21.03    0.84
  10   1   0   16.11    0.88
  10  -1   0   15.38    0.81
  11   1   0   56.53    1.57
  11  -1   0   58.08    1.48
  12   1   0   11.00    0.86
  12  -1   0   11.03    0.83
  13   1   0    3.23    0.59
  13  -1   0    3.54    0.61
  14   1   0   21.90    1.21
  14  -1   0   22.30    1.17
   6   2   0   -0.03    0.22
   7   2   0   32.53    1.01
   8   2   0   41.23    1.19
   8  -2   0   41.47    1.01
   9   2   0    1.36    0.38
   9  -2   0    1.62    0.35
  10   2   0  172.86    2.72
  11   2   0    1.43    0.45
  12   2   0   11.59    0.91
  13   2   0    7.10    0.85
  14   2   0    0.57    0.49
   5   3   0  324.03    3.14
   6   3   0  233.29    2.70
   7   3   0   23.36    0.92
   8   3   0   -0.15    0.27
   9   3   0   -0.07    0.32
  10   3   0   30.14    1.21
  11   3   0   12.20    0.90
  12   3   0    1.17    0.49
  13   3   0    1.25    0.54
   4   4   0   73.04    1.36
   5   4   0    4.88    0.54
   6   4   0   52.72    1.31
   7   4   0   40.08    1.24
   8   4   0   62.76    1.60
   9   4   0   15.99    0.93
  10   4   0    4.79    0.63
  11   4   0    3.26    0.59
  12   4   0   11.82    0.97
  13   4   0    0.58    0.50
   3   5   0   38.22    0.98
   4   5   0   23.13    0.85
   5   5   0   59.82    1.36
   6   5   0    4.84    0.60
   7   5   0  126.20    2.25
   8   5   0  106.79    2.14
   9   5   0    7.42    0.77
  10   5   0   -0.13    0.37
  11   5   0   91.01    2.29
  12   5   0   77.12    2.22
   4   6   0    0.42    0.30
   5   6   0    6.71    0.65
   6   6   0   35.62    1.21
   7   6   0   24.33    1.11
   8   6   0    9.55    0.85
   9   6   0    0.23    0.41
  10   6   0   39.91    1.60
  11   6   0    1.84    0.59
   6   7   0    1.50    0.47
   7   7   0   -0.06    0.40
   8   7   0   17.59    1.11
   9   7   0   81.19    2.14
  14   0  -1   -0.44    0.39
  13   0  -1    1.70    0.52
  12   0  -1    0.23    0.37
  11   0  -1    2.41    0.47
  10   0  -1   -0.23    0.28
   9   0  -1   79.90    1.60
   8   0  -1   -0.28    0.22
   7   0   1  238.87    2.60
   8   0   1    0.14    0.25
   9   0   1    1.72    0.36
  10   0   1   -0.03    0.30
  11   0   1   25.19    1.07
  12   0   1   -0.18    0.37
  13   0   1  112.42    2.39
  14   0   1   -0.04    0.42
  14   1  -1    0.11    0.44
  14  -1  -1    0.08    0.39
  13   1  -1    3.01    0.59
  13  -1  -1    2.83    0.54
  12   1  -1    1.55    0.47
  12  -1  -1    1.90    0.46
  11   1  -1    4.29    0.58
  11  -1  -1    5.09    0.63
  10   1  -1    4.55    0.54
  10  -1  -1    4.56    0.51
   9   1  -1   30.11    1.03
   9  -1  -1   31.77    1.00
   8   1  -1   25.44    0.90
   8  -1  -1   26.85    0.86
   7   1  -1   15.09    0.67
   6   1  -1   -0.01    0.19
   6   1   1   79.81    1.38
   7   1   1   45.74    1.15
   8   1   1   66.33    1.45
   8  -1   1   62.44    1.28
   9   1   1   29.21    1.06
   9  -1   1   30.13    0.97
  10   1   1    2.38    0.45
  10  -1   1    1.99    0.41
  11   1   1   34.02    1.27
  11  -1   1   36.12    1.22
  12   1   1   39.44    1.41
  12  -1   1   39.12    1.31
  13   1   1   17.20    1.08
  13  -1   1   18.69    1.04
  14   1   1    4.49    0.74
  14   2  -1    4.93    0.75
  13   2  -1    3.68    0.64
  12   2  -1   -0.13    0.38
  11   2  -1   -0.42    0.32
  10   2  -1    0.79    0.38
  10  -2  -1    0.67    0.34
   9   2  -1    2.95    0.46
   9  -2  -1    3.13    0.41
   8   2  -1    8.51    0.62
   8  -2  -1    8.29    0.56
   7   2  -1    4.60    0.50
   6   2  -1   73.02    1.34
   6   2   1    2.55    0.36
   7   2   1    0.01    0.24
   8   2   1  104.85    1.92
   8  -2   1  101.68    1.57
   9   2   1    5.47    0.63
  10   2   1    4.71    0.60
  11   2   1    0.12    0.36
  12   2   1   25.18    1.23
  13   2   1    1.89    0.55
  14   2   1    7.39    0.90
  13   3  -1    6.59    0.79
  12   3  -1    6.69    0.82
  11   3  -1    0.18    0.40
  10   3  -1    0.15    0.33
   9   3  -1    0.59    0.36
   8   3  -1   35.51    1.15
   7   3  -1   17.84    0.82
   6   3  -1    7.48    0.57
   5   3  -1    2.55    0.35
   5   3   1  338.36    3.27
   6   3   1   -0.07    0.24
   7   3   1   18.08    0.85
   8   3   1   30.36    1.11
   9   3   1  114.13    2.19
  10   3   1   -0.06    0.35
  11   3   1   58.20    1.72
  12   3   1   22.18    1.18
  13   3   1    3.45    0.67
  13   4  -1    2.08    0.61
  12   4  -1    3.21    0.67
  11   4  -1    0.04    0.41
  10   4  -1   16.22    0.96
   9   4  -1   13.61    0.88
   8   4  -1    1.58    0.41
   7   4  -1    0.23    0.30
   6   4  -1   59.66    1.35
   5   4  -1    4.29    0.44
   4   4  -1    2.56    0.34
   4   4   1   16.83    0.75
   5   4   1  345.55    3.45
   6   4   1  427.53    4.15
   7   4   1   91.15    1.84
   8   4   1  116.21    2.18
   9   4   1    0.00    0.34
  10   4   1   10.84    0.86
  11   4   1    0.02    0.43
  12   4   1   27.49    1.33
  13   4   1   53.97    1.90
  12   5  -1    8.04    0.96
  11   5  -1    0.92    0.50
  10   5  -1    0.83    0.47
   9   5  -1    3.61    0.58
   8   5  -1    1.33    0.45
   7   5  -1   11.30    0.81
   6   5  -1   61.40    1.45
   5   5  -1    4.72    0.56
   4   5  -1    3.82    0.42
   3   5   1   -0.06    0.23
   4   5   1   12.95    0.70
   5   5   1   38.98    1.15
   6   5   1   13.07    0.80
   7   5   1   11.72    0.82
   8   5   1   16.04    0.96
   9   5   1    1.51    0.51
  11   5   1    2.07    0.59
  12   5   1   20.90    1.25
  11   6  -1   64.22    2.02
  10   6  -1   66.13    1.95
   9   6  -1   18.21    1.11
   8   6  -1    2.44    0.52
   7   6  -1    2.39    0.50
   6   6  -1   12.26    0.83
   5   6  -1    6.77    0.70
   4   6  -1   42.71    1.13
   3   6   1   -0.09    0.28
   4   6   1    6.33    0.64
   5   6   1   39.17    1.22
   6   6   1   10.85    0.80
   7   6   1   52.58    1.54
   8   6   1   84.05    2.03
   9   6   1   79.15    2.05
  10   6   1  129.88    2.73
   9   7  -1   14.50    1.11
   8   7  -1    6.69    0.75
   7   7  -1    4.54    0.63
   6   7   1    8.08    0.76
   7   7   1    1.35    0.47
   8   7   1    9.64    0.90
   9   7   1   67.05    1.99
  14   0  -2   30.98    1.35
  13   0  -2    0.21    0.38
  12   0  -2   56.82    1.62
  11   0  -2    0.37    0.35
  10   0  -2  108.89    2.01
   9   0  -2    0.06    0.27
   8   0  -2    3.04    0.39
   7   0  -2   -0.06    0.20
   7   0   2    0.62    0.28
   8   0   2  124.42    1.97
   9   0   2    0.02    0.28
  10   0   2    1.63    0.44
  11   0   2   -0.04    0.34
  12   0   2   33.52    1.30
  13   0   2   -0.19    0.41
  14   0   2   45.99    1.66
  14   1  -2    2.88    0.61
  14  -1  -2    3.12    0.59
  13   1  -2    7.50    0.82
  13  -1  -2    7.77    0.78
  12   1  -2    1.88    0.49
  12  -1  -2    1.29    0.44
  11   1  -2   19.44    1.01
  11  -1  -2   20.14    0.94
  10   1  -2   43.26    1.31
  10  -1  -2   44.65    1.25
   9   1  -2   21.53    0.89
   9  -1  -2   22.63    0.88
   8   1  -2   12.02    0.68
   8  -1  -2   11.79    0.64
   7   1  -2   -0.06    0.21
   7  -1  -2    0.16    0.21
   6   1  -2   19.43    0.68
   6   1   2   67.53    1.31
   7   1   2    2.80    0.38
   7  -1   2    3.02    0.36
   8   1   2    0.22    0.28
   8  -1   2    0.35    0.25
   9   1   2   15.69    0.85
   9  -1   2   16.05    0.77
  10   1   2   11.83    0.83
  10  -1   2   11.39    0.74
  11   1   2    5.62    0.69
  11  -1   2    5.55    0.60
  12   1   2    4.16    0.64
  12  -1   2    4.12    0.60
  13   1   2    2.38    0.59
  14   1   2   20.56    1.22
  14   2  -2   41.72    1.64
  13   2  -2   95.73    2.32
  12   2  -2   19.64    1.09
  11   2  -2    2.24    0.49
  11  -2  -2    3.06    0.50
  10   2  -2   -0.10    0.32
  10  -2  -2   -0.16    0.30
   9   2  -2    0.33    0.31
   9  -2  -2    0.45    0.31
   8   2  -2   10.37    0.68
   8  -2  -2   10.00    0.62
   7   2  -2   34.45    1.01
   6   2  -2   31.43    0.89
   5   2   2    0.37    0.23
   6   2   2   16.74    0.78
   7   2   2   38.93    1.15
   8   2   2    0.03    0.31
   9   2   2    3.24    0.51
  10   2   2   76.61    1.85
  11   2   2   -0.05    0.38
  12   2   2    2.91    0.58
  13   2   2   -0.15    0.43
  13   3  -2    6.83    0.84
  12   3  -2   13.51    0.97
  11   3  -2    0.33    0.40
  10   3  -2   42.18    1.40
   9   3  -2    8.31    0.72
   8   3  -2   28.46    1.03
  -8   3   2   29.80    0.87
   7   3  -2   55.16    1.31
   6   3  -2    7.38    0.54
   5   3  -2   17.18    0.67
   4   3   2   50.28    1.13
   5   3   2  114.93    1.82
   6   3   2  131.97    2.05
   7   3   2   -0.31    0.26
   8   3   2   28.48    1.10
   9   3   2    0.71    0.37
  10   3   2   24.94    1.14
  11   3   2    0.77    0.43
  12   3   2   12.59    0.97
  13   3   2    1.05    0.53
  13   4  -2    0.47    0.51
  12   4  -2   12.09    0.97
  11   4  -2    2.07    0.53
  10   4  -2    0.27    0.37
   9   4  -2    1.90    0.47
   8   4  -2    0.40    0.34
   7   4  -2   11.07    0.72
   6   4  -2   26.57    0.92
   5   4  -2   30.46    0.90
   4   4  -2   52.50    1.09
   3   4   2   62.51    1.27
   4   4   2   21.28    0.85
   5   4   2   57.06    1.36
   6   4   2   53.13    1.39
   7   4   2   11.65    0.79
   8   4   2    6.06    0.70
   9   4   2    2.40    0.52
  10   4   2   -0.35    0.37
  11   4   2    9.58    0.89
  12   4   2    6.75    0.82
  12   5  -2   26.46    1.40
  11   5  -2   34.25    1.46
  10   5  -2   10.04    0.86
   9   5  -2    7.89    0.79
   8   5  -2    1.16    0.42
   7   5  -2    8.38    0.69
   6   5  -2   13.20    0.76
   5   5  -2    0.44    0.30
   4   5  -2    2.48    0.35
   2   5   2  115.22    1.74
   3   5   2    3.22    0.42
   4   5   2    0.93    0.35
   5   5   2    5.53    0.60
   6   5   2   35.55    1.18
   7   5   2  134.24    2.38
   8   5   2  158.62    2.73
   9   5   2   10.38    0.88
  10   5   2    9.31    0.89
  11   5   2    5.72    0.81
  11   6  -2    5.63    0.81
  10   6  -2    8.43    0.89
   9   6  -2    0.70    0.48
   8   6  -2    3.44    0.56
   7   6  -2    9.37    0.75
   6   6  -2   18.01    0.90
   5   6  -2   22.29    0.90
   2   6   2   47.87    1.19
   3   6   2   19.21    0.87
   4   6   2   26.95    1.01
   5   6   2    1.89    0.43
   6   6   2    2.54    0.49
   7   6   2    3.89    0.57
   8   6   2   15.31    0.99
   9   6   2   10.00    0.91
  10   6   2    8.93    0.94
   9   7  -2    1.47    0.59
   8   7  -2   43.30    1.49
   5   7   2    4.21    0.57
   6   7   2    2.98    0.56
   7   7   2   -0.13    0.39
   8   7   2   16.80    1.10
   9   7   2   55.98    1.87
  14   0  -3   -0.20    0.40
  13   0  -3    7.25    0.77
  12   0  -3    0.12    0.38
  11   0  -3   59.66    1.58
  10   0  -3    0.39    0.34
   9   0  -3  237.25    2.91
   8   0  -3    0.13    0.23
   7   0  -3   10.95    0.61
   6   0  -3    0.01    0.18
   6   0   3    0.04    0.20
   7   0   3   11.04    0.66
   8   0   3   -0.23    0.27
   9   0   3   28.93    1.07
  10   0   3   -0.21    0.33
  11   0   3    0.82    0.43
  12   0   3    0.01    0.39
  13   0   3    7.44    0.84
  14   1  -3   31.11    1.40
  14  -1  -3   31.38    1.38
  13   1  -3   38.51    1.47
  13  -1  -3   40.76    1.45
  12   1  -3  194.87    3.07
  12  -1  -3  192.30    2.96
  11   1  -3  303.20    3.80
  11  -1  -3  309.20    3.67
  10   1  -3    8.33    0.73
  10  -1  -3    8.78    0.70
   9   1  -3  155.17    2.36
   9  -1  -3  156.82    2.25
   8   1  -3  101.70    1.77
   8  -1  -3  106.39    1.75
   7   1  -3   21.30    0.81
   7  -1  -3   22.90    0.80
   6   1  -3   71.37    1.30
   5   1   3    8.52    0.53
   6   1   3    0.77    0.28
   7   1   3   13.14    0.74
   7  -1   3   12.46    0.64
   8   1   3   74.44    1.62
   8  -1   3   73.65    1.45
   9   1   3    1.94    0.46
   9  -1   3    2.19    0.42
  10   1   3   19.28    1.02
  10  -1   3   18.31    0.91
  11   1   3    3.25    0.58
  11  -1   3    3.32    0.53
  12   1   3    1.91    0.54
  13   1   3    0.59    0.50
  14   2  -3   62.62    1.97
  13   2  -3    0.15    0.47
  12   2  -3   -0.14    0.38
  12  -2  -3    0.41    0.38
  11   2  -3    5.05    0.64
  11  -2  -3    4.97    0.58
  10   2  -3    3.60    0.53
  10  -2  -3    3.47    0.47
   9   2  -3    0.49    0.32
   9  -2  -3    0.38    0.28
   8   2  -3  473.27    4.44
   8  -2  -3  471.96    4.13
   7   2  -3   20.38    0.82
   7  -2  -3   20.66    0.77
   6   2  -3  412.89    3.72
   5   2  -3   40.76    0.96
   4   2   3    1.38    0.28
   5   2   3    0.83    0.28
   6   2   3    0.27    0.26
   7   2   3   -0.13    0.28
   8   2   3   -0.13    0.31
   9   2   3    0.00    0.32
  10   2   3    2.08    0.48
  11   2   3    0.82    0.46
  12   2   3   -0.12    0.43
  13   2   3    5.79    0.79
  13   3  -3   18.76    1.18
  12   3  -3   23.01    1.22
  11   3  -3   33.87    1.33
  10   3  -3    3.73    0.55
 -10   3   3    4.11    0.50
   9   3  -3   -0.17    0.31
  -9   3   3    0.61    0.29
   8   3  -3    4.52    0.56
  -8   3   3    4.59    0.49
   7   3  -3   16.43    0.78
  -7   3   3   16.35    0.68
   6   3  -3    0.71    0.28
   5   3  -3   32.14    0.88
   3   3   3  107.46    1.62
   4   3   3  116.98    1.81
   5   3   3  142.32    2.12
   6   3   3  117.99    2.00
   7   3   3   28.00    1.10
   8   3   3   -0.14    0.32
   9   3   3   16.62    0.96
  10   3   3    7.83    0.77
  11   3   3    0.95    0.47
  12   3   3   12.14    0.99
  13   3   3    1.16    0.56
  13   4  -3    0.74    0.56
  12   4  -3   12.01    1.00
  11   4  -3    0.60    0.43
  10   4  -3   54.06    1.62
   9   4  -3  135.83    2.43
   8   4  -3    0.06    0.32
   7   4  -3    1.55    0.37
   6   4  -3   24.06    0.88
   5   4  -3   64.08    1.30
   4   4  -3   77.19    1.33
   2   4   3  166.39    2.10
   3   4   3   73.92    1.43
   4   4   3  114.27    1.88
   5   4   3   25.29    0.99
   6   4   3    4.44    0.53
   7   4   3   15.65    0.92
   8   4   3   -0.26    0.30
   9   4   3    5.87    0.73
  10   4   3   42.82    1.57
  11   4   3    8.33    0.88
  12   4   3    8.60    0.93
  12   5  -3   32.52    1.52
  11   5  -3   25.04    1.28
  10   5  -3    4.57    0.66
   9   5  -3   23.23    1.11
   8   5  -3    0.71    0.41
   7   5  -3   17.97    0.88
   6   5  -3    0.26    0.32
   5   5  -3   70.06    1.42
   4   5  -3  171.61    2.15
   1   5   3   29.30    0.91
   2   5   3  102.89    1.73
   3   5   3   49.90    1.27
   4   5   3   33.79    1.15
   5   5   3    3.44    0.48
   6   5   3    0.92    0.37
   7   5   3    2.20    0.49
   8   5   3    0.31    0.39
   9   5   3    3.05    0.58
  10   5   3   25.44    1.29
  11   5   3    1.73    0.57
  11   6  -3    2.48    0.65
  10   6  -3    1.92    0.59
   9   6  -3    2.95    0.59
   8   6  -3    0.43    0.39
   7   6  -3   19.87    0.98
   6   6  -3    5.07    0.56
   1   6   3  256.31    2.87
   2   6   3   62.77    1.43
   3   6   3   19.98    0.93
   4   6   3    0.98    0.37
   5   6   3    1.60    0.44
   6   6   3   30.95    1.23
   7   6   3   24.69    1.17
   8   6   3    0.12    0.43
   9   6   3   31.94    1.42
  10   6   3   11.03    1.00
   9   7  -3   10.80    0.99
   8   7  -3   24.36    1.22
   4   7   3   25.99    1.09
   5   7   3   16.31    0.94
   6   7   3   24.69    1.16
   7   7   3   29.69    1.30
   8   7   3    1.67    0.56
  14   0  -4   11.80    0.97
  13   0  -4    0.20    0.43
  12   0  -4  242.78    3.49
  11   0  -4    0.27    0.38
  10   0  -4  815.73    6.71
   9   0  -4    0.10    0.30
   8   0  -4   33.57    1.06
   7   0  -4   -0.02    0.22
   6   0  -4   65.60    1.26
   6   0   4   18.94    0.75
   7   0   4    0.00    0.25
   8   0   4  277.90    3.22
   9   0   4   -0.14    0.33
  10   0   4  316.37    3.80
  11   0   4   -0.09    0.40
  12   0   4   37.86    1.45
  13   0   4   -0.15    0.41
  14   1  -4    1.77    0.58
  14  -1  -4    2.26    0.58
  13   1  -4   10.51    0.93
  13  -1  -4   10.77    0.90
  12   1  -4    2.01    0.52
  12  -1  -4    2.92    0.55
  11   1  -4    1.87    0.49
  11  -1  -4    2.18    0.48
  10   1  -4   26.99    1.11
  10  -1  -4   26.60    1.04
   9   1  -4   65.01    1.56
   9  -1  -4   65.85    1.48
   8   1  -4   60.89    1.42
   8  -1  -4   62.41    1.37
   7   1  -4  249.93    2.80
   7  -1  -4  247.64    2.71
   6   1  -4  135.19    1.86
  -6   1   4  134.28    1.81
   5   1  -4   19.19    0.70
   5   1   4  142.03    2.00
   6   1   4    0.81    0.30
   6  -1   4    0.94    0.28
   7   1   4    6.86    0.64
   7  -1   4    5.83    0.58
   8   1   4    5.55    0.58
   8  -1   4    5.74    0.59
   9   1   4   -0.06    0.34
   9  -1   4   -0.04    0.33
  10   1   4   55.71    1.64
  10  -1   4   56.60    1.52
  11   1   4   35.79    1.39
  12   1   4   17.23    1.12
  13   1   4   15.46    1.09
  14   2  -4   22.59    1.29
 -14   2   4   23.83    1.21
  13   2  -4   60.96    1.89
  12   2  -4   26.55    1.25
  11   2  -4    7.05    0.77
  10   2  -4    1.50    0.44
   9   2  -4  198.99    2.79
  -9   2   4  198.01    2.61
   8   2  -4   82.49    1.67
  -8   2   4   81.18    1.55
   7   2  -4  107.13    1.80
  -7   2   4  105.53    1.66
   6   2  -4  149.21    2.03
  -6   2   4  148.12    1.92
   5   2  -4   23.08    0.77
   3   2   4   28.61    0.83
   4   2   4   10.64    0.59
   5   2   4  261.26    2.95
   6   2   4  192.11    2.59
   7   2   4  472.37    4.62
   8   2   4   65.98    1.65
   9   2   4   23.81    1.09
  10   2   4    0.93    0.44
  11   2   4    0.12    0.40
  12   2   4   11.31    1.01
  13   2   4   -0.31    0.52
  13   3  -4   43.53    1.65
  12   3  -4   20.23    1.18
  11   3  -4    5.52    0.68
 -11   3   4    4.89    0.56
  10   3  -4    0.96    0.41
 -10   3   4    1.09    0.37
   9   3  -4   14.13    0.87
  -9   3   4   13.50    0.73
   8   3  -4   15.12    0.85
  -8   3   4   14.44    0.72
   7   3  -4  359.72    3.70
  -7   3   4  359.79    3.40
   6   3  -4  377.56    3.61
  -6   3   4  377.34    3.42
   5   3  -4  233.46    2.55
   4   3  -4  237.06    2.45
   2   3   4    2.19    0.32
   3   3   4   45.98    1.12
   4   3   4  223.94    2.68
   5   3   4  160.68    2.35
   6   3   4    5.71    0.64
   7   3   4   22.59    1.04
   8   3   4    0.99    0.42
   9   3   4    0.11    0.38
  10   3   4   25.60    1.21
  11   3   4   22.61    1.21
  12   3   4    8.43    0.90
  13   4  -4    1.91    0.62
  12   4  -4   27.09    1.34
  11   4  -4    3.39    0.62
  10   4  -4   53.45    1.63
   9   4  -4    6.14    0.71
   8   4  -4    2.04    0.43
   7   4  -4    2.69    0.43
   6   4  -4   44.36    1.18
  -6   4   4   43.42    1.03
   5   4  -4   20.97    0.82
  -5   4   4   22.41    0.77
   4   4  -4   33.77    0.93
   0   4   4   29.02    0.84
   1   4   4   34.82    0.95
   2   4   4  103.81    1.73
   3   4   4   25.17    0.91
   4   4   4  378.35    3.88
   5   4   4   31.68    1.14
   6   4   4   50.62    1.44
   7   4   4   -0.15    0.31
   8   4   4   25.39    1.18
   9   4   4   -0.03    0.37
  10   4   4    3.31    0.64
  11   4   4    1.88    0.59
  12   4   4    9.90    0.99
  12   5  -4    1.23    0.57
  11   5  -4    6.83    0.79
  10   5  -4    0.22    0.44
   9   5  -4   10.80    0.88
   8   5  -4    0.19    0.35
   7   5  -4   24.32    1.02
   6   5  -4    1.49    0.37
   5   5  -4   75.82    1.50
   4   5  -4   65.53    1.31
  -2   5   4  124.70    1.79
  -1   5   4   23.68    0.80
   0   5   4   31.72    0.94
   1   5   4  313.28    3.26
   2   5   4  215.55    2.69
   3   5   4  379.29    3.90
   4   5   4   -0.20    0.28
   5   5   4    4.27    0.56
   6   5   4   10.90    0.83
   7   5   4    8.78    0.81
   8   5   4   21.23    1.12
   9   5   4   22.13    1.19
  10   5   4    9.93    0.94
  11   5   4    0.02    0.48
  10   6  -4    0.15    0.44
   9   6  -4   50.88    1.60
   8   6  -4    3.60    0.56
   7   6  -4   83.34    1.83
   6   6  -4   12.82    0.83
   1   6   4    4.92    0.58
   2   6   4   16.39    0.87
   3   6   4   10.86    0.77
   4   6   4   -0.05    0.32
   5   6   4    7.19    0.74
   6   6   4   18.08    1.05
   7   6   4   40.73    1.47
   8   6   4    4.23    0.68
   9   6   4    6.74    0.83
   9   7  -4    7.88    0.88
   3   7   4    6.41    0.73
   4   7   4   14.05    0.94
   5   7   4    7.91    0.80
   6   7   4    0.67    0.45
   7   7   4   15.73    1.07
   8   7   4    7.54    0.88
  14   0  -5    0.08    0.44
  13   0  -5    0.83    0.46
  12   0  -5   -0.28    0.37
  11   0  -5    3.78    0.57
  10   0  -5   -0.38    0.34
   9   0  -5   -0.20    0.29
   8   0  -5   -0.06    0.25
   7   0  -5    1.16    0.30
  -6   0   5    0.27    0.22
  -5   0   5  125.57    1.78
   4   0   5    0.06    0.20
   5   0   5   85.03    1.49
   6   0   5   -0.06    0.23
   7   0   5   37.60    1.14
   8   0   5   -0.02    0.33
   9   0   5   39.56    1.31
  10   0   5   -0.02    0.41
  11   0   5   73.71    1.96
  12   0   5    0.16    0.47
  13   0   5    3.28    0.67
  14   1  -5   -0.02    0.45
  14  -1  -5   -0.01    0.45
  13   1  -5   28.55    1.32
  13  -1  -5   29.37    1.29
  12   1  -5    1.39    0.50
  12  -1  -5    1.04    0.45
  11   1  -5   51.37    1.56
  11  -1  -5   51.35    1.51
  10   1  -5   21.67    1.04
  10  -1  -5   20.16    0.95
   9   1  -5   61.15    1.54
   8   1  -5  137.89    2.18
   7   1  -5    3.87    0.46
  -7   1   5    4.29    0.48
   6   1  -5    2.40    0.35
  -6   1   5    2.22    0.34
   5   1  -5    0.17    0.20
  -5   1   5    0.10    0.20
   3   1   5   40.14    0.99
   4   1   5    8.73    0.55
   5   1   5    0.33    0.26
   6   1   5   97.32    1.79
   6  -1   5   96.31    1.61
   7   1   5  145.72    2.31
   7  -1   5  147.01    2.10
   8   1   5  218.00    3.01
   8  -1   5  216.56    2.76
   9   1   5  385.47    4.36
   9  -1   5  386.32    4.08
  10   1   5   33.94    1.33
  11   1   5   78.42    2.05
  12   1   5   53.55    1.81
  13   1   5    7.76    0.88
  14   2  -5   10.94    1.04
 -14   2   5   12.59    1.00
  13   2  -5    1.75    0.59
 -13   2   5    3.12    0.61
  12   2  -5    8.27    0.83
 -12   2   5    8.52    0.80
  11   2  -5    1.02    0.43
 -11   2   5    0.92    0.38
  10   2  -5    1.88    0.46
 -10   2   5    1.79    0.42
   9   2  -5   25.89    1.06
  -9   2   5   25.20    0.99
   8   2  -5   51.63    1.37
  -8   2   5   49.97    1.26
   7   2  -5   36.86    1.13
  -7   2   5   36.16    1.05
   6   2  -5  163.70    2.21
  -6   2   5  163.18    2.15
   5   2  -5    0.57    0.25
  -5   2   5    0.02    0.20
   4   2  -5   46.01    1.01
  -4   2   5   44.01    1.00
   1   2   5   51.00    1.09
   2   2   5    8.62    0.53
   3   2   5   -0.02    0.21
   4   2   5   98.69    1.72
   5   2   5    6.99    0.57
   6   2   5  384.08    4.06
   7   2   5    2.97    0.49
   8   2   5    1.44    0.45
   9   2   5    1.50    0.45
  10   2   5    0.62    0.42
  11   2   5   10.37    0.95
  12   2   5  132.46    2.83
  13   3  -5   14.55    1.07
  12   3  -5    0.89    0.49
 -12   3   5    1.01    0.47
  11   3  -5    0.49    0.42
 -11   3   5    0.19    0.35
  10   3  -5    0.77    0.41
 -10   3   5    1.02    0.39
   9   3  -5   12.12    0.83
  -9   3   5   12.54    0.75
   8   3  -5   11.11    0.78
  -8   3   5   10.13    0.68
   7   3  -5   63.73    1.48
  -7   3   5   63.80    1.38
   6   3  -5   35.67    1.08
  -6   3   5   32.67    0.97
   5   3  -5   74.37    1.41
  -5   3   5   72.67    1.36
   4   3  -5    1.00    0.27
  -4   3   5    1.68    0.30
  -3   3   5   31.61    0.88
  -2   3   5   77.44    1.38
  -1   3   5  319.43    3.05
   0   3   5   44.93    1.05
   1   3   5  121.17    1.80
   2   3   5   31.37    0.94
   3   3   5   10.25    0.61
   4   3   5   41.20    1.18
   5   3   5  118.30    2.09
   6   3   5  214.51    2.99
   7   3   5    0.87    0.41
   8   3   5   27.70    1.20
   9   3   5   71.09    1.91
  10   3   5    3.53    0.64
  11   3   5    0.46    0.51
  12   3   5    2.92    0.69
  12   4  -5    5.67    0.77
  11   4  -5   14.96    1.02
  10   4  -5   22.98    1.15
   9   4  -5    3.53    0.55
   8   4  -5   10.17    0.78
  -8   4   5    9.68    0.67
   7   4  -5    4.95    0.53
  -7   4   5    5.03    0.52
   6   4  -5   42.95    1.20
  -6   4   5   42.88    1.11
   5   4  -5  298.16    3.13
  -5   4   5  298.61    3.06
   4   4  -5  313.91    3.06
  -4   4   5  310.25    3.09
  -3   4   5   90.04    1.52
  -2   4   5   52.08    1.17
  -1   4   5   26.47    0.85
   0   4   5   14.11    0.68
   1   4   5    3.06    0.39
   2   4   5  142.89    2.12
   3   4   5   48.44    1.31
   5   4   5   38.46    1.26
   6   4   5    2.88    0.51
   7   4   5   47.69    1.52
   8   4   5    3.72    0.63
   9   4   5   -0.26    0.40
  10   4   5   23.48    1.26
  11   4   5   22.62    1.31
  11   5  -5   10.21    0.93
  10   5  -5   16.24    1.04
   9   5  -5   39.40    1.40
   8   5  -5    7.92    0.77
   7   5  -5    1.23    0.41
   6   5  -5    2.77    0.45
   5   5  -5   35.84    1.07
   4   5  -5    2.38    0.39
  -4   5   5    2.35    0.38
  -3   5   5    8.45    0.58
  -2   5   5   24.49    0.87
  -1   5   5   22.14    0.85
   0   5   5    1.83    0.35
   1   5   5   24.25    0.94
   2   5   5   33.10    1.12
   3   5   5   77.36    1.70
   4   5   5    0.15    0.32
   5   5   5   20.19    1.02
   6   5   5   14.93    0.96
   7   5   5    1.83    0.50
   8   5   5    7.77    0.82
   9   5   5   21.56    1.24
  10   5   5   21.32    1.29
  10   6  -5    9.10    0.89
   9   6  -5    0.11    0.44
   8   6  -5    6.01    0.68
   7   6  -5    0.41    0.41
  -1   6   5   71.36    1.52
   0   6   5  147.08    2.26
   1   6   5   29.68    1.10
   2   6   5   32.40    1.16
   3   6   5    6.33    0.70
   4   6   5    0.43    0.38
   5   6   5   81.25    1.97
   6   6   5   11.40    0.89
   7   6   5    1.70    0.55
   8   6   5   24.52    1.28
   9   6   5    2.23    0.63
   2   7   5   48.59    1.46
   3   7   5    7.48    0.77
   4   7   5    4.80    0.63
   5   7   5    2.37    0.56
   6   7   5   12.88    0.99
   7   7   5    3.09    0.64
  14   0  -6   24.98    1.33
  13   0  -6   -0.10    0.40
  12   0  -6    0.42    0.43
  11   0  -6   -0.15    0.35
  10   0  -6    0.03    0.33
  -8   0   6   -0.22    0.26
  -7   0   6   -0.08    0.25
  -6   0   6    3.02    0.39
  -5   0   6    0.40    0.24
  -4   0   6   39.22    0.99
  -3   0   6    0.22    0.20
   2   0   6   46.09    1.06
   3   0   6    0.14    0.22
   4   0   6   49.96    1.17
   5   0   6   -0.01    0.25
   6   0   6   10.91    0.68
   7   0   6    0.12    0.31
   8   0   6  121.71    2.21
   9   0   6    0.11    0.39
  10   0   6  291.14    3.85
  11   0   6   -0.09    0.45
  12   0   6    2.74    0.63
  14   1  -6   -0.01    0.46
 -14   1   6    0.35    0.47
  13   1  -6   29.15    1.35
 -13   1   6   28.38    1.31
  12   1  -6    0.46    0.42
 -12   1   6    0.47    0.43
  11   1  -6    0.47    0.41
 -11   1   6    0.69    0.40
  10   1  -6    0.40    0.36
 -10   1   6    0.32    0.35
   9   1  -6   32.45    1.16
  -9   1   6   33.33    1.14
   8   1  -6    0.77    0.32
  -8   1   6    0.54    0.32
   7   1  -6   21.69    0.89
  -7   1   6   21.00    0.86
  -6   1   6    0.03    0.24
  -6  -1   6   -0.09    0.22
  -5   1   6    0.03    0.22
  -5  -1   6   -0.06    0.21
  -4   1   6    1.31    0.28
  -4  -1   6    1.32    0.29
  -3   1   6   29.76    0.85
  -3  -1   6   30.79    0.84
  -2   1   6    3.71    0.40
  -1   1   6    8.19    0.56
   0   1   6   25.33    0.81
   1   1   6    2.16    0.32
   2   1   6   14.04    0.65
   3   1   6   23.87    0.84
   4   1   6   38.06    1.06
   4  -1   6   37.44    0.97
   5   1   6   61.87    1.42
   5  -1   6   60.20    1.28
   6   1   6    2.37    0.43
   6  -1   6    2.21    0.37
   7   1   6    8.57    0.69
   7  -1   6    8.67    0.65
   8   1   6   16.23    0.93
   8  -1   6   15.45    0.87
   9   1   6    7.48    0.82
   9  -1   6    8.46    0.76
  10   1   6   18.31    1.07
  11   1   6    2.86    0.61
  12   1   6   25.44    1.36
  13   2  -6    0.08    0.46
 -13   2   6    0.64    0.46
  12   2  -6    1.46    0.50
 -12   2   6    1.24    0.48
  11   2  -6   10.77    0.87
 -11   2   6   11.17    0.83
  10   2  -6    0.26    0.37
 -10   2   6   -0.05    0.31
   9   2  -6   10.23    0.75
  -9   2   6    9.94    0.72
   8   2  -6   18.97    0.91
  -8   2   6   18.73    0.86
   7   2  -6    0.82    0.33
  -7   2   6    0.75    0.31
   6   2  -6    9.30    0.64
  -6   2   6    8.81    0.60
  -5   2   6   32.92    0.97
  -5  -2   6   30.19    0.93
  -4   2   6   27.42    0.86
  -4  -2   6   27.15    0.83
  -3   2   6    2.11    0.32
  -3  -2   6    1.94    0.30
  -2   2   6    0.17    0.22
  -1   2   6    6.05    0.52
   0   2   6   95.05    1.58
   1   2   6   19.80    0.76
   2   2   6   15.40    0.71
   3   2   6    0.09    0.24
   4   2   6   11.09    0.67
   5   2   6    2.35    0.41
   6   2   6   32.12    1.16
   7   2   6   59.98    1.60
   8   2   6   15.31    0.95
   9   2   6   -0.31    0.37
  10   2   6    0.50    0.45
  11   2   6   92.56    2.36
  12   2   6   32.20    1.50
  13   3  -6    8.86    0.94
 -13   3   6    9.65    0.89
  12   3  -6    1.06    0.52
 -12   3   6    1.13    0.48
  11   3  -6    3.63    0.61
 -11   3   6    3.99    0.60
  10   3  -6   10.38    0.82
 -10   3   6   10.38    0.78
   9   3  -6    0.32    0.36
  -9   3   6    0.61    0.36
   8   3  -6    7.28    0.70
  -8   3   6    7.72    0.65
   7   3  -6   12.59    0.78
  -7   3   6   12.61    0.73
   6   3  -6   12.73    0.73
  -6   3   6   13.72    0.71
   5   3  -6   35.21    1.04
  -5   3   6   33.29    1.01
  -4   3   6    1.78    0.34
  -4  -3   6    1.79    0.34
  -3   3   6    5.19    0.55
  -3  -3   6    5.03    0.46
  -2   3   6   22.09    0.82
  -1   3   6   14.02    0.68
   0   3   6    5.15    0.48
   1   3   6   10.60    0.63
   2   3   6   52.99    1.29
   3   3   6    5.86    0.55
   4   3   6    0.09    0.28
   5   3   6   22.25    1.00
   6   3   6    4.04    0.55
   7   3   6   34.90    1.31
   8   3   6   97.48    2.24
   9   3   6    0.65    0.48
  10   3   6   -0.43    0.42
  11   3   6    7.77    0.91
  12   4  -6    6.81    0.82
  11   4  -6   23.05    1.21
  10   4  -6   14.90    0.98
   9   4  -6   12.21    0.87
  -9   4   6   12.64    0.81
   8   4  -6    7.22    0.70
  -8   4   6    6.66    0.64
   7   4  -6   86.07    1.78
  -7   4   6   86.57    1.72
   6   4  -6   32.74    1.08
  -6   4   6   32.25    1.05
   5   4  -6    8.23    0.65
  -5   4   6    8.82    0.66
  -4   4   6    7.29    0.63
  -4  -4   6    7.10    0.55
  -3   4   6    3.04    0.41
  -3  -4   6    3.30    0.39
  -2   4   6    7.29    0.56
  -1   4   6   13.50    0.69
   0   4   6    1.59    0.35
   1   4   6   19.37    0.83
   2   4   6   40.76    1.22
   3   4   6    0.03    0.28
   4   4   6    4.60    0.54
   5   4   6   13.58    0.87
   6   4   6    0.98    0.43
   7   4   6    7.25    0.80
   8   4   6   17.56    1.12
   9   4   6   10.60    0.98
  10   4   6   11.80    1.01
  11   5  -6   -0.01    0.44
  10   5  -6   21.71    1.17
   9   5  -6    8.90    0.83
   8   5  -6   41.58    1.39
   7   5  -6    0.93    0.40
   6   5  -6    0.86    0.37
   5   5  -6    8.55    0.68
  -5   5   6    9.05    0.67
  -4   5   6   50.59    1.26
  -3   5   6   38.73    1.14
  -2   5   6  136.65    2.15
  -1   5   6   -0.12    0.26
   0   5   6    0.94    0.35
   1   5   6   30.56    1.09
   2   5   6   12.98    0.80
   3   5   6   11.90    0.80
   4   5   6   17.85    0.98
   5   5   6    4.12    0.61
   6   5   6   12.35    0.93
   7   5   6    1.01    0.46
   8   5   6    3.25    0.67
   9   5   6   38.83    1.60
  10   6  -6   60.06    1.85
   9   6  -6    3.06    0.62
   8   6  -6   50.73    1.54
   7   6  -6    0.15    0.40
  -2   6   6    0.00    0.31
  -1   6   6   54.54    1.41
   0   6   6    0.72    0.36
   1   6   6    3.01    0.51
   2   6   6    0.97    0.39
   3   6   6   28.68    1.19
   4   6   6   23.12    1.14
   5   6   6    0.26    0.40
   6   6   6   -0.07    0.41
   7   6   6   -0.03    0.45
   8   6   6    4.91    0.76
   1   7   6   14.34    0.89
   2   7   6    4.51    0.62
   3   7   6   -0.12    0.38
   4   7   6    3.97    0.64
   5   7   6   15.32    1.06
   6   7   6    2.97    0.66
 -13   0   7    0.60    0.49
 -12   0   7    0.10    0.42
 -11   0   7   36.83    1.39
 -10   0   7   -0.08    0.34
  -9   0   7   20.66    0.98
  -8   0   7    0.05    0.29
  -7   0   7  117.24    2.04
  -6   0   7   -0.02    0.24
  -5   0   7   59.73    1.34
  -4   0   7    0.20    0.23
  -3   0   7    5.39    0.48
  -2   0   7   -0.19    0.20
  -1   0   7  466.35    4.02
   0   0   7   -0.16    0.22
   1   0   7   30.48    0.95
   2   0   7    0.11    0.25
   3   0   7    0.77    0.29
   4   0   7    0.02    0.26
   5   0   7   11.98    0.73
   6   0   7   -0.01    0.27
   7   0   7    1.73    0.43
   8   0   7    0.19    0.37
   9   0   7    3.18    0.57
  10   0   7   -0.28    0.41
  11   0   7   12.16    0.97
 -13   1   7   29.11    1.34
 -12   1   7   32.60    1.37
 -11   1   7   12.03    0.86
 -10   1   7    0.25    0.35
 -10  -1   7   -0.25    0.33
  -9   1   7    9.36    0.73
  -9  -1   7    7.69    0.70
  -8   1   7    4.37    0.52
  -8  -1   7    4.31    0.53
  -7   1   7   22.68    0.95
  -7  -1   7   21.75    0.92
  -6   1   7    8.49    0.62
  -6  -1   7    8.56    0.62
  -5   1   7    5.11    0.52
  -5  -1   7    5.01    0.50
  -4   1   7  137.37    2.03
  -4  -1   7  136.12    1.99
  -3   1   7  108.67    1.75
  -3  -1   7  108.14    1.71
  -2   1   7  139.00    2.00
  -2  -1   7  137.53    1.90
  -1   1   7   45.86    1.14
  -1  -1   7   45.08    1.05
   0   1   7    4.24    0.51
   0  -1   7    3.73    0.39
   1   1   7    7.14    0.56
   1  -1   7    6.74    0.53
   2   1   7    1.79    0.35
   2  -1   7    2.33    0.34
   3   1   7   36.33    1.09
   3  -1   7   36.93    1.02
   4   1   7   14.03    0.77
   4  -1   7   13.96    0.70
   5   1   7    8.53    0.67
   5  -1   7    9.09    0.64
   6   1   7    5.90    0.64
   6  -1   7    5.84    0.58
   7   1   7    4.26    0.57
   7  -1   7    4.24    0.53
   8   1   7   15.90    0.96
   8  -1   7   16.63    0.93
   9   1   7    0.71    0.45
  10   1   7    0.25    0.44
  11   1   7    4.07    0.70
  13   2  -7   -0.07    0.44
 -13   2   7    0.19    0.45
  12   2  -7    0.12    0.41
 -12   2   7    0.12    0.42
  11   2  -7   59.63    1.77
 -11   2   7   60.37    1.71
  10   2  -7   11.56    0.85
 -10   2   7   12.46    0.86
   9   2  -7    7.17    0.68
  -9   2   7    8.41    0.72
  -8   2   7   27.56    1.07
  -8  -2   7   26.35    1.07
  -7   2   7   15.15    0.79
  -7  -2   7   15.41    0.81
  -6   2   7   26.46    0.97
  -6  -2   7   25.42    0.95
  -5   2   7   22.62    0.88
  -5  -2   7   23.34    0.88
  -4   2   7    4.10    0.45
  -4  -2   7    4.15    0.48
  -3   2   7    4.30    0.46
  -3  -2   7    3.74    0.45
  -2   2   7   84.42    1.58
  -2  -2   7   84.61    1.46
  -1   2   7   12.16    0.69
  -1  -2   7   12.09    0.60
   0   2   7    5.82    0.53
   0  -2   7    5.99    0.49
   1   2   7    1.16    0.32
   2   2   7   29.93    1.01
   3   2   7    0.05    0.28
   3  -2   7   -0.02    0.24
   4   2   7   30.01    1.08
   5   2   7   26.12    1.08
   6   2   7    3.63    0.53
   7   2   7    0.83    0.42
   8   2   7   -0.09    0.37
   9   2   7    2.94    0.60
  10   2   7    7.78    0.92
  11   2   7   -0.26    0.46
  12   3  -7    1.60    0.53
 -12   3   7    1.97    0.55
  11   3  -7   27.64    1.27
 -11   3   7   28.65    1.24
  10   3  -7    4.18    0.61
 -10   3   7    4.29    0.57
   9   3  -7    0.19    0.37
  -9   3   7    0.79    0.37
   8   3  -7    8.95    0.74
  -8   3   7    9.90    0.75
  -7   3   7  144.96    2.31
  -7  -3   7  142.85    2.36
  -6   3   7  122.58    2.06
  -6  -3   7  120.01    2.07
  -5   3   7  275.76    3.18
  -5  -3   7  273.44    3.14
  -4   3   7  189.26    2.53
  -4  -3   7  186.68    2.41
  -3   3   7    1.62    0.36
  -3  -3   7    2.13    0.36
  -2   3   7   -0.03    0.23
  -2  -3   7    0.24    0.23
  -1   3   7   14.08    0.73
  -1  -3   7   13.41    0.62
   0   3   7    7.72    0.59
   1   3   7    6.42    0.57
   2   3   7   29.11    1.05
   3   3   7   13.70    0.80
   4   3   7    3.72    0.52
   5   3   7    0.64    0.37
   6   3   7    0.19    0.36
   7   3   7    0.15    0.39
   8   3   7    0.90    0.47
   9   3   7   -0.01    0.44
  10   3   7    0.93    0.52
  11   3   7    3.05    0.70
  12   4  -7   11.66    1.00
  11   4  -7    3.63    0.66
  10   4  -7    3.48    0.59
 -10   4   7    4.13    0.59
   9   4  -7    0.30    0.37
  -9   4   7    0.13    0.35
   8   4  -7  129.20    2.34
  -8   4   7  130.67    2.28
   7   4  -7   23.84    1.04
  -7   4   7   25.43    1.03
  -6   4   7   15.95    0.86
  -6  -4   7   15.10    0.83
  -5   4   7    2.31    0.44
  -5  -4   7    2.55    0.42
  -4   4   7    0.52    0.32
  -4  -4   7    0.46    0.31
  -3   4   7    4.86    0.56
  -2   4   7   24.94    0.96
  -1   4   7   38.76    1.18
   0   4   7   44.20    1.26
   1   4   7   32.40    1.12
   2   4   7    4.51    0.53
   3   4   7   30.99    1.15
   4   4   7    1.83    0.47
   5   4   7   -0.12    0.34
   6   4   7    1.80    0.52
   7   4   7    1.28    0.51
   8   4   7   11.18    1.00
   9   4   7    0.74    0.56
  10   4   7   16.68    1.19
  11   5  -7    0.80    0.52
  10   5  -7    0.04    0.43
   9   5  -7   64.15    1.80
   8   5  -7  117.66    2.29
  -6   5   7   29.97    1.13
  -6  -5   7   30.35    1.12
  -5   5   7    0.60    0.36
  -4   5   7   30.06    1.06
  -3   5   7   -0.03    0.30
  -2   5   7   -0.08    0.27
  -1   5   7    2.57    0.44
   0   5   7   11.33    0.77
   1   5   7   11.58    0.78
   2   5   7    8.00    0.75
   3   5   7    1.38    0.43
   4   5   7   26.38    1.19
   5   5   7   10.36    0.87
   6   5   7    0.92    0.45
   7   5   7    0.11    0.45
   8   5   7    1.94    0.60
   9   5   7    5.04    0.81
   9   6  -7   68.90    1.90
   8   6  -7   28.05    1.23
  -3   6   7   33.78    1.18
  -2   6   7   10.56    0.77
  -1   6   7    8.26    0.72
   0   6   7    6.93    0.71
   1   6   7    0.54    0.39
   2   6   7   10.80    0.84
   3   6   7    1.50    0.47
   4   6   7    0.42    0.44
   5   6   7    0.92    0.48
   6   6   7   41.43    1.61
   7   6   7    0.47    0.50
   1   7   7   34.11    1.33
   2   7   7   15.43    1.01
   3   7   7   21.27    1.20
   4   7   7   15.01    1.07
   5   7   7    1.14    0.55
 -13   0   8    0.23    0.49
 -12   0   8   16.87    1.07
 -11   0   8   -0.10    0.37
 -10   0   8   19.84    1.05
  -9   0   8    0.06    0.35
  -8   0   8    1.67    0.43
  -7   0   8    0.21    0.31
  -6   0   8    6.16    0.61
  -5   0   8    0.07    0.27
  -4   0   8    0.34    0.28
  -3   0   8    0.08    0.25
  -2   0   8  886.95    6.61
  -1   0   8    0.11    0.28
   0   0   8  452.59    4.14
   1   0   8   -0.15    0.26
   2   0   8   11.07    0.71
   3   0   8    0.24    0.28
   4   0   8   70.65    1.59
   5   0   8   -0.08    0.29
   6   0   8   97.29    1.99
   7   0   8   -0.01    0.34
   8   0   8   25.80    1.16
   9   0   8   -0.20    0.41
  10   0   8    0.46    0.46
  11   0   8   -0.22    0.45
 -13   1   8    3.88    0.69
 -13  -1   8    3.06    0.68
 -12   1   8    9.00    0.88
 -12  -1   8    8.45    0.89
 -11   1   8    7.27    0.79
 -11  -1   8    7.32    0.80
 -10   1   8   24.48    1.15
 -10  -1   8   23.33    1.14
  -9   1   8   46.61    1.47
  -9  -1   8   48.61    1.52
  -8   1   8   56.97    1.56
  -8  -1   8   53.83    1.51
  -7   1   8    3.32    0.50
  -7  -1   8    3.69    0.51
  -6   1   8   55.60    1.44
  -6  -1   8   56.31    1.44
  -5   1   8   61.21    1.45
  -5  -1   8   62.21    1.45
  -4   1   8    0.09    0.25
  -4  -1   8    0.23    0.26
  -3   1   8   55.88    1.34
  -3  -1   8   56.74    1.32
  -2   1   8   59.87    1.38
  -2  -1   8   61.45    1.36
  -1   1   8    0.18    0.27
  -1  -1   8    0.05    0.24
   0   1   8  325.88    3.45
   0  -1   8  323.75    3.28
   1   1   8  301.74    3.40
   1  -1   8  300.35    3.15
   2   1   8   31.51    1.09
   2  -1   8   31.45    1.01
   3   1   8   41.19    1.25
   3  -1   8   42.67    1.18
   4   1   8    6.30    0.63
   4  -1   8    6.53    0.61
   5   1   8   10.45    0.76
   5  -1   8   10.24    0.71
   6   1   8    7.60    0.73
   6  -1   8    7.10    0.64
   7   1   8   27.29    1.18
   7  -1   8   28.69    1.14
   8   1   8    3.13    0.59
   9   1   8    7.46    0.87
  10   1   8    2.49    0.63
  11   1   8   14.49    1.10
 -12   2   8   39.07    1.52
 -12  -2   8   39.53    1.60
 -11   2   8    6.53    0.78
 -11  -2   8    6.78    0.81
 -10   2   8   80.32    1.98
 -10  -2   8   79.48    2.03
  -9   2   8    0.82    0.40
  -9  -2   8    0.60    0.40
  -8   2   8    0.63    0.37
  -8  -2   8    0.58    0.38
  -7   2   8    3.08    0.50
  -7  -2   8    3.47    0.50
  -6   2   8   10.95    0.73
  -6  -2   8   10.65    0.74
  -5   2   8  311.31    3.55
  -5  -2   8  308.95    3.46
  -4   2   8  239.01    2.99
  -4  -2   8  239.01    2.90
  -3   2   8  490.14    4.57
  -3  -2   8  487.63    4.38
  -2   2   8   31.82    1.09
  -2  -2   8   32.67    1.01
  -1   2   8    0.37    0.29
  -1  -2   8    0.56    0.27
   0   2   8    1.60    0.38
   0  -2   8    2.71    0.38
   1   2   8    5.24    0.57
   1  -2   8    5.64    0.57
   2   2   8   16.60    0.87
   2  -2   8   16.50    0.75
   3   2   8   20.20    0.96
   3  -2   8   20.16    0.84
   4   2   8    7.18    0.70
   5   2   8    4.55    0.59
   6   2   8    0.91    0.42
   7   2   8    1.83    0.49
   8   2   8   20.74    1.14
   9   2   8    1.73    0.57
  10   2   8   11.49    1.07
 -12   3   8    0.12    0.45
 -12  -3   8   -0.28    0.48
 -11   3   8    2.68    0.63
 -11  -3   8    1.50    0.54
 -10   3   8   22.50    1.14
 -10  -3   8   22.04    1.16
  -9   3   8   22.70    1.09
  -9  -3   8   24.09    1.15
  -8   3   8    0.48    0.36
  -8  -3   8    0.18    0.37
  -7   3   8   19.38    0.95
  -7  -3   8   19.97    0.99
  -6   3   8   92.79    1.90
  -6  -3   8   90.91    1.87
  -5   3   8   22.61    1.00
  -5  -3   8   22.06    0.94
  -4   3   8    6.18    0.72
  -4  -3   8    6.71    0.61
  -3   3   8    5.04    0.62
  -3  -3   8    5.33    0.53
  -2   3   8   -0.04    0.26
  -2  -3   8   -0.04    0.25
  -1   3   8    0.36    0.30
  -1  -3   8    0.28    0.27
   0   3   8   89.78    1.85
   1   3   8   64.13    1.58
   2   3   8    2.51    0.48
   3   3   8  160.80    2.65
   4   3   8   38.76    1.37
   5   3   8   33.17    1.32
   6   3   8   17.63    1.04
   7   3   8    4.41    0.68
   8   3   8   43.68    1.64
   9   3   8    6.56    0.84
  10   3   8   23.48    1.38
 -11   4   8    1.58    0.54
 -11  -4   8    0.71    0.55
 -10   4   8   33.15    1.32
 -10  -4   8   32.88    1.43
  -9   4   8    1.88    0.50
  -9  -4   8    1.40    0.51
  -8   4   8   68.40    1.74
  -8  -4   8   70.18    1.83
  -7   4   8   63.43    1.65
  -7  -4   8   61.85    1.64
  -6   4   8  211.40    2.97
  -6  -4   8  208.41    2.90
  -5   4   8   10.78    0.82
  -5  -4   8   10.89    0.75
  -4   4   8    5.11    0.58
  -4  -4   8    4.75    0.58
  -3   4   8    4.69    0.53
  -2   4   8   98.97    1.97
  -1   4   8   11.31    0.76
   0   4   8    0.89    0.37
   1   4   8    0.01    0.30
   2   4   8   -0.22    0.29
   3   4   8   -0.15    0.33
   4   4   8    6.47    0.76
   5   4   8   85.89    2.10
   6   4   8   13.73    1.01
   8   4   8    0.94    0.52
   9   4   8    0.10    0.49
 -10  -5   8   26.82    1.35
  -9  -5   8   86.74    2.14
  -8  -5   8   21.85    1.18
  -7   5   8  127.34    2.35
  -7  -5   8  128.19    2.40
  -6   5   8   12.98    0.90
  -5   5   8   -0.15    0.32
  -4   5   8    5.12    0.60
  -3   5   8   12.20    0.81
  -2   5   8   32.15    1.19
  -1   5   8   33.47    1.24
   0   5   8   20.09    1.00
   1   5   8   10.33    0.80
   2   5   8    0.00    0.34
   3   5   8    2.48    0.53
   4   5   8    0.02    0.40
   5   5   8   -0.14    0.41
   6   5   8   17.39    1.14
   7   5   8    4.76    0.77
   8   5   8    7.08    0.91
  -4   6   8   16.99    0.94
  -3   6   8   28.90    1.15
  -2   6   8    4.01    0.57
  -1   6   8   -0.09    0.35
   0   6   8    0.22    0.36
   1   6   8   24.14    1.15
   2   6   8   17.05    1.06
   3   6   8   38.49    1.49
   4   6   8   68.82    2.00
   5   6   8   21.03    1.22
   6   6   8   -0.08    0.46
   0   7   8    0.22    0.43
   1   7   8   12.34    0.96
   2   7   8   31.78    1.38
   3   7   8    0.80    0.49
   4   7   8   -0.14    0.47
 -12   0   9    0.13    0.47
 -11   0   9   14.40    1.02
 -10   0   9    0.15    0.42
  -9   0   9  104.60    2.26
  -8   0   9   -0.15    0.32
  -7   0   9   99.68    2.07
  -6   0   9   -0.05    0.29
  -5   0   9    4.74    0.55
  -4   0   9   -0.13    0.27
  -3   0   9    0.37    0.30
  -2   0   9   -0.12    0.27
  -1   0   9  274.15    3.21
   0   0   9   -0.19    0.29
   1   0   9  150.45    2.35
   2   0   9    0.00    0.30
   3   0   9   71.69    1.68
   4   0   9   -0.05    0.33
   5   0   9   27.63    1.12
   6   0   9    0.13    0.35
   7   0   9    1.51    0.50
   8   0   9   -0.12    0.42
   9   0   9    1.20    0.54
  10   0   9   -0.10    0.48
 -12   1   9    5.53    0.78
 -12  -1   9    5.45    0.79
 -11   1   9   10.11    0.91
 -11  -1   9    8.43    0.89
 -10   1   9    0.08    0.39
 -10  -1   9   -0.22    0.38
  -9   1   9    0.06    0.39
  -9  -1   9    0.16    0.38
  -8   1   9   50.56    1.54
  -8  -1   9   50.41    1.54
  -7   1   9    0.32    0.32
  -7  -1   9    0.29    0.35
  -6   1   9    2.65    0.48
  -6  -1   9    2.90    0.48
  -5   1   9   15.24    0.83
  -5  -1   9   16.27    0.84
  -4   1   9   62.08    1.53
  -4  -1   9   65.23    1.53
  -3   1   9  220.65    2.93
  -3  -1   9  217.48    2.83
  -2   1   9  113.92    2.04
  -2  -1   9  111.06    1.95
  -1   1   9  373.74    3.97
  -1  -1   9  373.99    3.84
   0   1   9  143.49    2.32
   0  -1   9  141.36    2.19
   1   1   9   32.54    1.14
   1  -1   9   31.64    1.09
   2   1   9   55.76    1.50
   2  -1   9   54.46    1.40
   3   1   9    1.06    0.40
   3  -1   9    0.89    0.39
   4   1   9   24.76    1.09
   4  -1   9   25.23    1.02
   5   1   9   49.42    1.53
   5  -1   9   49.14    1.41
   6   1   9    4.83    0.63
   6  -1   9    5.41    0.63
   7   1   9   20.69    1.12
   8   1   9   15.26    1.07
   9   1   9   10.64    1.00
  10   1   9    0.91    0.52
 -12   2   9   18.08    1.17
 -12  -2   9   17.52    1.22
 -11   2   9   14.65    1.04
 -11  -2   9   16.14    1.12
 -10   2   9    1.50    0.52
 -10  -2   9    1.16    0.50
  -9   2   9    2.71    0.54
  -9  -2   9    3.20    0.60
  -8   2   9    6.86    0.73
  -8  -2   9    6.25    0.70
  -7   2   9   -0.26    0.31
  -7  -2   9   -0.09    0.34
  -6   2   9   27.08    1.11
  -6  -2   9   26.80    1.09
  -5   2   9   15.99    0.90
  -5  -2   9   14.20    0.83
  -4   2   9   85.27    1.85
  -4  -2   9   84.30    1.75
  -3   2   9   24.59    1.06
  -3  -2   9   24.83    0.98
  -2   2   9    1.66    0.42
  -2  -2   9    1.13    0.34
  -1   2   9    3.70    0.51
  -1  -2   9    3.88    0.46
   0   2   9   21.43    0.98
   0  -2   9   22.08    0.94
   1   2   9   71.07    1.72
   1  -2   9   71.42    1.52
   2   2   9  407.07    4.50
   2  -2   9  407.95    4.02
   3   2   9   80.82    1.89
   4   2   9   56.98    1.66
   5   2   9    0.15    0.39
   6   2   9   11.36    0.92
   7   2   9    2.65    0.60
   8   2   9    9.41    0.92
   9   2   9   40.54    1.67
 -11   3   9   13.07    0.99
 -11  -3   9   13.28    1.05
 -10   3   9    6.18    0.74
 -10  -3   9    6.65    0.79
  -9   3   9   15.65    0.99
  -9  -3   9   15.21    1.00
  -8   3   9    0.52    0.38
  -8  -3   9    0.16    0.40
  -7   3   9   10.49    0.81
  -7  -3   9    9.96    0.81
  -6   3   9   92.63    2.00
  -6  -3   9   92.41    1.96
  -5   3   9   21.53    1.04
  -5  -3   9   20.11    0.96
  -4   3   9  133.94    2.33
  -4  -3   9  131.64    2.20
  -3   3   9   14.85    0.92
  -3  -3   9   15.28    0.81
  -2   3   9    3.67    0.52
  -2  -3   9    3.62    0.47
  -1   3   9   65.69    1.66
  -1  -3   9   67.07    1.44
   0   3   9    7.93    0.71
   1   3   9   34.00    1.25
   2   3   9   -0.06    0.33
   3   3   9   21.70    1.08
   4   3   9    8.08    0.82
   5   3   9    1.07    0.49
   6   3   9   11.05    0.95
   7   3   9   56.70    1.84
   8   3   9    7.86    0.92
   9   3   9   43.82    1.76
 -10   4   9    0.38    0.45
 -10  -4   9    0.45    0.49
  -9   4   9   -0.09    0.41
  -9  -4   9    0.08    0.45
  -8   4   9   39.68    1.44
  -8  -4   9   41.38    1.48
  -7   4   9    0.99    0.44
  -7  -4   9    0.88    0.46
  -6   4   9   33.38    1.30
  -6  -4   9   32.16    1.23
  -5   4   9    5.85    0.72
  -5  -4   9    5.61    0.62
  -4   4   9    9.69    0.78
  -3   4   9   17.05    0.93
  -2   4   9    3.10    0.52
  -1   4   9    0.14    0.34
   0   4   9   24.36    1.10
   1   4   9   25.26    1.16
   2   4   9    2.77    0.55
   3   4   9   71.04    1.91
   4   4   9   53.70    1.75
   5   4   9  129.02    2.72
   6   4   9   42.47    1.66
   7   4   9   25.04    1.35
   8   4   9   -0.07    0.50
  -9  -5   9   35.74    1.48
  -8   5   9    4.21    0.65
  -8  -5   9    3.94    0.68
  -7   5   9   12.06    0.94
  -6   5   9   -0.36    0.35
  -5   5   9   -0.06    0.36
  -4   5   9    2.22    0.50
  -3   5   9    0.59    0.39
  -2   5   9    1.29    0.46
  -1   5   9   16.99    0.99
   0   5   9   80.80    2.00
   1   5   9    6.00    0.73
   2   5   9   22.54    1.16
   3   5   9   21.13    1.16
   4   5   9   24.85    1.29
   5   5   9   11.79    0.99
   6   5   9   99.34    2.54
   7   5   9   12.94    1.14
  -5   6   9   32.24    1.30
  -4   6   9   16.24    0.98
  -3   6   9    4.11    0.60
  -2   6   9   14.14    0.94
  -1   6   9    5.33    0.68
   0   6   9    0.58    0.44
   1   6   9    1.14    0.49
   2   6   9    2.82    0.62
   3   6   9   31.53    1.45
   4   6   9    3.73    0.70
   5   6   9   -0.48    0.48
  -1   7   9   12.46    0.96
   0   7   9    2.81    0.60
   1   7   9    0.86    0.53
   2   7   9   16.64    1.13
 -11   0  10   -0.41    0.43
 -10   0  10    0.30    0.44
  -9   0  10   -0.21    0.38
  -8   0  10    0.09    0.38
  -7   0  10   -0.10    0.34
  -6   0  10    9.32    0.80
  -5   0  10   -0.25    0.30
  -4   0  10    0.50    0.35
  -3   0  10    0.05    0.30
  -2   0  10   64.58    1.62
  -1   0  10    0.38    0.36
   0   0  10  115.74    2.14
   1   0  10   -0.16    0.32
   2   0  10   31.48    1.20
   3   0  10    0.24    0.35
   4   0  10    9.60    0.80
   5   0  10    0.10    0.38
   6   0  10   81.51    2.03
   7   0  10   -0.12    0.44
   8   0  10    5.59    0.75
   9   0  10    0.09    0.51
 -11   1  10    2.19    0.61
 -11  -1  10    2.13    0.61
 -10   1  10    0.48    0.47
 -10  -1  10    0.72    0.49
  -9   1  10    2.83    0.57
  -9  -1  10    2.30    0.57
  -8   1  10    2.77    0.57
  -8  -1  10    2.70    0.55
  -7   1  10   30.82    1.28
  -7  -1  10   31.46    1.25
  -6   1  10    1.37    0.46
  -6  -1  10    0.75    0.37
  -5   1  10    0.95    0.40
  -5  -1  10    1.93    0.46
  -4   1  10    2.29    0.47
  -4  -1  10    2.66    0.48
  -3   1  10    8.38    0.77
  -3  -1  10    8.37    0.71
  -2   1  10    3.09    0.49
  -2  -1  10    2.72    0.46
  -1   1  10    0.27    0.32
  -1  -1  10   -0.05    0.30
   0   1  10   40.69    1.34
   0  -1  10   41.37    1.28
   1   1  10   36.22    1.28
   1  -1  10   36.75    1.22
   2   1  10   30.10    1.19
   2  -1  10   30.55    1.15
   3   1  10   10.80    0.83
   3  -1  10   11.56    0.81
   4   1  10   13.53    0.91
   4  -1  10   13.69    0.86
   5   1  10   12.66    0.92
   5  -1  10   11.21    0.84
   6   1  10    0.79    0.46
   6  -1  10    1.13    0.46
   7   1  10    3.64    0.65
   8   1  10   16.32    1.13
   9   1  10    0.20    0.51
 -11   2  10    0.83    0.53
 -11  -2  10    0.49    0.51
 -10   2  10    2.10    0.58
 -10  -2  10    2.58    0.62
  -9   2  10   16.24    1.04
  -9  -2  10   15.38    1.03
  -8   2  10    1.65    0.50
  -8  -2  10    1.26    0.48
  -7   2  10    0.38    0.39
  -7  -2  10    0.32    0.38
  -6   2  10    8.64    0.79
  -6  -2  10    8.26    0.76
  -5   2  10   15.40    0.93
  -5  -2  10   14.56    0.89
  -4   2  10   15.25    0.97
  -4  -2  10   14.74    0.88
  -3   2  10    1.51    0.44
  -3  -2  10    1.30    0.42
  -2   2  10    8.74    0.74
  -2  -2  10    9.00    0.71
  -1   2  10   10.94    0.81
  -1  -2  10    9.96    0.74
   0   2  10    1.34    0.44
   0  -2  10    1.06    0.38
   1   2  10   45.01    1.47
   1  -2  10   43.27    1.30
   2   2  10   43.52    1.46
   2  -2  10   42.75    1.30
   3   2  10    4.79    0.64
   4   2  10   13.55    0.98
   5   2  10   23.29    1.20
   6   2  10    0.15    0.42
   7   2  10    1.18    0.56
   8   2  10   28.14    1.46
 -10   3  10    0.50    0.48
 -10  -3  10    0.89    0.52
  -9   3  10    2.74    0.60
  -9  -3  10    2.71    0.62
  -8   3  10   11.11    0.90
  -8  -3  10   11.19    0.92
  -7   3  10    0.44    0.41
  -7  -3  10    0.51    0.42
  -6   3  10   13.26    0.93
  -6  -3  10   13.81    0.92
  -5   3  10   -0.03    0.36
  -5  -3  10    0.15    0.32
  -4   3  10    2.75    0.52
  -4  -3  10    2.86    0.51
  -3   3  10   21.64    1.06
  -3  -3  10   22.54    1.00
  -2   3  10   27.18    1.16
  -2  -3  10   27.19    1.05
  -1   3  10    1.59    0.47
   0   3  10    0.46    0.38
   1   3  10    9.22    0.82
   2   3  10    3.22    0.56
   3   3  10  116.71    2.48
   4   3  10   92.54    2.25
   5   3  10   17.04    1.12
   6   3  10    5.82    0.78
   7   3  10    6.63    0.85
   8   3  10    4.54    0.78
  -9   4  10    0.64    0.49
  -9  -4  10   -0.02    0.48
  -8   4  10    8.76    0.88
  -8  -4  10    9.68    0.92
  -7   4  10    1.05    0.49
  -7  -4  10    0.98    0.48
  -6   4  10    0.51    0.42
  -6  -4  10    0.34    0.42
  -5   4  10    0.25    0.40
  -5  -4  10   -0.02    0.37
  -4   4  10   17.49    1.01
  -3   4  10   14.68    0.94
  -2   4  10    3.97    0.61
  -1   4  10   32.60    1.32
   0   4  10   -0.16    0.35
   1   4  10    2.50    0.54
   2   4  10    8.48    0.84
   3   4  10    7.57    0.83
   4   4  10    4.00    0.69
   5   4  10    7.44    0.88
   6   4  10    0.61    0.50
   7   4  10   18.86    1.29
  -8   5  10   -0.04    0.43
  -8  -5  10   -0.19    0.48
  -7   5  10    0.82    0.47
  -6   5  10    6.62    0.76
  -5   5  10   19.75    1.10
  -4   5  10   -0.02    0.39
  -3   5  10    0.14    0.38
  -2   5  10    7.20    0.77
  -1   5  10   10.84    0.90
   0   5  10   -0.08    0.40
   1   5  10    5.66    0.72
   2   5  10    1.90    0.56
   3   5  10    0.30    0.47
   4   5  10    8.06    0.95
   5   5  10   65.48    2.11
  -6   6  10    0.45    0.46
  -5   6  10    2.21    0.56
  -4   6  10    0.61    0.46
  -3   6  10    5.57    0.72
  -2   6  10   10.65    0.92
  -1   6  10    2.34    0.58
   0   6  10   30.09    1.39
   1   6  10   14.38    1.07
   2   6  10   21.43    1.29
   3   6  10    8.10    0.95
 -11   0  11  234.39    3.88
 -10   0  11    0.01    0.48
  -9   0  11    8.19    0.82
  -8   0  11   -0.45    0.40
  -7   0  11    4.30    0.65
  -6   0  11    0.25    0.38
  -5   0  11   30.97    1.27
  -4   0  11   -0.05    0.34
  -3   0  11   12.04    0.86
  -2   0  11   -0.09    0.33
  -1   0  11   40.72    1.39
   0   0  11   -0.12    0.34
   1   0  11    0.26    0.36
   2   0  11   -0.27    0.33
   3   0  11    0.28    0.41
   4   0  11   -0.26    0.37
   5   0  11    2.12    0.55
   6   0  11   -0.09    0.44
   7   0  11    0.07    0.50
   8   0  11   -0.32    0.49
 -10   1  11   -0.23    0.47
 -10  -1  11    0.40    0.48
  -9   1  11    0.08    0.44
  -9  -1  11   -0.02    0.41
  -8   1  11   10.97    0.96
  -8  -1  11   11.45    0.93
  -7  -1  11   33.06    1.38
  -6   1  11    7.90    0.80
  -6  -1  11    8.93    0.83
  -5   1  11   28.46    1.25
  -5  -1  11   28.74    1.22
  -4   1  11    0.20    0.38
  -4  -1  11    0.77    0.41
  -3   1  11    7.81    0.77
  -3  -1  11    7.56    0.74
  -2   1  11    5.13    0.63
  -2  -1  11    4.18    0.56
  -1   1  11    7.37    0.76
  -1  -1  11    8.25    0.76
   0   1  11    7.69    0.76
   0  -1  11    7.52    0.73
   1   1  11    0.63    0.43
   1  -1  11    0.56    0.41
   2   1  11    0.00    0.40
   2  -1  11    0.17    0.39
   3   1  11    3.06    0.58
   3  -1  11    3.39    0.58
   4   1  11   12.05    0.94
   4  -1  11   11.90    0.88
   5   1  11    1.66    0.53
   5  -1  11    1.97    0.53
   6   1  11    1.49    0.55
   7   1  11    7.58    0.90
   8   1  11   13.48    1.12
 -10   2  11   32.21    1.48
 -10  -2  11   30.32    1.47
  -9   2  11    6.94    0.82
  -9  -2  11    6.62    0.81
  -8   2  11   45.43    1.64
  -8  -2  11   46.72    1.63
  -7   2  11    1.25    0.48
  -7  -2  11    1.60    0.47
  -6   2  11   10.02    0.87
  -6  -2  11   10.57    0.87
  -5   2  11   26.38    1.22
  -5  -2  11   25.47    1.16
  -4   2  11   19.62    1.08
  -4  -2  11   18.25    1.01
  -3   2  11    3.31    0.59
  -3  -2  11    3.20    0.54
  -2   2  11    0.16    0.36
  -2  -2  11    0.18    0.38
  -1   2  11   30.28    1.28
  -1  -2  11   29.60    1.18
   0   2  11    2.29    0.52
   0  -2  11    2.40    0.49
   1   2  11    1.78    0.49
   1  -2  11    2.07    0.49
   2   2  11    3.76    0.64
   3   2  11    3.45    0.62
   4   2  11   19.18    1.17
   5   2  11    7.13    0.86
   6   2  11   -0.23    0.45
   7   2  11    3.11    0.74
  -9   3  11   18.20    1.14
  -9  -3  11   17.36    1.15
  -8   3  11   32.53    1.42
  -8  -3  11   30.87    1.39
  -7   3  11   17.93    1.12
  -7  -3  11   17.81    1.07
  -6   3  11    0.98    0.47
  -6  -3  11    1.16    0.48
  -5   3  11    0.70    0.43
  -5  -3  11    0.37    0.42
  -4   3  11   -0.09    0.36
  -4  -3  11    0.02    0.39
  -3   3  11   10.99    0.87
  -3  -3  11   10.77    0.82
  -2   3  11    1.38    0.48
  -2  -3  11    1.93    0.48
  -1   3  11   14.80    0.98
   0   3  11    6.55    0.77
   1   3  11    3.52    0.63
   2   3  11    0.31    0.43
   3   3  11   10.89    0.94
   4   3  11   15.09    1.13
   5   3  11   20.69    1.27
   6   3  11    0.25    0.50
  -8   4  11    2.83    0.65
  -8  -4  11    2.65    0.64
  -7   4  11    1.41    0.54
  -7  -4  11    1.19    0.52
  -6   4  11    0.24    0.44
  -6  -4  11    0.08    0.45
  -5   4  11    4.00    0.65
  -4   4  11   15.36    1.02
  -3   4  11   23.72    1.20
  -2   4  11    8.66    0.84
  -1   4  11    0.35    0.42
   0   4  11    1.03    0.49
   1   4  11   -0.07    0.42
   2   4  11    0.06    0.42
   3   4  11    0.26    0.46
   4   4  11    4.09    0.75
   5   4  11   15.17    1.19
  -6   5  11   23.17    1.22
  -5   5  11    5.05    0.72
  -4   5  11    7.13    0.81
  -3   5  11    3.77    0.66
  -2   5  11    6.63    0.81
  -1   5  11   13.13    1.02
   0   5  11   25.89    1.34
   1   5  11   70.42    2.09
   2   5  11   50.52    1.85
   3   5  11    5.73    0.85
   4   5  11    8.69    1.02
  -2   6  11   11.29    1.02
  -1   6  11   31.57    1.47
   0   6  11   32.10    1.51
  -9   0  12   -0.44    0.48
  -8   0  12    0.49    0.50
  -7   0  12   -0.10    0.43
  -6   0  12   89.57    2.21
  -5   0  12    0.03    0.43
  -4   0  12  111.01    2.37
  -3   0  12   -0.09    0.39
  -2   0  12   14.91    0.99
  -1   0  12    0.12    0.38
   0   0  12    0.20    0.41
   1   0  12   -0.37    0.37
   2   0  12   42.95    1.56
   3   0  12    0.29    0.47
   4   0  12   29.82    1.36
   5   0  12    0.10    0.46
   6   0  12   -0.26    0.47
  -9   1  12  149.55    3.06
  -9  -1  12  151.93    3.09
  -8   1  12    1.14    0.56
  -8  -1  12    1.75    0.60
  -7   1  12   10.54    0.96
  -7  -1  12   10.79    0.97
  -6   1  12    9.97    0.90
  -6  -1  12    9.60    0.91
  -5   1  12    0.43    0.44
  -5  -1  12   -0.21    0.38
  -4   1  12    0.22    0.40
  -4  -1  12    0.09    0.40
  -3   1  12   28.04    1.27
  -3  -1  12   28.44    1.26
  -2   1  12    0.42    0.40
  -2  -1  12    0.37    0.40
  -1   1  12   26.16    1.23
  -1  -1  12   27.32    1.20
   0   1  12   14.73    1.00
   0  -1  12   15.17    0.99
   1   1  12   45.43    1.62
   1  -1  12   46.91    1.55
   2   1  12   17.19    1.09
   2  -1  12   17.69    1.04
   3   1  12    7.07    0.82
   3  -1  12    7.42    0.81
   4   1  12    0.44    0.48
   4  -1  12    0.32    0.46
   5   1  12    6.23    0.81
   6   1  12    9.96    1.01
  -9   2  12    0.81    0.54
  -9  -2  12    0.50    0.53
  -8   2  12    7.27    0.85
  -8  -2  12    6.95    0.84
  -7   2  12   50.70    1.76
  -7  -2  12   49.77    1.72
  -6   2  12    7.92    0.89
  -6  -2  12    7.37    0.85
  -5   2  12    4.26    0.65
  -5  -2  12    5.08    0.69
  -4   2  12    8.04    0.85
  -4  -2  12    7.98    0.81
  -3   2  12   12.99    0.97
  -3  -2  12   11.60    0.88
  -2   2  12   21.56    1.17
  -2  -2  12   20.91    1.07
  -1   2  12    2.44    0.57
  -1  -2  12    2.34    0.54
   0   2  12    7.51    0.83
   0  -2  12    7.16    0.75
   1   2  12   42.03    1.59
   1  -2  12   40.14    1.41
   2   2  12    0.65    0.49
   3   2  12    3.19    0.66
   4   2  12   13.39    1.07
   5   2  12   95.88    2.52
   6   2  12   27.42    1.49
  -8   3  12   15.55    1.14
  -8  -3  12   17.11    1.16
  -7   3  12   79.66    2.25
  -7  -3  12   79.66    2.15
  -6   3  12   50.99    1.77
  -6  -3  12   51.89    1.71
  -5   3  12    2.26    0.63
  -5  -3  12    2.25    0.59
  -4   3  12   20.61    1.17
  -4  -3  12   21.57    1.12
  -3   3  12   21.94    1.20
  -3  -3  12   21.25    1.09
  -2   3  12   85.08    2.24
  -1   3  12    1.21    0.54
   0   3  12   24.81    1.30
   1   3  12    8.01    0.89
   2   3  12    0.62    0.52
   3   3  12    0.05    0.45
   4   3  12    1.66    0.61
   5   3  12    8.38    0.99
  -6   4  12   12.94    1.06
  -6  -4  12   14.32    1.07
  -4   4  12    1.47    0.57
  -3   4  12   21.36    1.25
  -2   4  12    5.66    0.77
  -1   4  12    4.46    0.72
   0   4  12    1.37    0.59
   1   4  12   45.59    1.75
   2   4  12  119.92    2.83
   3   4  12   78.26    2.31
  -4   5  12   10.84    0.98
  -3   5  12    0.81    0.54
  -2   5  12   -0.08    0.44
  -1   5  12   34.79    1.60
   0   5  12   22.40    1.34
   1   5  12   64.16    2.13
  -8   0  13   -0.36    0.50
  -7   0  13   47.06    1.73
  -6   0  13   -0.11    0.44
  -5   0  13    0.86    0.52
  -4   0  13   -0.26    0.42
  -3   0  13   16.92    1.10
  -2   0  13   -0.31    0.40
  -1   0  13    3.25    0.64
   0   0  13   -0.15    0.42
   1   0  13  130.06    2.78
   2   0  13    0.06    0.48
   3   0  13   94.69    2.38
   4   0  13   -0.17    0.50
  -8   1  13    4.50    0.78
  -8  -1  13    4.88    0.80
  -7   1  13    2.19    0.63
  -7  -1  13    2.56    0.67
  -6   1  13   15.02    1.09
  -6  -1  13   14.60    1.10
  -5   1  13   45.12    1.70
  -5  -1  13   44.94    1.64
  -4   1  13    5.01    0.74
  -4  -1  13    5.97    0.76
  -3   1  13   14.11    1.02
  -3  -1  13   15.20    1.02
  -2   1  13   16.56    1.09
  -2  -1  13   17.93    1.07
  -1   1  13    0.33    0.45
  -1  -1  13    0.22    0.44
   0   1  13    1.92    0.56
   0  -1  13    1.23    0.52
   1   1  13    0.60    0.50
   1  -1  13    0.74    0.48
   2   1  13    2.61    0.65
   2  -1  13    1.96    0.59
   3   1  13   18.52    1.22
   3  -1  13   16.47    1.10
   4   1  13   31.53    1.54
   4  -1  13   32.63    1.49
  -7   2  13   31.03    1.53
  -7  -2  13   32.35    1.52
  -6   2  13    3.17    0.69
  -6  -2  13    3.45    0.68
  -5   2  13   -0.36    0.41
  -5  -2  13   -0.54    0.43
  -4   2  13   30.17    1.39
  -4  -2  13   31.18    1.36
  -3   2  13   12.61    1.02
  -3  -2  13   11.30    0.95
  -2   2  13    7.79    0.89
  -2  -2  13    7.32    0.84
  -1   2  13   86.56    2.30
  -1  -2  13   84.14    2.10
   0   2  13   11.48    1.03
   0  -2  13   11.07    0.94
   1   2  13    5.26    0.79
   2   2  13   -0.25    0.45
   3   2  13    0.33    0.50
   4   2  13   11.56    1.06
  -6   3  13   17.68    1.26
  -6  -3  13   16.58    1.17
  -5   3  13    1.87    0.64
  -5  -3  13    1.56    0.58
  -4   3  13    2.75    0.63
  -4  -3  13    3.55    0.65
  -3   3  13   49.27    1.82
  -2   3  13   -0.33    0.47
  -1   3  13   39.20    1.65
   0   3  13    1.41    0.59
   1   3  13    3.27    0.72
   2   3  13    4.50    0.81
  -3   4  13    4.47    0.79
  -2   4  13    0.14    0.51
  -1   4  13    0.42    0.51
   0   4  13   29.07    1.52
  -5   0  14   -0.15    0.49
  -4   0  14   38.97    1.63
  -3   0  14   -0.41    0.45
  -2   0  14    2.91    0.64
  -1   0  14   -0.06    0.49
   0   0  14    5.51    0.80
   1   0  14   -0.03    0.48
   2   0  14    0.70    0.55
  -5   1  14    3.86    0.70
  -5  -1  14    3.48    0.72
  -4   1  14    0.05    0.46
  -4  -1  14    0.54    0.51
  -3   1  14    0.52    0.51
  -3  -1  14    0.26    0.49
  -2   1  14   28.26    1.44
  -2  -1  14   28.07    1.38
  -1   1  14   -0.03    0.50
  -1  -1  14    0.36    0.49
   0   1  14   27.46    1.44
   0  -1  14   24.85    1.32
   1   1  14    1.37    0.61
   1  -1  14    1.10    0.55
  -4   2  14   -0.09    0.46
  -4  -2  14   -0.27    0.47
  -3   2  14    1.64    0.59
  -3  -2  14    1.75    0.62
  -2   2  14    7.69    0.91
  -2  -2  14    8.12    0.91
  -1   2  14    0.35    0.48
  -1  -2  14   -0.06    0.47
   0   2  14    4.95    0.80
   7   0   0   -0.04    0.20
   8   0   0   67.57    1.35
   9   0   0   -0.08    0.24
  10   0   0    0.25    0.30
  11   0   0   -0.11    0.31
  12   0   0   18.63    0.99
  13   0   0    0.13    0.41
  14   0   0    0.63    0.49
   6  -1   0  370.93    3.25
   7   1   0   10.23    0.56
   7  -1   0   10.08    0.58
   8   1   0   80.80    1.46
   8  -1   0   81.88    1.53
   9   1   0   20.71    0.84
   9  -1   0   19.96    0.86
  10   1   0   15.81    0.83
  10  -1   0   16.57    0.86
  11   1   0   55.96    1.49
  11  -1   0   56.38    1.54
  12   1   0   11.45    0.87
  12  -1   0   11.80    0.89
  13   1   0    3.25    0.60
  13  -1   0    2.59    0.57
  14   1   0   22.52    1.21
  14  -1   0   22.38    1.22
   6  -2   0   -0.10    0.20
   7   2   0   32.03    0.87
   7  -2   0   32.64    0.97
   8   2   0   41.46    1.06
   8  -2   0   42.55    1.17
   9   2   0    1.65    0.36
   9  -2   0    1.61    0.39
  10   2   0  173.08    2.44
  10  -2   0  170.46    2.60
  11   2   0    0.82    0.38
  11  -2   0    1.32    0.44
  12   2   0   10.24    0.86
  12  -2   0   10.94    0.90
  13   2   0    6.82    0.81
  13  -2   0    7.14    0.83
  14   2   0    0.98    0.49
  14  -2   0    0.67    0.51
   5  -3   0  320.60    3.07
   6  -3   0  231.59    2.62
   7   3   0   22.44    0.78
   7  -3   0   22.90    0.89
   8   3   0   -0.15    0.22
   8  -3   0    0.09    0.30
   9   3   0   -0.04    0.25
   9  -3   0   -0.39    0.30
  10   3   0   31.24    1.10
  10  -3   0   30.37    1.17
  11   3   0   12.84    0.84
  11  -3   0   12.34    0.88
  12   3   0    1.74    0.47
  12  -3   0    1.58    0.51
  13   3   0    0.79    0.45
  13  -3   0    0.47    0.47
   3  -4   0    0.41    0.22
   4  -4   0   69.80    1.31
   5  -4   0    4.79    0.51
   6   4   0   51.52    1.13
   6  -4   0   52.15    1.28
   7   4   0   40.77    1.09
   7  -4   0   39.28    1.19
   8   4   0   64.28    1.38
   8  -4   0   63.38    1.56
   9   4   0   16.45    0.84
   9  -4   0   17.20    0.94
  10   4   0    5.18    0.56
  10  -4   0    5.13    0.65
  11  -4   0    2.54    0.56
  12  -4   0   12.49    0.97
  13  -4   0   -0.59    0.47
   1  -5   0   76.78    1.34
   2  -5   0    0.37    0.25
   3  -5   0   36.26    0.99
   4  -5   0   21.59    0.82
   5  -5   0   57.20    1.35
   6  -5   0    4.34    0.52
   7  -5   0  124.26    2.19
   8  -5   0  106.62    2.11
   9  -5   0    7.51    0.77
  10  -5   0   -0.17    0.41
  11  -5   0   92.24    2.25
  12  -5   0   74.89    2.11
   1  -6   0   58.23    1.28
   2  -6   0    2.90    0.41
   3  -6   0   59.20    1.36
   4  -6   0   -0.03    0.30
   5  -6   0    6.96    0.66
   6  -6   0   35.06    1.22
   7  -6   0   24.40    1.09
   8  -6   0    9.71    0.84
   9  -6   0    0.04    0.45
  10  -6   0   39.63    1.55
  11  -6   0    1.11    0.58
   4  -7   0   36.19    1.23
   5  -7   0    0.13    0.38
   6  -7   0    1.17    0.45
   7  -7   0   -0.05    0.39
   8  -7   0   16.12    1.06
   9  -7   0   79.22    2.12
   7  -8   0   69.47    1.93
  14   0  -1   -0.11    0.44
  13   0  -1    2.53    0.57
  12   0  -1    0.13    0.36
  11   0  -1    3.27    0.51
  10   0  -1   -0.13    0.27
   9   0  -1   80.75    1.60
   8   0  -1    0.05    0.22
   7   0  -1  118.19    1.69
   7   0   1  238.91    2.52
   8   0   1    0.09    0.23
   9   0   1    2.13    0.38
  10   0   1   -0.05    0.28
  11   0   1   26.59    1.11
  12   0   1    0.13    0.38
  13   0   1  112.55    2.34
  14   0   1    0.53    0.46
  14   1  -1   -0.27    0.41
  14  -1  -1    0.01    0.44
  13   1  -1    3.28    0.59
  13  -1  -1    2.83    0.57
  12   1  -1    1.58    0.46
  12  -1  -1    1.93    0.49
  11   1  -1    4.15    0.55
  11  -1  -1    4.22    0.56
  10   1  -1    4.84    0.53
  10  -1  -1    4.23    0.51
   9   1  -1   30.44    1.00
   9  -1  -1   31.50    1.05
   8   1  -1   26.21    0.89
   8  -1  -1   25.83    0.89
   7   1  -1   15.10    0.65
   7  -1  -1   15.31    0.68
   6  -1  -1    0.26    0.20
   6  -1   1   81.55    1.35
   7   1   1   44.76    1.00
   7  -1   1   46.47    1.09
   8   1   1   64.32    1.31
   8  -1   1   64.31    1.36
   9   1   1   29.37    0.98
   9  -1   1   28.15    0.98
  10   1   1    2.12    0.40
  10  -1   1    2.04    0.44
  11   1   1   35.30    1.20
  11  -1   1   35.72    1.24
  12   1   1   40.24    1.35
  12  -1   1   41.03    1.41
  13   1   1   18.35    1.07
  13  -1   1   18.64    1.10
  14   1   1    5.30    0.74
  14  -1   1    5.02    0.73
  14   2  -1    4.23    0.67
  14  -2  -1    3.87    0.70
  13   2  -1    4.12    0.61
  13  -2  -1    3.70    0.65
  12   2  -1    0.17    0.36
  12  -2  -1    0.12    0.39
  11   2  -1   -0.17    0.32
  11  -2  -1   -0.17    0.33
  10   2  -1    1.07    0.35
  10  -2  -1    0.82    0.37
   9   2  -1    3.20    0.42
   9  -2  -1    2.84    0.44
   8   2  -1    9.71    0.63
   8  -2  -1    8.96    0.60
   7   2  -1    3.48    0.38
   7  -2  -1    4.07    0.47
   6  -2  -1   73.61    1.32
   5  -2   1    1.84    0.30
   6  -2   1    2.68    0.34
   7   2   1    0.13    0.21
   7  -2   1   -0.06    0.23
   8   2   1  103.02    1.64
   8  -2   1  102.12    1.81
   9   2   1    5.02    0.59
   9  -2   1    5.66    0.60
  10   2   1    4.68    0.52
  10  -2   1    4.97    0.57
  11   2   1   -0.03    0.34
  11  -2   1   -0.11    0.34
  12   2   1   25.84    1.15
  12  -2   1   26.20    1.19
  13   2   1    2.45    0.53
  13  -2   1    1.35    0.52
  14   2   1    7.40    0.87
  14  -2   1    6.99    0.83
  13   3  -1    6.74    0.81
  13  -3  -1    6.80    0.78
  12   3  -1    7.64    0.79
  12  -3  -1    7.48    0.81
  11   3  -1    0.25    0.33
  11  -3  -1    0.05    0.37
  10   3  -1    0.00    0.29
  10  -3  -1    0.02    0.33
   9   3  -1    0.75    0.31
   9  -3  -1    0.80    0.36
   8   3  -1   34.26    1.03
   8  -3  -1   33.95    1.09
   7   3  -1   18.82    0.76
   7  -3  -1   19.09    0.81
   6   3  -1    7.38    0.52
   6  -3  -1    7.20    0.55
   5  -3  -1    4.14    0.45
   4  -3   1  378.06    3.34
   5  -3   1  333.22    3.20
   6  -3   1    0.06    0.24
   7   3   1   18.44    0.70
   7  -3   1   19.23    0.85
   8   3   1   31.26    0.93
   8  -3   1   30.99    1.08
   9   3   1  110.18    1.79
   9  -3   1  112.73    2.12
  10   3   1    0.04    0.29
  10  -3   1   -0.38    0.34
  11   3   1   60.00    1.50
  11  -3   1   57.99    1.67
  12   3   1   22.90    1.05
  12  -3   1   22.72    1.16
  13  -3   1    3.92    0.69
  13   4  -1    3.05    0.64
  13  -4  -1    2.12    0.61
  12   4  -1    3.58    0.62
  12  -4  -1    3.49    0.64
  11   4  -1    0.16    0.38
  11  -4  -1    0.04    0.39
  10   4  -1   18.54    0.96
  10  -4  -1   16.66    0.97
   9   4  -1   13.42    0.79
   9  -4  -1   12.66    0.84
   8   4  -1    1.49    0.35
   8  -4  -1    1.71    0.42
   7   4  -1    0.43    0.28
   7  -4  -1    0.39    0.32
   6   4  -1   57.96    1.25
   6  -4  -1   58.94    1.31
   5   4  -1    4.63    0.46
   5  -4  -1    4.33    0.47
   4  -4  -1    2.97    0.36
   3  -4   1    2.28    0.33
   4  -4   1   16.35    0.71
   5  -4   1  346.11    3.47
   6  -4   1  426.37    4.09
   7  -4   1   93.57    1.82
   8  -4   1  116.13    2.12
   9  -4   1    0.03    0.34
  10  -4   1   10.00    0.83
  11  -4   1    0.10    0.41
  12  -4   1   29.52    1.36
  13  -4   1   53.35    1.84
  12  -5  -1    7.46    0.89
  11  -5  -1    1.00    0.51
  10  -5  -1    1.76    0.52
   9  -5  -1    3.55    0.58
   8   5  -1    1.34    0.38
   8  -5  -1    1.16    0.41
   7   5  -1   11.22    0.74
   7  -5  -1   12.09    0.79
   6   5  -1   61.20    1.37
   6  -5  -1   61.01    1.43
   5   5  -1    4.43    0.51
   5  -5  -1    4.86    0.52
   4   5  -1    3.60    0.40
   4  -5  -1    3.43    0.42
   3   5  -1    1.21    0.30
   3  -5  -1    1.33    0.31
   2   5  -1   10.10    0.57
   2  -5  -1    9.66    0.54
   1   5  -1   49.67    1.11
   0  -5   1   19.98    0.76
   1  -5   1  100.22    1.62
   2  -5   1  122.65    1.84
   3  -5   1   -0.08    0.25
   4  -5   1   13.19    0.72
   5  -5   1   37.34    1.16
   6  -5   1   13.19    0.79
   7  -5   1   12.33    0.82
   8  -5   1   16.93    0.96
   9  -5   1    1.39    0.48
  10  -5   1    1.73    0.54
  11  -5   1    1.75    0.58
  12  -5   1   21.28    1.27
  11  -6  -1   64.06    1.99
  10  -6  -1   64.93    1.90
   9  -6  -1   18.05    1.05
   8  -6  -1    2.27    0.51
   7  -6  -1    2.67    0.51
   6  -6  -1   11.96    0.79
   5  -6  -1    6.76    0.65
   4   6  -1   40.85    1.15
   4  -6  -1   42.16    1.18
   3   6  -1   10.51    0.65
   3  -6  -1   10.04    0.66
   2   6  -1    5.33    0.53
  -1  -6   1    6.41    0.60
   0  -6   1   -0.13    0.27
   1  -6   1    6.98    0.62
   2  -6   1   15.98    0.81
   3  -6   1    0.23    0.30
   4  -6   1    6.32    0.64
   5  -6   1   39.83    1.27
   6  -6   1   12.24    0.83
   7  -6   1   53.18    1.56
   8  -6   1   80.98    1.99
   9  -6   1   78.57    2.03
  10  -6   1  132.36    2.72
   9  -7  -1   14.78    1.09
   8  -7  -1    6.25    0.75
   7  -7  -1    4.49    0.64
   6  -7  -1    7.06    0.73
   1  -7   1    4.13    0.52
   2  -7   1    3.30    0.51
   3  -7   1   76.36    1.72
   4  -7   1   29.78    1.18
   5  -7   1   18.17    0.99
   6  -7   1    8.53    0.81
   7  -7   1    1.19    0.50
   8  -7   1    9.81    0.91
   9  -7   1   66.06    1.98
   4  -8   1   -0.29    0.42
   5  -8   1    2.64    0.56
   6  -8   1   11.66    0.95
   7  -8   1    8.13    0.86
  14   0  -2   32.28    1.39
  13   0  -2    0.03    0.41
  12   0  -2   55.83    1.62
  11   0  -2   -0.12    0.32
  10   0  -2  108.72    1.99
   9   0  -2    0.11    0.26
   8   0  -2    3.19    0.40
   7   0  -2    0.06    0.20
   7   0   2    0.02    0.20
   8   0   2  123.37    1.84
   9   0   2   -0.17    0.24
  10   0   2    1.85    0.40
  11   0   2   -0.19    0.33
  12   0   2   34.83    1.30
  13   0   2    0.01    0.41
  14   0   2   48.23    1.65
  14   1  -2    2.63    0.58
  14  -1  -2    2.45    0.60
  13   1  -2    7.59    0.86
  13  -1  -2    7.38    0.86
  12   1  -2    1.62    0.47
  12  -1  -2    1.36    0.46
  11   1  -2   20.28    1.01
  11  -1  -2   21.88    1.05
  10   1  -2   45.65    1.30
  10  -1  -2   44.44    1.33
   9   1  -2   23.47    0.93
   9  -1  -2   23.29    0.94
   8   1  -2   11.96    0.68
   8  -1  -2   11.77    0.68
   7   1  -2   -0.11    0.20
   7  -1  -2    0.24    0.21
   6   1  -2   19.54    0.68
   6  -1  -2   18.47    0.66
   6  -1   2   68.14    1.24
   7   1   2    2.87    0.34
   7  -1   2    2.99    0.38
   8   1   2    0.21    0.23
   8  -1   2    0.38    0.27
   9   1   2   16.12    0.80
   9  -1   2   16.13    0.82
  10   1   2   12.08    0.78
  10  -1   2   11.53    0.77
  11   1   2    5.72    0.59
  11  -1   2    6.00    0.70
  12   1   2    4.10    0.58
  12  -1   2    4.12    0.59
  13   1   2    2.62    0.57
  13  -1   2    2.16    0.55
  14   1   2   21.58    1.20
  14  -1   2   20.43    1.20
  14   2  -2   41.12    1.56
  14  -2  -2   41.84    1.64
  13   2  -2   93.70    2.17
  13  -2  -2   96.16    2.26
  12   2  -2   20.43    1.08
  12  -2  -2   19.62    1.07
  11   2  -2    2.36    0.46
  11  -2  -2    2.50    0.50
  10   2  -2    0.09    0.27
  10  -2  -2   -0.06    0.29
   9   2  -2    0.29    0.27
   9  -2  -2    0.29    0.30
   8   2  -2   10.00    0.65
   8  -2  -2    9.25    0.64
   7   2  -2   32.86    0.94
   7  -2  -2   33.94    0.99
   6   2  -2   32.84    0.88
   6  -2  -2   32.53    0.88
   5  -2   2    0.06    0.20
   6  -2   2   17.92    0.74
   7  -2   2   39.05    1.09
   8   2   2    0.04    0.23
   8  -2   2   -0.22    0.26
   9   2   2    3.00    0.40
   9  -2   2    2.90    0.47
  10   2   2   76.78    1.57
  10  -2   2   76.35    1.76
  11   2   2    0.39    0.37
  11  -2   2   -0.07    0.35
  12   2   2    2.62    0.52
  12  -2   2    2.40    0.56
  13   2   2   -0.05    0.42
  13  -2   2    0.20    0.45
  13   3  -2    6.08    0.75
  13  -3  -2    6.23    0.78
  12   3  -2   13.66    0.95
  12  -3  -2   12.84    0.95
  11   3  -2    0.38    0.35
  11  -3  -2    0.90    0.42
  10   3  -2   41.85    1.30
  10  -3  -2   42.52    1.35
   9   3  -2    7.79    0.68
   9  -3  -2    7.08    0.67
   8   3  -2   32.06    1.05
   8  -3  -2   31.05    1.02
   7   3  -2   53.54    1.25
   7  -3  -2   54.58    1.28
   6   3  -2    7.24    0.52
   6  -3  -2    8.04    0.56
   5   3  -2   17.75    0.69
   5  -3  -2   17.14    0.66
   4  -3   2   48.60    1.09
   5  -3   2  113.25    1.76
   6  -3   2  132.60    1.98
   7  -3   2   -0.05    0.26
   8  -3   2   30.17    1.09
   9  -3   2    1.02    0.38
  10  -3   2   25.91    1.13
  11  -3   2    0.58    0.43
  12  -3   2   12.40    0.96
  13  -3   2    0.43    0.50
  13   4  -2    0.51    0.48
  13  -4  -2    0.49    0.51
  12   4  -2   12.15    0.96
  12  -4  -2   11.93    0.96
  11   4  -2    2.45    0.53
  11  -4  -2    1.90    0.51
  10   4  -2   -0.15    0.33
  10  -4  -2    0.14    0.38
   9   4  -2    2.50    0.44
   9  -4  -2    1.67    0.45
   8   4  -2    1.20    0.37
   8  -4  -2    0.58    0.35
   7   4  -2   10.63    0.69
   7  -4  -2   10.43    0.68
   6   4  -2   25.90    0.91
   6  -4  -2   26.78    0.93
   5   4  -2   30.29    0.93
   5  -4  -2   28.78    0.88
   4   4  -2   53.30    1.17
   4  -4  -2   52.89    1.09
   3   4  -2    0.15    0.20
   1  -4   2   -0.01    0.20
   2  -4   2   14.52    0.68
   3  -4   2   58.54    1.25
   4  -4   2   21.45    0.83
   5  -4   2   60.89    1.39
   6  -4   2   53.15    1.35
   7  -4   2   11.85    0.80
   8  -4   2    6.41    0.65
   9  -4   2    1.69    0.45
  10  -4   2    0.21    0.39
  11  -4   2    8.96    0.86
  12  -4   2    7.05    0.82
  12   5  -2   28.34    1.31
  12  -5  -2   25.77    1.32
  11   5  -2   33.27    1.34
  11  -5  -2   33.23    1.41
  10   5  -2   10.47    0.86
  10  -5  -2    9.04    0.84
   9   5  -2    8.28    0.77
   9  -5  -2    8.41    0.77
   8   5  -2    1.04    0.39
   8  -5  -2    0.76    0.40
   7   5  -2    8.50    0.69
   7  -5  -2    8.90    0.70
   6   5  -2   13.51    0.75
   6  -5  -2   13.35    0.78
   5   5  -2   -0.17    0.25
   5  -5  -2    0.21    0.27
   4   5  -2    2.72    0.38
   4  -5  -2    2.41    0.36
   3   5  -2   21.85    0.84
   3  -5  -2   21.06    0.75
   2   5  -2   15.96    0.73
   1   5  -2   18.62    0.75
   0  -5   2   34.10    1.00
   1  -5   2    3.47    0.42
   2  -5   2  116.55    1.87
   3  -5   2    2.77    0.41
   4  -5   2    0.71    0.33
   5  -5   2    5.40    0.61
   6  -5   2   34.68    1.19
   7  -5   2  135.30    2.38
   8  -5   2  156.35    2.68
   9  -5   2   10.48    0.88
  10  -5   2    8.69    0.83
  11  -5   2    6.57    0.82
  11  -6  -2    5.78    0.81
  10  -6  -2    8.30    0.89
   9  -6  -2    0.93    0.46
   8  -6  -2    3.15    0.57
   7   6  -2    9.98    0.76
   7  -6  -2   10.45    0.82
   6   6  -2   18.16    0.90
   6  -6  -2   16.93    0.88
   5   6  -2   21.42    0.97
   5  -6  -2   22.23    0.92
   4   6  -2    0.58    0.33
   3   6  -2   -0.13    0.28
   2   6  -2    0.38    0.28
  -1  -6   2    1.40    0.36
   0  -6   2   58.41    1.40
   1  -6   2    7.09    0.68
   2  -6   2   47.10    1.32
   3  -6   2   17.63    0.90
   4  -6   2   26.62    1.06
   5  -6   2    2.36    0.47
   6  -6   2    2.22    0.49
   7  -6   2    3.83    0.59
   8  -6   2   16.41    0.99
   9  -6   2    9.54    0.92
  10  -6   2   10.16    0.96
   9  -7  -2    1.26    0.56
   8  -7  -2   43.85    1.53
   4   7  -2   10.85    0.78
   3   7  -2    0.55    0.37
  -1  -7   2   46.80    1.36
   0  -7   2   42.79    1.31
   1  -7   2   21.51    1.01
   2  -7   2   -0.06    0.34
   3  -7   2    0.06    0.34
   4  -7   2   21.89    1.07
   5  -7   2    3.88    0.59
   6  -7   2    3.00    0.58
   7  -7   2   -0.41    0.42
   8  -7   2   15.69    1.08
   9  -7   2   52.65    1.81
   2  -8   2   -0.24    0.39
   3  -8   2   15.82    0.99
   4  -8   2   -0.14    0.41
   5  -8   2   85.58    2.12
   6  -8   2    3.28    0.66
  14   0  -3   -0.03    0.44
  13   0  -3    7.35    0.85
  12   0  -3    0.11    0.38
  11   0  -3   59.01    1.60
  10   0  -3    0.14    0.31
   9   0  -3  238.96    2.91
   8   0  -3    0.08    0.24
   7   0  -3   10.89    0.59
   6   0  -3    0.41    0.20
   7   0   3   10.73    0.58
   8   0   3   -0.03    0.25
   9   0   3   28.91    1.00
  10   0   3   -0.17    0.31
  11   0   3    0.69    0.39
  12   0   3   -0.52    0.35
  13   0   3    7.80    0.86
  14   1  -3   29.60    1.39
  14  -1  -3   30.65    1.43
  13   1  -3   41.61    1.53
  13  -1  -3   40.07    1.51
  12   1  -3  194.58    3.02
  12  -1  -3  194.07    3.06
  11   1  -3  307.24    3.74
  11  -1  -3  304.68    3.78
  10   1  -3    8.57    0.76
  10  -1  -3    9.25    0.76
   9   1  -3  153.67    2.31
   9  -1  -3  157.98    2.33
   8   1  -3  105.37    1.78
   8  -1  -3  100.54    1.74
   7   1  -3   21.65    0.79
   7  -1  -3   21.59    0.80
   6   1  -3   71.66    1.29
   6  -1  -3   71.29    1.27
   6  -1   3    0.83    0.26
   7   1   3   12.66    0.63
   7  -1   3   12.21    0.66
   8   1   3   72.68    1.37
   8  -1   3   74.83    1.52
   9   1   3    1.87    0.37
   9  -1   3    2.85    0.45
  10   1   3   19.05    0.91
  10  -1   3   18.91    0.95
  11   1   3    3.13    0.51
  11  -1   3    3.94    0.56
  12   1   3    1.90    0.48
  12  -1   3    1.75    0.50
  13   1   3    1.04    0.48
  13  -1   3    0.51    0.47
  14   2  -3   64.84    1.97
  14  -2  -3   63.60    1.96
  13   2  -3    0.06    0.44
  13  -2  -3   -0.07    0.42
  12   2  -3    0.64    0.42
  12  -2  -3   -0.10    0.40
  11   2  -3    5.18    0.62
  11  -2  -3    5.60    0.65
  10   2  -3    3.38    0.51
  10  -2  -3    3.22    0.49
   9   2  -3    0.25    0.29
   9  -2  -3    0.30    0.33
   8   2  -3  468.45    4.31
   8  -2  -3  470.79    4.29
   7   2  -3   19.10    0.79
   7  -2  -3   20.29    0.79
   6   2  -3  412.52    3.67
   6  -2  -3  414.60    3.62
   5   2  -3   39.38    0.95
   4  -2   3    1.60    0.27
   5  -2   3    0.77    0.26
   6  -2   3    0.07    0.23
   7  -2   3    0.01    0.27
   8   2   3    0.20    0.25
   8  -2   3    0.23    0.31
   9   2   3   -0.04    0.27
   9  -2   3    0.03    0.33
  10   2   3    1.34    0.39
  10  -2   3    2.12    0.46
  11  -2   3    1.35    0.47
  12  -2   3   -0.06    0.40
  13  -2   3    6.73    0.78
  13   3  -3   16.94    1.11
  13  -3  -3   17.13    1.13
  12   3  -3   23.93    1.19
  12  -3  -3   23.01    1.16
  11   3  -3   36.05    1.32
  11  -3  -3   35.03    1.32
  10   3  -3    3.53    0.53
  10  -3  -3    4.02    0.56
   9   3  -3    0.59    0.34
   9  -3  -3    0.65    0.36
   8   3  -3    4.81    0.51
   8  -3  -3    4.76    0.56
   7   3  -3   16.09    0.76
   7  -3  -3   17.15    0.78
   6   3  -3    0.54    0.28
   6  -3  -3    0.70    0.26
   5   3  -3   32.97    0.94
   5  -3  -3   31.40    0.85
   4   3  -3    0.49    0.23
   3  -3   3  102.08    1.58
   4  -3   3  114.90    1.74
   5  -3   3  141.04    2.03
   6  -3   3  117.43    1.93
   7  -3   3   26.96    1.02
   8  -3   3   -0.09    0.31
   9  -3   3   16.51    0.91
  10  -3   3    8.35    0.75
  11  -3   3    0.52    0.43
  12  -3   3   11.80    0.94
  13  -3   3    1.49    0.59
  13   4  -3    0.33    0.48
  13  -4  -3    0.83    0.54
  12   4  -3   13.15    0.99
  12  -4  -3   11.10    0.96
  11   4  -3    0.37    0.38
  11  -4  -3    0.64    0.43
  10   4  -3   54.40    1.57
  10  -4  -3   53.22    1.55
   9   4  -3  136.64    2.37
   9  -4  -3  135.70    2.32
   8   4  -3    0.28    0.32
   8  -4  -3    0.28    0.32
   7   4  -3    2.13    0.40
   7  -4  -3    1.69    0.36
   6   4  -3   24.70    0.93
   6  -4  -3   25.12    0.88
   5   4  -3   66.64    1.44
   5  -4  -3   66.20    1.29
   4   4  -3   77.28    1.47
   3   4  -3   38.95    1.01
   2   4  -3   43.04    1.08
   1   4  -3   44.92    1.08
   0   4  -3   18.51    0.72
   1  -4   3    0.19    0.22
   2  -4   3  166.90    2.19
   3  -4   3   71.75    1.44
   4  -4   3  114.00    1.87
   5  -4   3   25.31    0.96
   6  -4   3    4.38    0.52
   7  -4   3   15.19    0.84
   8  -4   3    0.31    0.36
   9  -4   3    5.83    0.72
  10  -4   3   42.67    1.49
  11  -4   3    7.11    0.84
  12  -4   3    8.74    0.94
  12   5  -3   33.12    1.44
  12  -5  -3   31.76    1.43
  11   5  -3   26.07    1.26
  11  -5  -3   24.04    1.23
  10   5  -3    4.20    0.62
  10  -5  -3    3.85    0.60
   9   5  -3   22.44    1.07
   9  -5  -3   22.97    1.08
   8   5  -3    0.82    0.38
   8  -5  -3    0.98    0.40
   7   5  -3   19.21    0.93
   7  -5  -3   17.89    0.88
   6   5  -3    0.23    0.30
   6  -5  -3    0.33    0.31
   5   5  -3   70.48    1.56
   5  -5  -3   71.74    1.41
   4   5  -3  167.98    2.39
   4  -5  -3  168.79    2.09
   3   5  -3    2.17    0.41
   2   5  -3   10.78    0.68
   1   5  -3    2.21    0.38
   0  -5   3   -0.04    0.26
   1  -5   3   29.64    1.00
   2  -5   3   99.68    1.81
   3  -5   3   48.39    1.30
   4  -5   3   32.39    1.12
   5  -5   3    3.73    0.51
   6  -5   3    1.24    0.41
   7  -5   3    2.23    0.49
   8  -5   3    0.47    0.41
   9  -5   3    3.29    0.59
  10  -5   3   24.61    1.23
  11  -5   3    2.93    0.64
  11  -6  -3    3.43    0.67
  10   6  -3    2.43    0.58
  10  -6  -3    1.81    0.54
   9   6  -3    2.80    0.57
   9  -6  -3    2.91    0.57
   8   6  -3    0.12    0.37
   8  -6  -3    0.25    0.40
   7   6  -3   18.20    0.96
   7  -6  -3   19.48    0.97
   6   6  -3    5.38    0.67
   5   6  -3    4.41    0.56
   4   6  -3    5.09    0.63
   3   6  -3   14.62    0.82
   2   6  -3    7.33    0.64
   0  -6   3  274.95    3.29
   1  -6   3  254.81    3.17
   2  -6   3   61.38    1.54
   3  -6   3   19.26    0.97
   4  -6   3    0.50    0.38
   5  -6   3    1.76    0.46
   6  -6   3   29.66    1.20
   7  -6   3   24.77    1.18
   8  -6   3   -0.11    0.41
   9  -6   3   31.81    1.40
  10  -6   3   11.53    1.00
   6   7  -3   39.40    1.40
   5   7  -3   21.57    1.06
   4   7  -3    3.82    0.57
   3   7  -3    3.05    0.51
  -2  -7   3   14.81    0.93
  -1  -7   3   22.22    1.06
   0  -7   3    1.91    0.48
   1  -7   3    6.32    0.73
   2  -7   3   -0.30    0.35
   3  -7   3    0.50    0.41
   4  -7   3   25.82    1.18
   5  -7   3   16.31    1.02
   6  -7   3   24.97    1.21
   7  -7   3   29.07    1.34
   8  -7   3    1.48    0.58
   0  -8   3    2.32    0.56
   1  -8   3    0.97    0.48
   2  -8   3    1.93    0.55
   3  -8   3    0.08    0.43
   4  -8   3    2.15    0.57
   5  -8   3    1.98    0.60
   6  -8   3    6.08    0.80
  14   0  -4   12.82    1.06
  13   0  -4    0.22    0.43
  12   0  -4  243.20    3.46
  11   0  -4   -0.04    0.36
  10   0  -4  822.00    6.77
   9   0  -4   -0.09    0.28
   8   0  -4   33.53    1.04
   7   0  -4    0.05    0.22
   6   0  -4   62.02    1.21
   6   0   4   18.99    0.69
   7   0   4    0.02    0.24
   8   0   4  277.19    3.00
   9   0   4   -0.19    0.29
  10   0   4  317.12    3.58
  11   0   4    0.34    0.38
  12   0   4   36.95    1.34
  13   0   4   -0.04    0.43
  14   1  -4    2.43    0.62
  14  -1  -4    1.85    0.60
  13   1  -4   10.14    0.98
  13  -1  -4   10.85    0.93
  12   1  -4    2.74    0.54
  12  -1  -4    2.85    0.58
  11   1  -4    2.17    0.49
  11  -1  -4    3.42    0.55
  10   1  -4   26.55    1.11
  10  -1  -4   26.77    1.10
   9   1  -4   63.77    1.50
   9  -1  -4   64.15    1.51
   8   1  -4   61.07    1.40
   8  -1  -4   63.61    1.41
   7   1  -4  249.29    2.77
   7  -1  -4  250.27    2.74
   6   1  -4  132.86    1.85
   6  -1  -4  134.05    1.81
   5   1  -4   18.44    0.68
   5  -1   4  138.65    1.81
   6  -1   4    0.56    0.27
   7   1   4    5.76    0.48
   7  -1   4    6.53    0.56
   8   1   4    6.16    0.61
   8  -1   4    6.17    0.60
   9   1   4   -0.07    0.29
   9  -1   4   -0.12    0.32
  10   1   4   56.60    1.39
  10  -1   4   56.07    1.51
  11   1   4   37.42    1.27
  11  -1   4   35.83    1.32
  12   1   4   16.43    0.97
  12  -1   4   17.48    1.07
  13  -1   4   15.98    1.04
  14   2  -4   23.57    1.32
  14  -2  -4   23.74    1.33
  13   2  -4   61.69    1.85
  13  -2  -4   62.63    1.90
  12   2  -4   26.47    1.22
  12  -2  -4   27.49    1.25
  11   2  -4    6.09    0.74
  11  -2  -4    6.76    0.73
  10   2  -4    1.66    0.42
  10  -2  -4    1.81    0.44
   9   2  -4  200.60    2.80
   9  -2  -4  198.99    2.72
   8   2  -4   79.46    1.64
   8  -2  -4   81.98    1.63
   7   2  -4  104.27    1.80
   7  -2  -4  105.76    1.74
   6   2  -4  149.62    2.08
   6  -2  -4  148.52    1.95
   5   2  -4   24.01    0.80
   4   2  -4    9.42    0.53
   4  -2   4   10.18    0.57
   5  -2   4  268.85    2.84
   6  -2   4  191.96    2.43
   7  -2   4  472.73    4.40
   8  -2   4   64.92    1.52
   9  -2   4   24.95    1.04
  10  -2   4    1.41    0.44
  11  -2   4    0.05    0.41
  12  -2   4   10.03    0.93
  13  -2   4   -0.02    0.47
  13   3  -4   44.49    1.66
  13  -3  -4   43.78    1.64
  12   3  -4   21.00    1.15
  12  -3  -4   20.30    1.13
  11   3  -4    4.77    0.64
  11  -3  -4    4.68    0.63
  10   3  -4    0.50    0.37
  10  -3  -4    0.86    0.40
   9   3  -4   14.51    0.86
   9  -3  -4   13.51    0.84
   8   3  -4   15.48    0.83
   8  -3  -4   14.81    0.83
   7   3  -4  357.37    3.75
   7  -3  -4  360.93    3.54
   6   3  -4  376.26    3.73
   6  -3  -4  378.40    3.47
   5   3  -4  232.21    2.71
   5  -3  -4  234.35    2.44
   4   3  -4  241.28    2.71
   2   3  -4    0.23    0.20
   1   3  -4   58.71    1.20
   0   3  -4  170.07    2.13
  -1   3  -4   -0.10    0.20
   2  -3   4    2.00    0.32
   3  -3   4   44.83    1.10
   4  -3   4  227.31    2.65
   5  -3   4  157.79    2.24
   6  -3   4    5.09    0.59
   7  -3   4   20.05    0.92
   8  -3   4    0.84    0.40
   9  -3   4    0.16    0.37
  10  -3   4   25.85    1.17
  11  -3   4   22.38    1.17
  12  -3   4    8.41    0.89
  13   4  -4    2.06    0.62
  13  -4  -4    2.05    0.61
  12   4  -4   26.88    1.31
  12  -4  -4   26.43    1.29
  11   4  -4    3.66    0.64
  11  -4  -4    4.21    0.64
  10   4  -4   53.95    1.62
  10  -4  -4   54.97    1.58
   9   4  -4    5.58    0.69
   9  -4  -4    5.39    0.67
   8   4  -4    2.06    0.44
   8  -4  -4    2.36    0.44
   7   4  -4    2.77    0.46
   7  -4  -4    2.98    0.43
   6   4  -4   43.06    1.26
   6  -4  -4   44.21    1.12
   5   4  -4   20.09    0.86
   5  -4  -4   21.68    0.78
   4   4  -4   33.26    1.05
   3   4  -4  331.49    3.43
   2   4  -4   97.78    1.69
   1   4  -4   16.19    0.74
   0   4  -4   29.04    0.93
   1  -4   4   34.45    1.02
   2  -4   4  105.54    1.79
   3  -4   4   22.65    0.87
   4  -4   4  378.76    3.85
   5  -4   4   30.84    1.09
   6  -4   4   49.97    1.40
   7  -4   4   -0.21    0.31
   8  -4   4   24.29    1.10
   9  -4   4   -0.03    0.40
  10  -4   4    3.74    0.63
  11  -4   4    1.58    0.56
  12  -4   4    9.96    0.95
  12   5  -4    1.89    0.59
  12  -5  -4    1.80    0.59
  11   5  -4    6.29    0.77
  11  -5  -4    6.05    0.74
  10   5  -4    0.24    0.41
  10  -5  -4    0.28    0.39
   9   5  -4   11.65    0.89
   9  -5  -4   11.57    0.84
   8   5  -4    0.31    0.37
   8  -5  -4    0.25    0.35
   7   5  -4   22.27    1.04
   7  -5  -4   23.11    0.97
   6   5  -4    0.75    0.36
   6  -5  -4    1.77    0.39
   5   5  -4   75.65    1.69
   4   5  -4   66.25    1.54
   3   5  -4  212.78    2.83
   2   5  -4  125.82    2.12
   1   5  -4   25.54    0.97
   0   5  -4   32.48    1.09
   1  -5   4  308.06    3.45
   2  -5   4  215.01    2.84
   3  -5   4  379.36    4.04
   4  -5   4   -0.17    0.32
   5  -5   4    4.80    0.57
   6  -5   4   10.27    0.81
   7  -5   4    8.41    0.77
   8  -5   4   21.88    1.13
   9  -5   4   22.82    1.17
  10  -5   4    8.44    0.92
  11  -5   4    0.06    0.45
  10   6  -4    0.37    0.47
  10  -6  -4    0.33    0.44
   9   6  -4   50.58    1.63
   9  -6  -4   49.71    1.56
   8   6  -4    3.60    0.58
   7   6  -4   85.13    2.00
   6   6  -4   12.95    0.89
   5   6  -4    1.01    0.42
   4   6  -4   26.04    1.11
   3   6  -4   20.17    0.97
   2   6  -4   83.81    1.83
   1   6  -4   30.85    1.16
   0  -6   4   72.28    1.70
   1  -6   4    5.68    0.62
   2  -6   4   15.27    0.91
   3  -6   4    9.74    0.78
   4  -6   4   -0.12    0.34
   5  -6   4    6.22    0.74
   6  -6   4   18.15    1.05
   7  -6   4   41.12    1.49
   8  -6   4    4.03    0.69
   9  -6   4    6.69    0.83
   9   7  -4    7.82    0.90
   8   7  -4   11.84    0.97
   7   7  -4    7.21    0.84
   6   7  -4   31.63    1.33
   5   7  -4    2.94    0.56
   4   7  -4    7.83    0.78
   3   7  -4   17.51    0.98
   2   7  -4   20.15    1.04
  -1  -7   4  206.74    3.10
   0  -7   4   73.35    1.84
   1  -7   4   40.43    1.43
   2  -7   4    1.05    0.49
   3  -7   4    5.82    0.69
   4  -7   4   13.53    0.97
   5  -7   4    7.88    0.82
   6  -7   4    0.51    0.48
   7  -7   4   15.04    1.08
   8  -7   4    6.69    0.83
   5   8  -4    2.28    0.57
   4   8  -4   22.02    1.17
  -3  -8   4   65.69    1.87
  -2  -8   4   12.73    1.00
  -1  -8   4    5.82    0.75
   0  -8   4    6.47    0.75
   1  -8   4   64.50    1.87
   2  -8   4   17.55    1.13
   3  -8   4    0.79    0.51
   4  -8   4   39.78    1.54
   5  -8   4   11.06    1.01
  14   0  -5   -0.23    0.44
  13   0  -5    0.55    0.48
  12   0  -5   -0.10    0.41
  11   0  -5    3.42    0.57
  10   0  -5   -0.10    0.32
   9   0  -5   -0.08    0.29
   8   0  -5    0.06    0.25
   7   0  -5    0.68    0.28
   6   0  -5    0.06    0.21
   5   0  -5  126.13    1.72
   6   0   5    0.05    0.22
   7   0   5   36.30    0.99
   8   0   5    0.06    0.28
   9   0   5   39.33    1.19
  10   0   5   -0.41    0.33
  11   0   5   73.93    1.80
  12   0   5    0.33    0.42
  13   0   5    3.06    0.61
  14   1  -5   -0.23    0.43
  14  -1  -5   -0.29    0.46
  13   1  -5   28.40    1.37
  13  -1  -5   30.59    1.39
  12   1  -5    1.50    0.53
  12  -1  -5    1.34    0.51
  11   1  -5   50.82    1.58
  11  -1  -5   52.16    1.56
  10   1  -5   19.63    1.02
  10  -1  -5   21.02    1.00
   9   1  -5   60.64    1.54
   9  -1  -5   62.73    1.52
   8   1  -5  136.23    2.17
   8  -1  -5  134.77    2.12
   7   1  -5    3.73    0.44
   7  -1  -5    4.07    0.43
   6   1  -5    2.93    0.37
   6  -1  -5    2.31    0.34
   5   1  -5    0.29    0.22
   5  -1  -5    0.27    0.20
   4   1  -5  102.48    1.55
   4  -1   5    8.81    0.52
   5  -1   5    1.03    0.28
   6  -1   5   97.93    1.62
   7   1   5  146.54    1.88
   7  -1   5  145.01    2.11
   8   1   5  215.27    2.50
   8  -1   5  214.28    2.75
   9   1   5  385.87    3.72
   9  -1   5  385.89    4.08
  10  -1   5   32.17    1.20
  11  -1   5   76.89    1.88
  12  -1   5   54.08    1.67
  13  -1   5    7.19    0.86
  14   2  -5   12.16    1.08
  14  -2  -5   10.59    1.02
  13   2  -5    2.78    0.62
  13  -2  -5    1.98    0.59
  12   2  -5    8.33    0.85
  12  -2  -5    8.37    0.84
  11   2  -5    0.64    0.40
  11  -2  -5    0.75    0.39
  10   2  -5    1.48    0.44
  10  -2  -5    1.44    0.43
   9   2  -5   25.09    1.06
   9  -2  -5   26.44    1.05
   8   2  -5   50.42    1.39
   8  -2  -5   48.92    1.28
   7   2  -5   35.97    1.13
   7  -2  -5   35.59    1.04
   6   2  -5  163.00    2.27
   6  -2  -5  161.74    2.07
   5   2  -5    0.06    0.21
   5  -2  -5   -0.09    0.19
   4   2  -5   45.28    1.09
   3   2  -5    5.15    0.46
   2  -2   5    9.10    0.53
   3  -2   5    0.06    0.21
   4  -2   5   98.83    1.62
   5  -2   5    8.51    0.60
   6  -2   5  386.18    3.81
   7  -2   5    3.33    0.48
   8  -2   5    0.81    0.36
   9  -2   5    1.40    0.44
  10  -2   5    0.66    0.42
  11  -2   5    9.68    0.86
  12  -2   5  132.17    2.65
  13   3  -5   13.89    1.09
  13  -3  -5   16.15    1.09
  12   3  -5    0.51    0.46
  12  -3  -5    0.40    0.44
  11   3  -5    0.25    0.40
  11  -3  -5    0.02    0.40
  10   3  -5    1.01    0.45
  10  -3  -5    1.02    0.42
   9   3  -5   11.16    0.80
   9  -3  -5   12.16    0.82
   8   3  -5   10.32    0.76
   8  -3  -5   11.31    0.77
   7   3  -5   61.78    1.51
   7  -3  -5   63.83    1.41
   6   3  -5   35.16    1.13
   6  -3  -5   33.99    1.00
   5   3  -5   74.37    1.55
   5  -3  -5   71.97    1.31
   4   3  -5    1.17    0.33
   3   3  -5   34.25    1.02
   2   3  -5   76.64    1.46
   1   3  -5  322.56    3.28
   0   3  -5   45.62    1.13
  -1   3  -5  120.18    1.87
   2  -3   5   33.04    0.99
   3  -3   5   10.69    0.66
   4  -3   5   42.60    1.17
   5  -3   5  119.05    2.00
   6  -3   5  210.30    2.81
   7  -3   5    0.60    0.37
   8  -3   5   26.60    1.11
   9  -3   5   70.73    1.78
  10  -3   5    2.57    0.54
  11  -3   5    0.70    0.48
  12  -3   5    2.89    0.66
  12   4  -5    6.45    0.79
  12  -4  -5    5.45    0.75
  11   4  -5   14.48    1.01
  11  -4  -5   15.34    1.00
  10   4  -5   22.46    1.13
  10  -4  -5   23.34    1.11
   9   4  -5    3.66    0.56
   9  -4  -5    4.15    0.56
   8   4  -5   10.16    0.79
   8  -4  -5   10.23    0.77
   7   4  -5    5.22    0.61
   7  -4  -5    5.32    0.64
   6   4  -5   42.53    1.31
   6  -4  -5   44.19    1.16
   5   4  -5  300.60    3.51
   5  -4  -5  296.41    2.92
   4   4  -5  314.25    3.51
   3   4  -5   91.89    1.76
   2   4  -5   52.58    1.34
   1   4  -5   26.88    0.97
   0   4  -5   14.43    0.74
   1  -4   5    3.10    0.44
   2  -4   5  144.07    2.22
   3  -4   5   49.54    1.33
   4  -4   5  163.84    2.47
   5  -4   5   38.43    1.25
   6  -4   5    3.42    0.52
   7  -4   5   47.33    1.46
   8  -4   5    3.40    0.56
   9  -4   5   -0.05    0.37
  10  -4   5   25.39    1.27
  11  -4   5   22.92    1.25
  11   5  -5   11.17    0.99
  11  -5  -5   11.50    0.95
  10   5  -5   15.99    1.06
  10  -5  -5   15.20    0.99
   9   5  -5   38.92    1.47
   9  -5  -5   39.76    1.36
   8   5  -5    9.82    0.83
   8  -5  -5    9.85    0.78
   7   5  -5    1.60    0.45
   6   5  -5    3.13    0.51
   5   5  -5   33.38    1.20
   4   5  -5    2.87    0.47
   3   5  -5    9.08    0.73
   2   5  -5   25.06    1.04
   1   5  -5   22.02    0.96
   0   5  -5    1.73    0.41
   1  -5   5   22.45    1.00
   2  -5   5   31.98    1.15
   3  -5   5   76.52    1.74
   4  -5   5    0.07    0.35
   5  -5   5   20.37    1.03
   6  -5   5   15.11    0.94
   7  -5   5    2.18    0.51
   8  -5   5    7.01    0.81
   9  -5   5   20.92    1.19
  10  -5   5   21.22    1.25
  10   6  -5    8.33    0.91
   9   6  -5    0.46    0.46
   8   6  -5    6.43    0.77
   7   6  -5    0.24    0.39
   6   6  -5    5.26    0.64
   5   6  -5    1.66    0.47
   4   6  -5   20.64    1.05
   3   6  -5   91.87    2.00
   2   6  -5  159.16    2.66
   1   6  -5   73.64    1.80
   0  -6   5  147.19    2.52
   1  -6   5   29.57    1.20
   2  -6   5   32.24    1.25
   3  -6   5    5.41    0.64
   4  -6   5    0.01    0.39
   5  -6   5   80.62    2.00
   6  -6   5   11.64    0.93
   7  -6   5    1.60    0.54
   8  -6   5   26.96    1.32
   9  -6   5    1.38    0.58
   8   7  -5    9.44    0.96
   7   7  -5   30.02    1.38
   6   7  -5   25.27    1.26
   5   7  -5   20.77    1.12
   4   7  -5   -0.08    0.38
   3   7  -5    1.24    0.45
   2   7  -5    0.66    0.45
  -1  -7   5   78.85    1.97
   0  -7   5   62.95    1.79
   1  -7   5   77.16    1.99
   2  -7   5   48.06    1.60
   3  -7   5    6.58    0.81
   4  -7   5    4.15    0.68
   5  -7   5    2.18    0.57
   6  -7   5   12.44    1.00
   7  -7   5    3.37    0.70
   6   8  -5   11.53    0.99
   5   8  -5    3.91    0.69
   4   8  -5    6.74    0.83
  -3  -8   5   10.88    0.99
  -2  -8   5    3.00    0.66
  -1  -8   5    5.42    0.75
   0  -8   5   20.83    1.21
   1  -8   5   13.92    1.04
   2  -8   5    0.01    0.46
   3  -8   5    0.43    0.52
   4  -8   5    0.72    0.53
  14   0  -6   25.75    1.39
  13   0  -6    0.15    0.43
  12   0  -6    0.62    0.47
  11   0  -6    0.08    0.37
  10   0  -6    0.16    0.33
   9   0  -6    0.18    0.31
   8   0  -6   -0.11    0.26
   7   0  -6    0.06    0.24
   6   0  -6    3.27    0.38
   5   0  -6    0.16    0.21
   4   0  -6   40.27    0.99
   5   0   6    0.08    0.24
   6   0   6   10.92    0.63
   7   0   6   -0.07    0.28
   8   0   6  121.33    1.96
   9   0   6    0.01    0.34
  10   0   6  294.90    3.52
  11   0   6    0.07    0.39
  14   1  -6   -0.26    0.46
  14  -1  -6   -0.13    0.47
  13   1  -6   27.92    1.35
  13  -1  -6   28.30    1.38
  12   1  -6    0.54    0.43
  12  -1  -6    0.43    0.43
  11   1  -6    0.68    0.41
  11  -1  -6    0.61    0.40
  10   1  -6    0.49    0.38
  10  -1  -6    0.59    0.36
   9   1  -6   33.00    1.18
   9  -1  -6   34.53    1.17
   8   1  -6    0.84    0.35
   8  -1  -6    0.40    0.30
   7   1  -6   20.77    0.88
   7  -1  -6   21.66    0.86
   6   1  -6   -0.13    0.22
   6  -1  -6   -0.08    0.21
   5   1  -6   -0.03    0.22
   5  -1  -6    0.03    0.21
   4   1  -6    1.39    0.30
   3   1  -6   30.86    0.89
   3  -1   6   23.64    0.77
   4  -1   6   38.22    0.97
   5  -1   6   60.33    1.26
   6  -1   6    2.91    0.41
   7  -1   6    8.01    0.69
   8  -1   6   15.96    0.84
   9  -1   6    7.11    0.70
  10  -1   6   18.43    0.98
  11  -1   6    3.50    0.59
  12  -1   6   23.97    1.19
  13   2  -6   -0.15    0.45
  13  -2  -6    0.13    0.44
  12   2  -6    1.22    0.51
  12  -2  -6    1.43    0.51
  11   2  -6   10.51    0.88
  11  -2  -6   10.15    0.84
  10   2  -6   -0.01    0.35
  10  -2  -6    0.29    0.34
   9   2  -6    9.15    0.75
   9  -2  -6   11.17    0.77
   8   2  -6   19.77    0.95
   8  -2  -6   18.68    0.86
   7   2  -6    0.81    0.34
   7  -2  -6    0.77    0.31
   6   2  -6    8.82    0.64
   6  -2  -6    8.59    0.58
   5   2  -6   30.71    1.00
   5  -2  -6   29.26    0.83
   4   2  -6   28.70    0.94
   3   2  -6    2.26    0.35
   2   2  -6    0.16    0.23
   1   2  -6    5.52    0.50
  -1   2  -6   19.91    0.76
   2  -2   6   15.70    0.69
   3  -2   6    0.19    0.26
   4  -2   6   10.95    0.65
   5  -2   6    1.69    0.36
   6  -2   6   33.08    1.09
   7  -2   6   59.79    1.48
   8  -2   6   16.43    0.91
   9  -2   6   -0.36    0.34
  10  -2   6    0.19    0.40
  11  -2   6   93.13    2.19
  12  -2   6   33.88    1.45
  13   3  -6    8.75    0.96
  13  -3  -6    8.64    0.89
  12   3  -6    1.01    0.50
  12  -3  -6    0.94    0.50
  11   3  -6    4.30    0.68
  11  -3  -6    4.40    0.62
  10   3  -6    9.76    0.85
  10  -3  -6    9.38    0.80
   9   3  -6    0.97    0.42
   9  -3  -6    0.38    0.34
   8   3  -6    7.78    0.71
   8  -3  -6    7.03    0.65
   7   3  -6   12.78    0.81
   7  -3  -6   12.78    0.72
   6   3  -6   12.79    0.78
   6  -3  -6   12.20    0.67
   5   3  -6   34.19    1.13
   5  -3  -6   33.23    0.91
   4   3  -6    2.00    0.39
   3   3  -6    4.61    0.53
   2   3  -6   21.47    0.87
   1   3  -6   13.39    0.71
   0   3  -6    5.96    0.54
  -1   3  -6   10.26    0.65
   2  -3   6   53.42    1.29
   3  -3   6    5.31    0.57
   4  -3   6    0.23    0.30
   5  -3   6   23.59    0.98
   6  -3   6    3.76    0.51
   7  -3   6   35.90    1.25
   8  -3   6   97.72    2.07
   9  -3   6    0.45    0.41
  10  -3   6    0.04    0.42
  11  -3   6    7.63    0.86
  12   4  -6    7.43    0.86
  12  -4  -6    6.74    0.80
  11   4  -6   22.97    1.23
  11  -4  -6   22.88    1.16
  10   4  -6   14.84    1.00
  10  -4  -6   13.75    0.93
   9   4  -6   11.23    0.89
   9  -4  -6   13.36    0.88
   8   4  -6    6.69    0.73
   8  -4  -6    7.20    0.69
   7   4  -6   85.75    1.96
   7  -4  -6   86.12    1.66
   6   4  -6   32.45    1.20
   5   4  -6    9.49    0.73
   4   4  -6    7.67    0.68
   3   4  -6    3.40    0.47
   2   4  -6    7.46    0.66
   1   4  -6   13.71    0.77
   0   4  -6    2.13    0.40
   1  -4   6   20.41    0.93
   2  -4   6   42.46    1.27
   3  -4   6    0.23    0.32
   4  -4   6    4.72    0.56
   5  -4   6   13.96    0.87
   6  -4   6    1.55    0.44
   7  -4   6    8.05    0.77
   8  -4   6   18.34    1.05
   9  -4   6   11.33    0.94
  10  -4   6   12.84    0.99
  11   5  -6    0.25    0.49
  11  -5  -6   -0.12    0.46
  10   5  -6   23.18    1.26
  10  -5  -6   21.69    1.13
   9   5  -6    7.69    0.85
   8   5  -6   40.78    1.50
   7   5  -6    0.58    0.41
   6   5  -6    0.58    0.41
   5   5  -6    8.72    0.75
   4   5  -6   52.20    1.53
   3   5  -6   40.62    1.36
   2   5  -6  140.97    2.42
   1   5  -6    0.09    0.32
   0   5  -6    0.23    0.33
   1  -5   6   29.48    1.14
   2  -5   6   13.63    0.86
   3  -5   6   11.32    0.83
   4  -5   6   17.52    0.96
   5  -5   6    3.99    0.60
   6  -5   6   12.50    0.92
   7  -5   6    0.77    0.47
   8  -5   6    2.35    0.59
   9  -5   6   37.71    1.56
  10   6  -6   60.04    1.98
   9   6  -6    2.95    0.64
   8   6  -6   50.93    1.72
   7   6  -6   -0.09    0.40
   6   6  -6    0.05    0.37
   5   6  -6    0.20    0.40
   4   6  -6    0.67    0.40
   3   6  -6    0.02    0.35
   2   6  -6    0.44    0.37
   1   6  -6   54.80    1.63
   0  -6   6    1.06    0.43
   1  -6   6    2.67    0.55
   2  -6   6    0.88    0.44
   3  -6   6   26.43    1.20
   4  -6   6   23.03    1.18
   5  -6   6    0.64    0.48
   6  -6   6    0.41    0.48
   7  -6   6    0.55    0.50
   8  -6   6    5.23    0.78
   8   7  -6    3.51    0.71
   7   7  -6    1.51    0.56
   6   7  -6   19.11    1.19
   5   7  -6    6.66    0.81
   4   7  -6   23.63    1.20
   3   7  -6    1.39    0.48
   2   7  -6   16.31    1.04
  -1  -7   6   51.46    1.68
   0  -7   6   69.81    1.95
   1  -7   6   13.97    1.00
   2  -7   6    4.47    0.67
   3  -7   6   -0.05    0.42
   4  -7   6    4.51    0.71
   5  -7   6   14.94    1.08
   6  -7   6    2.40    0.62
   5   8  -6   45.45    1.72
   4   8  -6    1.19    0.55
  -3  -8   6   17.19    1.16
  -2  -8   6   -0.62    0.45
  -1  -8   6   -0.26    0.47
   0  -8   6   23.20    1.28
   1  -8   6   20.95    1.22
   2  -8   6   71.81    2.11
   3  -8   6   16.90    1.16
  13   0  -7    0.88    0.51
  12   0  -7   -0.15    0.40
  11   0  -7   35.78    1.38
  10   0  -7   -0.24    0.31
   9   0  -7   20.51    0.97
   8   0  -7   -0.04    0.28
   7   0  -7  116.09    1.97
   6   0  -7    0.11    0.26
   5   0  -7   58.75    1.28
   4   0  -7   -0.13    0.21
   3   0  -7    5.14    0.48
   4   0   7    0.22    0.24
   5   0   7   12.79    0.64
   6   0   7    0.08    0.28
   7   0   7    2.50    0.43
   8   0   7   -0.13    0.32
  13   1  -7   30.33    1.42
  13  -1  -7   30.01    1.44
  12   1  -7   33.44    1.42
  12  -1  -7   33.86    1.42
  11   1  -7   11.51    0.92
  11  -1  -7   12.96    0.94
  10   1  -7    0.06    0.35
  10  -1  -7   -0.22    0.33
   9   1  -7    8.81    0.76
   9  -1  -7    8.20    0.73
   8   1  -7    4.24    0.53
   8  -1  -7    4.24    0.51
   7   1  -7   22.02    0.95
   7  -1  -7   21.42    0.88
   6   1  -7    8.56    0.63
   6  -1  -7    8.60    0.59
   5   1  -7    5.41    0.54
   5  -1  -7    5.05    0.47
   4   1  -7  138.54    2.04
   4  -1  -7  135.19    1.84
   3   1  -7  108.71    1.75
   2   1  -7  137.18    1.95
   1   1  -7   44.37    1.09
   0   1  -7    3.56    0.44
  -1   1  -7    6.85    0.51
   2  -1   7    2.39    0.34
   3  -1   7   36.70    1.00
   4  -1   7   12.96    0.67
   5  -1   7    8.37    0.61
   6  -1   7    5.74    0.57
   7  -1   7    4.71    0.53
   8  -1   7   15.68    0.84
   9  -1   7    1.13    0.42
  10  -1   7    0.18    0.41
  11  -1   7    4.62    0.66
  13   2  -7   -0.21    0.46
  13  -2  -7   -0.14    0.45
  12   2  -7    0.18    0.45
  12  -2  -7    0.42    0.45
  11   2  -7   60.51    1.82
  11  -2  -7   60.03    1.71
  10   2  -7   11.61    0.89
  10  -2  -7   12.25    0.84
   9   2  -7    7.05    0.73
   9  -2  -7    7.41    0.68
   8   2  -7   26.79    1.12
   8  -2  -7   26.88    1.01
   7   2  -7   14.75    0.84
   7  -2  -7   16.15    0.79
   6   2  -7   26.04    1.01
   6  -2  -7   25.72    0.89
   5   2  -7   22.92    0.94
   5  -2  -7   22.88    0.79
   4   2  -7    4.13    0.47
   3   2  -7    4.12    0.45
   2   2  -7   83.36    1.59
   1   2  -7   11.48    0.67
   0   2  -7    6.37    0.54
  -1   2  -7    1.27    0.33
   2  -2   7   31.33    0.99
   3  -2   7    0.06    0.27
   4  -2   7   30.45    1.01
   5  -2   7   26.48    1.01
   6  -2   7    4.17    0.52
   7  -2   7    0.66    0.39
   8  -2   7    0.24    0.39
   9  -2   7    2.70    0.53
  10  -2   7    7.53    0.82
  11  -2   7    0.07    0.47
  12   3  -7    1.98    0.61
  12  -3  -7    0.58    0.47
  11   3  -7   29.31    1.34
  11  -3  -7   27.01    1.21
  10   3  -7    3.94    0.63
  10  -3  -7    3.78    0.58
   9   3  -7    0.45    0.40
   9  -3  -7    0.61    0.40
   8   3  -7    8.85    0.78
   8  -3  -7    8.75    0.71
   7   3  -7  144.43    2.53
   7  -3  -7  142.16    2.15
   6   3  -7  120.11    2.22
   6  -3  -7  118.63    1.83
   5   3  -7  274.43    3.41
   4   3  -7  188.09    2.71
   3   3  -7    1.96    0.40
   2   3  -7   -0.04    0.26
   1   3  -7   14.29    0.78
   0   3  -7    7.90    0.64
  -1   3  -7    6.52    0.60
   2  -3   7   29.04    1.03
   3  -3   7   13.49    0.79
   4  -3   7    3.46    0.50
   5  -3   7    0.20    0.34
   6  -3   7   -0.02    0.34
   7  -3   7    0.16    0.38
   8  -3   7    1.10    0.47
   9  -3   7    0.27    0.45
  10  -3   7    0.75    0.51
  11  -3   7    2.91    0.64
  12   4  -7   11.08    1.04
  12  -4  -7    9.96    0.94
  11   4  -7    3.46    0.68
  11  -4  -7    3.89    0.64
  10   4  -7    3.32    0.63
  10  -4  -7    3.72    0.61
   9   4  -7   -0.01    0.37
   9  -4  -7    0.16    0.38
   8   4  -7  128.21    2.56
   7   4  -7   24.61    1.15
   6   4  -7   15.74    0.94
   5   4  -7    1.70    0.44
   4   4  -7    0.54    0.34
   3   4  -7    5.33    0.64
   2   4  -7   24.49    1.04
   1   4  -7   40.00    1.28
   0   4  -7   44.65    1.35
   1  -4   7   33.63    1.19
   2  -4   7    4.80    0.57
   3  -4   7   32.75    1.18
   4  -4   7    2.47    0.50
   5  -4   7   -0.06    0.34
   6  -4   7    2.67    0.56
   7  -4   7    1.22    0.48
   8  -4   7   11.54    0.92
   9  -4   7   -0.04    0.49
  10  -4   7   18.35    1.13
  11   5  -7    0.36    0.51
  10   5  -7    0.25    0.47
   9   5  -7   63.41    1.96
   8   5  -7  116.17    2.56
   7   5  -7   35.36    1.42
   6   5  -7   29.59    1.29
   5   5  -7    1.15    0.44
   4   5  -7   30.33    1.25
   3   5  -7    0.17    0.34
   2   5  -7    0.09    0.33
   1   5  -7    3.14    0.53
   0   5  -7   10.32    0.81
   1  -5   7   11.96    0.84
   2  -5   7    8.05    0.77
   3  -5   7    1.26    0.45
   4  -5   7   24.28    1.14
   5  -5   7   10.59    0.90
   6  -5   7    1.33    0.51
   7  -5   7    0.15    0.42
   8  -5   7    1.72    0.59
   9  -5   7    4.35    0.76
   9   6  -7   66.63    2.10
   8   6  -7   26.22    1.33
   7   6  -7   -0.07    0.43
   6   6  -7    0.00    0.41
   5   6  -7    2.77    0.60
   4   6  -7   40.61    1.50
   3   6  -7   33.64    1.36
   2   6  -7   10.89    0.89
   1   6  -7    7.49    0.79
   0  -6   7    6.18    0.75
   1  -6   7    0.27    0.42
   2  -6   7    9.35    0.87
   3  -6   7    1.86    0.52
   4  -6   7    0.63    0.49
   5  -6   7    1.92    0.58
   6  -6   7   38.92    1.56
   7  -6   7    0.36    0.50
   7   7  -7    1.04    0.58
   6   7  -7   25.18    1.34
   5   7  -7   33.35    1.47
   4   7  -7    4.61    0.71
   3   7  -7   14.40    1.05
   2   7  -7    2.48    0.60
  -1  -7   7    0.01    0.43
   0  -7   7    0.27    0.48
   1  -7   7   33.24    1.44
   2  -7   7   14.88    1.08
   3  -7   7   21.35    1.22
   4  -7   7   14.77    1.10
   5  -7   7    1.30    0.58
  -3  -8   7   -0.38    0.51
  -2  -8   7    0.76    0.59
  -1  -8   7   12.63    1.09
   0  -8   7    6.00    0.84
   1  -8   7   23.97    1.35
  13   0  -8    0.06    0.45
  12   0  -8   15.12    1.04
  11   0  -8   -0.35    0.35
  10   0  -8   18.64    1.02
   9   0  -8   -0.02    0.34
   8   0  -8    2.48    0.48
   7   0  -8    0.38    0.32
   6   0  -8    6.33    0.60
   5   0  -8   -0.06    0.25
   4   0  -8    0.62    0.30
   3   0  -8    0.13    0.26
   2   0  -8  882.70    6.36
   1   0  -8   -0.40    0.25
   2   0   8   10.62    0.59
   3   0   8    0.08    0.26
   4   0   8   69.18    1.33
   5   0   8   -0.17    0.27
  13   1  -8    3.02    0.67
  13  -1  -8    3.70    0.69
  12   1  -8    9.05    0.92
  12  -1  -8    9.62    0.92
  11   1  -8    6.99    0.81
  11  -1  -8    7.43    0.80
  10   1  -8   22.72    1.14
  10  -1  -8   22.16    1.06
   9   1  -8   46.92    1.49
   9  -1  -8   48.45    1.44
   8   1  -8   56.84    1.57
   8  -1  -8   56.71    1.50
   7   1  -8    4.18    0.56
   7  -1  -8    4.30    0.49
   6   1  -8   55.51    1.43
   6  -1  -8   56.74    1.34
   5   1  -8   62.06    1.47
   5  -1  -8   60.79    1.33
   4   1  -8    0.09    0.28
   4  -1  -8    0.23    0.26
   3   1  -8   57.12    1.36
   3  -1  -8   56.17    1.20
   2   1  -8   62.38    1.38
   1   1  -8   -0.01    0.25
   0   1  -8  325.35    3.32
  -1   1  -8  301.44    3.19
   2  -1   8   30.15    0.94
   3  -1   8   41.62    1.13
   4  -1   8    6.55    0.60
   5  -1   8    9.71    0.68
   6  -1   8    7.34    0.67
   7  -1   8   29.23    1.09
   8  -1   8    3.69    0.54
   9  -1   8    7.83    0.77
  10  -1   8    1.95    0.55
  12   2  -8   40.05    1.65
  12  -2  -8   40.58    1.57
  11   2  -8    6.12    0.77
  11  -2  -8    6.99    0.83
  10   2  -8   80.19    2.09
  10  -2  -8   78.83    1.92
   9   2  -8    0.85    0.42
   9  -2  -8    0.57    0.38
   8   2  -8    0.39    0.39
   8  -2  -8    0.85    0.38
   7   2  -8    3.45    0.53
   7  -2  -8    3.19    0.47
   6   2  -8    9.99    0.75
   6  -2  -8   10.23    0.66
   5   2  -8  311.07    3.65
   5  -2  -8  303.61    3.11
   4   2  -8  236.86    3.07
   3   2  -8  490.92    4.65
   2   2  -8   32.73    1.13
   1   2  -8    0.48    0.31
   0   2  -8    1.91    0.39
  -1   2  -8    4.98    0.56
   2  -2   8   16.10    0.80
   3  -2   8   19.52    0.90
   4  -2   8    6.34    0.67
   5  -2   8    4.59    0.55
   6  -2   8    0.52    0.39
   7  -2   8    2.19    0.48
   8  -2   8   21.15    1.06
   9  -2   8    1.33    0.47
  10  -2   8   11.76    0.93
  12   3  -8   -0.30    0.46
  12  -3  -8   -0.01    0.47
  11   3  -8    1.96    0.59
  11  -3  -8    1.59    0.53
  10   3  -8   22.30    1.21
  10  -3  -8   20.80    1.08
   9   3  -8   21.73    1.16
   9  -3  -8   24.25    1.08
   8   3  -8    0.24    0.37
   8  -3  -8    0.20    0.35
   7   3  -8   18.40    1.01
   6   3  -8   91.65    2.04
   5   3  -8   21.18    1.04
   4   3  -8    6.22    0.69
   3   3  -8    4.90    0.56
   2   3  -8   -0.21    0.30
   1   3  -8    0.17    0.30
   0   3  -8   90.82    1.86
  -1   3  -8   64.97    1.59
   2  -3   8    2.02    0.44
   3  -3   8  162.71    2.57
   4  -3   8   40.01    1.32
   5  -3   8   32.36    1.21
   6  -3   8   17.59    0.99
   7  -3   8    4.35    0.64
   8  -3   8   45.51    1.55
   9  -3   8    6.32    0.77
  10  -3   8   24.83    1.29
  11   4  -8    1.12    0.57
  11  -4  -8    1.73    0.53
  10   4  -8   33.01    1.49
   9   4  -8    1.80    0.56
   8   4  -8   68.67    1.96
   7   4  -8   60.98    1.81
   6   4  -8  209.74    3.28
   5   4  -8   10.04    0.83
   4   4  -8    4.72    0.60
   3   4  -8    4.95    0.60
   2   4  -8   97.36    2.08
   1   4  -8   11.61    0.82
   0   4  -8    0.94    0.38
   1  -4   8   -0.08    0.35
   2  -4   8    0.17    0.35
   3  -4   8   -0.31    0.34
   4  -4   8    7.73    0.77
   5  -4   8   88.44    2.06
   6  -4   8   13.15    0.98
   7  -4   8   39.55    1.50
   8  -4   8    1.08    0.56
   9  -4   8   -0.41    0.49
  10   5  -8   26.35    1.43
   9   5  -8   84.13    2.33
   8   5  -8   22.61    1.28
   7   5  -8  126.42    2.71
   6   5  -8   14.31    1.01
   5   5  -8    0.09    0.38
   4   5  -8    4.66    0.66
   3   5  -8   12.08    0.89
   2   5  -8   31.00    1.29
   1   5  -8   33.04    1.30
   0   5  -8   18.96    1.04
   1  -5   8   10.79    0.86
   2  -5   8    0.15    0.41
   3  -5   8    2.51    0.56
   4  -5   8   -0.03    0.42
   5  -5   8   -0.09    0.43
   6  -5   8   17.45    1.13
   7  -5   8    4.45    0.75
   8  -5   8    6.99    0.87
   8   6  -8   22.88    1.32
   7   6  -8    0.00    0.47
   6   6  -8    6.05    0.79
   5   6  -8    3.15    0.64
   4   6  -8   17.67    1.09
   3   6  -8   27.79    1.30
   2   6  -8    3.58    0.61
   1   6  -8    0.09    0.39
   0  -6   8    0.30    0.42
   1  -6   8   23.17    1.22
   2  -6   8   16.59    1.10
   3  -6   8   38.45    1.52
   4  -6   8   64.75    1.96
   5  -6   8   20.35    1.25
   6  -6   8   -0.20    0.47
   6   7  -8   14.60    1.13
   5   7  -8   21.12    1.27
   4   7  -8    1.24    0.55
   3   7  -8   21.25    1.25
   2   7  -8    3.67    0.70
  -1  -7   8    3.92    0.69
   0  -7   8   -0.20    0.45
   1  -7   8   12.93    1.04
   2  -7   8   30.68    1.46
   3  -7   8    0.37    0.52
   4  -7   8    0.26    0.52
  12   0  -9    0.09    0.47
  11   0  -9   13.09    0.99
  10   0  -9   -0.06    0.38
   9   0  -9  104.42    2.25
   8   0  -9   -0.09    0.34
   7   0  -9  100.22    2.01
   6   0  -9    0.23    0.32
   5   0  -9    5.16    0.60
   4   0  -9   -0.14    0.28
   3   0  -9    0.44    0.32
   2   0  -9    0.30    0.29
   1   0  -9  274.92    2.99
   0   0  -9   -0.40    0.28
   2   0   9    0.34    0.31
  12   1  -9    5.26    0.78
  12  -1  -9    6.06    0.79
  11   1  -9    9.09    0.90
  11  -1  -9    8.98    0.86
  10   1  -9   -0.10    0.40
  10  -1  -9   -0.17    0.39
   9   1  -9    0.01    0.38
   9  -1  -9   -0.04    0.36
   8   1  -9   50.79    1.54
   8  -1  -9   51.97    1.49
   7   1  -9   -0.08    0.35
   7  -1  -9    0.41    0.35
   6   1  -9    2.88    0.49
   6  -1  -9    2.87    0.47
   5   1  -9   15.62    0.86
   5  -1  -9   17.54    0.82
   4   1  -9   63.19    1.51
   4  -1  -9   62.08    1.37
   3   1  -9  219.23    2.84
   2   1  -9  111.36    1.93
   1   1  -9  373.94    3.79
   0   1  -9  143.54    2.19
  -1   1  -9   33.02    1.08
   2  -1   9   53.80    1.33
   3  -1   9    1.04    0.37
   4  -1   9   25.65    0.99
   5  -1   9   50.08    1.32
   6  -1   9    5.19    0.63
   7  -1   9   22.42    1.03
   8  -1   9   16.08    0.93
  12   2  -9   18.82    1.22
  12  -2  -9   20.33    1.17
  11   2  -9   16.22    1.12
  11  -2  -9   15.14    1.02
  10   2  -9    1.55    0.53
  10  -2  -9    1.58    0.50
   9   2  -9    2.76    0.57
   9  -2  -9    2.61    0.52
   8   2  -9    6.09    0.73
   8  -2  -9    6.90    0.68
   7   2  -9    0.05    0.36
   7  -2  -9   -0.29    0.30
   6   2  -9   26.20    1.13
   5   2  -9   15.55    0.91
   4   2  -9   85.20    1.87
   3   2  -9   24.93    1.04
   2   2  -9    1.34    0.40
   1   2  -9    3.87    0.51
   0   2  -9   20.45    0.93
  -1   2  -9   70.74    1.64
   2  -2   9  406.93    4.22
   3  -2   9   80.85    1.74
   4  -2   9   56.75    1.50
   5  -2   9    0.46    0.39
   6  -2   9   12.25    0.85
   7  -2   9    2.87    0.55
   8  -2   9    8.98    0.86
   9  -2   9   40.51    1.47
  11   3  -9   13.61    1.09
  11  -3  -9   13.16    1.00
  10   3  -9    6.10    0.81
  10  -3  -9    6.31    0.72
   9   3  -9   14.80    1.03
   9  -3  -9   14.64    0.93
   8   3  -9    0.21    0.41
   7   3  -9   10.04    0.86
   6   3  -9   91.90    2.11
   5   3  -9   20.66    1.06
   4   3  -9  134.70    2.42
   3   3  -9   14.60    0.91
   2   3  -9    3.23    0.53
   1   3  -9   66.83    1.68
   0   3  -9    8.11    0.71
   1  -3   9   33.18    1.21
   2  -3   9   -0.28    0.36
   3  -3   9   22.69    1.06
   4  -3   9    8.29    0.80
   5  -3   9    1.02    0.48
   6  -3   9   10.76    0.89
   7  -3   9   57.89    1.73
   8  -3   9    9.04    0.90
   9  -3   9   42.58    1.62
  10   4  -9    0.28    0.50
   9   4  -9    0.26    0.47
   8   4  -9   41.35    1.62
   7   4  -9    0.76    0.48
   6   4  -9   31.76    1.38
   5   4  -9    4.83    0.65
   4   4  -9   10.27    0.85
   3   4  -9   16.09    1.01
   2   4  -9    4.12    0.59
   1   4  -9    0.18    0.35
   0   4  -9   26.75    1.18
   1  -4   9   25.39    1.14
   2  -4   9    2.70    0.55
   3  -4   9   72.66    1.89
   4  -4   9   54.91    1.70
   5  -4   9  130.40    2.59
   6  -4   9   42.36    1.57
   7  -4   9   26.23    1.31
   8  -4   9    0.25    0.50
   9   5  -9   34.98    1.60
   8   5  -9    4.29    0.75
   7   5  -9   11.53    0.98
   6   5  -9   -0.06    0.42
   5   5  -9    0.15    0.44
   4   5  -9    2.16    0.56
   3   5  -9    0.67    0.43
   2   5  -9    2.16    0.52
   1   5  -9   16.22    1.02
   0  -5   9   79.08    2.04
   1  -5   9    6.22    0.76
   2  -5   9   21.61    1.19
   3  -5   9   19.78    1.16
   4  -5   9   24.16    1.25
   5  -5   9   11.87    1.02
   6  -5   9  100.18    2.46
   7  -5   9   12.32    1.11
   7   6  -9    7.09    0.89
   6   6  -9    6.31    0.84
   5   6  -9   31.88    1.51
   4   6  -9   16.02    1.10
   3   6  -9    4.01    0.70
   2   6  -9   12.87    1.01
   1   6  -9    4.72    0.71
   0  -6   9    0.54    0.49
   1  -6   9    1.03    0.53
   2  -6   9    2.59    0.64
   3  -6   9   34.06    1.51
   4  -6   9    4.83    0.77
   5  -6   9   -0.09    0.52
   4   7  -9   -0.31    0.45
   3   7  -9    6.14    0.84
  -1  -7   9   12.24    1.05
   0  -7   9    2.10    0.64
   1  -7   9    0.54    0.54
   2  -7   9   15.56    1.20
  11   0 -10    0.08    0.45
  10   0 -10    0.29    0.46
   9   0 -10   -0.02    0.40
   8   0 -10    0.34    0.39
   7   0 -10   -0.28    0.34
   6   0 -10   10.60    0.79
   5   0 -10   -0.01    0.34
   4   0 -10    0.89    0.38
   3   0 -10    0.01    0.30
   2   0 -10   67.08    1.50
  11   1 -10    1.58    0.59
  11  -1 -10    1.81    0.59
  10   1 -10    0.44    0.47
  10  -1 -10    0.27    0.42
   9   1 -10    2.20    0.57
   9  -1 -10    3.12    0.58
   8   1 -10    2.51    0.56
   8  -1 -10    2.63    0.52
   7   1 -10   32.56    1.29
   7  -1 -10   32.16    1.22
   6   1 -10    1.65    0.46
   6  -1 -10    1.20    0.41
   5   1 -10    1.49    0.44
   5  -1 -10    1.90    0.43
   4   1 -10    2.66    0.48
   3   1 -10    9.07    0.72
   2   1 -10    2.79    0.49
   1   1 -10   -0.07    0.29
   0   1 -10   41.25    1.24
   1  -1  10   36.23    1.16
   2  -1  10   31.77    1.10
   3  -1  10   10.72    0.75
   4  -1  10   13.37    0.80
   5  -1  10   12.74    0.82
  11   2 -10    0.90    0.53
  11  -2 -10    0.82    0.53
  10   2 -10    2.74    0.63
  10  -2 -10    2.72    0.59
   9   2 -10   16.93    1.10
   9  -2 -10   16.62    0.99
   8   2 -10    1.61    0.52
   8  -2 -10    1.30    0.46
   7   2 -10    0.05    0.40
   6   2 -10    9.02    0.80
   5   2 -10   14.61    0.93
   4   2 -10   14.73    0.93
   3   2 -10    1.41    0.44
   2   2 -10    8.76    0.77
   1   2 -10   11.13    0.78
   0   2 -10    0.95    0.39
   1  -2  10   41.43    1.33
   2  -2  10   43.46    1.35
   3  -2  10    5.38    0.63
   4  -2  10   15.75    0.93
   5  -2  10   25.11    1.13
   6  -2  10    0.07    0.42
   7  -2  10    1.51    0.51
   8  -2  10   28.73    1.30
  10   3 -10    0.28    0.49
   9   3 -10    2.95    0.65
   8   3 -10   11.09    0.95
   7   3 -10    0.30    0.44
   6   3 -10   14.00    0.99
   5   3 -10    0.47    0.39
   4   3 -10    3.59    0.59
   3   3 -10   21.92    1.10
   2   3 -10   26.96    1.19
   1   3 -10    1.60    0.46
   0   3 -10    0.64    0.38
   1  -3  10    9.51    0.80
   2  -3  10    2.44    0.55
   3  -3  10  117.30    2.34
   4  -3  10   97.01    2.17
   5  -3  10   15.71    1.02
   6  -3  10    5.83    0.71
   7  -3  10    7.49    0.86
   8  -3  10    5.33    0.78
   9   4 -10    0.74    0.52
   8   4 -10    7.56    0.89
   7   4 -10    1.50    0.53
   6   4 -10   -0.22    0.40
   5   4 -10   -0.01    0.40
   4   4 -10   18.37    1.08
   3   4 -10   15.66    1.02
   2   4 -10    3.83    0.62
   1   4 -10   32.68    1.35
   0   4 -10    0.32    0.40
   1  -4  10    1.16    0.51
   2  -4  10    8.09    0.85
   3  -4  10    6.84    0.82
   4  -4  10    3.02    0.65
   5  -4  10    7.73    0.90
   6  -4  10   -0.39    0.47
   7  -4  10   19.99    1.25
   8   5 -10    0.17    0.45
   7   5 -10    0.79    0.52
   6   5 -10    7.25    0.88
   5   5 -10   19.44    1.20
   4   5 -10    0.11    0.43
   3   5 -10   -0.09    0.41
   2   5 -10    7.11    0.81
   1   5 -10    9.65    0.89
   0  -5  10   -0.17    0.43
   1  -5  10    5.01    0.74
   2  -5  10    2.48    0.61
   3  -5  10    0.16    0.48
   4  -5  10    7.77    0.92
   5  -5  10   66.32    2.07
   6   6 -10   -0.08    0.50
   5   6 -10    2.26    0.63
   4   6 -10   -0.10    0.46
   3   6 -10    5.15    0.76
   2   6 -10    9.98    0.95
  -1  -6  10    2.06    0.64
   0  -6  10   29.04    1.47
   1  -6  10   12.16    1.07
   2  -6  10   23.34    1.33
   3  -6  10    7.75    0.92
  11   0 -11  232.93    3.94
  10   0 -11   -0.30    0.46
   9   0 -11    7.42    0.83
   8   0 -11    0.07    0.42
   7   0 -11    5.18    0.67
   6   0 -11   -0.05    0.37
   5   0 -11   31.21    1.22
   4   0 -11    0.02    0.34
  10   1 -11    0.41    0.51
  10  -1 -11    0.35    0.47
   9   1 -11   -0.13    0.45
   9  -1 -11   -0.66    0.43
   8   1 -11   11.42    0.94
   8  -1 -11   11.11    0.89
   7   1 -11   34.83    1.40
   7  -1 -11   34.25    1.30
   6   1 -11    8.31    0.80
   5   1 -11   28.48    1.22
   4   1 -11    0.68    0.42
   3   1 -11    6.16    0.71
   2   1 -11    5.56    0.62
   1   1 -11    8.02    0.71
   0   1 -11    7.64    0.70
   1  -1  11    0.38    0.37
   2  -1  11    0.73    0.42
   3  -1  11    3.07    0.52
  10   2 -11   32.56    1.49
  10  -2 -11   32.00    1.39
   9   2 -11    6.58    0.85
   8   2 -11   46.58    1.71
   7   2 -11    1.64    0.54
   6   2 -11   11.39    0.93
   5   2 -11   26.59    1.24
   4   2 -11   18.18    1.02
   3   2 -11    3.96    0.58
   2   2 -11   -0.23    0.37
   1   2 -11   29.91    1.20
   0   2 -11    1.84    0.49
   1  -2  11    1.73    0.48
   2  -2  11    4.36    0.61
   3  -2  11    4.30    0.63
   4  -2  11   20.71    1.10
   5  -2  11    7.40    0.82
   6  -2  11    0.36    0.46
   7  -2  11    3.24    0.66
   9   3 -11   17.45    1.22
   8   3 -11   32.34    1.50
   7   3 -11   18.56    1.18
   6   3 -11    1.24    0.49
   5   3 -11    0.29    0.39
   4   3 -11    0.28    0.42
   3   3 -11   11.18    0.91
   2   3 -11    1.42    0.48
   1   3 -11   14.57    0.96
   0   3 -11    6.36    0.76
   1  -3  11    4.09    0.64
   2  -3  11    0.05    0.43
   3  -3  11   11.17    0.94
   4  -3  11   14.19    1.01
   5  -3  11   21.40    1.17
   6  -3  11    0.75    0.53
   8   4 -11    3.15    0.72
   7   4 -11    1.11    0.51
   6   4 -11   -0.02    0.46
   5   4 -11    3.88    0.70
   4   4 -11   14.78    1.04
   3   4 -11   22.51    1.22
   2   4 -11    8.69    0.87
   1   4 -11   -0.23    0.40
   0  -4  11   -0.28    0.46
   1  -4  11    0.01    0.47
   2  -4  11    0.09    0.46
   3  -4  11    0.13    0.49
   4  -4  11    5.25    0.77
   5  -4  11   14.20    1.11
   6   5 -11   23.89    1.37
   5   5 -11    6.24    0.83
   4   5 -11    6.48    0.83
   3   5 -11    3.52    0.69
   2   5 -11    6.88    0.82
   1   5 -11   12.89    1.03
   0  -5  11   25.16    1.34
   1  -5  11   69.50    2.10
   2  -5  11   48.77    1.80
   3  -5  11    5.66    0.83
   4  -5  11    9.12    1.01
   2   6 -11   10.97    1.04
  -1  -6  11   31.74    1.55
   0  -6  11   32.22    1.58
   9   0 -12   -0.24    0.49
   8   0 -12    0.95    0.52
   7   0 -12    0.02    0.45
   6   0 -12   90.39    2.13
   5   0 -12   -0.13    0.41
   9   1 -12  150.37    3.10
   9  -1 -12  151.07    2.93
   8   1 -12    1.37    0.58
   7   1 -12   10.75    0.96
   6   1 -12    9.89    0.89
   5   1 -12    0.17    0.42
   4   1 -12    0.10    0.39
   3   1 -12   28.14    1.22
   2   1 -12    0.43    0.42
   9   2 -12    0.33    0.57
   8   2 -12    7.13    0.88
   7   2 -12   49.44    1.78
   6   2 -12    7.36    0.87
   5   2 -12    5.62    0.71
   4   2 -12    7.10    0.82
   3   2 -12   12.71    0.94
   2   2 -12   20.89    1.11
   1   2 -12    2.83    0.57
   0   2 -12    7.16    0.80
   1  -2  12   41.02    1.44
   2  -2  12    0.72    0.47
   3  -2  12    3.66    0.63
   4  -2  12   13.61    1.00
   5  -2  12   95.47    2.18
   8   3 -12   17.13    1.22
   7   3 -12   80.26    2.29
   6   3 -12   49.79    1.78
   5   3 -12    1.99    0.59
   4   3 -12   21.72    1.22
   3   3 -12   21.19    1.17
   2   3 -12   83.13    2.15
   1   3 -12    1.20    0.52
   1  -3  12    7.65    0.85
   2  -3  12    1.01    0.51
   3  -3  12    0.18    0.49
   4  -3  12    1.83    0.60
   5  -3  12    8.01    0.97
   6   4 -12   12.74    1.12
   5   4 -12  108.33    2.69
   4   4 -12    2.22    0.64
   3   4 -12   20.99    1.25
   2   4 -12    4.96    0.76
   1   4 -12    4.54    0.73
   0  -4  12    1.69    0.56
   1  -4  12   45.72    1.70
   2  -4  12  117.31    2.65
   3  -4  12   77.40    2.21
   4   5 -12   11.99    1.08
   3   5 -12    0.03    0.51
   2   5 -12   -0.17    0.48
  -1  -5  12   35.05    1.61
   0  -5  12   22.29    1.36
   1  -5  12   62.46    2.07
   8   0 -13   -0.41    0.49
   8   1 -13    5.27    0.83
   7   1 -13    1.99    0.62
   6   1 -13   15.19    1.08
   5   1 -13   46.61    1.63
   4   1 -13    5.70    0.74
   7   2 -13   29.37    1.47
   6   2 -13    3.90    0.71
   5   2 -13    0.06    0.45
   4   2 -13   31.48    1.42
   3   2 -13   11.69    0.97
   2   2 -13    7.76    0.87
   1   2 -13   85.96    2.16
   0  -2  13   12.19    0.94
   1  -2  13    4.34    0.69
   2  -2  13    0.24    0.46
   6   3 -13   16.63    1.20
   5   3 -13    1.84    0.64
   4   3 -13    3.12    0.68
   3   3 -13   47.58    1.74
   2   3 -13    0.02    0.47
   1   3 -13   38.07    1.58
   0  -3  13    1.49    0.57
   1  -3  13    2.61    0.66
   2  -3  13    4.47    0.73
   3   4 -13    4.34    0.77
   2   4 -13   -0.09    0.48
   0  -4  13   28.80    1.48
   4   2 -14   -0.04    0.48
   3   2 -14    1.44    0.58
   0  -2  14    5.10    0.76
   0   4   0  335.01    3.19
  -1   4   0    3.94    0.43
   1   4   0    3.79    0.44
  -2   4   0   72.57    1.36
   2   4   0   74.55    1.35
  -3   4   0    0.63    0.25
   3   4   0    0.37    0.23
  -4   4   0   74.24    1.41
   4   4   0   72.04    1.32
  -5   4   0    4.22    0.50
   5   4   0    5.00    0.49
  -6   4   0   50.62    1.20
   6   4   0   51.55    1.12
   0   5   0    0.04    0.22
  -1   5   0   78.02    1.58
   1   5   0   80.72    1.60
  -2   5   0    0.01    0.26
   2   5   0    0.19    0.23
  -3   5   0   37.19    1.10
   3   5   0   38.27    1.11
  -4   5   0   22.23    0.90
   4   5   0   21.34    0.86
  -5   5   0   60.08    1.42
   5   5   0   57.93    1.34
  -6   5   0    4.27    0.50
   6   5   0    4.16    0.46
  -7   5   0  126.62    2.12
   0   6   0    4.62    0.54
  -1   6   0   58.12    1.52
   1   6   0   60.22    1.53
  -2   6   0    3.22    0.48
   2   6   0    3.03    0.46
  -3   6   0   59.52    1.53
   3   6   0   59.74    1.52
  -4   6   0    0.17    0.31
   4   6   0    0.21    0.32
  -5   6   0    6.29    0.67
   5   6   0    6.82    0.67
  -6   6   0   36.04    1.24
   6   6   0   35.81    1.19
  -7   6   0   24.22    1.09
   0   7   0   -0.12    0.32
  -1   7   0   21.29    1.07
   1   7   0   20.52    1.05
  -2   7   0   12.23    0.87
   2   7   0   11.73    0.86
  -3   7   0   48.32    1.54
   3   7   0   48.81    1.48
  -4   7   0   34.84    1.31
   4   7   0   35.92    1.33
  -5   7   0    0.08    0.37
   5   7   0   -0.11    0.38
  -6   7   0    1.59    0.50
   6   7   0    1.27    0.44
  -7   7   0   -0.12    0.40
   7   7   0    0.04    0.39
   0   8   0    0.32    0.41
  -1   8   0   14.19    0.99
   1   8   0   15.34    1.03
  -2   8   0    0.16    0.38
   2   8   0    0.06    0.41
  -3   8   0    0.95    0.49
   3   8   0    0.74    0.46
  -4   8   0    0.08    0.42
   4   8   0   -0.30    0.39
  -5   8   0    6.31    0.78
   5   8   0    5.73    0.71
  -6   8   0   18.84    1.16
   6   8   0   20.57    1.15
  -7   8   0   71.47    2.05
   7   8   0   73.66    1.97
   0   9   0    0.12    0.44
  -1   9   0   25.34    1.36
   1   9   0   24.08    1.33
  -2   9   0   -0.06    0.45
   2   9   0   -0.41    0.39
  -3   9   0   11.21    1.00
   3   9   0   10.76    1.00
   6   4  -1   57.54    1.19
  -6   4   1   58.33    1.26
   5   4  -1    4.04    0.46
  -5   4   1    4.14    0.48
   4   4  -1    2.05    0.32
  -4   4   1    2.93    0.37
   3   4  -1   19.64    0.74
  -3   4   1   21.51    0.78
   2   4  -1    2.07    0.32
  -2   4   1    1.74    0.30
   1   4  -1  243.92    2.63
  -1   4   1  248.03    2.66
   0   4  -1  223.69    2.52
   0   4   1  226.27    2.51
  -1   4  -1    2.28    0.33
   1   4   1    1.95    0.31
  -2   4  -1   51.10    1.15
   2   4   1   49.10    1.09
  -3   4  -1    1.63    0.32
   3   4   1    1.72    0.29
  -4   4  -1   16.69    0.73
   4   4   1   15.96    0.66
  -5   4  -1  341.18    3.39
   5   4   1  345.66    3.20
  -6   4  -1  422.70    3.86
   6   4   1  422.55    3.62
  -7   5   1   10.81    0.74
   6   5  -1   60.98    1.38
  -6   5   1   62.89    1.45
   5   5  -1    4.47    0.52
  -5   5   1    4.63    0.57
   4   5  -1    3.30    0.43
  -4   5   1    3.12    0.43
   3   5  -1    1.25    0.33
  -3   5   1    0.91    0.31
   2   5  -1   10.70    0.68
  -2   5   1   10.11    0.67
   1   5  -1   50.22    1.27
  -1   5   1   51.10    1.28
   0   5  -1   21.02    0.87
   0   5   1   21.52    0.87
  -1   5  -1  102.08    1.81
   1   5   1  104.07    1.80
  -2   5  -1  124.27    2.04
   2   5   1  121.25    1.93
  -3   5  -1   -0.13    0.25
   3   5   1    0.03    0.25
  -4   5  -1   13.07    0.73
   4   5   1   12.95    0.71
  -5   5  -1   38.11    1.15
   5   5   1   39.56    1.09
  -6   5  -1   12.95    0.73
   6   5   1   12.63    0.71
   7   6  -1    2.02    0.43
  -7   6   1    2.47    0.51
   6   6  -1   12.63    0.82
  -6   6   1   11.12    0.81
   5   6  -1    5.64    0.65
  -5   6   1    5.98    0.68
   4   6  -1   40.12    1.26
  -4   6   1   41.94    1.31
   3   6  -1   10.65    0.75
  -3   6   1   10.29    0.77
   2   6  -1    5.23    0.57
  -2   6   1    5.00    0.60
   1   6  -1    7.14    0.67
  -1   6   1    6.90    0.65
   0   6  -1   -0.13    0.28
   0   6   1    0.03    0.28
  -1   6  -1    6.19    0.68
   1   6   1    7.10    0.67
  -2   6  -1   16.34    0.89
   2   6   1   16.36    0.88
  -3   6  -1    0.04    0.30
   3   6   1    0.34    0.32
  -4   6  -1    6.90    0.69
   4   6   1    5.88    0.65
  -5   6  -1   40.00    1.32
   5   6   1   39.14    1.23
  -6   6  -1   12.13    0.81
   6   6   1   11.93    0.79
  -7   6  -1   51.84    1.48
   7   7  -1    4.79    0.64
  -7   7   1    5.10    0.67
   6   7  -1    6.78    0.74
  -6   7   1    5.99    0.73
   5   7  -1   30.11    1.23
  -5   7   1   30.09    1.26
   4   7  -1   24.47    1.12
  -4   7   1   23.67    1.16
   3   7  -1    3.04    0.53
  -3   7   1    3.30    0.56
   2   7  -1    4.24    0.62
  -2   7   1    4.99    0.63
   1   7  -1    1.09    0.43
  -1   7   1    1.38    0.42
   0   7  -1   -0.26    0.31
   0   7   1    0.05    0.35
  -1   7  -1    3.57    0.54
   1   7   1    2.99    0.54
  -2   7  -1    3.41    0.57
   2   7   1    2.97    0.52
  -3   7  -1   75.98    1.94
   3   7   1   75.22    1.83
  -4   7  -1   30.61    1.28
   4   7   1   31.32    1.23
  -5   7  -1   18.75    1.05
   5   7   1   17.98    0.98
  -6   7  -1    7.69    0.78
   6   7   1    9.18    0.81
  -7   7  -1    0.81    0.46
   7   8  -1   13.98    1.04
  -7   8   1   12.32    1.06
   6   8  -1   20.20    1.15
  -6   8   1   22.17    1.24
   5   8  -1    0.63    0.45
  -5   8   1    0.08    0.43
   4   8  -1    1.97    0.53
  -4   8   1    2.06    0.53
   3   8  -1   29.21    1.33
  -3   8   1   28.61    1.33
   2   8  -1   16.04    1.07
  -2   8   1   15.65    1.02
   1   8  -1   26.76    1.29
  -1   8   1   28.77    1.31
   0   8  -1   17.82    1.09
   0   8   1   17.75    1.08
  -1   8  -1    0.72    0.45
   1   8   1    0.30    0.40
  -2   8  -1    0.57    0.43
   2   8   1    0.31    0.41
  -3   8  -1    0.15    0.41
   3   8   1   -0.09    0.39
  -4   8  -1    0.26    0.41
   4   8   1   -0.13    0.37
  -5   8  -1    2.43    0.58
   5   8   1    2.47    0.56
  -6   8  -1   11.68    1.02
   6   8   1   12.73    0.95
  -7   8  -1    7.91    0.92
   3   9  -1    4.74    0.75
  -3   9   1    5.00    0.75
   2   9  -1   11.61    1.02
  -2   9   1   10.72    0.97
   1   9  -1    0.38    0.48
  -1   9   1    0.35    0.45
   0   9  -1    0.33    0.44
   0   9   1   -0.12    0.40
  -1   9  -1    4.34    0.70
   1   9   1    3.71    0.68
  -2   9  -1   -0.22    0.41
   2   9   1   -0.10    0.41
  -3   9  -1    7.83    0.92
   3   9   1    7.80    0.89
   7  -4  -2   10.44    0.65
   6   4  -2   25.48    0.85
  -6   4   2   25.52    0.86
   5   4  -2   28.61    0.89
  -5   4   2   30.05    0.91
   4   4  -2   52.37    1.16
  -4   4   2   53.79    1.20
   3   4  -2    0.27    0.22
  -3   4   2    0.09    0.21
   2   4  -2   35.90    0.98
  -2   4   2   37.26    0.99
   1   4  -2   75.95    1.41
  -1   4   2   75.36    1.39
   0   4  -2   17.32    0.73
   0   4   2   17.90    0.70
  -1   4  -2    0.03    0.20
   1   4   2    0.06    0.19
  -2   4  -2   15.04    0.69
   2   4   2   15.04    0.65
  -3   4  -2   61.03    1.30
   3   4   2   62.41    1.24
  -4   4  -2   22.02    0.83
   4   4   2   21.93    0.77
  -5   4  -2   55.80    1.27
  -5  -4  -2   54.23    1.14
  -6   4  -2   52.75    1.24
   8  -5  -2    1.38    0.39
   7   5  -2    8.66    0.64
   6   5  -2   12.43    0.73
  -6   5   2   12.68    0.75
   5   5  -2    0.12    0.27
  -5   5   2    0.13    0.29
   4   5  -2    2.12    0.40
  -4   5   2    2.81    0.42
   3   5  -2   20.08    0.88
  -3   5   2   21.03    0.86
   2   5  -2   14.77    0.77
  -2   5   2   15.91    0.77
   1   5  -2   20.04    0.86
  -1   5   2   19.10    0.82
   0   5  -2   35.36    1.10
   0   5   2   35.43    1.06
  -1   5  -2    2.98    0.41
   1   5   2    3.23    0.43
  -2   5  -2  118.07    1.99
   2   5   2  117.12    1.92
  -3   5  -2    2.92    0.43
   3   5   2    3.08    0.41
  -4   5  -2    0.79    0.32
   4   5   2    1.33    0.35
  -5   5  -2    5.18    0.58
   5   5   2    5.26    0.56
  -6   5  -2   37.36    1.20
   8  -6  -2    3.10    0.53
   7   6  -2    8.99    0.76
  -7   6   2    9.35    0.78
   6   6  -2   18.36    0.93
  -6   6   2   18.48    0.95
   5   6  -2   21.33    1.00
  -5   6   2   21.51    1.00
   4   6  -2    0.31    0.32
  -4   6   2    0.38    0.33
   3   6  -2   -0.02    0.30
  -3   6   2   -0.18    0.29
   2   6  -2    0.05    0.30
  -2   6   2    0.14    0.31
   1   6  -2    0.85    0.37
  -1   6   2    1.41    0.39
   0   6  -2   56.52    1.52
   0   6   2   57.28    1.50
  -1   6  -2    5.75    0.71
   1   6   2    6.87    0.64
  -2   6  -2   46.54    1.40
   2   6   2   49.68    1.39
  -3   6  -2   18.42    0.94
   3   6   2   19.00    0.91
  -4   6  -2   26.17    1.09
   4   6   2   28.07    1.08
  -5   6  -2    1.85    0.45
   5   6   2    1.99    0.43
  -6   6  -2    2.12    0.48
  -6  -6  -2    2.47    0.46
  -7   6  -2    3.50    0.55
   8  -7  -2   40.31    1.43
   7   7  -2    0.42    0.41
   6   7  -2    8.56    0.81
  -6   7   2    8.88    0.82
   5   7  -2    0.57    0.41
  -5   7   2    1.09    0.43
   4   7  -2   11.65    0.88
  -4   7   2   10.28    0.85
   3   7  -2    0.41    0.38
  -3   7   2    0.32    0.38
   2   7  -2  129.28    2.49
  -2   7   2  126.74    2.44
   1   7  -2   44.22    1.49
  -1   7   2   44.69    1.46
   0   7  -2   42.76    1.46
   0   7   2   42.56    1.42
  -1   7  -2   20.30    1.08
   1   7   2   21.72    1.07
  -2   7  -2    0.12    0.35
   2   7   2    0.11    0.34
  -3   7  -2   -0.38    0.33
   3   7   2    0.02    0.33
  -4   7  -2   21.11    1.11
   4   7   2   21.82    1.06
  -5   7  -2    3.51    0.58
   5   7   2    3.30    0.54
  -6   7  -2    3.59    0.61
  -6  -7  -2    3.43    0.57
  -7   7  -2    0.10    0.40
   7   8  -2    3.46    0.66
   7  -8  -2    2.88    0.61
   6   8  -2    8.67    0.91
  -6   8   2    7.83    0.89
   5   8  -2    0.05    0.40
  -5   8   2   -0.10    0.44
   4   8  -2   34.12    1.43
  -4   8   2   33.60    1.45
   3   8  -2    0.01    0.42
  -3   8   2    0.17    0.40
   2   8  -2   13.90    1.07
  -2   8   2   14.52    1.00
   1   8  -2    0.03    0.41
  -1   8   2    0.16    0.39
   0   8  -2    4.32    0.67
   0   8   2    4.84    0.68
  -1   8  -2    0.07    0.39
   1   8   2    0.30    0.41
  -2   8  -2    0.01    0.40
   2   8   2   -0.24    0.36
  -3   8  -2   15.72    1.08
   3   8   2   15.30    1.02
  -4   8  -2    0.22    0.43
   4   8   2    0.04    0.40
  -5   8  -2   84.11    2.21
  -5  -8  -2   86.13    2.11
  -6   8  -2    4.38    0.71
  -6  -8  -2    5.56    0.73
   3   9  -2   52.22    1.88
   2   9  -2   23.94    1.35
  -2   9   2   23.27    1.30
   1   9  -2    0.52    0.49
  -1   9   2    0.48    0.46
   0   9  -2   14.96    1.12
   0   9   2   15.77    1.11
  -1   9  -2    3.38    0.67
   1   9   2    4.09    0.69
  -2   9  -2    2.92    0.67
   2   9   2    3.09    0.66
   7   4  -3    2.22    0.36
   7  -4  -3    1.66    0.35
   6   4  -3   23.89    0.86
   6  -4  -3   24.55    0.86
   5   4  -3   65.31    1.35
   5  -4  -3   63.62    1.32
   4   4  -3   78.42    1.47
   4  -4  -3   77.42    1.45
   3   4  -3   40.32    1.05
   3  -4  -3   38.36    1.02
   2   4  -3   44.04    1.11
  -2   4   3   46.31    1.12
   1   4  -3   46.72    1.14
  -1   4   3   47.37    1.13
   0   4  -3   18.25    0.75
   0   4   3   19.07    0.75
  -1   4  -3    0.01    0.21
  -1  -4  -3   -0.04    0.22
  -2   4  -3  167.74    2.21
  -2  -4  -3  167.18    2.11
  -3   4  -3   74.44    1.47
  -3  -4  -3   70.60    1.35
  -4   4  -3  112.71    1.84
  -4  -4  -3  112.23    1.70
  -5   4  -3   25.76    0.94
  -5  -4  -3   26.03    0.87
  -6   4  -3    4.57    0.55
   8  -5  -3    1.00    0.38
   7   5  -3   17.83    0.89
   7  -5  -3   17.43    0.84
   6   5  -3   -0.03    0.29
   6  -5  -3    0.41    0.31
   5   5  -3   71.00    1.56
   5  -5  -3   72.28    1.55
   4   5  -3  170.50    2.45
  -4   5   3  173.35    2.45
   3   5  -3    2.29    0.41
  -3   5   3    2.34    0.39
   2   5  -3    9.87    0.69
  -2   5   3    9.63    0.64
   1   5  -3    2.41    0.40
  -1   5   3    2.25    0.38
   0   5  -3    0.24    0.27
   0   5   3   -0.05    0.24
  -1   5  -3   30.06    1.07
   1   5   3   30.57    1.02
  -2   5  -3   99.62    1.86
  -3   5  -3   48.31    1.34
  -3  -5  -3   49.61    1.26
  -4   5  -3   33.51    1.13
  -4  -5  -3   34.06    1.08
  -5   5  -3    4.11    0.50
  -5  -5  -3    3.87    0.48
  -6   5  -3    1.24    0.38
   8  -6  -3   -0.07    0.38
   7   6  -3   18.83    0.99
   7  -6  -3   18.62    0.95
   6   6  -3    5.28    0.58
   6  -6  -3    4.76    0.58
   5   6  -3    4.11    0.55
   5  -6  -3    4.19    0.55
   4   6  -3    5.38    0.60
  -4   6   3    5.21    0.63
   3   6  -3   14.30    0.90
  -3   6   3   14.24    0.83
   2   6  -3    6.69    0.72
  -2   6   3    7.97    0.69
   1   6  -3   90.82    1.93
  -1   6   3   91.37    1.88
   0   6  -3  269.02    3.46
   0   6   3  269.69    3.40
  -1   6  -3  252.83    3.34
   1   6   3  255.99    3.26
  -2   6  -3   61.10    1.64
   2   6   3   62.29    1.56
  -3   6  -3   19.42    0.98
  -3  -6  -3   18.93    0.93
  -4   6  -3    0.69    0.36
  -4  -6  -3    0.36    0.34
  -5   6  -3    1.59    0.44
  -5  -6  -3    2.20    0.43
  -6   6  -3   28.92    1.17
  -7   6  -3   24.55    1.13
   8  -7  -3   25.07    1.18
   7   7  -3    0.56    0.44
   7  -7  -3    0.53    0.45
   6   7  -3   38.18    1.42
   6  -7  -3   37.88    1.40
   5   7  -3   23.77    1.16
   5  -7  -3   20.51    1.06
   4   7  -3    4.58    0.65
   3   7  -3    3.12    0.55
  -3   7   3    2.93    0.55
   2   7  -3   14.41    0.98
  -2   7   3   13.39    0.89
   1   7  -3   20.75    1.15
  -1   7   3   21.54    1.06
   0   7  -3    1.42    0.48
   0   7   3    1.72    0.46
  -1   7  -3    6.52    0.75
   1   7   3    7.35    0.72
  -2   7  -3    0.14    0.38
  -3   7  -3    0.48    0.41
  -3  -7  -3    0.32    0.37
  -4   7  -3   25.36    1.23
  -4  -7  -3   25.88    1.16
  -5   7  -3   15.68    1.03
  -5  -7  -3   15.77    0.95
  -6   7  -3   24.74    1.21
  -7   7  -3   28.79    1.26
   7   8  -3    7.39    0.88
   7  -8  -3    7.22    0.88
   6   8  -3    0.73    0.49
   6  -8  -3    0.77    0.52
   5   8  -3    6.48    0.77
   5  -8  -3    5.95    0.77
   4   8  -3   23.72    1.27
   4  -8  -3   24.50    1.25
   3   8  -3   61.34    1.90
   3  -8  -3   58.91    1.82
   2   8  -3  139.70    2.85
   1   8  -3   92.93    2.33
  -1   8   3   91.48    2.22
   0   8  -3    2.41    0.59
  -1  -8  -3    0.91    0.50
  -2   8  -3    1.47    0.54
  -2  -8  -3    1.95    0.55
  -3   8  -3   -0.04    0.42
  -3  -8  -3    0.35    0.45
  -4   8  -3    1.61    0.55
  -4  -8  -3    1.78    0.53
  -5   8  -3    1.58    0.53
  -5  -8  -3    1.86    0.56
  -6   8  -3    5.66    0.77
   1   9  -3   -0.23    0.47
   1  -9  -3   -0.13    0.46
   0   9  -3    0.25    0.48
   0  -9  -3   -0.31    0.48
  -1   9  -3    3.80    0.73
  -1  -9  -3    3.51    0.70
   7  -3  -4  357.94    3.22
   6   3  -4  378.59    3.39
   6  -3  -4  377.87    3.35
   5   3  -4  232.96    2.51
   5  -3  -4  231.64    2.45
   4   3  -4  235.49    2.51
   4  -3  -4  237.28    2.47
   3   3  -4   18.92    0.69
   3  -3  -4   19.57    0.71
   2   3  -4    0.01    0.18
   2  -3  -4    0.49    0.23
   1   3  -4   57.99    1.16
   1  -3  -4   57.55    1.12
   0   3  -4  166.50    2.05
   0  -3  -4  168.37    2.00
  -1   3  -4    0.10    0.19
  -1  -3  -4    0.25    0.20
  -2   3  -4    2.40    0.31
  -2  -3  -4    2.29    0.31
  -3   3  -4   43.11    1.01
  -3  -3  -4   44.67    0.99
  -4   3  -4  225.03    2.51
  -4  -3  -4  218.68    2.32
  -5   3  -4  158.47    2.08
  -5  -3  -4  157.32    1.91
  -6   3  -4    5.44    0.56
   8  -4  -4    2.05    0.40
   7   4  -4    2.65    0.40
   7  -4  -4    2.80    0.41
   6   4  -4   42.76    1.14
   6  -4  -4   45.02    1.15
   5   4  -4   20.97    0.86
   5  -4  -4   22.17    0.89
   4   4  -4   33.39    1.04
   4  -4  -4   32.53    1.00
   3   4  -4  334.74    3.40
   3  -4  -4  334.19    3.29
   2   4  -4   99.35    1.70
   2  -4  -4   98.76    1.65
   1   4  -4   16.96    0.75
   1  -4  -4   16.82    0.74
   0   4  -4   30.96    0.97
   0  -4  -4   31.00    0.94
  -1   4  -4   34.82    1.03
  -1  -4  -4   35.36    1.00
  -2   4  -4  102.19    1.77
  -2  -4  -4  103.72    1.68
  -3   4  -4   22.94    0.89
  -3  -4  -4   24.05    0.87
  -4   4  -4  378.36    3.76
  -4  -4  -4  379.28    3.54
  -5   4  -4   31.51    1.04
  -5  -4  -4   31.73    0.98
  -6   4  -4   48.86    1.28
   8  -5  -4    0.04    0.33
   7   5  -4   23.56    0.99
   7  -5  -4   24.70    0.98
   6   5  -4    1.52    0.38
   6  -5  -4    1.56    0.39
   5   5  -4   75.07    1.65
   5  -5  -4   72.24    1.58
   4   5  -4   65.88    1.56
   4  -5  -4   66.00    1.51
   3   5  -4  212.36    2.85
   3  -5  -4  211.69    2.74
   2   5  -4  128.39    2.16
   2  -5  -4  126.79    2.06
   1   5  -4   25.58    0.99
   1  -5  -4   24.83    0.96
   0   5  -4   32.06    1.10
   0  -5  -4   33.67    1.09
  -1   5  -4  308.98    3.55
  -1  -5  -4  310.79    3.39
  -2   5  -4  215.11    2.90
  -2  -5  -4  212.33    2.73
  -3   5  -4  381.44    4.08
  -3  -5  -4  379.09    3.82
  -4   5  -4   -0.08    0.27
  -4  -5  -4    0.05    0.31
  -5   5  -4    4.43    0.53
  -5  -5  -4    4.89    0.59
  -6   5  -4   10.90    0.77
   8  -6  -4    4.12    0.59
   7   6  -4   85.75    1.91
   7  -6  -4   83.33    1.86
   6   6  -4   12.61    0.88
   6  -6  -4   12.72    0.86
   5   6  -4    0.97    0.39
   5  -6  -4    1.13    0.43
   4   6  -4   24.58    1.10
   4  -6  -4   26.18    1.10
   3   6  -4   17.82    0.98
   3  -6  -4   20.05    0.99
   2   6  -4   83.70    1.91
   2  -6  -4   86.12    1.88
   1   6  -4   28.59    1.17
   1  -6  -4   29.35    1.16
   0   6  -4   71.79    1.77
   0  -6  -4   70.59    1.69
  -1   6  -4    4.72    0.58
  -1  -6  -4    5.10    0.58
  -2   6  -4   14.66    0.90
  -2  -6  -4   15.00    0.88
  -3   6  -4   10.43    0.81
  -3  -6  -4    9.73    0.77
  -4   6  -4   -0.07    0.32
  -4  -6  -4    0.11    0.32
  -5   6  -4    6.38    0.72
  -5  -6  -4    7.70    0.73
  -6   6  -4   18.50    1.03
   8  -7  -4   11.44    0.94
   7   7  -4    7.22    0.79
   7  -7  -4    6.74    0.80
   6   7  -4   33.20    1.37
   6  -7  -4   30.88    1.29
   5   7  -4    2.53    0.55
   5  -7  -4    2.92    0.57
   4   7  -4    9.25    0.87
   4  -7  -4    9.27    0.84
   3   7  -4   15.26    1.03
   3  -7  -4   17.03    1.01
   2   7  -4   20.61    1.14
   2  -7  -4   20.13    1.10
   1   7  -4  210.48    3.34
   1  -7  -4  202.78    3.16
   0   7  -4   73.00    1.96
   0  -7  -4   74.28    1.89
  -1   7  -4   41.84    1.53
  -1  -7  -4   42.11    1.43
  -2   7  -4    1.73    0.50
  -2  -7  -4    2.28    0.50
  -3   7  -4    6.02    0.73
  -3  -7  -4    6.01    0.74
  -4   7  -4   13.07    0.96
  -4  -7  -4   13.97    0.93
  -5   7  -4    7.47    0.81
  -5  -7  -4    7.17    0.77
  -6   7  -4    0.68    0.48
  -7   7  -4   15.84    1.06
   6   8  -4   10.65    0.99
   6  -8  -4    8.63    0.94
   5   8  -4    2.03    0.60
   5  -8  -4    2.73    0.64
   4   8  -4   21.94    1.24
   4  -8  -4   20.69    1.22
   3   8  -4   67.29    2.02
   3  -8  -4   63.58    1.91
   2   8  -4   11.03    0.97
   2  -8  -4   11.70    0.99
   1   8  -4    4.91    0.74
   1  -8  -4    5.27    0.72
   0   8  -4    6.17    0.80
   0  -8  -4    5.56    0.72
  -1   8  -4   63.14    1.97
  -1  -8  -4   64.23    1.89
  -2   8  -4   16.01    1.12
  -2  -8  -4   16.82    1.09
  -3   8  -4    0.91    0.50
  -3  -8  -4    0.66    0.47
  -4   8  -4   39.57    1.60
  -4  -8  -4   38.86    1.51
  -5   8  -4   11.02    1.01
  -5  -8  -4   11.06    0.94
   7  -2  -5   34.23    0.92
   6  -2  -5  161.52    1.93
   5  -2  -5    0.05    0.22
  -3   2  -5   -0.04    0.17
  -4   2  -5   98.26    1.50
  -5   2  -5    6.91    0.50
   7   3  -5   62.00    1.28
   7  -3  -5   62.30    1.28
   6   3  -5   35.13    0.98
   6  -3  -5   34.84    0.99
   5   3  -5   77.59    1.43
   5  -3  -5   74.53    1.38
   4   3  -5    1.52    0.30
   4  -3  -5    1.39    0.32
   3   3  -5   32.97    0.93
   3  -3  -5   32.68    0.93
   2   3  -5   76.05    1.38
   2  -3  -5   78.40    1.40
   1   3  -5  317.50    3.12
   1  -3  -5  319.66    3.07
   0   3  -5   43.82    1.05
   0  -3  -5   44.87    1.05
  -1   3  -5  118.58    1.77
  -1  -3  -5  123.27    1.74
  -2   3  -5   32.97    0.94
  -2  -3  -5   34.05    0.94
  -3   3  -5   11.02    0.58
  -3  -3  -5   10.26    0.63
  -4   3  -5   41.46    1.06
  -4  -3  -5   41.68    1.03
  -5   3  -5  117.30    1.83
  -5  -3  -5  117.43    1.71
  -6   3  -5  215.78    2.61
   8  -4  -5    9.99    0.73
   7   4  -5    5.12    0.60
   7  -4  -5    5.33    0.60
   6   4  -5   43.34    1.22
   6  -4  -5   42.91    1.19
   5   4  -5  301.47    3.30
   5  -4  -5  299.88    3.22
   4   4  -5  314.05    3.38
   4  -4  -5  313.90    3.28
   3   4  -5   90.97    1.69
   3  -4  -5   92.11    1.66
   2   4  -5   53.29    1.29
   2  -4  -5   54.52    1.28
   1   4  -5   25.52    0.92
   1  -4  -5   26.90    0.93
   0   4  -5   14.00    0.72
   0  -4  -5   15.01    0.75
  -1   4  -5    2.79    0.41
  -1  -4  -5    3.63    0.43
  -2   4  -5  147.02    2.21
  -2  -4  -5  145.09    2.09
  -3   4  -5   49.07    1.29
  -3  -4  -5   49.60    1.24
  -4   4  -5  168.77    2.43
  -4  -4  -5  169.17    2.26
  -5   4  -5   39.82    1.19
  -5  -4  -5   39.82    1.12
  -6   4  -5    3.15    0.46
   8  -5  -5    9.85    0.76
   7   5  -5    1.16    0.41
   7  -5  -5    1.11    0.40
   6   5  -5    3.12    0.49
   6  -5  -5    3.13    0.49
   5   5  -5   33.26    1.15
   5  -5  -5   35.61    1.18
   4   5  -5    2.18    0.44
   4  -5  -5    2.12    0.45
   3   5  -5    8.71    0.71
   3  -5  -5    8.45    0.74
   2   5  -5   23.82    1.02
   2  -5  -5   25.06    1.05
   1   5  -5   22.73    0.99
   1  -5  -5   22.51    1.01
   0   5  -5    2.08    0.41
   0  -5  -5    1.88    0.42
  -1   5  -5   24.78    1.03
  -1  -5  -5   24.70    1.00
  -2   5  -5   32.82    1.16
  -2  -5  -5   32.80    1.13
  -3   5  -5   76.03    1.75
  -3  -5  -5   77.37    1.64
  -4   5  -5    0.19    0.32
  -4  -5  -5    0.17    0.30
  -5   5  -5   21.62    1.02
  -5  -5  -5   20.23    0.94
  -6   5  -5   15.26    0.91
   8  -6  -5    6.54    0.77
   7   6  -5    0.42    0.39
   7  -6  -5    0.22    0.39
   6   6  -5    4.05    0.57
   6  -6  -5    4.54    0.61
   5   6  -5    1.52    0.44
   5  -6  -5    1.49    0.47
   4   6  -5   21.21    1.09
   4  -6  -5   20.99    1.06
   3   6  -5   93.95    2.06
   3  -6  -5   98.29    2.02
   2   6  -5  162.35    2.73
   2  -6  -5  162.75    2.64
   1   6  -5   73.44    1.85
   1  -6  -5   73.28    1.77
   0   6  -5  146.53    2.61
   0  -6  -5  145.36    2.49
  -1   6  -5   29.75    1.21
  -1  -6  -5   31.20    1.20
  -2   6  -5   31.87    1.27
  -2  -6  -5   31.93    1.20
  -3   6  -5    5.85    0.68
  -3  -6  -5    5.31    0.60
  -4   6  -5    0.46    0.38
  -4  -6  -5    0.16    0.35
  -5   6  -5   84.57    2.01
  -5  -6  -5   80.52    1.81
  -6   6  -5   10.63    0.88
   8  -7  -5    8.62    0.89
   7   7  -5   32.26    1.41
   7  -7  -5   29.61    1.32
   6   7  -5   24.69    1.25
   6  -7  -5   25.47    1.22
   5   7  -5   19.91    1.14
   5  -7  -5   20.25    1.14
   4   7  -5    0.03    0.38
   4  -7  -5   -0.02    0.41
   3   7  -5    1.22    0.48
   3  -7  -5    0.94    0.47
   2   7  -5    0.60    0.43
   2  -7  -5    0.62    0.45
   1   7  -5   79.02    2.08
   1  -7  -5   78.34    1.97
   0   7  -5   62.48    1.86
   0  -7  -5   61.48    1.77
  -1   7  -5   75.59    2.04
  -1  -7  -5   75.98    1.91
  -2   7  -5   48.02    1.66
  -2  -7  -5   47.90    1.56
  -3   7  -5    6.95    0.80
  -3  -7  -5    7.45    0.78
  -4   7  -5    4.80    0.69
  -4  -7  -5    5.18    0.65
  -5   7  -5    1.96    0.56
  -5  -7  -5    1.73    0.52
  -6   7  -5   12.31    1.00
   6   8  -5   12.57    1.08
   6  -8  -5   11.63    1.05
   5   8  -5    4.89    0.75
   5  -8  -5    4.48    0.77
   4   8  -5    6.68    0.82
   4  -8  -5    6.63    0.82
   3   8  -5   12.18    1.04
   3  -8  -5   11.99    1.05
   2   8  -5    2.88    0.66
   2  -8  -5    2.43    0.61
   1   8  -5    5.23    0.77
   1  -8  -5    4.50    0.71
   0   8  -5   20.76    1.29
   0  -8  -5   21.33    1.22
  -1   8  -5   14.27    1.12
  -1  -8  -5   12.78    1.01
  -2   8  -5   -0.17    0.44
  -2  -8  -5   -0.06    0.46
  -3   8  -5    0.46    0.48
  -3  -8  -5    0.53    0.50
  -4   8  -5    1.50    0.56
  -4  -8  -5    1.45    0.56
   7   0  -6    0.02    0.22
   6   0  -6    3.05    0.34
   5   0  -6   -0.14    0.20
  -3   0  -6   -0.05    0.20
  -4   0  -6   49.12    1.05
  -5   0  -6   -0.01    0.21
   7   1  -6   21.86    0.71
   6   1  -6    0.00    0.19
   6  -1  -6   -0.06    0.23
   5   1  -6    0.29    0.21
   5  -1  -6    0.00    0.22
   4   1  -6    1.22    0.26
   4  -1  -6    1.37    0.29
   3   1  -6   32.10    0.83
   3  -1  -6   30.92    0.84
   2   1  -6    3.87    0.36
   2  -1  -6    4.14    0.44
   1   1  -6    7.90    0.52
   1  -1  -6    7.77    0.51
   0   1  -6   23.98    0.75
   0  -1  -6   23.99    0.75
  -1   1  -6    2.11    0.29
  -1  -1  -6    2.27    0.32
  -2   1  -6   13.43    0.60
  -2  -1  -6   12.48    0.59
  -3   1  -6   23.66    0.76
  -3  -1  -6   22.97    0.75
  -4   1  -6   38.19    0.94
  -5   1  -6   60.31    1.18
  -5  -1  -6   60.53    1.17
   7   2  -6    0.97    0.28
   7  -2  -6    0.55    0.30
   6   2  -6    8.66    0.56
   6  -2  -6    8.89    0.63
   5   2  -6   31.33    0.89
   5  -2  -6   32.09    0.93
   4   2  -6   28.26    0.85
   4  -2  -6   27.26    0.84
   3   2  -6    2.13    0.32
   3  -2  -6    2.59    0.35
   2   2  -6    0.08    0.20
   2  -2  -6    0.31    0.24
   1   2  -6    5.53    0.48
   1  -2  -6    5.13    0.47
   0   2  -6   93.44    1.51
   0  -2  -6   93.47    1.50
  -1   2  -6   18.67    0.72
  -1  -2  -6   19.16    0.72
  -2   2  -6   15.42    0.66
  -2  -2  -6   15.10    0.65
  -3   2  -6    0.17    0.22
  -3  -2  -6    0.13    0.25
  -4   2  -6   10.63    0.56
  -4  -2  -6   11.69    0.65
  -5   2  -6    1.96    0.34
  -5  -2  -6    1.84    0.38
   8  -3  -6    6.58    0.66
   7   3  -6   12.54    0.70
   7  -3  -6   12.26    0.70
   6   3  -6   12.87    0.69
   6  -3  -6   12.77    0.73
   5   3  -6   33.17    1.00
   5  -3  -6   34.30    1.04
   4   3  -6    1.98    0.34
   4  -3  -6    2.13    0.38
   3   3  -6    4.66    0.48
   3  -3  -6    4.62    0.55
   2   3  -6   22.86    0.83
   2  -3  -6   22.62    0.84
   1   3  -6   13.15    0.67
   1  -3  -6   13.89    0.71
   0   3  -6    5.22    0.49
   0  -3  -6    5.96    0.56
  -1   3  -6   10.17    0.61
  -1  -3  -6   10.67    0.65
  -2   3  -6   53.27    1.24
  -2  -3  -6   53.12    1.20
  -3   3  -6    5.65    0.51
  -3  -3  -6    5.31    0.55
  -4   3  -6    0.07    0.24
  -4  -3  -6    0.06    0.28
  -5   3  -6   22.90    0.88
  -5  -3  -6   21.95    0.84
  -6   3  -6    4.39    0.47
   8  -4  -6    6.92    0.68
   7   4  -6   86.54    1.75
   7  -4  -6   86.29    1.70
   6   4  -6   33.47    1.14
   6  -4  -6   33.85    1.12
   5   4  -6    8.69    0.67
   5  -4  -6    8.95    0.71
   4   4  -6    8.14    0.64
   4  -4  -6    6.81    0.66
   3   4  -6    3.05    0.44
   3  -4  -6    2.92    0.45
   2   4  -6    7.11    0.59
   2  -4  -6    7.35    0.66
   1   4  -6   13.31    0.75
   1  -4  -6   14.23    0.79
   0   4  -6    1.37    0.34
   0  -4  -6    1.75    0.38
  -1   4  -6   19.45    0.85
  -1  -4  -6   20.30    0.89
  -2   4  -6   40.48    1.20
  -2  -4  -6   41.44    1.19
  -3   4  -6    0.06    0.27
  -3  -4  -6   -0.09    0.28
  -4   4  -6    4.47    0.51
  -4  -4  -6    4.83    0.51
  -5   4  -6   14.06    0.83
  -5  -4  -6   14.69    0.77
  -6   4  -6    1.04    0.38
   8  -5  -6   41.00    1.31
   7   5  -6    0.57    0.37
   7  -5  -6    0.96    0.41
   6   5  -6    1.17    0.41
   6  -5  -6    0.70    0.40
   5   5  -6    7.98    0.73
   5  -5  -6    9.07    0.79
   4   5  -6   53.40    1.50
   4  -5  -6   53.45    1.43
   3   5  -6   41.93    1.33
   3  -5  -6   40.87    1.28
   2   5  -6  140.43    2.39
   2  -5  -6  141.37    2.31
   1   5  -6   -0.16    0.27
   1  -5  -6    0.04    0.31
   0   5  -6    0.57    0.33
   0  -5  -6    0.76    0.36
  -1   5  -6   29.25    1.14
  -1  -5  -6   30.17    1.10
  -2   5  -6   14.44    0.88
  -2  -5  -6   13.16    0.85
  -3   5  -6   10.86    0.81
  -3  -5  -6   11.85    0.84
  -4   5  -6   17.65    0.95
  -4  -5  -6   16.50    0.90
  -5   5  -6    3.25    0.52
  -5  -5  -6    3.59    0.51
  -6   5  -6   13.31    0.89
   8  -6  -6   49.99    1.55
   7   6  -6    0.10    0.41
   7  -6  -6    0.07    0.41
   6   6  -6   -0.32    0.34
   6  -6  -6    0.07    0.38
   5   6  -6    0.64    0.38
   5  -6  -6    0.92    0.41
   4   6  -6    0.42    0.37
   4  -6  -6    0.34    0.40
   3   6  -6    0.14    0.35
   3  -6  -6   -0.36    0.34
   2   6  -6    0.19    0.33
   2  -6  -6   -0.29    0.38
   1   6  -6   54.50    1.62
   1  -6  -6   55.29    1.59
   0   6  -6    1.37    0.43
   0  -6  -6    0.71    0.43
  -1   6  -6    3.14    0.54
  -1  -6  -6    3.18    0.55
  -2   6  -6    1.02    0.45
  -2  -6  -6    1.39    0.44
  -3   6  -6   27.52    1.23
  -3  -6  -6   27.22    1.14
  -4   6  -6   22.80    1.14
  -4  -6  -6   22.88    1.08
  -5   6  -6    0.48    0.42
  -5  -6  -6    0.36    0.41
  -6   6  -6   -0.07    0.38
   8  -7  -6    2.64    0.63
   7   7  -6    2.07    0.58
   7  -7  -6    2.01    0.59
   6   7  -6   18.68    1.15
   6  -7  -6   17.85    1.09
   5   7  -6    8.12    0.86
   5  -7  -6    7.53    0.88
   4   7  -6   23.68    1.21
   4  -7  -6   23.06    1.20
   3   7  -6    1.09    0.48
   3  -7  -6    1.35    0.51
   2   7  -6   16.31    1.05
   2  -7  -6   17.23    1.07
   1   7  -6   51.15    1.72
   1  -7  -6   49.53    1.63
   0   7  -6   67.27    1.95
   0  -7  -6   67.67    1.88
  -1   7  -6   14.43    1.02
  -1  -7  -6   13.21    0.99
  -2   7  -6    4.52    0.68
  -2  -7  -6    4.20    0.64
  -3   7  -6   -0.22    0.38
  -3  -7  -6    0.08    0.41
  -4   7  -6    4.16    0.66
  -4  -7  -6    4.37    0.68
  -5   7  -6   15.26    1.06
  -5  -7  -6   16.10    1.08
  -6   7  -6    1.93    0.58
   5   8  -6   45.56    1.79
   4   8  -6    1.05    0.54
   4  -8  -6    1.00    0.58
   3   8  -6   17.14    1.23
   3  -8  -6   16.58    1.14
   2   8  -6    0.69    0.51
   2  -8  -6    0.47    0.49
   1   8  -6    0.27    0.46
   1  -8  -6   -0.18    0.45
   0   8  -6   25.32    1.40
   0  -8  -6   22.36    1.26
  -1   8  -6   21.96    1.32
  -1  -8  -6   21.00    1.24
  -2   8  -6   70.96    2.19
  -2  -8  -6   69.83    2.08
  -3   8  -6   17.47    1.23
  -3  -8  -6   16.80    1.13
   7   0  -7  117.92    1.71
   6   0  -7    0.06    0.23
   5   0  -7   59.77    1.20
   4   0  -7    0.19    0.24
   3   0  -7    4.68    0.50
   2   0  -7    0.12    0.24
   1   0  -7  464.93    3.92
   0   0  -7    0.00    0.22
  -1   0  -7   29.33    0.88
  -2   0  -7   -0.05    0.21
  -3   0  -7    0.96    0.28
  -4   0  -7   -0.17    0.22
  -5   0  -7   12.16    0.65
   8  -1  -7    4.30    0.46
   7   1  -7   23.29    0.81
   7  -1  -7   21.58    0.79
   6   1  -7    7.94    0.58
   6  -1  -7    7.74    0.58
   5   1  -7    5.62    0.54
   5  -1  -7    4.79    0.53
   4   1  -7  135.01    1.85
   4  -1  -7  136.63    1.89
   3   1  -7  108.28    1.65
   3  -1  -7  112.13    1.71
   2   1  -7  139.01    1.89
   2  -1  -7  139.15    1.91
   1   1  -7   45.43    1.09
   1  -1  -7   45.36    1.09
   0   1  -7    4.10    0.40
   0  -1  -7    3.90    0.42
  -1   1  -7    7.19    0.54
  -1  -1  -7    7.36    0.56
  -2   1  -7    2.11    0.33
  -2  -1  -7    2.02    0.35
  -3   1  -7   37.35    0.99
  -3  -1  -7   36.91    1.01
  -4   1  -7   13.39    0.67
  -4  -1  -7   13.22    0.69
  -5   1  -7    8.42    0.57
  -5  -1  -7    8.43    0.62
   8  -2  -7   27.56    0.96
   7   2  -7   16.28    0.76
   7  -2  -7   14.95    0.79
   6   2  -7   26.79    0.89
   6  -2  -7   26.64    0.93
   5   2  -7   23.09    0.85
   5  -2  -7   23.23    0.87
   4   2  -7    3.61    0.41
   4  -2  -7    4.72    0.57
   3   2  -7    4.30    0.51
   3  -2  -7    4.30    0.45
   2   2  -7   86.70    1.55
   2  -2  -7   84.72    1.53
   1   2  -7   11.92    0.66
   1  -2  -7   12.39    0.66
   0   2  -7    6.32    0.56
   0  -2  -7    5.91    0.56
  -1   2  -7    0.86    0.28
  -1  -2  -7    1.21    0.34
  -2   2  -7   30.27    0.94
  -2  -2  -7   29.85    0.94
  -3   2  -7    0.06    0.22
  -3  -2  -7   -0.10    0.28
  -4   2  -7   30.33    0.94
  -4  -2  -7   31.45    0.99
  -5   2  -7   25.51    0.89
  -5  -2  -7   25.79    0.90
   8  -3  -7    8.77    0.76
   7   3  -7  143.74    2.17
   7  -3  -7  147.37    2.19
   6   3  -7  122.40    2.01
   6  -3  -7  119.22    1.94
   5   3  -7  274.94    3.13
   5  -3  -7  273.58    3.07
   4   3  -7  188.23    2.52
   4  -3  -7  188.47    2.48
   3   3  -7    1.65    0.37
   3  -3  -7    2.18    0.41
   2   3  -7   -0.05    0.22
   2  -3  -7    0.43    0.30
   1   3  -7   14.01    0.72
   1  -3  -7   14.41    0.77
   0   3  -7    7.84    0.59
   0  -3  -7    7.79    0.64
  -1   3  -7    6.21    0.57
  -1  -3  -7    6.92    0.61
  -2   3  -7   29.84    1.02
  -2  -3  -7   29.80    0.99
  -3   3  -7   13.26    0.77
  -3  -3  -7   13.57    0.73
  -4   3  -7    4.18    0.48
  -4  -3  -7    3.95    0.47
  -5   3  -7    0.02    0.27
  -5  -3  -7    0.20    0.32
  -6   3  -7    0.09    0.30
   8  -4  -7  130.88    2.19
   7   4  -7   25.44    1.05
   7  -4  -7   24.37    1.03
   6   4  -7   16.53    0.88
   6  -4  -7   15.66    0.86
   5   4  -7    2.14    0.42
   5  -4  -7    2.21    0.44
   4   4  -7    0.27    0.31
   4  -4  -7    0.56    0.35
   3   4  -7    5.24    0.59
   3  -4  -7    5.06    0.62
   2   4  -7   25.89    1.01
   2  -4  -7   25.33    1.00
   1   4  -7   38.54    1.21
   1  -4  -7   38.58    1.18
   0   4  -7   45.31    1.30
   0  -4  -7   45.09    1.26
  -1   4  -7   34.08    1.17
  -1  -4  -7   33.30    1.12
  -2   4  -7    4.85    0.54
  -2  -4  -7    4.37    0.52
  -3   4  -7   31.59    1.14
  -3  -4  -7   31.56    1.09
  -4   4  -7    2.59    0.45
  -4  -4  -7    2.12    0.43
  -5   4  -7    0.17    0.33
  -5  -4  -7   -0.08    0.31
  -6   4  -7    2.57    0.48
   8   5  -7  117.62    2.29
   8  -5  -7  116.38    2.20
   7   5  -7   37.01    1.36
   7  -5  -7   35.89    1.26
   6   5  -7   29.70    1.22
   6  -5  -7   30.32    1.18
   5   5  -7    0.38    0.36
   5  -5  -7    0.46    0.41
   4   5  -7   30.84    1.21
   4  -5  -7   31.33    1.19
   3   5  -7   -0.06    0.32
   3  -5  -7   -0.02    0.36
   2   5  -7    0.16    0.32
   2  -5  -7    0.04    0.34
   1   5  -7    2.95    0.49
   1  -5  -7    2.86    0.51
   0   5  -7   11.49    0.82
   0  -5  -7   11.27    0.84
  -1   5  -7   10.97    0.82
  -1  -5  -7   12.08    0.83
  -2   5  -7    8.73    0.77
  -2  -5  -7    8.33    0.75
  -3   5  -7    1.20    0.41
  -3  -5  -7    1.54    0.43
  -4   5  -7   25.26    1.16
  -4  -5  -7   27.37    1.10
  -5   5  -7   10.51    0.86
  -5  -5  -7   10.53    0.79
  -6   5  -7    0.95    0.44
   9  -6  -7   67.69    1.82
   8   6  -7   26.82    1.26
   8  -6  -7   27.76    1.25
   7   6  -7    0.06    0.39
   7  -6  -7   -0.18    0.43
   6   6  -7    0.03    0.39
   6  -6  -7    0.02    0.39
   5   6  -7    3.67    0.60
   5  -6  -7    3.64    0.59
   4   6  -7   39.99    1.47
   4  -6  -7   41.35    1.46
   3   6  -7   33.48    1.36
   3  -6  -7   32.70    1.30
   2   6  -7   10.63    0.86
   2  -6  -7    9.63    0.89
   1   6  -7    8.40    0.80
   1  -6  -7    8.50    0.82
   0   6  -7    7.06    0.76
   0  -6  -7    6.34    0.77
  -1   6  -7    0.15    0.39
  -1  -6  -7    0.54    0.43
  -2   6  -7   10.07    0.86
  -2  -6  -7   10.90    0.87
  -3   6  -7    1.65    0.48
  -3  -6  -7    1.67    0.48
  -4   6  -7    0.75    0.46
  -4  -6  -7    0.76    0.45
  -5   6  -7    1.22    0.49
  -5  -6  -7    1.35    0.51
  -6   6  -7   39.97    1.54
   7   7  -7    1.56    0.55
   7  -7  -7    1.53    0.56
   6   7  -7   26.59    1.30
   6  -7  -7   26.06    1.27
   5   7  -7   35.13    1.49
   5  -7  -7   35.14    1.45
   4   7  -7    4.81    0.73
   4  -7  -7    4.76    0.72
   3   7  -7   14.42    1.06
   3  -7  -7   13.81    1.05
   2   7  -7    1.74    0.53
   2  -7  -7    1.83    0.55
   1   7  -7   -0.28    0.38
   1  -7  -7   -0.04    0.42
   0   7  -7   -0.41    0.39
   0  -7  -7   -0.44    0.43
  -1   7  -7   33.60    1.47
  -1  -7  -7   33.68    1.43
  -2   7  -7   14.32    1.10
  -2  -7  -7   15.92    1.08
  -3   7  -7   21.56    1.25
  -3  -7  -7   22.00    1.21
  -4   7  -7   14.73    1.08
  -4  -7  -7   14.43    1.05
  -5   7  -7    0.71    0.52
  -5  -7  -7    0.87    0.49
   3   8  -7    0.61    0.52
   3  -8  -7    0.25    0.51
   2   8  -7    0.70    0.52
   2  -8  -7    1.31    0.55
   1   8  -7   13.79    1.11
   1  -8  -7   12.75    1.09
   0   8  -7    5.67    0.80
   0  -8  -7    5.77    0.81
  -1   8  -7   23.21    1.36
  -1  -8  -7   23.03    1.32
   8   0  -8    1.78    0.37
   7   0  -8   -0.19    0.25
   6   0  -8    5.77    0.56
   5   0  -8   -0.03    0.24
   4   0  -8    0.34    0.27
   3   0  -8    0.22    0.26
   2   0  -8  884.85    6.42
   1   0  -8    0.15    0.26
   0   0  -8  452.00    4.03
  -1   0  -8   -0.20    0.23
  -2   0  -8   10.40    0.64
  -3   0  -8   -0.22    0.25
  -4   0  -8   70.01    1.43
  -5   0  -8    0.12    0.27
   8   1  -8   59.84    1.34
   8  -1  -8   54.92    1.27
   7   1  -8    4.36    0.46
   7  -1  -8    4.14    0.47
   6   1  -8   57.00    1.29
   6  -1  -8   55.51    1.28
   5   1  -8   62.43    1.35
   5  -1  -8   61.69    1.35
   4   1  -8    0.06    0.24
   4  -1  -8    0.03    0.28
   3   1  -8   57.29    1.28
   3  -1  -8   57.38    1.30
   2   1  -8   61.95    1.36
   2  -1  -8   58.84    1.32
   1   1  -8   -0.03    0.26
   1  -1  -8    0.01    0.26
   0   1  -8  326.48    3.29
   0  -1  -8  323.09    3.30
  -1   1  -8  304.37    3.17
  -1  -1  -8  300.96    3.16
  -2   1  -8   30.72    0.99
  -2  -1  -8   32.39    1.04
  -3   1  -8   41.51    1.13
  -3  -1  -8   41.39    1.13
  -4   1  -8    7.15    0.61
  -4  -1  -8    6.27    0.62
  -5   1  -8    9.69    0.66
  -5  -1  -8   10.01    0.67
   8   2  -8    1.06    0.34
   8  -2  -8    0.82    0.34
   7   2  -8    3.37    0.45
   7  -2  -8    3.05    0.47
   6   2  -8   10.70    0.69
   6  -2  -8   10.72    0.73
   5   2  -8  314.07    3.36
   5  -2  -8  314.30    3.36
   4   2  -8  237.72    2.88
   4  -2  -8  236.76    2.82
   3   2  -8  488.73    4.42
   3  -2  -8  488.84    4.41
   2   2  -8   32.98    1.05
   2  -2  -8   32.73    1.05
   1   2  -8    0.92    0.31
   1  -2  -8    0.74    0.33
   0   2  -8    1.92    0.37
   0  -2  -8    2.37    0.43
  -1   2  -8    5.11    0.57
  -1  -2  -8    5.49    0.63
  -2   2  -8   15.73    0.79
  -2  -2  -8   15.62    0.82
  -3   2  -8   20.68    0.88
  -3  -2  -8   19.39    0.85
  -4   2  -8    7.21    0.60
  -4  -2  -8    7.43    0.66
  -5   2  -8    4.75    0.53
  -5  -2  -8    5.01    0.62
   8   3  -8    0.56    0.35
   8  -3  -8    0.28    0.36
   7   3  -8   19.68    0.93
   7  -3  -8   19.07    0.96
   6   3  -8   92.66    1.83
   6  -3  -8   91.13    1.80
   5   3  -8   21.69    0.94
   5  -3  -8   22.42    0.97
   4   3  -8    7.02    0.64
   4  -3  -8    6.72    0.65
   3   3  -8    4.47    0.50
   3  -3  -8    5.04    0.62
   2   3  -8   -0.03    0.23
   2  -3  -8    0.18    0.31
   1   3  -8    0.18    0.26
   1  -3  -8    0.18    0.32
   0   3  -8   91.38    1.79
   0  -3  -8   89.28    1.75
  -1   3  -8   64.32    1.53
  -1  -3  -8   58.65    1.41
  -2   3  -8    1.92    0.41
  -2  -3  -8    2.31    0.44
  -3   3  -8  161.45    2.49
  -3  -3  -8  161.89    2.40
  -4   3  -8   39.60    1.25
  -4  -3  -8   38.82    1.21
  -5   3  -8   34.82    1.19
  -5  -3  -8   33.61    1.16
  -6   3  -8   17.90    0.91
   8   4  -8   71.43    1.74
   8  -4  -8   69.60    1.68
   7   4  -8   64.84    1.67
   7  -4  -8   63.36    1.62
   6   4  -8  209.96    3.02
   6  -4  -8  206.80    2.90
   5   4  -8   11.03    0.82
   5  -4  -8   10.01    0.79
   4   4  -8    4.59    0.54
   4  -4  -8    5.38    0.66
   3   4  -8    4.72    0.54
   3  -4  -8    4.77    0.58
   2   4  -8  100.19    2.02
   2  -4  -8   98.52    1.94
   1   4  -8   11.35    0.78
   1  -4  -8   11.25    0.78
   0   4  -8    0.71    0.33
   0  -4  -8    0.96    0.38
  -1   4  -8   -0.12    0.28
  -1  -4  -8   -0.23    0.33
  -2   4  -8    0.27    0.32
  -2  -4  -8    0.38    0.34
  -3   4  -8   -0.16    0.32
  -3  -4  -8   -0.20    0.31
  -4   4  -8    6.68    0.71
  -4  -4  -8    6.37    0.68
  -5   4  -8   88.58    1.98
  -5  -4  -8   88.75    1.85
  -6   4  -8   14.21    0.95
   9  -5  -8   83.50    1.98
   8   5  -8   21.48    1.15
   8  -5  -8   21.82    1.12
   7   5  -8  124.58    2.46
   7  -5  -8  128.22    2.41
   6   5  -8   14.29    0.94
   6  -5  -8   14.53    0.94
   5   5  -8    0.07    0.36
   5  -5  -8    0.31    0.39
   4   5  -8    5.35    0.65
   4  -5  -8    5.69    0.65
   3   5  -8   11.66    0.87
   3  -5  -8   13.10    0.91
   2   5  -8   32.21    1.28
   2  -5  -8   32.43    1.24
   1   5  -8   33.70    1.31
   1  -5  -8   32.10    1.25
   0   5  -8   18.45    1.03
   0  -5  -8   18.98    1.01
  -1   5  -8   11.15    0.86
  -1  -5  -8   10.36    0.83
  -2   5  -8    0.01    0.34
  -2  -5  -8    0.08    0.37
  -3   5  -8    1.76    0.49
  -3  -5  -8    2.44    0.52
  -4   5  -8    0.09    0.38
  -4  -5  -8   -0.06    0.36
  -5   5  -8   -0.21    0.39
  -5  -5  -8    0.15    0.39
  -6   5  -8   18.49    1.11
   8   6  -8   23.47    1.24
   8  -6  -8   21.99    1.21
   7   6  -8    0.45    0.47
   7  -6  -8   -0.01    0.44
   6   6  -8    5.39    0.71
   6  -6  -8    6.44    0.75
   5   6  -8    3.18    0.61
   5  -6  -8    3.41    0.61
   4   6  -8   17.43    1.08
   4  -6  -8   17.94    1.07
   3   6  -8   29.03    1.31
   3  -6  -8   29.31    1.30
   2   6  -8    3.08    0.58
   2  -6  -8    3.48    0.62
   1   6  -8    0.26    0.39
   1  -6  -8    0.47    0.44
   0   6  -8    0.22    0.38
   0  -6  -8    0.07    0.42
  -1   6  -8   22.71    1.21
  -1  -6  -8   23.94    1.15
  -2   6  -8   16.06    1.07
  -2  -6  -8   16.22    1.01
  -3   6  -8   38.03    1.51
  -3  -6  -8   37.47    1.42
  -4   6  -8   68.08    1.98
  -4  -6  -8   66.43    1.81
  -5   6  -8   20.83    1.22
  -5  -6  -8   19.99    1.09
  -6   6  -8   -0.11    0.44
   6   7  -8   14.51    1.12
   6  -7  -8   14.38    1.08
   5   7  -8   21.60    1.27
   5  -7  -8   22.89    1.29
   4   7  -8    1.16    0.54
   4  -7  -8    1.19    0.60
   3   7  -8   21.10    1.27
   3  -7  -8   21.25    1.21
   2   7  -8    4.40    0.70
   2  -7  -8    3.46    0.66
   1   7  -8    4.09    0.70
   1  -7  -8    4.54    0.70
   0   7  -8    0.26    0.44
   0  -7  -8    0.29    0.45
  -1   7  -8   12.08    1.06
  -1  -7  -8   12.23    1.03
  -2   7  -8   30.73    1.48
  -2  -7  -8   30.10    1.37
  -3   7  -8    0.33    0.47
  -3  -7  -8    0.59    0.51
  -4   7  -8    0.06    0.47
  -4  -7  -8    0.14    0.47
   8   0  -9   -0.12    0.28
   7   0  -9   97.92    1.79
   6   0  -9    0.02    0.27
   5   0  -9    4.34    0.48
   4   0  -9   -0.17    0.25
   3   0  -9    0.20    0.31
   2   0  -9    0.00    0.29
   1   0  -9  273.10    3.11
   0   0  -9   -0.12    0.28
  -1   0  -9  151.62    2.24
  -2   0  -9   -0.09    0.30
  -3   0  -9   72.03    1.54
  -4   0  -9   -0.20    0.27
  -5   0  -9   26.45    0.99
   8   1  -9   51.56    1.34
   8  -1  -9   53.40    1.33
   7   1  -9    0.39    0.32
   7  -1  -9    0.23    0.32
   6   1  -9    2.27    0.42
   6  -1  -9    2.97    0.45
   5   1  -9   17.04    0.84
   5  -1  -9   15.89    0.81
   4   1  -9   62.17    1.43
   4  -1  -9   62.10    1.43
   3   1  -9  218.51    2.74
   3  -1  -9  220.81    2.80
   2   1  -9  110.86    1.89
   2  -1  -9  110.52    1.91
   1   1  -9  374.99    3.79
   1  -1  -9  371.13    3.80
   0   1  -9  141.13    2.18
   0  -1  -9  143.29    2.19
  -1   1  -9   31.32    1.06
  -1  -1  -9   31.40    1.07
  -2   1  -9   54.23    1.35
  -2  -1  -9   55.57    1.40
  -3   1  -9    0.94    0.34
  -3  -1  -9    0.54    0.35
  -4   1  -9   25.27    1.00
  -4  -1  -9   25.14    0.98
  -5   1  -9   49.95    1.34
  -5  -1  -9   48.04    1.28
   8   2  -9    7.23    0.70
   8  -2  -9    6.19    0.66
   7   2  -9    0.02    0.30
   7  -2  -9   -0.09    0.31
   6   2  -9   27.39    1.03
   6  -2  -9   26.18    1.04
   5   2  -9   16.05    0.85
   5  -2  -9   15.77    0.86
   4   2  -9   83.19    1.71
   4  -2  -9   83.35    1.71
   3   2  -9   25.50    1.00
   3  -2  -9   25.40    1.00
   2   2  -9    1.59    0.39
   2  -2  -9    1.12    0.38
   1   2  -9    3.82    0.49
   1  -2  -9    3.21    0.48
   0   2  -9   20.53    0.93
   0  -2  -9   20.93    0.93
  -1   2  -9   69.06    1.59
  -1  -2  -9   67.39    1.56
  -2   2  -9  405.46    4.15
  -2  -2  -9  409.96    4.13
  -3   2  -9   82.01    1.73
  -3  -2  -9   80.87    1.72
  -4   2  -9   57.69    1.50
  -4  -2  -9   55.61    1.44
  -5   2  -9    0.10    0.31
  -5  -2  -9    0.25    0.33
   8   3  -9    0.44    0.34
   8  -3  -9    0.02    0.39
   7   3  -9    9.99    0.82
   7  -3  -9   10.70    0.85
   6   3  -9   91.35    1.92
   6  -3  -9   91.72    1.91
   5   3  -9   20.00    0.96
   5  -3  -9   20.37    1.00
   4   3  -9  132.55    2.28
   4  -3  -9  132.87    2.27
   3   3  -9   14.86    0.85
   3  -3  -9   15.94    0.90
   2   3  -9    3.48    0.50
   2  -3  -9    3.20    0.52
   1   3  -9   67.86    1.63
   1  -3  -9   67.00    1.61
   0   3  -9    8.06    0.69
   0  -3  -9    7.81    0.72
  -1   3  -9   32.54    1.16
  -1  -3  -9   33.66    1.17
  -2   3  -9   -0.12    0.28
  -2  -3  -9   -0.03    0.35
  -3   3  -9   22.56    1.03
  -3  -3  -9   23.43    1.06
  -4   3  -9    8.19    0.75
  -4  -3  -9    8.76    0.77
  -5   3  -9    1.00    0.40
  -5  -3  -9    0.89    0.41
  -6   3  -9   11.42    0.85
   9  -4  -9    0.12    0.46
   8   4  -9   42.24    1.41
   8  -4  -9   40.54    1.39
   7   4  -9    1.11    0.43
   7  -4  -9    0.48    0.44
   6   4  -9   33.82    1.27
   6  -4  -9   32.71    1.25
   5   4  -9    4.87    0.59
   5  -4  -9    5.43    0.65
   4   4  -9   10.22    0.81
   4  -4  -9    9.53    0.80
   3   4  -9   16.61    0.94
   3  -4  -9   16.69    0.93
   2   4  -9    3.13    0.51
   2  -4  -9    3.51    0.55
   1   4  -9   -0.06    0.31
   1  -4  -9   -0.12    0.35
   0   4  -9   25.35    1.11
   0  -4  -9   25.91    1.11
  -1   4  -9   26.63    1.15
  -1  -4  -9   26.96    1.14
  -2   4  -9    3.20    0.53
  -2  -4  -9    3.07    0.53
  -3   4  -9   72.52    1.84
  -3  -4  -9   71.65    1.75
  -4   4  -9   54.98    1.65
  -4  -4  -9   54.35    1.53
  -5   4  -9  133.36    2.54
  -5  -4  -9  129.89    2.38
  -6   4  -9   41.75    1.49
   9  -5  -9   33.20    1.40
   8   5  -9    4.45    0.66
   8  -5  -9    4.22    0.68
   7   5  -9   12.13    0.95
   7  -5  -9   12.70    0.96
   6   5  -9   -0.30    0.37
   6  -5  -9    0.04    0.44
   5   5  -9    0.05    0.38
   5  -5  -9    0.32    0.43
   4   5  -9    3.52    0.59
   4  -5  -9    2.44    0.57
   3   5  -9    0.43    0.38
   3  -5  -9    0.43    0.44
   2   5  -9    1.66    0.48
   2  -5  -9    1.88    0.51
   1   5  -9   18.32    1.06
   1  -5  -9   17.38    1.01
   0   5  -9   80.01    2.04
   0  -5  -9   80.35    1.96
  -1   5  -9    6.22    0.74
  -1  -5  -9    6.24    0.75
  -2   5  -9   23.02    1.18
  -2  -5  -9   22.19    1.11
  -3   5  -9   20.32    1.13
  -3  -5  -9   21.50    1.10
  -4   5  -9   25.57    1.27
  -4  -5  -9   24.83    1.17
  -5   5  -9   11.21    0.97
  -5  -5  -9   10.75    0.90
  -6   5  -9   97.94    2.34
   7   6  -9    6.68    0.80
   7  -6  -9    7.11    0.87
   6   6  -9    6.41    0.79
   6  -6  -9    6.58    0.81
   5   6  -9   32.52    1.45
   5  -6  -9   32.81    1.41
   4   6  -9   17.01    1.12
   4  -6  -9   16.00    1.07
   3   6  -9    3.49    0.63
   3  -6  -9    3.62    0.65
   2   6  -9   13.94    1.01
   2  -6  -9   13.99    1.03
   1   6  -9    4.97    0.69
   1  -6  -9    6.36    0.75
   0   6  -9    1.09    0.49
   0  -6  -9    0.48    0.48
  -1   6  -9    1.42    0.52
  -1  -6  -9    1.33    0.53
  -2   6  -9    3.33    0.65
  -2  -6  -9    2.71    0.62
  -3   6  -9   33.67    1.49
  -3  -6  -9   32.59    1.35
  -4   6  -9    3.98    0.69
  -4  -6  -9    4.66    0.70
  -5   6  -9    0.12    0.46
  -5  -6  -9    0.37    0.48
   4   7  -9   -0.35    0.44
   4  -7  -9   -0.07    0.52
   3   7  -9    5.39    0.78
   3  -7  -9    5.33    0.79
   2   7  -9    0.72    0.52
   2  -7  -9    1.27    0.58
   1   7  -9   11.98    1.02
   1  -7  -9   11.72    1.03
   0   7  -9    2.00    0.58
   0  -7  -9    2.19    0.64
  -1   7  -9    0.90    0.52
  -1  -7  -9    1.22    0.56
  -2   7  -9   15.00    1.15
  -2  -7  -9   14.94    1.10
   8   0 -10    0.24    0.34
   7   0 -10   -0.13    0.29
   6   0 -10   10.60    0.75
   5   0 -10    0.07    0.30
   4   0 -10    0.76    0.35
   3   0 -10    0.11    0.30
   2   0 -10   65.44    1.54
   1   0 -10   -0.18    0.27
   0   0 -10  113.72    2.04
  -1   0 -10   -0.17    0.31
  -2   0 -10   32.84    1.15
  -3   0 -10   -0.17    0.30
  -4   0 -10    9.33    0.73
  -5   0 -10   -0.11    0.31
   8   1 -10    2.68    0.46
   8  -1 -10    2.63    0.47
   7   1 -10   33.81    1.17
   7  -1 -10   31.88    1.14
   6   1 -10    1.17    0.38
   6  -1 -10    0.69    0.37
   5   1 -10    1.28    0.39
   5  -1 -10    1.98    0.43
   4   1 -10    2.73    0.45
   4  -1 -10    3.08    0.49
   3   1 -10    8.65    0.72
   3  -1 -10    8.79    0.74
   2   1 -10    2.40    0.44
   2  -1 -10    2.80    0.48
   1   1 -10    0.04    0.29
   1  -1 -10   -0.08    0.30
   0   1 -10   41.09    1.26
   0  -1 -10   39.67    1.26
  -1   1 -10   36.73    1.20
  -1  -1 -10   35.01    1.22
  -2   1 -10   29.86    1.12
  -2  -1 -10   30.45    1.14
  -3   1 -10   10.48    0.75
  -3  -1 -10   10.70    0.79
  -4   1 -10   13.64    0.83
  -4  -1 -10   12.69    0.83
  -5   1 -10   11.31    0.77
  -5  -1 -10   11.67    0.81
   8   2 -10    1.11    0.41
   8  -2 -10    1.53    0.45
   7   2 -10    0.52    0.35
   7  -2 -10   -0.10    0.34
   6   2 -10    8.39    0.74
   6  -2 -10    8.73    0.77
   5   2 -10   14.70    0.85
   5  -2 -10   13.99    0.86
   4   2 -10   15.08    0.85
   4  -2 -10   14.58    0.87
   3   2 -10    1.46    0.41
   3  -2 -10    1.69    0.44
   2   2 -10    8.07    0.71
   2  -2 -10    8.83    0.75
   1   2 -10    9.21    0.73
   1  -2 -10   10.80    0.80
   0   2 -10    1.19    0.37
   0  -2 -10    1.45    0.41
  -1   2 -10   42.41    1.34
  -1  -2 -10   43.36    1.34
  -2   2 -10   40.92    1.31
  -2  -2 -10   42.61    1.36
  -3   2 -10    4.37    0.54
  -3  -2 -10    5.01    0.62
  -4   2 -10   13.64    0.87
  -4  -2 -10   14.31    0.92
  -5   2 -10   21.93    1.02
  -5  -2 -10   22.52    1.06
   9  -3 -10    3.16    0.58
   8   3 -10   11.26    0.90
   8  -3 -10   12.13    0.90
   7   3 -10    0.31    0.37
   7  -3 -10    0.71    0.44
   6   3 -10   13.96    0.90
   6  -3 -10   14.05    0.92
   5   3 -10    0.21    0.35
   5  -3 -10    0.19    0.39
   4   3 -10    2.34    0.48
   4  -3 -10    2.67    0.54
   3   3 -10   21.29    1.03
   3  -3 -10   22.41    1.08
   2   3 -10   27.52    1.13
   2  -3 -10   27.34    1.15
   1   3 -10    0.85    0.38
   1  -3 -10    1.70    0.47
   0   3 -10    0.57    0.37
   0  -3 -10    0.25    0.40
  -1   3 -10    8.65    0.75
  -1  -3 -10    9.33    0.83
  -2   3 -10    2.86    0.50
  -2  -3 -10    2.20    0.50
  -3   3 -10  120.11    2.33
  -3  -3 -10  119.77    2.28
  -4   3 -10   94.90    2.07
  -4  -3 -10   92.67    1.99
  -5   3 -10   16.76    1.02
  -5  -3 -10   15.86    1.00
  -6   3 -10    5.50    0.67
   9  -4 -10    0.12    0.48
   8   4 -10    8.62    0.86
   8  -4 -10    8.69    0.91
   7   4 -10    1.69    0.49
   7  -4 -10    1.65    0.54
   6   4 -10    0.08    0.36
   6  -4 -10    0.35    0.43
   5   4 -10    0.40    0.38
   5  -4 -10    0.23    0.42
   4   4 -10   18.70    1.03
   4  -4 -10   19.12    1.06
   3   4 -10   16.63    0.99
   3  -4 -10   16.70    1.01
   2   4 -10    3.44    0.56
   2  -4 -10    4.35    0.63
   1   4 -10   34.85    1.33
   1  -4 -10   32.77    1.29
   0   4 -10    0.11    0.35
   0  -4 -10    0.09    0.41
  -1   4 -10    1.74    0.48
  -1  -4 -10    1.85    0.52
  -2   4 -10    9.11    0.83
  -2  -4 -10    8.52    0.84
  -3   4 -10    6.46    0.77
  -3  -4 -10    6.84    0.83
  -4   4 -10    3.58    0.63
  -4  -4 -10    3.62    0.62
  -5   4 -10    6.67    0.76
  -5  -4 -10    6.66    0.79
  -6   4 -10    0.14    0.42
   8   5 -10   -0.22    0.42
   8  -5 -10   -0.38    0.46
   7   5 -10    0.75    0.51
   7  -5 -10    0.96    0.53
   6   5 -10    7.91    0.86
   6  -5 -10    7.28    0.87
   5   5 -10   20.65    1.15
   5  -5 -10   20.14    1.15
   4   5 -10    0.13    0.41
   4  -5 -10    0.08    0.46
   3   5 -10    0.16    0.39
   3  -5 -10    0.22    0.46
   2   5 -10    6.56    0.81
   2  -5 -10    6.63    0.75
   1   5 -10   10.27    0.91
   1  -5 -10    9.75    0.90
   0   5 -10    0.15    0.39
   0  -5 -10   -0.17    0.41
  -1   5 -10    5.80    0.73
  -1  -5 -10    6.20    0.73
  -2   5 -10    1.98    0.54
  -2  -5 -10    2.22    0.57
  -3   5 -10    0.26    0.42
  -3  -5 -10    0.24    0.44
  -4   5 -10    7.23    0.87
  -4  -5 -10    8.00    0.86
  -5   5 -10   64.71    2.00
  -5  -5 -10   65.52    1.87
   6   6 -10    0.49    0.51
   6  -6 -10    0.93    0.55
   5   6 -10    2.21    0.60
   5  -6 -10    2.47    0.66
   4   6 -10   -0.06    0.42
   4  -6 -10    0.00    0.50
   3   6 -10    5.60    0.76
   3  -6 -10    5.39    0.75
   2   6 -10   10.59    0.97
   2  -6 -10   11.17    0.98
   1   6 -10    1.94    0.56
   1  -6 -10    1.72    0.60
   0   6 -10   28.86    1.42
   0  -6 -10   28.35    1.37
  -1   6 -10   12.14    1.05
  -1  -6 -10   13.42    1.04
  -2   6 -10   21.15    1.28
  -2  -6 -10   22.60    1.23
  -3   6 -10    8.72    0.97
  -3  -6 -10    7.45    0.85
   8   0 -11   -0.13    0.35
   7   0 -11    4.57    0.57
   6   0 -11   -0.03    0.33
   5   0 -11   32.10    1.20
   4   0 -11   -0.30    0.30
   3   0 -11   12.63    0.84
   2   0 -11    0.05    0.33
   1   0 -11   41.33    1.33
   0   0 -11   -0.09    0.31
  -1   0 -11    0.32    0.35
  -2   0 -11    0.04    0.32
  -3   0 -11    0.61    0.37
  -4   0 -11   -0.16    0.31
  -5   0 -11    2.50    0.51
   9  -1 -11    0.36    0.42
   8   1 -11   11.30    0.83
   8  -1 -11   11.82    0.89
   7   1 -11   33.17    1.26
   7  -1 -11   34.45    1.28
   6   1 -11    8.51    0.75
   6  -1 -11    7.83    0.76
   5   1 -11   28.08    1.15
   5  -1 -11   29.01    1.14
   4   1 -11    1.08    0.39
   4  -1 -11    0.56    0.39
   3   1 -11    6.73    0.73
   3  -1 -11    6.39    0.71
   2   1 -11    4.79    0.57
   2  -1 -11    4.86    0.60
   1   1 -11    8.46    0.76
   1  -1 -11    7.58    0.75
   0   1 -11    6.88    0.71
   0  -1 -11    7.16    0.73
  -1   1 -11    0.56    0.38
  -1  -1 -11    0.79    0.40
  -2   1 -11    0.08    0.32
  -2  -1 -11    0.19    0.37
  -3   1 -11    3.16    0.52
  -3  -1 -11    3.50    0.55
  -4   1 -11   12.08    0.85
  -4  -1 -11   12.40    0.89
  -5   1 -11    1.67    0.47
  -5  -1 -11    1.89    0.48
   9  -2 -11    6.92    0.86
   8   2 -11   46.01    1.50
   8  -2 -11   44.70    1.48
   7   2 -11    1.60    0.46
   7  -2 -11    1.70    0.50
   6   2 -11   11.93    0.87
   6  -2 -11   10.44    0.85
   5   2 -11   26.34    1.14
   5  -2 -11   25.36    1.14
   4   2 -11   18.38    0.99
   4  -2 -11   17.38    0.98
   3   2 -11    3.95    0.57
   3  -2 -11    2.74    0.54
   2   2 -11    0.17    0.32
   2  -2 -11   -0.08    0.37
   1   2 -11   30.92    1.19
   1  -2 -11   29.93    1.21
   0   2 -11    2.30    0.48
   0  -2 -11    2.05    0.50
  -1   2 -11    1.99    0.46
  -1  -2 -11    2.03    0.49
  -2   2 -11    3.77    0.56
  -2  -2 -11    3.68    0.56
  -3   2 -11    4.21    0.58
  -3  -2 -11    4.23    0.61
  -4   2 -11   19.01    1.02
  -4  -2 -11   19.76    1.07
  -5   2 -11    8.16    0.78
  -5  -2 -11    7.45    0.78
   9  -3 -11   18.41    1.09
   8   3 -11   31.61    1.35
   8  -3 -11   32.26    1.31
   7   3 -11   18.71    1.10
   7  -3 -11   18.40    1.06
   6   3 -11    1.14    0.46
   6  -3 -11    0.66    0.45
   5   3 -11   -0.16    0.34
   5  -3 -11    0.11    0.41
   4   3 -11    0.24    0.37
   4  -3 -11   -0.23    0.40
   3   3 -11   10.75    0.86
   3  -3 -11   11.95    0.90
   2   3 -11    1.08    0.42
   2  -3 -11    1.64    0.51
   1   3 -11   14.78    0.94
   1  -3 -11   15.60    0.98
   0   3 -11    6.44    0.74
   0  -3 -11    6.35    0.77
  -1   3 -11    3.49    0.57
  -1  -3 -11    3.98    0.60
  -2   3 -11   -0.11    0.35
  -2  -3 -11   -0.06    0.38
  -3   3 -11   11.68    0.90
  -3  -3 -11   10.15    0.89
  -4   3 -11   13.92    0.98
  -4  -3 -11   15.93    1.03
  -5   3 -11   21.22    1.19
  -5  -3 -11   20.20    1.12
   8   4 -11    2.98    0.64
   8  -4 -11    2.71    0.64
   7   4 -11    0.78    0.48
   7  -4 -11    1.15    0.56
   6   4 -11   -0.16    0.39
   6  -4 -11    0.00    0.46
   5   4 -11    4.08    0.64
   5  -4 -11    3.52    0.65
   4   4 -11   15.14    1.01
   4  -4 -11   15.80    1.06
   3   4 -11   20.68    1.14
   3  -4 -11   22.66    1.21
   2   4 -11    8.04    0.84
   2  -4 -11    8.62    0.89
   1   4 -11    0.14    0.40
   1  -4 -11    0.19    0.46
   0   4 -11    0.75    0.44
   0  -4 -11    0.49    0.47
  -1   4 -11    0.02    0.38
  -1  -4 -11    0.17    0.45
  -2   4 -11   -0.02    0.40
  -2  -4 -11    0.11    0.44
  -3   4 -11    0.19    0.42
  -3  -4 -11    0.49    0.46
  -4   4 -11    4.62    0.69
  -4  -4 -11    4.73    0.69
  -5   4 -11   14.11    1.08
  -5  -4 -11   13.53    1.03
   6   5 -11   21.81    1.23
   6  -5 -11   23.39    1.28
   5   5 -11    5.55    0.78
   5  -5 -11    5.00    0.76
   4   5 -11    7.12    0.83
   4  -5 -11    7.32    0.87
   3   5 -11    3.74    0.68
   3  -5 -11    3.73    0.69
   2   5 -11    6.81    0.85
   2  -5 -11    6.89    0.82
   1   5 -11   12.58    1.01
   1  -5 -11   12.30    1.03
   0   5 -11   27.10    1.36
   0  -5 -11   27.22    1.35
  -1   5 -11   71.80    2.09
  -1  -5 -11   70.12    1.97
  -2   5 -11   49.13    1.80
  -2  -5 -11   48.75    1.70
  -3   5 -11    6.59    0.83
  -3  -5 -11    6.38    0.79
  -4   5 -11    7.98    0.97
  -4  -5 -11    8.40    0.94
   2   6 -11   10.44    1.04
   2  -6 -11   10.89    1.04
   1   6 -11   31.69    1.54
   1  -6 -11   33.70    1.50
   0   6 -11   31.11    1.55
   0  -6 -11   31.02    1.46
   9   0 -12   -0.18    0.42
   8   0 -12    0.91    0.46
   7   0 -12   -0.14    0.37
   6   0 -12   89.58    2.03
   5   0 -12    0.04    0.37
   4   0 -12  111.70    2.23
   3   0 -12    0.15    0.37
   2   0 -12   16.49    0.98
   1   0 -12   -0.02    0.33
   0   0 -12   -0.01    0.35
  -1   0 -12   -0.06    0.35
  -2   0 -12   41.98    1.43
  -3   0 -12    0.22    0.38
  -4   0 -12   30.50    1.27
  -5   0 -12    0.15    0.42
   9   1 -12  152.79    2.71
   9  -1 -12  150.91    2.67
   8   1 -12    1.55    0.49
   8  -1 -12    0.88    0.47
   7   1 -12   10.29    0.87
   7  -1 -12   10.69    0.91
   6   1 -12    9.77    0.85
   6  -1 -12    9.97    0.87
   5   1 -12    0.09    0.37
   5  -1 -12    0.01    0.39
   4   1 -12   -0.39    0.34
   4  -1 -12    0.02    0.35
   3   1 -12   27.94    1.20
   3  -1 -12   27.56    1.18
   2   1 -12    0.46    0.38
   2  -1 -12    0.23    0.38
   1   1 -12   28.21    1.20
   1  -1 -12   25.14    1.11
   0   1 -12   14.11    0.94
   0  -1 -12   13.87    0.93
  -1   1 -12   45.97    1.47
  -1  -1 -12   46.74    1.52
  -2   1 -12   15.68    0.99
  -2  -1 -12   16.76    1.00
  -3   1 -12    6.74    0.77
  -3  -1 -12    6.42    0.79
  -4   1 -12    0.19    0.39
  -4  -1 -12   -0.04    0.38
  -5   1 -12    5.87    0.69
  -5  -1 -12    5.58    0.69
   9  -2 -12    0.22    0.47
   8   2 -12    7.54    0.86
   8  -2 -12    6.48    0.77
   7   2 -12   49.57    1.60
   7  -2 -12   52.52    1.67
   6   2 -12    7.31    0.80
   6  -2 -12    7.12    0.85
   5   2 -12    4.77    0.65
   5  -2 -12    5.04    0.67
   4   2 -12    8.23    0.79
   4  -2 -12    7.95    0.83
   3   2 -12   13.52    0.94
   3  -2 -12   14.48    0.99
   2   2 -12   22.42    1.13
   2  -2 -12   21.99    1.11
   1   2 -12    2.61    0.54
   1  -2 -12    2.20    0.54
   0   2 -12    6.88    0.75
   0  -2 -12    7.43    0.83
  -1   2 -12   39.37    1.44
  -1  -2 -12   41.35    1.46
  -2   2 -12    1.19    0.45
  -2  -2 -12    1.12    0.48
  -3   2 -12    3.31    0.59
  -3  -2 -12    3.37    0.62
  -4   2 -12   12.54    0.96
  -4  -2 -12   13.95    1.00
  -5   2 -12   93.15    2.22
  -5  -2 -12   94.34    2.17
   8   3 -12   16.84    1.13
   8  -3 -12   17.71    1.10
   7   3 -12   84.24    2.17
   7  -3 -12   81.77    2.09
   6   3 -12   50.27    1.68
   6  -3 -12   51.70    1.68
   5   3 -12    2.73    0.58
   5  -3 -12    1.52    0.55
   4   3 -12   21.02    1.16
   4  -3 -12   20.68    1.16
   3   3 -12   20.93    1.15
   3  -3 -12   21.23    1.16
   2   3 -12   86.18    2.15
   2  -3 -12   82.32    2.07
   1   3 -12    1.11    0.48
   0   3 -12   25.93    1.24
   0  -3 -12   25.73    1.24
  -1   3 -12    8.37    0.80
  -1  -3 -12    8.48    0.88
  -2   3 -12    0.51    0.43
  -2  -3 -12    0.66    0.48
  -3   3 -12   -0.22    0.39
  -3  -3 -12   -0.04    0.43
  -4   3 -12    1.82    0.57
  -4  -3 -12    2.16    0.59
  -5   3 -12    9.26    0.97
  -5  -3 -12    8.86    0.95
   6   4 -12   11.80    1.04
   6  -4 -12   12.65    1.05
   5   4 -12  110.99    2.55
   5  -4 -12  109.76    2.48
   4   4 -12    2.17    0.59
   4  -4 -12    2.47    0.65
   3   4 -12   21.77    1.24
   3  -4 -12   21.78    1.24
   2   4 -12    4.72    0.75
   2  -4 -12    4.35    0.72
   1   4 -12    5.65    0.75
   1  -4 -12    4.84    0.74
   0   4 -12    1.70    0.54
   0  -4 -12    1.88    0.61
  -1   4 -12   45.71    1.68
  -1  -4 -12   44.50    1.65
  -2   4 -12  120.10    2.70
  -2  -4 -12  115.58    2.55
  -3   4 -12   80.06    2.21
  -3  -4 -12   78.47    2.12
   4   5 -12   10.82    1.07
   4  -5 -12   12.04    1.08
   3   5 -12    0.68    0.51
   3  -5 -12    0.77    0.57
   2   5 -12   -0.06    0.44
   2  -5 -12    0.12    0.53
   1   5 -12   33.72    1.56
   1  -5 -12   33.64    1.53
   0   5 -12   21.37    1.30
   0  -5 -12   21.57    1.31
  -1  -5 -12   61.10    1.98
   8   0 -13   -0.29    0.41
   7   0 -13   47.06    1.60
   6   0 -13    0.30    0.44
   5   0 -13    1.13    0.49
   4   0 -13   -0.38    0.37
   3   0 -13   18.71    1.08
   2   0 -13   -0.01    0.38
   1   0 -13    4.39    0.65
   0   0 -13   -0.39    0.36
  -1   0 -13  124.67    2.53
  -2   0 -13    0.40    0.44
  -3   0 -13   93.95    2.22
  -4   0 -13   -0.15    0.42
   8   1 -13    5.48    0.71
   8  -1 -13    4.50    0.70
   7   1 -13    2.18    0.57
   7  -1 -13    1.48    0.56
   6   1 -13   15.92    1.05
   6  -1 -13   15.48    1.07
   5   1 -13   46.71    1.59
   5  -1 -13   46.35    1.59
   4   1 -13    5.61    0.68
   4  -1 -13    6.04    0.72
   3   1 -13   15.62    1.00
   3  -1 -13   14.25    1.01
   2   1 -13   16.99    1.05
   2  -1 -13   16.55    1.06
   1   1 -13    0.43    0.39
   1  -1 -13    0.73    0.47
   0   1 -13    1.62    0.49
   0  -1 -13    1.57    0.52
  -1   1 -13    0.61    0.47
  -1  -1 -13    0.60    0.48
  -2   1 -13    1.74    0.56
  -2  -1 -13    1.65    0.53
  -3   1 -13   16.64    1.08
  -3  -1 -13   16.84    1.09
  -4   1 -13   32.56    1.42
  -4  -1 -13   31.41    1.36
   7   2 -13   30.79    1.35
   7  -2 -13   32.06    1.40
   6   2 -13    3.70    0.63
   6  -2 -13    3.82    0.68
   5   2 -13    0.01    0.42
   5  -2 -13   -0.11    0.47
   4   2 -13   32.28    1.39
   4  -2 -13   33.28    1.42
   3   2 -13   11.52    0.94
   3  -2 -13   13.04    1.02
   2   2 -13    8.12    0.84
   2  -2 -13    8.14    0.90
   1   2 -13   86.76    2.19
   1  -2 -13   86.49    2.18
   0   2 -13   11.11    0.94
   0  -2 -13   11.48    0.99
  -1   2 -13    4.39    0.66
  -1  -2 -13    4.83    0.71
  -2   2 -13   -0.10    0.40
  -2  -2 -13   -0.07    0.43
  -3   2 -13    0.72    0.50
  -3  -2 -13    0.52    0.50
  -4   2 -13   12.44    0.99
  -4  -2 -13   11.03    1.01
   6   3 -13   18.07    1.16
   6  -3 -13   17.11    1.13
   5   3 -13    2.26    0.58
   5  -3 -13    1.83    0.62
   4   3 -13    3.64    0.66
   4  -3 -13    2.80    0.68
   3   3 -13   48.31    1.71
   3  -3 -13   49.03    1.70
   2   3 -13    0.07    0.42
   2  -3 -13    0.07    0.47
   1   3 -13   38.35    1.55
   1  -3 -13   35.71    1.51
   0   3 -13    1.85    0.54
   0  -3 -13    2.19    0.60
  -1   3 -13    3.36    0.64
  -1  -3 -13    2.48    0.63
  -2   3 -13    4.24    0.69
  -2  -3 -13    4.88    0.78
   3   4 -13    4.11    0.72
   3  -4 -13    4.85    0.77
   2   4 -13    0.25    0.46
   2  -4 -13   -0.22    0.48
   1   4 -13    0.50    0.49
   1  -4 -13   -0.20    0.50
   0   4 -13   28.85    1.44
   0  -4 -13   29.65    1.45
   5   0 -14   -0.11    0.43
   4   0 -14   39.00    1.54
   3   0 -14   -0.19    0.43
   2   0 -14    3.51    0.65
   1   0 -14   -0.16    0.43
   0   0 -14    6.25    0.76
  -1   0 -14    0.06    0.44
  -2   0 -14    0.84    0.52
   5   1 -14    3.77    0.67
   5  -1 -14    3.94    0.68
   4   1 -14    0.48    0.47
   4  -1 -14    0.34    0.49
   3   1 -14    0.37    0.44
   3  -1 -14    0.69    0.50
   2   1 -14   28.90    1.36
   2  -1 -14   29.21    1.39
   1   1 -14   -0.02    0.41
   1  -1 -14   -0.09    0.45
   0   1 -14   25.67    1.31
   0  -1 -14   25.29    1.32
  -1   1 -14    1.22    0.53
  -1  -1 -14    1.32    0.52
   4   2 -14   -0.10    0.43
   4  -2 -14    0.08    0.45
   3   2 -14    1.00    0.53
   3  -2 -14    1.23    0.57
   2   2 -14    7.77    0.89
   2  -2 -14    7.31    0.90
   1   2 -14   -0.03    0.41
   1  -2 -14   -0.09    0.48
   0   2 -14    4.88    0.74
   0  -2 -14    4.29    0.74
  -7   0   0    0.07    0.21
  -8   0   0   68.52    1.34
  -9   0   0   -0.13    0.26
 -10   0   0    0.03    0.27
 -11   0   0   -0.18    0.29
 -12   0   0   18.86    0.99
 -13   0   0    0.20    0.36
 -14   0   0    0.86    0.46
  -7   1   0    9.72    0.56
  -7  -1   0    9.57    0.55
  -8   1   0   81.28    1.46
  -8  -1   0   81.55    1.46
  -9   1   0   20.86    0.84
  -9  -1   0   20.99    0.85
 -10   1   0   15.70    0.81
 -10  -1   0   14.73    0.80
 -11   1   0   57.62    1.51
 -11  -1   0   56.00    1.46
 -12   1   0   10.78    0.85
 -12  -1   0   11.43    0.83
 -13   1   0    2.96    0.56
 -13  -1   0    2.95    0.57
 -14   1   0   23.14    1.18
 -14  -1   0   22.48    1.16
  -6   2   0    0.12    0.18
   6   2   0   -0.06    0.19
  -7   2   0   31.25    0.94
  -7  -2   0   30.27    0.87
  -8   2   0   41.55    1.13
  -8  -2   0   41.89    1.08
  -9   2   0    1.50    0.35
  -9  -2   0    1.52    0.36
 -10   2   0  172.94    2.59
 -10  -2   0  172.38    2.50
 -11   2   0    1.31    0.40
 -11  -2   0    1.06    0.39
 -12   2   0   11.47    0.86
 -12  -2   0   11.32    0.84
 -13   2   0    6.54    0.78
 -13  -2   0    6.70    0.77
 -14   2   0    0.66    0.50
 -14  -2   0    0.72    0.49
  -4   3   0  270.24    2.74
  -5   3   0  318.30    3.12
   5   3   0  314.98    2.90
  -6   3   0  229.97    2.68
   6   3   0  230.98    2.49
  -7   3   0   22.60    0.87
   7   3   0   22.87    0.81
  -8   3   0   -0.02    0.25
   8   3   0   -0.08    0.25
  -9   3   0    0.04    0.27
  -9  -3   0    0.07    0.30
 -10   3   0   29.41    1.17
 -10  -3   0   31.10    1.11
 -11   3   0   12.19    0.85
 -11  -3   0   13.40    0.89
 -12   3   0    1.28    0.49
 -12  -3   0    1.62    0.49
 -13   3   0    0.74    0.46
 -13  -3   0    1.07    0.56
   0   4   0  333.65    3.18
  -1   4   0    3.45    0.37
   1   4   0    3.38    0.36
  -2   4   0   72.75    1.38
   2   4   0   73.86    1.34
  -3   4   0    0.50    0.23
   3   4   0    0.54    0.24
  -4   4   0   73.63    1.49
   4   4   0   73.12    1.34
  -5   4   0    4.95    0.52
   5   4   0    5.10    0.50
  -6   4   0   52.23    1.34
   6   4   0   52.88    1.22
  -7   4   0   39.94    1.23
   7   4   0   39.47    1.11
  -8   4   0   64.26    1.60
   8   4   0   65.67    1.48
  -9   4   0   15.57    0.91
   9   4   0   16.56    0.87
 -10   4   0    4.59    0.60
 -10  -4   0    5.90    0.69
 -11   4   0    3.06    0.58
 -11  -4   0    2.59    0.53
 -12   4   0   13.34    1.00
 -12  -4   0   13.19    0.96
 -13   4   0   -0.11    0.45
 -13  -4   0    0.18    0.49
   0   5   0   -0.08    0.23
  -1   5   0   78.99    1.60
   1   5   0   81.73    1.59
  -2   5   0    0.34    0.26
   2   5   0    0.35    0.27
  -3   5   0   38.22    1.15
   3   5   0   38.05    1.08
  -4   5   0   22.79    0.95
   4   5   0   21.71    0.86
  -5   5   0   58.86    1.52
   5   5   0   59.91    1.39
  -6   5   0    3.47    0.50
   6   5   0    4.27    0.48
  -7   5   0  125.20    2.36
   7   5   0  124.40    2.08
  -8   5   0  106.27    2.23
   8   5   0  105.22    1.99
  -9   5   0    8.40    0.79
   9   5   0    8.17    0.77
 -10   5   0   -0.09    0.37
  10   5   0   -0.19    0.35
 -11   5   0   91.78    2.32
 -11  -5   0   94.18    2.15
 -12   5   0   75.34    2.19
 -12  -5   0   75.78    2.02
   0   6   0    4.57    0.54
  -1   6   0   56.07    1.49
   1   6   0   58.32    1.49
  -2   6   0    2.97    0.48
   2   6   0    3.18    0.48
  -3   6   0   60.30    1.60
   3   6   0   60.01    1.50
  -4   6   0   -0.13    0.30
   4   6   0    0.10    0.29
  -5   6   0    6.65    0.70
   5   6   0    7.05    0.66
  -6   6   0   35.31    1.34
   6   6   0   36.51    1.23
  -7   6   0   25.72    1.24
   7   6   0   24.79    1.08
  -8   6   0    9.55    0.89
   8   6   0    9.66    0.78
  -9   6   0   -0.02    0.40
   9   6   0    0.39    0.42
 -10   6   0   39.13    1.62
  10   6   0   41.48    1.48
 -11   6   0    1.39    0.60
   0   7   0    0.11    0.34
  -1   7   0   20.60    1.06
   1   7   0   22.08    1.08
  -2   7   0   11.13    0.88
   2   7   0   12.06    0.86
  -3   7   0   47.96    1.58
   3   7   0   48.26    1.50
  -4   7   0   35.60    1.40
   4   7   0   34.98    1.27
  -5   7   0   -0.30    0.37
   5   7   0   -0.09    0.35
  -6   7   0    1.73    0.52
   6   7   0    1.70    0.47
  -7   7   0   -0.16    0.38
   7   7   0    0.20    0.37
  -8   7   0   15.53    1.14
   8   7   0   16.08    1.04
  -9   7   0   75.05    2.29
   9   7   0   77.01    2.04
   0   8   0    0.16    0.38
  -1   8   0   14.84    1.03
   1   8   0   16.06    1.04
  -2   8   0   -0.12    0.39
   2   8   0    0.18    0.37
  -3   8   0    0.92    0.50
   3   8   0    0.62    0.43
  -4   8   0    0.06    0.42
   4   8   0   -0.05    0.38
  -5   8   0    6.54    0.81
   5   8   0    5.80    0.70
  -6   8   0   19.56    1.25
   6   8   0   20.14    1.15
  -7   8   0   70.10    2.23
   7   8   0   72.01    1.98
   0   9   0   -0.15    0.43
  -1   9   0   25.60    1.37
   1   9   0   25.53    1.37
  -2   9   0   -0.09    0.49
   2   9   0    0.01    0.43
  -3   9   0   12.28    1.08
   3   9   0   12.23    1.02
 -14   0   1   -0.04    0.39
 -13   0   1    2.24    0.50
 -12   0   1    0.14    0.32
 -11   0   1    3.67    0.49
 -10   0   1    0.28    0.27
  -9   0   1   80.08    1.50
  -8   0   1   -0.19    0.21
  -7   0  -1  242.31    2.56
  -8   0  -1   -0.16    0.24
  -9   0  -1    1.80    0.37
 -10   0  -1    0.02    0.29
 -11   0  -1   26.10    1.08
 -12   0  -1    0.14    0.35
 -13   0  -1  112.83    2.37
 -14   0  -1   -0.19    0.41
 -14   1   1   -0.04    0.41
 -13   1   1    2.90    0.56
 -13  -1   1    3.59    0.57
 -12   1   1    2.02    0.46
 -12  -1   1    1.61    0.43
 -11   1   1    4.27    0.53
 -11  -1   1    3.97    0.51
 -10   1   1    4.28    0.49
 -10  -1   1    3.97    0.46
  -9   1   1   30.89    0.98
  -9  -1   1   31.69    0.96
  -8   1   1   25.95    0.84
  -8  -1   1   25.29    0.81
  -7   1   1   14.57    0.61
  -6   1  -1   79.40    1.31
  -7   1  -1   46.90    1.09
  -7  -1  -1   44.44    1.04
  -8   1  -1   63.74    1.36
  -8  -1  -1   63.13    1.34
  -9   1  -1   28.48    0.98
  -9  -1  -1   29.32    1.00
 -10   1  -1    2.12    0.41
 -10  -1  -1    1.99    0.43
 -11   1  -1   35.95    1.26
 -11  -1  -1   35.44    1.22
 -12   1  -1   40.60    1.40
 -12  -1  -1   40.39    1.37
 -13   1  -1   18.32    1.09
 -13  -1  -1   17.61    1.03
 -14   1  -1    4.90    0.70
 -14  -1  -1    4.70    0.70
 -14   2   1    3.82    0.63
 -13   2   1    3.76    0.60
 -12   2   1    0.48    0.42
 -12  -2   1   -0.01    0.35
 -11   2   1   -0.09    0.31
 -11  -2   1   -0.09    0.31
 -10   2   1    0.78    0.33
 -10  -2   1    0.74    0.34
  -9   2   1    3.33    0.45
  -9  -2   1    2.84    0.41
  -8   2   1    8.68    0.61
  -8  -2   1    8.53    0.57
  -7   2   1    4.58    0.47
  -7  -2   1    4.07    0.43
  -6   2   1   71.21    1.25
  -6   2  -1    2.48    0.33
   6   2   1    2.63    0.34
  -7   2  -1    0.14    0.22
  -7  -2  -1    0.25    0.26
  -8   2  -1  103.15    1.80
  -8  -2  -1  102.09    1.74
  -9   2  -1    5.36    0.60
  -9  -2  -1    4.62    0.57
 -10   2  -1    5.15    0.57
 -10  -2  -1    5.04    0.56
 -11   2  -1    0.04    0.32
 -11  -2  -1    0.10    0.33
 -12   2  -1   26.12    1.19
 -12  -2  -1   25.26    1.16
 -13   2  -1    1.64    0.52
 -13  -2  -1    1.87    0.54
 -14   2  -1    7.43    0.89
 -14  -2  -1    7.82    0.88
 -13   3   1    6.53    0.80
 -12   3   1    7.21    0.75
 -12  -3   1    6.97    0.74
 -11   3   1    0.38    0.35
 -11  -3   1    0.35    0.36
 -10   3   1    0.14    0.30
 -10  -3   1   -0.29    0.29
  -9   3   1    0.99    0.34
  -9  -3   1    1.03    0.34
   8   3  -1   34.22    0.98
  -8   3   1   34.74    1.10
   7   3  -1   18.99    0.71
  -7   3   1   18.73    0.80
   6   3  -1    7.30    0.49
  -6   3   1    7.76    0.55
  -5   3   1    2.35    0.31
  -4   3  -1  385.30    3.46
   4   3   1  380.99    3.29
  -5   3  -1  336.80    3.28
   5   3   1  334.85    3.10
  -6   3  -1    0.10    0.21
   6   3   1   -0.04    0.24
  -7   3  -1   18.99    0.84
   7   3   1   19.06    0.81
  -8   3  -1   30.05    1.05
   8   3   1   32.15    1.03
  -9   3  -1  114.35    2.11
  -9  -3  -1  114.75    2.04
 -10   3  -1   -0.09    0.30
 -10  -3  -1    0.09    0.33
 -11   3  -1   58.77    1.67
 -11  -3  -1   59.84    1.62
 -12   3  -1   21.73    1.15
 -12  -3  -1   23.18    1.14
 -13   3  -1    3.96    0.67
 -13  -3  -1    4.20    0.68
 -13   4   1    2.83    0.63
 -12   4   1    4.05    0.62
 -11   4   1    0.17    0.36
 -11  -4   1    0.04    0.37
 -10   4   1   18.09    1.01
 -10  -4   1   18.23    0.92
   9   4  -1   14.21    0.81
  -9   4   1   13.62    0.86
   8   4  -1    2.00    0.40
  -8   4   1    2.04    0.41
   7   4  -1    0.09    0.28
  -7   4   1    0.32    0.28
   6   4  -1   58.60    1.25
  -6   4   1   58.99    1.41
   5   4  -1    4.80    0.46
  -5   4   1    4.33    0.50
   4   4  -1    2.28    0.32
  -4   4   1    2.15    0.35
   3   4  -1   19.75    0.70
  -3   4   1   19.54    0.77
   2   4  -1    1.44    0.28
  -2   4   1    2.08    0.33
  -1   4   1  246.26    2.67
   0   4  -1  224.68    2.46
   0   4   1  222.90    2.50
  -1   4  -1    1.45    0.27
   1   4   1    1.51    0.29
  -2   4  -1   51.44    1.16
   2   4   1   51.02    1.11
  -3   4  -1    2.01    0.33
   3   4   1    2.22    0.32
  -4   4  -1   16.80    0.77
   4   4   1   17.11    0.71
  -5   4  -1  347.85    3.59
   5   4   1  348.03    3.38
  -6   4  -1  424.98    4.21
   6   4   1  427.29    3.98
  -7   4  -1   92.43    1.87
   7   4   1   91.13    1.72
  -8   4  -1  115.81    2.18
   8   4   1  116.31    2.01
  -9   4  -1   -0.07    0.31
   9   4   1   -0.06    0.32
 -10   4  -1   10.16    0.83
 -10  -4  -1   10.19    0.81
 -11   4  -1    0.27    0.40
 -11  -4  -1    0.98    0.46
 -12   4  -1   29.21    1.38
 -12  -4  -1   26.84    1.27
 -13   4  -1   53.03    1.87
 -13  -4  -1   52.74    1.77
 -12   5   1    8.42    0.91
 -11   5   1    1.11    0.47
  10   5  -1    1.83    0.46
 -10   5   1    1.65    0.49
   9   5  -1    3.95    0.53
  -9   5   1    3.86    0.59
   8   5  -1    1.14    0.39
  -8   5   1    1.46    0.43
   7   5  -1   11.99    0.73
  -7   5   1   11.01    0.83
   6   5  -1   62.26    1.39
  -6   5   1   62.06    1.59
   5   5  -1    4.74    0.52
  -5   5   1    5.07    0.59
   4   5  -1    3.60    0.43
  -4   5   1    3.09    0.45
   3   5  -1    1.51    0.32
  -3   5   1    1.15    0.34
   2   5  -1   10.23    0.66
  -2   5   1    9.93    0.67
   1   5  -1   51.58    1.27
  -1   5   1   51.41    1.30
   0   5  -1   20.59    0.85
   0   5   1   20.45    0.86
  -1   5  -1  104.19    1.82
   1   5   1  103.52    1.80
  -2   5  -1  124.82    2.04
   2   5   1  124.45    1.97
  -3   5  -1   -0.06    0.24
   3   5   1   -0.06    0.24
  -4   5  -1   13.45    0.79
   4   5   1   14.06    0.74
  -5   5  -1   39.27    1.26
   5   5   1   40.35    1.18
  -6   5  -1   12.40    0.81
   6   5   1   12.73    0.76
  -7   5  -1   12.12    0.83
   7   5   1   11.26    0.77
  -8   5  -1   17.05    0.99
   8   5   1   16.61    0.92
  -9   5  -1    1.26    0.43
   9   5   1    1.19    0.45
 -10   5  -1    1.46    0.49
  10   5   1    1.18    0.48
 -11   5  -1    2.21    0.54
 -11  -5  -1    2.79    0.62
 -12   5  -1   22.18    1.27
 -12  -5  -1   21.05    1.21
 -11   6   1   63.56    2.05
  10   6  -1   66.63    1.77
 -10   6   1   63.75    1.99
   9   6  -1   19.54    1.04
  -9   6   1   17.15    1.10
   8   6  -1    3.16    0.52
  -8   6   1    2.57    0.57
   7   6  -1    2.27    0.45
  -7   6   1    1.75    0.49
   6   6  -1   12.98    0.81
  -6   6   1   11.52    0.88
   5   6  -1    6.27    0.61
  -5   6   1    5.57    0.67
   4   6  -1   42.33    1.25
  -4   6   1   40.91    1.36
   3   6  -1   10.31    0.71
  -3   6   1    9.67    0.75
   2   6  -1    4.75    0.58
  -2   6   1    5.33    0.58
   1   6  -1    7.07    0.69
  -1   6   1    6.77    0.69
   0   6  -1    0.14    0.29
   0   6   1   -0.10    0.28
  -1   6  -1    7.35    0.69
   1   6   1    6.98    0.66
  -2   6  -1   17.04    0.93
   2   6   1   16.65    0.87
  -3   6  -1   -0.15    0.30
   3   6   1    0.10    0.31
  -4   6  -1    7.14    0.74
   4   6   1    6.49    0.65
  -5   6  -1   38.37    1.36
   5   6   1   39.95    1.28
  -6   6  -1   12.63    0.90
   6   6   1   12.00    0.81
  -7   6  -1   51.45    1.64
   7   6   1   51.49    1.49
  -8   6  -1   82.52    2.16
   8   6   1   83.26    1.94
  -9   6  -1   78.59    2.16
   9   6   1   80.11    1.96
 -10   6  -1  130.18    2.88
  10   6   1  130.00    2.56
   9   7  -1   14.28    1.04
  -9   7   1   12.71    1.11
   8   7  -1    5.93    0.72
  -8   7   1    6.18    0.78
   7   7  -1    4.53    0.62
  -7   7   1    4.67    0.70
   6   7  -1    6.56    0.72
  -6   7   1    7.06    0.85
   5   7  -1   30.23    1.19
  -5   7   1   30.20    1.34
   4   7  -1   23.19    1.08
  -4   7   1   23.20    1.19
   3   7  -1    3.23    0.53
  -3   7   1    3.44    0.57
   2   7  -1    4.66    0.60
  -2   7   1    5.09    0.64
   1   7  -1    1.21    0.40
  -1   7   1    1.34    0.44
   0   7  -1    0.43    0.38
   0   7   1   -0.04    0.34
  -1   7  -1    3.63    0.55
   1   7   1    3.59    0.56
  -2   7  -1    2.78    0.53
   2   7   1    2.87    0.52
  -3   7  -1   76.91    1.96
   3   7   1   76.92    1.87
  -4   7  -1   30.68    1.32
   4   7   1   30.32    1.23
  -5   7  -1   19.08    1.13
   5   7   1   19.05    1.03
  -6   7  -1    8.35    0.86
   6   7   1    7.65    0.79
  -7   7  -1    0.95    0.51
   7   7   1    1.15    0.48
  -8   7  -1   10.24    1.00
   8   7   1    9.66    0.89
  -9   7  -1   64.28    2.10
   9   7   1   67.64    1.92
   7   8  -1   13.35    1.02
  -7   8   1   12.15    1.12
   6   8  -1   21.93    1.18
  -6   8   1   20.28    1.27
   5   8  -1    0.14    0.39
  -5   8   1    0.33    0.46
   4   8  -1    1.87    0.51
  -4   8   1    1.89    0.55
   3   8  -1   29.62    1.30
  -3   8   1   29.11    1.40
   2   8  -1   17.45    1.08
  -2   8   1   16.01    1.08
   1   8  -1   29.37    1.31
  -1   8   1   29.45    1.36
   0   8   1   19.55    1.13
  -1   8  -1    0.44    0.45
   1   8   1    0.36    0.42
  -2   8  -1    0.26    0.39
   2   8   1    0.36    0.41
  -3   8  -1    0.19    0.42
   3   8   1    0.05    0.39
  -4   8  -1   -0.16    0.41
   4   8   1    0.20    0.41
  -5   8  -1    2.19    0.61
   5   8   1    1.85    0.54
  -6   8  -1   12.35    1.06
   6   8   1   11.84    0.97
  -7   8  -1    6.29    0.86
   7   8   1    8.14    0.90
   3   9  -1    4.36    0.69
  -3   9   1    5.51    0.81
   2   9  -1   11.27    0.96
  -2   9   1   11.03    1.00
   1   9  -1    0.68    0.49
  -1   9   1    0.05    0.45
   0   9  -1    0.12    0.44
   0   9   1    0.08    0.46
  -1   9  -1    4.36    0.75
   1   9   1    3.57    0.68
  -2   9  -1    0.02    0.45
   2   9   1    0.33    0.45
  -3   9  -1    7.92    0.96
   3   9   1    8.60    0.90
 -12   0   2   55.54    1.45
 -11   0   2    0.01    0.28
 -10   0   2  107.25    1.78
  -9   0   2   -0.05    0.24
  -8   0   2    2.97    0.34
  -6   0  -2   40.32    0.97
  -7   0  -2   -0.12    0.22
  -8   0  -2  124.38    1.92
  -9   0  -2   -0.03    0.27
 -10   0  -2    1.56    0.41
 -11   0  -2   -0.12    0.32
 -12   0  -2   34.57    1.31
 -13   0  -2    0.16    0.41
 -14   0  -2   47.41    1.66
 -12   1   2    1.47    0.42
 -11   1   2   21.18    0.94
 -11  -1   2   20.38    0.88
 -10   1   2   43.49    1.18
 -10  -1   2   44.26    1.16
  -9   1   2   23.08    0.84
  -9  -1   2   21.77    0.79
  -8   1   2   11.82    0.61
  -8  -1   2   11.92    0.60
  -6   1  -2   68.15    1.27
  -6  -1  -2   66.92    1.23
  -7   1  -2    2.70    0.37
  -7  -1  -2    2.90    0.38
  -8   1  -2    0.18    0.26
  -8  -1  -2    1.13    0.34
  -9   1  -2   17.01    0.86
  -9  -1  -2   17.07    0.83
 -10   1  -2   12.06    0.79
 -10  -1  -2   11.23    0.81
 -11   1  -2    5.85    0.67
 -11  -1  -2    5.33    0.61
 -12   1  -2    4.22    0.59
 -12  -1  -2    4.09    0.61
 -13   1  -2    2.54    0.56
 -13  -1  -2    2.51    0.58
 -14   1  -2   20.08    1.20
 -14  -1  -2   21.86    1.21
 -13   2   2   93.28    2.14
 -12   2   2   19.84    0.98
 -11   2   2    2.27    0.44
 -10   2   2   -0.03    0.25
 -10  -2   2   -0.16    0.26
  -9   2   2    0.15    0.24
  -9  -2   2    0.28    0.26
  -8   2   2    9.75    0.61
  -8  -2   2    9.28    0.57
  -7   2   2   33.13    0.91
  -5   2  -2    0.14    0.18
   5   2   2    0.20    0.21
  -6   2  -2   17.63    0.74
   6   2   2   18.26    0.72
  -7   2  -2   38.59    1.09
  -7  -2  -2   39.95    1.09
  -8   2  -2    0.02    0.24
  -8  -2  -2   -0.01    0.28
  -9   2  -2    3.22    0.47
  -9  -2  -2    3.21    0.47
 -10   2  -2   76.12    1.76
 -10  -2  -2   76.70    1.73
 -11   2  -2    0.27    0.35
 -11  -2  -2    0.26    0.37
 -12   2  -2    2.49    0.53
 -12  -2  -2    2.07    0.52
 -13   2  -2    0.12    0.42
 -13  -2  -2    0.07    0.44
 -13   3   2    5.89    0.71
 -12   3   2   13.07    0.92
 -11   3   2    0.67    0.38
 -10   3   2   41.40    1.31
  -9   3   2    7.44    0.64
  -9  -3   2    7.07    0.61
   8   3  -2   31.78    0.91
  -8   3   2   30.89    1.02
   7   3  -2   52.69    1.09
  -7   3   2   53.11    1.25
  -6   3   2    7.02    0.53
  -5   3   2   17.28    0.68
  -4   3  -2   51.69    1.13
   4   3   2   51.16    1.08
  -5   3  -2  113.73    1.77
   5   3   2  114.45    1.70
  -6   3  -2  131.42    2.00
   6   3   2  131.54    1.90
  -7   3  -2   -0.14    0.23
   7   3   2    0.18    0.28
  -8   3  -2   30.21    1.09
   8   3   2   30.55    1.04
  -9   3  -2    1.55    0.40
  -9  -3  -2    1.05    0.39
 -10   3  -2   25.00    1.12
 -10  -3  -2   26.23    1.10
 -11   3  -2    0.49    0.38
 -11  -3  -2    0.84    0.43
 -12   3  -2   12.75    0.94
 -12  -3  -2   12.69    0.95
 -13   3  -2    0.91    0.48
 -13  -3  -2    0.13    0.47
 -13   4   2    0.06    0.45
 -12   4   2   12.10    0.94
 -11   4   2    2.55    0.52
 -10   4   2   -0.04    0.33
   9   4  -2    2.16    0.41
  -9   4   2    1.69    0.42
   8   4  -2    0.80    0.32
  -8   4   2    0.61    0.31
   7   4  -2   11.23    0.63
  -7   4   2   10.13    0.70
   6   4  -2   26.12    0.81
  -6   4   2   26.03    0.96
   5   4  -2   28.74    0.83
  -5   4   2   28.90    0.96
   4   4  -2   51.98    1.09
  -4   4   2   55.00    1.26
  -3   4   2    0.13    0.21
  -2   4   2   35.36    0.97
  -1   4   2   74.38    1.39
   0   4  -2   18.54    0.70
   0   4   2   18.43    0.74
  -1   4  -2    0.20    0.20
   1   4   2    0.14    0.21
  -2   4  -2   14.69    0.67
   2   4   2   14.80    0.67
  -3   4  -2   62.30    1.32
   3   4   2   61.05    1.26
  -4   4  -2   22.30    0.88
   4   4   2   21.91    0.81
  -5   4  -2   58.89    1.39
   5   4   2   56.33    1.27
  -6   4  -2   54.99    1.40
   6   4   2   52.97    1.30
  -7   4  -2   12.19    0.78
   7   4   2   11.93    0.75
  -8   4  -2    6.52    0.68
   8   4   2    5.71    0.66
  -9   4  -2    2.08    0.47
   9   4   2    2.71    0.51
 -10   4  -2    0.01    0.35
 -10  -4  -2   -0.14    0.36
 -11   4  -2    8.92    0.86
 -11  -4  -2    9.34    0.89
 -12   4  -2    7.31    0.86
 -12  -4  -2    7.43    0.87
 -12   5   2   26.69    1.37
 -11   5   2   32.56    1.40
  10   5  -2   10.67    0.81
 -10   5   2    9.77    0.89
   9   5  -2    8.01    0.71
  -9   5   2    7.46    0.78
   8   5  -2    1.41    0.38
  -8   5   2    1.22    0.40
   7   5  -2    8.77    0.64
  -7   5   2    7.73    0.71
   6   5  -2   13.73    0.73
  -6   5   2   13.09    0.82
   5   5  -2    0.19    0.25
  -5   5   2    0.48    0.32
   4   5  -2    2.52    0.38
  -4   5   2    2.50    0.42
   3   5  -2   21.27    0.83
  -3   5   2   21.30    0.92
   2   5  -2   16.18    0.75
  -2   5   2   15.78    0.80
   1   5  -2   19.57    0.84
  -1   5   2   18.74    0.83
   0   5  -2   35.17    1.07
   0   5   2   35.14    1.10
  -1   5  -2    3.33    0.43
   1   5   2    3.52    0.43
  -2   5  -2  117.78    1.99
   2   5   2  116.14    1.94
  -3   5  -2    2.92    0.44
   3   5   2    2.59    0.41
  -4   5  -2    1.01    0.35
   4   5   2    1.08    0.33
  -5   5  -2    5.46    0.63
   5   5   2    5.37    0.60
  -6   5  -2   32.85    1.21
   6   5   2   33.55    1.14
  -7   5  -2  136.86    2.50
   7   5   2  134.30    2.29
  -8   5  -2  156.54    2.77
   8   5   2  159.22    2.61
  -9   5  -2    9.83    0.85
   9   5   2   10.53    0.86
 -10   5  -2    9.39    0.89
  10   5   2    7.77    0.83
 -11   5  -2    4.95    0.74
 -11  -5  -2    5.58    0.76
 -11   6   2    6.05    0.81
  10   6  -2    8.78    0.85
 -10   6   2    9.42    0.93
   9   6  -2    0.71    0.43
  -9   6   2    1.12    0.46
   8   6  -2    2.85    0.49
  -8   6   2    3.32    0.59
   7   6  -2   10.11    0.75
  -7   6   2    8.76    0.84
   6   6  -2   17.25    0.87
  -6   6   2   17.99    1.01
   5   6  -2   22.48    0.93
  -5   6   2   21.06    1.04
   4   6  -2    0.20    0.29
  -4   6   2    0.14    0.33
   3   6  -2   -0.04    0.26
  -3   6   2   -0.13    0.30
   2   6  -2    0.08    0.29
  -2   6   2    0.53    0.33
   1   6  -2    1.11    0.37
  -1   6   2    1.11    0.37
   0   6  -2   59.81    1.52
   0   6   2   57.73    1.51
  -1   6  -2    6.33    0.68
   1   6   2    6.88    0.68
  -2   6  -2   49.91    1.44
   2   6   2   48.96    1.39
  -3   6  -2   18.34    0.92
   3   6   2   19.42    0.95
  -4   6  -2   26.99    1.15
   4   6   2   26.73    1.06
  -5   6  -2    2.30    0.49
   5   6   2    2.04    0.45
  -6   6  -2    2.09    0.48
   6   6   2    1.78    0.46
  -7   6  -2    3.83    0.62
   7   6   2    3.82    0.56
  -8   6  -2   16.33    1.07
   8   6   2   16.12    0.99
  -9   6  -2    9.59    0.95
   9   6   2    9.62    0.90
 -10   6  -2    9.20    0.95
  10   6   2   10.16    0.93
   9   7  -2    2.32    0.57
  -9   7   2    1.58    0.58
   8   7  -2   43.23    1.46
  -8   7   2   40.57    1.65
   7   7  -2    0.45    0.39
  -7   7   2    0.40    0.43
   6   7  -2    8.11    0.74
  -6   7   2    7.76    0.83
   5   7  -2    1.29    0.42
  -5   7   2    0.90    0.45
   4   7  -2   10.39    0.81
  -4   7   2   10.55    0.88
   3   7  -2    0.06    0.34
  -3   7   2   -0.20    0.34
   2   7  -2  131.80    2.40
  -2   7   2  128.70    2.53
   1   7  -2   46.99    1.48
  -1   7   2   45.26    1.51
   0   7  -2   43.50    1.43
   0   7   2   44.80    1.47
  -1   7  -2   22.50    1.12
   1   7   2   22.28    1.10
  -2   7  -2    0.30    0.38
   2   7   2    0.04    0.33
  -3   7  -2    0.10    0.37
   3   7   2   -0.15    0.31
  -4   7  -2   21.98    1.17
   4   7   2   21.78    1.07
  -5   7  -2    3.69    0.60
   5   7   2    2.97    0.55
  -6   7  -2    3.24    0.62
  -7   7  -2    0.12    0.44
   7   7   2    0.05    0.42
  -8   7  -2   16.85    1.16
   8   7   2   15.84    1.02
  -9   7  -2   53.28    1.96
   9   7   2   53.90    1.79
   7   8  -2    2.99    0.60
  -7   8   2    3.37    0.70
   6   8  -2    8.80    0.84
  -6   8   2    8.15    0.96
   5   8  -2   -0.44    0.37
  -5   8   2    0.58    0.49
   4   8  -2   34.98    1.38
  -4   8   2   33.78    1.51
   3   8  -2   -0.01    0.38
  -3   8   2   -0.34    0.39
   2   8  -2   14.25    1.00
  -2   8   2   15.73    1.08
   1   8  -2    0.50    0.44
  -1   8   2    0.35    0.43
   0   8  -2    5.75    0.75
   0   8   2    5.54    0.73
  -1   8  -2    0.07    0.39
   1   8   2    0.49    0.43
  -2   8  -2   -0.13    0.39
   2   8   2   -0.08    0.40
  -3   8  -2   14.99    1.08
   3   8   2   15.75    1.03
  -4   8  -2   -0.05    0.45
   4   8   2    0.08    0.40
  -5   8  -2   86.53    2.38
   5   8   2   87.51    2.19
  -6   8  -2    4.57    0.75
   6   8   2    4.86    0.72
   3   9  -2   54.99    1.84
  -3   9   2   53.83    1.97
   2   9  -2   25.05    1.31
  -2   9   2   24.93    1.39
   1   9  -2    0.43    0.50
  -1   9   2   -0.01    0.46
   0   9  -2   16.05    1.14
   0   9   2   14.76    1.09
  -1   9  -2    3.90    0.74
   1   9   2    3.75    0.70
  -2   9  -2    3.20    0.70
   2   9   2    3.59    0.68
  -9   0   3  237.26    2.56
  -5   0  -3   21.21    0.69
  -6   0  -3    0.10    0.21
  -7   0  -3   10.99    0.67
  -8   0  -3    0.08    0.27
  -9   0  -3   29.82    1.08
 -10   0  -3   -0.06    0.32
 -11   0  -3    0.94    0.43
 -12   0  -3   -0.21    0.36
 -13   0  -3    8.24    0.88
 -10   1   3    9.06    0.66
  -9   1   3  150.71    2.01
  -8   1   3  100.74    1.55
  -5   1  -3    9.17    0.54
  -5  -1  -3    9.54    0.56
  -6   1  -3    0.77    0.26
  -6  -1  -3    0.99    0.28
  -7   1  -3   13.27    0.73
  -7  -1  -3   12.82    0.70
  -8   1  -3   73.34    1.56
  -8  -1  -3   73.95    1.57
  -9   1  -3    1.47    0.39
  -9  -1  -3    1.80    0.41
 -10   1  -3   19.98    1.00
 -10  -1  -3   20.56    1.01
 -11   1  -3    3.40    0.55
 -11  -1  -3    3.23    0.54
 -12   1  -3    1.84    0.52
 -12  -1  -3    1.65    0.52
 -13   1  -3    0.63    0.47
 -13  -1  -3    0.46    0.48
 -11   2   3    4.66    0.55
 -10   2   3    3.64    0.47
  -9   2   3    0.09    0.25
  -8   2   3  468.91    4.09
  -7   2   3   18.74    0.71
   4   2   3    2.77    0.33
  -5   2  -3    0.97    0.25
   5   2   3    1.09    0.27
  -6   2  -3    0.27    0.22
   6   2   3   -0.07    0.23
  -7   2  -3    0.12    0.24
  -7  -2  -3    0.19    0.28
  -8   2  -3    1.03    0.33
  -8  -2  -3    0.03    0.30
  -9   2  -3   -0.05    0.28
  -9  -2  -3    0.12    0.31
 -10   2  -3    1.48    0.43
 -10  -2  -3    1.68    0.44
 -11   2  -3    0.98    0.43
 -11  -2  -3    1.40    0.46
 -12   2  -3   -0.19    0.35
 -12  -2  -3   -0.31    0.39
 -13   2  -3    5.95    0.75
 -13  -2  -3    5.41    0.73
 -12   3   3   22.11    1.09
 -11   3   3   34.89    1.23
 -10   3   3    3.82    0.50
  -9   3   3    0.59    0.31
  -8   3   3    4.96    0.53
  -7   3   3   15.80    0.73
  -6   3   3    0.57    0.25
  -5   3   3   29.80    0.88
  -3   3  -3  109.17    1.62
   3   3   3  104.99    1.56
  -4   3  -3  117.96    1.75
   4   3   3  119.53    1.74
  -5   3  -3  141.88    2.03
   5   3   3  141.86    1.98
  -6   3  -3  116.04    1.93
   6   3   3  120.83    1.90
  -7   3  -3   28.47    1.05
   7   3   3   27.62    0.98
  -8   3  -3    0.03    0.27
  -8  -3  -3   -0.27    0.28
  -9   3  -3   16.70    0.91
  -9  -3  -3   17.75    0.94
 -10   3  -3    8.14    0.77
 -10  -3  -3    8.56    0.78
 -11   3  -3    1.03    0.46
 -11  -3  -3    1.41    0.48
 -12   3  -3   10.64    0.95
 -12  -3  -3   12.98    0.98
 -13   3  -3    0.96    0.53
 -13  -3  -3    1.83    0.59
 -12   4   3   12.12    0.93
 -11   4   3    0.49    0.38
 -10   4   3   54.53    1.57
  -9   4   3  136.13    2.39
   8   4  -3    0.12    0.28
  -8   4   3    0.14    0.30
   7   4  -3    2.26    0.35
  -7   4   3    1.87    0.38
   6   4  -3   23.91    0.76
  -6   4   3   24.27    0.93
   5   4  -3   63.15    1.17
  -5   4   3   63.48    1.41
  -4   4   3   77.67    1.51
  -3   4   3   39.11    1.05
  -2   4   3   44.90    1.11
  -1   4   3   45.70    1.12
   0   4  -3   17.85    0.69
   0   4   3   17.24    0.72
  -1   4  -3    0.12    0.19
   1   4   3    0.23    0.22
  -2   4  -3  166.97    2.18
   2   4   3  166.87    2.18
  -3   4  -3   73.25    1.44
   3   4   3   73.37    1.43
  -4   4  -3  116.84    1.94
   4   4   3  114.39    1.84
  -5   4  -3   27.04    1.00
   5   4   3   27.28    0.96
  -6   4  -3    3.32    0.46
   6   4   3    4.44    0.55
  -7   4  -3   14.98    0.86
   7   4   3   15.18    0.82
  -8   4  -3    0.33    0.33
   8   4   3   -0.03    0.33
  -9   4  -3    5.77    0.66
   9   4   3    5.69    0.68
 -10   4  -3   43.56    1.53
 -10  -4  -3   45.64    1.52
 -11   4  -3    8.48    0.87
 -11  -4  -3    8.38    0.86
 -12   4  -3    8.86    0.92
 -12  -4  -3    9.79    0.94
 -12   5   3   31.64    1.44
 -11   5   3   24.13    1.24
 -10   5   3    4.31    0.63
  -9   5   3   21.56    1.11
   8   5  -3    1.22    0.37
  -8   5   3    1.25    0.40
   7   5  -3   17.54    0.79
  -7   5   3   17.65    0.96
   6   5  -3    0.17    0.27
  -6   5   3    0.29    0.29
   5   5  -3   71.40    1.40
  -5   5   3   71.42    1.66
   4   5  -3  172.53    2.24
  -4   5   3  169.99    2.54
   3   5  -3    2.30    0.37
  -3   5   3    2.25    0.41
   2   5  -3   10.33    0.66
  -2   5   3   10.46    0.73
   1   5  -3    2.19    0.37
  -1   5   3    2.20    0.40
   0   5  -3   -0.13    0.24
   0   5   3    0.12    0.25
  -1   5  -3   30.29    1.02
   1   5   3   29.90    1.02
  -2   5  -3   99.03    1.84
   2   5   3   98.17    1.80
  -3   5  -3   49.33    1.34
   3   5   3   50.67    1.32
  -4   5  -3   33.23    1.16
   4   5   3   33.69    1.11
  -5   5  -3    3.78    0.49
   5   5   3    3.36    0.48
  -6   5  -3    1.27    0.40
   6   5   3    1.41    0.39
  -7   5  -3    2.29    0.47
   7   5   3    2.66    0.48
  -8   5  -3    0.09    0.36
   8   5   3    0.23    0.39
  -9   5  -3    3.27    0.57
   9   5   3    3.09    0.57
 -10   5  -3   24.75    1.27
 -11   5  -3    2.47    0.60
 -11  -5  -3    2.33    0.62
 -11   6   3    2.65    0.62
 -10   6   3    1.82    0.56
  -9   6   3    2.58    0.59
  -8   6   3   -0.04    0.34
   7   6  -3   18.65    0.89
  -7   6   3   17.99    1.05
   6   6  -3    4.60    0.52
  -6   6   3    4.49    0.59
   5   6  -3    4.67    0.51
  -5   6   3    3.95    0.57
   4   6  -3    5.34    0.57
  -4   6   3    5.42    0.61
   3   6  -3   13.89    0.82
  -3   6   3   13.95    0.85
   2   6  -3    6.66    0.66
  -2   6   3    7.65    0.71
   1   6  -3   90.54    1.83
  -1   6   3   90.77    1.90
   0   6  -3  276.17    3.36
   0   6   3  273.88    3.45
  -1   6  -3  255.12    3.27
   1   6   3  253.39    3.29
  -2   6  -3   62.35    1.62
   2   6   3   62.50    1.60
  -3   6  -3   19.39    1.00
   3   6   3   19.44    0.97
  -4   6  -3    0.74    0.38
   4   6   3    0.44    0.35
  -5   6  -3    1.83    0.46
   5   6   3    1.70    0.45
  -6   6  -3   29.82    1.29
   6   6   3   30.18    1.20
  -7   6  -3   24.31    1.22
   7   6   3   24.17    1.12
  -8   6  -3    0.08    0.38
   8   6   3   -0.09    0.40
  -9   6  -3   30.36    1.43
   9   6   3   31.50    1.36
 -10   6  -3   11.41    1.00
  10   6   3   10.46    0.96
  -9   7   3    9.81    1.03
  -8   7   3   23.75    1.27
   7   7  -3    0.73    0.42
  -7   7   3    0.93    0.48
   6   7  -3   38.72    1.29
  -6   7   3   37.92    1.51
   5   7  -3   20.84    1.00
  -5   7   3   19.89    1.12
   4   7  -3    4.08    0.56
  -4   7   3    3.46    0.59
   3   7  -3    3.28    0.53
  -3   7   3    2.87    0.54
   2   7  -3   15.22    0.96
  -2   7   3   14.98    0.99
   1   7  -3   23.28    1.09
  -1   7   3   21.30    1.10
   0   7  -3    1.84    0.48
   0   7   3    2.14    0.51
  -1   7  -3    6.88    0.77
   1   7   3    6.73    0.74
  -2   7  -3   -0.13    0.33
   2   7   3   -0.19    0.32
  -3   7  -3    0.56    0.43
   3   7   3    0.71    0.41
  -4   7  -3   25.27    1.22
   4   7   3   26.63    1.17
  -5   7  -3   16.62    1.07
   5   7   3   16.86    1.04
  -6   7  -3   24.84    1.32
   6   7   3   23.33    1.16
  -7   7  -3   29.81    1.44
   7   7   3   29.03    1.30
  -8   7  -3    1.61    0.57
   8   7   3    1.83    0.56
  -7   8   3    6.33    0.84
   6   8  -3    0.39    0.41
  -6   8   3    0.08    0.48
   5   8  -3    4.95    0.67
  -5   8   3    5.23    0.80
   4   8  -3   24.36    1.19
  -4   8   3   24.98    1.32
   3   8  -3   59.88    1.74
  -3   8   3   57.32    1.90
   2   8  -3  140.27    2.70
  -2   8   3  137.14    2.82
   1   8  -3   94.49    2.22
  -1   8   3   96.00    2.36
   0   8  -3    2.73    0.57
   0   8   3    3.25    0.62
  -1   8  -3    1.24    0.50
   1   8   3    1.08    0.48
  -2   8  -3    1.87    0.55
   2   8   3    1.77    0.55
  -3   8  -3   -0.07    0.41
   3   8   3    0.09    0.43
  -4   8  -3    1.66    0.57
   4   8   3    1.36    0.51
  -5   8  -3    1.99    0.62
   5   8   3    2.33    0.59
  -6   8  -3    5.83    0.82
   6   8   3    6.30    0.77
   1   9  -3   -0.31    0.43
  -1   9   3   -0.36    0.43
   0   9  -3    0.06    0.45
   0   9   3   -0.28    0.43
  -1   9  -3    3.67    0.71
   1   9   3    2.43    0.62
  -5   0  -4   -0.02    0.20
  -6   0  -4   18.90    0.78
  -7   0  -4   -0.18    0.25
  -8   0  -4  278.92    3.24
  -9   0  -4   -0.08    0.31
 -10   0  -4  318.97    3.84
 -11   0  -4   -0.10    0.38
 -12   0  -4   38.81    1.47
 -13   0  -4   -0.26    0.42
  -4  -1  -4  363.66    3.16
  -5   1  -4  142.32    1.87
  -5  -1  -4  141.25    1.86
  -6   1  -4    0.92    0.30
  -6  -1  -4    0.68    0.28
  -7   1  -4    5.82    0.61
  -7  -1  -4    6.01    0.62
  -8   1  -4    5.14    0.61
  -8  -1  -4    6.07    0.65
  -9   1  -4   -0.02    0.30
  -9  -1  -4    0.29    0.34
 -10   1  -4   56.14    1.60
 -10  -1  -4   57.75    1.61
 -11   1  -4   37.31    1.38
 -11  -1  -4   36.57    1.37
 -12   1  -4   17.62    1.09
 -12  -1  -4   18.20    1.11
 -13   1  -4   16.69    1.13
 -13  -1  -4   16.94    1.14
  -8   2   4   78.70    1.44
  -4   2  -4   11.12    0.56
   4   2   4   11.22    0.57
  -5   2  -4  267.38    2.83
   5   2   4  267.24    2.79
  -6   2  -4  196.12    2.50
  -7   2  -4  469.38    4.43
  -7  -2  -4  478.32    4.44
  -8   2  -4   65.32    1.56
  -8  -2  -4   64.85    1.54
  -9   2  -4   25.09    1.06
  -9  -2  -4   23.83    1.05
 -10   2  -4    1.04    0.43
 -10  -2  -4    0.97    0.46
 -11   2  -4   -0.06    0.38
 -11  -2  -4   -0.21    0.37
 -12   2  -4   10.32    0.91
 -12  -2  -4   10.56    0.97
 -13   2  -4    0.01    0.43
 -13  -2  -4   -0.05    0.45
  -9   3   4   13.96    0.77
  -8   3   4   14.48    0.75
  -7   3   4  355.56    3.55
  -6   3   4  369.32    3.51
  -5   3   4  229.54    2.54
   2   3   4    2.25    0.31
  -3   3  -4   45.77    1.06
   3   3   4   45.50    1.05
  -4   3  -4  227.14    2.59
   4   3   4  227.47    2.56
  -5   3  -4  160.99    2.24
   5   3   4  160.88    2.20
  -6   3  -4    5.17    0.52
   6   3   4    5.23    0.57
  -7   3  -4   22.76    0.99
   7   3   4   22.08    0.95
  -8   3  -4    0.57    0.34
  -8  -3  -4    0.92    0.39
  -9   3  -4   -0.03    0.30
  -9  -3  -4    0.48    0.38
 -10   3  -4   26.48    1.20
 -10  -3  -4   26.29    1.20
 -11   3  -4   24.53    1.23
 -11  -3  -4   23.51    1.20
 -12   3  -4    8.30    0.96
 -12  -3  -4    9.02    0.93
 -10   4   4   53.23    1.57
  -9   4   4    5.65    0.65
  -8   4   4    1.98    0.42
  -7   4   4    2.53    0.43
  -6   4   4   43.35    1.20
  -5   4   4   22.03    0.90
  -4   4   4   31.53    1.00
  -3   4   4  329.74    3.36
  -2   4   4   96.51    1.65
  -1   4   4   15.44    0.71
   0   4  -4   31.28    0.90
   0   4   4   30.72    0.92
  -1   4  -4   35.35    0.97
   1   4   4   35.30    0.99
  -2   4  -4  104.61    1.70
   2   4   4  104.61    1.71
  -3   4  -4   23.34    0.88
   3   4   4   23.59    0.87
  -4   4  -4  379.97    3.83
   4   4   4  378.75    3.74
  -5   4  -4   32.63    1.11
   5   4   4   30.49    1.03
  -6   4  -4   51.67    1.42
   6   4   4   50.69    1.35
  -7   4  -4   -0.09    0.28
   7   4   4    0.17    0.33
  -8   4  -4   25.53    1.14
   8   4   4   25.05    1.10
  -9   4  -4    0.36    0.38
  -9  -4  -4   -0.13    0.37
 -10   4  -4    3.72    0.60
 -10  -4  -4    3.77    0.63
 -11   4  -4    1.68    0.55
 -11  -4  -4    1.60    0.56
 -12   4  -4    9.28    0.97
 -12  -4  -4   10.11    0.99
 -11   5   4    6.21    0.76
 -10   5   4   -0.10    0.39
  -9   5   4   10.54    0.86
  -8   5   4   -0.10    0.35
  -7   5   4   23.44    1.05
  -6   5   4    1.42    0.40
   5   5  -4   72.23    1.38
  -5   5   4   71.80    1.65
   4   5  -4   64.00    1.32
  -4   5   4   62.67    1.51
   3   5  -4  208.87    2.48
  -3   5   4  211.88    2.85
   2   5  -4  127.47    1.95
  -2   5   4  126.52    2.14
   1   5  -4   25.67    0.92
  -1   5   4   25.71    1.00
   0   5  -4   33.23    1.06
   0   5   4   32.88    1.09
  -1   5  -4  315.72    3.42
   1   5   4  310.80    3.46
  -2   5  -4  217.90    2.87
   2   5   4  214.55    2.78
  -3   5  -4  379.15    4.03
   3   5   4  379.28    3.93
  -4   5  -4    0.04    0.27
   4   5   4   -0.19    0.28
  -5   5  -4    5.13    0.63
   5   5   4    4.55    0.53
  -6   5  -4   11.60    0.82
   6   5   4   11.06    0.77
  -7   5  -4    9.11    0.80
   7   5   4    8.81    0.77
  -8   5  -4   22.46    1.13
   8   5   4   21.68    1.07
  -9   5  -4   23.79    1.22
   9   5   4   22.94    1.16
 -10   5  -4    8.42    0.89
 -10  -5  -4    9.45    0.94
 -11   5  -4    0.02    0.44
 -11  -5  -4   -0.16    0.52
 -10   6   4    0.33    0.43
  -9   6   4   49.39    1.68
  -8   6   4    3.23    0.58
  -7   6   4   85.25    2.12
  -6   6   4   11.53    0.86
   5   6  -4    1.06    0.36
  -5   6   4    1.05    0.40
   4   6  -4   26.93    0.99
  -4   6   4   26.10    1.12
   3   6  -4   18.78    0.92
  -3   6   4   18.70    0.98
   2   6  -4   84.06    1.74
  -2   6   4   81.56    1.86
   1   6  -4   29.65    1.14
  -1   6   4   30.50    1.15
   0   6  -4   71.84    1.67
   0   6   4   69.83    1.67
  -1   6  -4    5.81    0.67
   1   6   4    4.96    0.57
  -2   6  -4   16.11    0.89
   2   6   4   15.25    0.88
  -3   6  -4   10.16    0.80
   3   6   4   10.08    0.76
  -4   6  -4   -0.03    0.31
   4   6   4    0.03    0.33
  -5   6  -4    7.71    0.80
   5   6   4    7.74    0.73
  -6   6  -4   19.22    1.08
   6   6   4   17.41    0.98
  -7   6  -4   41.27    1.54
   7   6   4   41.99    1.47
  -8   6  -4    3.67    0.64
   8   6   4    3.59    0.62
  -9   6  -4    6.65    0.81
   9   6   4    7.09    0.83
  -9   7   4    6.39    0.81
  -8   7   4   12.21    1.02
  -7   7   4    7.79    0.85
  -6   7   4   30.48    1.36
   5   7  -4    2.92    0.49
  -5   7   4    2.12    0.55
   4   7  -4    9.40    0.76
  -4   7   4    8.23    0.84
   3   7  -4   16.94    0.95
  -3   7   4   16.77    1.06
   2   7  -4   20.28    1.05
  -2   7   4   18.94    1.06
   1   7  -4  208.94    3.10
  -1   7   4  203.22    3.20
   0   7  -4   73.53    1.85
   0   7   4   72.97    1.89
  -1   7  -4   42.39    1.46
   1   7   4   42.05    1.47
  -2   7  -4    2.07    0.53
   2   7   4    2.15    0.51
  -3   7  -4    5.76    0.70
   3   7   4    6.63    0.74
  -4   7  -4   12.57    0.96
   4   7   4   13.15    0.92
  -5   7  -4    6.70    0.77
   5   7   4    7.22    0.79
  -6   7  -4    0.94    0.49
   6   7   4    0.44    0.44
  -7   7  -4   16.55    1.15
   7   7   4   15.24    1.03
  -8   7  -4    7.82    0.94
   8   7   4    7.00    0.87
  -6   8   4    9.85    0.99
  -5   8   4    2.09    0.61
   4   8  -4   20.41    1.08
  -4   8   4   19.51    1.22
   3   8  -4   67.39    1.83
  -3   8   4   66.29    2.00
   2   8  -4   11.94    0.97
  -2   8   4   11.07    0.96
   1   8  -4    5.51    0.73
  -1   8   4    4.66    0.72
   0   8  -4    5.10    0.73
   0   8   4    5.93    0.74
  -1   8  -4   65.45    1.93
   1   8   4   64.38    1.91
  -2   8  -4   16.61    1.13
   2   8   4   16.70    1.09
  -3   8  -4    0.95    0.51
   3   8   4    0.74    0.45
  -4   8  -4   38.71    1.63
   4   8   4   39.23    1.55
  -5   8  -4   12.02    1.07
   5   8   4   10.97    0.98
  -4   0  -5    0.03    0.20
  -5   0  -5   89.89    1.50
  -6   0  -5    0.04    0.30
  -7   0  -5   37.18    1.14
  -8   0  -5   -0.21    0.31
  -9   0  -5   40.98    1.35
 -10   0  -5    0.15    0.38
 -11   0  -5   75.03    1.96
 -12   0  -5   -0.38    0.40
 -13   0  -5    2.85    0.68
  -4   1  -5    9.13    0.54
  -4  -1  -5    9.65    0.56
  -5   1  -5    0.76    0.28
  -5  -1  -5    0.88    0.29
  -6   1  -5  100.07    1.71
  -6  -1  -5  100.22    1.74
  -7   1  -5  148.58    2.25
  -7  -1  -5  146.87    2.23
  -8   1  -5  216.27    2.89
  -8  -1  -5  215.42    2.91
  -9   1  -5  387.50    4.25
  -9  -1  -5  387.27    4.27
 -10   1  -5   32.80    1.31
 -10  -1  -5   33.04    1.31
 -11   1  -5   78.03    2.00
 -11  -1  -5   77.94    1.99
 -12   1  -5   53.98    1.79
 -12  -1  -5   54.64    1.79
 -13   1  -5    7.27    0.89
 -13  -1  -5    7.80    0.90
  -3   2  -5   -0.08    0.17
   3   2   5   -0.02    0.20
  -4   2  -5  101.36    1.57
   4   2   5  102.58    1.60
  -5   2  -5    7.32    0.56
   5   2   5    7.51    0.60
  -6   2  -5  388.27    3.82
  -6  -2  -5  388.30    3.82
  -7   2  -5    3.29    0.46
  -7  -2  -5    3.56    0.48
  -8   2  -5    0.62    0.35
  -8  -2  -5    0.94    0.39
  -9   2  -5    1.29    0.43
  -9  -2  -5    1.75    0.48
 -10   2  -5    0.25    0.40
 -10  -2  -5    0.61    0.42
 -11   2  -5   10.41    0.91
 -11  -2  -5   10.82    0.94
 -12   2  -5  132.98    2.78
 -12  -2  -5  131.77    2.76
  -7   3   5   62.68    1.35
  -6   3   5   33.91    0.96
  -5   3   5   72.24    1.37
   0   3   5   44.22    1.00
   1   3   5  120.77    1.70
  -2   3  -5   32.50    0.88
   2   3   5   33.05    0.91
  -3   3  -5   10.90    0.60
   3   3   5   10.47    0.60
  -4   3  -5   42.59    1.11
   4   3   5   41.82    1.10
  -5   3  -5  120.00    1.99
   5   3   5  118.83    1.93
  -6   3  -5  214.74    2.81
   6   3   5  212.16    2.75
  -7   3  -5    0.81    0.34
   7   3   5    1.02    0.36
  -8   3  -5   26.87    1.12
  -8  -3  -5   27.30    1.15
  -9   3  -5   73.16    1.85
  -9  -3  -5   71.81    1.83
 -10   3  -5    2.73    0.57
 -10  -3  -5    2.92    0.61
 -11   3  -5   -0.01    0.42
 -11  -3  -5    0.37    0.46
 -12   3  -5    1.92    0.61
 -12  -3  -5    2.96    0.66
  -8   4   5    9.96    0.75
  -7   4   5    4.93    0.58
  -6   4   5   40.60    1.17
  -5   4   5  295.79    3.27
  -4   4   5  313.44    3.33
  -3   4   5   88.86    1.63
  -2   4   5   51.78    1.22
  -1   4   5   26.03    0.89
   0   4  -5   14.68    0.68
   0   4   5   14.78    0.71
  -1   4  -5    3.22    0.39
   1   4   5    3.00    0.40
  -2   4  -5  145.51    2.08
   2   4   5  145.78    2.11
  -3   4  -5   49.65    1.26
   3   4   5   48.07    1.23
  -4   4  -5  167.04    2.42
   4   4   5  166.12    2.37
  -5   4  -5   39.22    1.23
   5   4   5   39.61    1.20
  -6   4  -5    2.55    0.45
   6   4   5    3.17    0.49
  -7   4  -5   47.45    1.46
   7   4   5   46.97    1.42
  -8   4  -5    2.86    0.53
   8   4   5    2.94    0.55
  -9   4  -5   -0.04    0.36
  -9  -4  -5   -0.04    0.41
 -10   4  -5   26.15    1.32
 -10  -4  -5   24.86    1.26
 -11   4  -5   21.93    1.27
 -11  -4  -5   22.45    1.27
  -9   5   5   36.98    1.35
  -8   5   5    8.56    0.78
  -7   5   5    1.78    0.46
  -6   5   5    3.52    0.51
  -5   5   5   33.79    1.17
  -4   5   5    2.44    0.46
   3   5  -5    8.80    0.63
  -3   5   5    8.58    0.68
   2   5  -5   25.32    0.91
  -2   5   5   24.77    1.00
   1   5  -5   22.05    0.88
  -1   5   5   22.38    0.93
   0   5  -5    1.72    0.37
   0   5   5    1.40    0.38
  -1   5  -5   25.05    0.97
   1   5   5   23.88    0.96
  -2   5  -5   34.56    1.16
   2   5   5   33.25    1.10
  -3   5  -5   78.46    1.71
   3   5   5   76.63    1.67
  -4   5  -5    0.18    0.28
   4   5   5   -0.35    0.28
  -5   5  -5   21.13    1.02
   5   5   5   20.02    0.96
  -6   5  -5   15.05    0.93
   6   5   5   15.71    0.91
  -7   5  -5    1.96    0.48
   7   5   5    2.28    0.50
  -8   5  -5    7.38    0.79
   8   5   5    8.31    0.83
  -9   5  -5   21.99    1.21
   9   5   5   22.08    1.17
 -10   5  -5   21.63    1.25
 -10  -5  -5   21.17    1.25
 -10   6   5    8.03    0.85
  -9   6   5    0.40    0.45
  -8   6   5    6.39    0.72
  -7   6   5    0.33    0.40
  -6   6   5    4.00    0.58
  -5   6   5    1.55    0.46
  -4   6   5   20.99    1.06
   3   6  -5   92.55    1.78
  -3   6   5   93.14    2.02
   2   6  -5  160.82    2.41
  -2   6   5  160.36    2.64
   1   6  -5   74.53    1.70
  -1   6   5   73.45    1.79
   0   6  -5  148.56    2.39
   0   6   5  145.70    2.49
  -1   6  -5   32.28    1.20
   1   6   5   30.22    1.18
  -2   6  -5   32.60    1.25
   2   6   5   30.87    1.19
  -3   6  -5    5.83    0.71
   3   6   5    5.56    0.62
  -4   6  -5    0.31    0.38
   4   6   5    0.30    0.36
  -5   6  -5   84.27    2.06
   5   6   5   81.59    1.94
  -6   6  -5   11.15    0.91
   6   6   5   11.17    0.86
  -7   6  -5    1.03    0.49
   7   6   5    1.65    0.51
  -8   6  -5   24.52    1.30
   8   6   5   26.79    1.30
  -9   6  -5    1.73    0.58
   9   6   5    1.33    0.55
  -8   7   5    7.83    0.90
  -7   7   5   29.45    1.41
  -6   7   5   24.12    1.27
  -5   7   5   20.05    1.15
  -4   7   5    0.04    0.41
   3   7  -5    1.11    0.43
  -3   7   5    0.99    0.45
   2   7  -5    0.83    0.42
  -2   7   5    0.34    0.42
   1   7  -5   78.01    1.87
  -1   7   5   77.08    1.99
   0   7  -5   64.38    1.76
   0   7   5   62.83    1.79
  -1   7  -5   76.53    1.92
   1   7   5   76.52    1.97
  -2   7  -5   48.53    1.59
   2   7   5   48.56    1.57
  -3   7  -5    6.89    0.80
   3   7   5    7.16    0.79
  -4   7  -5    5.10    0.70
   4   7   5    6.36    0.79
  -5   7  -5    2.02    0.56
   5   7   5    2.04    0.54
  -6   7  -5   13.97    1.10
   6   7   5   11.75    0.93
  -7   7  -5    3.37    0.69
   7   7   5    3.25    0.64
  -6   8   5   10.93    1.03
  -5   8   5    4.77    0.72
  -4   8   5    6.78    0.83
  -3   8   5    9.48    0.92
   2   8  -5    1.96    0.54
  -2   8   5    2.41    0.59
   1   8  -5    4.88    0.68
  -1   8   5    5.14    0.72
   0   8  -5   22.72    1.22
   0   8   5   20.64    1.22
  -1   8  -5   14.23    1.12
   1   8   5   14.11    1.04
  -2   8  -5   -0.10    0.41
   2   8   5    0.22    0.45
  -3   8  -5    0.63    0.50
   3   8   5    0.22    0.47
  -4   8  -5    1.80    0.57
   4   8   5    1.06    0.53
  -3   0  -6   -0.01    0.21
  -4   0  -6   50.98    1.12
  -5   0  -6   -0.14    0.24
  -6   0  -6   11.99    0.73
  -7   0  -6    0.19    0.30
  -8   0  -6  123.49    2.21
  -9   0  -6   -0.23    0.34
 -10   0  -6  291.43    3.88
 -11   0  -6   -0.02    0.43
 -12   0  -6    2.73    0.64
  -3   1  -6   23.46    0.73
  -3  -1  -6   23.86    0.76
  -4   1  -6   38.70    0.99
  -4  -1  -6   40.35    1.03
  -5   1  -6   61.18    1.31
  -5  -1  -6   61.49    1.34
  -6   1  -6    1.92    0.38
  -6  -1  -6    2.13    0.40
  -7   1  -6    7.57    0.68
  -7  -1  -6    7.79    0.69
  -8   1  -6   16.62    0.94
  -8  -1  -6   16.28    0.91
  -9   1  -6    7.07    0.77
  -9  -1  -6    7.11    0.76
 -10   1  -6   18.20    1.11
 -10  -1  -6   20.13    1.11
 -11   1  -6    2.74    0.60
 -11  -1  -6    3.26    0.64
 -12   1  -6   26.25    1.36
 -12  -1  -6   25.19    1.33
   2   2   6   15.57    0.63
  -3   2  -6    0.08    0.19
   3   2   6    0.24    0.24
  -4   2  -6   11.22    0.60
   4   2   6   11.62    0.65
  -5   2  -6    2.38    0.37
  -5  -2  -6    2.24    0.40
  -6   2  -6   32.44    1.06
  -6  -2  -6   33.50    1.12
  -7   2  -6   57.99    1.47
  -7  -2  -6   59.87    1.51
  -8   2  -6   15.37    0.89
  -8  -2  -6   15.52    0.92
  -9   2  -6   -0.03    0.33
  -9  -2  -6    0.03    0.38
 -10   2  -6    0.40    0.42
 -10  -2  -6    0.47    0.42
 -11   2  -6   93.77    2.28
 -12   2  -6   31.65    1.46
 -12  -2  -6   31.66    1.48
  -1   3   6   13.37    0.60
   0   3   6    4.91    0.44
   1   3   6   10.15    0.58
  -2   3  -6   51.51    1.12
   2   3   6   52.76    1.18
  -3   3  -6    6.28    0.53
   3   3   6    6.28    0.53
  -4   3  -6    0.23    0.23
   4   3   6    0.09    0.26
  -5   3  -6   23.55    0.93
   5   3   6   22.85    0.92
  -6   3  -6    4.02    0.48
   6   3   6    4.26    0.53
  -7   3  -6   34.91    1.23
  -7  -3  -6   34.61    1.25
  -8   3  -6   98.71    2.11
  -8  -3  -6   98.88    2.12
  -9   3  -6    1.16    0.44
  -9  -3  -6    0.51    0.43
 -10   3  -6    0.02    0.37
 -10  -3  -6    0.10    0.43
 -11   3  -6    8.27    0.93
 -11  -3  -6    7.41    0.91
  -6   4   6   31.71    1.06
  -5   4   6    7.75    0.68
  -4   4   6    6.20    0.59
  -3   4   6    3.13    0.43
  -2   4   6    7.10    0.57
  -1   4   6   13.91    0.71
   0   4  -6    1.92    0.33
   0   4   6    1.80    0.34
  -1   4  -6   19.23    0.78
   1   4   6   21.20    0.84
  -2   4  -6   42.36    1.14
   2   4   6   42.61    1.17
  -3   4  -6    0.09    0.23
   3   4   6   -0.09    0.25
  -4   4  -6    4.54    0.51
   4   4   6    4.10    0.49
  -5   4  -6   14.24    0.83
   5   4   6   14.11    0.82
  -6   4  -6    0.87    0.37
   6   4   6    0.98    0.40
  -7   4  -6    8.01    0.76
   7   4   6    8.08    0.74
  -8   4  -6   17.84    1.04
  -9   4  -6   11.57    0.93
  -9  -4  -6   12.42    0.98
 -10   4  -6   12.91    1.02
 -10  -4  -6   13.61    1.04
  -7   5   6    0.68    0.39
  -6   5   6    0.93    0.41
  -5   5   6    9.05    0.72
  -4   5   6   51.10    1.41
  -3   5   6   39.10    1.24
  -2   5   6  139.85    2.25
   1   5  -6    0.14    0.28
  -1   5   6   -0.32    0.26
   0   5  -6    0.98    0.32
   0   5   6    0.84    0.35
  -1   5  -6   30.99    1.08
   1   5   6   29.81    1.06
  -2   5  -6   13.74    0.80
   2   5   6   13.38    0.78
  -3   5  -6   11.24    0.79
   3   5   6   11.51    0.76
  -4   5  -6   16.38    0.90
   4   5   6   17.09    0.91
  -5   5  -6    4.05    0.55
   5   5   6    4.21    0.57
  -6   5  -6   13.15    0.91
   6   5   6   13.20    0.89
  -7   5  -6    0.89    0.42
   7   5   6    1.08    0.49
  -8   5  -6    3.20    0.60
   8   5   6    2.76    0.59
  -9   5  -6   37.12    1.54
  -8   6   6   49.35    1.63
  -7   6   6    0.06    0.40
  -6   6   6   -0.02    0.36
  -5   6   6    0.34    0.39
  -4   6   6    0.57    0.37
  -3   6   6   -0.11    0.32
  -2   6   6   -0.19    0.34
   1   6  -6   56.76    1.48
  -1   6   6   55.80    1.56
   0   6  -6    0.83    0.38
   0   6   6    0.65    0.39
  -1   6  -6    3.28    0.51
   1   6   6    2.44    0.50
  -2   6  -6    1.29    0.41
   2   6   6    1.10    0.41
  -3   6  -6   28.38    1.20
   3   6   6   27.26    1.17
  -4   6  -6   23.89    1.13
   4   6   6   23.38    1.11
  -5   6  -6    0.48    0.42
   5   6   6    0.06    0.38
  -6   6  -6    0.65    0.44
   6   6   6   -0.49    0.37
  -7   6  -6    0.63    0.43
   7   6   6    0.44    0.46
  -8   6  -6    4.74    0.74
   8   6   6    4.33    0.71
  -8   7   6    2.55    0.64
  -7   7   6    2.19    0.56
  -6   7   6   17.88    1.14
  -5   7   6    7.51    0.83
  -4   7   6   21.20    1.16
  -3   7   6    0.99    0.48
  -2   7   6   16.03    1.00
   1   7  -6   50.84    1.52
  -1   7   6   49.59    1.62
   0   7  -6   71.94    1.84
   0   7   6   68.25    1.87
  -1   7  -6   13.96    0.95
   1   7   6   13.17    0.97
  -2   7  -6    5.05    0.67
   2   7   6    4.15    0.63
  -3   7  -6    0.19    0.40
   3   7   6   -0.35    0.37
  -4   7  -6    4.37    0.66
   4   7   6    4.62    0.67
  -5   7  -6   15.82    1.12
   5   7   6   14.03    1.00
  -6   7  -6    1.71    0.57
   6   7   6    2.36    0.55
  -5   8   6   44.51    1.73
  -4   8   6    0.55    0.50
  -3   8   6   17.41    1.14
  -2   8   6    0.55    0.46
   1   8  -6   -0.39    0.44
  -1   8   6   -0.32    0.41
   0   8  -6   23.23    1.24
   0   8   6   22.09    1.25
  -1   8  -6   21.34    1.25
   1   8   6   20.13    1.19
  -2   8  -6   71.31    2.06
   2   8   6   68.80    2.04
  -3   8  -6   17.07    1.15
   3   8   6   15.43    1.10
  -3   0  -7    1.15    0.28
  -4   0  -7    0.07    0.26
  -5   0  -7   12.42    0.71
  -6   0  -7    0.02    0.28
  -7   0  -7    2.12    0.44
  -8   0  -7   -0.10    0.34
  -9   0  -7    3.02    0.55
 -10   0  -7    0.28    0.42
 -11   0  -7   12.76    1.03
  -2  -1  -7    2.04    0.31
  -3   1  -7   35.97    0.93
  -3  -1  -7   38.14    0.99
  -4   1  -7   13.91    0.70
  -4  -1  -7   13.83    0.73
  -5   1  -7    8.52    0.64
  -5  -1  -7    9.01    0.67
  -6   1  -7    5.61    0.63
  -6  -1  -7    5.89    0.62
  -7   1  -7    4.29    0.53
  -7  -1  -7    4.22    0.54
  -8   1  -7   15.50    0.91
  -8  -1  -7   15.54    0.93
  -9   1  -7    0.55    0.42
  -9  -1  -7    1.09    0.47
 -10   1  -7    0.26    0.41
 -10  -1  -7    0.17    0.43
 -11   1  -7    4.46    0.71
 -11  -1  -7    3.60    0.66
   1   2   7    1.28    0.28
  -2   2  -7   29.35    0.82
   2   2   7   30.50    0.87
  -3   2  -7   -0.21    0.20
   3   2   7   -0.08    0.23
  -4   2  -7   31.37    0.96
   4   2   7   31.54    0.99
  -5   2  -7   27.00    0.96
  -5  -2  -7   24.88    0.96
  -6   2  -7    4.42    0.51
  -6  -2  -7    4.53    0.54
  -7   2  -7    0.62    0.36
  -7  -2  -7    0.92    0.39
  -8   2  -7    0.26    0.35
  -8  -2  -7    0.26    0.39
  -9   2  -7    2.56    0.51
  -9  -2  -7    3.02    0.58
 -10   2  -7    8.59    0.85
 -10  -2  -7    7.89    0.87
 -11   2  -7    0.48    0.47
 -11  -2  -7   -0.47    0.45
  -2   3   7    0.36    0.23
  -1   3   7   14.50    0.63
   0   3   7    7.85    0.53
  -1   3  -7    7.12    0.52
   1   3   7    6.48    0.51
  -2   3  -7   29.59    0.89
   2   3   7   30.84    0.95
  -3   3  -7   14.35    0.72
   3   3   7   13.84    0.72
  -4   3  -7    4.44    0.47
   4   3   7    4.21    0.49
  -5   3  -7    0.42    0.30
   5   3   7    0.56    0.33
  -6   3  -7    0.40    0.31
   6   3   7    0.19    0.34
  -7   3  -7    0.10    0.32
  -7  -3  -7   -0.03    0.35
  -8   3  -7    1.09    0.43
  -8  -3  -7    1.05    0.48
  -9   3  -7    0.53    0.42
  -9  -3  -7    0.27    0.46
 -10   3  -7    0.94    0.48
 -10  -3  -7    1.12    0.54
 -11   3  -7    2.80    0.64
 -11  -3  -7    3.68    0.68
  -4   4   7    0.59    0.31
  -3   4   7    4.62    0.54
  -2   4   7   25.78    0.92
  -1   4   7   38.79    1.08
   0   4  -7   47.20    1.14
   0   4   7   46.32    1.18
  -1   4  -7   34.00    1.01
   1   4   7   33.11    1.04
  -2   4  -7    4.62    0.56
   2   4   7    4.45    0.53
  -3   4  -7   31.56    1.07
   3   4   7   31.77    1.07
  -4   4  -7    2.21    0.41
   4   4   7    2.59    0.46
  -5   4  -7    0.12    0.30
   5   4   7    0.11    0.32
  -6   4  -7    2.55    0.48
   6   4   7    2.59    0.52
  -7   4  -7    1.56    0.47
   7   4   7    1.09    0.45
  -8   4  -7   12.09    0.93
  -8  -4  -7   11.49    0.95
  -9   4  -7    0.47    0.45
  -9  -4  -7    0.45    0.49
 -10   4  -7   17.73    1.17
 -10  -4  -7   17.75    1.18
  -5   5   7    0.89    0.36
  -4   5   7   29.56    1.08
  -3   5   7   -0.14    0.29
  -2   5   7   -0.19    0.30
  -1   5   7    3.11    0.48
   0   5   7   11.64    0.77
  -1   5  -7   13.34    0.81
   1   5   7   11.21    0.77
  -2   5  -7    8.99    0.73
   2   5   7    8.12    0.69
  -3   5  -7    1.26    0.39
   3   5   7    1.42    0.41
  -4   5  -7   26.58    1.12
   4   5   7   25.49    1.10
  -5   5  -7   11.73    0.86
   5   5   7   11.08    0.86
  -6   5  -7    1.14    0.43
   6   5   7    1.07    0.45
  -7   5  -7    0.08    0.39
   7   5   7   -0.14    0.40
  -8   5  -7    2.58    0.59
   8   5   7    2.19    0.59
  -9   5  -7    4.81    0.73
  -9  -5  -7    5.49    0.80
  -6   6   7   -0.02    0.39
  -5   6   7    3.67    0.57
  -4   6   7   39.61    1.38
  -3   6   7   33.55    1.24
  -2   6   7   11.37    0.82
  -1   6   7    7.46    0.72
   0   6   7    6.73    0.73
  -1   6  -7    0.65    0.37
   1   6   7    0.27    0.36
  -2   6  -7   10.41    0.84
   2   6   7    9.14    0.78
  -3   6  -7    1.77    0.48
   3   6   7    1.19    0.47
  -4   6  -7    0.90    0.43
   4   6   7    0.49    0.39
  -5   6  -7    1.36    0.48
   5   6   7    1.29    0.48
  -6   6  -7   40.89    1.56
   6   6   7   40.29    1.51
  -7   6  -7    0.00    0.42
   7   6   7    0.56    0.47
  -7   7   7    0.91    0.50
  -6   7   7   24.57    1.23
  -5   7   7   32.60    1.38
  -4   7   7    4.15    0.65
  -3   7   7   13.38    0.95
  -2   7   7    1.64    0.49
  -1   7   7   -0.10    0.39
   0   7   7   -0.06    0.38
  -1   7  -7   33.44    1.33
   1   7   7   34.55    1.38
  -2   7  -7   15.57    1.05
   2   7   7   14.07    1.02
  -3   7  -7   21.92    1.20
   3   7   7   21.14    1.14
  -4   7  -7   14.72    1.10
   4   7   7   14.70    1.04
  -5   7  -7    1.02    0.50
   5   7   7    0.28    0.47
  -3   8   7    0.17    0.45
  -2   8   7    1.41    0.56
  -1   8   7   13.18    1.05
   0   8   7    6.27    0.78
  -1   8  -7   23.44    1.31
   1   8   7   21.95    1.22
  -2   0  -8   11.21    0.59
  -3   0  -8    0.12    0.27
  -4   0  -8   69.70    1.43
  -5   0  -8   -0.02    0.27
  -6   0  -8   99.14    1.90
  -7   0  -8   -0.05    0.35
  -8   0  -8   26.08    1.16
  -9   0  -8   -0.15    0.40
 -10   0  -8   -0.06    0.43
 -11   0  -8   -0.26    0.45
  -1  -1  -8  297.00    2.78
  -2   1  -8   30.24    0.84
  -2  -1  -8   30.29    0.91
  -3   1  -8   40.88    1.04
  -3  -1  -8   41.98    1.09
  -4   1  -8    7.14    0.59
  -4  -1  -8    5.95    0.60
  -5   1  -8   10.47    0.69
  -5  -1  -8    9.75    0.70
  -6   1  -8    7.68    0.70
  -6  -1  -8    7.86    0.69
  -7   1  -8   28.15    1.13
  -7  -1  -8   28.13    1.13
  -8   1  -8    3.80    0.57
  -8  -1  -8    3.46    0.57
  -9   1  -8    7.72    0.83
  -9  -1  -8    7.64    0.85
 -10   1  -8    2.15    0.56
 -10  -1  -8    2.62    0.62
 -11   1  -8   13.69    1.05
 -11  -1  -8   12.66    1.08
   0   2   8    2.39    0.33
   1   2   8    5.26    0.49
  -2   2  -8   15.96    0.68
   2   2   8   15.17    0.69
  -3   2  -8   20.78    0.79
   3   2   8   19.43    0.81
  -4   2  -8    7.50    0.60
  -4  -2  -8    7.21    0.62
  -5   2  -8    4.39    0.49
  -5  -2  -8    4.50    0.55
  -6   2  -8    0.66    0.35
  -6  -2  -8    1.06    0.40
  -7   2  -8    1.98    0.45
  -7  -2  -8    2.40    0.49
  -8   2  -8   20.01    1.04
  -8  -2  -8   20.35    1.08
  -9   2  -8    1.95    0.52
  -9  -2  -8    0.96    0.46
 -10   2  -8   11.48    0.98
 -10  -2  -8   11.05    0.99
  -1   3   8    0.31    0.27
   0   3   8   89.87    1.54
   1   3   8   63.69    1.33
  -2   3  -8    2.34    0.37
   2   3   8    2.72    0.42
  -3   3  -8  161.86    2.28
   3   3   8  160.88    2.34
  -4   3  -8   39.53    1.19
   4   3   8   39.36    1.20
  -5   3  -8   32.65    1.15
   5   3   8   35.31    1.21
  -6   3  -8   18.16    0.94
  -6  -3  -8   18.88    0.99
  -7   3  -8    4.98    0.61
  -7  -3  -8    3.36    0.58
  -8   3  -8   45.15    1.52
  -8  -3  -8   45.33    1.54
  -9   3  -8    6.72    0.76
  -9  -3  -8    6.80    0.84
 -10   3  -8   25.47    1.32
 -10  -3  -8   24.62    1.33
  -2   4   8   97.33    1.72
  -1   4   8   11.15    0.67
   0   4   8    0.88    0.33
   1   4   8    0.14    0.28
  -2   4  -8   -0.09    0.26
   2   4   8    0.04    0.29
  -3   4  -8    0.25    0.31
   3   4   8   -0.01    0.31
  -4   4  -8    6.79    0.71
   4   4   8    6.72    0.67
  -5   4  -8   89.16    1.95
   5   4   8   88.60    1.97
  -6   4  -8   14.08    0.94
   6   4   8   14.59    0.94
  -7   4  -8   41.98    1.48
  -7  -4  -8   41.80    1.50
  -8   4  -8    1.07    0.48
  -8  -4  -8    1.56    0.55
  -9   4  -8    0.21    0.44
  -9  -4  -8   -0.32    0.47
  -3   5   8   12.46    0.78
  -2   5   8   32.49    1.14
  -1   5   8   32.95    1.15
   0   5   8   18.47    0.90
   1   5   8    9.97    0.74
  -2   5  -8    0.15    0.33
   2   5   8    0.07    0.32
  -3   5  -8    2.02    0.46
   3   5   8    2.45    0.49
  -4   5  -8   -0.20    0.33
   4   5   8   -0.09    0.36
  -5   5  -8   -0.02    0.33
   5   5   8    0.19    0.40
  -6   5  -8   17.24    1.05
   6   5   8   17.47    1.07
  -7   5  -8    4.68    0.69
   7   5   8    5.37    0.73
  -8   5  -8    7.85    0.91
  -8  -5  -8    7.70    0.95
  -4   6   8   16.38    0.96
  -3   6   8   27.49    1.16
  -2   6   8    3.91    0.57
  -1   6   8    0.04    0.37
   0   6   8   -0.28    0.33
   1   6   8   22.78    1.08
  -2   6  -8   16.31    1.00
   2   6   8   16.87    0.98
  -3   6  -8   37.58    1.43
   3   6   8   37.76    1.39
  -4   6  -8   68.44    1.87
   4   6   8   67.41    1.85
  -5   6  -8   19.59    1.17
   5   6   8   19.99    1.14
  -6   6  -8   -0.22    0.43
   6   6   8    0.11    0.44
  -5   7   8   20.30    1.15
  -4   7   8    1.68    0.52
  -3   7   8   19.69    1.13
  -2   7   8    3.70    0.63
  -1   7   8    4.75    0.66
   0   7   8    0.04    0.38
   1   7   8   10.87    0.89
   2   7   8   30.20    1.33
  -3   7  -8    0.74    0.46
   3   7   8    0.24    0.45
  -4   7  -8   -0.31    0.44
   4   7   8    0.32    0.45
  -2   0  -9    0.13    0.24
  -3   0  -9   72.00    1.42
  -4   0  -9   -0.33    0.26
  -5   0  -9   28.04    1.05
  -6   0  -9   -0.20    0.31
  -7   0  -9    1.55    0.46
  -8   0  -9   -0.38    0.37
  -9   0  -9    1.14    0.50
 -10   0  -9   -0.24    0.47
  -1  -1  -9   31.82    0.91
  -2   1  -9   55.65    1.17
  -2  -1  -9   55.43    1.24
  -3   1  -9    0.94    0.30
  -3  -1  -9    0.66    0.33
  -4   1  -9   25.49    0.93
  -4  -1  -9   24.81    0.97
  -5   1  -9   49.01    1.32
  -5  -1  -9   49.23    1.36
  -6   1  -9    5.46    0.59
  -6  -1  -9    5.42    0.60
  -7   1  -9   22.50    1.08
  -7  -1  -9   22.17    1.09
  -8   1  -9   16.36    1.03
  -8  -1  -9   15.72    1.01
  -9   1  -9   12.07    0.96
  -9  -1  -9   11.47    0.97
 -10   1  -9    1.02    0.48
 -10  -1  -9    0.63    0.52
  -3   2  -9   81.36    1.54
  -3  -2  -9   82.36    1.62
  -4   2  -9   56.10    1.38
  -4  -2  -9   56.66    1.42
  -5   2  -9    0.26    0.32
  -5  -2  -9    0.40    0.35
  -6   2  -9   11.71    0.80
  -6  -2  -9   12.89    0.87
  -7   2  -9    2.37    0.50
  -7  -2  -9    3.52    0.56
  -8   2  -9    8.91    0.84
  -8  -2  -9    9.63    0.87
  -9   2  -9   42.07    1.56
   1   3   9   33.95    1.04
   2   3   9   -0.01    0.30
  -3   3  -9   23.48    0.94
   3   3   9   23.03    0.96
  -4   3  -9    8.61    0.72
   4   3   9    7.89    0.73
  -5   3  -9    1.68    0.45
  -5  -3  -9    0.72    0.41
  -6   3  -9   12.43    0.87
  -6  -3  -9   12.26    0.92
  -7   3  -9   59.09    1.72
  -7  -3  -9   58.20    1.72
  -8   3  -9    9.33    0.88
  -8  -3  -9    8.82    0.90
  -9   3  -9   42.49    1.64
  -9  -3  -9   43.78    1.64
   0   4   9   26.16    0.98
   1   4   9   25.81    1.00
   2   4   9    3.35    0.50
  -3   4  -9   72.83    1.65
   3   4   9   71.08    1.68
  -4   4  -9   56.24    1.54
   4   4   9   53.50    1.54
  -5   4  -9  132.06    2.45
   5   4   9  129.67    2.45
  -6   4  -9   44.66    1.50
  -6  -4  -9   42.60    1.50
  -7   4  -9   27.94    1.30
  -7  -4  -9   27.36    1.33
  -8   4  -9    0.29    0.44
  -8  -4  -9    0.38    0.52
  -1   5   9   16.66    0.88
   0   5   9   78.41    1.75
   1   5   9    6.22    0.68
   2   5   9   21.12    1.02
   3   5   9   20.57    1.06
  -4   5  -9   24.81    1.15
   4   5   9   24.13    1.15
  -5   5  -9   11.91    0.93
   5   5   9   10.93    0.89
  -6   5  -9   97.24    2.31
   6   5   9   98.17    2.30
  -7   5  -9   13.42    1.06
  -2   6   9   13.42    0.90
  -1   6   9    5.06    0.62
   0   6   9    0.29    0.41
   1   6   9    1.03    0.45
   2   6   9    3.33    0.58
   3   6   9   32.99    1.34
  -4   6  -9    4.51    0.65
   4   6   9    3.39    0.63
  -5   6  -9   -0.04    0.44
   5   6   9    0.01    0.44
  -3   7   9    4.91    0.68
  -2   7   9    1.08    0.49
  -1   7   9   12.42    0.92
   0   7   9    2.56    0.58
   1   7   9    1.27    0.49
   2   7   9   15.13    1.05
  -3   0 -10   -0.01    0.30
  -4   0 -10   10.48    0.73
  -5   0 -10   -0.09    0.33
  -6   0 -10   81.21    1.84
  -7   0 -10   -0.04    0.39
  -8   0 -10    5.96    0.74
  -9   0 -10   -0.26    0.45
  -2  -1 -10   31.18    0.98
  -3  -1 -10   11.86    0.75
  -4   1 -10   13.02    0.78
  -4  -1 -10   12.85    0.77
  -5   1 -10   12.33    0.82
  -5  -1 -10   12.06    0.81
  -6   1 -10    1.19    0.42
  -6  -1 -10    0.94    0.46
  -7   1 -10    3.49    0.62
  -7  -1 -10    3.40    0.60
  -8   1 -10   17.78    1.06
  -8  -1 -10   18.21    1.10
  -9   1 -10    0.41    0.45
  -9  -1 -10   -0.15    0.46
  -2  -2 -10   41.86    1.19
  -3  -2 -10    5.28    0.65
  -4   2 -10   14.06    0.80
  -4  -2 -10   13.51    0.86
  -5   2 -10   24.31    1.04
  -5  -2 -10   22.37    1.05
  -6   2 -10    0.19    0.37
  -6  -2 -10    0.36    0.41
  -7   2 -10    1.72    0.51
  -7  -2 -10    1.27    0.51
  -8   2 -10   28.27    1.32
  -8  -2 -10   28.31    1.32
   2   3  10    3.10    0.47
   3   3  10  119.33    2.12
  -4   3 -10   94.55    1.89
  -4  -3 -10   91.08    1.94
  -5   3 -10   16.99    0.96
  -5  -3 -10   16.79    1.02
  -6   3 -10    5.62    0.70
  -6  -3 -10    4.99    0.68
  -7   3 -10    7.74    0.87
  -7  -3 -10    8.10    0.87
  -8   3 -10    5.40    0.76
  -8  -3 -10    5.22    0.74
   1   4  10    2.09    0.47
   2   4  10    7.79    0.69
   3   4  10    6.26    0.71
   4   4  10    3.48    0.57
  -5   4 -10    7.65    0.84
  -6   4 -10    0.15    0.41
  -6  -4 -10    0.05    0.46
  -7   4 -10   19.90    1.17
  -7  -4 -10   18.69    1.17
   1   5  10    5.47    0.63
   2   5  10    2.41    0.52
   3   5  10   -0.02    0.40
   4   5  10    7.60    0.83
  -5   5 -10   62.47    1.84
   5   5  10   67.76    1.93
   0   6  10   28.09    1.22
   1   6  10   14.36    0.96
   2   6  10   22.62    1.16
   3   6  10    7.69    0.85
  -4   0 -11   -0.02    0.34
  -5   0 -11    2.34    0.51
  -6   0 -11   -0.12    0.38
  -7   0 -11    0.22    0.43
  -8   0 -11   -0.16    0.46
  -4  -1 -11   11.66    0.81
  -5   1 -11    2.03    0.47
  -5  -1 -11    2.05    0.51
  -6   1 -11    1.96    0.50
  -6  -1 -11    1.93    0.52
  -7   1 -11    6.57    0.78
  -7  -1 -11    6.44    0.76
  -8   1 -11   13.28    1.02
  -8  -1 -11   13.35    1.02
  -3  -2 -11    4.07    0.55
  -4  -2 -11   19.01    1.01
  -5   2 -11    7.46    0.75
  -5  -2 -11    7.85    0.80
  -6   2 -11    0.56    0.42
  -6  -2 -11    0.37    0.43
  -7   2 -11    3.69    0.61
  -7  -2 -11    2.83    0.61
  -2  -3 -11   -0.03    0.36
  -3  -3 -11   11.06    0.84
  -4  -3 -11   15.04    0.95
  -5  -3 -11   20.19    1.11
  -6   3 -11    0.57    0.44
  -6  -3 -11    0.76    0.48
   3   4  11    0.39    0.43
  -4  -4 -11    4.10    0.64
  -5  -4 -11   14.39    1.04
   2   5  11   45.81    1.52
   3   5  11    6.84    0.81
   4   5  11    8.39    0.90
  -6   0 -12   -0.09    0.42
  -5  -1 -12    5.80    0.70
  -6  -1 -12    9.81    0.89
  -5  -2 -12   96.57    2.15
  -6  -2 -12   27.36    1.29
  -4  -3 -12    2.04    0.59
  -5  -3 -12    9.58    0.93
  -3  -4 -12   76.78    1.96
  -1   0   0    1.27    0.09
  -2   0   0 2133.53   13.08
  -3   0   0    0.17    0.11
  -4   0   0   37.28    0.71
  -5  -1   0  257.94    2.41
  -6  -1   0  370.83    3.22
  -7  -1   0    9.46    0.56
  -8  -1   0   82.91    1.54
  -7  -2   0   32.55    0.95
  -8  -2   0   41.49    1.13
  -9  -2   0    1.41    0.37
 -10  -2   0  171.83    2.63
  -9  -3   0    0.03    0.30
 -10  -3   0   29.64    1.15
 -11  -3   0   13.09    0.87
 -10  -4   0    5.17    0.62
 -11  -4   0    2.93    0.57
 -12  -4   0   13.48    0.98
 -10  -5   0    0.42    0.43
 -11  -5   0   93.14    2.25
 -12  -5   0   73.09    2.10
 -11  -6   0    1.27    0.56
  -4   0  -1    0.12    0.13
  -5   0  -1  400.85    3.16
  -6   0  -1   -0.11    0.15
  -6  -1   1    0.26    0.18
  -5  -1   1   91.12    1.27
  -4  -1   1   56.97    0.89
  -3  -1   1  574.30    3.87
  -6  -1  -1   81.77    1.33
  -7  -1  -1   45.45    1.08
  -8  -1  -1   64.54    1.36
  -9  -1  -1   29.46    1.01
  -9  -2   1    3.03    0.44
  -8  -2   1    8.39    0.60
  -7  -2   1    4.19    0.44
  -6  -2   1   72.25    1.27
  -8  -2  -1  105.90    1.84
  -9  -2  -1    4.33    0.54
 -10  -2  -1    4.63    0.55
 -11  -2  -1    0.19    0.35
 -10  -3   1    0.23    0.32
  -9  -3   1    0.63    0.33
  -8  -3   1   34.82    1.07
  -9  -3  -1  113.82    2.09
 -10  -3  -1   -0.16    0.32
 -11  -3  -1   59.71    1.69
 -12  -3  -1   22.15    1.13
 -11  -4   1    0.38    0.41
 -10  -4   1   17.81    0.96
  -9  -4   1   13.66    0.81
 -10  -4  -1   11.27    0.85
 -11  -4  -1   -0.06    0.39
 -12  -4  -1   29.73    1.35
 -13  -4  -1   52.24    1.83
 -12  -5   1    7.63    0.89
 -11  -5   1    0.65    0.51
 -10  -5   1    1.98    0.50
  -9  -5   1    4.00    0.58
 -11  -5  -1    1.89    0.56
 -12  -5  -1   19.64    1.21
 -11  -6   1   64.01    1.94
 -10  -6   1   65.05    1.87
  -5   0  -2    0.18    0.15
  -6   0  -2   40.44    0.90
  -7   0  -2    0.04    0.20
  -7  -1  -2    2.33    0.35
  -8  -1  -2    0.12    0.25
  -9  -1  -2   16.08    0.80
 -10  -1  -2   12.40    0.78
  -7  -2   2   32.51    0.92
  -6  -2   2   30.69    0.82
  -5  -2   2    7.52    0.42
  -4  -2   2    0.56    0.17
  -9  -2  -2    2.57    0.44
 -10  -2  -2   78.17    1.75
 -11  -2  -2    0.41    0.36
  -9  -3   2    7.88    0.64
  -8  -3   2   31.38    1.02
  -7  -3   2   52.57    1.22
  -6  -3   2    7.28    0.51
 -10  -3  -2   25.66    1.11
 -11  -3  -2    0.57    0.41
 -12  -3  -2   12.38    0.91
 -10  -4   2   -0.02    0.33
  -9  -4   2    2.54    0.46
  -8  -4   2    0.68    0.32
 -11  -4  -2    9.00    0.84
 -12  -4  -2    6.80    0.81
 -11  -5   2   34.03    1.39
 -10  -5   2   11.12    0.86
  -9  -5   2    7.79    0.72
  -8  -5   2    1.20    0.41
 -11  -5  -2    6.74    0.82
 -11  -6   2    5.47    0.75
 -10  -6   2    8.42    0.86
  -9  -6   2    0.94    0.45
  -6   0  -3   -0.12    0.17
  -7   0  -3   11.71    0.61
  -8   0  -3   -0.11    0.23
  -2   1  -3    3.16    0.19
  -3   1  -3   84.89    0.94
  -4   1  -3   36.91    0.68
  -8  -1  -3   73.77    1.49
  -9  -1  -3    2.37    0.42
 -10  -1  -3   20.26    0.94
  -4  -2   3    7.45    0.37
  -3  -2   3   65.25    0.89
  -2  -2   3   64.56    0.77
  -9  -2  -3    0.16    0.31
 -10  -2  -3    2.32    0.47
 -11  -2  -3    1.36    0.46
 -12  -2  -3    0.02    0.40
  -7  -3   3   15.68    0.69
  -6  -3   3    0.63    0.26
  -5  -3   3   31.86    0.81
  -4  -3   3    0.40    0.18
 -10  -3  -3    8.45    0.74
 -11  -3  -3    1.19    0.46
 -12  -3  -3   11.62    0.94
 -13  -3  -3    1.61    0.57
  -9  -4   3  136.33    2.30
  -8  -4   3    0.05    0.29
  -7  -4   3    1.90    0.36
  -6  -4   3   23.99    0.84
 -11  -4  -3    8.00    0.85
 -12  -4  -3    9.61    0.89
 -10  -5   3    4.37    0.60
  -9  -5   3   21.97    1.02
  -8  -5   3    0.87    0.37
  -7  -5   3   19.55    0.88
 -10  -6   3    2.38    0.57
  -9  -6   3    2.90    0.56
  -8  -6   3    0.27    0.37
  -7   0  -4    0.03    0.23
  -8   0  -4  279.95    3.02
  -9   0  -4    0.16    0.31
  -3   1  -4    0.65    0.14
  -4   1  -4  365.57    2.78
  -5   1  -4  137.49    1.55
  -8  -1  -4    5.71    0.56
  -9  -1  -4   -0.01    0.30
 -10  -1  -4   58.60    1.53
 -11  -1  -4   35.80    1.30
 -10  -2  -4    1.15    0.43
 -11  -2  -4   -0.11    0.36
 -12  -2  -4   10.83    0.90
  -4  -3   4  235.23    2.19
  -3  -3   4   18.63    0.50
  -2  -3   4    0.42    0.13
 -11  -3  -4   23.89    1.16
 -12  -3  -4    9.68    0.92
  -7  -4   4    2.61    0.39
  -6  -4   4   43.52    1.07
  -5  -4   4   21.51    0.72
  -4  -4   4   32.08    0.79
 -12  -4  -4   10.55    0.97
  -8  -5   4   -0.11    0.28
  -7  -5   4   23.94    0.93
  -6  -5   4    1.77    0.35
  -7   0  -5   37.08    1.00
  -8   0  -5   -0.09    0.27
  -9   0  -5   40.87    1.20
  -4   1  -5    9.14    0.40
  -5   1  -5    0.56    0.20
  -6   1  -5  100.42    1.44
  -9  -1  -5  385.45    4.05
 -10  -1  -5   33.31    1.22
 -11  -1  -5   78.98    1.88
 -10  -2  -5    0.36    0.39
 -11  -2  -5   10.71    0.89
 -12  -2  -5  134.64    2.65
 -11  -3  -5    0.06    0.45
 -12  -3  -5    2.67    0.65
  -7   0  -6    0.12    0.25
  -8   0  -6  125.31    1.98
  -9   0  -6    0.10    0.31
  -5   1  -6   61.86    1.06
  -6   1  -6    2.70    0.32
  -9  -1  -6    7.64    0.70
 -10  -1  -6   18.71    0.98
 -11  -1  -6    3.02    0.57
 -10  -2  -6    0.23    0.42
 -11  -2  -6   93.42    2.19
 -12  -2  -6   33.78    1.44
 -11  -3  -6    7.65    0.86
  -7   0  -7    1.75    0.36
  -8   0  -7   -0.40    0.26
  -9   0  -7    3.09    0.49
  -5   1  -7    9.20    0.49
  -6   1  -7    6.66    0.51
  -9  -1  -7    0.48    0.39
 -10  -1  -7    0.43    0.41
 -11  -1  -7    3.95    0.63
 -10  -2  -7    7.67    0.83
 -11  -2  -7   -0.02    0.42
 -11  -3  -7    3.03    0.68
  -9  -1  -8    8.56    0.77
 -10  -1  -8    1.81    0.52
 -10  -2  -8   12.69    0.99
   0   0   0    0.00    0.00
;
_shelx_hkl_checksum              66150
_olex2_submission_special_instructions 'No special instructions were received'
#END Tags that were not found in dictionaries
loop_
_space_group_symop_operation_xyz
'x, y, z'
'-x+1/2, y+1/2, -z+1/2'
'-x, -y, -z'
'x-1/2, -y-1/2, z-1/2'
loop_
_atom_site_label
_atom_site_type_symbol
_atom_site_fract_x
_atom_site_fract_y
_atom_site_fract_z
_atom_site_U_iso_or_equiv
_atom_site_adp_type
_atom_site_occupancy
_atom_site_site_symmetry_order
_atom_site_calc_flag
_atom_site_refinement_flags_posn
C1 C 0.50744(7) 0.31000(11) 0.64580(7) 0.01447(17) Uani 1 1 d .
C2 C 0.45201(7) 0.36941(12) 0.75716(7) 0.01654(17) Uani 1 1 d .
C3 C 0.49333(7) 0.27770(13) 0.87726(7) 0.01862(18) Uani 1 1 d .
H3 H 0.4558 0.3174 0.9522 0.022 Uiso 1 1 calc R
C4 C 0.58864(8) 0.12916(13) 0.88835(8) 0.02050(19) Uani 1 1 d .
H4 H 0.6149 0.0662 0.9700 0.025 Uiso 1 1 calc R
C5 C 0.64521(8) 0.07340(12) 0.77922(8) 0.01885(18) Uani 1 1 d .
H5 H 0.7109 -0.0271 0.7870 0.023 Uiso 1 1 calc R
C6 C 0.60661(7) 0.16338(11) 0.65816(7) 0.01536(17) Uani 1 1 d .
C7 C 0.46191(7) 0.40359(11) 0.51396(7) 0.01526(17) Uani 1 1 d .
H7A H 0.3697 0.4389 0.5100 0.018 Uiso 1 1 calc R
H7B H 0.4703 0.3015 0.4452 0.018 Uiso 1 1 calc R
C8 C 0.34852(8) 0.53072(14) 0.75084(8) 0.0238(2) Uani 1 1 d .
H8A H 0.3253 0.5544 0.8383 0.036 Uiso 1 1 calc GR
H8B H 0.2726 0.4848 0.6932 0.036 Uiso 1 1 calc GR
H8C H 0.3807 0.6574 0.7169 0.036 Uiso 1 1 calc GR
C9 C 0.67477(8) 0.10230(12) 0.54396(8) 0.01912(18) Uani 1 1 d .
H9A H 0.7391 -0.0024 0.5717 0.029 Uiso 1 1 calc GR
H9B H 0.7174 0.2215 0.5120 0.029 Uiso 1 1 calc GR
H9C H 0.6120 0.0482 0.4741 0.029 Uiso 1 1 calc GR
loop_
_atom_site_aniso_label
_atom_site_aniso_U_11
_atom_site_aniso_U_22
_atom_site_aniso_U_33
_atom_site_aniso_U_23
_atom_site_aniso_U_13
_atom_site_aniso_U_12
C1 0.0143(3) 0.0137(3) 0.0153(3) 0.0024(2) 0.0013(2) -0.0014(2)
C2 0.0160(3) 0.0168(3) 0.0171(3) 0.0025(3) 0.0034(3) 0.0000(3)
C3 0.0185(3) 0.0218(4) 0.0159(3) 0.0030(3) 0.0036(3) -0.0019(3)
C4 0.0196(4) 0.0236(4) 0.0177(3) 0.0072(3) 0.0003(3) -0.0006(3)
C5 0.0170(3) 0.0178(4) 0.0213(4) 0.0055(3) 0.0006(3) 0.0013(3)
C6 0.0148(3) 0.0139(3) 0.0174(3) 0.0016(2) 0.0019(2) -0.0011(2)
C7 0.0152(3) 0.0155(3) 0.0149(3) 0.0026(2) 0.0010(2) -0.0006(2)
C8 0.0249(4) 0.0259(4) 0.0221(4) 0.0047(3) 0.0088(3) 0.0083(3)
C9 0.0198(4) 0.0173(4) 0.0209(4) 0.0008(3) 0.0051(3) 0.0030(3)
loop_
_atom_type_symbol
_atom_type_description
_atom_type_scat_dispersion_real
_atom_type_scat_dispersion_imag
_atom_type_scat_source
C C 0.0033 0.0016 'International Tables Vol C Tables 4.2.6.8 and 6.1.1.4'
H H 0.0000 0.0000 'International Tables Vol C Tables 4.2.6.8 and 6.1.1.4'
loop_
_geom_angle_atom_site_label_1
_geom_angle_atom_site_label_2
_geom_angle_atom_site_label_3
_geom_angle
_geom_angle_site_symmetry_1
_geom_angle_site_symmetry_3
C2 C1 C6 119.37(7) . .
C2 C1 C7 120.51(6) . .
C6 C1 C7 120.11(6) . .
C1 C2 C8 121.79(7) . .
C3 C2 C1 119.58(7) . .
C3 C2 C8 118.63(7) . .
C2 C3 H3 119.6 . .
C4 C3 C2 120.86(7) . .
C4 C3 H3 119.6 . .
C3 C4 H4 120.2 . .
C5 C4 C3 119.63(7) . .
C5 C4 H4 120.2 . .
C4 C5 H5 119.6 . .
C4 C5 C6 120.81(7) . .
C6 C5 H5 119.6 . .
C1 C6 C9 121.79(7) . .
C5 C6 C1 119.71(7) . .
C5 C6 C9 118.50(7) . .
C1 C7 C7 112.95(7) . 3_666
C1 C7 H7A 109.0 . .
C1 C7 H7B 109.0 . .
C7 C7 H7A 109.0 3_666 .
C7 C7 H7B 109.0 3_666 .
H7A C7 H7B 107.8 . .
C2 C8 H8A 109.5 . .
C2 C8 H8B 109.5 . .
C2 C8 H8C 109.5 . .
H8A C8 H8B 109.5 . .
H8A C8 H8C 109.5 . .
H8B C8 H8C 109.5 . .
C6 C9 H9A 109.5 . .
C6 C9 H9B 109.5 . .
C6 C9 H9C 109.5 . .
H9A C9 H9B 109.5 . .
H9A C9 H9C 109.5 . .
H9B C9 H9C 109.5 . .
loop_
_geom_bond_atom_site_label_1
_geom_bond_atom_site_label_2
_geom_bond_distance
_geom_bond_site_symmetry_2
C1 C2 1.4108(10) .
C1 C6 1.4112(10) .
C1 C7 1.5174(10) .
C2 C3 1.3997(10) .
C2 C8 1.5122(11) .
C3 H3 0.9500 .
C3 C4 1.3911(11) .
C4 H4 0.9500 .
C4 C5 1.3905(11) .
C5 H5 0.9500 .
C5 C6 1.3980(10) .
C6 C9 1.5117(10) .
C7 C7 1.5446(14) 3_666
C7 H7A 0.9900 .
C7 H7B 0.9900 .
C8 H8A 0.9800 .
C8 H8B 0.9800 .
C8 H8C 0.9800 .
C9 H9A 0.9800 .
C9 H9B 0.9800 .
C9 H9C 0.9800 .
loop_
_geom_torsion_atom_site_label_1
_geom_torsion_atom_site_label_2
_geom_torsion_atom_site_label_3
_geom_torsion_atom_site_label_4
_geom_torsion
_geom_torsion_site_symmetry_4
C1 C2 C3 C4 0.20(12) .
C2 C1 C6 C5 2.42(11) .
C2 C1 C6 C9 -176.52(7) .
C2 C1 C7 C7 90.35(10) 3_666
C2 C3 C4 C5 1.11(12) .
C3 C4 C5 C6 -0.63(12) .
C4 C5 C6 C1 -1.13(12) .
C4 C5 C6 C9 177.84(7) .
C6 C1 C2 C3 -1.96(11) .
C6 C1 C2 C8 177.97(7) .
C6 C1 C7 C7 -89.19(10) 3_666
C7 C1 C2 C3 178.50(7) .
C7 C1 C2 C8 -1.57(11) .
C7 C1 C6 C5 -178.04(7) .
C7 C1 C6 C9 3.02(11) .
C8 C2 C3 C4 -179.73(8) .
