#------------------------------------------------------------------------------
#$Date: 2016-03-24 14:28:49 +0200 (Thu, 24 Mar 2016) $
#$Revision: 179665 $
#$URL: svn://www.crystallography.net/cod/cif/4/51/18/4511872.cif $
#------------------------------------------------------------------------------
#
# This file is available in the Crystallography Open Database (COD),
# http://www.crystallography.net/
#
# All data on this site have been placed in the public domain by the
# contributors.
#
data_4511872
loop_
_publ_author_name
'Harada, Jun'
'Ogawa, Keiichiro'
_publ_section_title
;
 What Molecules Are Likely or Unlikely To Undergo Pedal Motions in
 Crystals?
;
_journal_issue                   10
_journal_name_full               'Crystal Growth &amp; Design'
_journal_page_first              5182
_journal_paper_doi               10.1021/cg500962y
_journal_volume                  14
_journal_year                    2014
_chemical_formula_moiety         'C18 H20'
_chemical_formula_sum            'C18 H20'
_chemical_formula_weight         236.34
_chemical_name_systematic
;
 ?
;
_space_group_crystal_system      monoclinic
_space_group_IT_number           14
_space_group_name_Hall           '-P 2ybc'
_space_group_name_H-M_alt        'P 1 21/c 1'
_symmetry_space_group_name_Hall  '-P 2ybc'
_symmetry_space_group_name_H-M   'P 1 21/c 1'
_atom_sites_solution_hydrogens   geom
_atom_sites_solution_primary     direct
_audit_creation_date             2014-06-25
_audit_creation_method
;
Olex2 1.2
(compiled 2014.06.23 svn.r2946 for OlexSys, GUI svn.r4855)
;
_cell_angle_alpha                90
_cell_angle_beta                 90.435(1)
_cell_angle_gamma                90
_cell_formula_units_Z            2
_cell_length_a                   5.5048(4)
_cell_length_b                   6.4450(5)
_cell_length_c                   19.4446(14)
_cell_measurement_reflns_used    2434
_cell_measurement_temperature    300
_cell_measurement_theta_max      28.427
_cell_measurement_theta_min      3.330
_cell_volume                     689.84(9)
_computing_cell_refinement       'SAINT v6.28A (Bruker, 2002)'
_computing_data_collection       'SMART v5.054 (Bruker, 1998)'
_computing_data_reduction        'SAINT v6.28A (Bruker, 2002)'
_computing_molecular_graphics    'XP (Bruker, 1998)'
_computing_publication_material  'Olex2 (Dolomanov et al., 2009)'
_computing_structure_refinement  'ShelXL (Sheldrick, 2008)'
_computing_structure_solution    'ShelXS (Sheldrick, 2008)'
_diffrn_ambient_temperature      300
_diffrn_detector_area_resol_mean 8.192
_diffrn_measured_fraction_theta_full 1.000
_diffrn_measured_fraction_theta_max 0.998
_diffrn_measurement_device_type  'Bruker SMART 1000'
_diffrn_measurement_method       \w_scan
_diffrn_radiation_type           MoK\a
_diffrn_radiation_wavelength     0.71073
_diffrn_reflns_av_R_equivalents  0.0237
_diffrn_reflns_av_unetI/netI     0.0181
_diffrn_reflns_Laue_measured_fraction_full 1.000
_diffrn_reflns_Laue_measured_fraction_max 0.998
_diffrn_reflns_limit_h_max       7
_diffrn_reflns_limit_h_min       -7
_diffrn_reflns_limit_k_max       9
_diffrn_reflns_limit_k_min       -9
_diffrn_reflns_limit_l_max       27
_diffrn_reflns_limit_l_min       -27
_diffrn_reflns_number            10376
_diffrn_reflns_point_group_measured_fraction_full 1.000
_diffrn_reflns_point_group_measured_fraction_max 0.998
_diffrn_reflns_theta_full        25.242
_diffrn_reflns_theta_max         30.038
_diffrn_reflns_theta_min         2.095
_diffrn_source                   'sealed X-ray tube'
_exptl_absorpt_coefficient_mu    0.064
_exptl_absorpt_correction_T_max  1
_exptl_absorpt_correction_T_min  0.923018
_exptl_absorpt_correction_type   multi-scan
_exptl_absorpt_process_details
'SADABS v.2.03 (Bruker,200?) was used for absorption correction. R(int) was 0.0256 before and 0.0173 after correction. The Ratio of minimum to maximum transmission is 0.9230. The \l/2 correction factor is 0.0015.'
_exptl_crystal_colour            colourless
_exptl_crystal_colour_primary    colourless
_exptl_crystal_density_diffrn    1.138
_exptl_crystal_description       block
_exptl_crystal_F_000             256
_exptl_crystal_size_max          0.25
_exptl_crystal_size_mid          0.15
_exptl_crystal_size_min          0.1
_refine_diff_density_max         0.265
_refine_diff_density_min         -0.136
_refine_diff_density_rms         0.035
_refine_ls_extinction_method     none
_refine_ls_goodness_of_fit_ref   1.028
_refine_ls_hydrogen_treatment    constr
_refine_ls_matrix_type           full
_refine_ls_number_parameters     95
_refine_ls_number_reflns         2000
_refine_ls_number_restraints     3
_refine_ls_restrained_S_all      1.029
_refine_ls_R_factor_all          0.0730
_refine_ls_R_factor_gt           0.0539
_refine_ls_shift/su_max          0.000
_refine_ls_shift/su_mean         0.000
_refine_ls_structure_factor_coef Fsqd
_refine_ls_weighting_details
'w=1/[\s^2^(Fo^2^)+(0.0864P)^2^+0.0816P] where P=(Fo^2^+2Fc^2^)/3'
_refine_ls_weighting_scheme      calc
_refine_ls_wR_factor_gt          0.1463
_refine_ls_wR_factor_ref         0.1598
_reflns_Friedel_coverage         0.000
_reflns_number_gt                1453
_reflns_number_total             2000
_reflns_threshold_expression     'I > 2\s(I)'
_cod_data_source_file            cg500962y_si_001.cif
_cod_data_source_block           2266MeESTrt
_cod_depositor_comments
'Adding full bibliography for 4511872--4511883.cif.'
_cod_database_code               4511872
#BEGIN Tags that were not found in dictionaries:
_shelxl_version_number           2013-4
_shelx_space_group_comment
;
The symmetry employed for this shelxl refinement is uniquely defined
by the following loop, which should always be used as a source of
symmetry information in preference to the above space-group names.
They are only intended as comments.
;
_shelx_estimated_absorpt_t_max   0.994
_shelx_estimated_absorpt_t_min   0.984
_olex2_refinement_description
;
1. Fixed Uiso
 At 1.2 times of:
  All C(H) groups
 At 1.5 times of:
  All C(H,H,H,H,H,H) groups
2. Restrained distances
 C7-C7_$1 \\sim C7'-C7'_$1
 with sigma of 0.02
 C1-C7 \\sim C1'-C7'
 with sigma of 0.02
 C1-C7_$1 \\sim C1'-C7'_$1
 with sigma of 0.02
3. Others
 Sof(H84)=Sof(H85)=Sof(H86)=1-FVAR(1)
 Sof(H81)=Sof(H82)=Sof(H83)=FVAR(1)
 Sof(H94)=Sof(H95)=Sof(H96)=1-FVAR(2)
 Sof(H91)=Sof(H92)=Sof(H93)=FVAR(2)
 Sof(C1')=Sof(C7')=Sof(H7')=1-FVAR(3)
 Sof(C1)=Sof(C7)=Sof(H7)=FVAR(3)
4.a Aromatic/amide H refined with riding coordinates:
 C3(H3), C4(H4), C5(H5), C7(H7), C7'(H7')
4.b Idealised Me refined as rotating group:
 C8(H81,H82,H83), C8(H84,H85,H86), C9(H91,H92,H93), C9(H94,H95,H96)
;
_shelx_res_file
;
TITL (E)-2,2',6,6'-tetramethylstilbene at r.t. in P2(1)/c
CELL 0.71073   5.5048   6.4450  19.4446  90.000  90.435  90.000
ZERR    2.00   0.0004   0.0005   0.0014   0.000   0.001   0.000
LATT 1
SYMM -X, 0.5+Y, 0.5-Z
SFAC C  H
UNIT 36 40
L.S. 6
BOND $H
FMAP 2
PLAN 40
LIST 4
SIZE 0.10 0.15 0.25
CONF
EQIV $1 2-x, 2-y, -z
SADI C7 C7_$1 C7' C7'_$1
SADI C1 C7 C1' C7'
SADI C1 C7_$1 C1' C7'_$1
TEMP 27
ACTA
WGHT    0.086400    0.081600
FVAR       1.12754   0.73088   0.45669   0.93018
PART 3
C1    1    0.947156    0.873783    0.089849    41.00000    0.04150    0.04135 =
         0.03613   -0.00660    0.00289   -0.00126
PART 4
C1'   1    0.943348    0.820188    0.081445   -41.00000    0.02253
PART 0
C2    1    0.762355    0.915461    0.136725    11.00000    0.04565    0.05206 =
         0.04016   -0.00662    0.00479   -0.00126
C3    1    0.724907    0.783768    0.191983    11.00000    0.05627    0.07028 =
         0.04067   -0.00353    0.01182   -0.00214
AFIX  43
H3    2    0.601023    0.812729    0.222789    11.00000   -1.20000
AFIX   0
C4    1    0.867012    0.611638    0.202091    11.00000    0.07089    0.06979 =
         0.04557    0.01262    0.00885   -0.00264
AFIX  43
H4    2    0.841395    0.525949    0.239829    11.00000   -1.20000
AFIX   0
C5    1    1.048269    0.566528    0.155858    11.00000    0.06454    0.05662 =
         0.05307    0.00835    0.00187    0.00862
AFIX  43
H5    2    1.144612    0.449820    0.162939    11.00000   -1.20000
AFIX   0
C6    1    1.090244    0.691503    0.098924    11.00000    0.04642    0.05258 =
         0.04072   -0.00270    0.00299    0.00310
PART 3
C7    1    0.987700    1.021603    0.032987    41.00000    0.04217    0.04059 =
         0.04058   -0.00354    0.00486    0.00144
AFIX  43
H7    2    0.996954    1.161035    0.045040    41.00000   -1.20000
AFIX   0
PART 4
C7'   1    0.952994    0.916779    0.011477   -41.00000    0.05533
AFIX  43
H7'   2    0.873903    0.839069   -0.022200   -41.00000   -1.20000
AFIX   0
PART 0
C8    1    0.600138    1.102437    0.127714    11.00000    0.06028    0.06510 =
         0.06444   -0.00503    0.01734    0.01356
AFIX 137
PART 1
H81   2    0.512045    1.090971    0.085085    21.00000   -1.50000
H82   2    0.697552    1.225967    0.127196    21.00000   -1.50000
H83   2    0.487636    1.109301    0.165128    21.00000   -1.50000
AFIX 137
PART 2
H84   2    0.436985    1.066772    0.140187   -21.00000   -1.50000
H85   2    0.602837    1.146441    0.080558   -21.00000   -1.50000
H86   2    0.657412    1.213026    0.156664   -21.00000   -1.50000
AFIX   0
PART 0
C9    1    1.292935    0.631177    0.051219    11.00000    0.05521    0.06611 =
         0.05488    0.00083    0.00894    0.01872
PART 1
AFIX 137
H91   2    1.401417    0.746497    0.045679    31.00000   -1.50000
H92   2    1.226070    0.592969    0.007271    31.00000   -1.50000
H93   2    1.380405    0.515644    0.070326    31.00000   -1.50000
PART 2
AFIX 137
H94   2    1.356879    0.753263    0.029623   -31.00000   -1.50000
H95   2    1.231486    0.538264    0.016642   -31.00000   -1.50000
H96   2    1.419527    0.563584    0.077011   -31.00000   -1.50000
PART 0
AFIX   0
HKLF 4

REM  (E)-2,2',6,6'-tetramethylstilbene at r.t. in P2(1)/c
REM R1 =  0.0539 for    1453 Fo > 4sig(Fo)  and  0.0730 for all    2000 data
REM     95 parameters refined using      3 restraints

END

WGHT      0.0863      0.0820

REM Highest difference peak  0.265,  deepest hole -0.136,  1-sigma level  0.035
Q1    1   0.8291  0.8844  0.1097  11.00000  0.05    0.26
Q2    1   0.7537  0.8420  0.1638  11.00000  0.05    0.24
Q3    1   0.9717  0.6182  0.1780  11.00000  0.05    0.24
Q4    1   1.0718  0.6391  0.1292  11.00000  0.05    0.23
Q5    1   0.9617  0.9372  0.0581  11.00000  0.05    0.23
Q6    1   1.1943  0.6738  0.0764  11.00000  0.05    0.23
Q7    1   1.0341  0.7978  0.1035  11.00000  0.05    0.19
Q8    1   1.0791  0.9627  0.0097  11.00000  0.05    0.18
Q9    1   0.7611  0.6708  0.1799  11.00000  0.05    0.17
Q10   1   0.8530  0.7401  0.1997  11.00000  0.05    0.15
Q11   1   0.7052  1.0048  0.1351  11.00000  0.05    0.14
Q12   1   1.3115  0.4876  0.0578  11.00000  0.05    0.14
Q13   1   0.6813  0.8416  0.2129  11.00000  0.05    0.10
Q14   1   1.2741  0.6872  0.0091  11.00000  0.05    0.09
Q15   1   0.5778  1.1596  0.1813  11.00000  0.05    0.09
Q16   1   0.9174  1.1289  0.0406  11.00000  0.05    0.08
Q17   1   0.6419  1.2533  0.0711  11.00000  0.05    0.07
Q18   1   0.8295  0.4557  0.2175  11.00000  0.05    0.07
Q19   1   0.9050  1.2281  0.0475  11.00000  0.05    0.06
Q20   1   1.2563  0.4938  0.1785  11.00000  0.05    0.06
Q21   1   1.2640  0.3671  0.1569  11.00000  0.05    0.06
Q22   1   0.9430  0.5842  0.2614  11.00000  0.05    0.06
Q23   1   1.1148  0.3128  0.1597  11.00000  0.05    0.06
Q24   1   0.4267  1.0538  0.0954  11.00000  0.05    0.06
Q25   1   0.5307  0.7802  0.2177  11.00000  0.05    0.05
Q26   1   0.7073  0.5250  0.2329  11.00000  0.05    0.05
Q27   1   0.4985  0.7025  0.1988  11.00000  0.05    0.05
Q28   1   1.2316  0.3797  0.0412  11.00000  0.05    0.05
Q29   1   0.3174  1.0053  0.1594  11.00000  0.05    0.05
Q30   1   1.0007  0.9993  0.1601  11.00000  0.05    0.05
Q31   1   1.2533  0.8658  0.0010  11.00000  0.05    0.05
Q32   1   1.0791  1.2263  0.0588  11.00000  0.05    0.05
Q33   1   0.5922  0.8740  0.2574  11.00000  0.05    0.04
Q34   1   0.5395  1.3731  0.1085  11.00000  0.05    0.04
Q35   1   1.5781  0.9189  0.0019  11.00000  0.05    0.04
Q36   1   1.2333  0.5352  0.2198  11.00000  0.05    0.04
Q37   1   0.8770  0.5761  0.2337  11.00000  0.05    0.04
Q38   1   1.0481  0.4035  0.1590  11.00000  0.05    0.04
Q39   1   1.3012  0.9759  0.0214  11.00000  0.05    0.04
Q40   1   1.0317  1.2154  0.1021  11.00000  0.05    0.04
;
_shelx_res_checksum              41247
_shelx_hkl_file
;
  -1   0   0 4561.34   79.42   2
  -1   0   0 4402.33   76.84   1
  -1   0   0 4322.59   81.29   4
  -1   0   0 4429.14   80.18   3
  -2   0   0   85.48    1.97   4
  -2   0   0   81.96    2.05   2
  -2   0   0   81.09    2.03   3
  -2   0   0   85.01    1.90   1
  -3   0   0  518.66   10.09   3
  -3   0   0  507.82   10.02   2
  -3   0   0  508.88   10.03   4
  -3   0   0  532.16    9.55   1
   4   0   0   70.86    2.27   5
   4   0   0   74.83    2.09   1
  -4   0   0   71.80    2.33   3
  -4   0   0   72.61    2.35   2
  -4   0   0   74.44    2.20   4
   5   0   0    5.89    0.90   1
  -5   0   0    4.63    0.91   4
  -5   0   0    4.61    0.99   2
   5   0   0    6.24    0.98   5
  -5   0   0    6.56    1.07   3
   6   0   0   39.35    2.13   2
  -6   0   0   37.31    2.23   3
  -7   0   0   -1.32    1.30   3
   7   0   0    2.84    1.34   2
   0   1   0    0.15    0.17   2
   0   1   0    0.05    0.18   1
   0  -1   0    0.37    0.17   3
   0  -1   0    0.15    0.20   4
   1   1   0   37.27    1.01   1
   1  -1   0   36.41    1.00   3
  -1   1   0   37.07    1.00   2
  -1   1   0   39.38    1.11   1
   1   1   0   39.05    1.11   2
  -1   1   0   41.52    1.18   4
  -1  -1   0   40.01    1.20   3
  -1  -1   0   36.67    0.98   4
  -2   1   0  171.35    3.56   3
  -2   1   0  171.92    3.70   4
  -2   1   0  168.65    3.50   1
  -2  -1   0  165.38    3.67   3
  -2   1   0  172.83    3.54   2
   2   1   0  169.93    3.32   1
  -2  -1   0  169.66    3.47   4
  -2  -1   0  170.23    3.67   2
  -3   1   0  205.36    4.46   2
  -3  -1   0  206.84    4.34   4
  -3   1   0  214.30    4.38   1
  -3  -1   0  212.51    4.62   2
  -3   1   0  202.02    4.47   3
   3   1   0  209.41    4.17   1
  -3   1   0  210.91    4.59   4
  -3  -1   0  202.09    4.60   3
  -4  -1   0    6.82    0.97   2
  -4   1   0    5.88    0.87   4
   4   1   0    8.28    0.78   1
  -4   1   0    7.42    0.89   3
  -4   1   0    8.35    0.92   2
  -4  -1   0    7.99    0.79   4
  -4   1   0    6.06    0.84   1
  -4  -1   0    7.32    0.98   3
  -5  -1   0   10.08    1.32   3
   5   1   0   12.03    1.08   1
  -5   1   0   11.48    1.21   1
  -5  -1   0   11.96    1.06   4
   5   1   0   10.06    1.26   2
  -5   1   0   11.12    1.26   2
  -5   1   0   10.27    1.14   4
  -5   1   0   11.72    1.27   3
  -6   1   0    1.60    1.03   2
  -6   1   0    0.50    0.93   4
  -6   1   0    0.34    1.10   3
  -6  -1   0   -0.31    1.06   3
   6   1   0    0.13    1.04   2
   7   1   0   -0.26    1.26   2
  -7  -1   0    0.27    1.34   3
   7  -1   0    1.47    1.28   2
  -7   1   0    1.38    1.38   3
   0   2   0  246.86    4.67   1
   0  -2   0  228.70    4.77   3
   0   2   0  252.93    4.72   2
   0  -2   0  247.98    4.92   4
  -1  -2   0  335.81    6.49   3
  -1   2   0  336.19    6.24   2
  -1   2   0  324.71    6.25   1
   1  -2   0  320.15    6.58   4
   1  -2   0  333.01    6.31   3
   1   2   0  334.27    6.11   1
   1   2   0  329.68    6.40   2
  -1  -2   0  325.37    6.41   4
  -2   2   0  284.86    5.99   4
  -2  -2   0  286.29    5.66   4
   2   2   0  285.40    5.85   2
  -2   2   0  291.73    5.69   1
   2   2   0  286.70    5.43   1
  -2   2   0  285.17    5.61   2
   2  -2   0  288.03    5.67   3
  -2  -2   0  284.36    5.94   3
  -3  -2   0    4.27    0.55   4
   3  -2   0    6.13    0.66   3
  -3   2   0    5.17    0.77   4
  -3  -2   0    4.48    0.74   3
  -3   2   0    4.69    0.66   2
   3   2   0    4.36    0.74   2
   3   2   0    5.63    0.61   1
  -3   2   0    4.88    0.71   1
  -4  -2   0   40.90    1.47   4
  -4   2   0   43.07    1.71   3
  -4  -2   0   39.54    1.87   3
  -4   2   0   33.97    1.57   2
   4   2   0   43.37    1.91   2
  -4   2   0   35.15    1.68   1
  -4   2   0   37.05    1.83   4
   4   2   0   34.54    1.44   1
  -5   2   0   73.12    2.54   2
  -5  -2   0   75.94    2.79   3
  -5   2   0   72.59    2.70   4
  -5   2   0   67.08    2.49   1
   5   2   0   66.33    2.67   2
  -5   2   0   70.45    2.52   3
  -6  -2   0    4.40    1.34   3
  -6   2   0    5.99    1.28   4
  -6   2   0    4.91    1.18   3
  -6   2   0    6.54    1.25   1
   6   2   0    4.26    1.27   2
  -6   2   0    4.75    1.22   2
   7   2   0    1.76    1.41   2
  -7  -2   0    0.94    1.46   3
   0  -3   0    2.43    0.53   4
   0  -3   0   -0.39    0.35   3
   0   3   0    0.19    0.38   1
   0   3   0    0.26    0.36   2
  -1  -3   0    4.13    0.54   4
   1   3   0    3.00    0.55   2
   1   3   0    3.16    0.52   1
  -1   3   0    4.49    0.62   1
  -1  -3   0    3.75    0.58   3
   1  -3   0    3.18    0.48   3
   1  -3   0    3.42    0.61   4
  -1   3   0    4.28    0.49   2
   2  -3   0  413.28    8.07   3
  -2   3   0  407.41    7.95   2
  -2  -3   0  410.83    8.39   3
  -2  -3   0  423.22    8.18   4
   2   3   0  421.85    7.82   1
  -2   3   0  416.74    8.11   1
   2  -3   0  417.08    8.54   4
   2   3   0  414.33    8.30   2
   3   3   0    1.37    0.57   1
  -3   3   0    0.95    0.64   1
   3  -3   0    1.71    0.54   3
   3   3   0    1.73    0.66   2
   3  -3   0    1.38    0.67   4
  -3  -3   0    1.57    0.54   4
  -3  -3   0    0.62    0.68   3
  -3   3   0    0.93    0.52   2
  -4   3   0    1.94    0.83   1
  -4  -3   0    3.30    0.95   3
  -4   3   0    3.92    0.79   2
   4  -3   0    3.81    0.95   4
   4   3   0    3.09    0.90   2
   4  -3   0    2.75    0.78   3
   5   3   0    1.81    0.98   2
  -5   3   0    2.54    0.91   2
  -5   3   0    4.83    1.11   1
  -5  -3   0    0.86    0.95   3
   5  -3   0    0.34    0.91   4
   6  -3   0    3.39    1.14   4
   6   3   0   -0.29    1.15   2
  -6   3   0    1.86    1.14   1
  -6  -3   0    0.97    1.22   3
  -7  -3   0   -0.91    1.54   3
  -7   3   0    1.75    1.44   1
   7   3   0    1.71    1.45   2
   0  -4   0  341.35    7.28   4
   0  -4   0  351.64    7.04   3
   0   4   0  357.47    6.94   2
   0   4   0  344.79    6.92   1
  -1   4   0   -0.84    0.49   1
  -1   4   0    0.66    0.47   2
  -1  -4   0    0.38    0.51   4
   1   4   0   -0.12    0.49   2
   1  -4   0   -0.13    0.52   4
   1  -4   0    0.05    0.46   3
  -1  -4   0   -0.47    0.49   3
   1   4   0   -0.60    0.46   1
   2   4   0    4.71    0.84   2
   2  -4   0    5.31    0.88   4
  -2   4   0    6.01    0.64   2
  -2   4   0    5.20    0.83   1
   2   4   0    5.42    0.74   1
  -2  -4   0    4.26    0.70   4
  -2  -4   0    6.50    0.89   3
   2  -4   0    6.55    0.72   3
  -3   4   0    3.67    0.90   1
   3  -4   0    4.35    0.95   4
  -3  -4   0    4.17    0.95   3
   3   4   0    4.70    0.94   2
   3   4   0    3.33    0.74   1
   3  -4   0    3.50    0.74   3
  -3   4   0    3.96    0.67   2
  -3  -4   0    3.60    0.72   4
  -4   4   0   10.68    1.03   2
  -4   4   0   11.75    1.33   1
   4   4   0    9.78    1.27   2
   4  -4   0   10.55    1.32   4
  -4  -4   0   13.09    1.36   3
   5   4   0    3.11    1.16   2
   5  -4   0    2.86    1.10   4
  -5   4   0    2.54    1.14   1
  -5  -4   0    2.72    1.23   3
   6  -4   0    5.48    1.46   4
  -6  -4   0   12.74    1.85   3
  -6   4   0    7.48    1.51   1
   6   4   0   11.70    1.72   2
   0   5   0   -0.51    0.55   2
   0  -5   0    0.49    0.67   4
   0   5   0    0.06    0.64   1
   0  -5   0   -0.09    0.54   3
   1  -5   0   19.96    1.21   3
  -1   5   0   19.01    1.36   1
   1   5   0   16.06    1.20   2
   1  -5   0   18.91    1.42   4
  -1   5   0   21.82    1.18   2
  -1  -5   0   18.32    1.30   3
   1   5   0   17.50    1.22   1
  -1  -5   0   19.39    1.30   4
   2  -5   0   27.19    1.65   4
  -2  -5   0   24.66    1.60   3
  -2   5   0   28.61    1.65   1
   2   5   0   28.12    1.63   2
   2   5   0   28.33    1.49   1
  -2   5   0   26.35    1.29   2
  -2  -5   0   25.71    1.40   4
   3   5   0   50.01    2.00   1
  -3  -5   0   56.38    2.39   3
  -3  -5   0   53.20    1.90   4
  -3   5   0   49.71    2.24   1
   3  -5   0   52.24    2.33   4
  -4   5   0    0.07    0.90   1
   4   5   0    0.16    0.98   2
  -4  -5   0    0.65    1.05   3
   4  -5   0    0.15    0.92   4
   5   5   0    4.66    1.31   2
   5  -5   0    3.14    1.26   4
  -5  -5   0    4.68    1.46   3
  -5   5   0    4.41    1.32   1
  -6  -5   0   10.23    1.90   3
   6   5   0    9.40    1.77   2
   6  -5   0    6.80    1.60   4
  -6   5   0    4.60    1.57   1
   0  -6   0   19.23    1.37   3
   0  -6   0   20.04    1.55   4
   0   6   0   19.63    1.48   1
   0   6   0   21.07    1.38   2
  -1  -6   0    6.44    1.04   4
  -1   6   0    5.87    1.12   1
   1   6   0    6.73    1.03   1
   1   6   0    6.62    1.06   2
   1  -6   0    6.70    1.20   4
  -1  -6   0    7.30    1.03   3
   2   6   0   15.63    1.30   1
  -2  -6   0   16.23    1.34   4
  -2  -6   0   11.91    1.34   3
   2   6   0   12.39    1.37   2
  -2   6   0   14.35    1.49   1
   2  -6   0   17.32    1.59   4
  -3  -6   0    6.94    1.34   3
  -3   6   0    6.67    1.28   1
   3   6   0    8.91    1.35   2
   3  -6   0    5.47    1.28   4
   4   6   0   -0.61    1.05   2
  -4  -6   0   -0.41    1.14   3
  -4   6   0    1.55    1.09   1
   4  -6   0    0.08    1.13   4
  -5  -6   0    2.43    1.49   3
   5  -6   0    2.11    1.32   4
   5   6   0    0.98    1.26   2
  -5   6   0    0.54    1.36   1
   0   7   0    0.14    0.88   1
   0  -7   0   -1.29    0.91   4
  -1   7   0    4.78    1.19   1
   1   7   0    4.72    1.17   2
   1  -7   0    5.16    1.21   4
  -1  -7   0    4.17    1.09   3
   1   7   0    4.11    1.10   1
  -1  -7   0    6.14    1.15   4
  -2   7   0   29.37    2.00   1
   2  -7   0   28.74    2.14   4
  -2  -7   0   30.09    2.11   3
   2   7   0   30.14    2.02   2
   3  -7   0    4.20    1.37   4
   3   7   0    3.80    1.31   2
  -3  -7   0    3.99    1.40   3
  -3   7   0    3.35    1.26   1
   4  -7   0    2.56    1.41   4
  -4   7   0    6.31    1.58   1
  -4  -7   0    5.01    1.53   3
   4   7   0    5.80    1.45   2
   0  -8   0    1.17    1.24   4
   0   8   0    0.48    1.16   1
   1   8   0   -0.75    1.12   1
  -1  -8   0    1.83    1.22   4
  -1   8   0    0.98    1.20   1
   1  -8   0   -0.17    1.19   4
  -2   8   0   -0.54    1.22   1
   2  -8   0   -0.10    1.25   4
  -3   8   0    1.96    1.44   1
  -3  -8   0    2.74    1.50   3
   3  -8   0    1.71    1.46   4
   3   8   0    3.31    1.49   2
   0  -9   0    0.55    1.47   4
   0   9   0    1.02    1.47   1
  -7   0   1   -0.63    1.37   3
   7   0  -1    0.53    1.27   2
   6   0  -1    1.30    0.98   2
  -6   0   1   -0.01    1.10   3
  -5   0   1    0.82    0.75   4
   5   0  -1    0.50    0.64   1
  -5   0   1   -0.48    0.80   3
  -5   0   1   -0.93    0.76   2
   5   0  -1   -0.41    0.61   5
   4   0  -1    0.73    0.57   5
   4   0  -1    0.45    0.50   1
  -4   0   1    0.19    0.57   4
  -4   0   1    0.16    0.61   3
  -4   0   1    0.32    0.63   2
  -3   0   1   -0.39    0.44   2
  -3   0   1    0.43    0.48   3
  -3   0   1   -0.16    0.40   1
  -3   0   1   -0.26    0.43   4
  -2   0   1    0.65    0.36   2
  -2   0   1    0.01    0.30   1
  -2   0   1    0.19    0.36   3
  -2   0   1   -0.13    0.31   4
  -1   0   1    0.56    0.24   4
  -1   0   1    0.62    0.25   2
  -1   0   1    0.74    0.20   1
  -1   0   1    0.38    0.24   3
   0   0  -1    0.00    0.04   3
   0   0   1    0.00    0.04   4
   0   0   1   -0.03    0.04   1
   0   0  -1    0.02    0.04   2
  -2   0  -1    0.15    0.32   3
  -2   0  -1   -0.48    0.32   2
  -2   0  -1   -0.23    0.30   1
  -2   0  -1    0.35    0.29   4
   3   0   1    0.04    0.42   5
  -3   0  -1   -0.09    0.46   2
   3   0   1   -0.86    0.36   1
  -3   0  -1    0.21    0.46   3
  -3   0  -1   -0.04    0.39   4
  -4   0  -1   -0.11    0.58   3
   4   0   1    0.23    0.51   1
   4   0   1   -0.03    0.54   5
  -4   0  -1   -0.29    0.52   4
  -4   0  -1    0.10    0.60   2
  -5   0  -1   -0.24    0.80   2
  -5   0  -1    0.44    0.81   3
   5   0   1    1.16    0.72   1
  -5   0  -1    0.54    0.72   4
   5   0   1    0.14    0.72   5
  -6   0  -1    0.54    1.15   2
  -6   0  -1    0.98    1.14   3
  -7   0  -1    2.75    1.39   3
   7   0   1    1.34    1.30   2
  -7   1   1   -1.47    1.34   3
   7   1  -1   -1.76    1.24   2
   7  -1  -1    1.03    1.29   2
  -7  -1   1    0.19    1.39   3
  -6   1   1   13.14    1.54   3
  -6   1   1   12.30    1.35   4
   6   1  -1   12.50    1.51   2
  -6  -1   1   12.05    1.55   3
  -5  -1   1    0.52    0.72   4
  -5  -1   1   -1.46    0.79   3
  -5   1   1   -0.47    0.78   2
  -5   1   1    1.54    0.88   3
  -5   1   1   -0.51    0.74   1
   5   1  -1   -0.24    0.77   2
  -5   1   1    0.75    0.82   4
  -4   1   1    1.03    0.66   2
  -4   1   1    0.19    0.57   1
  -4   1   1    1.71    0.67   3
  -4   1   1    0.54    0.63   4
   4   1  -1    0.73    0.53   1
  -4  -1   1    0.60    0.70   3
  -4  -1   1    0.58    0.54   4
   4   1  -1    1.48    0.69   2
   3   1  -1   21.01    1.18   2
  -3   1   1   24.71    1.22   3
  -3   1   1   22.21    1.18   4
  -3   1   1   21.68    1.07   1
  -3   1   1   23.72    1.16   2
  -3  -1   1   22.20    1.24   3
   3   1  -1   23.38    0.95   1
  -3  -1   1   23.23    1.04   4
  -2   1   1  681.14   12.95   3
  -2   1   1  699.75   12.78   2
  -2  -1   1  684.45   13.05   3
  -2   1   1  710.21   12.45   1
   2   1  -1  692.34   12.24   1
   2   1  -1  686.57   12.93   2
  -2   1   1  698.46   13.19   4
  -2  -1   1  679.10   13.01   4
   1  -1  -1  521.28    9.70   3
  -1   1   1  516.42    9.54   2
  -1   1   1  519.17    9.88   4
  -1   1   1  525.81    9.33   1
   1   1  -1  519.17    9.66   2
  -1  -1   1  521.77    9.75   3
  -1  -1   1  523.89    9.79   4
   1   1  -1  515.49    9.21   1
   0  -1   1  544.85   10.16   3
   0   1  -1  543.68   10.04   2
   0  -1  -1  549.98   10.15   3
   0   1   1  551.40    9.72   1
   0   1   1  551.73   10.26   4
   0   1   1  546.11   10.09   2
   0   1  -1  549.23    9.70   1
   0  -1   1  548.22   10.28   4
   1   1   1 1290.01   22.04   1
  -1   1  -1 1253.90   23.07   3
  -1  -1  -1 1281.68   22.86   2
  -1   1  -1 1262.78   22.82   2
   1  -1   1 1251.86   23.33   4
  -1  -1  -1 1244.74   23.47   4
  -1   1  -1 1258.10   22.09   1
  -1  -1  -1 1247.63   23.08   3
  -2  -1  -1  130.56    2.72   4
  -2   1  -1  134.98    2.86   3
  -2   1  -1  129.33    2.92   2
  -2  -1  -1  133.37    3.03   3
   2   1   1  136.80    2.76   1
  -2   1  -1  134.82    2.91   1
  -2  -1  -1  129.71    3.02   2
  -2   1  -1  134.82    3.01   4
  -3  -1  -1  113.13    2.91   2
   3   1   1  113.96    2.59   1
  -3  -1  -1  112.29    2.88   3
  -3  -1  -1  112.85    2.56   4
  -3   1  -1  114.26    2.74   1
  -3   1  -1  112.41    2.73   3
  -3   1  -1  111.68    2.78   2
  -3   1  -1  111.15    2.80   4
  -4   1  -1  158.04    3.98   2
  -4   1  -1  164.69    3.90   1
  -4  -1  -1  164.88    4.12   3
  -4  -1  -1  165.22    4.15   2
  -4   1  -1  169.46    4.01   4
  -4   1  -1  170.39    3.99   3
   4   1   1  166.26    3.72   1
  -4  -1  -1  170.85    3.75   4
  -5   1  -1  267.15    6.12   4
   5   1   1  267.48    5.75   1
  -5   1  -1  267.46    6.21   2
  -5  -1  -1  273.42    6.36   2
  -5   1  -1  270.62    5.94   1
  -5   1  -1  270.59    6.15   3
   6  -1   1   17.85    1.68   5
   6   1   1   20.06    1.73   2
  -6   1  -1   20.58    1.62   4
  -6  -1  -1   17.04    1.68   3
  -6   1  -1   12.77    1.62   3
  -6   1  -1   16.03    1.64   2
   6  -1   1   16.22    1.47   1
  -7   1  -1    0.11    1.35   3
   7   1   1   -0.36    1.25   2
  -7  -1  -1    2.25    1.52   3
  -7  -2   1    0.38    1.38   3
   7   2  -1   -1.37    1.30   2
   6   2  -1   -1.75    0.98   2
  -6   2   1    0.83    1.06   1
  -6   2   1   -1.26    1.06   4
  -6   2   1    1.12    1.03   2
  -6   2   1   -0.96    1.03   3
  -6  -2   1   -0.32    1.09   3
  -5  -2   1   88.67    3.06   3
  -5   2   1   82.91    2.89   4
  -5   2   1   89.28    2.82   2
   5   2  -1   85.83    3.00   2
  -5   2   1   76.36    2.73   3
  -5   2   1   82.94    2.72   1
  -4   2   1  490.88    9.83   2
  -4  -2   1  498.32   10.26   3
  -4  -2   1  491.74    9.85   4
  -4   2   1  498.90    9.76   1
  -4   2   1  500.65    9.97   3
   4   2  -1  494.83   10.18   2
   4   2  -1  492.62    9.28   1
  -4   2   1  508.08   10.31   4
  -3  -2   1    5.31    0.61   4
   3   2  -1    4.49    0.54   1
   3  -2  -1    4.27    0.63   3
  -3   2   1    2.26    0.61   1
  -3  -2   1    3.59    0.71   3
  -3   2   1    3.29    0.58   2
  -3   2   1    3.63    0.71   4
   3   2  -1    3.38    0.68   2
   2   2  -1    1.24    0.48   2
   2  -2  -1    2.51    0.45   3
  -2  -2   1    0.81    0.49   3
  -2   2   1    1.95    0.51   4
  -2   2   1    2.07    0.38   2
  -2   2   1    1.41    0.47   1
   2   2  -1    1.49    0.36   1
  -2  -2   1    1.52    0.42   4
   1   2  -1  511.19    9.17   1
  -1   2   1  507.19    9.36   1
  -1  -2   1  506.22    9.70   3
  -1  -2   1  513.14    9.74   4
  -1   2   1  521.59    9.40   2
   1  -2  -1  499.88    9.61   3
   1   2  -1  516.44    9.65   2
  -1   2   1  508.32    9.89   4
   0  -2   1  733.87   13.42   4
   0  -2   1  699.81   13.12   3
   0   2   1  706.32   12.97   2
   0  -2  -1  707.77   13.35   4
   0   2  -1  711.82   12.65   1
   0  -2  -1  704.98   13.19   3
   0   2  -1  717.34   13.06   2
   0   2   1  695.26   12.67   1
   1  -2   1 1062.99   19.73   4
  -1   2  -1 1035.73   19.14   2
  -1  -2  -1 1039.69   19.50   4
   1   2   1 1028.82   18.55   1
   1  -2   1 1057.94   19.26   3
   1   2   1 1074.72   19.23   2
  -1   2  -1 1054.39   18.66   1
  -1  -2  -1 1062.47   19.48   3
   2   2   1  769.47   13.89   1
  -2   2  -1  775.09   14.12   1
   2  -2   1  762.01   14.40   3
  -2  -2  -1  787.96   14.74   3
   2  -2   1  779.70   14.88   4
  -2  -2  -1  780.75   14.51   4
  -2   2  -1  767.80   14.37   2
   2   2   1  789.90   14.58   2
  -3  -2  -1   25.22    1.00   4
  -3   2  -1   23.85    1.25   1
  -3   2  -1   27.18    1.21   3
   3   2   1   27.68    1.37   2
  -3   2  -1   25.88    1.35   4
  -3  -2  -1   27.78    1.44   3
   3   2   1   27.34    1.14   1
  -3   2  -1   28.27    1.26   2
   4   2   1    7.14    0.82   1
  -4   2  -1    5.33    0.96   4
  -4   2  -1    7.10    0.91   2
  -4  -2  -1    7.94    0.73   4
  -4   2  -1    7.05    0.85   3
  -4  -2  -1    7.61    1.02   3
  -4   2  -1    5.07    0.90   1
   4   2   1    5.83    0.99   2
  -5   2  -1   43.55    2.01   1
  -5   2  -1   42.75    1.95   3
  -5  -2  -1   45.69    2.22   3
  -5   2  -1   42.83    2.13   4
  -5   2  -1   43.53    2.00   2
   5   2   1   43.05    2.16   2
  -6   2  -1    0.56    1.03   3
   6   2   1   -0.62    1.07   2
  -6   2  -1    0.81    1.04   1
  -6   2  -1    1.98    1.06   2
  -6  -2  -1    1.89    1.23   3
  -7  -2  -1    3.26    1.61   3
   7   2   1    6.30    1.60   2
  -7   2  -1    4.60    1.55   2
   7   3  -1    0.21    1.41   2
  -7   3   1    1.51    1.43   1
  -7  -3   1    2.37    1.70   3
   6   3  -1    0.92    1.19   2
  -6   3   1    2.30    1.17   1
  -6  -3   1    0.66    1.24   3
   6  -3  -1    0.36    1.12   4
  -5  -3   1   -0.33    0.93   3
   5   3  -1    0.50    0.87   2
  -5   3   1    0.51    0.80   2
  -5   3   1   -0.17    0.86   1
  -5   3   1    0.04    0.94   4
  -4   3   1   31.46    1.43   2
  -4  -3   1   33.07    1.46   4
  -4   3   1   29.16    1.66   1
  -4   3   1   32.89    1.87   4
   4   3  -1   33.18    1.78   2
  -4  -3   1   32.23    1.79   3
   4  -3  -1   27.04    1.62   3
   3   3  -1   12.18    1.09   2
  -3  -3   1   13.17    1.12   3
   3   3  -1   13.43    0.87   1
  -3   3   1   15.13    1.22   4
  -3   3   1   13.86    0.96   2
  -3  -3   1   14.54    0.93   4
  -3   3   1   11.30    1.06   1
   3  -3  -1   14.17    0.97   3
  -2   3   1   10.91    0.92   1
  -2   3   1   10.40    0.73   2
   2   3  -1    9.41    0.87   2
  -2  -3   1    9.65    0.78   4
   2  -3  -1   10.76    0.96   4
  -2  -3   1   10.05    0.90   3
   2   3  -1   10.41    0.73   1
   2  -3  -1   12.08    0.82   3
  -1   3   1  385.34    7.34   1
   1  -3  -1  377.69    7.39   3
   1   3  -1  375.38    7.11   1
  -1  -3   1  373.61    7.49   3
   1  -3  -1  379.19    7.71   4
   1   3  -1  384.69    7.48   2
  -1  -3   1  378.85    7.55   4
  -1   3   1  375.87    7.16   2
   0   3   1   76.00    1.99   1
   0  -3  -1   74.97    2.03   4
   0  -3   1   78.74    2.10   4
   0   3  -1   72.22    1.92   2
   0  -3  -1   71.88    1.96   3
   0  -3   1   73.25    1.92   3
   0   3  -1   74.50    1.94   1
   0   3   1   73.52    1.82   2
   1   3   1   15.30    0.87   1
   1  -3   1   12.49    0.93   4
  -1   3  -1   13.35    0.92   2
   1  -3   1   13.24    0.77   3
  -1   3  -1   12.51    0.88   1
  -1  -3  -1   12.77    0.87   4
  -1  -3  -1   13.53    0.89   3
   1   3   1   12.78    0.92   2
   2  -3   1   12.55    0.87   3
  -2   3  -1   13.56    0.87   2
   2  -3   1   13.52    1.02   4
  -2  -3  -1   14.65    0.91   4
   2   3   1   14.22    0.97   2
   2   3   1   14.91    0.90   1
  -2   3  -1   14.07    1.02   1
  -2  -3  -1   13.13    1.00   3
   3   3   1    1.97    0.60   1
  -3   3  -1    2.20    0.57   2
  -3  -3  -1    1.20    0.69   3
   3  -3   1    2.21    0.72   4
   3   3   1    1.79    0.66   2
  -3   3  -1    2.56    0.72   1
  -3  -3  -1    3.04    0.52   4
   3  -3   1    2.56    0.56   3
   4  -3   1   10.62    0.99   3
  -4   3  -1   11.39    1.21   1
   4  -3   1   11.38    1.19   4
  -4  -3  -1   11.71    1.23   3
   4   3   1    9.16    0.98   1
  -4   3  -1   11.32    1.04   2
   4   3   1   11.11    1.20   2
  -5  -3  -1   16.48    1.62   3
   5   3   1   16.27    1.56   2
  -5   3  -1   16.09    1.33   2
  -5   3  -1   14.53    1.46   1
   5  -3   1   16.83    1.52   4
   6  -3   1    4.46    1.17   4
  -6   3  -1    4.24    1.28   1
   6   3   1    2.68    1.24   2
  -6   3  -1    3.04    1.15   2
  -6  -3  -1    3.65    1.41   3
   7   3   1    3.50    1.56   2
  -7   3  -1    5.41    1.55   1
  -7  -3  -1    4.32    1.74   3
   6   4  -1    4.46    1.41   2
  -6  -4   1    1.52    1.48   3
  -6   4   1    2.19    1.29   1
   6  -4  -1    1.61    1.26   4
  -5  -4   1    2.23    1.11   3
  -5   4   1   -1.07    1.00   1
   5   4  -1    0.67    1.06   2
   5  -4  -1    1.08    0.99   4
  -4   4   1    8.40    1.16   1
  -4  -4   1    9.71    1.31   3
   4   4  -1    9.12    1.23   2
   4  -4  -1    6.84    1.13   4
   3   4  -1   94.65    3.00   2
  -3  -4   1   93.89    2.63   4
  -3  -4   1  103.30    3.10   3
   3   4  -1   95.14    2.56   1
  -3   4   1   99.76    2.56   2
   3  -4  -1   98.65    3.09   4
   3  -4  -1   94.78    2.75   3
  -3   4   1   96.79    2.94   1
  -2  -4   1   29.80    1.54   3
   2   4  -1   29.57    1.34   1
  -2   4   1   33.28    1.57   1
  -2  -4   1   29.33    1.31   4
   2   4  -1   30.34    1.55   2
   2  -4  -1   29.39    1.58   4
  -2   4   1   30.16    1.14   2
   2  -4  -1   31.40    1.44   3
  -1   4   1    3.48    0.69   1
   1  -4  -1    2.09    0.65   4
   1   4  -1    3.15    0.62   1
  -1   4   1    2.91    0.54   2
   1   4  -1    2.05    0.62   2
  -1  -4   1    2.66    0.60   3
   1  -4  -1    2.80    0.60   3
  -1  -4   1    3.46    0.64   4
   0  -4  -1   54.66    1.87   3
   0   4  -1   56.41    1.82   1
   0   4   1   58.68    1.70   2
   0   4   1   56.40    1.83   1
   0  -4   1   54.56    1.73   3
   0   4  -1   55.53    1.79   2
   0  -4   1   56.22    1.94   4
   0  -4  -1   56.75    1.92   4
   1   4   1    4.82    0.70   1
   1   4   1    4.60    0.68   2
   1  -4   1    4.83    0.60   3
   1  -4   1    3.87    0.72   4
  -1   4  -1    3.45    0.70   1
  -1  -4  -1    4.60    0.72   3
  -1  -4  -1    5.03    0.67   4
  -1   4  -1    4.75    0.68   2
   2   4   1   21.75    1.24   1
   2  -4   1   19.87    1.32   4
   2   4   1   19.42    1.27   2
  -2   4  -1   18.72    1.29   1
   2  -4   1   19.74    1.08   3
  -2   4  -1   20.67    1.10   2
  -2  -4  -1   19.61    1.34   3
  -2  -4  -1   19.66    1.09   4
   3   4   1    5.27    0.82   1
  -3   4  -1    5.57    0.76   2
   3  -4   1    4.29    0.91   4
  -3  -4  -1    3.90    0.69   4
  -3   4  -1    3.92    0.94   1
   3   4   1    5.32    0.95   2
  -3  -4  -1    5.47    0.98   3
   4   4   1    2.82    0.90   2
   4  -4   1    3.61    1.01   4
  -4   4  -1    2.53    0.79   2
  -4  -4  -1    2.71    0.97   3
  -4   4  -1    3.45    0.95   1
  -5  -4  -1    2.93    1.24   3
  -5   4  -1    0.78    1.05   1
   5  -4   1    5.87    1.22   4
   5   4   1    3.23    1.17   2
   6   4   1    1.34    1.32   2
  -6   4  -1    2.58    1.32   1
  -6  -4  -1    5.03    1.56   3
   6  -4   1    3.49    1.31   4
   6   5  -1   25.13    2.39   2
  -6   5   1   24.13    2.19   1
   6  -5  -1   24.44    2.23   4
  -6  -5   1   30.58    2.58   3
  -5   5   1    6.20    1.35   1
   5   5  -1    5.43    1.46   2
  -5  -5   1    8.15    1.55   3
   5  -5  -1    6.48    1.42   4
   4  -5  -1    4.09    1.18   4
  -4  -5   1    4.07    1.19   3
  -4   5   1    4.50    1.12   1
   4   5  -1    5.12    1.21   2
  -3  -5   1    8.80    1.22   3
   3   5  -1    7.18    1.14   2
  -3   5   1    9.09    1.21   1
  -3  -5   1    7.53    1.01   4
   3  -5  -1    7.91    1.18   4
   2  -5  -1   15.48    1.16   3
  -2  -5   1   17.48    1.25   4
   2   5  -1   19.66    1.24   1
  -2   5   1   18.08    1.41   1
   2  -5  -1   16.53    1.42   4
   2   5  -1   16.45    1.35   2
  -2  -5   1   16.82    1.32   3
   1  -5  -1    2.19    0.78   4
   1  -5  -1    2.15    0.69   3
  -1   5   1    0.73    0.76   1
  -1  -5   1    1.41    0.68   3
  -1  -5   1    2.50    0.75   4
   1   5  -1    1.23    0.63   1
  -1   5   1    1.34    0.61   2
   1   5  -1    1.74    0.75   2
   0   5   1    5.51    0.88   1
   0   5   1    5.23    0.79   2
   0   5  -1    7.59    0.89   2
   0  -5  -1    4.53    0.87   4
   0  -5   1    6.72    0.81   3
   0   5  -1    3.83    0.81   1
   0  -5   1    5.87    0.90   4
   0  -5  -1    6.10    0.85   3
   1   5   1    4.86    0.85   2
  -1  -5  -1    5.71    0.87   4
   1  -5   1    6.48    0.83   3
   1   5   1    7.22    0.93   1
   1  -5   1    6.97    1.03   4
  -1   5  -1    7.36    0.98   1
  -1  -5  -1    7.17    0.93   3
  -1   5  -1    7.40    0.91   2
   2   5   1    8.63    1.00   1
   2   5   1    7.16    0.99   2
  -2  -5  -1    8.91    0.93   4
  -2   5  -1    7.72    0.84   2
  -2   5  -1    7.65    1.10   1
  -2  -5  -1    7.22    1.05   3
   2  -5   1    8.29    1.13   4
   3   5   1   10.48    1.23   2
   3   5   1   11.23    1.11   1
  -3  -5  -1    7.97    1.20   3
  -3   5  -1   11.89    1.29   1
   3  -5   1   11.89    1.32   4
  -4   5  -1   22.88    1.80   1
   4   5   1   22.11    1.77   2
   4  -5   1   24.32    1.88   4
  -4  -5  -1   25.65    1.94   3
   5  -5   1    2.96    1.31   4
   5   5   1    3.22    1.31   2
  -5  -5  -1    7.29    1.56   3
  -5   5  -1    4.43    1.33   1
   6  -5   1   -0.96    1.24   4
  -6   5  -1    1.11    1.34   1
   6   5   1    3.67    1.50   2
  -6  -5  -1   -0.28    1.58   3
   5   6  -1    4.02    1.45   2
   5  -6  -1    2.30    1.40   4
  -5   6   1    5.19    1.50   1
  -5  -6   1    4.03    1.59   3
  -4   6   1    6.70    1.43   1
   4   6  -1    7.69    1.40   2
  -4  -6   1   10.00    1.56   3
   4  -6  -1    7.10    1.41   4
   3  -6  -1    1.31    0.99   4
  -3  -6   1    0.80    0.98   3
   3   6  -1   -1.41    0.91   2
  -3   6   1    0.95    0.99   1
   2   6  -1   24.18    1.48   1
   2   6  -1   25.26    1.72   2
  -2  -6   1   23.00    1.55   4
  -2  -6   1   26.08    1.77   3
   2  -6  -1   22.93    1.68   4
  -2   6   1   26.63    1.77   1
  -1  -6   1   28.59    1.64   3
   1   6  -1   23.89    1.61   2
   1  -6  -1   24.63    1.79   4
  -1  -6   1   24.71    1.61   4
  -1   6   1   24.40    1.74   1
   1   6  -1   22.67    1.47   1
   0  -6  -1   -0.22    0.80   4
   0  -6  -1   -0.19    0.77   3
   0   6  -1    0.07    0.76   1
   0   6  -1    1.00    0.79   2
   0   6   1    0.19    0.73   2
   0  -6   1    0.85    0.69   3
   0  -6   1   -0.23    0.85   4
   0   6   1    0.13    0.76   1
  -1  -6  -1   23.09    1.54   4
   1   6   1   21.05    1.47   1
  -1   6  -1   23.22    1.50   2
   1  -6   1   25.81    1.76   4
   1   6   1   24.58    1.56   2
  -1  -6  -1   23.28    1.59   3
  -1   6  -1   22.52    1.63   1
   2   6   1   27.81    1.74   2
  -2  -6  -1   28.15    1.83   3
  -2   6  -1   26.30    1.82   1
  -2  -6  -1   26.87    1.60   4
   2  -6   1   29.61    1.96   4
   2   6   1   25.30    1.57   1
  -3   6  -1    5.47    1.20   1
   3  -6   1    7.08    1.26   4
   3   6   1    6.81    1.26   2
  -3  -6  -1    6.10    1.27   3
   4   6   1    0.22    1.05   2
   4  -6   1    1.30    1.09   4
  -4  -6  -1    3.00    1.27   3
  -4   6  -1   -0.46    1.16   1
  -5   6  -1    0.49    1.40   1
  -5  -6  -1   -0.13    1.45   3
   5  -6   1    0.38    1.24   4
   5   6   1   -0.32    1.27   2
  -4  -7   1   -0.79    1.30   3
   4  -7  -1   -0.69    1.19   4
  -4   7   1   -1.02    1.28   1
   4   7  -1    1.23    1.33   2
   3   7  -1   -0.06    1.10   2
   3  -7  -1   -0.63    1.05   4
  -3   7   1    1.40    1.18   1
  -3  -7   1   -1.34    1.13   3
  -2  -7   1   33.88    1.97   4
   2  -7  -1   33.30    2.21   4
  -2  -7   1   37.96    2.21   3
  -2   7   1   32.12    2.05   1
   2   7  -1   36.52    2.20   2
   1   7  -1   69.95    2.66   2
   1   7  -1   59.97    2.47   1
  -1  -7   1   65.79    2.61   4
  -1   7   1   61.06    2.60   1
   1  -7  -1   57.86    2.67   4
   0   7   1    0.99    0.96   1
   0  -7  -1    0.96    1.01   4
   0  -7   1    1.68    1.07   4
   0   7  -1    2.80    1.01   1
  -1   7  -1    6.35    1.23   1
   1   7   1    4.21    1.14   1
   1  -7   1    4.72    1.24   4
  -1  -7  -1    5.10    1.15   4
  -1  -7  -1    6.47    1.17   3
   2   7   1   19.65    1.64   1
  -2  -7  -1   22.99    1.83   3
   2  -7   1   20.91    1.87   4
  -2   7  -1   18.11    1.78   1
   2   7   1   21.02    1.72   2
   3  -7   1    5.97    1.43   4
  -3   7  -1    1.23    1.19   1
   3   7   1    2.23    1.21   2
  -3  -7  -1    4.97    1.37   3
  -4  -7  -1    1.40    1.41   3
  -4   7  -1   -0.62    1.25   1
   4   7   1   -0.20    1.32   2
   4  -7   1    0.32    1.35   4
   3   8  -1   -1.67    1.39   2
  -3   8   1    1.19    1.36   1
   3  -8  -1    0.06    1.41   4
  -2   8   1    0.53    1.32   1
   2  -8  -1    0.02    1.21   4
   1   8  -1    1.17    1.18   1
   1  -8  -1    1.29    1.29   4
  -1  -8   1    1.21    1.22   4
  -1   8   1    1.66    1.25   1
   0  -8   1    1.82    1.22   4
   0   8  -1   -0.20    1.11   1
   0  -8  -1    0.46    1.19   4
   0   8   1    1.41    1.22   1
   1   8   1    0.76    1.24   1
  -1   8  -1    0.86    1.18   1
   1  -8   1    0.11    1.27   4
  -1  -8  -1    1.96    1.17   4
   2  -8   1    6.86    1.52   4
  -2   8  -1    7.41    1.60   1
  -3   8  -1    3.52    1.46   1
   3  -8   1    5.18    1.62   4
  -3  -8  -1    3.89    1.65   3
   0  -9  -1    3.16    1.56   4
   0   9   1    3.15    1.53   1
   0   9  -1    2.62    1.53   1
   0  -9   1    1.88    1.54   4
  -7   0   2    2.29    1.41   3
   7   0  -2   -0.11    1.26   2
   6   0  -2    3.81    1.14   2
  -6   0   2    2.04    1.01   4
  -6   0   2   -0.02    1.07   3
  -5   0   2    1.81    0.92   3
  -5   0   2    2.65    0.86   4
   5   0  -2    2.91    0.90   2
   4   0  -2  197.93    4.57   2
  -4   0   2  196.76    4.54   4
  -4   0   2  193.95    4.65   3
  -3   0   2  702.18   13.77   3
  -3   0   2  722.84   12.94   1
  -3   0   2  720.93   13.60   2
  -3   0   2  732.48   13.85   4
  -2   0   2 1274.72   23.83   3
  -2   0   2 1305.49   24.06   4
  -2   0   2 1302.18   22.63   1
  -1   0   2  482.07    8.56   1
   1   0  -2  473.84    8.86   2
  -1   0   2  486.54    9.01   3
  -1   0   2  482.37    9.10   4
   0   0  -2  160.64    3.14   2
   0   0  -2  174.59    3.18   3
   0   0   2  165.90    3.03   1
   0   0   2  162.04    3.21   4
   1   0   2 2287.56   44.38   5
  -1   0  -2 2278.27   41.85   3
  -1   0  -2 2336.41   41.44   2
   1   0   2 2315.95   42.65   4
   2   0   2   41.73    1.35   5
  -2   0  -2   39.48    1.33   2
  -2   0  -2   40.01    1.26   3
   2   0   2   41.33    1.24   1
  -2   0  -2   43.40    1.18   4
  -3   0  -2   93.43    2.25   4
  -3   0  -2   89.63    2.37   3
   3   0   2   88.26    2.25   1
  -3   0  -2   89.84    2.46   2
   3   0   2   92.22    2.53   5
   4   0   2    0.83    0.61   5
  -4   0  -2   -0.30    0.57   3
  -4   0  -2   -0.34    0.56   2
   4   0   2    0.17    0.52   1
  -4   0  -2    1.11    0.54   4
   5   0   2   29.44    1.66   5
   5   0   2   33.51    1.66   1
  -5   0  -2   33.54    1.80   3
  -5   0  -2   34.92    1.61   4
  -5   0  -2   34.98    1.89   2
  -6   0  -2   27.01    1.94   3
  -6   0  -2   22.65    1.92   2
   7   0   2    1.48    1.30   2
  -7   0  -2   -0.58    1.39   3
  -7   1   2    1.28    1.35   3
  -7  -1   2   -0.48    1.37   3
   7   1  -2    0.19    1.30   2
  -6   1   2    0.46    1.02   3
  -6   1   2    2.53    1.03   4
   6   1  -2   -0.27    0.98   2
  -6  -1   2   -1.53    0.98   3
   6  -1  -2    0.47    0.94   2
  -5  -1   2   53.33    2.04   4
   5   1  -2   51.18    2.22   2
  -5   1   2   53.37    2.19   4
  -5   1   2   52.84    2.04   1
  -5   1   2   53.77    2.23   3
  -5   1   2   50.32    2.22   2
  -5  -1   2   50.61    2.29   3
   4   1  -2    7.39    0.71   1
  -4   1   2    7.36    0.82   1
  -4  -1   2    4.83    0.92   3
  -4   1   2    6.17    0.84   2
   4   1  -2    5.60    0.88   2
  -4   1   2    7.42    0.90   3
  -4   1   2    7.00    0.90   4
  -4  -1   2    5.32    0.77   4
  -3   1   2   88.27    2.30   2
   3   1  -2   87.92    2.01   1
  -3   1   2   89.29    2.42   3
  -3   1   2   90.81    2.27   1
   3   1  -2   88.65    2.43   2
  -3   1   2   89.92    2.47   4
  -3  -1   2   89.92    2.31   4
  -3  -1   2   91.57    2.51   3
  -2   1   2   19.11    0.86   1
  -2   1   2   18.35    0.83   2
  -2   1   2   18.81    0.97   4
  -2   1   2   18.93    0.98   3
  -2  -1   2   18.20    1.00   3
  -2  -1   2   20.18    0.88   4
   2   1  -2   18.89    0.69   1
   2   1  -2   18.16    0.93   2
  -1   1   2   18.48    0.76   1
   1   1  -2   19.10    0.83   2
   1  -1  -2   17.46    0.80   3
  -1  -1   2   16.91    0.76   4
  -1   1   2   16.97    0.80   4
  -1   1   2   16.80    0.58   2
  -1  -1   2   17.62    0.81   3
   0  -1  -2 4600.82   82.96   3
   0  -1  -2 4579.52   83.74   2
   0   1   2 4584.99   79.32   1
   0  -1   2 4540.67   83.86   4
   0   1  -2 4586.38   82.16   2
   0   1  -2 4623.30   79.54   1
   0   1   2 4644.33   84.11   4
   0  -1   2 4525.03   84.07   3
   1   1   2 7129.38  123.19   1
  -1   1  -2 7226.55  123.19   1
   1  -1   2 7084.17  130.25   4
  -1   1  -2 7229.64  127.58   2
  -1  -1  -2 7166.31  127.55   2
  -1  -1  -2 6996.90  128.78   3
  -2  -1  -2  101.25    2.56   3
   2   1   2  106.45    2.33   1
   2  -1   2  104.62    2.53   4
  -2   1  -2  104.93    2.33   3
  -2  -1  -2  103.21    2.54   2
  -2   1  -2  106.69    2.45   1
  -2   1  -2  106.49    2.48   2
  -3  -1  -2    7.05    0.78   3
  -3  -1  -2    6.52    0.78   2
  -3   1  -2    7.46    0.68   3
   3   1   2    7.57    0.68   1
  -3   1  -2    6.66    0.73   1
  -3  -1  -2    8.00    0.56   4
  -3   1  -2    7.34    0.75   4
  -3   1  -2    7.06    0.77   2
  -4  -1  -2   46.75    1.94   2
  -4  -1  -2   43.97    1.51   4
  -4  -1  -2   44.27    1.86   3
  -4   1  -2   42.67    1.76   3
  -4   1  -2   47.89    1.87   2
  -4   1  -2   43.61    1.81   4
  -4   1  -2   47.83    1.84   1
   4   1   2   47.29    1.68   1
  -5  -1  -2   60.05    2.48   2
  -5   1  -2   58.68    2.37   2
  -5   1  -2   57.98    2.32   4
  -5  -1  -2   62.42    2.47   3
  -5   1  -2   59.76    2.30   3
   5   1   2   62.98    2.21   1
   6  -1   2   58.94    2.45   1
  -6   1  -2   51.39    2.54   2
  -6   1  -2   58.15    2.59   3
   6  -1   2   54.91    2.56   5
   6   1   2   59.61    2.67   2
  -6  -1  -2   60.89    2.71   3
  -7   1  -2    7.41    1.61   3
  -7   1  -2    8.57    1.71   2
   7   1   2    7.04    1.57   2
  -7  -1  -2    8.12    1.66   3
   7   2  -2   10.84    1.79   2
  -7  -2   2   12.12    1.94   3
  -6  -2   2    2.79    1.24   3
   6  -2  -2    1.52    1.03   3
   6   2  -2    1.97    1.10   2
  -6   2   2    1.95    1.06   1
  -6   2   2    2.41    1.12   4
  -5   2   2    8.25    1.14   1
  -5  -2   2    9.56    1.01   4
  -5   2   2   10.00    1.24   4
  -5  -2   2    7.29    1.29   3
  -5   2   2    7.45    1.08   2
  -5   2   2    9.78    1.23   3
   5   2  -2   10.12    1.33   2
  -4   2   2  107.87    2.88   2
  -4   2   2  106.88    3.16   4
  -4  -2   2  102.14    2.80   4
  -4   2   2  107.37    2.93   1
  -4  -2   2  107.85    3.21   3
   4   2  -2  102.73    3.11   2
   4  -2  -2  101.84    2.94   3
  -3   2   2    6.73    0.65   2
  -3   2   2    5.78    0.82   4
   3  -2  -2    6.64    0.74   3
   3   2  -2    7.80    0.84   2
  -3   2   2    8.04    0.81   1
  -3  -2   2    6.89    0.71   4
  -3  -2   2    6.82    0.85   3
   3   2  -2    7.88    0.59   1
  -2   2   2   39.49    1.48   4
  -2   2   2   37.76    1.35   1
   2  -2  -2   39.37    1.34   3
  -2   2   2   40.06    1.12   2
  -2  -2   2   39.39    1.44   3
  -2  -2   2   39.48    1.30   4
   2   2  -2   38.49    1.11   1
   2   2  -2   39.78    1.43   2
   1   2  -2    0.13    0.26   1
  -1  -2   2   -0.17    0.34   3
  -1  -2   2    0.28    0.36   4
  -1   2   2   -0.07    0.36   4
   1  -2  -2    0.35    0.34   3
  -1   2   2    0.15    0.37   1
   1   2  -2    0.19    0.36   2
   0  -2   2  128.64    2.87   4
   0   2   2  131.54    2.74   1
   0  -2  -2  127.45    2.80   3
   0   2   2  127.23    2.57   2
   0   2  -2  122.63    2.76   2
   0  -2  -2  131.57    2.81   4
   0   2  -2  129.11    2.66   1
   0  -2   2  126.71    2.63   3
  -1  -2  -2    7.82    0.48   4
  -1   2  -2    6.87    0.62   1
  -1   2  -2    7.62    0.58   2
   1  -2   2    6.67    0.65   4
  -1  -2  -2    7.67    0.65   3
   1   2   2    7.87    0.61   1
   1   2   2    7.70    0.58   2
   2   2   2   35.24    1.22   1
   2  -2   2   34.69    1.04   3
  -2   2  -2   34.39    1.33   1
  -2   2  -2   31.37    1.21   2
  -2  -2  -2   31.37    1.35   2
   2  -2   2   31.33    1.34   4
  -2  -2  -2   33.90    1.43   3
   3  -2   2  149.77    3.64   4
  -3  -2  -2  145.50    3.65   2
  -3   2  -2  149.29    3.55   1
  -3   2  -2  152.89    3.54   2
   3   2   2  149.71    3.33   1
  -3   2  -2  146.70    3.32   3
  -3  -2  -2  148.94    3.71   3
  -4   2  -2   30.04    1.44   3
   4   2   2   28.23    1.37   1
  -4   2  -2   28.87    1.52   1
  -4  -2  -2   30.04    1.67   3
   4   2   2   26.52    1.63   2
  -4   2  -2   28.77    1.51   2
   4  -2   2   25.52    1.54   4
  -5  -2  -2    4.75    1.09   3
  -5   2  -2    2.58    0.97   1
  -5   2  -2    3.55    0.93   3
   5   2   2    2.30    0.80   1
   5   2   2    4.18    1.13   2
   5  -2   2    3.06    0.92   4
  -5   2  -2    4.21    0.97   2
  -6   2  -2    2.10    1.10   2
  -6   2  -2    1.20    1.06   1
  -6  -2  -2    2.59    1.17   3
   6   2   2    0.48    1.07   2
  -7   2  -2    4.12    1.56   2
  -7  -2  -2    0.53    1.43   3
   7   2   2    0.56    1.33   2
   7   3  -2    2.10    1.56   2
  -7  -3   2    2.09    1.77   3
  -6   3   2    1.39    1.18   4
   6   3  -2   -1.01    1.09   2
  -6  -3   2   -0.25    1.18   3
  -6   3   2    1.15    1.13   1
   5  -3  -2    0.67    0.87   3
  -5   3   2    1.51    0.89   1
  -5   3   2    3.04    1.06   4
  -5  -3   2    2.06    1.11   3
   5   3  -2    0.89    0.96   2
   4  -3  -2   84.87    2.76   3
  -4   3   2   94.38    3.06   4
  -4  -3   2   88.84    2.57   4
  -4  -3   2   90.26    2.98   3
  -4   3   2   88.24    2.50   2
  -4   3   2   88.77    2.80   1
   4   3  -2   92.08    2.99   2
   3  -3  -2    8.62    0.86   3
   3   3  -2    9.68    0.72   1
  -3  -3   2    8.40    0.82   4
   3   3  -2    5.70    0.89   2
  -3  -3   2    9.11    0.98   3
  -3   3   2    7.77    1.03   4
  -3   3   2    9.56    0.72   2
  -3   3   2    6.85    0.91   1
  -2  -3   2   50.54    1.64   4
   2  -3  -2   49.70    1.61   3
   2   3  -2   49.48    1.44   1
   2   3  -2   49.07    1.77   2
  -2  -3   2   48.01    1.76   3
  -2   3   2   47.28    1.70   1
  -2   3   2   48.05    1.81   4
  -2   3   2   48.40    1.33   2
  -1  -3   2  335.58    6.71   3
   1   3  -2  333.14    6.34   1
  -1   3   2  328.75    6.31   2
   1   3  -2  332.38    6.74   2
   1  -3  -2  337.11    6.69   3
   1  -3  -2  338.95    6.93   4
  -1  -3   2  337.36    6.83   4
  -1   3   2  340.21    6.59   1
   0  -3  -2  179.57    3.93   4
   0   3   2  178.52    3.64   2
   0  -3  -2  180.45    3.91   3
   0   3  -2  181.46    3.76   1
   0   3   2  183.48    3.83   1
   0  -3   2  176.30    3.71   3
   0   3  -2  183.18    3.86   2
   0  -3   2  173.16    3.99   4
  -1  -3  -2  646.98   12.24   4
   1   3   2  656.91   12.10   2
  -1   3  -2  634.57   12.05   2
   1  -3   2  628.65   11.95   3
   1   3   2  649.26   11.80   1
  -1   3  -2  629.93   11.84   1
   1  -3   2  650.21   12.55   4
  -1  -3  -2  648.21   12.35   3
   2   3   2    0.81    0.49   1
   2  -3   2    1.57    0.39   3
   2  -3   2    0.54    0.55   4
   2   3   2    0.75    0.51   2
  -2   3  -2    1.85    0.48   2
  -2   3  -2    2.01    0.60   1
  -2  -3  -2    2.04    0.45   4
  -2  -3  -2    1.49    0.56   3
   3  -3   2    4.66    0.82   4
  -3   3  -2    3.09    0.64   2
   3   3   2    3.12    0.68   1
  -3   3  -2    3.26    0.76   1
  -3  -3  -2    4.07    0.51   4
   3   3   2    4.40    0.79   2
   3  -3   2    2.21    0.52   3
  -3  -3  -2    3.02    0.78   3
   4   3   2   10.08    1.17   2
  -4   3  -2   10.68    1.05   2
  -4   3  -2   10.90    1.16   1
  -4  -3  -2    8.76    1.13   3
   4   3   2   10.98    1.01   1
   4  -3   2    8.92    1.12   4
   5   3   2    8.32    1.22   2
   5  -3   2    8.81    1.23   4
  -5   3  -2    8.21    1.15   2
  -5  -3  -2    5.63    1.23   3
  -5   3  -2    8.87    1.29   1
  -6   3  -2    6.19    1.28   2
  -6  -3  -2    6.58    1.48   3
   6  -3   2    4.05    1.20   4
   6   3   2    6.88    1.43   2
  -6   3  -2    4.23    1.29   1
  -7  -3  -2    1.50    1.70   3
   7   3   2    2.43    1.46   2
  -7   3  -2    5.37    1.53   1
  -6   4   2   23.35    2.01   1
   6   4  -2   23.75    2.16   2
  -6  -4   2   26.66    2.34   3
   6  -4  -2   23.86    2.03   4
  -5   4   2   22.20    1.80   1
   5   4  -2   18.79    1.74   2
  -5  -4   2   20.21    1.81   3
   5  -4  -2   25.76    1.95   4
  -4   4   2   14.71    1.36   1
   4  -4  -2   14.60    1.50   4
  -4  -4   2   14.70    1.45   3
   4   4  -2   15.19    1.44   2
  -3  -4   2   29.50    1.47   4
   3   4  -2   32.93    1.79   2
  -3   4   2   30.16    1.70   1
   3  -4  -2   31.43    1.82   4
  -3  -4   2   32.71    1.79   3
   3  -4  -2   31.67    1.68   3
   2  -4  -2  125.33    3.46   4
  -2  -4   2  138.25    3.34   4
   2  -4  -2  124.44    3.15   3
  -2   4   2  120.49    2.73   2
   2   4  -2  124.32    2.95   1
  -2   4   2  120.46    3.27   1
  -2  -4   2  127.19    3.33   3
   2   4  -2  127.16    3.35   2
  -1  -4   2  128.86    3.28   4
   1   4  -2  134.47    3.30   2
  -1  -4   2  134.79    3.22   3
   1   4  -2  130.56    3.05   1
  -1   4   2  130.77    2.88   2
   1  -4  -2  130.43    3.19   3
   1  -4  -2  131.06    3.40   4
  -1   4   2  130.33    3.28   1
   0  -4   2    0.30    0.55   4
   0   4   2    0.62    0.55   1
   0   4  -2    0.32    0.50   1
   0   4  -2   -0.28    0.51   2
   0  -4  -2   -0.14    0.50   4
   0   4   2    0.06    0.45   2
   0  -4   2   -0.25    0.41   3
   0  -4  -2    0.86    0.54   3
  -1   4  -2    1.92    0.63   2
   1   4   2    2.45    0.58   2
   1   4   2    2.09    0.62   1
  -1   4  -2    2.46    0.65   1
  -1  -4  -2    2.80    0.67   3
  -1  -4  -2    2.57    0.58   4
   1  -4   2    2.51    0.73   4
   1  -4   2    2.27    0.50   3
   2   4   2   13.28    1.06   2
   2   4   2   13.71    1.05   1
  -2   4  -2   10.37    1.03   1
  -2   4  -2   12.57    0.91   2
   2  -4   2   13.43    0.81   3
  -2  -4  -2   12.45    1.10   3
   2  -4   2   12.91    1.14   4
  -2  -4  -2   13.86    0.95   4
  -3  -4  -2   96.99    3.01   3
   3   4   2   95.27    2.66   1
   3   4   2   89.51    2.84   2
   3  -4   2   90.91    2.94   4
  -3   4  -2   92.61    2.87   1
  -3   4  -2   85.77    2.53   2
   4  -4   2   -0.13    0.75   4
   4   4   2   -0.51    0.70   1
  -4  -4  -2   -0.93    0.82   3
   4   4   2    0.83    0.83   2
  -4   4  -2   -0.10    0.70   2
  -4   4  -2    1.53    0.88   1
  -5   4  -2    2.59    1.14   1
  -5  -4  -2    3.67    1.27   3
   5  -4   2    1.52    1.04   4
   5   4   2    3.33    1.14   2
   6   4   2    0.04    1.25   2
  -6   4  -2    0.08    1.27   1
  -6  -4  -2    1.14    1.44   3
   6  -4   2    1.47    1.18   4
  -6   5   2    3.56    1.51   1
  -6  -5   2    1.18    1.61   3
   6  -5  -2    1.39    1.39   4
   6   5  -2    5.45    1.71   2
   5   5  -2    0.77    1.17   2
  -5  -5   2    0.66    1.25   3
   5  -5  -2   -0.24    1.04   4
  -5   5   2    0.11    1.18   1
  -4   5   2    1.87    0.98   1
   4  -5  -2    1.75    1.02   4
  -4  -5   2    2.05    1.07   3
   4   5  -2    0.60    1.00   2
  -3  -5   2    0.86    0.74   4
  -3   5   2    1.52    0.93   1
   3   5  -2    1.26    0.88   2
   3  -5  -2    1.01    0.84   4
  -3  -5   2    0.58    0.81   3
  -2  -5   2    9.03    1.02   4
  -2   5   2   10.20    1.17   1
   2  -5  -2    8.41    1.15   4
   2   5  -2   12.26    1.22   2
   2  -5  -2   11.18    1.08   3
   2   5  -2   10.23    0.97   1
  -2  -5   2   11.49    1.17   3
   1   5  -2    1.01    0.72   2
  -1   5   2    0.94    0.54   2
   1   5  -2    0.23    0.57   1
   1  -5  -2    0.19    0.69   4
  -1   5   2   -0.49    0.65   1
  -1  -5   2    1.85    0.70   4
   1  -5  -2    0.59    0.64   3
  -1  -5   2    0.06    0.59   3
   0  -5  -2    2.80    0.78   3
   0  -5  -2    1.57    0.78   4
   0   5  -2    3.85    0.79   2
   0   5   2    1.49    0.66   2
   0   5  -2    3.06    0.78   1
   0   5   2    1.55    0.76   1
   0  -5   2    2.63    0.66   3
   0  -5   2    1.60    0.77   4
  -1   5  -2    8.34    0.97   2
  -1  -5  -2    8.60    1.04   3
   1   5   2   11.83    1.09   1
  -1  -5  -2    8.75    1.00   4
  -1   5  -2    8.57    1.04   1
   1   5   2    8.52    0.93   2
   1  -5   2   10.99    1.18   4
   2   5   2    3.06    0.82   2
  -2  -5  -2    4.48    0.94   3
   2   5   2    4.00    0.88   1
   2  -5   2    3.58    0.94   4
  -2   5  -2    3.94    0.74   2
  -2  -5  -2    3.26    0.74   4
  -2   5  -2    4.86    0.93   1
   3  -5   2    0.10    0.80   4
   3   5   2   -0.47    0.78   2
  -3   5  -2   -0.86    0.74   1
  -3   5  -2    1.50    0.70   2
  -3  -5  -2   -0.67    0.83   3
   3   5   2    0.10    0.75   1
  -4   5  -2    0.69    0.95   1
  -4  -5  -2   -0.33    0.98   3
   4  -5   2    0.79    0.96   4
   4   5   2    0.09    0.97   2
   5   5   2    5.37    1.36   2
  -5   5  -2    2.64    1.30   1
   5  -5   2    5.34    1.32   4
  -5  -5  -2    5.53    1.44   3
  -6  -5  -2    0.23    1.64   3
   6  -5   2   -1.30    1.23   4
  -6   5  -2    0.27    1.36   1
   6   5   2    2.71    1.44   2
   5  -6  -2   -0.91    1.19   4
   5   6  -2    0.90    1.38   2
  -5  -6   2    0.12    1.39   3
  -5   6   2   -0.85    1.24   1
   4   6  -2    0.67    1.19   2
   4  -6  -2   -0.93    1.03   4
  -4  -6   2    0.91    1.21   3
  -4   6   2    1.52    1.15   1
  -3  -6   2    0.86    1.01   3
   3   6  -2    1.06    0.99   2
  -3   6   2   -0.22    0.96   1
   3  -6  -2    0.75    0.96   4
   2   6  -2    0.57    0.80   1
  -2  -6   2    0.62    0.86   4
   2  -6  -2    0.84    0.91   4
  -2   6   2    0.56    0.91   1
   2   6  -2    0.79    0.90   2
  -2  -6   2    0.15    0.88   3
  -1  -6   2   80.76    2.71   3
   1  -6  -2   87.65    3.05   4
   1   6  -2   78.55    2.64   1
   1   6  -2   86.32    2.85   2
   1  -6  -2   89.85    2.90   3
  -1  -6   2   91.61    2.93   4
   0   6   2   34.08    1.79   1
   0  -6   2   31.83    1.87   4
   0   6  -2   36.47    1.80   1
   0  -6  -2   33.32    1.86   3
   0   6   2   35.71    1.65   2
   0  -6  -2   35.15    1.90   4
   0   6  -2   37.83    1.85   2
  -1   6  -2    2.05    0.80   2
   1  -6   2   -0.45    0.83   4
   1   6   2    2.85    0.89   1
   1   6   2    0.38    0.77   2
  -1  -6  -2    2.33    0.88   3
  -1   6  -2    0.76    0.84   1
  -1  -6  -2    1.81    0.78   4
   2   6   2    6.62    1.11   2
  -2   6  -2    8.28    1.24   1
   2   6   2    7.49    1.11   1
  -2  -6  -2    7.50    1.17   3
  -2  -6  -2    7.60    1.03   4
   2  -6   2    6.16    1.22   4
   3  -6   2    9.14    1.45   4
   3   6   2    7.47    1.21   1
  -3  -6  -2    7.72    1.35   3
  -3   6  -2    8.61    1.35   1
   3   6   2    8.08    1.25   2
   4  -6   2    3.80    1.23   4
   4   6   2    5.13    1.34   2
  -4  -6  -2    3.58    1.31   3
  -4   6  -2    3.01    1.25   1
  -5  -6  -2    0.43    1.44   3
   5  -6   2    0.12    1.19   4
  -5   6  -2    0.28    1.30   1
   5   6   2   -0.46    1.23   2
  -4  -7   2   11.96    1.86   3
  -4   7   2   10.72    1.75   1
   4  -7  -2   10.43    1.74   4
   4   7  -2   12.50    1.83   2
   3   7  -2    0.77    1.20   2
   3  -7  -2    0.99    1.20   4
  -3   7   2    0.71    1.17   1
  -3  -7   2    2.17    1.27   3
  -2  -7   2    1.06    1.09   3
   2   7  -2    3.29    1.20   2
  -2   7   2    1.19    1.13   1
   2  -7  -2    2.66    1.21   4
  -2  -7   2    2.99    1.12   4
   1   7  -2   -0.16    1.06   2
   1  -7  -2    3.47    1.13   4
   1   7  -2    1.94    0.98   1
  -1  -7   2    0.78    1.01   4
  -1   7   2    1.55    1.01   1
   0  -7   2   -0.13    0.99   4
   0   7  -2    0.10    0.95   1
   0   7  -2    1.02    0.97   2
   0  -7  -2    0.01    0.95   4
   0   7   2    0.33    0.92   1
  -1  -7  -2   10.70    1.30   4
   1   7   2    9.86    1.34   1
  -1   7  -2   10.36    1.36   1
  -1  -7  -2   10.55    1.37   3
   1  -7   2    9.28    1.42   4
  -2   7  -2    2.45    1.19   1
   2   7   2    2.43    1.11   2
   2  -7   2    0.32    1.09   4
   2   7   2    3.14    1.10   1
  -2  -7  -2    2.08    1.14   3
   3  -7   2    1.72    1.21   4
  -3   7  -2    1.40    1.28   1
  -3  -7  -2    3.68    1.34   3
   3   7   2    0.24    1.16   2
   4  -7   2    2.21    1.39   4
  -4  -7  -2   -0.06    1.47   3
  -4   7  -2    1.21    1.39   1
   4   7   2    1.68    1.36   2
   3  -8  -2    6.45    1.68   4
   3   8  -2    2.10    1.57   2
  -3   8   2    4.29    1.50   1
   2   8  -2    3.89    1.47   2
   2  -8  -2    4.02    1.43   4
  -2   8   2    4.70    1.50   1
   1  -8  -2    0.65    1.23   4
  -1  -8   2   -0.16    1.19   4
  -1   8   2    1.26    1.22   1
   0   8   2    3.18    1.35   1
   0  -8  -2    1.43    1.23   4
   0  -8   2    4.39    1.34   4
   0   8  -2    2.30    1.23   1
  -1   8  -2    4.74    1.42   1
   1  -8   2    1.73    1.32   4
   1   8   2    3.54    1.27   1
  -2  -8  -2   12.82    1.75   3
   2  -8   2    5.59    1.55   4
  -2   8  -2    7.43    1.54   1
  -3  -8  -2   33.88    2.56   3
   3  -8   2   28.28    2.50   4
  -3   8  -2   27.98    2.40   1
   0  -9   2    4.50    1.58   4
   0   9  -2    5.91    1.67   1
   0   9   2    2.79    1.51   1
   0  -9  -2    1.74    1.55   4
  -7   0   3    2.46    1.41   3
   7   0  -3    1.60    1.23   2
  -6   0   3    0.42    0.95   4
   6   0  -3   -0.82    0.92   2
  -6   0   3    0.22    1.04   3
   5   0  -3    0.39    0.75   2
  -5   0   3   -0.53    0.81   3
  -5   0   3    0.18    0.73   4
  -4   0   3    0.03    0.48   1
   4   0  -3   -0.20    0.54   2
  -4   0   3   -0.44    0.61   3
  -4   0   3   -0.21    0.57   4
  -3   0   3    0.12    0.40   1
  -3   0   3    0.03    0.45   4
  -3   0   3    0.30    0.50   3
   3   0  -3    0.02    0.42   2
  -2   0   3   -0.41    0.36   3
   2   0  -3    0.08    0.33   2
  -2   0   3    0.22    0.28   1
  -2   0   3    0.27    0.37   4
  -1   0   3    0.34    0.19   1
  -1   0   3    2.75    0.39   3
   1   0  -3    1.06    0.30   2
  -1   0   3    0.42    0.31   4
   0   0  -3   -0.22    0.17   3
   0   0  -3   -0.32    0.17   2
   0   0   3   -0.09    0.16   1
   0   0   3   -0.39    0.17   4
   1   0   3    0.50    0.22   4
   1   0   3    0.09    0.29   1
  -1   0  -3    0.17    0.26   3
   1   0   3    0.28    0.35   5
  -1   0  -3    0.08    0.30   2
   2   0   3   -0.16    0.37   5
   2   0   3   -0.33    0.25   4
   2   0   3   -0.42    0.30   1
  -2   0  -3    0.32    0.33   3
  -2   0  -3   -0.03    0.35   2
   3   0   3    0.15    0.42   1
  -3   0  -3   -0.02    0.43   3
   3   0   3    0.33    0.48   5
  -3   0  -3   -0.62    0.46   2
  -3   0  -3    0.47    0.40   4
  -4   0  -3    0.41    0.64   2
  -4   0  -3    0.43    0.54   4
   4   0   3   -0.80    0.50   1
  -4   0  -3   -1.52    0.54   3
   4   0   3    0.24    0.57   5
   5   0   3   -0.27    0.76   5
   5   0   3   -0.23    0.68   1
  -5   0  -3   -0.43    0.76   3
  -5   0  -3   -0.07    0.71   4
  -5   0  -3   -0.41    0.76   2
  -6   0  -3    1.65    1.15   3
  -6   0  -3    1.54    1.18   2
   6   0   3    0.84    0.96   1
  -7   0  -3    1.78    1.43   2
  -7   0  -3    0.45    1.37   3
  -7  -1   3    1.51    1.41   3
  -7   1   3    1.07    1.34   3
   7   1  -3    1.48    1.31   2
   6  -1  -3    7.40    1.23   2
  -6   1   3    5.27    1.27   3
  -6  -1   3    6.24    1.34   3
   6   1  -3    7.58    1.29   2
  -6   1   3    7.49    1.26   4
  -5  -1   3   23.10    1.51   4
   5   1  -3   24.27    1.63   2
  -5  -1   3   25.14    1.79   3
  -5   1   3   22.95    1.46   1
  -5   1   3   23.20    1.58   4
   5  -1  -3   25.43    1.55   2
  -5   1   3   25.53    1.70   3
  -4   1   3   54.14    1.79   1
   4   1  -3   55.59    2.04   2
  -4  -1   3   53.50    2.15   3
   4   1  -3   53.59    1.57   1
  -4   1   3   52.41    2.02   3
  -4  -1   3   51.49    1.87   4
  -4   1   3   54.68    1.97   2
  -4   1   3   56.34    2.04   4
  -3  -1   3   41.53    1.70   3
   3   1  -3   43.39    1.18   1
  -3  -1   3   44.88    1.54   4
  -3   1   3   41.56    1.44   2
  -3   1   3   42.47    1.44   1
   3   1  -3   43.38    1.58   2
  -3   1   3   41.56    1.57   3
  -3   1   3   38.56    1.58   4
  -2   1   3  545.31   10.78   4
  -2   1   3  560.26   10.31   2
  -2   1   3  555.85   10.07   1
  -2   1   3  575.39   10.64   3
   2   1  -3  552.78   10.54   2
  -2  -1   3  557.41   10.69   4
  -2  -1   3  543.03   10.65   3
  -1   1   3  140.08    3.01   4
   1  -1  -3  138.71    2.95   3
  -1  -1   3  136.65    2.92   3
   1   1  -3  135.58    2.93   2
  -1  -1   3  137.27    2.96   4
  -1   1   3  140.92    2.77   1
   0   1  -3   55.64    1.24   1
   0  -1   3   55.84    1.21   3
   0  -1  -3   53.42    1.19   2
   0   1   3   58.02    1.34   4
   0   1  -3   56.58    1.43   2
   0  -1  -3   54.76    1.43   3
   0   1   3   55.88    1.36   1
  -1  -1  -3 9670.75  173.29   3
  -1   1  -3 9619.03  171.60   2
   1   1   3 9910.44  165.74   1
   1  -1   3 9634.95  175.28   4
  -1   1  -3 9560.51  165.72   1
  -1  -1  -3 9288.93  171.57   2
  -2  -1  -3 1975.64   35.70   2
  -2   1  -3 1923.18   35.79   3
  -2   1  -3 2015.37   35.67   2
  -2   1  -3 1959.18   34.49   1
   2  -1   3 1953.24   36.32   4
  -2  -1  -3 1984.21   36.02   3
   2   1   3 1973.04   34.40   1
  -3  -1  -3  208.13    4.59   3
  -3   1  -3  206.87    4.42   1
  -3   1  -3  200.59    4.52   2
  -3   1  -3  206.03    4.34   3
   3  -1   3  203.46    4.45   4
  -3  -1  -3  202.97    4.60   2
   3   1   3  207.86    4.30   1
  -4  -1  -3   20.53    1.05   4
  -4  -1  -3   23.49    1.43   3
  -4   1  -3   22.95    1.42   2
  -4   1  -3   20.36    1.34   1
   4   1   3   23.88    1.29   1
  -4  -1  -3   21.09    1.47   2
   4  -1   3   21.66    1.32   4
  -4   1  -3   22.82    1.33   3
  -5  -1  -3   36.44    1.96   3
  -5  -1  -3   37.46    2.02   2
   5  -1   3   35.68    1.79   1
   5  -1   3   33.62    1.85   5
  -5   1  -3   38.75    1.89   3
   5   1   3   35.66    1.77   1
   5  -1   3   36.05    1.72   4
  -5   1  -3   34.90    1.86   2
  -6  -1  -3   29.92    2.14   2
   6  -1   3   26.29    1.89   5
  -6  -1  -3   36.55    2.22   3
  -6   1  -3   29.79    2.03   2
   6  -1   3   34.26    2.02   1
  -6   1  -3   30.30    2.10   3
  -7   1  -3    0.65    1.39   2
   7   1   3    1.71    1.36   2
  -7  -1  -3    2.43    1.43   3
   7   2  -3    5.23    1.59   2
  -7   2   3    4.27    1.54   4
  -7  -2   3    4.74    1.72   3
   6  -2  -3    2.79    1.11   3
  -6  -2   3    8.08    1.44   3
   6   2  -3    5.85    1.31   2
  -6   2   3    5.39    1.18   1
  -6   2   3    6.82    1.31   4
  -5  -2   3   25.52    1.82   3
   5  -2  -3   23.43    1.60   3
  -5   2   3   21.23    1.65   4
  -5   2   3   24.16    1.51   2
  -5   2   3   22.15    1.51   1
  -5  -2   3   23.57    1.51   4
   5   2  -3   19.02    1.59   2
  -4   2   3    3.92    0.82   1
  -4  -2   3    3.60    0.79   4
   4  -2  -3    3.41    0.84   3
  -4   2   3    5.48    0.95   4
  -4   2   3    4.44    0.78   2
   4   2  -3    5.53    0.99   2
  -4  -2   3    4.40    0.99   3
  -3   2   3    4.34    0.64   1
  -3   2   3    3.14    0.53   2
  -3   2   3    3.04    0.69   4
   3   2  -3    4.04    0.47   1
  -3  -2   3    2.90    0.67   3
   3  -2  -3    2.81    0.66   3
   3   2  -3    4.59    0.76   2
  -3  -2   3    3.74    0.64   4
  -2  -2   3   36.33    1.39   3
  -2   2   3   38.86    1.47   4
   2   2  -3   39.26    1.44   2
   2  -2  -3   37.34    1.36   3
   2   2  -3   37.93    1.02   1
  -2   2   3   38.82    1.09   2
  -2   2   3   39.22    1.36   1
  -2  -2   3   38.56    1.34   4
  -1   2   3  624.39   11.35   1
  -1  -2   3  625.83   11.95   4
  -1   2   3  614.32   12.00   4
   1  -2  -3  621.03   11.80   3
  -1  -2   3  638.86   11.77   3
   1   2  -3  622.92   11.09   1
   1   2  -3  631.79   11.77   2
   0   2  -3  187.83    3.59   1
   0  -2  -3  180.68    3.82   3
   0  -2   3  185.99    3.59   3
   0   2   3  185.74    3.78   4
   0   2   3  178.35    3.68   1
   0  -2   3  173.32    3.86   4
   0   2  -3  178.42    3.77   2
   0   2   3  184.34    3.50   2
  -1  -2  -3  386.84    7.79   3
   1   2   3  397.94    7.46   1
  -1  -2  -3  402.10    7.62   2
  -1  -2  -3  404.61    7.58   4
   1  -2   3  390.37    7.92   4
  -1   2  -3  415.49    7.69   2
  -1   2  -3  398.83    7.49   1
  -2   2  -3   91.93    2.37   2
  -2  -2  -3   95.56    2.48   2
   2   2   3   93.28    2.31   1
  -2  -2  -3   90.91    2.52   3
   2  -2   3   91.31    2.05   3
   2  -2   3  106.95    2.55   4
  -2   2  -3   94.63    2.43   1
  -3   2  -3  122.95    3.04   2
  -3   2  -3  120.85    2.78   3
  -3   2  -3  116.65    3.04   1
  -3  -2  -3  118.09    3.18   3
   3  -2   3  124.40    3.13   4
  -3  -2  -3  119.03    3.17   2
   3   2   3  121.74    2.89   1
   4  -2   3   29.88    1.56   4
  -4  -2  -3   29.22    1.67   2
  -4   2  -3   32.89    1.63   1
  -4   2  -3   30.36    1.44   3
   4   2   3   32.61    1.48   1
  -4  -2  -3   30.47    1.70   3
  -4   2  -3   30.05    1.57   2
  -5  -2  -3   64.74    2.58   3
   5   2   3   63.04    2.61   2
  -5   2  -3   56.16    2.36   1
  -5   2  -3   63.38    2.40   2
   5   2   3   61.59    2.20   1
   5  -2   3   58.08    2.32   4
  -5   2  -3   68.35    2.28   3
   6   2   3    9.51    1.56   2
  -6   2  -3    8.62    1.37   2
  -6  -2  -3    7.59    1.44   3
   7   2   3    2.64    1.47   2
  -7   2  -3    2.94    1.48   2
  -7  -2  -3   -1.04    1.48   3
  -7  -3   3    1.16    1.64   3
   7   3  -3   -0.91    1.42   2
   6   3  -3    2.96    1.30   2
  -6  -3   3   -0.75    1.28   3
  -6   3   3    1.78    1.25   4
  -6   3   3    0.42    1.09   1
  -5  -3   3    8.71    1.38   3
   5   3  -3   10.39    1.40   2
  -5   3   3    7.70    1.31   4
  -5   3   3    4.38    1.11   1
   5  -3  -3    9.56    1.25   3
  -4  -3   3  148.22    3.73   4
  -4  -3   3  153.98    4.11   3
  -4   3   3  147.49    3.53   2
   4  -3  -3  144.22    3.85   3
  -4   3   3  147.85    4.13   4
  -4   3   3  145.62    3.81   1
   4   3  -3  147.80    4.08   2
  -3   3   3  354.65    6.86   2
  -3   3   3  364.82    7.70   4
  -3  -3   3  346.29    7.30   4
   3   3  -3  357.36    7.52   2
   3   3  -3  345.32    6.62   1
   3  -3  -3  348.35    7.31   3
  -3   3   3  352.03    7.20   1
  -3  -3   3  350.25    7.51   3
  -2   3   3   77.24    2.38   4
   2  -3  -3   75.33    2.15   3
   2   3  -3   76.96    1.83   1
  -2  -3   3   76.47    2.18   4
  -2  -3   3   74.93    2.23   3
  -2   3   3   75.28    2.21   1
   2   3  -3   74.31    2.28   2
  -1  -3   3  177.22    3.86   3
   1  -3  -3  177.31    3.91   3
  -1  -3   3  173.00    3.97   4
   1   3  -3  179.41    3.98   2
  -1   3   3  177.74    3.86   1
   1   3  -3  174.73    3.59   1
  -1   3   3  178.62    4.06   4
   0   3  -3  370.29    6.89   1
   0   3  -3  368.83    7.15   2
   0  -3   3  356.86    7.36   4
   0  -3  -3  360.49    7.23   4
   0   3   3  353.28    6.97   1
   0   3   3  360.90    6.83   2
   0  -3   3  367.43    6.95   3
   0  -3  -3  351.64    7.21   3
   1  -3   3  109.93    2.89   4
   1  -3   3  107.00    2.36   3
  -1  -3  -3  113.49    2.83   3
  -1   3  -3  115.96    2.72   2
  -1  -3  -3  110.88    2.56   4
   1   3   3  113.94    2.61   2
  -1   3  -3  111.75    2.73   1
   1   3   3  110.53    2.68   1
  -2   3  -3   50.95    1.64   2
  -2  -3  -3   46.96    1.32   4
   2   3   3   51.40    1.74   1
  -2  -3  -3   47.67    1.80   3
  -2   3  -3   48.72    1.73   1
   2   3   3   46.39    1.65   2
   2  -3   3   48.04    1.78   4
   3   3   3    4.30    0.75   1
   3   3   3    3.27    0.79   2
  -3  -3  -3    3.12    0.82   3
   3  -3   3    5.33    0.59   3
   3  -3   3    4.37    0.81   4
  -3   3  -3    4.71    0.72   2
  -3   3  -3    3.20    0.76   1
   4   3   3   -0.46    0.74   2
  -4  -3  -3   -0.11    0.77   3
  -4   3  -3   -0.32    0.67   2
   4  -3   3   -0.97    0.65   4
  -4   3  -3   -1.06    0.69   1
   4   3   3   -0.68    0.62   1
  -5   3  -3    0.62    0.97   1
  -5   3  -3    0.74    0.85   2
   5  -3   3   -0.38    0.80   4
   5   3   3   -1.27    0.84   2
  -5  -3  -3   -1.49    0.90   3
  -6   3  -3    0.88    1.20   1
  -6   3  -3   -0.44    1.07   2
  -6  -3  -3    1.40    1.29   3
   6   3   3    1.81    1.20   2
   7  -3   3    3.58    1.48   1
   7  -3   3    2.80    1.49   5
  -7  -3  -3    0.62    1.51   3
   7   3   3    5.07    1.63   2
   6  -4  -3   18.22    1.88   4
  -6   4   3   15.52    1.77   1
   6   4  -3   18.43    2.08   2
  -6  -4   3   13.79    2.09   3
  -5   4   3   31.75    2.16   4
  -5  -4   3   33.85    2.28   3
   5   4  -3   38.88    2.33   2
  -5   4   3   32.61    1.98   1
   4   4  -3    9.15    1.29   2
  -4  -4   3    9.96    1.32   3
  -4   4   3    8.22    1.19   1
  -4  -4   3   10.76    1.14   4
   4  -4  -3    9.47    1.18   3
  -4   4   3    8.90    1.32   4
   3  -4  -3    0.96    0.73   3
  -3   4   3    1.06    0.83   4
  -3   4   3    0.28    0.75   1
  -3  -4   3    0.23    0.73   3
   3   4  -3    0.74    0.77   2
  -3  -4   3    0.43    0.67   4
   2  -4  -3   65.26    2.19   3
   2  -4  -3   71.10    2.47   4
   2   4  -3   73.50    1.96   1
   2   4  -3   70.79    2.37   2
  -2   4   3   70.87    2.30   1
  -2  -4   3   70.85    2.31   3
  -2  -4   3   65.21    2.24   4
  -1   4   3   35.62    1.56   1
  -1  -4   3   31.97    1.40   3
   1  -4  -3   33.76    1.50   3
  -1  -4   3   32.56    1.50   4
   1   4  -3   34.21    1.33   1
   1   4  -3   33.44    1.53   2
   1  -4  -3   34.96    1.55   4
   0   4   3   74.36    1.92   2
   0  -4   3   74.58    1.97   3
   0  -4   3   71.47    2.31   4
   0  -4  -3   76.01    2.22   4
   0   4  -3   77.09    2.23   2
   0  -4  -3   74.96    2.23   3
   0   4  -3   71.72    2.12   1
   0   4   3   72.98    2.22   1
   1   4   3   11.29    0.85   2
  -1  -4  -3   12.01    0.87   4
  -1  -4  -3   10.90    1.00   3
   1   4   3   11.62    0.97   1
   1  -4   3    9.60    0.99   4
   1  -4   3   11.27    0.70   3
  -1   4  -3   11.55    0.94   2
  -1   4  -3   11.78    1.00   1
   2  -4   3   14.19    1.19   4
  -2   4  -3   16.76    1.07   2
   2   4   3   13.86    1.05   2
  -2  -4  -3   14.06    0.98   4
  -2  -4  -3   13.64    1.15   3
   2   4   3   13.77    1.08   1
  -2   4  -3   13.76    1.14   1
   3   4   3    8.95    1.05   2
  -3   4  -3    8.73    0.95   2
   3  -4   3    5.83    1.02   4
  -3   4  -3    6.96    1.07   1
  -3  -4  -3   10.03    1.17   3
   3   4   3    9.38    1.02   1
  -4   4  -3    0.58    0.76   2
   4  -4   3   -0.68    0.75   4
   4   4   3   -1.78    0.72   2
  -4   4  -3    0.35    0.87   1
   4   4   3   -0.47    0.75   1
  -4  -4  -3   -0.32    0.80   3
   5  -4   3    2.36    1.06   4
  -5   4  -3    2.89    1.02   2
  -5   4  -3    2.73    1.08   1
  -5  -4  -3    4.27    1.27   3
   5   4   3    1.46    1.06   2
   6   4   3    0.72    1.23   2
  -6   4  -3    1.07    1.29   1
   6  -4   3   -0.49    1.08   4
  -6  -4  -3    0.91    1.47   3
  -6   5   3   -0.86    1.38   1
   6   5  -3    1.84    1.55   2
  -6  -5   3   -0.38    1.57   3
   6  -5  -3   -0.78    1.37   4
   5  -5  -3   20.79    1.98   4
   5   5  -3   28.81    2.25   2
  -5   5   3   30.42    2.13   1
  -5  -5   3   30.63    2.34   3
   4   5  -3    1.48    1.06   2
   4  -5  -3    3.02    1.06   4
  -4   5   3    3.02    1.05   1
  -4  -5   3    1.80    1.07   3
  -3   5   3    0.68    0.85   1
  -3  -5   3    2.00    0.83   4
   3  -5  -3    1.24    0.84   4
   3   5  -3   -0.07    0.87   2
  -3  -5   3    0.57    0.83   3
   3  -5  -3    0.37    0.74   3
   2  -5  -3    1.92    0.78   3
  -2  -5   3    2.60    0.79   4
  -2  -5   3    2.93    0.85   3
   2   5  -3    2.38    0.69   1
   2   5  -3    3.36    0.93   2
  -2   5   3    2.50    0.87   1
   2  -5  -3    1.83    0.83   4
  -1  -5   3   27.40    1.57   4
   1  -5  -3   28.28    1.59   4
  -1   5   3   27.58    1.62   1
   1   5  -3   28.48    1.38   1
  -1  -5   3   27.44    1.46   3
   1   5  -3   26.87    1.59   2
   1  -5  -3   28.77    1.54   3
   0   5  -3   18.68    1.28   1
   0   5  -3   19.63    1.40   2
   0   5   3   16.13    1.12   2
   0  -5   3   19.88    1.41   4
   0  -5  -3   19.73    1.34   4
   0  -5   3   15.51    1.10   3
   0  -5  -3   23.19    1.42   3
   0   5   3   16.79    1.33   1
   1   5   3   52.17    1.87   2
  -1   5  -3   52.71    2.05   1
  -1  -5  -3   50.67    1.93   4
  -1   5  -3   57.24    2.16   2
   1   5   3   56.87    2.07   1
   1  -5   3   53.31    2.21   4
  -1  -5  -3   55.11    2.15   3
   2   5   3   15.74    1.28   1
  -2  -5  -3   12.39    1.28   3
   2  -5   3   15.59    1.42   4
  -2   5  -3   13.36    1.10   2
   2   5   3   16.84    1.26   2
  -2  -5  -3   15.92    1.07   4
  -2   5  -3   15.30    1.34   1
   3   5   3   11.84    1.28   2
  -3  -5  -3   16.02    1.50   3
  -3   5  -3   11.52    1.10   2
   3   5   3   13.47    1.27   1
  -3   5  -3   13.36    1.38   1
   3  -5   3   14.48    1.47   4
  -4  -5  -3    9.55    1.48   3
   4  -5   3    7.08    1.26   4
  -4   5  -3   10.30    1.39   1
   4   5   3   10.64    1.39   2
  -5  -5  -3   -0.06    1.25   3
   5  -5   3    0.25    1.04   4
  -5   5  -3    0.88    1.15   1
   5   5   3   -0.57    1.08   2
   6   5   3    0.44    1.44   2
  -6   5  -3    2.61    1.43   1
   6  -5   3    1.98    1.34   4
  -6  -5  -3    0.84    1.63   3
   5   6  -3    1.42    1.44   2
  -5  -6   3    0.75    1.39   3
  -5   6   3   -1.27    1.31   1
   5  -6  -3   -1.77    1.19   4
   4  -6  -3    5.26    1.32   4
  -4  -6   3    6.17    1.39   3
  -4   6   3    5.41    1.32   1
   4   6  -3    5.74    1.40   2
   3  -6  -3    1.99    1.05   4
  -3  -6   3    0.65    0.97   3
  -3  -6   3    2.62    0.98   4
   3   6  -3    0.72    1.01   2
  -3   6   3    3.62    1.12   1
  -2  -6   3   25.04    1.71   3
  -2  -6   3   25.73    1.62   4
  -2   6   3   27.57    1.84   1
   2  -6  -3   23.32    1.71   4
   2   6  -3   27.05    1.83   2
  -1   6   3  189.04    4.77   1
   1  -6  -3  185.05    4.61   3
   1   6  -3  189.23    4.74   2
   1   6  -3  177.77    4.41   1
  -1  -6   3  184.94    4.57   3
  -1  -6   3  179.32    4.78   4
   0  -6   3   44.96    2.14   4
   0   6  -3   47.40    2.10   2
   0  -6  -3   45.28    2.11   3
   0  -6  -3   48.84    2.14   4
   0   6   3   42.01    1.99   1
   0   6  -3   46.16    2.00   1
  -1  -6  -3    9.61    1.21   3
   1   6   3   10.41    1.06   2
  -1   6  -3   10.54    1.26   1
  -1  -6  -3    9.08    1.11   4
   1   6   3   11.55    1.23   1
  -1   6  -3   11.15    1.14   2
   1  -6   3   10.21    1.28   4
   2   6   3   24.85    1.62   2
   2  -6   3   25.22    1.87   4
  -2  -6  -3   28.36    1.83   3
  -2   6  -3   20.00    1.65   1
   2   6   3   22.64    1.57   1
  -2   6  -3   24.14    1.49   2
  -3   6  -3   -1.76    0.86   1
  -3  -6  -3    0.96    1.00   3
   3   6   3    0.03    0.86   1
   3  -6   3    0.76    0.96   4
   3   6   3    0.37    0.90   2
  -4   6  -3    3.68    1.27   1
   4   6   3    3.48    1.26   2
  -4  -6  -3    5.68    1.40   3
   4  -6   3    3.29    1.28   4
   5   6   3    1.15    1.37   2
  -5  -6  -3    2.56    1.55   3
   5  -6   3    0.28    1.23   4
  -5   6  -3    0.47    1.29   1
   4  -7  -3   -0.75    1.23   4
  -4   7   3   -0.42    1.21   1
  -4  -7   3   -0.57    1.37   3
   4   7  -3    0.22    1.32   2
  -3   7   3    1.11    1.11   1
  -3  -7   3   -0.19    1.13   3
   3   7  -3   -0.35    1.10   2
   3  -7  -3   -0.49    1.11   4
  -2   7   3    1.28    1.10   1
   2  -7  -3    2.59    1.13   4
  -2  -7   3    0.22    1.04   4
   2   7  -3    0.92    1.08   2
   1   7  -3    3.81    1.11   1
  -1   7   3    4.14    1.13   1
  -1  -7   3    4.49    1.16   4
   1   7  -3    3.26    1.19   2
   1  -7  -3    3.96    1.25   4
   0  -7   3    1.25    1.00   4
   0   7   3    2.42    1.04   1
   0   7  -3    2.67    1.00   2
   0  -7  -3    1.14    1.00   4
   0  -7  -3    1.25    0.99   3
   0   7  -3    2.11    1.03   1
   1   7   3    0.25    0.93   1
   1  -7   3    0.22    1.05   4
  -1  -7  -3   -0.26    0.88   4
  -1  -7  -3   -0.20    1.00   3
  -1   7  -3   -0.12    0.99   1
   2  -7   3    7.78    1.45   4
  -2   7  -3    6.97    1.34   1
   2   7   3    6.24    1.24   1
   2   7   3    6.73    1.27   2
  -2  -7  -3    8.66    1.40   3
  -3  -7  -3    0.27    1.18   3
   3   7   3   -0.47    1.15   2
   3  -7   3    0.28    1.16   4
  -3   7  -3   -0.43    1.15   1
   4   7   3   14.45    1.86   2
  -4   7  -3   12.67    1.85   1
  -4  -7  -3   17.57    2.08   3
   4  -7   3   11.98    1.80   4
   3   8  -3    6.24    1.64   2
  -3   8   3    9.34    1.76   1
   3  -8  -3    6.34    1.72   4
   2   8  -3    0.75    1.33   2
  -2   8   3    0.82    1.31   1
   2  -8  -3    0.63    1.31   4
  -1   8   3    0.71    1.24   1
  -1  -8   3    0.60    1.20   4
   1  -8  -3    0.12    1.21   4
   0   8  -3    1.01    1.22   1
   0  -8   3   -1.52    1.13   4
   0   8   3    1.63    1.24   1
   0  -8  -3    1.45    1.32   4
  -1   8  -3    4.81    1.32   1
   1   8   3    5.73    1.45   1
   1  -8   3    4.33    1.48   4
  -2  -8  -3    1.60    1.35   3
   2  -8   3    0.03    1.31   4
   2   8   3    0.37    1.27   1
  -2   8  -3    0.09    1.24   1
  -3  -8  -3    5.24    1.67   3
   3  -8   3    3.21    1.51   4
  -3   8  -3    0.91    1.38   1
   0  -9   3    2.39    1.62   4
   0   9   3    1.65    1.48   1
   7   0  -4    0.49    1.31   2
  -7   0   4    0.95    1.39   3
  -6   0   4    0.75    0.97   4
   6   0  -4    1.47    1.01   2
  -6   0   4    0.95    1.04   3
   5   0  -4   14.79    1.30   2
  -5   0   4   17.82    1.48   3
  -5   0   4   14.39    1.31   4
   4   0  -4    5.53    0.81   2
  -4   0   4    5.87    0.84   4
  -4   0   4    5.25    0.91   3
  -4   0   4    4.43    0.66   1
  -3   0   4  304.09    5.74   1
   3   0  -4  304.17    6.21   2
  -3   0   4  302.40    6.40   3
  -3   0   4  308.99    6.43   4
  -2   0   4  297.67    6.17   4
   2   0  -4  304.97    5.94   2
  -2   0   4  308.18    6.14   3
  -2   0   4  303.34    5.53   1
  -1   0   4 2844.31   51.39   3
  -1   0   4 2849.40   49.43   1
  -1   0   4 2772.78   51.96   4
   1   0  -4 2867.52   50.87   2
   0   0   4 3098.20   57.35   4
   0   0  -4 3177.29   56.18   2
   0   0  -4 3066.00   56.72   3
   0   0   4 3176.29   54.28   1
   1   0   4 3566.73   65.66   4
   1   0   4 3541.77   61.90   1
  -1   0  -4 3537.41   64.75   3
   1   0   4 3660.74   68.71   5
  -2   0  -4    4.73    0.58   2
   2   0   4    5.48    0.63   5
   2   0   4    6.05    0.44   4
  -2   0  -4    5.46    0.53   3
   2   0   4    5.46    0.56   1
   3   0   4  244.53    4.84   4
  -3   0  -4  235.26    5.02   3
   3   0   4  230.23    5.45   5
  -3   0  -4  239.61    5.19   2
   3   0   4  240.84    4.93   1
  -4   0  -4   10.79    1.00   3
   4   0   4   10.46    1.08   5
   4   0   4   13.16    1.02   1
  -4   0  -4   11.50    1.09   2
   4   0   4   10.54    0.83   4
  -5   0  -4   15.50    1.34   3
   5   0   4   16.04    1.31   1
  -5   0  -4   12.21    1.30   2
   6   0   4  229.26    5.57   1
  -7   0  -4   53.59    2.86   3
  -7   0  -4   44.54    2.82   2
   7   1  -4    8.74    1.72   2
  -7  -1   4   13.84    1.93   3
  -7   1   4   11.81    1.84   3
   6   1  -4    3.71    1.18   2
  -6   1   4    2.13    1.22   3
   6  -1  -4    4.48    1.12   2
  -6  -1   4    3.47    1.22   3
  -6   1   4    3.09    1.15   4
   5  -1  -4   19.25    1.38   2
  -5  -1   4   18.85    1.58   3
  -5   1   4   18.18    1.28   1
   5   1  -4   20.77    1.51   2
  -5   1   4   21.11    1.56   3
  -5  -1   4   19.09    1.43   4
  -5   1   4   21.31    1.54   4
  -4  -1   4    9.08    0.96   4
   4   1  -4   11.81    1.08   2
   4  -1  -4    9.63    0.88   2
  -4  -1   4   11.23    1.14   3
  -4   1   4   11.71    1.10   4
  -4   1   4    8.81    0.86   1
  -4   1   4   10.00    1.03   3
  -3   1   4  358.29    6.76   1
   3  -1  -4  354.42    6.95   2
   3   1  -4  352.60    7.19   2
  -3  -1   4  347.63    7.30   3
  -3   1   4  347.95    7.24   3
  -3  -1   4  350.54    7.24   4
  -3   1   4  354.68    7.37   4
   2   1  -4  153.55    3.38   2
  -2  -1   4  150.56    3.40   4
  -2   1   4  149.73    3.12   1
   2  -1  -4  147.73    3.37   3
   2  -1  -4  152.59    3.10   2
  -2   1   4  152.82    3.49   4
  -2  -1   4  151.46    3.43   3
  -1  -1   4   56.54    1.52   3
  -1   1   4   56.53    1.41   1
  -1  -1   4   55.88    1.55   4
   1   1  -4   56.71    1.55   2
   1  -1  -4   56.82    1.55   3
  -1   1   4   57.04    1.56   4
   0  -1  -4   16.09    0.61   2
   0   1   4   17.07    0.71   4
   0  -1  -4   16.64    0.91   3
   0   1   4   16.96    1.00   1
   0   1  -4   17.75    0.86   2
   0   1  -4   16.72    0.64   1
   0  -1   4   16.97    0.83   4
   0  -1   4   17.85    0.62   3
   1   1   4   26.83    1.00   1
  -1  -1  -4   24.14    1.09   3
  -1   1  -4   23.32    0.96   1
  -1  -1  -4   26.75    1.02   2
  -1   1  -4   23.81    1.04   2
   1  -1   4   23.16    1.02   4
  -2   1  -4   72.41    1.93   1
  -2   1  -4   71.39    1.95   2
  -2   1  -4   69.85    1.67   3
  -2  -1  -4   70.78    1.97   3
  -2  -1  -4   71.32    1.99   2
   2   1   4   66.41    1.83   1
   2  -1   4   67.43    1.84   4
  -3  -1  -4   94.99    2.64   3
   3  -1   4   98.67    2.51   4
  -3   1  -4   99.74    2.63   1
  -3   1  -4  101.12    2.70   2
  -3   1  -4   97.21    2.41   3
   3   1   4   99.10    2.50   1
   4   1   4   17.17    1.15   1
  -4  -1  -4   15.53    1.21   3
   4  -1   4   15.70    1.08   4
  -4  -1  -4   17.94    1.29   2
  -4   1  -4   15.34    1.04   3
  -4   1  -4   13.74    1.19   2
  -4   1  -4   15.86    1.20   1
  -5  -1  -4    0.76    0.86   3
  -5  -1  -4   -0.17    0.82   2
   5  -1   4    2.51    0.84   1
   5  -1   4   -0.18    0.83   5
  -5   1  -4    0.47    0.78   3
  -5   1  -4    0.18    0.74   2
   5   1   4    0.62    0.76   1
   6  -1   4    0.20    1.00   5
  -6   1  -4    2.35    1.10   3
  -6   1  -4    1.51    1.01   2
  -6  -1  -4    1.35    1.05   3
   6  -1   4    1.40    1.03   1
  -6  -1  -4   -0.01    1.05   2
  -7   1  -4    2.06    1.40   2
  -7  -1  -4    2.62    1.39   3
   7   1   4    0.38    1.33   2
   7   2  -4    1.99    1.55   2
  -7   2   4    0.50    1.34   4
  -7  -2   4   -0.64    1.58   3
  -6  -2   4    2.42    1.29   3
  -6   2   4    4.61    1.20   1
   6   2  -4    4.80    1.36   2
   6  -2  -4    4.88    1.26   3
  -6   2   4    2.30    1.16   4
  -5   2   4   22.13    1.49   1
  -5   2   4   22.91    1.68   4
  -5  -2   4   22.76    1.55   4
  -5  -2   4   23.53    1.75   3
   5   2  -4   23.77    1.72   2
   5  -2  -4   22.10    1.62   3
   4  -2  -4   59.55    2.24   3
  -4   2   4   57.56    2.08   1
  -4  -2   4   63.32    2.49   3
  -4  -2   4   59.97    2.13   4
   4   2  -4   56.70    2.26   2
  -4   2   4   63.39    2.35   4
   3   2  -4    0.45    0.55   2
  -3  -2   4   -0.29    0.56   3
   3  -2  -4   -0.17    0.49   3
  -3   2   4   -0.51    0.53   4
  -3   2   4   -0.16    0.48   1
  -3   2   4    0.18    0.40   2
  -3  -2   4   -0.50    0.48   4
   2  -2  -4   25.69    1.19   3
  -2   2   4   25.75    1.15   1
  -2  -2   4   26.40    1.22   3
  -2  -2   4   24.74    1.14   4
  -2   2   4   25.53    1.23   4
   2   2  -4   25.91    1.24   2
  -1  -2   4    0.42    0.39   4
   1   2  -4    0.14    0.24   1
  -1   2   4   -0.15    0.37   4
  -1   2   4   -0.61    0.35   1
   1   2  -4    0.89    0.45   2
   1  -2  -4    0.66    0.41   3
  -1  -2   4    0.25    0.33   3
   0   2   4   -0.08    0.21   2
   0  -2   4    0.68    0.24   3
   0   2   4   -0.22    0.35   1
   0   2  -4    0.33    0.29   1
   0  -2   4   -0.16    0.36   4
   0   2   4    0.16    0.32   4
   0  -2  -4   -0.01    0.36   3
   0   2  -4    0.29    0.37   2
  -1   2  -4  928.66   17.48   2
  -1  -2  -4  958.06   17.40   2
   1   2   4  956.21   16.91   1
  -1   2  -4  949.70   16.95   1
   1  -2   4  940.28   17.91   4
  -1  -2  -4  946.30   17.57   4
  -1  -2  -4  956.91   17.71   3
   2  -2   4   75.54    2.16   4
   2   2   4   79.12    2.09   1
  -2  -2  -4   77.81    2.23   2
  -2   2  -4   77.06    2.15   1
  -2   2  -4   74.43    2.14   2
  -2  -2  -4   75.34    2.29   3
  -3   2  -4   10.83    0.93   2
  -3   2  -4   14.51    1.07   1
  -3  -2  -4   12.83    1.07   2
   3   2   4   13.78    0.97   1
  -3   2  -4   12.62    0.88   3
  -3  -2  -4   11.25    1.03   3
   3  -2   4   11.57    0.96   4
  -4  -2  -4   30.62    1.72   3
  -4   2  -4   29.01    1.60   2
   4   2   4   30.65    1.49   1
  -4   2  -4   29.63    1.61   1
  -4   2  -4   30.19    1.42   3
  -4  -2  -4   27.55    1.67   2
   4  -2   4   26.70    1.45   4
   5   2   4    4.57    0.93   1
  -5  -2  -4    4.32    1.06   2
  -5   2  -4    1.98    0.94   1
  -5   2  -4    3.46    1.02   2
   5  -2   4    1.75    0.85   4
  -5   2  -4    5.07    0.92   3
  -5  -2  -4    4.59    1.08   3
   6  -2   4    2.72    1.06   1
  -6   2  -4    0.65    1.04   2
   6   2   4    1.49    1.19   2
  -6  -2  -4    1.15    1.22   3
   6  -2   4    0.70    1.06   5
  -7  -2  -4    3.12    1.49   3
  -7   2  -4    0.33    1.32   2
   7  -2   4    1.92    1.32   1
   7  -2   4    0.73    1.34   5
   7   2   4    0.74    1.33   2
   7   3  -4    3.34    1.61   2
  -7   3   4    0.40    1.51   4
  -7  -3   4    3.97    1.85   3
   6   3  -4    2.69    1.30   2
  -6  -3   4    0.07    1.34   3
  -6   3   4    1.40    1.23   4
  -6   3   4   -0.21    1.14   1
   5   3  -4   32.72    2.02   2
  -5  -3   4   32.49    2.16   3
   5  -3  -4   29.70    2.03   3
  -5   3   4   32.07    1.83   1
  -5   3   4   28.98    1.96   4
  -4  -3   4    4.42    1.04   3
  -4   3   4    3.19    0.90   1
  -4  -3   4    5.54    0.94   4
   4  -3  -4    3.65    0.91   3
  -4   3   4    3.83    1.03   4
   4   3  -4    3.72    1.01   2
  -3   3   4  248.26    5.31   1
  -3   3   4  239.33    5.68   4
  -3  -3   4  239.91    5.53   3
   3   3  -4  242.56    5.58   2
  -3  -3   4  247.78    5.42   4
   3  -3  -4  239.30    5.41   3
  -3   3   4  241.13    4.85   2
  -2   3   4  291.54    6.43   4
   2  -3  -4  294.01    6.18   3
  -2   3   4  300.55    6.06   1
   2   3  -4  289.50    6.27   2
  -2  -3   4  292.69    6.22   3
  -2  -3   4  305.73    6.28   4
   2   3  -4  293.56    5.54   1
  -1  -3   4  453.34    8.97   4
   1   3  -4  448.37    8.21   1
  -1  -3   4  448.74    8.71   3
   1  -3  -4  448.53    8.82   3
  -1   3   4  443.05    8.53   1
   1   3  -4  448.25    8.82   2
  -1   3   4  438.03    8.98   4
   0   3   4    8.59    0.59   2
   0   3   4    8.96    0.79   1
   0  -3   4    9.15    0.82   4
   0  -3   4    8.72    0.57   3
   0  -3  -4    8.86    0.72   4
   0   3  -4    8.69    0.77   2
   0   3  -4    9.25    0.70   1
   0  -3  -4    9.13    0.79   3
  -1  -3  -4   19.93    0.93   4
  -1   3  -4   21.21    1.16   2
  -1   3  -4   21.44    1.09   1
   1   3   4   21.68    0.98   2
  -1  -3  -4   23.61    1.27   3
   1  -3   4   20.17    1.18   4
   1   3   4   18.71    1.09   1
  -2   3  -4   11.41    0.95   1
   2   3   4    9.77    0.84   2
   2   3   4    9.92    0.90   1
   2  -3   4    9.13    0.91   4
  -2   3  -4   10.76    0.86   2
  -2  -3  -4   10.51    0.98   3
  -3  -3  -4   32.37    1.68   3
   3  -3   4   27.29    1.48   4
   3   3   4   33.54    1.52   1
  -3   3  -4   30.69    1.53   1
  -3   3  -4   36.67    1.54   2
   3   3   4   29.63    1.56   2
   4  -3   4   33.07    1.73   4
  -4   3  -4   31.67    1.75   1
   4   3   4   31.61    1.80   2
  -4   3  -4   35.98    1.82   2
   4   3   4   30.10    1.56   1
  -4  -3  -4   31.12    1.88   3
  -5   3  -4    0.57    0.89   2
  -5  -3  -4    1.26    1.04   3
   5  -3   4    1.50    0.91   4
   5   3   4    1.80    0.82   1
  -5   3  -4    2.22    1.01   1
   5   3   4    1.47    0.96   2
  -6   3  -4    1.61    1.11   2
  -6   3  -4    1.68    1.18   1
  -6  -3  -4    0.20    1.21   3
   6   3   4    0.76    1.12   2
  -7  -3  -4   -0.07    1.49   3
   7   3   4   -0.44    1.37   2
   7  -3   4   -0.69    1.25   1
   7  -3   4    0.11    1.49   5
   6   4  -4    0.13    1.28   2
  -6  -4   4   -0.58    1.40   3
  -6   4   4    1.15    1.30   1
  -6   4   4    0.29    1.34   4
  -5   4   4   33.31    2.18   4
   5   4  -4   37.91    2.30   2
  -5   4   4   35.83    2.01   1
  -5  -4   4   35.39    2.32   3
   4   4  -4   12.68    1.42   2
  -4  -4   4   13.27    1.46   3
   4  -4  -4   13.95    1.36   3
  -4   4   4   11.57    1.28   1
  -4  -4   4   12.61    1.23   4
  -4   4   4   13.27    1.51   4
  -3   4   4   48.28    2.20   4
  -3  -4   4   50.38    1.95   4
  -3   4   4   46.94    2.03   1
   3   4  -4   48.47    2.14   2
  -3  -4   4   46.86    2.07   3
   3  -4  -4   48.02    2.11   3
  -2  -4   4   25.51    1.45   4
  -2   4   4   27.83    1.59   4
  -2  -4   4   26.41    1.44   3
   2   4  -4   26.00    1.18   1
  -2   4   4   26.90    1.51   1
   2  -4  -4   25.83    1.53   3
   2   4  -4   28.01    1.60   2
   1  -4  -4    1.87    0.63   3
  -1   4   4    1.50    0.65   1
   1  -4  -4    1.50    0.63   4
   1   4  -4    1.18    0.51   1
   1   4  -4    2.32    0.72   2
  -1  -4   4    0.84    0.55   3
  -1  -4   4    1.69    0.66   4
   0   4   4  205.20    4.51   1
   0  -4   4  205.21    4.73   4
   0  -4   4  203.80    4.24   3
   0   4   4  201.03    4.13   2
   0   4  -4  197.79    4.53   2
   0  -4  -4  199.30    4.54   4
   0   4  -4  202.16    4.35   1
   0  -4  -4  197.80    4.58   3
   1  -4   4   47.77    1.91   4
   1   4   4   48.81    1.80   1
  -1   4  -4   47.73    1.78   1
   1   4   4   48.37    1.64   2
   1  -4   4   48.59    1.35   3
  -1   4  -4   47.97    1.87   2
  -1  -4  -4   51.63    1.67   4
  -1  -4  -4   54.15    1.95   3
  -2  -4  -4   25.75    1.54   3
   2  -4   4   27.12    1.54   4
   2   4   4   27.37    1.46   1
  -2   4  -4   27.81    1.50   1
   2   4   4   27.67    1.37   2
  -2   4  -4   24.43    1.36   2
  -2  -4  -4   27.43    1.17   4
  -3  -4  -4    1.45    0.85   3
   3   4   4    1.46    0.75   1
   3  -4   4    1.08    0.77   4
   3   4   4    1.41    0.78   2
  -3   4  -4    0.41    0.76   1
  -3   4  -4    1.50    0.71   2
  -4  -4  -4    0.19    0.90   3
  -4   4  -4    0.69    0.92   2
  -4   4  -4    1.56    0.89   1
   4   4   4    1.20    0.82   2
   4   4   4   -0.29    0.77   1
   4  -4   4    1.12    0.83   4
  -5  -4  -4    1.36    1.20   3
  -5   4  -4    0.54    1.01   1
   5  -4   4    1.86    1.01   4
  -5   4  -4    0.30    0.96   2
   5   4   4    0.01    0.97   2
   6   4   4    5.17    1.53   2
  -6  -4  -4   11.53    1.85   3
  -6   4  -4    3.10    1.40   1
   6  -4   4    6.62    1.43   4
   6   5  -4   -2.42    1.42   2
  -6  -5   4   -0.82    1.52   3
  -6   5   4   -0.27    1.40   1
   6  -5  -4    0.80    1.37   4
   5  -5  -4    5.11    1.37   4
  -5   5   4    4.56    1.32   1
  -5  -5   4    3.13    1.46   3
   5   5  -4    4.25    1.44   2
   4   5  -4    2.48    1.14   2
   4  -5  -4   -0.43    0.89   4
  -4   5   4    2.01    1.04   1
  -4  -5   4    3.07    1.07   3
   3  -5  -4   15.10    1.31   3
  -3   5   4   14.34    1.43   1
  -3  -5   4   13.72    1.39   3
  -3  -5   4   17.39    1.36   4
   3  -5  -4   15.82    1.50   4
   3   5  -4   14.01    1.44   2
   2  -5  -4   -0.03    0.73   4
  -2  -5   4    0.89    0.80   4
  -2   5   4    0.53    0.80   1
   2  -5  -4    2.64    0.82   3
   2   5  -4    0.94    0.83   2
  -2  -5   4    1.00    0.74   3
   1  -5  -4   43.33    1.88   3
  -1  -5   4   39.97    1.73   3
   1  -5  -4   40.80    1.87   4
   1   5  -4   43.96    1.67   1
   1   5  -4   46.13    1.98   2
  -1   5   4   41.55    1.91   1
  -1  -5   4   40.54    1.89   4
   0  -5  -4  121.42    3.37   3
   0   5  -4  121.92    3.28   2
   0  -5   4  120.69    3.44   4
   0  -5   4  116.86    2.92   3
   0   5   4  114.86    2.84   2
   0  -5  -4  111.78    3.24   4
   0   5  -4  117.87    3.14   1
   0   5   4  117.47    3.29   1
  -1  -5  -4   18.84    1.46   3
  -1  -5  -4   17.90    1.32   4
   1   5   4   16.84    1.23   2
   1   5   4   20.29    1.44   1
   1  -5   4   20.92    1.50   4
  -1   5  -4   21.49    1.44   1
  -1   5  -4   22.59    1.58   2
   2  -5   4    7.73    1.12   4
  -2   5  -4    5.20    0.98   1
   2   5   4    5.31    0.90   2
  -2  -5  -4    5.64    1.05   3
   2   5   4    5.05    0.99   1
  -2   5  -4    6.12    0.92   2
  -2  -5  -4    5.79    0.81   4
   3   5   4   55.48    2.32   2
  -3  -5  -4   64.06    2.58   3
  -3   5  -4   61.84    2.23   2
  -3   5  -4   60.85    2.47   1
   3  -5   4   59.52    2.55   4
   3   5   4   61.92    2.37   1
  -4   5  -4   30.64    1.99   1
  -4  -5  -4   33.94    2.15   3
   4   5   4   27.03    1.94   2
  -4   5  -4   31.45    1.78   2
   4   5   4   28.29    1.83   1
   4  -5   4   25.81    1.85   4
  -5  -5  -4    0.91    1.29   3
  -5   5  -4   -0.63    1.15   1
   5  -5   4   -0.12    1.04   4
   5   5   4    0.17    1.19   2
   6   5   4    0.04    1.39   2
  -6  -5  -4   -1.59    1.53   3
   6  -5   4    0.47    1.32   4
  -6   5  -4    0.09    1.45   1
   5   6  -4    3.11    1.59   2
   5  -6  -4    2.80    1.40   4
  -5   6   4    4.83    1.52   1
  -5  -6   4    4.07    1.59   3
  -4   6   4   14.74    1.72   1
   4   6  -4   12.47    1.70   2
  -4  -6   4   14.96    1.77   3
   4  -6  -4   14.76    1.77   4
   3  -6  -4   10.47    1.48   4
  -3  -6   4    6.64    1.16   4
   3   6  -4    9.49    1.41   2
  -3   6   4    8.46    1.36   1
  -3  -6   4    8.32    1.40   3
  -2  -6   4   -0.85    1.09   4
  -2  -6   4   -0.30    0.86   3
   2   6  -4    0.46    0.93   2
   2  -6  -4    0.02    0.82   3
   2  -6  -4   -1.28    0.79   4
  -2   6   4    0.37    0.94   1
   1   6  -4    0.50    0.81   1
  -1  -6   4    0.87    0.87   3
   1   6  -4    1.41    1.00   2
   1  -6  -4    2.31    0.89   3
  -1   6   4    3.68    1.01   1
   1  -6  -4    3.49    0.97   4
  -1  -6   4    1.78    0.96   4
   0   6  -4   35.69    1.93   2
   0  -6  -4   38.00    1.95   4
   0  -6   4   41.26    2.06   4
   0   6  -4   36.82    1.88   1
   0   6   4   34.19    1.84   1
   0  -6  -4   36.14    2.05   3
  -1   6  -4   -0.65    0.80   1
   1   6   4    1.57    0.76   2
   1   6   4   -0.09    0.73   1
  -1  -6  -4   -0.21    0.83   3
  -1  -6  -4    0.63    0.74   4
   1  -6   4   -0.93    0.87   4
  -1   6  -4    0.40    0.78   2
   2  -6   4   -0.65    0.90   4
  -2   6  -4   -0.20    0.89   1
  -2   6  -4    0.78    0.84   2
   2   6   4    1.19    0.89   1
   2   6   4   -0.36    0.81   2
  -2  -6  -4   -0.54    0.82   3
   3   6   4    1.16    0.94   1
   3   6   4   -0.66    0.90   2
   3  -6   4   -0.36    0.93   4
  -3  -6  -4   -0.25    1.03   3
  -3   6  -4   -0.35    0.95   1
   4   6   4   -0.15    1.08   2
  -4  -6  -4   -0.18    1.16   3
  -4   6  -4    0.61    1.18   1
   4  -6   4    0.04    1.09   4
  -5   6  -4    4.21    1.54   1
   5  -6   4    2.70    1.39   4
   5   6   4    5.37    1.52   2
  -5  -6  -4    4.42    1.75   3
  -4  -7   4    0.94    1.45   3
   4  -7  -4    0.60    1.35   4
  -4   7   4    3.24    1.42   1
   4   7  -4    1.14    1.43   2
  -3   7   4   14.23    1.75   1
  -3  -7   4   15.04    1.75   3
   3  -7  -4   15.27    1.76   4
   3   7  -4   11.29    1.63   2
   2  -7  -4    0.21    1.04   4
  -2   7   4    0.28    1.04   1
   2   7  -4   -0.29    1.08   2
  -2  -7   4   -2.01    1.30   4
  -1   7   4    0.85    0.99   1
  -1  -7   4   -0.89    0.93   4
   1  -7  -4    1.70    1.09   4
   1   7  -4    0.86    1.05   2
   0   7  -4    0.24    0.92   1
   0  -7   4   -1.43    0.96   4
   0  -7  -4   -0.03    0.96   3
   0   7   4    0.65    1.01   1
   0   7  -4    2.13    1.02   2
   0  -7  -4    0.62    1.02   4
  -1   7  -4    2.96    1.14   1
   1  -7   4    2.30    1.21   4
  -1  -7  -4    2.48    1.08   3
   1   7   4    1.44    1.05   1
  -1  -7  -4    2.74    0.99   4
  -2  -7  -4   19.90    1.77   3
   2  -7   4   17.86    1.81   4
   2   7   4   17.67    1.67   1
  -2   7  -4   17.66    1.77   1
  -3   7  -4    4.49    1.42   1
  -3  -7  -4    3.86    1.32   3
   3  -7   4    5.00    1.41   4
   3   7   4    4.17    1.28   2
   4   7   4   16.27    1.90   2
  -4   7  -4   16.39    1.97   1
   4  -7   4   14.25    1.89   4
  -4  -7  -4   17.42    2.07   3
   3  -8  -4    3.33    1.50   4
  -3   8   4    0.84    1.45   1
   3   8  -4    1.24    1.49   2
   2   8  -4    1.61    1.34   2
  -2  -8   4    1.68    1.63   4
   2  -8  -4   -0.07    1.29   4
  -2   8   4   -1.73    1.28   1
  -1  -8   4   -0.39    1.19   4
  -1   8   4    3.93    1.36   1
   1   8  -4    5.37    1.48   2
   1  -8  -4    4.32    1.39   4
   0   8   4    2.95    1.36   1
   0  -8  -4    6.05    1.41   4
   0   8  -4    3.75    1.34   1
   0  -8   4    3.11    1.34   4
  -1   8  -4    2.15    1.32   1
   1   8   4    2.06    1.26   1
  -1  -8  -4    1.32    1.24   3
   1  -8   4    0.01    1.28   4
  -2   8  -4    3.23    1.40   1
  -2  -8  -4    4.23    1.46   3
   2  -8   4    1.35    1.34   4
   2   8   4    0.38    1.25   1
  -3   8  -4   -1.06    1.43   1
   3  -8   4    1.48    1.41   4
  -3  -8  -4    0.22    1.48   3
  -7   0   5   -2.06    1.28   3
  -6   0   5   -0.33    1.11   3
   6   0  -5    0.36    0.96   2
  -6   0   5    1.12    1.01   4
  -5   0   5    0.28    0.80   4
  -5   0   5   -0.86    0.81   3
   5   0  -5   -0.15    0.73   2
  -4   0   5   -0.48    0.60   4
  -4   0   5   -0.27    0.61   3
   4   0  -5   -0.14    0.57   2
  -4   0   5   -0.57    0.46   1
  -3   0   5   -0.08    0.50   3
  -3   0   5    0.25    0.36   1
  -3   0   5   -0.14    0.47   4
   3   0  -5   -0.25    0.43   2
  -2   0   5    0.51    0.42   3
  -2   0   5    0.06    0.43   4
  -2   0   5    0.05    0.25   1
   2   0  -5   -0.37    0.34   2
  -1   0   5    0.22    0.37   4
  -1   0   5    0.29    0.24   1
  -1   0   5   -0.17    0.33   3
   1   0  -5    0.41    0.31   2
   0   0   5   -0.01    0.31   4
   0   0   5   -0.09    0.26   1
   0   0  -5   -0.28    0.31   2
   0   0  -5    0.05    0.29   3
   1   0   5   -0.11    0.32   1
  -1   0  -5   -0.14    0.34   2
   1   0   5    0.20    0.26   4
  -1   0  -5   -0.65    0.28   3
   2   0   5    0.00    0.28   4
  -2   0  -5   -0.02    0.35   3
   2   0   5    0.12    0.43   5
  -2   0  -5    0.13    0.43   2
   2   0   5   -0.10    0.35   1
  -3   0  -5   -0.87    0.50   2
   3   0   5   -0.08    0.52   5
   3   0   5    0.47    0.48   1
  -3   0  -5   -0.06    0.45   3
   3   0   5    0.59    0.38   4
  -4   0  -5   -0.68    0.62   3
   4   0   5    0.99    0.68   5
   4   0   5    0.52    0.59   1
  -4   0  -5    0.99    0.72   2
  -5   0  -5   -0.35    0.83   2
  -5   0  -5    0.11    0.76   3
   5   0   5   -0.92    0.73   1
  -6   0  -5    2.86    1.10   3
   6   0   5    0.55    0.98   1
  -6   0  -5    2.18    1.08   2
  -7   0  -5    1.40    1.45   2
  -7   0  -5    1.48    1.39   3
  -7   1   5    1.35    1.36   3
  -7  -1   5    1.97    1.51   3
   7   1  -5    0.46    1.37   2
  -7   1   5    4.06    1.46   4
  -6   1   5   23.94    1.87   3
  -6   1   5   18.76    1.70   4
   6   1  -5   20.35    1.80   2
  -6  -1   5   25.18    2.01   3
  -6  -1   5   19.60    1.65   4
  -5   1   5    0.33    0.83   4
   5  -1  -5    1.48    0.78   2
   5   1  -5    0.98    0.84   2
  -5  -1   5   -0.06    0.86   3
  -5  -1   5    0.26    0.80   4
  -5   1   5    1.60    0.79   1
  -5   1   5    0.23    0.84   3
   4  -1  -5   -0.02    0.53   2
  -4  -1   5    0.37    0.61   4
  -4   1   5    0.01    0.66   3
   4   1  -5    0.30    0.65   2
  -4   1   5    0.68    0.58   1
  -4   1   5    0.70    0.66   4
  -4  -1   5    1.14    0.75   3
  -3  -1   5   73.70    2.20   4
  -3   1   5   74.46    2.26   3
  -3   1   5   75.22    1.93   1
   3   1  -5   70.29    2.18   2
  -3   1   5   74.05    2.28   4
   3  -1  -5   75.05    1.98   2
  -3  -1   5   71.59    2.29   3
   2  -1  -5   70.18    2.03   3
  -2  -1   5   74.72    2.07   3
  -2   1   5   71.24    1.77   1
  -2   1   5   73.90    2.08   4
   2  -1  -5   72.40    1.72   2
  -2  -1   5   73.34    2.04   4
   2   1  -5   71.72    2.00   2
  -1  -1   5   87.67    2.13   4
  -1   1   5   84.09    1.90   1
  -1   1   5   83.04    2.11   4
   1  -1  -5   82.36    1.74   2
   1  -1  -5   82.05    2.08   3
  -1  -1   5   83.59    2.02   3
   1   1  -5   84.78    2.08   2
   0   1   5  701.14   12.45   1
   0   1  -5  698.84   12.94   2
   0  -1   5  696.51   13.19   4
   0   1  -5  701.72   12.37   1
   0   1  -5  693.52   12.86   3
   0  -1  -5  705.67   12.75   2
   0  -1  -5  694.70   13.04   3
   0   1   5  695.06   13.09   4
  -1  -1  -5  243.65    4.95   3
   1  -1   5  247.86    4.95   4
  -1   1  -5  245.83    4.76   1
  -1   1  -5  238.21    4.93   2
  -1  -1  -5  245.29    4.85   2
  -2   1  -5    8.58    0.74   1
   2   1   5    8.69    0.71   1
  -2   1  -5    8.81    0.52   3
   2  -1   5    8.77    0.67   4
  -2  -1  -5    7.55    0.71   2
  -2  -1  -5    9.33    0.75   3
  -2   1  -5    7.54    0.72   2
  -3  -1  -5   11.47    0.95   3
  -3   1  -5   12.65    0.98   1
  -3   1  -5   12.27    1.03   2
   3  -1   5   12.24    0.86   4
   3   1   5   12.30    0.92   1
  -3   1  -5   12.47    0.80   3
  -3  -1  -5   10.68    0.96   2
   4  -1   5   48.66    2.05   5
  -4   1  -5   47.78    1.76   3
  -4   1  -5   47.24    1.98   2
   4  -1   5   46.92    1.68   4
  -4  -1  -5   49.89    2.06   2
   4  -1   5   43.60    1.84   1
  -4  -1  -5   47.55    1.93   3
   4   1   5   48.16    1.84   1
   5  -1   5    6.40    1.14   5
  -5   1  -5    5.10    1.03   2
  -5   1  -5    5.42    0.96   3
   5  -1   5    7.64    1.09   1
   5   1   5    5.20    0.99   1
  -5  -1  -5    5.82    1.12   2
  -5  -1  -5    4.54    1.04   3
  -6   1  -5   -0.80    0.98   3
  -6  -1  -5    0.83    1.14   2
   6  -1   5    1.87    1.09   5
  -6  -1  -5    1.18    1.05   3
  -6   1  -5    0.06    1.00   2
   6  -1   5    0.99    0.95   1
   6   1   5   -0.60    0.97   1
  -7  -1  -5    9.10    1.67   3
  -7   1  -5    9.22    1.68   2
  -7  -1  -5    6.49    1.68   2
   7   2  -5    1.78    1.54   2
  -7   2   5    5.67    1.56   4
   7  -2  -5    6.41    1.67   3
  -7  -2   5    7.29    1.85   3
   6  -2  -5    1.71    1.15   3
  -6  -2   5   -0.38    1.16   3
  -6   2   5    0.47    1.11   4
   6   2  -5    2.44    1.28   2
  -5  -2   5   -0.24    0.84   4
  -5   2   5    0.63    0.91   4
   5  -2  -5   -0.60    0.86   3
  -5   2   5   -0.68    0.83   1
  -5  -2   5    1.09    0.92   3
   5   2  -5   -0.56    0.87   2
   4  -2  -5  192.90    4.70   3
  -4  -2   5  188.09    4.60   4
  -4   2   5  191.69    4.37   1
  -4   2   5  192.57    4.84   4
   4   2  -5  191.27    4.75   2
   4  -2  -5  188.58    4.25   2
  -4  -2   5  190.35    4.82   3
  -3   2   5   59.32    1.91   1
   3  -2  -5   58.36    2.05   3
   3  -2  -5   64.51    1.70   2
  -3  -2   5   63.72    2.03   4
  -3  -2   5   63.76    2.24   3
   3   2  -5   62.19    2.12   2
  -3   2   5   62.06    2.16   4
   2  -2  -5   11.86    0.88   3
  -2   2   5   11.82    0.84   1
   2   2  -5   13.00    0.93   2
  -2  -2   5   12.01    0.89   4
  -2   2   5   10.83    0.88   4
  -2  -2   5   12.48    0.90   3
  -1  -2   5  102.20    2.59   4
   1  -2  -5  102.88    2.55   3
   1   2  -5  102.77    2.07   1
  -1  -2   5  104.03    2.42   3
  -1   2   5  102.20    2.42   1
   0  -2  -5   64.65    1.82   3
   0   2  -5   61.21    1.76   2
   0  -2  -5   61.97    1.43   2
   0   2   5   64.35    1.71   1
   0   2  -5   60.87    1.53   1
   0   2   5   64.82    1.67   4
   0  -2   5   60.60    1.44   3
  -1  -2  -5  162.91    3.65   3
  -1   2  -5  161.78    3.59   2
  -1  -2  -5  160.31    3.26   4
   1  -2   5  167.46    3.67   4
  -1  -2  -5  160.97    3.43   2
   1   2   5  164.16    3.48   1
  -1   2  -5  155.39    3.44   1
  -2   2  -5 2440.88   44.41   2
  -2   2  -5 2471.39   43.01   1
  -2  -2  -5 2433.44   44.87   3
   2   2   5 2420.21   42.88   1
  -2  -2  -5 2494.07   44.40   2
   2  -2   5 2446.85   45.34   4
  -3  -2  -5  104.74    2.92   3
   3   2   5  105.75    2.72   1
   3  -2   5  103.15    2.79   4
  -3   2  -5  100.20    2.80   2
  -3  -2  -5  102.11    2.91   2
  -3   2  -5  104.86    2.42   3
  -3   2  -5  108.19    2.87   1
  -4   2  -5    1.60    0.76   2
   4  -2   5    1.75    0.73   4
  -4   2  -5    3.69    0.69   3
   4   2   5    4.12    0.80   1
  -4  -2  -5    1.99    0.87   3
  -4  -2  -5    2.29    0.82   2
  -4   2  -5    2.99    0.84   1
   5  -2   5   20.55    1.47   4
  -5  -2  -5   21.16    1.67   3
   5   2   5   21.90    1.51   1
  -5   2  -5   24.11    1.66   2
  -5  -2  -5   22.59    1.71   2
  -5   2  -5   22.02    1.65   1
   6  -2   5    0.64    0.95   1
   6  -2   5   -0.51    1.07   5
  -6  -2  -5   -0.34    1.12   3
  -6  -2  -5    2.29    1.23   2
  -6   2  -5   -1.59    0.97   2
   7  -2   5    3.36    1.42   1
   7  -2   5    2.30    1.37   5
  -7   2  -5    1.95    1.40   2
  -7  -2  -5    3.90    1.51   3
   7   2   5   -0.22    1.42   2
   7   3  -5    0.48    1.48   2
  -7  -3   5    0.19    1.81   3
  -7   3   5    1.75    1.56   4
   6   3  -5    0.36    1.25   2
   6  -3  -5    0.79    1.19   3
  -6   3   5    0.96    1.25   4
  -6   3   5    0.38    1.14   1
  -6  -3   5    1.24    1.37   3
  -5  -3   5   29.34    2.07   3
   5   3  -5   27.01    1.96   2
  -5   3   5   25.32    1.71   1
  -5  -3   5   23.91    1.75   4
  -5   3   5   25.75    1.89   4
   5  -3  -5   26.03    1.81   3
  -4   3   5   13.97    1.45   4
  -4   3   5   15.83    1.34   1
   4   3  -5   14.58    1.46   2
  -4  -3   5   19.14    1.56   3
  -4  -3   5   18.06    1.35   4
   4  -3  -5   19.76    1.43   3
  -3  -3   5    3.01    0.80   4
  -3   3   5    4.24    0.93   4
  -3   3   5    3.72    0.79   1
  -3  -3   5    3.43    0.84   3
   3   3  -5    2.60    0.87   2
   3  -3  -5    4.05    0.81   3
  -2   3   5   85.26    2.39   1
   2   3  -5   81.73    2.51   2
  -2  -3   5   84.13    2.44   4
   2   3  -5   83.54    1.88   1
   2  -3  -5   84.63    2.44   3
  -2   3   5   84.20    2.56   4
  -2  -3   5   85.28    2.42   3
  -1  -3   5  102.34    2.48   3
  -1   3   5   99.23    2.66   4
  -1   3   5   96.21    2.53   1
   1   3  -5   95.34    2.65   2
   1   3  -5   98.14    2.23   1
   1  -3  -5  101.77    2.65   3
  -1  -3   5   98.75    2.67   4
   0   3  -5    6.35    0.74   2
   0  -3   5    7.51    0.52   3
   0  -3  -5    6.71    0.73   3
   0   3   5    6.43    0.46   2
   0   3   5    6.18    0.72   1
   0   3   5    6.13    0.65   4
   0  -3   5    7.51    0.78   4
   0   3  -5    7.00    0.63   1
  -1  -3  -5    2.48    0.44   4
   1  -3   5    3.13    0.64   4
  -1  -3  -5    1.71    0.57   3
   1   3   5    1.69    0.56   1
   1   3   5    2.28    0.47   2
  -1   3  -5    1.71    0.57   2
  -1   3  -5    1.74    0.53   1
   2  -3   5   55.02    1.96   4
  -2   3  -5   54.80    1.85   2
  -2  -3  -5   54.48    1.96   3
   2   3   5   52.68    1.83   1
  -2   3  -5   57.48    1.91   1
  -3  -3  -5   15.61    1.20   2
  -3  -3  -5   13.52    1.21   3
   3   3   5   15.05    1.15   1
   3  -3   5   16.81    1.19   4
  -3   3  -5   15.53    1.14   2
  -3   3  -5   14.36    1.18   1
   4  -3   5    2.78    0.84   4
  -4   3  -5    2.04    0.88   1
   4   3   5    2.71    0.84   1
  -4   3  -5    4.06    0.99   2
   4   3   5    3.79    0.92   2
  -4  -3  -5    1.68    0.94   3
  -5   3  -5   10.37    1.39   1
  -5   3  -5    9.89    1.29   2
   5   3   5   10.58    1.37   2
  -5  -3  -5    8.21    1.37   3
   5   3   5   12.47    1.27   1
   5  -3   5    8.06    1.19   4
  -6   3  -5    6.46    1.43   1
   6   3   5    7.50    1.47   2
  -6   3  -5    6.89    1.41   2
  -6  -3  -5    8.52    1.63   3
  -7   3  -5    1.28    1.40   2
  -7  -3  -5   -1.11    1.52   3
   7   3   5    1.28    1.49   2
   7  -3   5   -0.59    1.35   1
   7  -3   5    1.32    1.59   5
  -6  -4   5   -1.71    1.43   3
  -6   4   5    0.11    1.20   1
  -6   4   5    0.45    1.30   4
   6   4  -5   -0.01    1.36   2
  -5  -4   5    2.23    1.23   3
   5   4  -5    1.56    1.19   2
  -5   4   5    0.76    1.02   1
   5  -4  -5    1.23    1.06   3
  -5   4   5    3.03    1.25   4
  -4  -4   5    5.15    1.03   4
   4  -4  -5    5.48    1.10   3
  -4   4   5    7.94    1.12   1
  -4  -4   5    7.05    1.21   3
   4   4  -5    5.29    1.15   2
  -4   4   5    3.67    1.17   4
  -3   4   5  120.98    3.42   1
   3   4  -5  125.22    3.65   2
  -3  -4   5  125.74    3.53   3
   3  -4  -5  121.69    3.50   3
  -3  -4   5  123.17    3.41   4
  -3   4   5  121.36    3.69   4
  -2  -4   5   93.30    2.82   4
  -2   4   5   98.93    3.00   4
  -2   4   5  100.54    2.87   1
   2  -4  -5   94.71    2.85   3
  -2  -4   5  102.20    2.83   3
   2   4  -5   96.27    2.97   2
   2   4  -5   95.09    2.32   1
  -1  -4   5    5.91    0.72   3
  -1   4   5    5.94    0.84   1
   1   4  -5    5.35    0.85   2
   1  -4  -5    3.33    0.75   3
   1   4  -5    4.50    0.67   1
  -1   4   5    4.99    0.82   4
  -1  -4   5    5.57    0.84   4
   0  -4  -5    7.51    0.79   4
   0   4   5    7.16    0.58   2
   0   4  -5    6.38    0.85   2
   0  -4  -5    7.10    0.88   3
   0   4   5    5.56    0.83   1
   0  -4   5    5.46    0.84   4
   0  -4   5    7.17    0.65   3
   0   4  -5    6.49    0.78   1
  -1   4  -5   11.75    1.01   1
   1   4   5   11.82    0.88   2
   1  -4   5   12.91    1.11   4
   1   4   5   13.24    1.09   1
  -1  -4  -5   12.57    0.91   4
  -1   4  -5   13.62    1.05   2
  -1  -4  -5   11.18    1.09   3
  -2  -4  -5    3.65    0.54   4
  -2   4  -5    3.67    0.76   2
  -2   4  -5    5.13    0.85   1
   2  -4   5    5.00    0.91   4
   2   4   5    4.12    0.73   2
  -2  -4  -5    3.32    0.84   3
   2   4   5    5.22    0.86   1
  -3   4  -5   24.95    1.47   2
   3   4   5   24.05    1.55   1
  -3   4  -5   23.30    1.52   1
   3   4   5   25.37    1.53   2
   3  -4   5   26.74    1.63   4
  -3  -4  -5   24.24    1.68   3
   4   4   5   24.61    1.61   1
  -4   4  -5   20.86    1.50   2
  -4   4  -5   19.71    1.59   1
   4  -4   5   18.78    1.53   4
   4   4   5   21.47    1.63   2
  -4  -4  -5   19.56    1.69   3
  -5   4  -5    4.26    1.15   2
  -5  -4  -5    3.34    1.25   3
   5   4   5    2.82    1.12   2
   5  -4   5    3.49    1.08   4
  -5   4  -5    3.00    1.22   1
   6   4   5    1.13    1.32   2
  -6  -4  -5    0.29    1.41   3
  -6   4  -5   -0.81    1.20   1
  -6  -5   5   16.93    2.29   3
  -6   5   5   17.15    2.04   1
   6  -5  -5   21.04    2.17   4
   6   5  -5   19.01    2.29   2
  -5  -5   5    5.24    1.57   3
  -5   5   5    4.26    1.28   1
   5  -5  -5    5.77    1.40   4
   5   5  -5    2.97    1.47   2
  -4  -5   5    2.22    1.10   4
  -4  -5   5   -0.09    1.03   3
   4  -5  -5    1.88    1.07   4
  -4   5   5    1.49    1.03   1
   4   5  -5   -0.10    1.02   2
  -3   5   5    2.09    0.95   1
   3  -5  -5    2.62    0.88   3
   3  -5  -5    1.99    0.92   4
   3   5  -5    2.25    0.99   2
  -3  -5   5    2.28    0.90   4
  -3  -5   5    2.28    0.93   3
  -2  -5   5    2.19    0.93   4
   2  -5  -5    3.24    0.87   4
  -2  -5   5    2.28    0.82   3
  -2   5   5    2.77    0.92   1
   2  -5  -5    3.26    0.88   3
   2   5  -5    2.34    0.89   2
   1  -5  -5   23.04    1.57   3
  -1   5   5   23.35    1.53   1
  -1  -5   5   20.75    1.37   3
   1   5  -5   22.42    1.60   2
  -1  -5   5   21.17    1.51   4
   1  -5  -5   21.62    1.52   4
   1   5  -5   21.95    1.30   1
   0  -5  -5  379.03    8.03   3
   0  -5   5  378.36    8.21   4
   0   5  -5  373.00    7.62   1
   0   5   5  377.57    7.83   1
   0   5   5  368.60    7.36   2
   0  -5  -5  380.19    8.01   4
   0   5  -5  376.99    7.94   2
   1   5   5  107.43    3.12   1
  -1  -5  -5  107.21    2.91   4
   1  -5   5  103.36    3.26   4
  -1   5  -5  105.37    3.03   1
   1   5   5  101.93    2.76   2
  -1  -5  -5  107.61    3.23   3
  -1   5  -5  103.35    3.05   2
  -2  -5  -5    4.76    1.02   3
  -2   5  -5    4.76    0.90   2
  -2   5  -5    3.72    0.92   1
   2   5   5    4.15    0.86   2
   2  -5   5    4.76    1.03   4
   2   5   5    6.63    1.03   1
   3   5   5   12.13    1.31   1
  -3   5  -5    9.95    1.35   1
  -3  -5  -5   11.89    1.39   3
   3  -5   5   11.59    1.39   4
  -3   5  -5   12.53    1.19   2
   3   5   5   10.63    1.24   2
   4   5   5    3.92    1.10   1
   4  -5   5    2.74    1.08   4
  -4   5  -5    4.72    1.02   2
  -4   5  -5    1.84    1.07   1
   4   5   5    4.39    1.10   2
  -4  -5  -5    5.22    1.25   3
  -5   5  -5    0.42    1.20   1
   5   5   5    0.35    1.16   2
   5  -5   5   -0.25    1.09   4
  -5  -5  -5   -0.69    1.29   3
  -6  -5  -5   -2.44    1.58   3
  -6   5  -5    1.22    1.46   1
   6  -5   5    0.52    1.30   4
   6   5   5    1.60    1.47   2
  -5  -6   5    0.30    1.43   3
   5  -6  -5   -0.22    1.27   4
   5   6  -5   -2.89    1.35   2
  -5   6   5   -0.27    1.26   1
  -4   6   5    5.50    1.33   1
   4   6  -5    2.87    1.36   2
  -4  -6   5    3.05    1.34   3
   4  -6  -5    3.91    1.31   4
  -3   6   5    2.41    1.14   1
   3  -6  -5    2.33    1.14   4
   3   6  -5    3.67    1.19   2
  -3  -6   5    5.22    1.22   3
  -3  -6   5    2.89    1.07   4
  -2   6   5    2.28    1.01   1
   2  -6  -5    1.61    0.96   3
  -2  -6   5    2.77    1.10   4
  -2  -6   5    1.24    0.92   3
   2  -6  -5    2.69    1.00   4
   2   6  -5    1.10    1.03   2
   1   6  -5    1.67    0.81   1
  -1  -6   5    2.18    0.97   4
   1   6  -5    3.94    1.05   2
  -1   6   5   -0.21    0.88   1
   1  -6  -5    2.11    0.92   4
   1  -6  -5    2.77    0.95   3
   0  -6   5    0.80    0.89   4
   0  -6  -5   -0.24    0.85   4
   0   6   5    1.19    0.91   1
   0  -6  -5   -0.09    0.89   3
   0   6  -5   -0.22    0.85   2
   0   6  -5    0.11    0.87   1
  -1  -6  -5    9.71    1.12   4
  -1   6  -5    8.82    1.21   1
  -1   6  -5    8.63    1.17   2
   1   6   5   10.62    1.25   1
   1  -6   5    9.87    1.38   4
  -1  -6  -5   11.02    1.30   3
   2   6   5   15.64    1.49   1
  -2  -6  -5   19.18    1.68   3
  -2   6  -5   15.25    1.52   1
   2  -6   5   16.49    1.62   4
  -2   6  -5   16.48    1.39   2
   2   6   5   16.20    1.36   2
  -3   6  -5   -0.78    0.93   1
   3   6   5   -0.35    0.91   2
   3  -6   5   -0.21    0.98   4
  -3  -6  -5    0.49    1.04   3
   3   6   5   -0.07    0.94   1
   4   6   5    0.82    1.12   2
  -4  -6  -5    1.22    1.25   3
   4  -6   5    0.62    1.08   4
  -4   6  -5   -0.17    1.21   1
  -5   6  -5   10.09    1.79   1
   5   6   5    6.71    1.56   2
   5  -6   5    6.95    1.56   4
  -5  -6  -5   11.22    2.04   3
   4  -7  -5    0.48    1.34   4
  -4   7   5    3.30    1.41   1
  -4  -7   5    1.47    1.48   3
   4   7  -5    0.17    1.41   2
  -3   7   5    0.01    1.11   1
  -3  -7   5    0.16    1.24   3
   3   7  -5    1.58    1.30   2
   3  -7  -5   -1.33    1.16   4
  -2  -7   5   -0.42    1.17   4
   2   7  -5    0.98    1.17   2
   2  -7  -5    0.11    1.09   4
  -2   7   5    0.10    1.08   1
   1  -7  -5   29.58    2.00   3
   1  -7  -5   28.42    1.95   4
  -1  -7   5   25.89    1.90   4
  -1   7   5   28.47    2.01   1
   1   7  -5   31.50    2.14   2
   0   7   5    7.33    1.30   1
   0  -7  -5    5.78    1.24   4
   0   7  -5    5.54    1.19   1
   0   7  -5    4.86    1.16   2
   0  -7  -5    5.37    1.22   3
   0  -7   5    7.79    1.35   4
   1   7   5    6.39    1.25   1
  -1  -7  -5    3.73    1.20   3
   1  -7   5    2.58    1.24   4
  -1   7  -5    3.38    1.12   1
  -1   7  -5    6.23    1.17   2
  -2  -7  -5    0.34    1.08   3
   2   7   5    0.80    1.04   1
   2  -7   5   -1.58    1.10   4
  -2   7  -5    2.28    1.14   1
   3   7   5    1.34    1.17   1
   3  -7   5   -0.33    1.17   4
  -3   7  -5   -0.02    1.22   1
  -3  -7  -5    1.68    1.32   3
   3   7   5    0.48    1.16   2
   4   7   5    8.31    1.63   2
  -4   7  -5    4.60    1.69   1
   4  -7   5    4.28    1.55   4
  -4  -7  -5   10.15    1.85   3
  -3   8   5    3.00    1.56   1
   3   8  -5    4.18    1.63   2
   3  -8  -5    1.24    1.53   4
  -2   8   5    0.48    1.33   1
   2  -8  -5   -0.48    1.33   4
  -2  -8   5    1.77    1.51   4
   2   8  -5    0.82    1.39   2
  -1  -8   5    3.49    1.39   4
   1   8  -5    2.85    1.36   2
   1  -8  -5    0.41    1.24   4
  -1   8   5    2.09    1.32   1
   0  -8  -5    0.53    1.19   4
   0  -8   5    2.51    1.36   4
   0   8   5    1.86    1.36   1
   0   8  -5    2.63    1.31   1
   1   8   5   -0.46    1.19   1
  -1  -8  -5    0.43    1.29   3
  -1   8  -5    2.87    1.33   1
   1  -8   5   -0.01    1.22   4
   2   8   5    9.64    1.68   1
  -2   8  -5   11.09    1.72   1
   2  -8   5    9.86    1.73   4
  -2  -8  -5   12.13    1.80   3
  -3  -8  -5    3.49    1.60   3
   3  -8   5   -0.38    1.49   4
  -3   8  -5    1.58    1.51   1
  -7   0   6    0.03    1.47   3
  -6   0   6   13.48    1.68   3
  -6   0   6   13.68    1.55   4
   6   0  -6   15.43    1.58   2
  -5   0   6   31.45    1.79   4
  -5   0   6   32.99    1.92   3
   5   0  -6   32.05    1.76   2
  -4   0   6    4.29    0.60   1
  -4   0   6    2.90    0.83   3
   4   0  -6    2.77    0.74   2
  -4   0   6    3.99    0.85   4
  -3   0   6  111.52    2.38   1
  -3   0   6  113.62    3.01   4
   3   0  -6  113.89    2.80   2
  -3   0   6  108.69    2.97   3
  -2   0   6 2114.68   39.44   3
  -2   0   6 2145.77   39.90   4
  -2   0   6 2160.71   37.43   1
   2   0  -6 2194.55   38.92   2
  -1   0   6   37.51    0.93   1
   1   0  -6   35.80    1.24   3
  -1   0   6   37.31    1.27   4
   1   0  -6   35.86    1.15   2
   0   0  -6   51.19    1.39   3
   0   0   6   51.95    1.32   1
   0   0  -6   51.14    1.43   2
   0   0   6   51.90    1.42   4
   1   0   6  130.02    2.75   4
  -1   0  -6  132.41    2.94   2
  -1   0  -6  128.71    2.79   3
   1   0   6  132.67    2.81   1
  -2   0  -6  345.73    6.83   3
   2   0   6  347.47    6.74   4
  -2   0  -6  352.69    7.03   2
   2   0   6  355.90    7.54   5
   3   0   6  169.95    3.84   1
  -3   0  -6  170.28    3.82   3
   3   0   6  163.82    3.56   4
   3   0   6  168.18    4.26   5
  -3   0  -6  174.90    4.06   2
  -4   0  -6  138.56    3.53   3
  -4   0  -6  140.02    3.78   2
   4   0   6  140.46    3.55   1
   5   0   6    7.01    1.06   1
  -5   0  -6    5.19    1.05   2
  -5   0  -6    6.49    1.08   3
   6   0   6    0.16    0.99   1
  -6   0  -6    0.34    1.01   2
  -6   0  -6    1.24    1.04   3
  -7   0  -6    9.31    1.72   2
  -7  -1   6   -1.04    1.49   3
   7   1  -6    0.70    1.41   2
  -7   1   6    0.50    1.35   4
  -6  -1   6   11.25    1.55   3
  -6   1   6   11.45    1.59   3
  -6   1   6    9.93    1.46   4
   6   1  -6   11.46    1.50   2
  -6  -1   6   11.21    1.44   4
  -5   1   6   10.88    1.29   3
  -5  -1   6    7.46    1.15   4
   5  -1  -6    9.75    1.08   2
  -5  -1   6    7.15    1.24   3
   5   1  -6    9.69    1.22   2
  -5   1   6    8.41    1.19   4
  -5   1   6    9.60    0.99   1
  -4   1   6    9.51    1.04   3
  -4   1   6    8.65    1.08   4
  -4   1   6    9.06    0.86   1
  -4  -1   6    8.95    1.11   3
   4   1  -6    7.25    0.99   2
   4  -1  -6    7.42    0.85   2
  -4  -1   6    6.41    0.95   4
   3  -1  -6   11.29    0.97   3
   3  -1  -6   11.83    0.79   2
  -3   1   6   10.46    0.99   4
  -3  -1   6   12.28    1.02   3
   3   1  -6   11.49    0.99   2
  -3  -1   6   12.32    0.98   4
  -3   1   6   11.76    0.79   1
  -2  -1   6  251.77    5.41   3
   2   1  -6  258.85    5.35   2
   2  -1  -6  261.32    5.03   2
  -2   1   6  257.58    5.53   4
  -2   1   6  256.48    4.97   1
   2  -1  -6  256.93    5.45   3
  -2  -1   6  260.67    5.49   4
  -1   1   6   63.92    1.77   4
   1   1  -6   60.86    1.75   2
  -1  -1   6   64.34    1.80   4
   1  -1  -6   62.44    1.43   2
  -1  -1   6   62.34    1.68   3
   1  -1  -6   62.33    1.76   3
  -1   1   6   64.31    1.58   1
   0  -1   6  639.57   12.56   5
   0   1   6  643.96   12.01   4
   0  -1   6  630.08   11.30   1
   0   1  -6  650.46   11.78   3
   0  -1  -6  647.00   11.67   2
   0  -1  -6  629.49   11.97   3
   0  -1   6  629.42   12.11   4
   0   1   6  623.31   11.43   1
   0   1  -6  627.52   11.88   2
   1  -1   6 1497.64   27.22   4
  -1   1  -6 1459.60   26.75   2
  -1   1  -6 1493.71   25.83   1
  -1  -1  -6 1485.99   26.96   3
   1   1   6 1462.72   27.08   4
   1   1   6 1443.05   25.81   1
  -1  -1  -6 1430.03   26.65   2
   2  -1   6  235.09    4.85   4
  -2   1  -6  239.13    4.98   2
  -2  -1  -6  234.37    4.91   3
  -2   1  -6  229.62    4.55   3
  -2  -1  -6  226.23    4.92   2
  -2   1  -6  231.67    4.81   1
   2   1   6  229.22    4.75   1
  -3   1  -6   92.57    2.65   2
  -3   1  -6   95.77    2.60   1
   3   1   6   95.17    2.52   1
  -3  -1  -6   90.53    2.57   3
   3  -1   6   91.70    2.41   4
  -3   1  -6   94.09    2.33   3
  -3  -1  -6   91.10    2.69   2
   4  -1   6    4.10    0.95   5
   4  -1   6    3.44    0.67   4
   4   1   6    3.77    0.81   1
  -4   1  -6    2.34    0.67   3
  -4  -1  -6    3.56    0.86   3
  -4  -1  -6    2.64    0.82   2
  -4   1  -6    2.58    0.80   2
   4  -1   6    3.18    0.79   1
  -5   1  -6    0.80    0.91   2
  -5  -1  -6    1.11    0.86   3
   5  -1   6    0.56    0.79   1
   5   1   6    0.62    0.82   1
  -5   1  -6    2.12    0.77   3
  -5  -1  -6   -0.79    0.79   2
   5  -1   6    0.58    0.84   5
  -6  -1  -6   18.29    1.82   2
   6  -1   6   25.44    1.84   1
  -6  -1  -6   19.40    1.75   3
   6   1   6   20.96    1.72   1
  -6   1  -6   20.76    1.84   2
   6  -1   6   15.03    1.72   5
  -7  -1  -6   25.01    2.15   3
   7  -1   6   21.62    2.00   1
  -7  -1  -6   17.97    2.14   2
  -7   1  -6   20.43    2.09   2
   7   2  -6   13.54    2.02   2
  -7  -2   6   15.61    2.18   3
   7  -2  -6   16.18    2.02   3
  -7   2   6   13.40    1.89   4
   6  -2  -6    8.95    1.49   3
  -6  -2   6    7.67    1.59   3
   6   2  -6    4.09    1.35   2
  -6   2   6    5.05    1.37   4
  -5   2   6    8.86    1.31   4
  -5   2   6   10.90    1.18   1
  -5  -2   6   11.12    1.23   4
  -5  -2   6    7.61    1.34   3
   5   2  -6    9.33    1.30   2
   5  -2  -6    6.01    1.18   3
  -4   2   6    6.06    0.89   1
  -4   2   6    3.32    0.93   4
   4  -2  -6    5.01    0.96   3
  -4  -2   6    3.56    0.97   3
  -4  -2   6    5.79    0.96   4
   4   2  -6    3.82    0.99   2
   3  -2  -6   20.23    1.35   3
  -3   2   6   21.48    1.21   1
  -3  -2   6   19.35    1.39   3
   3  -2  -6   18.23    0.93   2
  -3  -2   6   18.50    1.25   4
  -3   2   6   22.33    1.38   4
   3   2  -6   20.61    1.34   2
  -2  -2   6   91.92    2.54   4
  -2   2   6   93.73    2.60   4
  -2  -2   6   90.92    2.49   3
   2  -2  -6   92.22    2.52   3
   2   2  -6   93.21    2.55   2
  -2   2   6   94.01    2.34   1
   1   2  -6 1122.00   19.78   1
  -1  -2   6 1131.44   21.31   4
   1  -2  -6 1135.12   21.07   3
  -1   2   6 1130.87   20.11   1
   1   2  -6 1127.83   20.90   2
  -1  -2   6 1134.66   20.88   3
  -1   2   6 1126.51   21.27   4
   0  -2   6  352.29    6.63   3
   0  -2  -6  345.91    6.54   2
   0   2   6  346.81    6.69   1
   0  -2   6  354.06    7.10   4
   0   2  -6  350.66    6.53   1
   0  -2  -6  349.60    7.00   3
   0   2   6  353.28    6.91   4
   0   2  -6  345.60    6.95   2
   1  -2   6   47.36    1.59   4
  -1   2  -6   48.55    1.60   2
   1   2   6   44.12    1.18   4
   1   2   6   48.56    1.57   1
  -1   2  -6   46.95    1.48   1
  -1  -2  -6   46.38    1.60   3
  -1  -2  -6   45.06    1.42   2
   2   2   6  190.69    4.13   1
  -2  -2  -6  183.18    4.30   3
  -2  -2  -6  193.75    4.24   2
  -2   2  -6  183.08    4.25   2
  -2   2  -6  190.62    4.18   1
   2  -2   6  190.40    4.31   4
  -3   2  -6   56.05    1.57   3
  -3  -2  -6   59.43    2.08   2
  -3   2  -6   56.37    2.03   1
   3   2   6   56.47    1.93   1
  -3   2  -6   60.95    2.06   2
  -3  -2  -6   57.38    2.10   3
   3  -2   6   56.19    1.92   4
  -4  -2  -6    0.10    0.70   2
  -4   2  -6    0.63    0.73   1
  -4   2  -6    1.54    0.62   3
  -4  -2  -6   -0.21    0.75   3
   4   2   6    0.76    0.69   1
  -4   2  -6   -0.62    0.69   2
   4  -2   6   -0.24    0.59   4
  -5  -2  -6    3.95    1.15   2
  -5   2  -6    4.35    1.07   2
  -5   2  -6    2.28    1.03   1
   5   2   6    4.19    1.00   1
  -5  -2  -6    5.05    1.14   3
   6  -2   6    1.82    1.02   1
   6  -2   6    0.17    1.04   5
  -6  -2  -6   -1.83    1.03   2
  -6   2  -6    1.10    1.15   2
  -6  -2  -6    2.21    1.14   3
   7   2   6    3.71    1.60   2
  -7   2  -6    3.28    1.42   2
  -7  -2  -6    3.29    1.57   3
   7  -2   6    1.09    1.35   1
   7  -2   6    3.94    1.64   5
  -7   3   6    2.91    1.60   4
  -7  -3   6   -0.58    1.68   3
   7   3  -6   -2.49    1.50   2
  -6  -3   6    3.63    1.52   3
  -6   3   6    3.44    1.31   4
   6   3  -6    2.65    1.36   2
   6  -3  -6    2.48    1.27   3
  -5  -3   6   23.58    1.92   3
   5   3  -6   23.39    1.86   2
  -5  -3   6   25.08    1.71   4
  -5   3   6   21.72    1.84   4
   5  -3  -6   23.38    1.77   3
  -5   3   6   22.33    1.64   1
  -4   3   6  292.70    6.33   1
  -4  -3   6  280.93    6.58   4
   4   3  -6  288.76    6.79   2
  -4  -3   6  301.53    6.85   3
   4  -3  -6  291.72    6.65   3
  -4   3   6  295.62    6.93   4
   3  -3  -6  140.41    3.73   3
   3   3  -6  138.84    3.80   2
  -3   3   6  143.81    3.90   4
  -3  -3   6  146.25    3.81   3
  -3   3   6  145.67    3.58   1
  -3  -3   6  138.45    3.68   4
  -2   3   6    3.51    0.78   4
  -2  -3   6    4.33    0.76   4
  -2  -3   6    3.65    0.72   3
   2  -3  -6    4.33    0.77   3
   2   3  -6    4.17    0.80   2
  -2   3   6    3.43    0.71   1
   1  -3  -6   82.23    2.39   3
  -1   3   6   83.72    2.39   4
   1   3  -6   84.37    1.96   1
  -1  -3   6   82.18    2.40   4
  -1   3   6   82.96    2.31   1
  -1  -3   6   81.04    2.16   3
   1   3  -6   84.41    2.43   2
   0  -3  -6    0.59    0.54   3
   0   3  -6    1.40    0.57   2
   0   3   6    1.36    0.31   2
   0   3   6    1.29    0.54   1
   0  -3   6    1.20    0.56   4
   0   3   6    0.34    0.45   4
   0  -3   6    1.71    0.36   3
   0   3  -6    1.66    0.47   1
  -1   3  -6   14.26    0.96   1
   1   3   6   13.73    0.98   1
  -1  -3  -6   12.59    0.78   4
  -1  -3  -6   13.80    1.03   3
  -1   3  -6   15.69    1.02   2
   1  -3   6   14.29    1.05   4
   2   3   6  103.04    2.67   1
  -2   3  -6   97.10    2.68   1
  -2  -3  -6   95.67    2.64   2
  -2  -3  -6   95.13    2.78   3
   2  -3   6   91.65    2.75   4
  -2   3  -6   94.93    2.67   2
   3  -3   6   14.50    1.19   4
  -3   3  -6   14.53    1.19   2
  -3  -3  -6   11.83    1.21   3
   3   3   6   14.90    1.16   1
  -3   3  -6   12.72    1.19   1
  -3  -3  -6   14.40    1.21   2
  -4  -3  -6    5.90    1.14   3
   4  -3   6    6.54    1.00   4
  -4   3  -6    5.41    1.07   1
   4   3   6    5.41    0.95   1
  -4  -3  -6    6.41    1.10   2
  -4   3  -6    6.14    1.00   2
  -5  -3  -6    3.44    1.15   3
   5  -3   6    0.96    0.84   4
  -5   3  -6    1.05    1.03   1
   5   3   6    3.60    1.07   2
  -5   3  -6    1.42    0.97   2
   5   3   6    1.52    0.95   1
  -6  -3  -6    0.84    1.33   3
  -6   3  -6    1.14    1.21   2
   6   3   6    2.52    1.38   2
  -6   3  -6    1.71    1.25   1
   7  -3   6    2.64    1.63   5
   7  -3   6    3.34    1.53   1
  -7   3  -6    2.86    1.55   2
   7   3   6    2.83    1.65   2
  -7  -3  -6    2.78    1.59   3
  -6  -4   6    0.28    1.43   3
  -6   4   6   -0.03    1.34   4
  -6   4   6    2.98    1.40   1
   6   4  -6    1.53    1.44   2
  -5   4   6   26.92    2.11   4
   5   4  -6   25.86    2.07   2
  -5   4   6   26.05    1.87   1
   5  -4  -6   23.87    1.84   3
  -5  -4   6   22.89    2.03   3
  -4   4   6   -0.32    0.83   1
  -4   4   6   -1.61    0.91   4
  -4  -4   6    1.19    0.91   4
  -4  -4   6   -0.66    0.85   3
   4  -4  -6    0.68    0.91   3
   4   4  -6   -0.94    0.95   2
  -3  -4   6   68.38    2.54   3
  -3  -4   6   69.72    2.47   4
   3   4  -6   68.07    2.65   2
  -3   4   6   69.71    2.48   1
  -3   4   6   71.33    2.69   4
   3  -4  -6   73.24    2.62   3
  -2   4   6  108.24    3.06   1
  -2   4   6  108.96    3.24   4
   2   4  -6  109.46    3.23   2
   2  -4  -6  103.46    3.11   3
  -2  -4   6  108.27    3.01   3
  -2  -4   6  114.10    3.16   4
  -1   4   6   22.35    1.36   1
   1  -4  -6   24.25    1.46   3
  -1  -4   6   25.21    1.44   4
   1   4  -6   22.90    1.17   1
  -1  -4   6   26.08    1.29   3
  -1   4   6   23.61    1.40   4
   1   4  -6   26.50    1.53   2
   0   4   6   47.03    1.37   2
   0  -4  -6   51.02    1.94   3
   0   4   6   50.16    1.91   1
   0   4  -6   50.91    1.71   1
   0  -4   6   49.65    1.93   4
   0  -4   6   49.41    1.52   3
   0  -4  -6   48.36    1.78   4
   0   4  -6   50.30    1.89   2
   1   4   6  170.30    4.17   1
  -1  -4  -6  181.40    4.00   4
   1  -4   6  183.41    4.48   4
  -1   4  -6  185.35    4.27   2
   1   4   6  177.37    3.93   2
  -1  -4  -6  178.13    4.39   3
  -1   4  -6  169.45    4.08   1
  -2   4  -6    8.74    1.03   1
  -2  -4  -6    9.00    1.12   3
  -2   4  -6   10.22    1.04   2
   2   4   6    9.51    0.93   2
   2   4   6   11.08    1.10   1
  -2  -4  -6    9.27    0.69   4
   2  -4   6   10.38    1.12   4
   3   4   6    2.46    0.91   1
   3   4   6    3.30    0.85   2
  -3   4  -6    3.63    0.86   2
   3  -4   6    4.08    0.93   4
  -3  -4  -6    2.69    0.90   3
  -3   4  -6    4.43    0.98   1
  -4  -4  -6   27.62    1.95   3
   4   4   6   24.21    1.75   2
  -4   4  -6   26.09    1.74   1
   4  -4   6   22.29    1.61   4
  -4   4  -6   26.91    1.70   2
   4   4   6   25.49    1.74   1
   5  -4   6   10.93    1.41   4
   5   4   6   11.18    1.49   2
  -5   4  -6   10.67    1.41   2
   5   4   6   11.72    1.40   1
  -5   4  -6   10.70    1.55   1
  -5  -4  -6   10.71    1.64   3
  -6  -4  -6    2.28    1.60   3
   6   4   6    0.64    1.33   2
  -6   4  -6    1.07    1.36   1
  -6   4  -6    1.19    1.28   2
   6   5  -6   -1.75    1.56   2
  -6  -5   6    1.07    1.62   3
  -6   5   6    2.17    1.47   1
   6  -5  -6    3.03    1.51   4
  -5  -5   6   -0.01    1.25   3
   5   5  -6   -1.06    1.24   2
  -5   5   6   -0.42    1.27   4
  -5   5   6    0.15    1.08   1
  -4  -5   6    3.21    1.18   4
   4   5  -6    2.32    1.19   2
  -4  -5   6    3.99    1.22   3
  -4   5   6    3.05    1.23   4
  -4   5   6    5.34    1.20   1
   4  -5  -6    2.49    1.10   3
  -3   5   6   11.17    1.35   1
  -3  -5   6   12.02    1.35   3
   3   5  -6   11.36    1.40   2
  -3   5   6   10.37    1.43   4
   3  -5  -6   10.39    1.26   3
  -3  -5   6   11.67    1.31   4
   2  -5  -6    0.62    0.80   3
  -2  -5   6   -0.30    0.80   4
  -2  -5   6    0.06    0.76   3
  -2   5   6    0.86    0.82   1
   2  -5  -6    2.38    0.83   4
   2   5  -6    0.56    0.84   2
   1  -5  -6    4.32    0.92   4
  -1  -5   6    3.38    0.79   3
   1   5  -6    4.46    1.03   2
  -1  -5   6    4.72    0.99   4
   1   5  -6    5.54    0.84   1
   1  -5  -6    6.03    1.01   3
  -1   5   6    3.43    0.91   1
   0   5  -6   31.76    1.65   1
   0   5  -6   35.63    1.83   2
   0  -5  -6   38.59    1.86   3
   0  -5  -6   35.03    1.67   4
   0  -5   6   34.92    1.87   4
   0   5   6   32.27    1.75   1
  -1  -5  -6    6.28    0.89   4
  -1   5  -6    6.12    1.00   1
   1   5   6    7.04    0.86   2
   1   5   6    6.97    1.10   1
   1  -5   6    8.74    1.18   4
  -1   5  -6    6.24    1.03   2
  -1  -5  -6    6.55    1.08   3
  -2  -5  -6   -0.33    0.82   3
   2  -5   6   -0.02    0.76   4
   2   5   6   -0.66    0.69   1
  -2   5  -6   -0.59    0.72   2
  -2   5  -6   -0.39    0.74   1
   2   5   6    0.91    0.72   2
   3   5   6    5.24    1.02   2
   3  -5   6    5.15    1.20   4
  -3   5  -6    6.99    1.02   2
  -3   5  -6    1.99    1.07   1
  -3  -5  -6    4.29    1.11   3
   3   5   6    4.84    1.06   1
   4   5   6    3.23    1.13   1
  -4   5  -6    0.57    0.90   2
   4  -5   6    1.62    1.02   4
  -4   5  -6    0.18    1.07   1
   4   5   6    3.03    1.05   2
  -4  -5  -6    2.38    1.15   3
   5   5   6    1.96    1.21   2
   5  -5   6    2.13    1.14   4
  -5   5  -6   -0.44    1.19   1
  -5  -5  -6    0.57    1.35   3
   6   5   6    3.66    1.57   2
   6  -5   6    2.34    1.43   4
  -6  -5  -6    2.49    1.68   3
  -6   5  -6    2.80    1.51   1
   5  -6  -6    2.19    1.37   4
  -5  -6   6    3.72    1.57   3
   5   6  -6    3.32    1.65   2
  -5   6   6   -0.04    1.36   1
   4  -6  -6    3.61    1.25   4
   4   6  -6    1.88    1.32   2
  -4  -6   6    2.26    1.33   3
  -4   6   6    2.51    1.26   1
   3  -6  -6   -1.04    0.92   4
  -3   6   6    0.78    1.02   1
  -3  -6   6    0.01    1.03   4
  -3  -6   6    0.63    0.97   3
   3   6  -6    0.10    1.06   2
   2   6  -6    0.76    1.00   2
  -2  -6   6   -0.90    0.98   4
   2  -6  -6    0.74    0.94   3
   2  -6  -6    0.65    0.96   4
  -2   6   6   -0.25    0.93   1
  -2  -6   6   -0.09    0.85   3
  -1   6   6   27.56    1.87   1
  -1  -6   6   28.04    1.79   4
   1  -6  -6   31.45    1.91   3
   1  -6  -6   28.10    1.77   4
   1   6  -6   29.58    1.93   2
   0   6  -6   30.22    1.76   1
   0   6   6   35.30    1.89   1
   0  -6  -6   36.71    1.89   4
   0  -6  -6   34.35    2.08   3
   0  -6   6   33.69    1.93   4
   0   6  -6   35.01    1.93   2
  -1  -6  -6    1.01    0.92   3
  -1  -6  -6    0.68    0.79   4
  -1   6  -6   -0.35    0.82   2
   1   6   6   -0.37    0.81   1
  -1   6  -6    1.03    0.84   1
   1  -6   6    0.34    0.92   4
  -2   6  -6    1.78    0.92   2
   2   6   6    0.93    0.86   2
  -2   6  -6    0.98    0.95   1
   2  -6   6    0.01    0.95   4
   2   6   6    0.16    0.90   1
  -2  -6  -6   -0.37    0.93   3
  -3   6  -6   -0.27    1.01   1
   3   6   6   -1.18    0.91   2
  -3  -6  -6    1.46    1.06   3
   3  -6   6   -1.84    0.96   4
  -3   6  -6    1.48    0.95   2
   3   6   6    1.03    1.00   1
   4   6   6   -0.12    1.09   2
   4  -6   6    0.26    1.17   4
  -4  -6  -6    1.94    1.37   3
  -4   6  -6    1.31    1.24   1
   5   6   6    6.93    1.60   2
  -5  -6  -6   12.24    2.02   3
   5  -6   6    7.65    1.57   4
  -5   6  -6    3.96    1.65   1
   4   7  -6    4.00    1.53   2
  -4   7   6    1.55    1.38   1
  -4  -7   6    2.60    1.53   3
   4  -7  -6    1.37    1.41   4
  -3  -7   6    1.03    1.23   4
   3   7  -6    2.04    1.31   2
  -3   7   6    1.06    1.19   1
   3  -7  -6    0.46    1.24   4
  -2  -7   6    3.05    1.28   4
   2   7  -6    2.35    1.23   2
   2  -7  -6    1.00    1.11   4
  -2   7   6    0.22    1.07   1
  -1   7   6    4.34    1.27   1
  -1  -7   6    6.43    1.32   4
   1   7  -6    5.02    1.29   2
   1  -7  -6    6.05    1.36   3
   1  -7  -6    7.65    1.36   4
   0   7  -6   29.78    1.94   2
   0   7   6   26.99    1.87   1
   0  -7  -6   30.99    2.14   3
   0  -7  -6   27.83    1.95   4
   0  -7   6   29.27    2.10   4
   0   7  -6   28.63    1.84   1
  -1   7  -6    5.03    1.21   2
   1   7   6    5.98    1.27   1
  -1  -7  -6    7.73    1.43   3
  -1   7  -6    5.93    1.24   1
   1  -7   6    3.36    1.20   4
   2   7   6   13.42    1.57   1
  -2  -7  -6   11.96    1.60   3
  -2   7  -6   10.14    1.51   1
   2  -7   6   13.73    1.76   4
   3   7   6   12.51    1.69   1
   3  -7   6   11.58    1.70   4
  -3   7  -6    7.90    1.67   1
  -3  -7  -6   13.90    1.86   3
   4  -7   6    1.35    1.37   4
  -4   7  -6    2.95    1.61   1
   4   7   6    0.93    1.37   2
  -4  -7  -6   -0.27    1.49   3
   3   8  -6    0.54    1.57   2
   3  -8  -6   -0.08    1.46   4
  -3   8   6   -0.62    1.40   1
  -2  -8   6    0.87    1.57   4
   2  -8  -6    0.54    1.36   4
   2   8  -6    3.97    1.53   2
  -2   8   6   -1.42    1.19   1
  -1  -8   6    0.99    1.18   4
   1   8  -6    0.01    1.22   2
   1  -8  -6   -0.86    1.23   4
  -1   8   6    2.73    1.35   1
   0  -8  -6    4.31    1.38   4
   0  -8   6    3.24    1.40   4
   0   8   6    5.82    1.41   1
   1  -8   6    3.69    1.45   4
  -1   8  -6    2.64    1.36   1
   1   8   6    1.41    1.33   1
  -1  -8  -6    2.92    1.35   3
  -2   8  -6    0.20    1.41   1
  -2  -8  -6    2.08    1.34   3
   2   8   6    2.18    1.36   1
   2  -8   6   -1.05    1.34   4
  -3  -8  -6    5.30    1.74   3
   3  -8   6    1.45    1.66   4
  -3   8  -6    1.90    1.60   1
  -7   0   7    0.55    1.48   3
  -6   0   7    0.63    1.17   3
  -6   0   7   -0.46    0.99   4
   6   0  -7   -1.21    0.98   2
   5   0  -7   -0.98    0.77   2
  -5   0   7    1.32    0.87   4
  -5   0   7    0.74    0.91   3
   4   0  -7    1.12    0.63   2
  -4   0   7    0.41    0.46   1
  -4   0   7   -0.41    0.67   3
  -4   0   7   -0.31    0.69   4
  -3   0   7   -0.17    0.32   1
  -3   0   7   -0.71    0.49   4
   3   0  -7    0.10    0.48   2
  -3   0   7    0.29    0.54   3
   2   0  -7   -0.36    0.41   2
  -2   0   7   -0.55    0.41   3
  -2   0   7   -0.03    0.28   1
  -2   0   7    0.53    0.49   4
  -1   0   7    0.18    0.27   1
  -1   0   7    0.15    0.36   4
   1   0  -7    0.38    0.36   3
   1   0  -7    0.27    0.35   2
   0   0  -7    0.00    0.32   3
   0   0   7   -0.25    0.32   4
   0   0   7   -0.15    0.30   1
   0   0  -7    0.11    0.33   2
   1   0   7    0.07    0.29   4
   1   0   7   -0.13    0.35   1
  -1   0  -7   -0.08    0.32   3
  -1   0  -7   -0.10    0.38   2
   2   0   7   -0.43    0.40   1
  -2   0  -7   -0.43    0.40   2
   2   0   7   -0.17    0.28   4
  -2   0  -7   -0.14    0.36   3
   3   0   7   -0.90    0.36   4
  -3   0  -7    0.15    0.53   2
   3   0   7    0.85    0.56   1
  -3   0  -7    0.66    0.49   3
  -4   0  -7    0.16    0.65   3
   4   0   7    0.43    0.65   1
  -4   0  -7    0.21    0.78   2
  -5   0  -7    0.09    0.88   2
  -5   0  -7   -0.45    0.79   3
   5   0   7   -0.04    0.76   1
   6   0   7   -0.46    1.09   1
  -6   0  -7   -1.03    1.00   3
  -6   0  -7   -0.47    0.98   2
  -7   0  -7    1.45    1.44   2
  -7   1   7    0.41    1.39   4
   7  -1  -7    2.08    1.39   3
  -7  -1   7   -0.31    1.59   3
   7   1  -7    0.38    1.51   2
  -6  -1   7    0.65    1.21   3
  -6   1   7    0.99    1.16   3
   6   1  -7    0.16    1.12   2
  -6  -1   7    0.82    1.06   4
  -6   1   7    3.26    1.23   4
   5   1  -7   -0.14    0.81   2
  -5   1   7   -0.74    0.85   4
   5  -1  -7   -0.25    0.76   2
  -5   1   7    0.78    0.85   3
  -5  -1   7   -0.40    0.83   4
  -5  -1   7    0.58    0.87   3
  -4   1   7   33.09    1.35   1
  -4  -1   7   28.28    1.75   3
  -4  -1   7   33.48    1.69   4
  -4   1   7   31.05    1.71   3
   4  -1  -7   30.25    1.44   2
   4   1  -7   30.53    1.63   2
  -4   1   7   33.49    1.74   4
   3  -1  -7   10.06    0.78   2
   3  -1  -7    9.76    0.97   3
  -3   1   7   10.65    0.77   1
  -3  -1   7   11.04    1.00   4
  -3   1   7    9.92    1.00   4
   3   1  -7    9.83    0.93   2
  -3  -1   7   10.93    1.02   3
  -2  -1   7  228.17    4.97   3
   2  -1  -7  232.17    4.59   2
   2  -1  -7  227.86    5.00   3
   2   1  -7  234.98    4.93   2
  -2   1   7  232.33    4.53   1
  -2   1   7  228.38    5.09   4
  -2  -1   7  232.44    5.07   4
  -1  -1   7  212.68    4.63   4
  -1   1   7  216.18    4.60   4
   1  -1  -7  214.23    4.17   2
  -1   1   7  214.96    4.21   1
  -1  -1   7  213.65    4.45   3
   1   1  -7  211.18    4.49   2
   1  -1  -7  217.13    4.58   3
   0  -1   7  383.99    7.55   4
   0   1  -7  382.24    7.42   2
   0  -1   7  382.44    7.75   5
   0   1  -7  380.55    7.22   3
   0  -1   7  382.51    6.96   1
   0   1   7  379.62    7.42   4
   0  -1  -7  370.39    7.44   3
   0   1   7  379.45    7.10   1
   0  -1  -7  380.60    7.17   2
   1   1   7  214.29    4.23   4
   1  -1   7  213.68    4.31   1
   1  -1   7  214.96    4.81   5
  -1  -1  -7  214.06    4.42   2
   1  -1   7  217.75    4.51   4
  -1   1  -7  212.15    4.54   2
  -1   1  -7  217.26    4.16   3
   1   1   7  213.61    4.36   1
  -1  -1  -7  213.67    4.51   3
   2   1   7  366.89    7.20   1
  -2   1  -7  360.07    7.04   3
   2  -1   7  369.14    7.37   4
  -2  -1  -7  370.77    7.43   3
   2  -1   7  374.66    7.20   1
  -2   1  -7  375.26    7.50   2
   2  -1   7  374.54    8.03   5
  -2  -1  -7  371.09    7.43   2
  -3   1  -7  152.71    3.82   2
   3  -1   7  150.29    4.09   5
   3   1   7  158.00    3.65   1
  -3  -1  -7  154.13    3.84   2
  -3   1  -7  154.63    3.42   3
  -3  -1  -7  152.48    3.73   3
   3  -1   7  159.76    3.59   4
   3  -1   7  155.30    3.69   1
  -4   1  -7    2.48    0.69   3
   4   1   7    2.50    0.80   1
   4  -1   7    2.21    0.85   5
  -4  -1  -7    1.18    0.83   2
  -4  -1  -7    3.12    0.87   3
   4  -1   7    2.72    0.66   4
   4  -1   7    3.29    0.80   1
  -4   1  -7    3.11    0.86   2
   5   1   7    1.04    0.86   1
  -5  -1  -7    1.88    0.93   3
  -5   1  -7    2.05    0.79   3
  -5   1  -7    1.81    0.92   2
   5  -1   7    2.65    0.94   1
  -5  -1  -7    1.49    0.96   2
   5  -1   7    2.32    0.99   5
   6  -1   7    3.95    1.16   1
   6  -1   7    1.56    1.14   5
  -6   1  -7    1.37    1.14   2
  -6  -1  -7    1.89    1.16   2
   6   1   7    2.29    1.05   1
  -6  -1  -7    3.62    1.19   3
  -7   1  -7    7.77    1.70   2
  -7  -1  -7    6.99    1.68   3
   7  -1   7    7.37    1.57   1
  -7  -1  -7    9.46    1.80   2
  -7   2   7    1.75    1.51   4
   7   2  -7    1.72    1.54   2
   7  -2  -7    2.19    1.51   3
  -7  -2   7    2.32    1.76   3
   6   2  -7    7.39    1.45   2
  -6   2   7    4.34    1.32   4
  -6  -2   7    4.50    1.41   3
  -6  -2   7    5.29    1.29   4
   6  -2  -7    4.38    1.37   3
  -5  -2   7   -0.23    0.98   3
  -5   2   7    0.80    0.85   1
  -5   2   7   -0.30    0.90   4
  -5  -2   7    0.80    0.90   4
   5   2  -7    0.63    0.94   2
   5  -2  -7    0.06    0.91   3
  -4  -2   7  107.51    3.23   4
  -4  -2   7  116.83    3.45   3
   4  -2  -7  108.24    3.29   3
  -4   2   7  112.04    3.40   4
   4   2  -7  108.22    3.31   2
  -4   2   7  106.60    2.91   1
   3  -2  -7  107.00    2.50   2
  -3   2   7  114.20    3.19   4
   3  -2  -7  109.04    3.09   3
  -3  -2   7  112.72    3.12   3
  -3  -2   7  106.56    3.05   4
   3   2  -7  110.43    3.07   2
  -3   2   7  106.14    2.76   1
   2  -2  -7  152.09    3.71   3
  -2  -2   7  156.61    3.76   4
  -2   2   7  149.31    3.75   4
  -2   2   7  154.56    3.43   1
  -2  -2   7  154.83    3.65   3
   2   2  -7  156.42    3.72   2
   1   2  -7  227.71    4.89   2
   1  -2  -7  227.65    4.93   3
   1   2  -7  224.71    4.23   1
  -1  -2   7  231.37    4.72   3
  -1  -2   7  225.27    4.97   4
  -1   2   7  220.58    4.62   1
  -1   2   7  228.90    4.92   4
   0  -2   7  254.97    4.96   3
   0   2  -7  257.94    5.36   2
   0   2   7  255.13    5.23   4
   0  -2   7  252.34    5.44   4
   0   2  -7  253.88    4.93   1
   0  -2  -7  257.20    4.90   2
   0   2   7  256.66    5.12   1
   0  -2  -7  255.31    5.37   3
  -1   2  -7  235.72    5.15   2
   1   2   7  241.42    5.00   1
  -1  -2  -7  248.47    4.96   2
  -1   2  -7  247.98    4.95   1
   1  -2   7  253.09    5.26   4
  -1  -2  -7  239.97    5.20   3
   1   2   7  241.04    4.81   4
   2   2   7  210.51    4.50   1
  -2   2  -7  198.47    4.62   2
  -2  -2  -7  209.00    4.67   3
  -2  -2  -7  208.10    4.57   2
  -2   2  -7  205.57    4.54   1
   2  -2   7  208.42    4.64   4
  -3  -2  -7    0.48    0.63   3
   3   2   7    0.28    0.60   1
  -3  -2  -7    0.10    0.60   2
  -3   2  -7    0.23    0.60   2
  -3   2  -7    0.43    0.65   1
   3  -2   7   -0.16    0.54   4
  -4   2  -7    0.32    0.81   1
  -4   2  -7    0.15    0.78   2
   4   2   7    0.62    0.71   1
   4  -2   7    1.01    0.67   4
  -4  -2  -7    0.82    0.79   2
  -4  -2  -7    0.80    0.79   3
  -5  -2  -7    0.70    1.00   2
   5  -2   7    0.81    0.90   1
   5   2   7    0.83    0.84   1
   5  -2   7    0.24    0.96   5
  -5  -2  -7    1.59    0.99   3
  -5   2  -7   -0.21    0.85   2
  -6  -2  -7    2.08    1.27   3
  -6  -2  -7    0.28    1.16   2
   6  -2   7    0.91    1.16   5
  -6   2  -7    2.26    1.19   2
   6  -2   7    1.70    1.13   1
   6   2   7    1.38    1.07   1
   7  -2   7    1.14    1.39   1
  -7  -2  -7    4.87    1.63   3
   7  -2   7    0.94    1.47   5
   7   2   7    2.44    1.46   2
  -7   2  -7    1.21    1.44   2
  -7   3   7    0.08    1.56   4
   7   3  -7    1.85    1.60   2
  -7  -3   7   -1.38    1.69   3
  -6  -3   7   12.67    1.95   3
  -6   3   7   15.00    1.84   4
   6   3  -7   16.23    1.94   2
   6  -3  -7   17.78    1.89   3
  -5   3   7   -0.32    0.89   1
  -5  -3   7    2.72    1.07   4
  -5   3   7    0.87    1.06   4
   5   3  -7    0.24    1.05   2
  -5  -3   7    1.22    1.15   3
   5  -3  -7    3.27    1.07   3
  -4  -3   7    0.00    0.82   4
  -4   3   7    1.41    0.83   1
  -4   3   7    1.91    0.98   4
  -4  -3   7    0.77    0.89   3
   4   3  -7    0.98    0.94   2
   4  -3  -7   -0.16    0.86   3
   3  -3  -7  128.76    3.56   3
  -3  -3   7  124.71    3.48   4
  -3   3   7  123.95    3.62   4
   3   3  -7  128.81    3.62   2
  -3  -3   7  131.99    3.61   3
  -3   3   7  127.15    3.31   1
   2   3  -7   79.96    2.53   2
  -2  -3   7   80.49    2.48   4
  -2  -3   7   79.49    2.39   3
  -2   3   7   79.09    2.51   4
  -2   3   7   77.08    2.31   1
   2  -3  -7   74.54    2.43   3
   1   3  -7    2.10    0.68   2
  -1   3   7    3.17    0.65   1
   1  -3  -7    2.42    0.63   3
  -1  -3   7    2.46    0.67   4
   1   3  -7    2.52    0.43   1
  -1   3   7    2.25    0.59   4
  -1  -3   7    2.83    0.56   3
   0   3   7   22.83    0.79   2
   0   3   7   22.99    1.10   4
   0   3  -7   21.92    1.23   2
   0   3   7   19.95    1.18   1
   0   3  -7   21.08    1.01   1
   0  -3  -7   19.08    1.25   3
   0  -3   7   22.20    0.91   3
   0  -3   7   22.41    1.25   4
  -1  -3  -7    1.88    0.53   2
   1   3   7    2.27    0.65   1
  -1  -3  -7    2.51    0.65   3
  -1  -3  -7    2.00    0.44   4
   1  -3   7    1.99    0.66   4
  -1   3  -7    2.57    0.60   1
  -1   3  -7    1.87    0.63   2
  -2   3  -7  193.32    4.51   1
  -2  -3  -7  196.06    4.68   3
   2  -3   7  202.76    4.72   4
  -2   3  -7  194.38    4.60   2
   2   3   7  200.95    4.49   1
  -2  -3  -7  201.50    4.51   2
  -3  -3  -7  175.38    4.39   3
   3   3   7  174.01    4.14   1
  -3   3  -7  167.81    4.24   2
  -3  -3  -7  170.73    4.26   2
   3  -3   7  161.17    4.24   4
   4   3   7   23.64    1.58   1
   4  -3   7   22.03    1.46   4
  -4   3  -7   24.42    1.70   1
  -4   3  -7   23.02    1.59   2
  -4  -3  -7   21.41    1.62   2
  -4  -3  -7   24.50    1.75   3
   5  -3   7   11.43    1.29   4
  -5  -3  -7    9.37    1.38   2
   5   3   7    8.86    1.26   1
  -5   3  -7    8.76    1.38   1
  -5  -3  -7    8.60    1.45   3
  -5   3  -7    9.14    1.34   2
   6   3   7    6.14    1.49   2
   6  -3   7    7.12    1.61   5
  -6   3  -7    6.17    1.38   2
   6  -3   7    7.00    1.46   1
  -6  -3  -7    5.82    1.52   3
   7  -3   7   -0.95    1.41   5
   7   3   7    0.72    1.50   2
  -7  -3  -7    0.84    1.58   3
  -7   3  -7   -1.21    1.46   2
   7  -3   7    0.72    1.40   1
  -6   4   7    2.47    1.37   1
  -6  -4   7    1.28    1.58   3
  -6   4   7    3.71    1.47   4
   6   4  -7    1.16    1.52   2
   5   4  -7   19.26    1.92   2
   5  -4  -7   19.29    1.78   3
  -5  -4   7   21.37    1.95   3
  -5   4   7   21.21    1.69   1
  -5   4   7   16.42    1.84   4
  -4   4   7    1.77    1.16   4
  -4  -4   7    2.20    0.96   4
   4   4  -7    1.84    1.05   2
  -4   4   7    2.90    1.01   1
   4  -4  -7    2.53    1.02   3
  -4  -4   7    2.20    1.03   3
  -3   4   7   13.39    1.38   4
  -3   4   7   12.64    1.25   1
   3   4  -7   11.78    1.37   2
   3  -4  -7   11.84    1.31   3
  -3  -4   7   11.99    1.28   3
  -3  -4   7   13.86    1.29   4
  -2  -4   7   22.17    1.46   3
   2   4  -7   23.49    1.64   2
  -2   4   7   22.83    1.46   1
  -2   4   7   22.59    1.53   4
   2  -4  -7   20.32    1.44   3
  -2  -4   7   22.62    1.48   4
   1  -4  -7    1.74    0.72   3
  -1   4   7    1.49    0.69   4
   1   4  -7    1.46    0.54   1
  -1  -4   7    1.91    0.74   4
   1   4  -7    0.59    0.74   2
  -1   4   7    2.05    0.69   1
  -1  -4   7    1.43    0.57   3
   0   4  -7  167.10    3.79   1
   0  -4  -7  171.04    4.01   4
   0   4   7  169.25    4.05   1
   0  -4  -7  168.58    4.17   3
   0  -4   7  165.50    4.25   4
   0  -4   7  165.89    3.58   3
   0   4  -7  170.65    4.14   2
   1   4   7  380.92    7.77   1
  -1   4  -7  379.72    7.94   2
  -1  -4  -7  376.62    7.65   4
   1   4   7  372.08    7.51   2
  -1  -4  -7  397.43    8.11   3
  -1   4  -7  378.79    7.69   1
   2   4   7   36.83    1.61   2
  -2   4  -7   37.17    1.75   1
   2  -4   7   39.23    1.88   4
  -2  -4  -7   37.23    1.92   3
   2   4   7   37.43    1.80   1
  -2   4  -7   38.86    1.80   2
   3   4   7   -0.18    0.75   1
  -3   4  -7    0.04    0.73   1
   3   4   7    0.94    0.74   2
   3  -4   7    0.85    0.83   4
  -3  -4  -7   -0.39    0.80   3
  -3   4  -7   -0.27    0.73   2
  -4  -4  -7   27.73    1.94   3
  -4   4  -7   27.71    1.73   2
  -4   4  -7   25.91    1.78   1
   4   4   7   26.58    1.75   2
   4  -4   7   24.59    1.66   4
   4   4   7   25.89    1.80   1
  -5  -4  -7   -0.67    1.16   3
  -5   4  -7    2.09    1.06   1
  -5   4  -7    1.49    1.11   2
   5   4   7    1.20    1.07   2
   5  -4   7    0.94    0.94   4
   5   4   7    0.75    1.05   1
   6   4   7   -0.61    1.24   2
  -6   4  -7    0.02    1.29   2
  -6  -4  -7    1.75    1.46   3
  -6   4  -7   -0.32    1.29   1
   6  -5  -7   -0.76    1.36   4
   6   5  -7   -2.47    1.45   2
  -6  -5   7   -1.05    1.50   3
  -6   5   7    2.26    1.46   1
  -5   5   7    3.16    1.41   4
   5   5  -7    2.06    1.44   2
  -5  -5   7    1.84    1.42   3
  -5   5   7    1.97    1.28   1
  -4   5   7    0.11    0.97   1
  -4   5   7   -0.17    1.03   4
  -4  -5   7    0.29    1.03   3
  -4  -5   7    1.81    1.15   4
   4  -5  -7   -0.96    0.96   3
   4   5  -7   -0.16    1.09   2
   3  -5  -7    2.33    0.99   3
   3   5  -7    3.12    1.07   2
  -3  -5   7    3.38    1.08   3
  -3  -5   7    3.40    1.02   4
  -3   5   7    1.65    0.96   1
  -3   5   7    2.13    1.04   4
  -2   5   7   89.68    2.94   1
  -2  -5   7   85.01    2.93   4
  -2   5   7   89.75    3.07   4
   2   5  -7   86.62    3.06   2
   2  -5  -7   86.36    2.92   3
  -2  -5   7   89.24    2.79   3
   1   5  -7    4.12    1.05   2
  -1  -5   7    4.90    1.04   4
  -1  -5   7    4.27    0.80   3
  -1   5   7    6.27    1.04   1
   1  -5  -7    4.94    1.00   3
   1   5  -7    4.85    0.80   1
   1  -5  -7    5.01    0.95   4
   0   5  -7   38.76    1.90   2
   0  -5  -7   37.08    1.72   4
   0   5   7   36.14    1.86   1
   0  -5  -7   35.83    1.89   3
   0  -5   7   33.54    1.85   4
   0   5  -7   36.30    1.64   1
   1   5   7   50.54    1.78   2
   1  -5   7   52.62    2.31   4
  -1  -5  -7   50.37    1.92   4
   1   5   7   48.14    2.10   1
  -1   5  -7   52.31    2.15   2
  -1   5  -7   46.82    1.97   1
  -1  -5  -7   54.56    2.32   3
  -2   5  -7   23.38    1.57   1
  -2   5  -7   17.50    1.42   2
   2  -5   7   17.87    1.63   4
   2   5   7   24.08    1.61   1
   2   5   7   20.59    1.38   2
  -2  -5  -7   24.42    1.72   3
   3   5   7    0.93    0.94   1
   3  -5   7    1.62    0.96   4
  -3  -5  -7   -0.09    0.95   3
  -3   5  -7    0.69    0.92   1
   3   5   7    2.68    0.86   2
  -3   5  -7    1.21    0.85   2
  -4  -5  -7    3.58    1.21   3
   4  -5   7    2.25    1.10   4
  -4   5  -7    2.96    1.18   1
   4   5   7    3.46    1.09   2
   4   5   7    2.91    1.13   1
  -4   5  -7    4.15    1.07   2
   5  -5   7   -0.96    1.04   4
  -5  -5  -7   -0.97    1.31   3
  -5   5  -7    0.97    1.23   1
  -5   5  -7   -0.92    1.15   2
   5   5   7    1.57    1.14   2
  -6  -5  -7    5.79    1.91   3
  -6   5  -7    4.39    1.66   1
   6   5   7    3.72    1.54   2
   5  -6  -7    7.60    1.68   4
  -5  -6   7    3.86    1.67   3
  -5   6   7    7.22    1.59   1
   5   6  -7    9.31    1.87   2
  -4   6   7    2.57    1.22   1
  -4  -6   7   -1.26    1.19   3
   4   6  -7    1.32    1.34   2
   4  -6  -7    2.65    1.23   4
  -3  -6   7    0.50    1.03   4
   3  -6  -7   -0.46    0.98   3
  -3   6   7    1.37    1.04   1
   3  -6  -7    0.48    1.04   4
  -3  -6   7    0.34    1.01   3
   3   6  -7    1.36    1.10   2
   2  -6  -7   24.31    1.80   3
   2   6  -7   25.36    1.88   2
   2  -6  -7   21.49    1.75   4
  -2   6   7   19.26    1.75   1
  -2  -6   7   23.44    1.83   4
   1   6  -7    2.48    1.07   2
  -1   6   7    1.73    1.01   1
   1  -6  -7    3.52    1.01   4
  -1  -6   7    3.70    1.08   4
   1  -6  -7    2.32    1.02   3
   0   6   7   20.22    1.63   1
   0   6  -7   21.83    1.52   1
   0  -6  -7   21.00    1.68   3
   0   6  -7   21.91    1.63   2
   0  -6  -7   20.11    1.53   4
   0  -6   7   20.76    1.72   4
   1  -6   7    1.20    1.02   4
  -1   6  -7    1.21    0.97   2
  -1   6  -7    1.29    0.87   1
  -1  -6  -7    2.39    0.88   4
  -1  -6  -7    2.40    1.04   3
   1   6   7    2.77    1.00   1
  -2   6  -7    0.37    0.88   2
  -2  -6  -7    1.41    1.02   3
  -2   6  -7    2.48    1.06   1
   2   6   7    0.96    0.89   2
   2   6   7    3.53    1.10   1
   2  -6   7    1.05    1.05   4
   3   6   7    5.00    1.15   2
  -3   6  -7    5.56    1.19   2
  -3   6  -7    3.63    1.26   1
   3   6   7    3.63    1.17   1
   3  -6   7    4.67    1.25   4
  -3  -6  -7    3.30    1.26   3
   4  -6   7    7.14    1.48   4
   4   6   7    7.39    1.45   1
   4   6   7    5.73    1.29   2
  -4  -6  -7    7.73    1.74   3
  -4   6  -7    7.59    1.55   1
  -5   6  -7   23.47    2.32   1
   5   6   7   19.51    2.02   2
  -5  -6  -7   28.44    2.57   3
   5  -6   7   21.69    2.25   4
   4   7  -7   -2.28    1.39   2
   4  -7  -7    2.98    1.41   4
  -4   7   7    0.56    1.36   1
  -3   7   7    1.69    1.37   1
  -3  -7   7    4.37    1.36   4
   3  -7  -7    2.59    1.30   4
   3   7  -7    0.71    1.35   2
  -2   7   7   -0.32    1.09   1
   2   7  -7    0.24    1.17   2
  -2  -7   7    1.15    1.21   4
   2  -7  -7   -1.30    1.05   4
   1  -7  -7    1.84    1.07   3
  -1  -7   7   -0.22    1.10   4
   1   7  -7    1.01    1.12   2
   1  -7  -7    0.61    1.07   4
  -1   7   7   -0.35    1.01   1
   0  -7   7    0.90    1.11   4
   0  -7  -7    1.55    1.11   4
   0  -7  -7   -0.83    1.04   3
   0   7  -7    1.12    1.01   1
   0   7   7    0.22    1.13   1
   0   7  -7    1.05    0.99   2
   1  -7   7   -0.58    1.08   4
   1   7   7   -1.48    1.00   1
  -1  -7  -7   -0.07    1.08   3
  -1   7  -7   -0.08    1.08   2
  -1   7  -7   -0.04    1.05   1
  -2   7  -7   -0.12    1.10   2
  -2   7  -7    0.49    1.15   1
   2  -7   7   -1.15    1.07   4
  -2  -7  -7    2.60    1.26   3
   2   7   7    0.71    1.06   1
  -3  -7  -7    1.75    1.35   3
   3   7   7    3.57    1.35   1
   3  -7   7    0.65    1.35   4
  -3   7  -7   -0.11    1.31   1
  -4  -7  -7    3.62    1.73   3
   4   7   7    0.25    1.37   2
   4  -7   7   -0.19    1.35   4
  -4   7  -7   -0.74    1.42   1
  -3   8   7    1.57    1.50   1
   3   8  -7    0.26    1.54   2
   3  -8  -7    1.31    1.55   4
   2   8  -7    6.03    1.65   2
  -2   8   7    2.86    1.48   1
   2  -8  -7    4.87    1.58   4
  -2  -8   7    4.45    1.63   4
   1   8  -7    2.48    1.38   2
  -1   8   7    1.33    1.35   1
  -1  -8   7    3.28    1.40   4
   1  -8  -7    3.45    1.44   4
   0  -8  -7    5.19    1.51   3
   0  -8   7    5.61    1.55   4
   0   8   7    4.28    1.44   1
   0   8  -7    4.72    1.33   2
  -1  -8  -7    1.47    1.30   3
   1  -8   7   -0.69    1.28   4
   1   8   7    1.16    1.29   1
  -1   8  -7   -1.01    1.23   1
  -2  -8  -7    2.35    1.51   3
   2  -8   7   -0.48    1.31   4
  -2   8  -7   -0.11    1.39   1
   2   8   7    1.85    1.40   1
  -3  -8  -7    4.73    1.70   3
  -3   8  -7    5.67    1.75   1
   3  -8   7    5.86    1.75   4
  -7   0   8    3.83    1.51   4
  -7   0   8    0.53    1.51   3
  -6   0   8   10.72    1.45   4
   6   0  -8    8.97    1.42   2
  -6   0   8   11.12    1.64   3
  -5   0   8   85.75    3.07   3
  -5   0   8   79.58    2.93   4
   5   0  -8   82.19    2.76   2
   4   0  -8    3.82    0.77   2
  -4   0   8    3.01    0.87   3
  -4   0   8    2.56    0.88   4
  -3   0   8    0.04    0.59   3
  -3   0   8    0.62    0.58   4
   3   0  -8    1.75    0.56   2
  -2   0   8  107.00    2.86   4
   2   0  -8  109.80    2.84   3
   2   0  -8  109.54    2.64   2
  -2   0   8  109.93    2.23   1
  -1   0   8    8.34    0.75   4
   1   0  -8    8.75    0.75   3
   1   0  -8    8.18    0.66   2
  -1   0   8    8.92    0.54   1
   0   0   8  108.53    2.40   1
   0   0  -8  113.66    2.56   2
   0   0   8  108.95    2.59   4
   0   0  -8  107.20    2.53   3
  -1   0  -8  400.21    7.70   2
   1   0   8  386.10    7.62   4
   1   0   8  389.92    7.41   1
   2   0   8    1.87    0.39   4
   2   0   8    1.63    0.51   1
  -2   0  -8    6.40    0.64   3
  -2   0  -8    2.36    0.56   2
   3   0   8   80.05    2.05   4
  -3   0  -8   81.62    2.55   2
  -3   0  -8   86.67    2.33   3
   3   0   8   83.79    2.44   1
   4   0   8   60.31    2.23   1
  -4   0  -8   60.47    2.37   2
  -4   0  -8   61.00    2.16   3
  -5   0  -8   22.43    1.54   3
  -5   0  -8   17.51    1.61   2
   5   0   8   23.97    1.67   1
  -6   0  -8    7.80    1.45   2
  -6   0  -8    9.48    1.40   3
   6   0   8    9.09    1.47   1
   7   0   8   17.84    2.01   1
  -7   0  -8   19.82    2.07   2
  -7   1   8    5.27    1.57   4
  -7  -1   8    5.44    1.71   3
   7   1  -8    3.89    1.60   2
   7  -1  -8    7.10    1.69   3
   6   1  -8    2.16    1.21   2
   6  -1  -8    6.61    1.34   3
  -6  -1   8    3.60    1.37   3
  -6   1   8    4.95    1.33   4
  -6  -1   8    3.38    1.18   4
   5  -1  -8    5.47    1.17   3
   5   1  -8    3.54    1.00   2
  -5  -1   8    3.65    1.10   3
  -5   1   8    4.26    1.12   4
  -5  -1   8    6.96    1.18   4
  -4  -1   8   10.37    1.17   4
  -4   1   8   11.76    1.21   4
   4  -1  -8    8.93    1.16   3
  -4   1   8   12.13    0.93   1
  -4  -1   8   12.87    1.25   3
   4   1  -8   12.21    1.20   2
   4  -1  -8   10.38    0.99   2
   3   1  -8   18.98    1.25   2
  -3   1   8   19.34    1.06   1
  -3   1   8   19.30    1.33   4
  -3  -1   8   19.38    1.29   4
   3  -1  -8   22.82    1.09   2
  -3  -1   8   20.56    1.38   3
   3  -1  -8   18.73    1.32   3
   2   1  -8  196.30    4.42   2
  -2  -1   8  201.68    4.48   3
   2  -1  -8  196.71    4.53   3
  -2   1   8  200.09    4.02   1
  -2  -1   8  202.55    4.59   4
   2  -1  -8  205.21    4.10   2
  -2   1   8  201.59    4.60   4
   1  -1  -8  888.01   16.78   3
  -1  -1   8  882.32   16.65   3
  -1  -1   8  883.66   15.64   1
  -1   1   8  888.36   15.87   1
  -1  -1   8  901.81   17.02   4
  -1   1   8  910.48   16.98   4
   1   1  -8  871.24   16.58   2
   1  -1  -8  904.39   16.28   2
   0   1  -8  465.63    8.96   2
   0   1   8  467.31    8.99   4
   0   1  -8  460.44    8.77   3
   0  -1  -8  459.16    8.71   2
   0  -1  -8  468.90    9.03   3
   0  -1   8  457.60    9.12   4
   0  -1   8  465.27    8.44   1
   0   1   8  458.99    8.58   1
   0  -1   8  465.40    9.39   5
   1   1   8   75.09    2.02   1
  -1   1  -8   78.18    2.15   2
   1  -1   8   78.07    2.22   5
  -1  -1  -8   75.98    2.00   2
   1  -1   8   77.31    1.99   1
   1  -1   8   77.05    2.06   4
   1   1   8   75.87    1.79   4
  -1   1  -8   77.07    1.77   3
  -1  -1  -8   73.53    2.08   3
  -2  -1  -8   79.40    2.24   3
   2  -1   8   75.96    2.12   4
   2  -1   8   78.99    2.19   1
   2   1   8   79.21    2.22   1
   2  -1   8   79.41    2.46   5
  -2   1  -8   79.37    2.35   2
  -2  -1  -8   82.78    2.30   2
  -2   1  -8   76.96    1.86   3
   3  -1   8   41.91    1.59   4
  -3   1  -8   44.59    1.83   2
  -3  -1  -8   43.62    1.81   2
   3  -1   8   41.67    1.71   1
  -3  -1  -8   42.95    1.73   3
  -3   1  -8   44.72    1.49   3
   3   1   8   45.73    1.75   1
   3  -1   8   43.90    1.88   5
  -4   1  -8   30.26    1.52   3
   4   1   8   29.12    1.61   1
  -4  -1  -8   25.24    1.68   2
  -4  -1  -8   27.98    1.67   3
   4  -1   8   30.37    1.63   1
  -4   1  -8   27.51    1.70   2
   4  -1   8   28.11    1.68   5
   5  -1   8    7.09    1.28   5
  -5   1  -8    6.85    1.24   2
   5   1   8    5.09    1.04   1
  -5  -1  -8    5.68    1.09   3
  -5  -1  -8    4.63    1.16   2
   5  -1   8    6.01    1.13   1
  -6  -1  -8    1.11    1.22   2
   6  -1   8    0.91    1.06   1
   6   1   8    1.17    1.09   1
  -6   1  -8    3.56    1.23   2
  -6  -1  -8   -0.50    1.10   3
  -7  -1  -8    0.02    1.46   2
   7  -1   8   -0.77    1.30   1
  -7  -1  -8    0.54    1.42   3
  -7   1  -8    0.85    1.39   2
   7  -2  -8    0.09    1.56   3
  -7   2   8    0.67    1.48   4
  -7  -2   8   -0.75    1.67   3
   7   2  -8    0.85    1.53   2
  -6  -2   8    6.22    1.53   3
   6  -2  -8    9.37    1.57   3
  -6  -2   8    9.68    1.45   4
   6   2  -8    6.54    1.52   2
  -6   2   8    5.70    1.40   4
  -5   2   8    0.73    0.94   4
  -5   2   8   -0.87    0.73   1
  -5  -2   8    0.38    0.89   4
  -5  -2   8    0.00    0.99   3
   5   2  -8   -0.02    0.96   2
   5  -2  -8    0.29    0.92   3
  -4  -2   8   43.36    2.01   4
   4   2  -8   43.70    2.02   2
  -4   2   8   40.96    1.72   1
  -4  -2   8   41.45    2.11   3
  -4   2   8   41.75    2.06   4
   4  -2  -8   45.66    2.14   3
  -3   2   8   66.50    2.04   1
  -3  -2   8   60.85    2.27   3
   3   2  -8   66.75    2.32   2
   3  -2  -8   68.76    2.36   3
  -3   2   8   65.51    2.37   4
  -3  -2   8   70.73    2.38   4
  -2   2   8    0.21    0.52   4
  -2  -2   8   -0.14    0.53   4
   2   2  -8   -0.05    0.55   2
   2  -2  -8   -0.02    0.53   3
  -2   2   8   -0.27    0.44   1
  -2  -2   8    0.53    0.53   3
  -1  -2   8   16.29    1.08   4
  -1  -2   8   12.67    0.90   3
  -1   2   8   14.38    1.00   4
   1  -2  -8   14.66    1.02   3
   1   2  -8   16.46    1.06   2
  -1   2   8   13.51    0.90   1
   0  -2  -8  186.32    3.75   2
   0   2   8  189.90    4.06   4
   0  -2  -8  180.88    4.20   3
   0   2   8  196.65    4.04   1
   0  -2   8  184.99    4.27   4
   0   2  -8  188.22    3.82   1
   0   2  -8  184.04    4.20   2
   0   2  -8  192.88    3.79   3
  -1   2  -8   22.68    1.21   2
  -1  -2  -8   21.24    1.21   3
   1   2   8   20.28    0.86   4
  -1   2  -8   21.41    1.07   1
   1  -2   8   22.83    1.21   4
  -1  -2  -8   21.47    1.02   2
   1   2   8   21.85    1.19   1
  -2  -2  -8  331.27    6.79   2
  -2   2  -8  328.48    6.69   1
   2   2   8  318.70    6.63   1
   2  -2   8  346.71    6.95   4
  -2  -2  -8  322.70    6.89   3
  -2   2  -8  323.90    6.89   2
  -3  -2  -8   14.44    1.20   2
   3  -2   8   18.25    1.25   4
  -3  -2  -8   18.87    1.34   3
  -3   2  -8   18.64    1.32   2
   3   2   8   19.46    1.27   1
  -3   2  -8   18.72    1.33   1
  -4  -2  -8    2.49    0.90   2
  -4   2  -8    0.75    0.81   1
  -4   2  -8    0.84    0.94   2
  -4  -2  -8    1.10    0.89   3
   4  -2   8    2.96    0.77   4
   4   2   8    1.22    0.77   1
  -5  -2  -8    0.77    0.99   3
  -5  -2  -8    0.34    0.92   2
   5   2   8   -0.59    0.79   1
   5  -2   8    1.20    1.03   5
   5  -2   8   -0.40    0.84   1
  -5   2  -8   -0.68    0.90   2
   6  -2   8    0.58    1.11   1
   6   2   8    1.34    1.05   1
  -6  -2  -8   -0.46    1.22   2
  -6   2  -8    0.84    1.19   2
   6  -2   8    1.86    1.24   5
  -6  -2  -8   -0.07    1.16   3
  -7   2  -8    1.84    1.46   2
  -7  -2  -8    0.80    1.56   3
   7  -2   8    0.17    1.35   1
   7  -2   8    1.79    1.46   5
  -7  -2  -8   -0.01    1.51   2
  -6   3   8   16.78    1.95   4
   6  -3  -8   18.07    1.96   3
   6   3  -8   15.57    1.88   2
  -6  -3   8   17.06    2.09   3
   5  -3  -8    4.70    1.26   3
   5   3  -8    3.25    1.21   2
  -5  -3   8    3.72    1.27   3
  -5   3   8    3.50    1.02   1
  -5   3   8    2.70    1.16   4
  -5  -3   8    6.64    1.24   4
  -4   3   8   47.89    2.33   4
   4  -3  -8   50.37    2.32   3
  -4   3   8   43.81    2.01   1
   4   3  -8   43.58    2.26   2
  -4  -3   8   47.83    2.17   4
  -4  -3   8   50.71    2.37   3
  -3   3   8  177.77    4.17   1
  -3   3   8  177.05    4.61   4
  -3  -3   8  180.27    4.48   3
   3  -3  -8  170.23    4.46   3
  -3  -3   8  181.69    4.50   4
   3   3  -8  169.51    4.51   2
  -2  -3   8   46.19    1.92   4
  -2  -3   8   47.77    1.84   3
   2   3  -8   47.51    1.97   2
   2  -3  -8   45.64    1.91   3
  -2   3   8   46.73    1.75   1
  -2   3   8   42.91    1.85   4
  -1   3   8   72.26    2.23   1
   1  -3  -8   73.59    2.36   3
   1   3  -8   75.64    1.85   1
   1   3  -8   77.70    2.41   2
  -1  -3   8   75.70    2.39   4
  -1  -3   8   75.93    2.10   3
  -1   3   8   76.56    2.32   4
   0   3   8   25.76    1.20   4
   0  -3   8   25.63    0.96   3
   0  -3  -8   24.73    1.40   3
   0   3  -8   25.58    1.13   1
   0   3   8   25.77    1.32   1
   0  -3   8   26.64    1.36   4
   0   3  -8   21.19    1.31   2
   1   3   8   58.06    1.62   4
  -1   3  -8   57.51    1.85   1
   1   3   8   56.66    1.96   1
  -1   3  -8   59.77    2.06   2
   1  -3   8   51.18    1.97   4
  -1  -3  -8   55.87    2.00   3
  -1  -3  -8   58.85    1.78   2
   2   3   8   19.45    1.31   1
  -2   3  -8   19.40    1.31   2
  -2  -3  -8   20.50    1.47   3
   2  -3   8   19.48    1.39   4
  -2  -3  -8   20.47    1.37   2
  -2   3  -8   21.18    1.34   1
  -3  -3  -8  134.35    3.73   2
   3   3   8  136.52    3.65   1
   3  -3   8  144.30    3.84   4
  -3   3  -8  141.09    3.80   2
  -3  -3  -8  145.86    3.92   3
  -3   3  -8  141.41    3.81   1
   4   3   8    0.35    0.80   1
  -4   3  -8    0.26    0.78   2
  -4  -3  -8    0.81    0.86   2
   4  -3   8   -0.21    0.73   4
  -4  -3  -8   -0.46    0.83   3
  -4   3  -8   -0.64    0.80   1
  -5   3  -8   27.04    1.97   2
  -5   3  -8   26.38    1.96   1
  -5  -3  -8   25.75    1.99   3
   5   3   8   27.64    1.84   1
  -5  -3  -8   28.10    2.00   2
   6   3   8    1.17    1.19   2
   6  -3   8    2.13    1.20   1
  -6  -3  -8    2.37    1.39   3
   6  -3   8    1.40    1.33   5
  -6   3  -8    1.01    1.26   2
  -6   4   8    1.22    1.44   4
   6   4  -8    1.82    1.54   2
  -6  -4   8    0.32    1.58   3
  -5   4   8   21.62    1.79   1
  -5  -4   8   27.10    1.94   4
  -5   4   8   27.71    2.13   4
   5   4  -8   26.93    2.18   2
  -5  -4   8   24.79    2.13   3
   5  -4  -8   27.53    2.09   3
  -4   4   8   29.56    2.05   4
  -4   4   8   29.39    1.80   1
   4   4  -8   32.76    2.12   2
  -4  -4   8   32.25    2.07   3
   4  -4  -8   28.32    2.03   3
  -4  -4   8   32.40    2.10   4
   3  -4  -8   52.16    2.36   3
   3   4  -8   49.22    2.34   2
  -3  -4   8   48.62    2.14   4
  -3   4   8   50.77    2.35   4
  -3  -4   8   50.50    2.25   3
  -3   4   8   48.63    2.10   1
  -2  -4   8   25.21    1.62   4
  -2   4   8   26.86    1.70   4
  -2   4   8   27.77    1.63   1
   2  -4  -8   28.49    1.79   3
   2   4  -8   30.43    1.84   2
  -2  -4   8   27.34    1.65   3
  -1   4   8    1.18    0.70   1
  -1  -4   8    2.00    0.62   3
   1  -4  -8    2.41    0.81   3
  -1  -4   8    1.15    0.82   4
   1   4  -8    2.36    0.85   2
   1   4  -8    1.49    0.55   1
  -1   4   8    1.92    0.70   4
   0   4   8    0.62    0.63   1
   0  -4   8    0.14    0.75   4
   0   4  -8    0.06    0.57   1
   0   4   8    0.54    0.59   4
   0  -4  -8   -0.44    0.65   3
   0   4  -8    0.16    0.67   2
  -1  -4  -8   73.50    2.54   3
  -1  -4  -8   73.15    2.07   4
   1  -4   8   70.78    2.52   4
  -1   4  -8   69.86    2.30   1
   1   4   8   72.65    2.41   1
  -1   4  -8   69.49    2.44   2
   1   4   8   71.88    2.04   2
   2   4   8   42.40    1.95   1
   2   4   8   41.44    1.71   2
  -2   4  -8   41.04    1.88   1
  -2   4  -8   42.10    1.92   2
   2  -4   8   46.21    2.08   4
  -2  -4  -8   45.85    2.11   3
  -3  -4  -8   24.89    1.78   3
   3   4   8   25.35    1.61   1
  -3   4  -8   23.20    1.58   2
   3   4   8   22.47    1.53   2
   3  -4   8   21.64    1.61   4
  -3   4  -8   26.02    1.71   1
   4  -4   8   10.54    1.37   4
  -4  -4  -8   17.58    1.66   3
   4   4   8   14.89    1.44   1
  -4   4  -8   12.83    1.50   1
  -4   4  -8   13.33    1.39   2
   4   4   8   12.06    1.35   2
  -5  -4  -8    2.19    1.35   3
  -5   4  -8    1.04    1.08   2
  -5   4  -8    2.32    1.22   1
   5  -4   8    2.04    1.11   4
   5   4   8    2.51    1.11   2
   5   4   8    1.33    1.09   1
  -6   4  -8    4.32    1.48   2
  -6  -4  -8    0.88    1.41   3
  -6   4  -8    1.85    1.38   1
   6   4   8    4.62    1.54   2
  -6   5   8    1.61    1.59   4
  -6   5   8    1.43    1.50   1
  -6  -5   8   -0.88    1.60   3
   6   5  -8    0.13    1.56   2
  -5  -5   8    0.82    1.33   3
  -5   5   8   -0.57    1.35   4
  -5   5   8    1.20    1.19   1
   5   5  -8    2.44    1.43   2
  -4  -5   8    7.29    1.44   4
  -4   5   8    3.30    1.24   4
   4  -5  -8    2.53    1.17   3
  -4  -5   8    5.26    1.31   3
  -4   5   8    6.30    1.29   1
   4   5  -8    5.30    1.34   2
  -3  -5   8    0.62    0.89   4
  -3   5   8   -0.54    0.98   4
   3   5  -8   -0.86    0.92   2
  -3   5   8   -0.16    0.92   1
  -3  -5   8   -1.19    0.84   3
   3  -5  -8    2.50    1.00   3
   2  -5  -8   33.96    1.95   3
  -2   5   8   27.98    1.80   1
  -2  -5   8   27.90    1.78   4
   2   5  -8   30.36    1.98   2
  -2   5   8   30.13    1.91   4
  -2  -5   8   28.14    1.75   3
  -1   5   8   23.49    1.61   1
   1  -5  -8   22.66    1.64   3
  -1  -5   8   22.43    1.61   4
   1   5  -8   26.14    1.70   2
   1  -5  -8   20.53    1.52   4
   0  -5   8   23.12    1.67   4
   0  -5  -8   25.84    1.74   3
   0   5   8   25.32    1.66   1
   0   5  -8   23.94    1.65   2
   0   5  -8   22.14    1.38   1
   0  -5  -8   22.74    1.47   4
  -1   5  -8   39.43    1.85   1
   1  -5   8   40.83    2.06   4
   1   5   8   33.88    1.54   2
  -1  -5  -8   39.91    1.71   4
   1   5   8   34.60    1.89   1
  -1   5  -8   37.92    1.95   2
  -1  -5  -8   37.73    2.11   3
   2  -5   8    1.01    0.89   4
   2   5   8    0.64    0.81   1
  -2   5  -8    0.42    0.82   2
  -2  -5  -8    1.66    0.94   3
  -2   5  -8   -0.38    0.81   1
   2   5   8    0.78    0.74   2
  -3   5  -8    2.71    0.98   2
   3   5   8    1.81    0.99   1
  -3  -5  -8    2.76    1.05   3
   3  -5   8    4.61    1.13   4
   3   5   8    1.83    0.88   2
  -3   5  -8    0.79    1.02   1
   4  -5   8    0.62    1.00   4
  -4   5  -8    0.47    1.02   1
  -4  -5  -8   -0.05    1.15   3
  -4   5  -8    0.05    0.94   2
   4   5   8   -0.40    0.97   1
   4   5   8    0.65    0.98   2
   5  -5   8    2.08    1.26   4
  -5   5  -8   -0.35    1.20   1
   5   5   8    1.42    1.16   2
  -5  -5  -8    0.49    1.49   3
  -5   5  -8    2.95    1.36   2
   6   5   8   11.86    1.83   2
  -6   5  -8    2.84    1.65   1
  -6  -5  -8   11.17    2.06   3
   5   6  -8    3.27    1.64   2
  -5  -6   8    5.99    1.66   3
   5  -6  -8    1.05    1.46   4
  -5   6   8    6.78    1.60   1
   4  -6  -8   10.25    1.58   4
  -4   6   8    7.74    1.52   1
   4   6  -8    8.93    1.67   2
  -4  -6   8    8.00    1.53   4
  -4  -6   8    5.17    1.55   3
   3   6  -8   13.57    1.67   2
  -3  -6   8   17.70    1.67   3
   3  -6  -8   15.64    1.63   3
  -3  -6   8   16.67    1.65   4
  -3   6   8   17.37    1.71   1
   3  -6  -8   17.77    1.77   4
   2  -6  -8    4.01    1.19   3
   2   6  -8    4.37    1.25   2
  -2  -6   8    5.49    1.28   4
   2  -6  -8    2.59    1.12   4
  -2   6   8    3.17    1.14   1
   1  -6  -8    4.23    1.06   4
   1  -6  -8    4.91    1.17   3
  -1   6   8    2.86    1.03   1
  -1  -6   8    2.98    1.09   4
   1   6  -8    5.21    1.21   2
   0   6  -8    4.18    1.01   1
   0   6  -8    8.55    1.22   2
   0  -6   8    7.99    1.29   4
   0  -6  -8    8.45    1.16   4
   0   6   8    9.09    1.26   1
   0  -6  -8    7.59    1.29   3
  -1  -6  -8    4.70    1.22   3
   1  -6   8    3.90    1.18   4
  -1   6  -8    4.28    1.09   2
  -1   6  -8    2.80    1.03   1
   1   6   8    3.78    1.09   1
  -2   6  -8   14.83    1.53   1
   2   6   8   14.17    1.53   1
  -2   6  -8   13.85    1.47   2
  -2  -6  -8   13.50    1.59   3
   2  -6   8   13.03    1.56   4
   3   6   8    4.89    1.15   2
   3  -6   8    3.23    1.26   4
  -3  -6  -8    5.48    1.35   3
  -3   6  -8    5.98    1.25   2
  -3   6  -8    5.78    1.37   1
   3   6   8    5.18    1.26   1
   4   6   8    0.37    1.11   2
   4  -6   8    0.42    1.18   4
   4   6   8    1.04    1.22   1
  -4   6  -8   -1.26    1.16   1
  -4  -6  -8    1.84    1.40   3
   5  -6   8    0.29    1.43   4
  -5   6  -8    1.46    1.55   1
  -5  -6  -8    0.18    1.69   3
   5   6   8    1.33    1.39   2
   4  -7  -8    1.34    1.50   4
   4   7  -8    3.98    1.66   2
  -4   7   8    2.66    1.54   1
  -3  -7   8    2.71    1.36   4
  -3   7   8    2.68    1.38   1
   3  -7  -8    1.49    1.28   4
   3   7  -8    1.79    1.28   2
   2  -7  -8    1.46    1.13   4
  -2   7   8    2.32    1.24   1
   2  -7  -8    0.52    1.18   3
   2   7  -8   -1.07    1.15   2
  -2  -7   8    0.95    1.26   4
   1  -7  -8    2.12    1.10   4
  -1   7   8    1.26    1.18   1
  -1  -7   8    0.95    1.17   4
   1   7  -8    1.34    1.12   2
   1  -7  -8    1.47    1.10   3
   0   7  -8    1.69    1.02   2
   0   7   8    3.24    1.20   1
   0  -7  -8    3.65    1.27   4
   0  -7   8    5.02    1.33   4
   0  -7  -8    3.50    1.27   3
   1   7   8    0.62    1.07   1
  -1  -7  -8    0.99    1.12   3
   1  -7   8    2.17    1.17   4
  -1   7  -8    1.81    1.16   2
  -1   7  -8    3.77    1.23   1
   2   7   8   -0.80    1.11   1
  -2  -7  -8   -1.16    1.16   3
  -2   7  -8    1.54    1.22   1
   2  -7   8    0.29    1.15   4
  -2   7  -8    0.95    1.12   2
   3  -7   8    5.48    1.54   4
  -3  -7  -8    7.16    1.64   3
  -3   7  -8    4.10    1.45   1
   3   7   8    6.87    1.48   1
  -4  -7  -8    0.33    1.61   3
   4  -7   8    0.25    1.43   4
  -4   7  -8   -1.37    1.46   1
   2   8  -8    2.39    1.55   2
   2  -8  -8    3.35    1.52   4
  -2   8   8    4.31    1.51   1
  -2  -8   8    3.78    1.64   4
  -1  -8   8    0.28    1.35   4
  -1   8   8   -2.46    1.27   1
   1   8  -8    1.68    1.35   2
   1  -8  -8    2.85    1.43   4
   0   8   8    2.88    1.42   1
   0  -8   8    2.08    1.41   4
   0   8  -8    3.38    1.24   2
   0  -8  -8    3.11    1.52   3
   1  -8   8    6.23    1.60   4
   1   8   8    7.29    1.63   1
  -1  -8  -8    6.40    1.59   3
  -1   8  -8    6.48    1.60   1
   2   8   8    2.11    1.44   1
   2  -8   8   -0.54    1.35   4
  -2  -8  -8    0.24    1.41   3
  -2   8  -8    0.98    1.43   1
  -7   0   9   -0.77    1.50   3
  -7   0   9    0.27    1.43   4
  -6   0   9    0.69    1.13   4
  -6   0   9    0.34    1.23   3
  -5   0   9    0.37    0.92   4
   5   0  -9    0.15    0.87   2
  -5   0   9    1.01    0.93   3
  -4   0   9    0.41    0.73   4
  -4   0   9   -0.01    0.75   3
   4   0  -9   -0.50    0.64   2
  -3   0   9   -0.11    0.58   3
  -3   0   9    0.06    0.60   4
   3   0  -9    0.55    0.56   2
  -2   0   9    0.01    0.30   1
   2   0  -9   -0.10    0.46   2
   2   0  -9   -0.34    0.48   3
  -2   0   9   -0.07    0.49   4
  -1   0   9    0.27    0.44   4
   1   0  -9   -0.21    0.39   2
   1   0  -9   -0.38    0.39   3
  -1   0   9    0.49    0.31   1
   0   0  -9    0.14    0.40   3
   0   0   9   -0.91    0.35   1
   0   0  -9   -0.40    0.37   2
   0   0   9    0.23    0.37   4
   1   0   9   -0.19    0.35   4
   1   0   9   -0.16    0.38   1
  -1   0  -9    0.23    0.44   2
  -1   0  -9    0.21    0.40   3
  -2   0  -9    0.59    0.49   2
   2   0   9   -0.43    0.44   1
   2   0   9   -0.60    0.33   4
  -2   0  -9    0.25    0.42   3
  -3   0  -9   -0.95    0.62   2
   3   0   9   -0.09    0.39   4
  -3   0  -9   -0.25    0.52   3
   3   0   9   -0.45    0.53   1
   4   0   9    0.50    0.73   1
  -4   0  -9    0.05    0.74   2
  -4   0  -9    0.48    0.69   3
   5   0   9    0.76    0.89   1
  -5   0  -9   -0.81    0.92   2
  -5   0  -9    0.45    0.87   3
  -6   0  -9   -0.50    1.17   2
   6   0   9   -0.04    1.07   1
   7   0   9   -0.89    1.33   1
  -7   0  -9   -0.86    1.40   2
   7  -1  -9    3.42    1.60   3
  -7  -1   9    1.79    1.77   3
  -7   1   9    4.13    1.65   4
  -6  -1   9    6.17    1.53   3
  -6  -1   9    7.53    1.37   4
   6  -1  -9    5.05    1.40   3
  -6   1   9    7.75    1.44   4
   6   1  -9    4.14    1.34   2
   5  -1  -9    1.64    1.02   3
  -5  -1   9   -0.59    0.90   4
   5   1  -9    0.67    0.91   2
  -5   1   9    2.48    1.03   4
  -5  -1   9    0.19    0.95   3
  -4   1   9   19.12    1.53   4
  -4  -1   9   23.53    1.61   4
  -4   1   9   21.79    1.22   1
  -4  -1   9   21.70    1.58   3
   4  -1  -9   19.85    1.25   2
   4   1  -9   22.20    1.48   2
   4  -1  -9   22.65    1.60   3
  -3   1   9   51.79    1.62   1
  -3   1   9   55.15    2.12   4
   3  -1  -9   53.26    2.08   3
  -3  -1   9   50.96    2.03   4
   3   1  -9   54.46    1.96   2
   3  -1  -9   53.47    1.70   2
  -3  -1   9   53.06    2.04   3
  -2  -1   9    3.51    0.67   3
   2   1  -9    4.18    0.71   2
   2  -1  -9    3.77    0.54   2
  -2   1   9    3.43    0.52   1
  -2   1   9    3.13    0.68   4
  -2  -1   9    2.64    0.66   4
   2  -1  -9    4.33    0.71   3
  -1  -1   9  351.48    7.47   4
   1   1  -9  365.88    7.27   2
   1   1  -9  368.81    7.23   3
  -1  -1   9  355.94    6.59   1
   1  -1  -9  357.54    7.36   3
   1  -1  -9  368.35    6.97   2
  -1   1   9  358.46    6.84   1
  -1   1   9  377.00    7.46   4
   0   1  -9  198.42    4.16   3
   0  -1   9  201.92    4.03   1
   0   1  -9  200.74    4.40   2
   0  -1   9  205.85    4.48   4
   0   1   9  205.52    4.34   4
   0   1   9  208.53    4.19   1
   0  -1  -9  201.96    4.41   3
   0  -1  -9  200.46    4.14   2
   1  -1   9  147.45    3.59   5
   1  -1   9  139.57    3.32   4
   1   1   9  150.55    3.30   1
   1  -1   9  146.05    3.21   1
   1   1   9  145.16    3.10   4
  -1  -1  -9  143.94    3.27   2
  -1   1  -9  140.01    3.04   3
  -1   1  -9  141.65    3.42   2
  -1  -1  -9  144.87    3.37   3
   2  -1   9   -0.60    0.40   4
  -2   1  -9   -0.39    0.46   2
  -2   1  -9    0.23    0.35   3
   2  -1   9   -0.19    0.52   5
   2  -1   9    0.24    0.49   1
  -2  -1  -9    0.27    0.48   3
   2   1   9    0.43    0.49   1
  -2  -1  -9    0.19    0.48   2
  -3   1  -9   11.04    1.07   2
   3  -1   9   11.74    0.95   4
  -3  -1  -9   11.34    1.07   2
   3  -1   9   11.04    1.05   1
  -3   1  -9   12.42    0.82   3
  -3  -1  -9   14.43    1.08   3
   3   1   9   11.68    1.03   1
   3  -1   9   10.99    1.17   5
   4   1   9    1.70    0.81   1
  -4  -1  -9    3.39    0.95   2
   4  -1   9    2.06    0.79   1
  -4   1  -9    1.22    0.67   3
  -4   1  -9    1.42    0.87   2
   4  -1   9    0.84    0.82   5
  -4  -1  -9    0.86    0.79   3
  -5  -1  -9   -0.19    0.88   2
   5  -1   9    2.64    0.97   1
  -5   1  -9    0.81    0.95   2
   5   1   9   -0.63    0.85   1
  -5  -1  -9    0.21    0.91   3
   5  -1   9    1.04    0.97   5
  -6  -1  -9    1.44    1.18   2
   6   1   9   -0.44    1.12   1
  -6   1  -9    0.31    1.14   2
   6  -1   9    0.84    1.07   1
  -6  -1  -9    2.04    1.20   3
   7  -1   9    1.48    1.45   1
  -7   1  -9   -0.07    1.48   2
  -7  -1  -9   -0.21    1.62   2
   7   2  -9    1.64    1.56   2
  -7   2   9   -0.33    1.57   4
  -7  -2   9   -1.94    1.69   3
   7  -2  -9   -1.61    1.54   3
  -6  -2   9    1.30    1.38   3
   6  -2  -9    2.68    1.26   3
  -6  -2   9    2.40    1.21   4
   6   2  -9    1.57    1.28   2
  -6   2   9    1.13    1.25   4
   5  -2  -9    1.14    1.03   3
  -5   2   9   -0.07    0.95   4
  -5  -2   9    1.22    1.01   4
  -5  -2   9   -1.37    1.02   3
   5   2  -9    1.02    0.98   2
   4  -2  -9    9.44    1.21   3
  -4   2   9    5.69    1.11   4
  -4   2   9    7.71    0.93   1
  -4  -2   9    6.56    1.15   3
   4   2  -9    5.49    1.13   2
  -4  -2   9    6.92    1.13   4
  -3  -2   9  139.30    3.65   3
   3   2  -9  131.41    3.60   2
  -3  -2   9  133.47    3.66   4
  -3   2   9  134.89    3.22   1
  -3   2   9  127.61    3.68   4
  -2  -2   9   18.65    1.29   4
   2  -2  -9   19.90    1.28   3
  -2   2   9   19.80    1.28   4
  -2   2   9   18.40    1.10   1
  -2  -2   9   20.00    1.20   3
   2   2  -9   19.97    1.31   2
  -1   2   9   84.67    2.39   4
   1   2  -9   82.56    2.43   2
  -1  -2   9   81.37    1.83   1
  -1  -2   9   83.39    2.48   4
  -1  -2   9   85.12    2.22   3
  -1  -2   9   86.11    2.04   5
  -1   2   9   80.32    2.23   1
   1  -2  -9   84.46    2.48   3
   0   2  -9   40.63    1.60   2
   0   2  -9   38.29    1.22   3
   0   2   9   39.49    1.49   1
   0  -2  -9   42.77    1.62   3
   0  -2   9   41.73    1.67   4
   0   2   9   40.51    1.42   4
   0   2  -9   38.14    1.30   1
   0  -2  -9   41.34    1.33   2
   1  -2   9   59.14    1.94   4
   1   2   9   58.42    1.57   4
   1   2   9   56.32    1.88   1
  -1   2  -9   59.14    1.97   2
  -1  -2  -9   61.69    1.98   3
  -1   2  -9   58.22    1.81   1
  -1  -2  -9   59.22    1.75   2
  -2   2  -9  279.50    6.04   1
   2   2   9  288.77    6.05   1
  -2  -2  -9  293.73    6.26   3
  -2  -2  -9  293.74    6.13   2
  -2   2  -9  293.20    6.29   2
   2  -2   9  291.62    6.25   4
   3  -2   9  181.54    4.42   4
  -3   2  -9  183.45    4.57   2
  -3  -2  -9  183.27    4.53   3
  -3  -2  -9  190.71    4.54   2
   3   2   9  186.62    4.40   1
   4   2   9    2.91    0.92   1
   4  -2   9    2.09    0.80   4
  -4   2  -9    0.53    0.83   2
   4  -2   9    2.03    0.95   5
   4  -2   9    3.11    0.91   1
  -4  -2  -9    1.31    0.89   2
  -4  -2  -9    3.88    0.97   3
  -5  -2  -9    4.52    1.24   2
   5   2   9    3.23    1.05   1
  -5   2  -9    2.00    1.06   2
  -5  -2  -9    4.06    1.19   3
   5  -2   9    3.43    1.08   1
   5  -2   9    5.78    1.33   5
  -6  -2  -9    1.05    1.27   3
   6  -2   9    5.40    1.39   1
   6   2   9    2.72    1.21   1
  -6  -2  -9    2.15    1.30   2
   6  -2   9    3.55    1.39   5
  -6   2  -9    2.92    1.33   2
  -7  -2  -9   -0.79    1.46   2
  -7  -2  -9    1.16    1.58   3
   7  -2   9    0.83    1.45   1
  -7   2  -9    0.62    1.41   2
   6   3  -9   12.33    1.85   2
  -6  -3   9   14.75    2.03   3
  -6   3   9   10.95    1.72   4
   6  -3  -9   10.10    1.77   3
  -5   3   9   40.56    2.35   4
  -5  -3   9   42.48    2.28   4
   5   3  -9   41.77    2.37   2
  -5   3   9   44.03    2.06   1
   5  -3  -9   41.07    2.43   3
  -5  -3   9   41.64    2.49   3
  -4   3   9   77.77    2.60   1
  -4   3   9   72.14    2.90   4
  -4  -3   9   77.21    2.81   4
   4  -3  -9   77.04    2.91   3
   4   3  -9   76.21    2.90   2
  -4  -3   9   75.87    2.91   3
  -3   3   9   62.05    2.56   4
   3  -3  -9   72.42    2.64   3
  -3  -3   9   68.35    2.53   3
  -3  -3   9   74.16    3.07   4
  -3   3   9   71.49    2.33   1
   3   3  -9   71.69    2.65   2
   2  -3  -9    9.96    1.09   3
  -2   3   9   10.85    0.98   1
  -2  -3   9    8.80    0.96   3
  -2  -3   9   10.30    1.11   4
   2   3  -9    7.84    1.06   2
  -2   3   9    9.69    1.06   4
  -1   3   9    6.09    0.83   4
  -1  -3   9    6.08    0.70   3
   1   3  -9    5.67    0.58   1
   1  -3  -9    5.40    0.87   3
  -1   3   9    5.79    0.82   1
   1   3  -9    4.08    0.84   2
  -1  -3   9    6.45    0.89   4
   0   3  -9    0.22    0.45   1
   0   3   9   -0.17    0.45   4
   0  -3  -9   -0.15    0.57   3
   0  -3   9    0.06    0.57   4
   0  -3  -9    0.55    0.37   2
   0   3  -9    0.18    0.61   2
   0  -3   9    0.08    0.35   3
   0   3   9    0.04    0.54   1
   1   3   9   77.32    2.02   4
  -1   3  -9   76.51    2.48   2
  -1  -3  -9   81.14    2.50   3
   1  -3   9   77.89    2.50   4
  -1  -3  -9   80.53    2.19   2
   1   3   9   78.93    2.41   1
  -1   3  -9   78.51    2.28   1
   2   3   9   51.41    2.05   1
  -2  -3  -9   54.00    1.96   2
  -2   3  -9   53.66    2.02   1
  -2   3  -9   52.50    2.08   2
   2  -3   9   53.39    2.10   4
  -2  -3  -9   51.71    2.12   3
  -3   3  -9    1.89    0.83   2
  -3  -3  -9    0.23    0.84   3
  -3   3  -9    2.44    0.84   1
   3   3   9    1.04    0.78   1
  -3  -3  -9    0.16    0.79   2
   3  -3   9    1.74    0.89   4
   4  -3   9   12.73    1.31   4
  -4   3  -9    8.74    1.21   2
   4   3   9   12.53    1.29   1
  -4  -3  -9   12.57    1.39   2
  -4  -3  -9   11.14    1.38   3
  -4   3  -9    9.54    1.36   1
   5   3   9    7.97    1.29   1
  -5   3  -9   10.50    1.45   2
  -5  -3  -9   13.35    1.58   3
  -5  -3  -9   11.30    1.54   2
  -5   3  -9    8.14    1.40   1
   6   3   9   -0.49    1.13   1
  -6  -3  -9    0.08    1.28   3
  -6   3  -9   -2.18    1.19   2
   6  -3   9    0.83    1.34   5
  -6  -3  -9   -0.34    1.24   2
   6  -3   9    0.53    1.17   1
   6   4  -9   -1.03    1.45   2
  -6  -4   9   -0.22    1.52   3
  -6   4   9    1.38    1.43   4
   6  -4  -9    0.46    1.38   3
   5   4  -9   10.24    1.69   2
  -5  -4   9   15.42    1.65   4
  -5  -4   9   13.95    1.79   3
  -5   4   9   14.37    1.56   1
  -5   4   9   10.81    1.66   4
   5  -4  -9   12.59    1.66   3
  -4  -4   9    1.73    1.06   4
   4   4  -9    0.29    1.10   2
  -4   4   9    1.17    1.07   4
  -4   4   9    0.53    0.85   1
   4  -4  -9   -1.01    0.94   3
  -4  -4   9    0.72    0.96   3
  -3  -4   9   75.42    2.75   4
  -3  -4   9   74.91    2.72   3
  -3   4   9   73.80    2.59   1
  -3   4   9   74.06    2.86   4
   3  -4  -9   77.57    2.86   3
   3   4  -9   70.02    2.80   2
  -2  -4   9  232.96    5.31   3
   2  -4  -9  232.17    5.58   3
   2   4  -9  230.49    5.60   2
  -2   4   9  229.24    5.28   1
  -2   4   9  228.87    5.62   4
  -1  -4   9   39.31    1.93   4
   1   4  -9   38.86    1.39   1
   1  -4  -9   36.73    1.89   3
  -1   4   9   38.82    1.79   1
   1   4  -9   36.43    1.91   2
  -1  -4   9   38.89    1.59   3
  -1   4   9   33.96    1.66   4
   0  -4  -9    0.70    0.74   3
   0   4  -9   -0.07    0.57   1
   0   4   9   -0.13    0.57   4
   0  -4   9   -0.27    0.66   4
   0   4   9   -0.04    0.66   1
   0   4  -9    0.61    0.74   2
  -1   4  -9   13.14    1.24   2
   1   4   9    7.79    0.79   2
   1   4   9   10.76    1.11   1
  -1  -4  -9   11.24    1.21   3
  -1   4  -9    9.60    1.05   1
   1  -4   9   10.71    1.18   4
  -1  -4  -9    8.82    0.84   4
  -2   4  -9   40.48    1.91   1
   2  -4   9   37.26    1.99   4
   2   4   9   39.70    1.92   1
   2   4   9   38.51    1.67   2
  -2  -4  -9   40.94    2.05   3
  -2   4  -9   39.89    1.93   2
   3  -4   9   14.08    1.46   4
  -3  -4  -9   13.02    1.38   3
   3   4   9   12.99    1.34   1
  -3   4  -9   10.43    1.28   1
  -3   4  -9   10.63    1.23   2
  -4   4  -9   13.49    1.54   1
   4   4   9   11.68    1.39   1
   4  -4   9   15.31    1.54   4
  -4   4  -9   13.70    1.42   2
   4   4   9   15.50    1.47   2
  -4  -4  -9   13.45    1.59   3
   5   4   9    1.09    1.16   1
  -5  -4  -9    2.12    1.28   3
   5   4   9    2.25    1.15   2
  -5   4  -9   -0.62    1.13   1
   5  -4   9    1.21    1.07   4
  -5   4  -9    1.22    1.20   2
   6   4   9    1.18    1.33   2
  -6  -4  -9   -0.29    1.38   3
  -6   4  -9    1.68    1.39   2
  -6   4  -9    0.53    1.41   1
  -5   5   9    1.15    1.22   1
  -5  -5   9    0.60    1.35   3
   5   5  -9    1.52    1.43   2
  -5   5   9   -0.64    1.26   4
   4  -5  -9    3.79    1.24   3
   4   5  -9    4.00    1.33   2
  -4   5   9    2.91    1.16   1
  -4  -5   9    3.54    1.30   3
  -4   5   9    5.22    1.35   4
  -4  -5   9    5.64    1.39   4
  -3  -5   9   16.53    1.60   3
   3  -5  -9   17.32    1.59   3
  -3  -5   9   17.03    1.59   4
   3   5  -9   15.95    1.63   2
  -3   5   9   19.09    1.62   1
  -3   5   9   20.19    1.80   4
  -2  -5   9    2.10    0.97   4
   2   5  -9    3.87    1.09   2
  -2   5   9    1.62    0.96   4
  -2   5   9    2.15    0.99   1
   2  -5  -9    1.89    0.94   3
  -2  -5   9    0.71    0.84   3
   1   5  -9   40.02    2.10   2
  -1   5   9   40.68    2.02   1
   1  -5  -9   36.58    2.09   3
  -1   5   9   38.72    1.95   4
  -1  -5   9   43.11    2.50   4
   0   5  -9   70.73    2.37   1
   0  -5   9   70.80    2.72   4
   0   5   9   76.67    2.69   1
   0  -5  -9   75.80    2.76   3
   0  -5  -9   71.32    2.43   4
   0   5  -9   73.44    2.69   2
  -1  -5  -9  158.66    3.84   4
   1  -5   9  148.82    4.33   4
  -1  -5  -9  161.39    4.37   3
   1   5   9  154.45    4.18   1
  -1   5  -9  157.42    4.04   1
  -2   5  -9    6.58    1.15   1
  -2  -5  -9    8.76    1.27   3
  -2   5  -9    6.44    1.14   2
   2   5   9    8.05    1.21   1
   2   5   9    8.10    0.97   2
   2  -5   9    8.77    1.30   4
   3  -5   9    1.27    1.03   4
  -3   5  -9    1.05    0.94   2
  -3   5  -9    1.13    1.01   1
   3   5   9   -0.05    0.93   1
  -3  -5  -9    2.22    1.11   3
   3   5   9    1.02    0.86   2
   4   5   9   -0.33    0.93   2
  -4  -5  -9   -1.10    1.15   3
   4   5   9   -0.70    0.99   1
   4  -5   9    0.46    1.07   4
  -4   5  -9    0.50    0.98   2
  -4   5  -9   -1.19    1.04   1
  -5   5  -9    1.48    1.36   1
   5   5   9    1.53    1.20   1
   5   5   9   -1.33    1.11   2
  -5   5  -9    0.70    1.43   2
   5  -5   9   -0.69    1.18   4
  -5  -5  -9   -0.91    1.40   3
  -5   6   9    4.08    1.54   1
  -5  -6   9    3.01    1.66   3
   5  -6  -9    2.64    1.49   4
   5   6  -9    3.53    1.62   2
   4   6  -9    5.45    1.59   2
  -4  -6   9    2.93    1.45   3
  -4   6   9    4.04    1.35   1
  -4  -6   9    4.92    1.43   4
   4  -6  -9    4.99    1.42   4
  -3   6   9    0.04    1.08   1
   3  -6  -9   -1.18    1.03   4
   3   6  -9   -0.47    1.13   2
   3  -6  -9    1.16    1.10   3
  -3  -6   9    1.64    1.15   4
  -2   6   9    0.97    1.04   1
  -2  -6   9    1.72    1.11   4
   2   6  -9    1.41    1.12   2
   2  -6  -9    0.80    1.00   4
   2  -6  -9    2.13    1.09   3
  -1   6   9    4.30    1.17   1
   1  -6  -9    6.05    1.28   3
  -1  -6   9    5.27    1.18   4
   1   6  -9    4.84    1.21   2
   1  -6  -9    5.84    1.17   4
   0   6   9    0.57    0.94   1
   0  -6  -9   -0.34    0.80   4
   0   6  -9    0.07    0.86   1
   0   6  -9    1.41    0.97   2
   0  -6  -9   -0.03    0.97   3
   0  -6   9    0.58    0.90   4
  -1   6  -9   15.48    1.52   2
   1  -6   9   16.92    1.65   4
  -1  -6  -9   15.94    1.60   3
  -1   6  -9   15.83    1.48   1
   1   6   9   14.82    1.54   1
  -2   6  -9    2.19    1.09   2
  -2   6  -9    1.84    1.10   1
  -2  -6  -9    1.11    1.12   3
   2   6   9    1.14    1.02   1
   2  -6   9    2.09    1.14   4
   3   6   9    0.86    0.96   2
  -3  -6  -9    0.72    1.20   3
  -3   6  -9    1.97    1.14   2
   3  -6   9    1.43    1.20   4
   3   6   9   -0.14    1.08   1
  -3   6  -9    0.17    1.11   1
   4   6   9    6.04    1.42   1
  -4   6  -9    5.46    1.54   1
  -4   6  -9    5.58    1.32   2
   4   6   9    3.21    1.27   2
  -4  -6  -9    3.35    1.57   3
   4  -6   9    3.62    1.49   4
  -5  -6  -9   -1.88    1.59   3
   5   6   9    3.33    1.42   2
  -5   6  -9    0.70    1.50   1
   5  -6   9    0.32    1.50   4
   4  -7  -9    3.31    1.45   4
  -4   7   9    0.38    1.42   1
   4   7  -9    3.73    1.70   2
  -3  -7   9    1.21    1.30   4
   3  -7  -9    2.38    1.35   4
   3   7  -9    3.78    1.53   2
  -3   7   9    1.15    1.30   1
  -2  -7   9    1.21    1.18   4
   2   7  -9    1.30    1.30   2
   2  -7  -9    1.33    1.18   4
   2  -7  -9   -0.30    1.18   3
  -2   7   9    0.98    1.19   1
  -1   7   9   -1.33    1.08   1
  -1  -7   9    0.09    1.14   4
   1  -7  -9    0.98    1.18   3
   1   7  -9   -0.54    1.06   2
   1  -7  -9    0.05    1.06   4
   0  -7  -9   -0.10    1.03   4
   0   7   9    0.25    1.11   1
   0   7  -9    0.42    0.98   2
   0  -7  -9   -0.48    1.16   3
   0  -7   9   -1.39    1.04   4
  -1  -7  -9    0.31    1.20   3
  -1   7  -9    0.36    1.08   1
   1  -7   9    1.04    1.18   4
   1   7   9    3.23    1.18   1
  -1   7  -9    1.75    1.18   2
  -2   7  -9    7.04    1.53   1
   2   7   9    4.14    1.40   1
   2  -7   9    4.21    1.42   4
  -2   7  -9    8.30    1.46   2
  -2  -7  -9    7.65    1.51   3
  -3   7  -9   -0.94    1.31   1
  -3  -7  -9    1.00    1.37   3
   3   7   9    0.15    1.31   1
   3  -7   9   -0.60    1.30   4
  -4   7  -9   -1.27    1.48   1
  -4  -7  -9   -0.38    1.55   3
   4  -7   9   -2.37    1.36   4
   2   8  -9   -0.58    1.45   2
  -2  -8   9    2.20    1.60   4
   2  -8  -9    0.88    1.43   4
  -2   8   9   -0.21    1.38   1
  -1   8   9    7.96    1.65   1
   1   8  -9    8.77    1.63   2
   1  -8  -9    5.96    1.56   4
  -1  -8   9    7.20    2.00   4
   0  -8  -9    3.84    1.57   3
   0   8   9    3.77    1.46   1
   0  -8   9    4.85    1.58   4
   0   8  -9    5.13    1.59   2
   1  -8   9    7.99    1.69   4
   1   8   9    5.89    1.59   1
  -1  -8  -9    5.32    1.66   3
  -2  -8  -9    1.22    1.52   3
   2  -8   9   -1.63    1.34   4
  -2   8  -9    0.90    1.58   1
   2   8   9    0.99    1.47   1
  -7   0  10    1.25    1.43   4
   7   0 -10    1.08    1.52   3
  -6   0  10   19.78    1.99   3
  -6   0  10   18.81    1.83   4
  -5   0  10   33.19    2.15   3
   5   0 -10   35.49    1.87   2
  -5   0  10   39.67    2.15   4
   4   0 -10   15.43    1.24   2
  -4   0  10   14.59    1.35   4
  -4   0  10   15.47    1.41   3
  -3   0  10  162.59    4.19   4
   3   0 -10  162.84    4.12   3
   3   0 -10  157.98    3.81   2
   2   0 -10   48.45    1.82   3
  -2   0  10   47.86    1.28   1
   2   0 -10   49.36    1.66   2
  -2   0  10   47.43    1.82   4
  -1   0  10    0.09    0.44   4
   1   0 -10    0.28    0.44   2
  -1   0  10    0.74    0.35   1
   1   0 -10   -0.07    0.47   3
   0   0 -10   12.47    0.83   2
   0   0 -10   12.73    0.83   3
   0   0  10   11.79    0.85   4
   0   0  10   12.35    0.78   1
   1   0  10  421.32    8.12   1
  -1   0 -10  422.60    8.33   3
   1   0  10  425.47    8.40   4
  -1   0 -10  438.26    8.47   2
   2   0  10   -0.24    0.49   1
  -2   0 -10   -0.19    0.51   2
   2   0  10    0.73    0.40   4
  -2   0 -10   -0.48    0.44   3
  -3   0 -10   31.10    1.90   2
   3   0  10   32.13    1.59   1
  -3   0 -10   31.04    1.45   3
  -4   0 -10  135.97    3.90   2
  -4   0 -10  132.62    3.51   3
   4   0  10  138.66    3.75   1
   5   0  10   20.01    1.63   1
  -5   0 -10   22.70    1.55   3
  -5   0 -10   19.12    1.76   2
   6   0  10    1.63    1.16   1
  -6   0 -10    1.37    1.20   2
   7   0  10    1.46    1.49   1
  -7   0 -10    1.93    1.55   2
  -7   1  10    5.32    1.61   4
  -7  -1  10    2.92    1.72   3
   7  -1 -10    3.86    1.70   3
  -6   1  10    1.30    1.21   4
  -6  -1  10    1.63    1.20   4
  -6  -1  10    0.93    1.28   3
   6   1 -10   -0.26    1.10   2
   6  -1 -10    0.12    1.21   3
   5   1 -10    2.14    1.04   2
  -5   1  10    0.18    1.00   4
  -5  -1  10    2.01    1.00   4
  -5  -1  10   -0.22    1.00   3
   5  -1 -10    3.02    1.14   3
   4  -1 -10   24.88    1.70   3
  -4  -1  10   25.84    1.73   3
  -4  -1  10   24.21    1.70   4
  -4   1  10   24.07    1.67   4
   4   1 -10   23.13    1.55   2
   3  -1 -10   86.78    2.34   2
  -3   1  10   87.15    2.82   4
  -3   1  10   87.35    2.22   1
  -3  -1  10   88.97    2.80   4
   3   1 -10   87.79    2.65   2
  -3  -1  10   89.57    2.77   3
   3  -1 -10   83.61    2.75   3
  -2  -1  10   57.12    1.97   3
   2   1 -10   58.50    1.96   2
  -2   1  10   59.32    2.06   4
  -2  -1  10   53.28    2.01   4
  -2   1  10   55.42    1.63   1
   2  -1 -10   58.12    1.68   2
   2  -1 -10   59.12    2.05   3
  -1  -1  10  100.92    2.17   1
   1  -1 -10   99.38    2.36   2
  -1  -1  10  100.93    2.76   4
   1   1 -10  100.15    2.65   2
  -1   1  10   98.02    2.37   1
  -1   1  10   99.67    2.69   4
   1  -1 -10  101.41    2.74   3
   1   1 -10  103.28    2.59   3
   0  -1  10  134.33    2.94   1
   0  -1 -10  136.06    3.02   2
   0   1  10  138.15    3.19   4
   0   1 -10  135.25    3.33   2
   0  -1  10  139.66    3.33   4
   0   1  10  134.32    3.08   1
   0   1 -10  132.76    3.02   3
   0  -1 -10  137.53    3.29   3
   1   1  10  245.56    5.21   1
  -1   1 -10  248.44    5.05   3
   1  -1  10  255.78    5.15   1
  -1   1 -10  257.73    5.47   2
   1  -1  10  256.09    5.41   4
  -1  -1 -10  258.57    5.30   2
   1   1  10  254.50    5.16   4
  -1  -1 -10  250.37    5.38   3
   1  -1  10  256.28    5.75   5
  -2  -1 -10    1.01    0.60   2
   2  -1  10    0.15    0.59   5
   2  -1  10    0.50    0.47   4
   2   1  10    0.53    0.54   1
  -2  -1 -10    0.05    0.54   3
  -2   1 -10    0.44    0.40   3
   2  -1  10   -0.32    0.52   1
  -2   1 -10   -0.08    0.53   2
   3  -1  10    9.38    1.13   5
  -3   1 -10    8.55    1.02   2
  -3  -1 -10    7.78    1.01   2
   3  -1  10    8.51    1.00   1
  -3   1 -10   10.56    0.79   3
  -3  -1 -10    9.79    0.97   3
   3   1  10    7.82    0.95   1
   3  -1  10    9.91    0.89   4
   4  -1  10   20.93    1.67   5
  -4   1 -10   20.30    1.58   2
  -4  -1 -10   23.47    1.53   3
   4  -1  10   20.53    1.47   1
  -4  -1 -10   19.94    1.55   2
  -4   1 -10   21.80    1.43   3
   4   1  10   19.18    1.44   1
   5  -1  10    1.40    1.01   1
  -5   1 -10    1.16    1.00   2
  -5  -1 -10    0.66    0.98   3
   5   1  10   -0.30    0.83   1
  -5  -1 -10    2.03    1.04   2
   6   1  10   -0.10    1.06   1
  -6  -1 -10    0.39    1.16   2
   6  -1  10    0.29    1.18   1
  -6  -1 -10    1.11    1.18   3
  -6   1 -10    0.56    1.19   2
   7   1  10    1.74    1.41   1
  -7  -1 -10    2.87    1.67   2
  -7   1 -10    2.79    1.62   2
   7  -1  10    5.81    1.72   1
   7   2 -10    2.80    1.65   2
  -7  -2  10    1.36    1.78   3
   7  -2 -10    1.83    1.61   3
  -7   2  10   -2.89    1.52   4
   6  -2 -10    1.14    1.33   3
  -6  -2  10    0.10    1.47   3
  -6  -2  10    1.75    1.25   4
  -6   2  10   -0.26    1.27   4
   6   2 -10    1.37    1.29   2
  -5   2  10    6.63    1.35   4
   5  -2 -10    4.61    1.27   3
  -5  -2  10    5.36    1.16   4
  -5  -2  10    5.68    1.34   3
   5   2 -10    3.98    1.18   2
  -4  -2  10   32.60    1.99   3
  -4   2  10   35.19    2.02   4
   4  -2 -10   35.90    2.04   3
   4   2 -10   35.58    1.96   2
  -4   2  10   35.54    1.68   1
  -4  -2  10   36.48    1.96   4
  -3  -2  10   21.29    1.45   3
  -3   2  10   18.60    1.20   1
  -3  -2  10   21.28    1.50   4
   3  -2 -10   16.20    1.37   3
  -3   2  10   20.36    1.47   4
   3   2 -10   19.78    1.47   2
   2  -2 -10    0.09    0.59   3
  -2   2  10    0.71    0.60   4
  -2   2  10    0.00    0.52   1
  -2  -2  10    0.27    0.55   4
  -2  -2  10   -0.20    0.53   3
   2   2 -10    0.93    0.66   2
  -1  -2  10  423.67    8.25   3
  -1  -2  10  410.80    7.57   1
  -1   2  10  416.25    8.53   4
  -1   2  10  424.25    8.05   1
  -1  -2  10  414.70    8.66   4
   1  -2 -10  413.93    8.56   3
   1   2 -10  410.85    8.46   2
   0   2 -10  552.06   10.67   2
   0  -2  10  558.72   11.11   5
   0  -2  10  530.22   10.84   4
   0   2  10  548.91   10.62   4
   0  -2  10  543.34    9.96   1
   0  -2 -10  545.22   10.16   2
   0   2 -10  545.58   10.25   3
   0   2  10  532.06   10.21   1
   0  -2 -10  521.89   10.70   3
  -1   2 -10   15.69    1.00   1
  -1  -2 -10   14.53    1.08   3
  -1   2 -10   14.79    1.08   2
  -1  -2 -10   13.95    0.99   2
   1   2  10   15.03    1.05   1
   1  -2  10   15.96    1.08   4
   1   2  10   12.99    0.83   4
  -2   2 -10    5.79    0.86   1
  -2   2 -10    4.19    0.84   2
   2  -2  10    5.62    0.84   4
   2   2  10    5.52    0.87   1
  -2  -2 -10    4.46    0.81   3
  -2  -2 -10    4.80    0.74   2
   3   2  10   22.14    1.49   1
   3  -2  10   21.39    1.45   1
  -3  -2 -10   22.14    1.58   3
  -3  -2 -10   22.06    1.44   2
  -3   2 -10   21.74    1.50   2
   3  -2  10   20.78    1.48   4
   3  -2  10   20.81    1.51   5
   4  -2  10    7.37    1.11   1
   4  -2  10    6.91    1.27   5
  -4  -2 -10    8.28    1.18   3
   4  -2  10    7.18    1.03   4
  -4   2 -10    7.07    1.18   2
   4   2  10    5.04    1.02   1
  -4  -2 -10    9.11    1.23   2
   5  -2  10   11.88    1.49   1
  -5  -2 -10   11.16    1.48   2
   5  -2  10   16.84    1.80   5
  -5   2 -10   10.60    1.46   2
  -5  -2 -10   12.68    1.52   3
   5   2  10   11.66    1.40   1
   6   2  10    5.34    1.35   1
  -6  -2 -10    5.03    1.55   2
  -6  -2 -10    4.71    1.44   3
   6  -2  10    6.07    1.54   5
   6  -2  10    4.20    1.33   1
  -6   2 -10    9.13    1.59   2
  -6   3  10   -0.80    1.26   4
   6   3 -10   -1.39    1.37   2
  -6  -3  10    0.73    1.22   4
   6  -3 -10    0.22    1.35   3
  -6  -3  10    2.28    1.53   3
  -5  -3  10    7.43    1.34   4
   5   3 -10    6.43    1.43   2
   5  -3 -10    5.43    1.34   3
  -5  -3  10    8.33    1.53   3
  -5   3  10    5.05    1.32   4
  -4   3  10   72.29    2.48   1
  -4  -3  10   67.85    2.79   3
  -4   3  10   71.26    2.86   4
   4   3 -10   72.67    2.87   2
   4  -3 -10   72.60    2.87   3
  -4  -3  10   65.57    2.66   4
  -3   3  10   41.81    2.12   4
  -3  -3  10   50.16    2.55   4
  -3   3  10   48.85    1.95   1
   3   3 -10   44.72    2.17   2
   3  -3 -10   48.15    2.25   3
  -3  -3  10   41.67    2.03   3
  -2   3  10    9.04    0.99   1
  -2  -3  10    8.11    1.10   4
  -2  -3  10    9.57    1.00   3
  -2   3  10    9.97    1.13   4
   2  -3 -10   10.41    1.14   3
   2   3 -10   10.92    1.21   2
  -1   3  10    0.48    0.58   4
  -1  -3  10    0.77    0.69   4
  -1   3  10    0.57    0.69   1
  -1  -3  10    0.70    0.53   3
   1  -3 -10    1.25    0.70   3
   1   3 -10    0.04    0.69   2
   1   3 -10    1.16    0.48   1
   0   3  10   15.10    1.09   4
   0  -3 -10   13.56    0.86   2
   0   3 -10   12.99    0.86   3
   0  -3  10   15.03    1.21   4
   0   3 -10   15.33    0.98   1
   0   3 -10   16.56    1.24   2
   0   3  10   16.00    1.16   1
   0  -3 -10   18.23    1.26   3
  -1   3 -10   16.52    1.15   1
   1  -3  10   16.67    1.25   4
  -1   3 -10   16.29    1.26   2
  -1  -3 -10   15.87    1.26   3
   1   3  10   13.36    1.15   1
  -1  -3 -10   15.39    1.09   2
   1   3  10   13.56    0.91   4
  -2   3 -10  363.16    7.52   1
   2  -3  10  360.93    7.86   4
  -2  -3 -10  361.63    7.80   3
   2   3  10  365.33    7.56   1
  -2  -3 -10  366.61    7.52   2
  -2   3 -10  357.14    7.78   2
  -3   3 -10  210.34    5.17   1
   3   3  10  214.88    5.10   1
   3  -3  10  206.39    5.22   4
  -3  -3 -10  215.37    5.30   3
  -3   3 -10  223.63    5.34   2
  -3  -3 -10  214.34    5.14   2
  -4   3 -10    5.96    1.19   1
  -4   3 -10    8.12    1.18   2
   4   3  10    6.53    1.15   1
   4  -3  10    7.81    1.23   4
  -4  -3 -10    6.21    1.21   2
  -4  -3 -10    4.95    1.19   3
   5  -3  10    7.73    1.36   1
  -5   3 -10    4.71    1.30   2
  -5  -3 -10    2.57    1.20   2
  -5  -3 -10    4.66    1.36   3
   5  -3  10    3.31    1.31   5
   5   3  10    3.50    1.19   1
  -6  -3 -10    2.32    1.38   3
   6  -3  10    2.57    1.34   1
   6   3  10    1.40    1.25   1
  -6   3 -10    1.47    1.30   2
  -6  -3 -10    2.00    1.35   2
   6  -3  10   -0.57    1.29   5
  -6   4  10    4.33    1.63   4
   6  -4 -10    2.09    1.49   3
  -6  -4  10    5.53    1.80   3
   6   4 -10    7.21    1.79   2
  -5  -4  10   14.04    1.65   4
  -5  -4  10   12.31    1.75   3
   5  -4 -10   16.42    1.85   3
  -5   4  10   15.26    1.63   1
  -5   4  10   13.24    1.80   4
   5   4 -10   12.80    1.80   2
   4  -4 -10    0.30    0.99   3
  -4  -4  10    0.06    1.02   4
  -4   4  10   -0.68    0.89   1
  -4   4  10   -0.92    1.03   4
  -4  -4  10   -0.24    0.99   3
   4   4 -10   -0.78    1.01   2
  -3   4  10    0.72    0.92   4
  -3  -4  10   -0.77    0.82   4
   3  -4 -10    0.28    0.91   3
   3   4 -10    0.08    0.88   2
  -3   4  10   -0.06    0.79   1
  -3  -4  10   -0.11    0.83   3
  -2  -4  10  217.92    5.47   4
   2  -4 -10  220.02    5.43   3
  -2  -4  10  221.44    5.13   3
  -2   4  10  220.48    5.11   1
   2   4 -10  214.15    5.42   2
  -2   4  10  216.21    5.42   4
   1  -4 -10   24.68    1.67   3
  -1  -4  10   23.99    1.66   4
  -1  -4  10   24.30    1.35   3
  -1   4  10   22.44    1.44   4
   1   4 -10   24.43    1.70   2
  -1   4  10   26.88    1.59   1
   0   4  10    0.23    0.74   1
   0  -4 -10    0.44    0.77   3
   0   4  10    0.32    0.60   4
   0   4 -10   -0.92    0.73   2
   0   4 -10    1.09    0.63   1
   0  -4  10    0.61    0.76   4
   1  -4  10  140.35    3.94   4
   1   4  10  138.25    3.73   1
   1   4  10  136.87    3.27   2
  -1  -4 -10  141.02    3.36   4
  -1  -4 -10  142.49    3.89   3
  -1   4 -10  133.51    3.54   1
  -1   4 -10  141.87    3.88   2
  -2   4 -10   30.96    1.70   1
   2  -4  10   32.73    1.87   4
  -2  -4 -10   28.89    1.90   3
   2   4  10   28.31    1.75   1
  -2  -4 -10   31.00    1.62   2
  -2   4 -10   29.48    1.79   2
  -3   4 -10    3.38    1.05   1
  -3  -4 -10    6.27    1.10   2
   3   4  10    5.47    1.12   1
  -3   4 -10    7.35    1.17   2
   3  -4  10    5.04    1.10   4
  -3  -4 -10    6.21    1.17   3
   4  -4  10   17.14    1.66   4
  -4  -4 -10   15.97    1.58   2
  -4   4 -10   15.96    1.66   1
   4   4  10   15.05    1.56   1
  -4  -4 -10   19.39    1.80   3
  -4   4 -10   18.29    1.58   2
  -5  -4 -10   -0.08    1.22   3
  -5   4 -10    2.70    1.38   2
   5   4  10    2.25    1.14   2
  -5   4 -10   -0.53    1.08   1
   5  -4  10   -0.32    1.16   4
   5   4  10    1.80    1.18   1
   6   4  10    1.53    1.37   2
   6  -4  10   -1.28    1.40   5
   6  -4  10    3.21    1.44   1
  -6   4 -10   -0.38    1.37   2
  -6  -4 -10   -1.95    1.47   3
  -5   5  10   -0.11    1.30   4
  -5  -5  10   -0.88    1.34   3
   5   5 -10   -0.98    1.35   2
   5  -5 -10   -0.88    1.33   3
  -5   5  10    2.03    1.23   1
  -4  -5  10    2.04    1.23   3
  -4   5  10    0.60    1.10   1
   4  -5 -10    0.90    1.17   3
  -4  -5  10    2.68    1.33   4
  -4   5  10    1.49    1.25   4
   4   5 -10    1.71    1.26   2
   3   5 -10   -1.28    1.00   2
  -3  -5  10   -0.93    0.94   3
   3  -5 -10   -0.72    0.94   3
  -3  -5  10    1.56    1.01   4
  -3   5  10   -0.18    0.91   1
  -3   5  10   -0.17    0.97   4
  -2  -5  10    6.61    1.07   3
  -2  -5  10    4.17    1.17   4
  -2   5  10    6.61    1.21   4
   2   5 -10    4.44    1.19   2
   2  -5 -10    9.75    1.33   3
  -2   5  10    4.74    1.13   1
   1   5 -10   12.38    1.35   2
  -1   5  10   14.77    1.42   1
   1  -5 -10   14.53    1.51   3
  -1   5  10   10.98    1.32   4
  -1  -5  10   15.46    1.50   4
   0  -5  10    0.50    0.83   4
   0   5  10   -0.23    0.77   1
   0   5 -10    0.34    0.77   1
   0  -5 -10    0.01    0.67   4
   0  -5 -10    0.30    0.87   3
   0   5 -10    0.64    0.83   2
  -1   5 -10    0.34    0.83   1
   1  -5  10    1.25    0.89   4
   1   5  10    0.67    0.86   1
  -1   5 -10    0.30    0.84   2
  -1  -5 -10    0.69    0.88   3
  -2   5 -10    3.37    1.04   1
   2  -5  10    7.50    1.28   4
   2   5  10    7.13    0.98   2
  -2  -5 -10    7.85    1.31   3
   2   5  10    8.43    1.25   1
  -2   5 -10    8.23    1.20   2
   3  -5  10    5.22    1.25   4
  -3   5 -10    5.54    1.18   2
   3   5  10    4.02    1.01   2
  -3   5 -10    4.20    1.15   1
  -3  -5 -10    7.31    1.30   3
   3   5  10    4.45    1.17   1
  -4  -5 -10    0.82    1.21   3
   4   5  10    0.33    1.00   2
   4  -5  10   -0.32    1.11   4
  -4   5 -10    1.52    1.21   1
   4   5  10    0.09    1.08   1
  -4   5 -10    0.15    1.02   2
  -5   5 -10    2.20    1.38   1
  -5  -5 -10    0.00    1.52   3
   5   5  10    1.18    1.28   1
   5  -5  10   -1.38    1.24   4
   5   5  10    1.61    1.25   2
  -5   5 -10    3.69    1.64   2
  -5  -6  10    3.52    1.69   3
   5   6 -10    2.64    1.62   2
  -5   6  10    2.00    1.46   1
   5  -6 -10   -0.02    1.42   4
  -4  -6  10   -0.31    1.18   4
  -4  -6  10    0.32    1.38   3
   4  -6 -10    2.37    1.38   3
  -4   6  10    1.58    1.32   1
  -4   6  10   -0.17    1.34   4
   4   6 -10   -0.02    1.34   2
  -3  -6  10    1.86    1.22   4
   3  -6 -10    1.37    1.21   3
  -3   6  10    1.73    1.19   1
   3   6 -10    0.14    1.18   2
  -2   6  10    1.53    1.10   1
   2   6 -10    0.27    1.05   2
  -2  -6  10    0.69    1.07   4
   2  -6 -10   -0.19    1.05   3
   2  -6 -10    0.17    0.99   4
   1  -6 -10   13.17    1.55   3
   1  -6 -10   13.18    1.47   4
   1   6 -10   14.27    1.58   2
  -1  -6  10   14.56    1.69   4
  -1   6  10   11.33    1.42   1
   0  -6  10    4.78    1.19   4
   0  -6 -10    5.85    1.25   3
   0   6 -10    5.05    1.17   2
   0  -6 -10    4.46    1.08   4
   0   6  10    3.87    1.13   1
   1  -6  10    1.21    1.04   4
  -1   6 -10    0.16    0.98   1
   1   6  10   -0.60    0.91   1
  -1   6 -10    1.05    1.04   2
  -1  -6 -10   -0.93    0.99   3
  -2   6 -10    0.31    1.02   1
  -2  -6 -10   -0.03    1.08   3
  -2   6 -10   -0.33    0.97   2
   2   6  10    1.47    1.00   1
   2  -6  10    0.63    1.08   4
  -3   6 -10   -0.46    1.05   2
  -3  -6 -10    0.26    1.27   3
   3   6  10    0.14    1.14   1
   3  -6  10    0.85    1.19   4
  -3   6 -10    0.13    1.10   1
  -4   6 -10    0.22    1.33   1
  -4   6 -10    2.67    1.28   2
   4   6  10    1.92    1.29   1
   4   6  10    0.02    1.23   2
  -4  -6 -10    0.67    1.47   3
   4  -6  10   -0.79    1.28   4
  -5   6 -10    1.41    1.52   1
  -5  -6 -10    3.06    1.79   3
   5  -6  10    0.96    1.56   4
   5   6  10    3.69    1.49   2
   4  -7 -10    8.04    1.81   4
  -4   7  10    8.65    1.72   1
   4   7 -10    8.51    1.97   2
   3  -7 -10    3.54    1.43   4
   3   7 -10    5.03    1.63   2
  -3   7  10    7.43    1.61   1
  -3  -7  10    8.77    1.68   4
  -2   7  10    4.38    1.35   1
  -2  -7  10    6.30    1.51   4
   2  -7 -10    6.39    1.55   3
   2  -7 -10    5.64    1.43   4
   2   7 -10    1.51    1.36   2
  -1  -7  10   15.36    1.87   4
  -1   7  10   16.04    1.83   1
   1   7 -10   15.20    1.77   2
   1  -7 -10   12.84    1.66   4
   1  -7 -10   17.11    1.85   3
   0   7  10    0.98    1.12   1
   0  -7 -10   -0.13    1.19   3
   0  -7  10    0.25    1.08   4
   0   7 -10   -0.11    1.00   2
  -1   7 -10   -0.45    1.14   1
   1  -7  10   -0.60    1.17   4
  -1   7 -10   -0.01    1.12   2
  -1  -7 -10   -2.65    1.07   3
   1   7  10    0.99    1.18   1
  -2   7 -10    1.99    1.31   1
  -2  -7 -10    7.46    1.58   3
   2   7  10    5.15    1.49   1
   2  -7  10    1.82    1.31   4
  -2   7 -10    4.37    1.42   2
  -3  -7 -10    3.54    1.59   3
   3   7  10    2.23    1.42   1
   3  -7  10    2.43    1.47   4
  -3   7 -10    0.90    1.42   1
  -4   7 -10   -1.32    1.46   1
   4   7  10    0.70    1.46   1
   4  -7  10    0.52    1.63   4
  -4  -7 -10    0.16    1.68   3
  -2   8  10    4.06    1.63   1
  -2  -8  10    2.46    1.67   4
   2   8 -10    1.74    1.58   2
   2  -8 -10    4.33    1.57   4
   1  -8 -10    2.45    1.59   3
   1   8 -10    2.17    1.49   2
   1  -8 -10    2.96    1.45   4
  -1   8  10    2.57    1.47   1
  -1  -8  10    2.55    1.58   4
   0   8 -10    2.60    1.53   2
   0  -8  10   -0.58    1.40   4
   0   8  10   -0.56    1.31   1
   0  -8 -10   -0.59    1.45   3
  -1  -8 -10    2.81    1.53   3
   1   8  10   -0.54    1.31   1
  -1   8 -10    3.20    1.47   2
   1  -8  10   -0.55    1.33   4
  -2  -8 -10    1.50    1.60   3
   2   8  10    3.43    1.53   1
   2  -8  10   -1.85    1.37   4
  -2   8 -10   -0.58    1.49   1
  -7   0  11   -0.39    1.51   4
   7   0 -11    3.53    1.67   3
   6   0 -11    0.77    1.31   3
  -6   0  11    0.54    1.16   4
  -5   0  11    0.07    1.00   3
   5   0 -11   -1.02    0.83   2
  -5   0  11   -0.79    0.98   4
   4   0 -11    0.38    0.74   2
   4   0 -11   -0.60    0.75   3
  -4   0  11   -0.11    0.80   4
   3   0 -11   -0.34    0.71   3
  -3   0  11   -0.82    0.64   4
   3   0 -11    0.31    0.64   2
   2   0 -11   -0.11    0.52   2
  -2   0  11    0.32    0.36   1
  -2   0  11   -0.36    0.57   4
   2   0 -11    0.06    0.55   3
   1   0 -11    0.18    0.45   2
  -1   0  11    0.27    0.37   1
   1   0 -11    0.07    0.47   3
  -1   0  11    0.22    0.52   4
   0   0 -11    0.08    0.47   3
   0   0  11   -0.23    0.42   4
   0   0 -11   -0.04    0.45   2
   0   0  11   -0.38    0.40   1
  -1   0 -11   -0.40    0.49   3
  -1   0 -11    0.21    0.49   2
   1   0  11    0.14    0.46   4
   1   0  11   -0.55    0.45   1
   2   0  11    0.14    0.42   4
  -2   0 -11    0.37    0.56   2
  -2   0 -11   -0.62    0.46   3
   2   0  11    0.48    0.55   1
   3   0  11    0.07    0.65   1
  -3   0 -11   -0.29    0.72   2
  -3   0 -11   -1.05    0.56   3
  -4   0 -11    2.03    0.77   3
   4   0  11    1.15    0.82   1
  -4   0 -11   -0.15    0.79   2
  -5   0 -11   -0.03    0.88   3
  -5   0 -11    0.27    1.00   2
   5   0  11    0.04    0.91   1
   6   0  11    1.00    1.19   1
  -6   0 -11   -2.11    1.12   2
  -7   0 -11   -0.07    1.48   2
   7   0  11    0.83    1.45   1
   7  -1 -11   -1.34    1.59   3
  -7  -1  11    3.46    1.64   4
  -7   1  11    0.72    1.64   4
  -7  -1  11    1.33    1.71   3
  -6  -1  11   -0.27    1.28   3
   6   1 -11    2.00    1.20   2
  -6   1  11    0.68    1.18   4
   6  -1 -11   -0.62    1.21   3
  -6  -1  11    0.12    1.16   4
  -5  -1  11   30.40    1.95   4
   5   1 -11   29.08    1.86   2
  -5  -1  11   33.65    2.23   3
  -5   1  11   27.25    1.96   4
   5  -1 -11   32.99    2.16   3
   4  -1 -11    4.87    1.09   3
  -4  -1  11    3.27    1.04   4
  -4   1  11    4.00    1.07   4
   4   1 -11    4.73    0.99   2
  -4  -1  11    5.20    1.09   3
  -3  -1  11   14.09    1.25   3
   3  -1 -11   13.37    1.03   2
   3  -1 -11   11.98    1.21   3
  -3   1  11   12.76    1.27   4
  -3  -1  11   14.79    1.35   4
  -3   1  11   13.00    0.89   1
   3   1 -11   12.73    1.13   2
   2   1 -11   56.82    2.05   3
   2  -1 -11   59.06    2.14   3
  -2   1  11   60.87    1.74   1
   2   1 -11   59.67    2.07   2
  -2   1  11   59.24    2.14   4
   2  -1 -11   59.39    1.78   2
  -2  -1  11   57.68    2.13   4
   1  -1 -11   28.06    1.16   2
   1   1 -11   27.38    1.35   2
  -1  -1  11   26.45    1.41   4
  -1  -1  11   28.16    1.05   1
  -1   1  11   28.10    1.37   4
  -1   1  11   28.88    1.17   1
   1   1 -11   29.90    1.32   3
   1  -1 -11   28.37    1.46   3
   0   1  11   71.08    2.04   4
   0  -1  11   71.70    2.17   4
   0   1 -11   69.46    2.17   2
   0   1 -11   68.54    1.94   3
   0  -1 -11   71.91    2.17   3
   0  -1 -11   73.64    1.95   2
   0  -1  11   66.64    1.86   1
   0   1  11   70.74    2.01   1
   1  -1  11   11.50    0.86   1
   1   1  11   12.58    0.79   4
   1   1  11    9.87    0.87   1
  -1  -1 -11   10.69    0.86   2
   1  -1  11   13.28    0.94   4
  -1   1 -11   12.78    0.78   3
  -1  -1 -11   10.49    0.92   3
  -1   1 -11   15.03    1.07   2
   2  -1  11   35.49    1.51   1
   2  -1  11   36.95    1.47   4
  -2   1 -11   33.09    1.70   2
  -2  -1 -11   35.96    1.63   3
   2   1  11   35.21    1.58   1
  -2   1 -11   33.24    1.26   3
  -2  -1 -11   37.68    2.05   2
   2   1  11   33.02    1.13   4
   2  -1  11   29.30    1.52   5
   3   1  11   -0.01    0.62   1
  -3   1 -11    0.79    0.53   3
   3  -1  11    0.54    0.68   1
   3  -1  11    0.09    0.56   4
  -3   1 -11   -1.06    0.63   2
  -3  -1 -11    0.07    0.68   2
   3  -1  11   -1.60    0.64   5
  -3  -1 -11   -0.31    0.65   3
  -4   1 -11    6.91    1.19   2
   4  -1  11    8.41    1.28   5
   4   1  11    6.63    1.09   1
   4  -1  11    5.93    1.02   1
  -4  -1 -11    6.48    1.16   2
  -4  -1 -11    8.34    1.14   3
  -5  -1 -11   11.81    1.48   2
   5   1  11   14.48    1.50   1
   5  -1  11    9.98    1.38   1
  -5   1 -11   10.56    1.50   2
  -5  -1 -11   12.93    1.44   3
  -6  -1 -11    2.29    1.28   2
  -6  -1 -11    1.90    1.30   3
   6   1  11    0.24    1.16   1
   6  -1  11    0.89    1.20   1
  -6   1 -11   -0.22    1.19   2
   7  -1  11   -0.55    1.52   1
   7   1  11    0.21    1.42   1
  -7   1 -11    0.83    1.54   2
  -7  -1 -11    3.18    1.64   2
  -6  -2  11   13.77    1.74   4
   6   2 -11   11.82    1.74   2
  -6   2  11   11.48    1.77   4
   6  -2 -11   10.88    1.79   3
  -6  -2  11   16.99    2.07   3
  -5   2  11    0.54    1.04   4
  -5  -2  11   -1.27    0.94   3
   5  -2 -11   -1.72    0.97   3
  -5  -2  11    2.08    0.99   4
   5   2 -11   -0.77    1.02   2
  -4  -2  11   71.22    2.70   4
   4  -2 -11   66.76    2.74   3
  -4   2  11   68.76    2.27   1
  -4  -2  11   66.69    2.70   3
   4   2 -11   65.72    2.62   2
  -4   2  11   74.24    2.83   4
   3  -2 -11  333.33    7.37   3
   3   2 -11  321.75    7.23   2
  -3  -2  11  325.16    7.42   4
  -3   2  11  329.08    6.68   1
  -3   2  11  329.38    7.48   4
  -3  -2  11  335.42    7.28   3
  -2   2  11    1.77    0.75   4
   2  -2 -11    1.97    0.78   3
   2   2 -11    1.33    0.77   2
  -2  -2  11    1.15    0.75   4
  -2  -2  11    0.53    0.60   3
  -2   2  11    2.45    0.65   1
   1   2 -11   43.91    1.61   3
  -1  -2  11   44.37    1.27   1
   1  -2 -11   44.43    1.27   2
   1   2 -11   39.16    1.75   2
  -1   2  11   43.56    1.72   4
   1  -2 -11   44.43    1.88   3
  -1   2  11   45.76    1.68   1
  -1  -2  11   45.82    1.86   4
   0  -2  11   26.43    1.24   5
   0  -2  11   23.49    1.13   1
   0   2 -11   24.49    1.09   3
   0  -2 -11   23.34    1.05   2
   0   2 -11   25.14    1.44   2
   0   2  11   24.69    1.23   4
   0   2  11   28.40    1.45   1
   0  -2 -11   26.03    1.43   3
   0  -2  11   25.90    1.42   4
  -1  -2 -11   -0.25    0.58   3
   1   2  11   -0.14    0.55   1
   1  -2  11   -0.42    0.49   1
   1  -2  11   -0.24    0.58   5
  -1   2 -11    0.29    0.61   2
  -1  -2 -11   -0.03    0.46   2
   1  -2  11   -0.55    0.51   4
   1   2  11   -0.74    0.39   4
   2  -2  11   26.61    1.49   4
   2  -2  11   27.97    1.57   5
   2   2  11   26.53    1.49   1
  -2  -2 -11   27.16    1.42   2
   2  -2  11   24.51    1.39   1
  -2  -2 -11   25.88    1.56   3
  -2   2 -11   25.42    1.53   2
  -3  -2 -11   72.69    2.55   2
   3   2  11   73.42    2.50   1
   3  -2  11   71.18    2.46   1
   3  -2  11   71.54    2.43   4
   3  -2  11   68.70    2.73   5
  -3  -2 -11   72.07    2.54   3
  -3   2 -11   67.33    2.60   2
  -4  -2 -11    1.03    0.92   2
   4  -2  11    1.48    0.97   5
  -4   2 -11    1.23    0.92   2
   4  -2  11    0.56    0.88   1
   4   2  11    1.91    0.92   1
  -4  -2 -11    1.06    0.93   3
  -5  -2 -11    4.73    1.19   3
   5  -2  11    4.76    1.30   5
   5  -2  11    6.78    1.33   1
  -5   2 -11    3.65    1.21   2
   5   2  11    4.49    1.12   1
  -5  -2 -11    2.11    1.18   2
   6  -2  11    3.75    1.38   1
   6   2  11    2.68    1.32   1
  -6  -2 -11    3.66    1.47   2
  -6   2 -11    2.91    1.46   2
  -6  -2 -11    3.07    1.35   3
   6  -2  11    2.05    1.38   5
  -6  -3  11    1.52    1.55   3
  -6  -3  11    3.83    1.44   4
   6   3 -11   -0.96    1.41   2
  -6   3  11    3.65    1.55   4
   6  -3 -11    0.73    1.39   3
   5   3 -11   -1.19    1.11   2
  -5   3  11    0.75    1.14   4
   5  -3 -11    1.98    1.21   3
  -5  -3  11    2.08    1.16   4
  -5  -3  11    0.02    1.20   3
  -4  -3  11   25.84    1.88   3
   4   3 -11   24.26    1.86   2
  -4   3  11   25.48    1.93   4
  -4   3  11   26.06    1.66   1
   4  -3 -11   21.11    1.78   3
  -4  -3  11   24.30    1.82   4
  -3  -3  11   24.96    1.79   4
  -3   3  11   23.19    1.51   1
  -3  -3  11   22.80    1.65   3
   3   3 -11   23.50    1.73   2
  -3   3  11   24.50    1.73   4
   3  -3 -11   27.70    1.82   3
  -2  -3  11   -0.26    0.62   3
   2  -3 -11    0.92    0.79   3
  -2  -3  11    0.59    0.75   4
  -2   3  11    0.39    0.64   1
  -2   3  11   -0.10    0.65   4
   2   3 -11   -0.26    0.79   2
   1   3 -11    5.83    0.99   2
   1  -3 -11    7.34    1.00   3
  -1   3  11    6.45    0.88   4
  -1  -3  11    6.53    0.76   3
  -1  -3  11    6.32    1.01   4
  -1   3  11    5.17    0.85   1
   0  -3  11   48.48    2.10   4
   0   3  11   47.12    1.85   1
   0   3 -11   44.94    1.43   3
   0   3 -11   45.44    1.96   2
   0   3  11   45.37    1.71   4
   0   3 -11   46.41    1.62   1
   0  -3 -11   45.35    1.97   3
  -1  -3 -11    2.85    0.63   2
   1   3  11    5.05    0.64   4
  -1   3 -11    4.38    0.81   1
   1  -3  11    4.97    0.89   4
  -1  -3 -11    4.34    0.90   3
   1   3  11    4.96    0.87   1
  -1   3 -11    2.41    0.84   2
   2   3  11    2.47    0.93   1
  -2  -3 -11    3.50    0.73   2
   2  -3  11    2.31    0.90   4
  -2  -3 -11    1.86    0.84   3
  -2   3 -11    2.54    0.89   2
  -2   3 -11    1.71    0.80   1
   3   3  11   43.46    2.07   1
  -3  -3 -11   43.98    2.16   3
   3  -3  11   46.13    2.16   4
  -3   3 -11   35.54    2.05   2
  -3  -3 -11   41.87    2.02   2
  -3   3 -11   37.79    1.99   1
  -4  -3 -11   28.81    1.95   2
  -4  -3 -11   27.28    1.96   3
  -4   3 -11   30.20    1.90   2
   4  -3  11   32.40    1.98   4
  -4   3 -11   25.36    1.84   1
   4   3  11   27.41    1.88   1
   5  -3  11    0.51    1.21   5
   5  -3  11    1.72    1.07   1
  -5  -3 -11   -0.11    1.12   3
   5   3  11    0.87    1.11   1
  -5  -3 -11    0.68    1.16   2
  -5   3 -11    0.83    1.19   2
  -6   3 -11    1.70    1.41   2
   6  -3  11    0.47    1.42   5
  -6  -3 -11    2.54    1.47   3
   6   3  11    2.81    1.37   1
  -6  -3 -11    3.32    1.39   2
   6  -3  11    1.99    1.33   1
   6  -4 -11    0.66    1.48   3
  -6  -4  11    3.64    1.64   3
  -6   4  11    0.63    1.48   4
   6   4 -11    3.19    1.66   2
   5  -4 -11   14.51    1.81   3
  -5   4  11   19.38    1.71   1
  -5  -4  11   19.00    1.84   4
  -5  -4  11   18.36    1.95   3
  -5   4  11   16.56    1.98   4
   5   4 -11   16.67    1.93   2
  -4  -4  11   13.96    1.57   3
   4   4 -11   13.63    1.68   2
  -4   4  11   17.13    1.73   4
   4  -4 -11   13.66    1.62   3
  -4   4  11   13.83    1.49   1
  -4  -4  11   17.47    1.75   4
  -3  -4  11    4.28    1.01   3
   3  -4 -11    3.64    1.07   3
   3   4 -11    3.93    1.18   2
  -3   4  11    4.99    1.01   1
  -3  -4  11    2.79    1.07   4
  -3   4  11    3.34    1.11   4
  -2   4  11    9.96    1.18   1
  -2  -4  11   10.44    1.16   3
   2   4 -11    9.83    1.33   2
   2  -4 -11   10.07    1.29   3
  -2   4  11   10.66    1.26   4
  -2  -4  11   10.07    1.32   4
  -1  -4  11   14.34    1.38   4
   1  -4 -11   12.10    1.29   3
   1   4 -11   11.84    1.32   2
  -1   4  11   12.75    1.20   4
  -1   4  11   10.93    1.23   1
   0   4  11    1.47    0.80   1
   0   4  11    0.38    0.63   4
   0  -4 -11   -0.90    0.73   3
   0   4 -11    0.26    0.79   2
   0  -4  11   -0.39    0.76   4
   0   4 -11    0.22    0.64   1
   1  -4  11  110.22    3.42   4
   1   4  11  104.69    3.22   1
  -1   4 -11  114.27    3.40   2
  -1   4 -11  106.71    3.06   1
  -1  -4 -11  107.65    3.34   3
  -2  -4 -11   73.99    2.75   3
  -2   4 -11   71.29    2.67   2
  -2  -4 -11   69.97    2.41   2
   2   4  11   67.06    2.58   1
  -2   4 -11   70.58    2.56   1
   2  -4  11   74.41    2.74   4
  -3   4 -11    2.41    0.97   1
  -3  -4 -11    5.20    1.12   3
   3   4  11    2.94    1.03   1
  -3  -4 -11    0.93    0.95   2
  -3   4 -11    2.62    1.05   2
   3  -4  11    3.08    1.03   4
  -4  -4 -11    0.59    1.03   2
  -4   4 -11    0.95    1.03   2
  -4   4 -11   -0.66    1.01   1
  -4  -4 -11    1.57    1.11   3
   4   4  11    1.11    1.06   1
   4  -4  11    1.01    1.07   4
  -5   4 -11    1.59    1.28   1
   5   4  11    2.62    1.27   1
  -5  -4 -11    2.04    1.43   3
   5   4  11    3.13    1.23   2
  -5   4 -11    0.34    1.45   2
   6  -4  11    0.12    1.59   5
  -6  -4 -11   -0.02    1.53   3
  -6   4 -11   -0.34    1.44   2
   6  -4  11    1.26    1.40   1
   6   4  11    1.67    1.42   2
  -5   5  11    0.34    1.35   4
  -5  -5  11   -0.60    1.37   3
   5  -5 -11    1.57    1.43   3
   5   5 -11    0.76    1.45   2
  -5  -5  11    4.79    1.49   4
  -5   5  11    1.58    1.32   1
  -4  -5  11   13.25    1.79   4
   4   5 -11    9.67    1.66   2
  -4   5  11    9.11    1.59   4
  -4   5  11    6.87    1.39   1
   4  -5 -11    8.28    1.59   3
  -4  -5  11    8.56    1.56   3
  -3   5  11    6.91    1.42   4
   3  -5 -11    6.56    1.35   3
   3   5 -11    7.87    1.41   2
  -3  -5  11    7.79    1.30   3
  -3  -5  11    7.54    1.35   4
  -3   5  11    6.48    1.29   1
   2  -5 -11  119.30    3.83   3
   2   5 -11  119.96    3.89   2
  -2  -5  11  119.55    3.84   4
  -2   5  11  131.74    3.74   1
  -2   5  11  116.70    3.78   4
   1  -5 -11  130.04    3.97   3
   1   5 -11  120.78    3.82   2
  -1   5  11  123.72    3.67   4
  -1   5  11  130.10    3.76   1
   0   5  11    0.30    0.86   1
   0   5 -11   -0.31    0.76   2
   0  -5 -11    1.11    0.80   4
   0  -5 -11   -0.77    0.89   3
   0  -5  11    2.07    0.97   4
   0   5 -11    0.24    0.75   1
  -1   5 -11    4.61    1.05   1
   1  -5  11    4.54    1.11   4
  -1  -5 -11    5.89    1.19   3
  -1   5 -11    4.57    1.13   2
   1   5  11    4.67    1.08   1
   2   5  11    2.85    0.80   2
  -2   5 -11    1.76    0.99   2
  -2   5 -11    1.89    0.96   1
  -2  -5 -11    4.68    1.18   3
   2   5  11    1.42    0.96   1
   2  -5  11    1.34    1.00   4
   3   5  11    2.20    1.09   1
  -3   5 -11   -0.98    0.97   2
   3  -5  11    0.21    1.02   4
   3   5  11    0.89    0.91   2
  -3   5 -11   -0.45    0.97   1
  -3  -5 -11   -0.48    1.05   3
   4   5  11    8.60    1.42   1
  -4  -5 -11    9.08    1.70   3
   4   5  11    6.49    1.30   2
   4  -5  11    7.99    1.51   4
  -4   5 -11    3.77    1.24   2
  -4   5 -11    8.76    1.49   1
   5   5  11    1.95    1.27   2
   5   5  11    3.03    1.38   1
  -5   5 -11    5.47    1.48   2
  -5   5 -11    2.66    1.47   1
  -5  -5 -11    6.52    1.74   3
   5  -5  11    6.95    1.60   4
  -4   6  11    1.07    1.41   4
   4   6 -11   -0.71    1.27   2
   4  -6 -11    1.22    1.42   3
  -4  -6  11    2.58    1.80   4
  -4   6  11    0.27    1.28   1
   3  -6 -11   15.27    1.81   3
   3   6 -11   13.15    1.79   2
  -3  -6  11   16.40    1.81   4
  -3   6  11   16.97    1.77   1
  -3   6  11   15.30    1.86   4
   2  -6 -11    2.25    1.09   4
   2   6 -11    2.53    1.26   2
  -2   6  11    3.86    1.25   1
  -2  -6  11    2.40    1.20   4
   2  -6 -11    3.88    1.26   3
   1  -6 -11    3.23    1.07   4
   1  -6 -11    3.49    1.22   3
  -1   6  11    0.56    1.09   1
   1   6 -11    5.30    1.21   2
  -1  -6  11   -0.23    1.07   4
   0  -6 -11    2.28    1.20   3
   0   6 -11    1.82    1.07   2
   0  -6  11    2.33    1.14   4
   0   6  11    3.08    1.11   1
   0  -6 -11    1.41    0.97   4
  -1   6 -11    6.00    1.26   1
   1  -6  11    6.39    1.37   4
  -1   6 -11    7.59    1.39   2
  -1  -6 -11    6.27    1.38   3
   1   6  11    8.96    1.37   1
  -2  -6 -11   -0.01    1.19   3
   2  -6  11   -0.12    1.03   4
  -2   6 -11   -0.87    1.03   2
  -2   6 -11    0.13    1.06   1
   2   6  11   -1.96    0.98   1
  -3   6 -11    3.22    1.26   2
  -3   6 -11    2.70    1.27   1
   3  -6  11    1.02    1.29   4
   3   6  11    4.13    1.34   1
  -3  -6 -11    4.80    1.50   3
  -4   6 -11   -0.17    1.26   2
   4   6  11    1.73    1.30   1
   4  -6  11    1.97    1.44   4
  -4  -6 -11    2.22    1.54   3
  -4   6 -11   -0.41    1.39   1
   4   6  11    2.46    1.31   2
   3   7 -11    1.61    1.47   2
  -3   7  11    3.85    1.45   1
   3  -7 -11    3.14    1.41   4
  -3  -7  11    1.86    1.53   4
  -2   7  11    0.73    1.35   1
   2  -7 -11    2.61    1.41   3
   2   7 -11    3.19    1.39   2
   2  -7 -11   -0.56    1.19   4
  -2  -7  11    1.33    1.34   4
   1  -7 -11    4.06    1.42   3
   1   7 -11    4.15    1.41   2
   1  -7 -11    3.41    1.28   4
  -1  -7  11    2.98    1.43   4
  -1   7  11    4.53    1.36   1
   0  -7  11   13.19    1.76   4
   0   7  11   13.48    1.72   1
   0  -7 -11   10.14    1.66   3
   0   7 -11    8.78    1.47   2
  -1   7 -11    1.29    1.22   2
   1  -7  11    1.08    1.24   4
  -1  -7 -11   -0.02    1.28   3
   1   7  11    1.77    1.24   1
   2   7  11    0.16    1.28   1
  -2   7 -11    2.00    1.30   2
  -2  -7 -11    0.14    1.39   3
  -2   7 -11   -1.29    1.26   1
   2  -7  11    0.03    1.21   4
  -3  -7 -11   -0.02    1.52   3
  -3   7 -11    0.79    1.42   1
   3  -7  11   -0.57    1.38   4
  -3   7 -11    3.84    1.46   2
   3   7  11    0.87    1.36   1
  -1  -8  11   -0.01    1.55   4
   1   8 -11    1.20    1.42   2
   1  -8 -11    0.86    1.54   3
  -1   8  11    1.93    1.44   1
   0  -8 -11    0.50    1.45   3
   0  -8  11    1.61    1.51   4
   0   8 -11   -0.09    1.54   2
   0   8  11    1.76    1.35   1
   1  -8  11    0.70    1.49   4
  -1  -8 -11    0.33    1.52   3
  -1   8 -11    1.47    1.53   2
   1   8  11    1.27    1.46   1
   6   0 -12    1.20    1.37   3
  -6   0  12   -0.79    1.15   4
   5   0 -12   26.44    2.01   3
  -5   0  12   23.81    1.92   4
  -4   0  12   58.03    2.46   4
   4   0 -12   60.54    2.55   3
   4   0 -12   55.62    2.16   2
  -3   0  12    0.08    0.76   4
   3   0 -12   -0.46    0.72   3
   3   0 -12    0.53    0.69   2
  -2   0  12  183.78    4.56   4
  -2   0  12  182.78    3.71   1
   2   0 -12  184.99    4.23   2
   2   0 -12  186.71    4.49   3
  -1   0  12   17.54    0.96   1
  -1   0  12   17.01    1.19   4
   1   0 -12   18.37    1.14   2
   1   0 -12   16.69    1.20   3
   0   0  12  213.60    4.47   1
   0   0  12  210.77    4.79   4
   0   0 -12  221.21    4.73   2
   0   0 -12  216.65    4.72   3
  -1   0 -12  214.62    4.62   3
   1   0  12  203.47    4.53   1
   1   0  12  215.90    4.63   4
  -1   0 -12  208.74    4.74   2
   2   0  12  115.36    3.07   1
  -2   0 -12  120.24    3.24   2
   2   0  12  118.44    2.86   4
  -2   0 -12  117.11    2.96   3
  -3   0 -12    2.78    0.72   3
  -3   0 -12    2.91    0.88   2
   3   0  12    0.88    0.75   1
   4   0  12   10.95    1.30   1
  -4   0 -12   12.49    1.37   2
  -4   0 -12   10.27    1.13   3
  -5   0 -12   -0.48    1.03   2
   5   0  12    1.27    1.04   1
  -6   0 -12    2.16    1.33   2
   6   0  12    2.15    1.30   1
   6  -1 -12   -0.24    1.29   3
  -6   1  12    0.06    1.31   4
  -6  -1  12   -0.81    1.18   4
  -6  -1  12   -0.88    1.42   3
   5  -1 -12    7.35    1.40   3
  -5   1  12    6.69    1.30   4
   5   1 -12    6.62    1.27   2
  -5  -1  12    8.26    1.40   3
  -5  -1  12    7.76    1.33   4
  -4   1  12   -0.64    0.85   4
   4  -1 -12    0.39    0.89   3
  -4  -1  12    0.09    0.85   4
   4   1 -12    0.17    0.81   2
  -4  -1  12   -0.11    0.83   3
  -3   1  12    4.79    0.99   4
  -3  -1  12    6.76    1.06   3
  -3   1  12    5.93    0.76   1
  -3  -1  12    4.68    1.03   4
   3  -1 -12    4.65    1.00   3
   3   1 -12    7.35    1.10   2
  -2  -1  12   45.54    1.91   4
   2   1 -12   44.15    1.85   2
  -2   1  12   43.38    1.89   4
   2   1 -12   42.97    1.86   3
  -2   1  12   45.19    1.57   1
   2  -1 -12   46.71    1.94   3
   2  -1 -12   45.20    1.59   2
  -1   1  12   22.30    1.30   4
  -1  -1  12   19.90    0.94   1
   1   1 -12   19.51    1.27   2
   1  -1 -12   19.80    1.34   3
   1  -1 -12   17.65    1.05   2
  -1   1  12   16.56    1.03   1
   1   1 -12   18.38    1.19   3
  -1  -1  12   19.36    1.28   4
   0  -1  12  112.35    3.00   4
   0   1 -12  112.78    2.74   3
   0  -1  12  110.21    2.62   1
   0   1  12  109.99    2.77   1
   0  -1 -12  111.47    2.72   2
   0   1  12  107.35    2.83   4
   0  -1 -12  115.68    2.99   3
   0   1 -12  108.63    2.97   2
   1   1  12   72.10    1.99   4
   1  -1  12   72.60    2.10   1
  -1   1 -12   65.97    1.98   3
  -1   1 -12   72.93    2.30   2
  -1  -1 -12   74.33    2.26   3
   1   1  12   70.42    2.18   1
  -1  -1 -12   72.09    2.17   2
   1  -1  12   68.89    2.18   4
   2  -1  12   67.10    2.21   1
  -2  -1 -12   66.62    2.25   2
  -2   1 -12   72.05    2.45   2
  -2  -1 -12   68.86    2.26   3
   2   1  12   67.10    2.26   1
  -2   1 -12   66.72    1.89   3
   2  -1  12   69.45    2.24   4
  -3  -1 -12    5.04    0.87   3
   3  -1  12    5.44    0.82   4
  -3   1 -12    4.38    0.94   2
  -3  -1 -12    4.83    0.96   2
   3   1  12    4.71    0.90   1
  -3   1 -12    5.39    0.71   3
   3  -1  12    5.37    0.92   1
  -4  -1 -12   15.77    1.53   2
  -4   1 -12   17.69    1.60   2
  -4  -1 -12   17.65    1.43   3
   4  -1  12   18.43    1.52   1
   4   1  12   19.10    1.55   1
  -5  -1 -12   13.35    1.52   3
   5   1  12   12.44    1.49   1
  -5   1 -12   15.77    1.65   2
  -5  -1 -12   11.19    1.56   2
   5  -1  12   15.95    1.62   1
   6   1  12    7.24    1.50   1
   6  -1  12    6.64    1.54   1
  -6  -1 -12    5.48    1.55   2
  -6   1 -12    5.61    1.56   2
  -6  -2  12    3.24    1.42   4
  -6  -2  12    0.72    1.51   3
   6  -2 -12    1.77    1.35   3
  -6   2  12   -1.29    1.27   4
   6   2 -12   -0.88    1.34   2
  -5  -2  12    4.60    1.23   4
  -5  -2  12    4.18    1.31   3
   5   2 -12    3.13    1.21   2
  -5   2  12    4.05    1.23   4
   5  -2 -12    4.74    1.28   3
   4   2 -12   13.20    1.44   2
  -4   2  12   11.47    1.40   4
  -4  -2  12   12.49    1.44   3
   4  -2 -12   14.00    1.50   3
  -4  -2  12   15.48    1.52   4
  -3   2  12  117.57    3.60   4
  -3  -2  12  113.74    3.54   4
  -3   2  12  117.34    3.04   1
   3  -2 -12  121.00    3.61   3
  -3  -2  12  113.89    3.46   3
   3   2 -12  117.16    3.53   2
   2  -2 -12   97.14    3.04   3
  -2   2  12   93.33    2.61   1
  -2  -2  12   98.27    3.03   4
  -2   2  12   98.07    3.01   4
   2   2 -12   96.86    2.98   2
  -2  -2  12   95.87    2.83   3
   1   2 -12    0.12    0.67   2
  -1  -2  12    0.35    0.67   4
  -1   2  12    0.01    0.56   4
   1  -2 -12   -0.01    0.38   2
   1   2 -12    0.02    0.52   3
  -1   2  12   -0.12    0.55   1
   1  -2 -12    0.41    0.65   3
  -1  -2  12    0.23    0.38   1
   0  -2  12   15.61    0.95   1
   0  -2  12   15.47    1.20   4
   0   2 -12   17.67    1.32   2
   0  -2 -12   16.64    1.22   3
   0  -2  12   15.76    1.04   5
   0   2  12   16.14    1.05   4
   0   2  12   14.99    1.13   1
   0  -2 -12   17.34    0.96   2
   0   2 -12   14.87    1.00   3
  -1   2 -12   49.54    2.02   2
   1  -2  12   55.46    1.87   1
  -1  -2 -12   58.48    2.10   3
   1  -2  12   59.53    2.23   4
  -1  -2 -12   55.77    1.88   2
   1   2  12   56.76    2.04   1
   1   2  12   58.72    1.73   4
   1  -2  12   55.96    2.05   5
  -2   2 -12   11.47    1.16   2
   2  -2  12   13.84    1.27   5
  -2  -2 -12   13.39    1.08   2
  -2  -2 -12   11.87    1.15   3
   2  -2  12   11.14    1.07   1
   2   2  12   12.37    1.16   1
   2  -2  12   12.05    1.11   4
  -3  -2 -12   65.26    2.43   2
  -3   2 -12   66.60    2.59   2
   3   2  12   62.67    2.40   1
   3  -2  12   64.38    2.63   5
   3  -2  12   63.87    2.34   4
   3  -2  12   63.94    2.40   1
  -3  -2 -12   70.59    2.50   3
   4   2  12    0.17    0.87   1
  -4  -2 -12    0.10    0.89   2
   4  -2  12    1.18    0.89   1
  -4   2 -12    1.33    0.91   2
   4  -2  12   -0.79    0.87   5
  -4  -2 -12   -0.86    0.91   3
   5   2  12    2.66    1.18   1
  -5   2 -12    4.28    1.27   2
   5  -2  12    4.29    1.21   1
  -5  -2 -12    2.59    1.23   2
  -5  -2 -12    4.26    1.25   3
   5  -2  12    3.48    1.33   5
  -6   2 -12    1.64    1.34   2
   6   2  12    2.99    1.35   1
   6  -2  12   -0.22    1.28   1
  -6  -2 -12   -0.38    1.36   2
  -6  -2 -12    1.21    1.29   3
   6   3 -12    2.46    1.58   2
  -6  -3  12    7.03    1.62   4
  -6   3  12    3.64    1.66   4
   6  -3 -12    4.44    1.60   3
  -6  -3  12    4.85    1.75   3
  -5  -3  12   11.10    1.67   3
   5   3 -12    6.87    1.47   2
   5  -3 -12    9.75    1.57   3
  -5   3  12   10.14    1.64   4
  -5  -3  12    9.85    1.54   4
  -4  -3  12   18.91    1.70   4
  -4   3  12   14.78    1.38   1
   4   3 -12   22.97    1.83   2
  -4  -3  12   17.83    1.67   3
  -4   3  12   19.69    1.80   4
   4  -3 -12   16.35    1.66   3
   3   3 -12   -0.79    0.92   2
  -3   3  12    0.68    0.82   4
  -3   3  12    1.39    0.80   1
  -3  -3  12    0.33    0.91   4
  -3  -3  12    1.35    0.85   3
   3  -3 -12   -0.15    0.93   3
   2  -3 -12   -0.02    0.85   3
  -2  -3  12    0.04    0.69   3
  -2  -3  12    1.48    0.81   4
  -2   3  12    1.02    0.70   1
  -2   3  12    0.08    0.78   4
   2   3 -12    0.70    0.86   2
   1  -3 -12    7.93    1.09   3
  -1   3  12    7.50    0.96   4
  -1   3  12    9.62    1.06   1
  -1  -3  12    7.54    0.84   3
  -1  -3  12    7.21    0.67   1
  -1  -3  12    7.67    0.76   5
   1   3 -12    7.33    1.06   2
  -1  -3  12    7.67    1.08   4
   0   3  12  120.68    3.17   4
   0   3 -12  116.52    2.95   1
   0   3  12  120.01    3.27   1
   0   3 -12  121.79    2.80   3
   0  -3 -12  128.57    3.52   3
   0  -3  12  120.63    3.51   4
   0   3 -12  126.17    3.48   2
  -1  -3 -12   12.06    0.94   2
  -1  -3 -12   11.25    1.20   3
  -1   3 -12   10.94    1.06   1
  -1   3 -12    9.37    1.14   2
   1   3  12   10.84    1.14   1
   1  -3  12    9.31    1.13   4
  -2  -3 -12   76.28    2.48   2
  -2   3 -12   77.50    2.58   1
   2  -3  12   74.90    2.69   4
  -2   3 -12   73.02    2.70   2
  -2  -3 -12   77.21    2.76   3
   2   3  12   78.82    2.68   1
  -3  -3 -12   26.13    1.73   2
   3  -3  12   25.27    1.78   4
  -3  -3 -12   27.59    1.89   3
  -3   3 -12   24.56    1.72   1
   3   3  12   26.70    1.74   1
  -3   3 -12   27.50    1.87   2
  -4   3 -12   34.45    2.07   2
  -4  -3 -12   37.33    2.18   3
   4  -3  12   36.57    2.09   1
   4   3  12   29.36    1.98   1
   4  -3  12   36.66    2.19   4
   4  -3  12   30.87    2.20   5
  -4  -3 -12   34.05    2.10   2
   5  -3  12   -0.22    1.06   1
  -5  -3 -12   -1.58    1.11   2
  -5  -3 -12   -0.31    1.14   3
   5   3  12    0.70    1.06   1
  -5   3 -12   -0.64    1.23   2
   5  -3  12    0.33    1.20   5
   6  -3  12    0.36    1.44   5
   6  -3  12    1.45    1.49   1
  -6   3 -12    1.53    1.46   2
  -6  -3 -12   -0.45    1.42   2
  -6  -3 -12    2.80    1.58   3
   6   3  12    1.49    1.35   1
   6  -4 -12    3.80    1.77   3
  -6   4  12    1.02    1.57   4
   6   4 -12   -1.31    1.54   2
  -6  -4  12    2.23    1.72   3
   5  -4 -12    3.98    1.46   3
   5   4 -12    2.81    1.46   2
  -5  -4  12    5.68    1.55   3
  -5  -4  12    8.36    1.52   4
  -5   4  12    2.22    1.42   4
  -4   4  12   11.59    1.60   4
   4   4 -12    7.23    1.49   2
  -4  -4  12    9.67    1.46   3
  -4  -4  12    7.89    1.49   4
   4  -4 -12    8.83    1.49   3
  -4   4  12    5.78    1.21   1
  -3  -4  12    0.37    0.87   3
   3  -4 -12    0.33    1.00   3
   3   4 -12   -0.26    0.99   2
  -3   4  12    0.39    0.98   4
  -3   4  12    0.24    0.85   1
  -3  -4  12    0.52    0.97   4
   2  -4 -12   24.59    1.77   3
  -2   4  12   24.78    1.73   4
  -2  -4  12   20.64    1.70   4
  -2  -4  12   22.11    1.54   3
  -2   4  12   23.87    1.59   1
   2   4 -12   25.84    1.83   2
   1   4 -12   37.01    1.97   2
  -1   4  12   42.00    1.98   1
  -1   4  12   33.75    1.78   4
  -1  -4  12   36.99    2.01   4
   1  -4 -12   40.33    2.07   3
   0   4 -12    1.17    0.84   2
   0  -4  12    0.57    0.88   4
   0   4  12    1.66    0.87   1
   0   4 -12    0.44    0.69   1
   0  -4 -12    1.33    0.88   3
   0   4  12    0.92    0.68   4
  -1   4 -12   37.19    1.99   2
   1   4  12   35.71    1.92   1
  -1  -4 -12   37.45    2.01   3
   1  -4  12   37.82    2.02   4
  -1   4 -12   32.74    1.70   1
  -2   4 -12   70.63    2.56   1
   2   4  12   65.98    2.63   1
   2  -4  12   71.51    2.79   4
  -2  -4 -12   68.22    2.42   2
  -2   4 -12   72.05    2.70   2
  -2  -4 -12   71.70    2.73   3
  -3  -4 -12   35.53    2.03   2
   3  -4  12   39.29    2.25   4
  -3   4 -12   32.43    1.99   1
  -3   4 -12   37.13    2.14   2
  -3  -4 -12   40.73    2.22   3
   3   4  12   40.63    2.13   1
  -4  -4 -12   21.03    1.81   2
   4   4  12   16.00    1.67   1
   4  -4  12   23.47    1.91   4
  -4   4 -12   17.10    1.74   1
  -4  -4 -12   21.59    1.93   3
  -4   4 -12   22.92    1.86   2
  -5   4 -12   -0.81    1.39   2
   5  -4  12   -1.04    1.24   5
  -5  -4 -12    0.52    1.21   2
  -5  -4 -12    0.34    1.30   3
   5  -4  12    0.11    1.18   1
   5   4  12    0.08    1.25   1
   6   4  12    1.45    1.43   2
   6  -4  12   -0.15    1.51   5
  -6  -4 -12    1.17    1.66   3
   6  -4  12   -0.04    1.41   1
   6   4  12    0.87    1.43   1
  -6   4 -12   -1.26    1.45   2
  -5   5  12   12.28    1.97   4
  -5   5  12   12.62    1.72   1
   5  -5 -12    8.52    1.87   3
   5   5 -12   11.80    1.94   2
  -5  -5  12   12.42    1.86   4
  -5  -5  12   14.74    2.00   3
   4   5 -12   13.08    1.85   2
  -4   5  12   17.95    1.66   1
  -4   5  12   14.21    1.83   4
  -4  -5  12   15.05    1.76   3
  -4  -5  12   21.54    2.14   4
   4  -5 -12   14.52    1.83   3
  -3  -5  12    0.71    1.09   4
  -3   5  12    2.47    1.08   1
  -3  -5  12   -0.68    0.94   3
   3  -5 -12    2.00    1.15   3
   3   5 -12   -0.62    1.15   2
  -3   5  12    0.83    1.06   4
  -2   5  12   24.37    1.75   1
   2   5 -12   22.50    1.85   2
  -2  -5  12   23.34    1.89   4
   2  -5 -12   23.50    1.85   3
  -2   5  12   20.24    1.70   4
  -1   5  12   82.20    2.94   1
   1   5 -12   81.72    3.05   2
  -1   5  12   80.24    2.86   4
   1  -5 -12   83.20    3.16   3
  -1  -5  12   85.79    3.19   4
   0  -5  12   11.78    1.43   4
   0   5  12   14.17    1.46   1
   0   5 -12    9.71    1.32   2
   0  -5 -12   12.10    1.48   3
  -1   5 -12    5.24    1.08   1
   1   5  12    6.26    1.19   1
  -1  -5 -12    7.58    1.35   3
  -1   5 -12    4.94    1.15   2
   1  -5  12    7.55    1.32   4
  -2   5 -12   20.12    1.75   2
  -2   5 -12   22.01    1.71   1
  -2  -5 -12   24.36    1.94   3
   2  -5  12   20.63    1.79   4
   2   5  12   20.52    1.72   1
   3   5  12    1.96    0.94   2
   3  -5  12    1.74    1.16   4
   3   5  12    2.57    1.12   1
  -3   5 -12    2.62    1.09   2
  -3   5 -12    3.30    1.16   1
  -3  -5 -12    3.12    1.22   3
   4  -5  12    0.92    1.18   4
  -4   5 -12    2.38    1.19   2
   4   5  12   -0.03    1.18   1
  -4  -5 -12    0.78    1.36   3
   4   5  12    2.77    1.13   2
  -4   5 -12    0.73    1.32   1
  -5  -5 -12   -0.49    1.54   3
   5   5  12   -0.07    1.29   2
   5   5  12    1.29    1.36   1
  -5   5 -12    1.90    1.35   2
  -5   5 -12    0.42    1.44   1
  -4   6  12    0.19    1.29   1
   4  -6 -12   -1.31    1.35   3
  -4  -6  12    2.15    1.80   4
   4   6 -12    1.91    1.52   2
  -4   6  12   -0.02    1.37   4
   3  -6 -12    0.95    1.23   3
   3   6 -12   -0.67    1.19   2
  -3   6  12   -0.11    1.23   4
  -3  -6  12    2.00    1.30   4
  -3   6  12    0.66    1.18   1
  -2   6  12    0.87    1.17   1
   2  -6 -12   -1.54    1.14   3
  -2  -6  12   -0.34    1.11   4
  -2   6  12    0.44    1.13   4
   2   6 -12    1.42    1.15   2
   1   6 -12    8.43    1.37   2
   1  -6 -12    8.48    1.34   4
   1  -6 -12    8.26    1.51   3
  -1  -6  12    7.41    1.49   4
  -1   6  12    8.21    1.41   1
   0   6  12    0.88    1.05   1
   0   6 -12    1.75    1.04   2
   0  -6  12    1.78    1.14   4
   0  -6 -12    1.63    1.02   4
   0  -6 -12   -0.95    1.09   3
  -1   6 -12    2.96    1.19   2
   1   6  12    2.00    1.10   1
  -1  -6 -12    2.37    1.34   3
   1  -6  12    3.08    1.18   4
  -1   6 -12    1.44    1.10   1
  -2  -6 -12   20.31    2.01   3
   2  -6  12   15.64    1.81   4
  -2   6 -12   17.28    1.82   2
  -2   6 -12   21.03    1.85   1
   2   6  12   21.54    1.90   1
   3  -6  12   21.24    2.05   4
  -3   6 -12   18.92    1.88   2
   3   6  12   13.79    1.79   1
  -3  -6 -12   22.19    2.14   3
  -3   6 -12   15.00    1.79   1
   4   6  12    2.76    1.44   1
   4  -6  12    1.31    1.48   4
  -4  -6 -12    4.12    1.71   3
  -4   6 -12    1.01    1.36   2
  -4   6 -12    0.89    1.41   1
  -3  -7  12    6.82    1.66   4
   3   7 -12    4.79    1.71   2
   3  -7 -12    5.62    1.57   4
   3  -7 -12    7.59    1.87   3
  -3   7  12    7.10    1.62   1
  -2  -7  12    2.03    1.45   4
  -2   7  12    2.08    1.37   1
   2  -7 -12    0.48    1.35   3
   2  -7 -12    2.36    1.32   4
   2   7 -12   -0.90    1.27   2
   1  -7 -12    3.27    1.42   3
   1   7 -12    3.57    1.40   2
  -1   7  12    1.32    1.29   1
   1  -7 -12    3.06    1.27   4
  -1  -7  12   -0.05    1.37   4
   0   7  12    0.86    1.22   1
   0  -7  12    2.14    1.27   4
   0  -7 -12    0.83    1.26   3
   0   7 -12   -0.60    1.28   2
  -1  -7 -12   -2.08    1.24   3
   1   7  12   -1.70    1.18   1
   1  -7  12    0.58    1.26   4
  -1   7 -12   -0.41    1.27   2
  -2   7 -12    4.26    1.50   2
  -2   7 -12    7.12    1.59   1
  -2  -7 -12    9.70    1.86   3
   2  -7  12    5.59    1.54   4
   2   7  12    7.57    1.62   1
  -3   7 -12    0.59    1.47   2
   3   7  12    1.55    1.43   1
   3  -7  12   -0.66    1.36   4
  -3   7 -12    1.44    1.43   1
  -3  -7 -12    0.89    1.66   3
   1   8 -12    4.83    1.59   2
  -1   8  12    0.48    1.51   1
   1  -8 -12    4.46    1.72   3
  -1  -8  12    3.06    1.67   4
   0   8  12    0.61    1.41   1
   0  -8 -12    0.21    1.53   3
   0  -8  12    1.78    1.59   4
   0   8 -12    3.36    1.70   2
  -1   8 -12    4.94    1.71   2
  -1  -8 -12    2.02    1.61   3
   1  -8  12    0.72    1.62   4
   1   8  12    1.68    1.50   1
   6   0 -13   -1.24    1.39   3
  -6   0  13   -0.23    1.21   4
  -5   0  13    0.36    1.03   4
   5   0 -13   -1.91    1.06   3
   4   0 -13   -0.84    0.88   3
   4   0 -13   -0.12    0.80   2
  -4   0  13    0.23    0.83   4
  -3   0  13   -1.10    0.74   4
   3   0 -13    0.34    0.75   2
   3   0 -13   -0.41    0.74   3
   2   0 -13    0.19    0.62   2
  -2   0  13   -0.14    0.74   4
   2   0 -13   -0.61    0.64   3
  -2   0  13    0.23    0.46   1
  -1   0  13    0.02    0.46   1
  -1   0  13   -0.04    0.55   4
   1   0 -13   -0.60    0.53   2
   1   0 -13    0.40    0.59   3
   0   0 -13    0.68    0.55   3
   0   0  13    0.32    0.49   1
   0   0 -13    1.09    0.56   2
   0   0  13    0.98    0.57   4
   1   0  13   -0.25    0.51   4
  -1   0 -13    0.67    0.62   3
  -1   0 -13    0.94    0.60   2
   1   0  13   -0.98    0.52   1
  -2   0 -13    0.48    0.66   2
   2   0  13   -0.18    0.60   1
  -2   0 -13    0.54    0.61   3
   2   0  13   -0.76    0.50   4
   3   0  13   -0.32    0.69   1
  -3   0 -13    0.10    0.62   3
  -3   0 -13    1.31    0.80   2
  -4   0 -13   -0.50    0.81   3
   4   0  13   -1.92    0.80   1
  -4   0 -13   -0.27    0.87   2
   5   0  13   -0.34    0.98   1
  -5   0 -13   -0.37    1.02   2
   6   0  13    0.64    1.26   1
  -6   0 -13    1.04    1.35   2
  -6  -1  13    5.31    1.51   4
  -6   1  13    4.00    1.41   4
   6  -1 -13    1.87    1.50   3
  -6  -1  13    0.44    1.53   3
   5   1 -13    9.38    1.39   2
  -5  -1  13    8.72    1.48   3
   5  -1 -13    9.24    1.53   3
  -5   1  13    9.71    1.50   4
  -5  -1  13    7.96    1.40   4
  -4  -1  13   46.62    2.34   3
  -4  -1  13   53.63    2.49   4
   4  -1 -13   47.21    2.40   3
  -4   1  13   52.27    2.45   4
   4   1 -13   43.68    2.13   2
   3   1 -13  212.82    5.11   2
   3  -1 -13  215.25    5.31   3
   3   1 -13  216.05    5.27   3
  -3   1  13  216.02    5.40   4
  -3  -1  13  213.16    5.39   4
  -3   1  13  202.01    4.43   1
   2   1 -13  345.22    7.48   2
   2   1 -13  356.22    7.59   3
  -2   1  13  360.25    6.91   1
   2  -1 -13  350.38    7.68   3
  -2   1  13  352.10    7.79   4
   2  -1 -13  361.03    7.12   2
  -2  -1  13  353.32    7.81   4
  -1  -1  13    0.47    0.68   4
  -1   1  13    2.76    0.62   1
   1   1 -13    0.80    0.59   3
  -1  -1  13    2.03    0.48   1
   1  -1 -13    1.88    0.71   3
   1   1 -13    0.59    0.65   2
   1  -1 -13    1.64    0.56   2
  -1   1  13    0.60    0.61   4
   0  -1  13   35.77    1.60   4
   0   1  13   35.69    1.50   4
   0  -1 -13   37.89    1.68   3
   0   1 -13   33.31    1.62   2
   0  -1  13   32.12    1.34   1
   0   1 -13   35.28    1.48   3
   0   1  13   35.25    1.51   1
   0  -1 -13   36.85    1.45   2
   1  -1  13   84.73    2.45   1
  -1   1 -13   91.16    2.70   2
   1   1  13   88.46    2.39   4
   1   1  13   92.45    2.57   1
  -1  -1 -13   92.24    2.67   3
  -1   1 -13   88.83    2.39   3
   1  -1  13   89.60    2.62   4
  -1  -1 -13   88.79    2.57   2
  -2  -1 -13    7.04    0.94   3
   2  -1  13    8.05    0.99   1
   2  -1  13    7.49    0.91   4
  -2   1 -13    8.33    1.03   2
   2   1  13    7.29    0.98   1
  -2   1 -13    8.51    0.74   3
  -2  -1 -13    6.28    0.92   2
   3  -1  13    5.56    1.00   1
  -3  -1 -13    8.24    1.12   2
  -3   1 -13    6.63    1.06   2
   3   1  13    7.88    1.06   1
  -3  -1 -13    8.09    1.03   3
  -4  -1 -13    1.86    0.89   3
   4  -1  13    0.14    0.83   1
   4   1  13    0.44    0.88   1
  -4  -1 -13   -0.53    0.86   2
  -4   1 -13   -0.09    0.96   2
  -5  -1 -13   10.68    1.50   2
  -5   1 -13    8.73    1.49   2
  -5  -1 -13   10.23    1.47   3
   5  -1  13   10.89    1.48   1
   5   1  13   14.46    1.58   1
  -6  -1 -13   -1.11    1.27   2
   6  -1  13    0.91    1.33   1
  -6   1 -13   -1.38    1.29   2
   6   1  13   -0.55    1.25   1
  -6  -2  13   15.34    1.90   4
  -6  -2  13   19.63    2.25   3
   6   2 -13   18.01    2.03   2
  -6   2  13   16.40    2.03   4
   6  -2 -13   21.53    2.24   3
  -5   2  13   -0.34    1.07   4
  -5  -2  13    1.58    1.10   4
   5   2 -13    2.57    1.19   2
  -5  -2  13    1.44    1.24   3
   5  -2 -13   -0.63    1.09   3
   4  -2 -13   17.84    1.65   3
   4   2 -13   14.41    1.52   2
  -4  -2  13   14.44    1.56   3
  -4  -2  13   16.64    1.62   4
  -4   2  13   16.15    1.61   4
   3   2 -13  144.33    4.00   2
  -3   2  13  141.84    3.44   1
  -3   2  13  137.02    4.07   4
  -3  -2  13  138.42    4.06   4
   3  -2 -13  142.28    4.09   3
  -3  -2  13  137.39    3.92   3
  -2   2  13   54.41    1.98   1
  -2   2  13   54.98    2.30   4
   2   2 -13   57.57    2.35   2
   2  -2 -13   55.12    2.37   3
  -2  -2  13   66.11    2.64   4
  -1   2  13    3.62    0.79   4
  -1  -2  13    2.72    0.84   4
   1  -2 -13    2.68    0.81   3
   1   2 -13    2.25    0.83   2
  -1  -2  13    3.23    0.54   1
  -1   2  13    2.28    0.74   1
   1   2 -13    2.24    0.67   3
   0  -2  13   46.50    1.94   4
   0   2 -13   48.05    2.08   2
   0   2  13   46.41    1.77   4
   0  -2  13   49.40    1.61   1
   0   2 -13   44.71    1.59   3
   0  -2 -13   44.86    1.95   3
   0  -2 -13   45.81    1.53   2
   0   2  13   46.86    1.96   1
  -1   2 -13   11.75    0.73   3
   1   2  13   10.78    0.85   4
   1  -2  13   11.32    1.11   5
  -1  -2 -13   11.15    0.98   2
  -1  -2 -13    8.54    1.05   3
   1   2  13   11.10    1.08   1
   1  -2  13   14.03    1.19   4
  -1   2 -13   11.60    1.15   2
   1  -2  13   10.55    0.94   1
   2  -2  13    9.09    1.06   4
  -2  -2 -13    6.95    1.04   3
  -2   2 -13    7.71    1.08   2
  -2  -2 -13    8.12    0.99   2
   2  -2  13    8.43    1.12   5
   2  -2  13    7.54    1.02   1
   2   2  13    8.91    1.11   1
   3  -2  13   15.44    1.32   4
  -3  -2 -13   15.54    1.40   3
   3  -2  13   18.75    1.66   5
   3  -2  13   15.61    1.42   1
   3   2  13   16.05    1.41   1
  -3  -2 -13   18.07    1.45   2
  -3   2 -13   14.55    1.46   2
   4  -2  13    5.98    1.19   1
  -4  -2 -13    6.51    1.24   3
  -4   2 -13    6.24    1.25   2
  -4  -2 -13    8.88    1.32   2
   4  -2  13    7.63    1.38   5
   4   2  13    8.89    1.31   1
   5  -2  13    2.18    1.30   5
   5  -2  13    4.58    1.30   1
  -5  -2 -13    4.91    1.30   3
  -5   2 -13    6.21    1.43   2
  -5  -2 -13    4.64    1.31   2
   5   2  13    4.26    1.30   1
  -6   2 -13    0.88    1.34   2
   6  -2  13    2.30    1.40   1
  -6  -2 -13    3.02    1.41   3
  -6  -2 -13    0.79    1.43   2
   6   2  13    2.19    1.35   1
  -6   3  13   -3.39    1.35   4
   6   3 -13   -0.28    1.45   2
  -6  -3  13    1.74    1.46   4
   6  -3 -13    2.81    1.60   3
  -6  -3  13    0.92    1.54   3
  -5  -3  13    0.53    1.21   4
  -5   3  13   -2.54    1.14   4
   5   3 -13    0.03    1.19   2
  -5  -3  13   -1.27    1.27   3
   5  -3 -13    2.84    1.28   3
  -4   3  13    0.43    0.99   4
  -4   3  13    0.07    0.86   1
   4  -3 -13   -1.43    1.00   3
   4   3 -13    0.11    1.06   2
  -4  -3  13    1.44    1.05   4
  -4  -3  13    0.52    0.98   3
   3   3 -13    6.13    1.23   2
  -3   3  13    6.58    1.24   4
  -3  -3  13    9.66    1.37   4
  -3   3  13    6.64    0.99   1
  -3  -3  13    9.20    1.20   3
   3  -3 -13    7.36    1.21   3
  -2   3  13    5.56    0.94   1
  -2  -3  13    4.22    1.03   4
   2   3 -13    4.96    1.08   2
   2  -3 -13    2.73    0.97   3
  -2  -3  13    5.21    0.94   3
  -2   3  13    4.55    0.99   4
   1   3 -13   47.02    2.12   2
   1   3 -13   48.65    1.81   3
  -1   3  13   48.65    2.00   1
  -1   3  13   51.50    2.05   4
   1  -3 -13   48.21    2.18   3
  -1  -3  13   48.37    2.18   4
  -1  -3  13   48.63    1.52   1
   0  -3 -13   68.86    2.54   3
   0   3  13   69.42    2.23   4
   0   3 -13   64.98    2.50   2
   0  -3  13   68.88    2.05   1
   0   3  13   69.29    2.38   1
   0   3 -13   67.51    1.91   3
   0  -3  13   67.01    2.27   5
   0  -3  13   67.11    2.54   4
  -1  -3 -13   89.49    2.95   3
  -1  -3 -13   87.74    2.51   2
   1   3  13   87.77    2.90   1
   1  -3  13   88.48    2.88   5
   1  -3  13   93.48    2.64   1
   1  -3  13   92.24    3.00   4
  -1   3 -13   92.04    2.98   2
  -2  -3 -13  187.79    4.86   3
  -2   3 -13  194.33    4.93   2
   2  -3  13  182.64    4.81   4
  -2  -3 -13  188.93    4.54   2
   2   3  13  187.87    4.74   1
   3  -3  13   72.15    2.70   4
   3  -3  13   62.38    2.85   5
  -3  -3 -13   70.63    2.78   3
  -3  -3 -13   65.42    2.60   2
   3   3  13   68.32    2.66   1
  -3   3 -13   60.17    2.69   2
   3  -3  13   68.83    2.59   1
  -4  -3 -13   13.50    1.52   2
  -4   3 -13   11.56    1.45   2
   4   3  13   12.26    1.47   1
   4  -3  13   13.35    1.72   5
   4  -3  13   15.37    1.55   1
  -4  -3 -13   13.87    1.57   3
  -5   3 -13    4.28    1.50   2
   5  -3  13    3.96    1.46   5
  -5  -3 -13    2.98    1.31   2
   5  -3  13    2.98    1.27   1
   5   3  13    5.11    1.33   1
  -5  -3 -13    6.04    1.43   3
  -6   3 -13    0.56    1.44   2
  -6  -3 -13    3.08    1.57   3
   6   3  13    2.14    1.42   1
  -6  -3 -13    1.92    1.49   2
   6  -3  13    4.37    1.54   1
   6  -3  13   -0.48    1.48   5
  -5  -4  13    1.24    1.39   3
  -5  -4  13    0.66    1.32   4
   5   4 -13   -1.01    1.29   2
   5  -4 -13    2.47    1.43   3
  -5   4  13   -0.60    1.35   4
   4  -4 -13    4.94    1.35   3
   4   4 -13    3.84    1.33   2
  -4   4  13    4.44    1.18   1
  -4  -4  13    3.03    1.34   4
  -4   4  13    4.64    1.35   4
  -4  -4  13    5.60    1.33   3
  -3  -4  13    0.16    0.89   3
  -3  -4  13    0.43    0.95   4
  -3   4  13    0.14    0.85   1
   3  -4 -13    0.36    0.98   3
   3   4 -13   -0.59    0.93   2
  -3   4  13   -0.04    0.95   4
  -2   4  13   23.77    1.63   1
  -2   4  13   25.89    1.80   4
   2  -4 -13   27.68    1.89   3
  -2  -4  13   25.10    1.62   3
  -2  -4  13   26.82    1.93   4
   2   4 -13   26.85    1.93   2
   1   4 -13   25.57    1.76   2
  -1   4  13   27.04    1.71   1
  -1   4  13   24.55    1.62   4
  -1  -4  13   25.96    1.79   4
   1  -4 -13   27.35    1.86   3
   0  -4  13   -0.28    0.80   4
   0  -4 -13   -1.33    0.77   3
   0   4 -13    2.00    0.76   1
   0   4  13   -0.05    0.76   1
   0   4  13    0.13    0.64   4
   0   4 -13   -0.87    0.76   2
  -1   4 -13   23.63    1.55   1
  -1  -4 -13   23.68    1.73   3
   1   4  13   25.41    1.70   1
  -1   4 -13   24.86    1.72   2
   1  -4  13   24.89    1.79   4
  -2  -4 -13    2.24    1.03   3
  -2   4 -13    2.69    0.93   2
   2   4  13    1.42    0.97   1
  -2   4 -13    1.94    0.95   1
   2  -4  13    1.86    1.00   4
   3  -4  13   11.09    1.50   4
  -3   4 -13    8.73    1.39   2
  -3  -4 -13   10.07    1.46   3
  -3   4 -13   10.82    1.41   1
   3   4  13    6.78    1.25   1
  -3  -4 -13    9.62    1.30   2
  -4   4 -13   33.71    2.15   2
   4   4  13   34.80    2.26   1
  -4  -4 -13   34.07    2.27   3
   4  -4  13   34.41    2.37   4
  -4   4 -13   31.34    2.12   1
  -4  -4 -13   33.37    2.27   2
  -5  -4 -13   14.45    1.90   3
   5   4  13    9.21    1.65   1
   5  -4  13   10.57    1.64   1
   5  -4  13    9.13    1.86   5
  -5  -4 -13    9.74    1.65   2
  -5   4 -13    7.74    1.63   2
  -5  -5  13    2.41    1.51   4
   5  -5 -13    3.15    1.56   3
  -5   5  13    2.27    1.49   4
   5   5 -13    0.99    1.58   2
  -5  -5  13    0.99    1.53   3
   4   5 -13    6.76    1.63   2
  -4   5  13   10.13    1.50   1
  -4   5  13    9.35    1.70   4
  -4  -5  13   11.65    1.88   4
  -4  -5  13    6.89    1.49   3
   4  -5 -13    4.68    1.52   3
  -3   5  13    0.35    1.04   1
   3  -5 -13   -0.15    1.14   3
  -3   5  13   -0.47    1.12   4
  -3  -5  13    0.19    1.12   4
   3   5 -13    0.72    1.13   2
   2   5 -13    9.48    1.47   2
  -2  -5  13    8.42    1.42   4
  -2   5  13    8.96    1.29   1
   2  -5 -13    8.10    1.41   3
  -2   5  13    9.41    1.39   4
  -1   5  13   53.79    2.41   1
   1   5 -13   51.70    2.52   2
   1  -5 -13   56.30    2.71   3
  -1  -5  13   52.22    2.57   4
  -1   5  13   50.76    2.30   4
   0   5  13   29.79    1.90   1
   0  -5 -13   31.62    2.10   3
   0  -5  13   28.12    2.07   4
   0   5 -13   26.22    1.91   2
  -1  -5 -13    0.11    1.00   3
   1   5  13    0.70    0.98   1
   1  -5  13    0.59    0.96   4
  -1   5 -13    1.03    1.03   2
  -1   5 -13   -0.10    0.95   1
  -2   5 -13   -0.16    1.01   2
  -2  -5 -13   -1.81    0.93   3
  -2   5 -13   -0.91    0.90   1
   2   5  13    0.67    0.95   1
   2  -5  13    0.31    1.00   4
  -3   5 -13    4.88    1.36   2
  -3  -5 -13    5.80    1.47   3
   3   5  13    7.33    1.43   1
   3  -5  13    7.46    1.42   4
   3   5  13    5.98    1.16   2
  -3   5 -13    6.37    1.41   1
  -4   5 -13    8.26    1.57   1
   4  -5  13   11.03    1.71   4
  -4   5 -13    6.69    1.49   2
   4   5  13    6.27    1.46   1
   4   5  13    7.70    1.42   2
  -4  -5 -13    9.57    1.70   3
   5   5  13    2.11    1.44   1
  -5  -5 -13    2.83    1.67   3
   5   5  13    1.92    1.36   2
  -5   5 -13    2.96    1.51   2
  -5   5 -13    1.47    1.47   1
   4   6 -13   -1.72    1.38   2
  -4   6  13    1.26    1.41   1
  -4   6  13   -0.17    1.51   4
   4  -6 -13    0.75    1.51   3
  -4  -6  13    1.26    1.80   4
  -3   6  13    1.14    1.40   4
  -3  -6  13    3.70    1.46   4
  -3   6  13    4.22    1.39   1
   3   6 -13    3.79    1.49   2
   3  -6 -13    3.42    1.43   3
  -2   6  13    3.85    1.35   4
   2  -6 -13    4.50    1.44   3
  -2   6  13    3.18    1.23   1
   2   6 -13    0.69    1.18   2
  -2  -6  13    5.81    1.46   4
   1  -6 -13   33.15    2.41   3
  -1   6  13   32.58    2.21   1
  -1  -6  13   32.96    2.29   4
   1   6 -13   35.66    2.34   2
   1  -6 -13   35.66    2.11   4
   0   6  13   54.19    2.63   1
   0  -6 -13   59.59    2.89   3
   0   6 -13   52.43    2.68   2
   0  -6  13   56.22    2.76   4
  -1   6 -13    1.67    1.21   2
   1  -6  13    3.42    1.25   4
   1   6  13    4.74    1.27   1
  -1  -6 -13    3.76    1.41   3
  -1   6 -13    1.83    1.11   1
  -2   6 -13    1.73    1.24   2
  -2   6 -13    2.46    1.23   1
  -2  -6 -13    2.59    1.39   3
   2  -6  13    1.22    1.24   4
   2   6  13    0.98    1.19   1
  -3   6 -13    2.14    1.31   2
  -3  -6 -13    1.73    1.42   3
   3   6  13    2.67    1.43   1
  -3   6 -13    0.40    1.36   1
   3  -6  13    1.58    1.38   4
   4   6  13   -0.85    1.31   1
  -4   6 -13   -0.75    1.36   1
  -4   6 -13   -0.03    1.37   2
   4  -6  13    0.36    1.42   4
  -4  -6 -13    0.23    1.60   3
  -3   7  13    0.12    1.48   1
  -3  -7  13    1.27    1.61   4
   3   7 -13   -0.57    1.46   2
   3  -7 -13    1.72    1.39   4
   3  -7 -13    3.26    1.71   3
   2  -7 -13    5.27    1.60   3
  -2   7  13    0.54    1.36   1
   2  -7 -13    1.97    1.34   4
  -2  -7  13    3.24    1.51   4
   2   7 -13    2.63    1.39   2
   1  -7 -13   -2.01    1.39   3
  -1   7  13   -1.98    1.22   1
  -1  -7  13    1.19    1.38   4
   1  -7 -13    0.59    1.23   4
   1   7 -13   -1.08    1.15   2
   0   7 -13    3.74    1.51   2
   0  -7 -13    4.22    1.58   3
   0   7  13    2.71    1.41   1
   0  -7  13    4.09    1.41   4
   1   7  13    0.13    1.18   1
  -1  -7 -13   -0.99    1.37   3
  -1   7 -13    0.18    1.32   2
   1  -7  13    0.05    1.35   4
   2   7  13    0.35    1.31   1
   2  -7  13    0.14    1.41   4
  -2   7 -13   -0.75    1.29   2
  -2   7 -13    0.43    1.32   1
  -2  -7 -13    0.36    1.50   3
   3  -7  13    1.44    1.44   4
  -3   7 -13   -0.16    1.55   1
  -3   7 -13    1.20    1.57   2
  -3  -7 -13    3.20    1.71   3
   3   7  13    1.69    1.48   1
   6   0 -14    5.75    1.82   3
  -6   0  14    8.34    1.68   4
  -5   0  14    3.29    1.28   4
   5   0 -14    1.67    1.28   3
   4   0 -14   25.41    1.87   3
  -4   0  14   22.88    1.80   4
   3   0 -14    9.43    1.25   3
   3   0 -14   11.34    1.13   2
  -3   0  14   10.81    1.31   4
  -2   0  14    8.40    1.19   4
  -2   0  14    9.18    0.78   1
   2   0 -14    9.58    1.02   2
   2   0 -14    9.40    1.12   3
  -1   0  14   34.62    1.70   4
  -1   0  14   31.97    1.33   1
   1   0 -14   32.59    1.68   3
   1   0 -14   34.87    1.68   2
   0   0 -14    2.82    0.73   3
   0   0  14    2.62    0.67   1
   0   0 -14    2.64    0.68   2
   0   0  14    3.76    0.78   4
  -1   0 -14  292.57    6.35   2
   1   0  14  280.65    6.19   4
   1   0  14  294.83    6.09   1
  -1   0 -14  296.06    6.21   3
  -2   0 -14   94.89    2.75   3
   2   0  14   98.75    2.66   4
   2   0  14  102.10    2.92   1
  -2   0 -14  103.08    3.08   2
   3   0  14   42.23    1.99   1
  -3   0 -14   45.70    1.90   3
  -3   0 -14   47.55    2.16   2
   4   0  14    3.24    1.00   1
  -4   0 -14    1.09    1.02   2
   5   0  14   -0.47    1.04   1
  -5   0 -14    0.58    1.15   2
  -6   0 -14   -0.11    1.38   2
   6   0  14   -0.38    1.30   1
  -6   1  14    3.71    1.50   4
  -6  -1  14    2.50    1.51   4
   6   1 -14    5.91    1.68   3
   6  -1 -14    3.89    1.65   3
  -5   1  14   11.97    1.64   4
   5   1 -14   11.20    1.72   3
   5   1 -14    9.73    1.44   2
  -5  -1  14   10.02    1.53   4
   5  -1 -14   13.99    1.78   3
   4  -1 -14   12.85    1.60   3
   4   1 -14   14.84    1.48   2
  -4  -1  14   13.80    1.59   4
   4   1 -14   11.16    1.39   3
  -4   1  14   16.29    1.62   4
  -3   1  14   16.31    1.50   4
   3   1 -14   15.11    1.42   2
   3   1 -14   14.23    1.45   3
   3  -1 -14   17.70    1.50   3
  -3  -1  14   15.94    1.48   4
  -2   1  14  374.70    8.37   4
   2  -1 -14  382.77    8.27   3
   2   1 -14  392.06    8.11   2
   2   1 -14  389.44    8.18   3
  -2   1  14  377.55    7.43   1
   2  -1 -14  371.63    7.65   2
  -2  -1  14  382.91    8.42   4
   1   1 -14  110.50    3.00   3
  -1   1  14  108.65    2.78   1
   1   1 -14  106.91    3.09   2
  -1  -1  14  108.67    3.22   4
  -1  -1  14  110.67    2.56   1
  -1   1  14  106.81    3.13   4
   1  -1 -14  115.43    3.21   3
   1  -1 -14  111.68    2.81   2
   0  -1  14   -0.57    0.58   4
   0   1  14    0.41    0.57   4
   0  -1 -14   -0.47    0.51   2
   0   1 -14   -0.91    0.58   2
   0  -1  14    0.08    0.53   1
   0   1  14    0.23    0.60   1
   0   1 -14    0.42    0.56   3
   0  -1 -14   -0.21    0.63   3
  -1   1 -14    6.72    0.96   2
   1   1  14    9.50    0.84   4
   1  -1  14    7.60    0.94   4
   1  -1  14    6.34    0.84   1
  -1  -1 -14    6.77    0.95   3
  -1  -1 -14    9.82    0.97   2
   1   1  14    7.66    0.96   1
  -1   1 -14    7.39    0.81   3
  -2   1 -14   62.61    2.43   2
   2  -1  14   69.21    2.26   4
   2   1  14   67.94    2.36   1
  -2  -1 -14   62.29    2.29   2
  -2   1 -14   70.67    2.00   3
   2  -1  14   63.13    2.26   1
  -2  -1 -14   63.39    2.28   3
  -3  -1 -14    0.41    0.83   2
   3  -1  14    0.32    0.74   1
   3   1  14    1.53    0.83   1
  -3  -1 -14   -0.26    0.77   3
  -3   1 -14    1.63    0.85   2
  -4  -1 -14   12.95    1.38   3
  -4  -1 -14   13.82    1.51   2
   4  -1  14   14.96    1.47   1
   4   1  14   14.85    1.50   1
  -4   1 -14   12.90    1.65   2
   5   1  14    0.00    1.09   1
  -5  -1 -14    1.29    1.14   3
  -5  -1 -14   -0.04    1.14   2
   5  -1  14    1.92    1.18   1
  -5   1 -14    1.21    1.19   2
  -6   1 -14   -0.26    1.29   2
  -6  -1 -14    1.09    1.44   2
   6  -1  14    1.39    1.38   1
   6   1  14    0.88    1.36   1
  -6  -2  14    0.91    1.34   4
   6  -2 -14    1.70    1.60   3
  -6  -2  14    2.01    1.66   3
  -6   2  14    1.29    1.45   4
   6   2 -14    3.11    1.55   2
  -5   2  14   10.17    1.65   4
  -5  -2  14    8.35    1.65   3
  -5  -2  14   11.13    1.62   4
   5   2 -14   10.20    1.57   2
   5  -2 -14   12.86    1.75   3
  -4  -2  14   15.95    1.64   4
   4  -2 -14   14.44    1.64   3
   4   2 -14   15.51    1.63   2
  -4  -2  14   16.19    1.62   3
  -4   2  14   12.36    1.58   4
   3  -2 -14    0.05    0.87   3
   3   2 -14   -0.13    0.87   2
  -3   2  14    0.92    0.89   4
  -3   2  14    0.88    0.71   1
  -3  -2  14    1.07    0.94   4
  -3  -2  14    0.79    0.85   3
  -2   2  14   20.75    1.57   4
  -2  -2  14   25.36    1.71   4
   2   2 -14   23.40    1.55   3
   2  -2 -14   25.71    1.72   3
  -2   2  14   22.96    1.39   1
   2   2 -14   22.62    1.64   2
  -1  -2  14   10.95    1.19   4
   1  -2 -14   13.65    1.31   3
   1   2 -14   12.64    1.24   2
  -1   2  14   12.02    1.16   4
  -1  -2  14   12.10    0.80   1
   1   2 -14   12.71    1.04   3
  -1   2  14   10.72    1.07   1
   0   2  14   23.71    1.43   1
   0  -2  14   20.27    1.49   4
   0   2 -14   20.67    1.47   2
   0   2  14   19.46    1.30   4
   0  -2 -14   22.11    1.18   2
   0  -2 -14   22.93    1.55   3
   0   2 -14   22.41    1.24   3
   0  -2  14   20.64    1.19   1
  -1  -2 -14    0.56    0.72   3
  -1  -2 -14    1.18    0.67   2
   1  -2  14   -0.90    0.65   4
   1   2  14    0.35    0.55   4
   1   2  14    0.44    0.72   1
  -1   2 -14   -0.13    0.66   2
   1  -2  14   -0.47    0.56   1
   1  -2  14   -0.06    0.66   5
  -2  -2 -14   16.83    1.27   2
   2  -2  14   18.00    1.34   1
  -2  -2 -14   17.65    1.40   3
  -2   2 -14   16.12    1.42   2
   2  -2  14   17.31    1.51   5
   2   2  14   17.13    1.40   1
   2  -2  14   18.77    1.44   4
   3  -2  14   13.83    1.55   5
   3  -2  14   16.78    1.47   1
   3  -2  14   13.62    1.31   4
  -3  -2 -14   17.17    1.46   2
  -3  -2 -14   16.82    1.46   3
   3   2  14   15.27    1.40   1
  -3   2 -14   14.75    1.50   2
  -4   2 -14    0.48    0.95   2
  -4  -2 -14   -0.28    0.93   3
   4  -2  14   -0.40    1.04   5
   4  -2  14   -0.79    0.97   1
  -4  -2 -14   -0.02    0.98   2
   4   2  14   -0.01    0.93   1
   5  -2  14    6.00    1.41   1
  -5   2 -14    4.90    1.44   2
   5   2  14    5.01    1.40   1
  -5  -2 -14    4.36    1.36   3
  -5  -2 -14    3.03    1.35   2
  -6   2 -14   10.33    1.85   2
   6  -2  14   11.98    1.90   1
  -6  -2 -14   10.20    1.89   2
  -6  -2 -14   11.94    1.75   3
   6   2  14   11.81    1.79   1
   6   3 -14    1.04    1.58   2
  -6  -3  14    4.08    1.79   3
  -6   3  14    2.54    1.60   4
  -6  -3  14    1.72    1.53   4
   6  -3 -14    1.28    1.60   3
  -5  -3  14   11.35    1.73   4
  -5   3  14   10.32    1.74   4
   5  -3 -14   10.11    1.73   3
   5   3 -14   12.02    1.82   2
  -5  -3  14   10.40    1.74   3
  -4  -3  14    0.44    1.07   4
  -4  -3  14   -0.33    1.04   3
   4   3 -14   -0.42    1.04   2
  -4   3  14    0.40    1.09   4
   4  -3 -14   -0.29    1.05   3
   3   3 -14    0.77    1.00   2
   3  -3 -14    0.32    0.97   3
  -3   3  14   -0.39    0.92   4
  -3   3  14    1.27    0.85   1
  -3  -3  14   -0.52    0.82   3
  -3  -3  14   -0.32    0.98   4
  -2  -3  14   33.09    1.84   3
  -2   3  14   36.49    1.76   1
   2  -3 -14   35.48    2.03   3
  -2   3  14   33.36    1.91   4
  -2  -3  14   37.79    2.08   4
   2   3 -14   33.55    2.00   2
  -1   3  14   13.76    1.25   4
   1  -3 -14   13.30    1.34   3
  -1  -3  14   13.63    1.39   4
  -1   3  14   14.69    1.28   1
   1   3 -14   14.38    1.10   3
   1   3 -14   12.91    1.37   2
   0  -3  14    7.82    1.16   4
   0  -3  14    7.00    0.95   5
   0   3  14    5.72    1.03   1
   0   3  14    5.58    0.89   4
   0  -3 -14    5.10    1.07   3
   0   3 -14    4.59    1.07   2
   0  -3  14    6.37    0.83   1
   1  -3  14   15.01    1.21   1
   1  -3  14   16.82    1.48   4
   1  -3  14   15.17    1.38   5
   1   3  14   15.69    1.40   1
  -1  -3 -14   13.03    1.06   2
  -1  -3 -14   16.34    1.45   3
  -1   3 -14   12.59    1.32   2
   2  -3  14   30.04    1.68   1
   2  -3  14   23.60    1.75   5
  -2  -3 -14   26.44    1.61   2
   2   3  14   26.01    1.76   1
  -2   3 -14   25.88    1.80   2
   2  -3  14   24.60    1.75   4
  -2  -3 -14   25.12    1.82   3
   3  -3  14   76.36    2.80   4
  -3  -3 -14   74.12    2.77   2
  -3  -3 -14   75.12    2.91   3
   3   3  14   74.26    2.82   1
   3  -3  14   71.51    2.72   1
   3  -3  14   71.99    3.09   5
  -3   3 -14   72.18    2.92   2
  -4   3 -14    1.61    1.03   2
   4  -3  14    2.98    1.29   5
   4  -3  14   -0.11    1.05   1
  -4  -3 -14    3.16    1.17   3
   4   3  14    1.97    1.07   1
  -4  -3 -14    1.20    1.12   2
  -5  -3 -14   -1.13    1.20   2
   5  -3  14    0.15    1.25   1
  -5  -3 -14    2.02    1.29   3
   5   3  14    0.23    1.22   1
  -5   3 -14   -2.55    1.26   2
   5  -3  14    2.01    1.42   5
  -6   3 -14    2.23    1.58   2
   6   3  14    0.33    1.40   1
  -6  -3 -14   -1.63    1.45   2
   6  -3  14    0.21    1.46   1
   6  -3  14   -0.20    1.49   5
  -6  -3 -14   -1.50    1.56   3
  -5  -4  14    2.57    1.54   3
  -5  -4  14    3.49    1.49   4
  -5   4  14    4.89    1.57   4
   5  -4 -14    1.73    1.44   3
   5   4 -14   -0.09    1.49   2
  -4   4  14   16.81    1.88   4
  -4   4  14   12.00    1.46   1
   4   4 -14   17.08    1.93   2
  -4  -4  14   12.69    1.75   4
  -4  -4  14   15.11    1.71   3
   4  -4 -14   15.00    1.80   3
  -3  -4  14   10.72    1.41   3
  -3   4  14   13.16    1.40   1
   3   4 -14   13.41    1.63   2
  -3  -4  14   12.48    1.56   4
   3  -4 -14   14.31    1.65   3
  -3   4  14   11.54    1.57   4
   2   4 -14    0.93    0.98   2
  -2  -4  14    0.27    0.94   4
  -2   4  14   -0.45    0.85   4
  -2   4  14    2.01    0.92   1
   2  -4 -14    1.37    1.00   3
  -1  -4  14    1.71    0.98   4
  -1   4  14    2.36    0.96   1
  -1   4  14    1.21    0.84   4
   1   4 -14    1.48    0.98   2
   1  -4 -14    1.03    0.94   3
   0   4  14   38.95    1.78   4
   0   4  14   39.56    2.04   1
   0  -4 -14   41.81    2.19   3
   0  -4  14   37.13    2.14   4
   0   4 -14   44.04    2.53   2
   1  -4  14   25.61    1.83   4
   1   4  14   25.34    1.77   1
  -1  -4 -14   25.97    1.85   3
  -1   4 -14   21.67    1.51   1
  -1   4 -14   26.83    1.84   2
  -2   4 -14    0.48    0.89   1
  -2   4 -14    0.12    0.88   2
   2   4  14   -0.11    0.90   1
  -2  -4 -14   -0.23    0.96   3
   2  -4  14    0.40    0.89   4
  -3   4 -14    1.21    1.10   2
   3  -4  14    0.14    0.97   4
  -3  -4 -14   -0.17    1.07   3
  -3   4 -14    0.90    0.98   1
   3   4  14    0.25    0.96   1
  -3  -4 -14    1.09    1.01   2
   4  -4  14   29.02    2.15   1
   4  -4  14   27.28    2.39   5
   4  -4  14   28.86    2.17   4
   4   4  14   25.88    2.09   1
  -4   4 -14   23.03    1.98   2
  -4  -4 -14   33.10    2.29   3
  -4  -4 -14   26.16    2.03   2
   5  -4  14   10.92    1.95   5
  -5  -4 -14    9.38    1.65   2
  -5   4 -14    9.16    1.71   2
   5   4  14    9.89    1.71   1
   5  -4  14   10.00    1.69   1
  -5  -4 -14    8.86    1.79   3
   5  -5 -14    3.84    1.62   3
   5   5 -14   -0.64    1.53   2
  -5   5  14    1.36    1.61   4
  -5  -5  14   -1.54    1.50   3
  -5  -5  14    1.66    1.63   4
   4   5 -14    6.17    1.60   2
  -4   5  14    2.40    1.47   4
   4  -5 -14    2.74    1.48   3
  -4  -5  14    2.39    1.62   4
  -4   5  14    5.32    1.36   1
  -4  -5  14    4.49    1.44   3
   3  -5 -14    4.05    1.34   3
  -3  -5  14    5.88    1.36   4
   3   5 -14    3.32    1.37   2
  -3   5  14    1.12    1.11   1
  -3   5  14    1.78    1.23   4
   2  -5 -14    1.16    1.11   3
   2   5 -14    1.63    1.13   2
  -2   5  14    0.72    1.02   1
  -2   5  14    1.11    1.07   4
  -2  -5  14    0.65    1.10   4
  -1   5  14    5.95    1.12   4
  -1   5  14    5.02    1.16   1
   1  -5 -14    2.57    1.24   3
   1   5 -14    2.75    1.14   2
  -1  -5  14    4.16    1.27   4
   0   5 -14    1.56    1.21   2
   0  -5 -14    4.52    1.28   3
   0   5  14    2.43    1.15   1
   0  -5  14    3.49    1.18   4
  -1   5 -14    0.31    0.95   1
   1  -5  14    1.51    1.08   4
  -1   5 -14    0.51    1.01   2
  -1  -5 -14   -1.05    1.05   3
   1   5  14    0.01    0.98   1
  -2   5 -14    1.19    1.08   1
  -2  -5 -14    1.05    1.15   3
   2  -5  14   -1.26    0.99   4
  -2   5 -14    0.51    1.04   2
   2   5  14    0.37    1.00   1
  -3   5 -14    3.34    1.31   2
  -3   5 -14    1.03    1.19   1
   3   5  14    0.12    1.11   1
  -3  -5 -14    2.03    1.29   3
   3  -5  14    1.54    1.15   4
   4   5  14    1.31    1.20   2
  -4  -5 -14    2.85    1.45   3
   4  -5  14   -2.09    1.24   4
   4   5  14   -1.49    1.18   1
  -4   5 -14    1.02    1.26   2
  -4   5 -14   -1.12    1.22   1
  -5  -5 -14    1.01    1.74   3
   5   5  14   -0.84    1.36   1
   5   5  14    0.07    1.35   2
  -5   5 -14   -0.47    1.47   2
   5  -5  14    0.62    1.56   5
   5  -5  14    0.79    1.48   1
   4   6 -14    2.44    1.60   2
  -4  -6  14    2.74    1.92   4
  -4   6  14    2.59    1.56   4
   4  -6 -14    0.07    1.56   3
  -4   6  14    1.15    1.43   1
  -3  -6  14    4.49    1.51   4
   3   6 -14    3.25    1.50   2
   3  -6 -14    3.33    1.50   3
  -3   6  14    2.52    1.44   4
  -3   6  14    3.61    1.39   1
  -2  -6  14    1.36    1.28   4
   2   6 -14   -0.52    1.19   2
   2  -6 -14    0.93    1.31   3
  -2   6  14   -1.34    1.16   1
  -2   6  14    0.93    1.24   4
  -1   6  14   25.96    2.08   1
   1  -6 -14   30.70    2.36   3
  -1  -6  14   27.21    2.23   4
   1   6 -14   30.77    2.24   2
   0  -6 -14   21.72    2.08   3
   0  -6  14   23.48    2.09   4
   0   6 -14   21.54    2.00   2
   0   6  14   27.52    2.13   1
  -1   6 -14    1.77    1.20   2
  -1  -6 -14   -2.00    1.24   3
   1  -6  14    0.21    1.10   4
   1   6  14   -0.62    1.07   1
   2   6  14   -0.11    1.11   1
  -2  -6 -14    0.79    1.38   3
   2  -6  14    0.24    1.22   4
  -2   6 -14    2.66    1.30   2
  -2   6 -14    0.21    1.16   1
   3   6  14   -0.04    1.35   1
   3  -6  14    0.18    1.27   4
  -3   6 -14    0.15    1.26   1
  -3   6 -14    1.82    1.38   2
  -3  -6 -14   -1.92    1.33   3
   4  -6  14    1.38    1.59   4
   4   6  14    2.13    1.53   1
  -4  -6 -14    2.70    1.67   3
  -4   6 -14    0.28    1.45   1
  -4   6 -14    2.35    1.44   2
  -2   7  14    2.79    1.47   1
   2  -7 -14    1.64    1.58   3
   2  -7 -14    3.40    1.41   4
  -2  -7  14    5.37    1.68   4
   2   7 -14    3.26    1.51   2
   1  -7 -14    0.62    1.50   3
  -1   7  14   -1.88    1.24   1
  -1  -7  14    0.12    1.35   4
   1   7 -14    1.35    1.34   2
   0   7 -14    2.05    1.42   2
   0   7  14    1.44    1.37   1
   0  -7  14    0.72    1.32   4
   0  -7 -14    0.86    1.46   3
  -1  -7 -14   -0.38    1.47   3
   1   7  14   -1.12    1.26   1
  -1   7 -14   -0.84    1.32   2
   1  -7  14    3.56    1.48   4
   2  -7  14    3.22    1.49   4
  -2   7 -14    4.39    1.60   2
   2   7  14    2.00    1.45   1
  -2  -7 -14    0.56    1.67   3
  -6   0  15    0.22    1.44   4
   6   0 -15    0.35    1.62   3
   5   0 -15    0.07    1.23   3
  -5   0  15    0.13    1.19   4
  -4   0  15   -0.22    0.97   4
   4   0 -15   -0.22    1.05   3
  -3   0  15    0.88    0.89   4
   3   0 -15   -0.80    0.74   2
   3   0 -15   -0.41    0.80   3
  -2   0  15   -0.07    0.57   1
   2   0 -15    0.06    0.76   2
   2   0 -15    0.04    0.82   3
  -2   0  15   -0.82    0.84   4
  -1   0  15    0.43    0.58   1
   1   0 -15    0.55    0.76   3
  -1   0  15   -0.31    0.72   4
   1   0 -15   -0.62    0.66   2
   0   0  15   -0.66    0.55   1
   0   0 -15   -0.47    0.61   3
   0   0  15   -0.61    0.60   4
   0   0 -15   -0.36    0.60   2
  -1   0 -15    0.94    0.67   3
  -1   0 -15    0.45    0.64   2
   1   0  15    1.21    0.70   1
   1   0  15   -0.19    0.59   4
   2   0  15    0.79    0.77   1
  -2   0 -15    0.19    0.68   3
  -2   0 -15   -0.58    0.75   2
  -3   0 -15   -0.25    0.82   2
  -3   0 -15   -0.43    0.71   3
   3   0  15    0.60    0.79   1
   4   0  15   -0.64    0.88   1
  -4   0 -15   -0.28    0.96   2
   5   0  15    0.90    1.10   1
  -5   0 -15   -0.80    1.15   2
  -6   0 -15    0.90    1.41   2
   6   0  15   -0.19    1.40   1
  -6   1  15   47.97    2.95   4
  -6  -1  15   49.08    2.89   4
   6   1 -15   61.33    3.37   3
   6  -1 -15   46.61    3.16   3
  -5   1  15   10.51    1.64   4
   5  -1 -15   14.18    1.83   3
  -5  -1  15    9.95    1.60   4
   5   1 -15    9.24    1.64   3
   4  -1 -15    5.65    1.30   3
   4   1 -15    7.51    1.32   2
  -4   1  15    5.04    1.25   4
   4   1 -15    7.13    1.37   3
  -4  -1  15    4.77    1.26   4
   3   1 -15   25.95    1.83   3
  -3  -1  15   28.28    1.86   4
   3  -1 -15   28.22    1.86   3
   3   1 -15   26.38    1.78   2
  -3   1  15   25.46    1.80   4
   2   1 -15  155.40    4.07   2
  -2   1  15  140.25    4.17   4
   2   1 -15  154.23    4.10   3
  -2   1  15  151.85    3.57   1
   2  -1 -15  155.45    4.24   3
  -2  -1  15  160.77    4.31   4
   1  -1 -15   36.77    1.95   3
  -1   1  15   36.04    1.57   1
   1   1 -15   35.00    1.73   3
  -1  -1  15   38.30    1.90   4
  -1   1  15   34.43    1.80   4
   1  -1 -15   30.27    1.51   2
  -1  -1  15   37.09    1.36   1
   1   1 -15   32.94    1.80   2
   0  -1 -15    1.94    0.67   2
   0   1 -15    1.28    0.67   3
   0   1  15    1.67    0.72   1
   0  -1  15    1.44    0.58   1
   0  -1  15    1.66    0.73   4
   0   1  15    1.34    0.65   4
   0  -1 -15    1.71    0.79   3
   0   1 -15    1.10    0.73   2
   1   1  15   40.94    1.65   4
   1  -1  15   43.87    1.87   4
  -1  -1 -15   42.04    1.84   2
  -1   1 -15   38.62    1.70   3
  -1   1 -15   45.31    1.97   2
  -1  -1 -15   43.41    1.93   3
   1   1  15   40.39    1.83   1
   1  -1  15   40.34    1.69   1
  -2  -1 -15    0.59    0.72   2
   2   1  15    1.09    0.76   1
   2  -1  15    0.49    0.72   1
  -2   1 -15    0.90    0.62   3
  -2   1 -15    0.41    0.76   2
  -2  -1 -15    0.47    0.75   3
   2  -1  15    0.65    0.67   4
   3   1  15    3.51    0.99   1
  -3  -1 -15    1.74    0.94   3
  -3   1 -15    3.23    0.98   2
   3  -1  15    2.59    0.98   1
  -3  -1 -15    1.84    0.97   2
   4  -1  15    2.60    1.09   1
  -4   1 -15    3.16    1.31   2
  -4  -1 -15    5.49    1.23   2
   4   1  15    4.52    1.14   1
  -4  -1 -15    3.04    1.08   3
  -5  -1 -15    1.84    1.33   2
   5  -1  15    1.49    1.22   1
  -5   1 -15    1.31    1.21   2
   5   1  15    4.10    1.30   1
  -6  -1 -15    0.49    1.44   2
   6  -1  15    2.41    1.43   1
  -6   1 -15    1.10    1.54   2
   6   1  15    2.04    1.43   1
  -6  -2  15   -0.37    1.63   3
  -6   2  15    5.12    1.73   4
   6  -2 -15    4.23    1.76   3
  -6  -2  15    3.52    1.57   4
  -5  -2  15    1.89    1.27   4
   5   2 -15    0.86    1.34   2
  -5  -2  15    1.15    1.38   3
   5  -2 -15    1.45    1.35   3
  -5   2  15    2.33    1.34   4
   4  -2 -15    1.06    1.09   3
  -4  -2  15    0.08    1.00   4
  -4   2  15    1.33    1.06   4
  -4  -2  15   -0.29    1.02   3
   4   2 -15   -0.19    1.07   2
   3  -2 -15   71.09    2.91   3
  -3  -2  15   74.76    2.90   4
  -3   2  15   71.03    2.31   1
   3   2 -15   73.91    2.74   3
  -3   2  15   68.07    2.83   4
   3   2 -15   74.23    2.78   2
  -2   2  15   40.70    1.79   1
  -2   2  15   35.91    1.97   4
   2   2 -15   37.84    1.95   3
   2  -2 -15   41.03    2.11   3
  -2  -2  15   43.02    2.15   4
   2   2 -15   35.99    1.98   2
   1   2 -15    8.62    1.00   3
   1   2 -15    5.94    1.08   2
   1  -2 -15    9.01    1.15   3
  -1   2  15    7.34    0.98   1
  -1  -2  15    9.51    0.79   1
  -1   2  15    7.10    1.06   4
  -1  -2  15    8.25    1.15   4
   0   2  15   37.64    1.73   4
   0   2 -15   38.50    1.64   3
   0   2 -15   38.98    1.99   2
   0  -2  15   40.67    1.99   4
   0  -2 -15   41.73    1.97   3
   0  -2  15   36.51    1.53   1
   0   2  15   42.10    2.00   1
   0  -2 -15   38.04    1.54   2
   1  -2  15    0.70    0.68   1
  -1  -2 -15    1.67    0.86   3
  -1   2 -15    1.44    0.83   2
   1  -2  15    3.07    0.84   4
  -1  -2 -15    1.42    0.78   2
   1   2  15    2.20    0.88   1
   2   2  15   21.61    1.55   1
   2  -2  15   22.11    1.59   4
   2  -2  15   22.35    1.49   1
  -2   2 -15   19.69    1.59   2
  -2  -2 -15   19.32    1.50   3
  -2  -2 -15   18.91    1.38   2
  -3  -2 -15  163.14    4.34   3
   3   2  15  153.91    4.26   1
  -3  -2 -15  156.24    4.30   2
   3  -2  15  147.85    4.68   5
   3  -2  15  155.75    4.16   4
  -4  -2 -15   11.86    1.50   3
  -4   2 -15   11.29    1.51   2
   4   2  15   11.07    1.48   1
  -4  -2 -15   14.13    1.62   2
   4  -2  15   12.69    1.51   1
  -5  -2 -15   -1.91    1.07   2
  -5   2 -15    2.62    1.30   2
  -5  -2 -15    0.98    1.29   3
   5  -2  15    1.20    1.21   1
   5   2  15   -1.10    1.10   1
   6  -2  15    1.54    1.43   1
  -6   2 -15    1.28    1.51   2
   6   2  15    0.82    1.43   1
  -6  -2 -15    0.82    1.44   2
  -5  -3  15    1.58    1.34   4
  -5   3  15    0.14    1.37   4
  -5  -3  15    1.23    1.43   3
   5  -3 -15    1.11    1.35   3
   5   3 -15    0.53    1.38   2
  -4  -3  15    1.73    1.21   3
   4  -3 -15    2.01    1.28   3
   4   3 -15    1.32    1.29   2
  -4  -3  15    3.39    1.30   4
  -4   3  15    4.14    1.31   4
  -3  -3  15   -1.44    0.84   3
  -3   3  15   -0.31    0.83   1
   3  -3 -15    1.60    1.09   3
  -3  -3  15    1.25    1.08   4
  -3   3  15    0.44    1.03   4
   3   3 -15    1.43    1.05   2
  -2   3  15   -0.03    0.84   4
   2   3 -15   -0.46    0.90   2
  -2  -3  15    0.69    0.89   4
  -2   3  15    0.18    0.75   1
   2  -3 -15    0.21    0.86   3
   2   3 -15   -0.10    0.77   3
  -1   3  15   31.48    1.79   4
  -1   3  15   32.70    1.78   1
   1  -3 -15   34.14    1.97   3
   1   3 -15   33.10    1.62   3
   1   3 -15   29.24    1.88   2
  -1  -3  15   28.79    1.91   4
   0   3  15   18.76    1.33   4
   0  -3 -15   20.59    1.60   3
   0   3 -15   17.24    1.52   2
   0  -3  15   16.34    1.23   5
   0  -3  15   22.62    1.68   4
   0  -3  15   17.44    1.15   1
   0   3  15   19.57    1.48   1
   1  -3  15    1.14    0.89   4
   1  -3  15    1.45    0.83   5
   1  -3  15    1.35    0.76   1
   1   3  15    2.01    0.92   1
  -1   3 -15    2.42    0.88   2
  -1  -3 -15    1.20    0.92   3
   2  -3  15   21.66    1.62   5
  -2   3 -15   20.23    1.63   2
  -2  -3 -15   17.73    1.38   2
   2  -3  15   20.52    1.64   4
   2  -3  15   21.20    1.51   1
  -2  -3 -15   20.13    1.66   3
   2   3  15   19.00    1.60   1
  -3  -3 -15   26.12    1.90   3
   3  -3  15   21.01    1.72   4
   3   3  15   23.01    1.80   1
   3  -3  15   21.90    1.72   1
  -3  -3 -15   21.64    1.65   2
   3  -3  15   21.67    1.96   5
  -3   3 -15   23.17    1.84   2
   4  -3  15    0.46    1.13   5
   4   3  15    1.28    1.08   1
  -4  -3 -15    0.55    1.10   2
  -4  -3 -15    1.12    1.12   3
   4  -3  15    2.00    1.11   1
  -4   3 -15   -0.52    0.96   2
   5  -3  15    0.49    1.41   5
   5   3  15    2.70    1.30   1
  -5   3 -15   -0.03    1.39   2
  -5  -3 -15    1.44    1.35   2
   5  -3  15    0.57    1.28   1
  -5  -3 -15    2.21    1.41   3
  -5   4  15    1.41    1.46   4
  -5  -4  15    1.91    1.49   4
  -5  -4  15    2.02    1.53   3
   5  -4 -15    0.25    1.48   3
   5   4 -15   -0.22    1.39   2
  -4   4  15    1.57    1.11   1
  -4   4  15    0.22    1.27   4
  -4  -4  15    2.36    1.33   3
   4   4 -15    2.29    1.36   2
  -4  -4  15    2.88    1.36   4
   4  -4 -15    2.69    1.42   3
  -3  -4  15    4.08    1.15   3
  -3   4  15    4.47    1.12   1
   3   4 -15    5.17    1.34   2
  -3   4  15    2.88    1.25   4
  -3  -4  15    3.49    1.45   4
   3  -4 -15    5.03    1.35   3
  -2  -4  15   -0.61    0.95   4
  -2   4  15   -0.10    0.91   1
   2   4 -15    1.02    1.03   2
  -2   4  15    0.12    0.90   4
   2  -4 -15    0.01    0.96   3
  -1   4  15    2.44    0.98   1
  -1  -4  15   -0.44    0.88   4
   1   4 -15   -0.05    0.93   2
   1  -4 -15    0.20    0.97   3
  -1   4  15   -0.42    0.81   4
   0   4  15   -0.10    0.90   1
   0   4 -15    0.56    0.92   2
   0  -4  15   -0.22    0.83   5
   0  -4 -15    0.10    0.94   3
   0  -4  15   -0.43    0.88   4
   0  -4  15    0.19    0.72   1
   1  -4  15   13.23    1.43   5
  -1  -4 -15   10.87    1.46   3
   1  -4  15   11.74    1.23   1
  -1   4 -15   12.26    1.47   2
   1   4  15   11.94    1.39   1
   1  -4  15   14.97    1.57   4
   2   4  15   32.71    2.06   1
  -2  -4 -15   35.50    2.19   3
   2  -4  15   31.52    2.03   5
  -2   4 -15   33.83    2.10   2
   2  -4  15   33.86    1.87   1
   2  -4  15   32.83    2.10   4
   3  -4  15    3.99    1.25   4
   3  -4  15    3.26    1.07   1
   3  -4  15    1.79    1.17   5
  -3  -4 -15    1.59    1.18   3
   3   4  15    2.07    1.21   1
  -3   4 -15    2.43    1.17   2
   4  -4  15    0.70    1.33   5
  -4   4 -15   -0.24    1.13   2
   4   4  15   -1.93    1.15   1
   4  -4  15    1.14    1.16   1
  -4  -4 -15    0.23    1.24   3
  -4  -4 -15    1.68    1.22   2
   5  -4  15    1.04    1.55   5
  -5   4 -15    1.29    1.41   2
  -5  -4 -15    2.95    1.52   3
   5  -4  15   -1.38    1.39   1
   5   4  15    1.83    1.49   1
  -5  -4 -15    1.72    1.40   2
  -4   5  15    0.70    1.44   4
  -4   5  15    5.25    1.39   1
   4   5 -15    0.94    1.43   2
   4  -5 -15    3.61    1.55   3
  -4  -5  15    2.05    1.54   4
  -3   5  15   10.63    1.52   1
  -3   5  15    4.13    1.38   4
  -3  -5  15    8.19    1.57   4
   3  -5 -15    5.19    1.45   3
   3   5 -15    7.33    1.64   2
  -2   5  15    1.68    1.12   4
   2  -5 -15    0.26    1.15   3
  -2  -5  15    1.45    1.17   4
  -2   5  15   -0.61    1.04   1
   2   5 -15    1.17    1.13   2
  -1   5  15    8.14    1.33   1
  -1   5  15    7.13    1.24   4
   1   5 -15    9.45    1.45   2
  -1  -5  15   10.28    1.54   4
   1  -5 -15    8.02    1.51   3
   0  -5  15   -0.20    0.98   4
   0   5 -15   -1.39    1.06   2
   0   5  15   -0.15    0.98   1
   0  -5 -15    0.65    1.09   3
  -1  -5 -15    1.12    1.13   3
  -1   5 -15   -0.49    0.98   1
   1   5  15    0.83    1.05   1
   1  -5  15   -0.88    0.97   4
  -1   5 -15    0.20    1.03   2
  -2  -5 -15    3.73    1.38   3
  -2   5 -15    6.01    1.31   2
   2   5  15    2.98    1.16   1
  -2   5 -15    4.35    1.22   1
   2  -5  15    6.30    1.34   4
  -3   5 -15    4.22    1.37   1
  -3  -5 -15    4.49    1.55   3
   3  -5  15    2.72    1.25   4
  -3   5 -15    3.82    1.35   2
   3   5  15    2.98    1.29   1
  -4   5 -15   13.00    1.85   2
   4  -5  15   12.38    2.08   5
   4  -5  15   14.05    1.91   4
  -4  -5 -15   17.11    2.13   3
   4  -5  15   17.47    1.92   1
   4   5  15   12.98    1.78   1
   4   5  15   15.46    1.74   2
  -4   6  15    2.17    1.67   4
   4  -6 -15   -1.50    1.59   3
  -4   6  15    4.52    1.58   1
  -3   6  15    5.77    1.58   1
   3   6 -15    6.75    1.66   2
  -3  -6  15    7.03    1.70   4
  -3   6  15    7.52    1.66   4
   3  -6 -15    5.97    1.69   3
   2  -6 -15    0.14    1.39   3
   2   6 -15   -0.99    1.18   2
  -2   6  15    0.59    1.20   1
  -2   6  15   -0.66    1.22   4
  -2  -6  15    0.38    1.32   4
   1   6 -15    0.37    1.19   2
   1  -6 -15    2.92    1.38   3
  -1  -6  15   -0.63    1.16   4
  -1   6  15    0.68    1.23   1
   0  -6 -15   31.61    2.37   3
   0   6  15   32.29    2.34   1
   0   6 -15   26.04    2.22   2
   0  -6  15   31.03    2.42   4
  -1  -6 -15   12.83    1.91   3
   1   6  15   11.59    1.70   1
  -1   6 -15    9.11    1.65   2
   1  -6  15   14.27    1.83   4
   2  -6  15   -1.56    1.21   4
  -2  -6 -15   -2.86    1.37   3
  -2   6 -15   -1.95    1.24   1
  -2   6 -15   -0.18    1.29   2
   2   6  15   -0.92    1.14   1
  -3   6 -15    7.22    1.61   1
  -3  -6 -15    7.12    1.87   3
   3  -6  15    1.74    1.46   4
  -3   6 -15    5.81    1.65   2
   3   6  15    2.53    1.47   1
  -2  -7  15   -0.40    1.42   4
  -2   7  15    0.17    1.51   1
   2   7 -15    0.29    1.40   2
   2  -7 -15    1.69    1.60   3
   2  -7 -15    1.34    1.44   4
  -1  -7  15    3.78    1.53   4
  -1   7  15    3.55    1.57   1
   1  -7 -15    4.98    1.76   3
   1   7 -15    5.20    1.58   2
   0   7 -15   25.18    2.38   2
   0  -7 -15   29.79    2.60   3
   0   7  15   22.79    2.23   1
   0  -7  15   24.77    2.44   4
   1  -7  15    9.69    1.85   4
  -1   7 -15   13.98    1.94   2
  -1  -7 -15    7.49    1.84   3
   1   7  15    4.45    1.64   1
  -2  -7 -15    0.74    1.76   3
  -2   7 -15    2.80    1.64   2
   2  -7  15    0.43    1.46   4
   2   7  15    0.74    1.41   1
  -6   0  16   -1.32    1.39   4
   6   0 -16    1.03    1.72   3
   5   0 -16   10.91    1.80   3
  -5   0  16    7.14    1.58   4
   4   0 -16   17.78    1.79   3
  -4   0  16   13.22    1.61   4
  -3   0  16    5.75    1.18   4
   3   0 -16    4.71    1.15   3
   3   0 -16    5.19    1.01   2
   2   0 -16  445.92    9.33   2
  -2   0  16  467.23    9.95   4
   1   0 -16 1145.97   22.07   2
  -1   0  16 1143.82   21.06   1
   1   0 -16 1193.36   22.43   3
  -1   0  16 1216.90   22.85   4
   0   0  16   36.07    1.61   1
   0   0 -16   34.01    1.74   2
   0   0  16   34.03    1.73   4
   0   0 -16   36.95    1.82   3
   1   0  16   13.22    1.16   4
   1   0  16   16.03    1.26   1
  -1   0 -16   13.32    1.22   2
  -1   0 -16   14.06    1.19   3
   2   0  16  136.52    3.70   1
  -2   0 -16  132.87    3.53   3
  -2   0 -16  140.86    3.89   2
  -3   0 -16   15.45    1.53   2
  -3   0 -16   20.92    1.37   3
   3   0  16   20.03    1.58   1
  -4   0 -16    6.46    1.37   2
   4   0  16    5.59    1.24   1
   5   0  16    3.66    1.34   1
  -5   0 -16    3.25    1.39   2
   6   0  16    1.26    1.48   1
  -6   0 -16    0.86    1.62   2
   6   1 -16    6.67    2.04   3
  -6   1  16    6.57    1.80   4
  -6  -1  16    9.90    1.82   4
   6  -1 -16    5.69    1.88   3
  -5  -1  16    4.34    1.42   4
   5   1 -16    6.48    1.65   3
  -5   1  16    5.50    1.47   4
   5  -1 -16    6.13    1.60   3
  -4   1  16   16.01    1.74   4
   4  -1 -16   12.85    1.70   3
   4   1 -16   15.60    1.71   3
   4   1 -16   15.94    1.62   2
  -4  -1  16   17.08    1.80   4
  -3  -1  16   21.51    1.74   4
   3   1 -16   24.70    1.79   3
  -3   1  16   23.57    1.79   4
   3  -1 -16   26.15    1.89   3
   3   1 -16   21.86    1.63   2
   2   1 -16    1.82    0.94   2
  -2  -1  16    5.20    1.06   4
   2  -1 -16    4.90    1.10   3
  -2   1  16    2.93    0.76   1
  -2   1  16    3.05    0.95   4
   2   1 -16    2.81    0.95   3
   1   1 -16   43.14    2.49   2
   1  -1 -16   48.40    1.84   2
   1  -1 -16   43.65    2.19   3
  -1  -1  16   44.87    2.12   4
  -1   1  16   45.51    2.09   4
  -1  -1  16   47.38    1.61   1
  -1   1  16   42.70    1.81   1
   1   1 -16   47.28    1.99   3
   0   1  16   16.41    1.26   1
   0   1 -16   14.50    1.29   2
   0   1 -16   15.74    1.15   3
   0  -1  16   17.00    1.34   4
   0   1  16   15.08    1.21   4
   0  -1 -16   14.48    1.14   2
   0  -1 -16   12.38    1.26   3
   0  -1  16   16.31    1.15   1
   1   1  16    0.37    0.72   1
  -1   1 -16    0.26    0.74   2
  -1   1 -16   -0.92    0.64   3
   1  -1  16    0.29    0.69   1
  -1  -1 -16   -0.15    0.68   2
  -1  -1 -16    2.02    0.83   3
   1   1  16    0.42    0.64   4
   1  -1  16    0.78    0.71   4
   2  -1  16   21.94    1.45   4
  -2  -1 -16   20.82    1.50   2
  -2   1 -16   22.91    1.63   2
  -2  -1 -16   23.24    1.55   3
   2  -1  16   22.98    1.52   1
   2   1  16   20.42    1.50   1
  -3  -1 -16    0.45    0.90   2
   3  -1  16    0.14    0.89   1
   3   1  16   -0.03    0.86   1
  -3   1 -16    0.42    0.95   2
  -3  -1 -16    0.20    0.87   3
   4   1  16   -1.67    0.97   1
   4  -1  16   -0.13    1.03   1
  -4   1 -16   -1.32    0.95   2
  -4  -1 -16   -0.28    0.94   3
  -4  -1 -16   -1.24    0.98   2
  -5  -1 -16    1.44    1.31   2
   5  -1  16    2.51    1.29   1
  -5   1 -16   -0.01    1.27   2
   5   1  16    1.15    1.24   1
  -6  -1 -16    1.35    1.54   2
  -6   1 -16    1.28    1.53   2
   6   1  16    0.29    1.51   1
   6  -1  16   -0.04    1.48   1
  -6  -2  16   11.78    1.92   4
   6   2 -16   10.65    2.04   3
  -6   2  16    8.65    1.84   4
   6  -2 -16    6.98    2.03   3
   5   2 -16    1.60    1.39   2
   5   2 -16    2.96    1.47   3
  -5  -2  16    1.43    1.32   4
  -5   2  16    4.78    1.53   4
   5  -2 -16    0.93    1.37   3
  -4   2  16    9.91    1.54   4
   4   2 -16    7.63    1.48   2
  -4  -2  16   10.07    1.53   4
   4   2 -16   11.30    1.53   3
   4  -2 -16    8.99    1.60   3
  -3   2  16   21.40    1.81   4
   3   2 -16   24.78    1.82   2
  -3  -2  16   22.63    1.84   4
   3   2 -16   22.78    1.75   3
   3  -2 -16   21.43    1.87   3
  -2   2  16    0.84    0.88   4
  -2   2  16    0.40    0.74   1
  -2  -2  16    1.86    0.90   4
   2   2 -16    2.51    0.97   2
   2  -2 -16    1.98    0.98   3
   2   2 -16    0.42    0.83   3
   1  -2 -16    7.20    1.19   3
  -1  -2  16    7.20    1.16   4
  -1   2  16    8.78    1.14   4
   1   2 -16    8.50    1.00   3
   1   2 -16    6.40    1.09   2
  -1   2  16    8.75    1.05   1
   0   2 -16   14.79    1.10   3
   0  -2  16   15.74    1.10   1
   0   2  16   15.48    1.32   1
   0   2 -16   16.03    1.44   2
   0  -2  16   17.06    1.46   4
   0   2  16   15.46    1.26   4
   0  -2 -16   15.32    1.39   3
  -1  -2 -16   14.21    1.38   3
   1   2  16   14.53    1.31   1
  -1  -2 -16   13.44    1.10   2
   1  -2  16   15.69    1.37   4
  -1   2 -16    8.09    1.19   2
   1  -2  16   13.81    1.17   1
  -2  -2 -16    3.73    1.01   3
   2  -2  16    2.83    0.96   4
  -2  -2 -16    5.19    0.99   2
   2  -2  16    4.65    0.98   1
   2   2  16    3.85    0.99   1
  -2   2 -16    4.12    1.08   2
  -3   2 -16   40.92    2.33   2
   3  -2  16   40.85    2.16   1
   3   2  16   36.03    2.11   1
  -3  -2 -16   39.86    2.15   2
  -3  -2 -16   40.16    2.19   3
  -4   2 -16   34.58    2.23   2
  -4  -2 -16   35.20    2.32   2
   4   2  16   34.47    2.18   1
  -4  -2 -16   31.12    2.15   3
   4  -2  16   30.40    2.09   1
  -5  -2 -16    3.31    1.40   3
   5  -2  16    1.32    1.24   1
   5   2  16    1.90    1.34   1
  -5  -2 -16    0.20    1.31   2
  -5   2 -16    4.19    1.49   2
  -6   2 -16    2.33    1.59   2
   6  -2  16    2.92    1.64   1
   6   2  16    5.54    1.60   1
  -6  -2 -16    2.83    1.59   2
  -5   3  16   -0.69    1.34   4
  -5  -3  16    0.82    1.43   3
   5  -3 -16   -2.16    1.38   3
  -5  -3  16   -0.13    1.32   4
   5   3 -16   -3.17    1.30   2
  -4   3  16    1.21    1.21   4
  -4  -3  16    1.15    1.24   4
  -4  -3  16    1.65    1.24   3
   4  -3 -16    3.39    1.41   3
   4   3 -16    1.44    1.26   2
  -3   3  16   16.56    1.74   4
  -3  -3  16   17.28    1.87   4
  -3   3  16   17.22    1.43   1
   3   3 -16   21.72    1.85   2
   3  -3 -16   20.26    1.84   3
  -2  -3  16   10.32    1.43   4
  -2   3  16   12.92    1.28   1
   2  -3 -16    9.56    1.41   3
   2   3 -16   11.08    1.27   3
  -2   3  16   11.58    1.39   4
   2   3 -16    8.61    1.33   2
   1   3 -16    4.10    0.86   3
   1   3 -16    2.85    1.11   2
  -1   3  16    3.00    1.00   4
  -1  -3  16    2.61    0.97   4
  -1   3  16    2.51    0.94   1
   1  -3 -16    4.23    1.13   3
   0   3  16   20.93    1.57   1
   0  -3  16   19.48    1.29   1
   0   3 -16   20.45    1.67   2
   0   3  16   20.49    1.44   4
   0  -3  16   17.43    1.61   4
   0  -3 -16   19.29    1.63   3
  -1   3 -16   51.12    2.35   2
   1  -3  16   52.17    2.05   1
   1  -3  16   46.33    2.16   5
  -1  -3 -16   56.55    2.45   3
   1  -3  16   51.71    2.39   4
   1   3  16   50.47    2.37   1
  -2   3 -16    2.87    1.08   2
   2   3  16    3.36    1.08   1
   2  -3  16    4.84    1.02   1
   2  -3  16    3.18    1.06   5
  -2  -3 -16    2.46    1.06   3
  -2  -3 -16    3.57    0.95   2
   2  -3  16    3.12    1.10   4
  -3  -3 -16    0.51    0.93   2
  -3   3 -16    1.48    1.11   2
   3   3  16    0.00    1.04   1
   3  -3  16    1.22    1.10   5
   3  -3  16    1.23    1.02   1
   3  -3  16    1.41    1.04   4
  -3  -3 -16    1.75    1.10   3
   4  -3  16    1.38    1.27   5
  -4  -3 -16   -0.44    1.12   2
   4  -3  16   -0.63    1.05   1
   4   3  16    0.00    1.10   1
  -4   3 -16    1.77    1.15   2
  -4  -3 -16    0.78    1.11   3
   5  -3  16   -0.14    1.41   5
   5  -3  16   -1.29    1.26   1
  -5  -3 -16   -0.40    1.38   3
  -5  -3 -16    1.39    1.41   2
  -5   3 -16   -0.60    1.40   2
   5   3  16    0.31    1.29   1
   5  -4 -16    3.64    1.67   3
  -5   4  16    1.91    1.48   4
  -5  -4  16    2.73    1.53   4
   5   4 -16    1.16    1.56   2
  -5  -4  16    2.44    1.64   3
  -4  -4  16    2.46    1.43   4
   4   4 -16    1.72    1.46   2
  -4  -4  16    1.93    1.41   3
   4  -4 -16    1.89    1.44   3
  -4   4  16    3.61    1.44   4
   3   4 -16    0.18    1.14   2
  -3  -4  16   -0.26    1.30   4
  -3   4  16    0.11    1.08   4
   3  -4 -16    1.79    1.25   3
  -3   4  16    1.54    1.07   1
  -2  -4  16    2.00    1.12   4
  -2   4  16    1.60    0.98   1
  -2   4  16   -0.69    0.96   4
   2   4 -16    0.46    1.03   2
   2  -4 -16    0.95    1.08   3
   1   4 -16   35.11    2.19   2
  -1  -4  16   35.40    2.22   4
   1  -4 -16   36.90    2.28   3
  -1   4  16   36.66    2.05   4
  -1   4  16   37.40    2.09   1
   0  -4 -16    1.39    1.08   3
   0   4  16    1.16    0.99   1
   0  -4  16    1.32    1.03   4
   0   4 -16    2.49    1.12   2
  -1   4 -16   12.55    1.49   2
  -1  -4 -16   13.15    1.54   3
   1  -4  16   10.46    1.41   5
   1  -4  16   12.29    1.25   1
   1   4  16   12.49    1.47   1
   1  -4  16    9.97    1.46   4
  -2   4 -16    5.27    1.27   2
  -2  -4 -16    5.35    1.31   3
   2  -4  16    5.42    1.31   5
   2   4  16    5.65    1.26   1
   2  -4  16    6.31    1.17   1
   2  -4  16    7.05    1.35   4
   3   4  16    0.69    1.18   1
   3  -4  16    1.34    1.18   4
   3  -4  16    2.54    1.23   5
   3  -4  16    1.57    1.03   1
  -3   4 -16    3.45    1.26   2
  -3  -4 -16    2.89    1.30   3
   4   4  16    1.96    1.28   1
  -4   4 -16    2.69    1.24   2
   4  -4  16    2.82    1.46   5
  -4  -4 -16    1.87    1.31   2
   4  -4  16    2.44    1.33   1
  -4  -4 -16    2.50    1.39   3
  -5  -4 -16    6.69    1.79   3
  -5   4 -16    8.12    1.70   2
  -5  -4 -16    6.84    1.75   2
   5  -4  16    6.82    1.72   1
   5  -4  16    4.13    1.66   5
   5   4  16    4.69    1.67   1
  -4   5  16   13.59    1.78   1
  -4   5  16   15.60    2.18   4
   4  -5 -16   19.00    2.22   3
   4   5 -16   14.79    2.07   2
  -4  -5  16   21.52    2.39   4
  -3  -5  16    4.28    1.45   4
  -3   5  16    3.18    1.46   4
   3  -5 -16    5.42    1.55   3
  -3   5  16    2.33    1.28   1
   3   5 -16    4.47    1.54   2
  -2   5  16    0.31    1.13   4
  -2  -5  16    0.82    1.18   4
  -2   5  16    2.12    1.17   1
   2  -5 -16    1.14    1.24   3
   2   5 -16    1.04    1.16   2
  -1  -5  16    8.00    1.46   4
   1   5 -16   10.74    1.58   2
  -1   5  16    7.67    1.27   4
  -1   5  16    6.45    1.37   1
   1  -5 -16   10.71    1.65   3
   0   5 -16    4.87    1.31   2
   0  -5 -16    2.00    1.29   3
   0   5  16    5.27    1.29   1
   0  -5  16    2.47    1.22   4
   1  -5  16   13.19    1.63   4
  -1   5 -16   12.16    1.62   2
  -1  -5 -16   16.49    1.85   3
   1   5  16   15.56    1.73   1
  -2   5 -16    8.80    1.41   1
   2  -5  16   10.75    1.60   4
   2   5  16   10.91    1.54   1
  -2  -5 -16    9.85    1.68   3
  -2   5 -16    8.90    1.51   2
   3  -5  16   -0.74    1.16   1
  -3  -5 -16   -1.25    1.34   3
   3   5  16    0.58    1.20   1
  -3   5 -16    0.19    1.25   2
   3  -5  16   -1.11    1.18   4
   3  -5  16   -0.23    1.31   5
   4  -5  16    0.75    1.45   4
   4  -5  16    1.66    1.30   1
  -4   5 -16    1.40    1.36   2
   4   5  16    1.81    1.38   1
   4  -5  16    2.48    1.62   5
  -4  -5 -16    3.96    1.60   3
  -3  -6  16    4.24    1.59   4
   3  -6 -16    3.27    1.73   3
   3   6 -16    1.68    1.52   2
  -3   6  16    2.41    1.50   1
  -3   6  16    1.82    1.49   4
   2  -6 -16    0.65    1.46   3
   2   6 -16    1.99    1.49   2
  -2  -6  16    0.73    1.33   4
  -2   6  16   -0.06    1.24   4
  -2   6  16   -0.26    1.26   1
  -1   6  16   -0.72    1.16   1
  -1  -6  16    3.49    1.40   4
   1   6 -16   -0.54    1.14   2
   1  -6 -16    1.30    1.43   3
   0  -6 -16   12.49    1.88   3
   0  -6  16   11.60    1.80   4
   0   6 -16   10.86    1.68   2
   0   6  16   12.78    1.76   1
  -1  -6 -16    7.29    1.75   3
   1   6  16   11.06    1.75   1
   1  -6  16    6.61    1.58   4
  -1   6 -16    8.04    1.62   2
   2  -6  16    1.16    1.38   4
  -2   6 -16   -0.87    1.26   1
  -2  -6 -16    1.80    1.55   3
  -2   6 -16   -0.09    1.36   2
   2   6  16    0.12    1.25   1
  -3  -6 -16   -0.99    1.62   3
   3   6  16    0.85    1.39   1
   3  -6  16    0.83    1.43   4
  -3   6 -16    0.66    1.40   1
  -3   6 -16    1.84    1.53   2
   2  -7 -16   -1.76    1.61   3
   1  -7 -16    0.01    1.57   3
  -1  -7  16    0.44    1.52   4
   1   7 -16    0.48    1.44   2
  -1   7  16    0.14    1.40   1
   0   7  16    2.28    1.49   1
   0   7 -16    2.43    1.62   2
   0  -7 -16    4.21    1.74   3
   0  -7  16    3.98    1.63   4
  -1   7 -16    8.45    1.84   2
   1  -7  16    4.37    1.67   4
   1   7  16    1.49    1.54   1
  -1  -7 -16    6.33    1.86   3
  -6   0  17   -0.34    1.55   4
   6   0 -17   -0.18    1.79   3
  -5   0  17    1.72    1.33   4
   5   0 -17    0.30    1.44   3
   4   0 -17   -0.30    1.15   3
  -4   0  17    0.48    1.03   4
   3   0 -17    1.47    1.03   3
  -3   0  17    1.04    0.93   4
   2   0 -17    0.18    0.77   2
  -2   0  17    0.55    0.84   4
   2   0 -17    1.39    0.88   3
  -1   0  17    1.67    0.73   1
   1   0 -17    1.10    0.83   2
   1   0 -17    2.50    0.93   3
  -1   0  17    2.43    0.99   4
   0   0 -17   -0.22    0.81   3
   0   0 -17    0.86    0.77   2
   0   0  17    0.28    0.69   1
   0   0  17    0.22    0.75   4
   1   0  17   -0.29    0.68   4
  -1   0 -17   -0.05    0.77   3
  -1   0 -17   -0.15    0.75   2
   1   0  17   -0.17    0.72   1
   2   0  17    0.90    0.85   1
  -2   0 -17   -0.19    0.81   2
  -2   0 -17    1.10    0.77   3
   3   0  17   -0.36    0.91   1
  -3   0 -17    1.56    0.99   2
   4   0  17    0.21    1.01   1
  -4   0 -17   -1.53    1.11   2
  -5   0 -17   -0.60    1.26   2
   5   0  17    0.38    1.31   1
   6   0  17   -0.15    1.46   1
  -6   0 -17   -1.51    1.56   2
   6   1 -17    1.53    1.97   3
   6  -1 -17    0.18    1.91   3
  -6   1  17    3.74    1.72   4
  -6  -1  17    0.75    1.54   4
   5  -1 -17    2.65    1.55   3
  -5   1  17    2.71    1.49   4
   5   1 -17    2.48    1.50   3
  -5  -1  17    2.91    1.39   4
   4   1 -17    1.68    1.26   3
   4  -1 -17    3.24    1.30   3
  -4  -1  17    4.78    1.30   4
  -4   1  17    3.39    1.25   4
   4   1 -17    1.67    1.14   2
   3   1 -17    1.87    1.10   3
  -3   1  17    2.72    1.03   4
   3   1 -17    3.67    1.08   2
   3  -1 -17    0.62    1.04   3
  -3  -1  17    4.00    1.13   4
   2   1 -17   19.61    1.56   3
   2  -1 -17   18.77    1.61   3
   2   1 -17   18.19    1.53   2
  -2   1  17   19.83    1.37   1
  -2  -1  17   20.37    1.74   4
  -2   1  17   20.31    1.64   4
  -1  -1  17   19.00    1.53   4
  -1  -1  17   17.59    1.10   1
   1  -1 -17   14.50    1.17   2
   1  -1 -17   17.38    1.52   3
   1   1 -17   17.32    1.42   2
   1   1 -17   15.65    1.34   3
  -1   1  17   16.54    1.48   4
  -1   1  17   16.59    1.28   1
   0  -1  17   18.59    1.43   4
   0  -1 -17   16.77    1.45   3
   0   1  17   16.64    1.33   4
   0   1  17   15.89    1.31   1
   0  -1  17   15.74    1.19   1
   0   1 -17   18.55    1.28   3
   0   1 -17   16.92    1.42   2
   0  -1 -17   15.35    1.23   2
  -1  -1 -17    2.68    0.94   3
  -1   1 -17    2.67    0.80   3
   1  -1  17    2.21    0.86   4
   1   1  17    2.17    0.77   4
  -1   1 -17    1.93    0.89   2
   1  -1  17    2.34    0.81   1
   1   1  17    2.15    0.87   1
  -1  -1 -17    2.74    0.86   2
   2   1  17   24.85    1.71   1
  -2  -1 -17   23.63    1.64   2
  -2  -1 -17   29.98    1.81   3
  -2   1 -17   27.97    1.85   2
   2  -1  17   23.71    1.64   4
   2  -1  17   24.84    1.62   1
   3  -1  17   57.30    2.51   1
  -3  -1 -17   61.25    2.51   3
   3   1  17   62.70    2.59   1
  -3  -1 -17   59.94    2.64   2
  -3   1 -17   59.73    2.66   2
  -4  -1 -17   57.31    2.77   2
  -4   1 -17   49.52    2.67   2
  -4  -1 -17   60.82    2.57   3
   4  -1  17   55.79    2.63   1
   4   1  17   55.57    2.67   1
  -5  -1 -17   -1.28    1.23   2
  -5   1 -17    0.93    1.40   2
   5   1  17    1.40    1.34   1
   5  -1  17    0.63    1.29   1
   5   2 -17   45.53    2.81   2
   5  -2 -17   50.51    3.02   3
  -5   2  17   50.76    2.94   4
   5   2 -17   53.26    2.98   3
  -5  -2  17   48.73    2.81   4
   4  -2 -17   11.77    1.70   3
   4   2 -17    7.80    1.55   3
   4   2 -17    9.12    1.51   2
  -4   2  17   10.27    1.57   4
  -4  -2  17    8.57    1.53   4
  -3  -2  17   -0.47    0.98   4
   3   2 -17    1.37    1.07   3
  -3   2  17    1.43    1.02   4
   3  -2 -17    0.09    1.02   3
   3   2 -17   -0.83    1.05   2
  -2  -2  17   20.81    1.76   4
  -2   2  17   21.72    1.75   4
   2  -2 -17   23.08    1.83   3
   2   2 -17   21.62    1.71   2
  -2   2  17   21.23    1.44   1
   2   2 -17   23.88    1.65   3
  -1  -2  17   21.48    1.71   4
   1   2 -17   21.93    1.65   2
  -1   2  17   20.60    1.60   4
   1   2 -17   20.54    1.42   3
   1  -2 -17   21.46    1.69   3
  -1   2  17   20.07    1.44   1
   0   2  17   45.71    2.00   4
   0   2 -17   44.12    1.87   3
   0  -2  17   43.67    1.74   1
   0  -2 -17   43.03    2.17   3
   0   2 -17   47.29    2.23   2
   0  -2  17   47.04    2.17   4
   0   2  17   46.14    2.18   1
  -1  -2 -17   17.36    1.52   3
   1  -2  17   21.33    1.42   1
   1  -2  17   18.91    1.53   4
  -1   2 -17   19.47    1.63   2
  -1  -2 -17   16.42    1.25   2
   1   2  17   19.11    1.53   1
  -2   2 -17    0.92    0.92   2
  -2  -2 -17    2.18    0.90   2
   2  -2  17    2.86    0.95   1
  -2  -2 -17    3.61    1.05   3
   2   2  17    1.93    0.92   1
   2  -2  17    3.02    0.99   4
  -3  -2 -17   22.50    1.75   2
  -3   2 -17   21.29    1.83   2
   3   2  17   23.77    1.83   1
   3  -2  17   22.39    1.74   1
  -3  -2 -17   22.43    1.77   3
   4   2  17   20.71    1.92   1
  -4  -2 -17   20.33    1.93   2
   4  -2  17   21.55    1.88   1
  -4  -2 -17   24.51    1.90   3
  -4   2 -17   18.74    1.83   2
  -5  -2 -17    2.89    1.41   3
  -5   2 -17    1.63    1.46   2
   5  -2  17    2.39    1.42   1
   5   2  17    1.91    1.36   1
  -5  -2 -17    1.18    1.39   2
  -5   3  17    2.96    1.53   4
   5   3 -17   -0.36    1.54   2
  -5  -3  17    2.75    1.51   4
   5  -3 -17    0.15    1.55   3
   4   3 -17    0.89    1.32   3
   4  -3 -17   -0.96    1.19   3
   4   3 -17    0.03    1.18   2
  -4  -3  17   -1.03    1.24   4
  -4   3  17   -1.71    1.15   4
  -3   3  17   -0.15    1.03   4
   3  -3 -17    0.71    1.20   3
  -3  -3  17   -0.89    1.07   4
   3   3 -17    1.10    1.07   3
   3   3 -17    0.51    1.08   2
  -3   3  17    1.32    0.89   1
   2   3 -17   17.70    1.68   2
  -2   3  17   14.54    1.60   4
  -2   3  17   15.61    1.43   1
  -2  -3  17   14.03    1.60   4
   2   3 -17   18.52    1.49   3
   2  -3 -17   17.46    1.75   3
  -1  -3  17    3.45    1.09   4
   1   3 -17    6.79    1.23   2
   1  -3 -17    4.72    1.20   3
  -1   3  17    4.52    1.06   4
  -1   3  17    4.82    1.06   1
   0  -3  17    2.19    0.78   1
   0   3 -17    1.11    0.97   2
   0   3  17    0.82    0.86   1
   0  -3 -17    1.24    0.96   3
   0  -3  17    0.77    0.93   4
  -1  -3 -17   -1.00    0.92   3
  -1   3 -17    0.60    0.89   2
   1  -3  17    0.80    0.91   4
   1   3  17    0.43    0.98   1
   1  -3  17    0.30    0.81   1
  -2   3 -17   -0.70    0.93   2
   2   3  17    0.17    0.93   1
   2  -3  17    1.97    0.93   1
   2  -3  17    1.58    1.07   4
  -2  -3 -17   -0.62    0.99   3
   2  -3  17    2.37    1.04   5
  -3   3 -17    7.43    1.37   2
  -3  -3 -17    6.44    1.24   2
   3  -3  17    6.63    1.25   1
   3   3  17    7.60    1.38   1
   3  -3  17    4.89    1.32   5
  -3  -3 -17    6.55    1.35   3
   3  -3  17    8.39    1.44   4
   4  -3  17    2.88    1.46   5
   4   3  17    1.71    1.25   1
  -4   3 -17    3.62    1.26   2
  -4  -3 -17    2.94    1.35   3
   4  -3  17    2.42    1.31   1
  -4  -3 -17    2.56    1.32   2
   5   3  17    3.77    1.53   1
   5  -3  17    0.21    1.39   1
  -5  -3 -17    0.21    1.42   2
  -5   3 -17    0.53    1.54   2
  -5  -3 -17    1.69    1.50   3
   5  -4 -17    4.14    1.76   3
  -5  -4  17    5.80    1.82   3
   5   4 -17    1.55    1.64   2
  -5  -4  17    3.95    1.61   4
  -5   4  17    3.12    1.69   4
  -4  -4  17   14.65    1.91   3
  -4  -4  17   16.54    1.98   4
   4   4 -17   15.25    1.98   2
   4  -4 -17   14.62    2.07   3
  -4   4  17   12.52    1.98   4
  -3   4  17    1.12    1.24   4
  -3  -4  17    3.91    1.43   4
   3  -4 -17    3.08    1.48   3
  -3   4  17    2.70    1.17   1
   3   4 -17    2.51    1.36   2
  -2  -4  17    3.04    1.20   4
  -2   4  17    1.90    1.14   4
   2   4 -17    0.57    1.14   2
   2  -4 -17    3.03    1.24   3
  -2   4  17    2.58    1.09   1
  -1   4  17    0.77    1.07   1
   1   4 -17    0.61    1.05   2
  -1   4  17    0.94    0.98   4
  -1  -4  17    1.10    1.03   4
   1  -4 -17   -1.49    1.01   3
   0  -4 -17    0.93    1.09   3
   0  -4  17    2.26    1.08   4
   0   4 -17    3.50    1.23   2
   0   4  17    1.82    1.05   1
   1  -4  17    1.48    0.93   1
   1  -4  17    2.09    1.01   5
   1  -4  17    1.23    1.04   4
  -1  -4 -17    2.15    1.20   3
  -1   4 -17    1.31    1.01   2
   1   4  17    2.86    1.14   1
   2   4  17    1.50    1.12   1
   2  -4  17    0.17    1.09   5
  -2   4 -17    2.87    1.14   2
  -2  -4 -17    1.83    1.17   3
   2  -4  17    0.81    1.13   4
   2  -4  17    1.31    1.02   1
   3   4  17    1.07    1.23   1
  -3   4 -17   -0.30    1.12   2
   3  -4  17   -0.15    1.13   4
   3  -4  17    0.45    1.18   5
  -3  -4 -17    1.47    1.28   3
   3  -4  17    2.16    1.12   1
   4   4  17    4.15    1.44   1
   4  -4  17    2.26    1.44   5
  -4   4 -17    3.80    1.44   2
   4  -4  17    4.99    1.47   1
  -4  -4 -17    4.63    1.52   3
   4   5 -17    0.58    1.54   2
  -4  -5  17    1.12    1.66   4
   4  -5 -17   -2.61    1.47   3
  -4   5  17   -0.27    1.45   4
  -3   5  17    5.34    1.43   1
  -3  -5  17    4.29    1.50   4
   3  -5 -17    5.12    1.66   3
  -3   5  17    6.27    1.63   4
   3   5 -17    1.96    1.48   2
   2   5 -17    1.56    1.30   2
  -2   5  17    3.10    1.23   1
  -2  -5  17   -1.20    1.13   4
   2  -5 -17    2.15    1.40   3
  -2   5  17    4.17    1.32   4
  -1   5  17   -0.34    1.04   1
   1  -5 -17   -0.27    1.30   3
  -1  -5  17    0.55    1.19   4
   1   5 -17    0.44    1.14   2
   0   5 -17   -0.23    1.15   2
   0  -5 -17    0.18    1.31   3
   0   5  17    0.61    1.11   1
   0  -5  17   -0.28    1.15   4
   1  -5  17    2.09    1.02   1
  -1   5 -17    0.67    1.13   2
   1  -5  17    0.57    1.15   5
  -1  -5 -17    0.04    1.29   3
   1   5  17    0.74    1.11   1
   1  -5  17    0.44    1.16   4
   2   5  17    1.76    1.21   1
  -2   5 -17    1.02    1.29   2
   2  -5  17    3.01    1.30   4
   2  -5  17    0.80    1.29   5
   2  -5  17    1.90    1.14   1
  -2  -5 -17   -0.46    1.31   3
   3  -5  17    1.99    1.35   4
  -3  -5 -17    3.27    1.68   3
   3  -5  17    1.78    1.32   1
   3   5  17    3.05    1.34   1
  -3   5 -17    2.60    1.40   2
   3  -5  17    0.11    1.45   5
   4   5  17    0.92    1.43   1
   4  -5  17    2.41    1.40   1
   4  -5  17    2.05    1.58   5
  -4   5 -17    1.54    1.43   2
  -4  -5 -17    1.04    1.57   3
   3  -6 -17    3.90    1.80   3
  -3   6  17    3.20    1.62   1
  -3   6  17    4.67    1.68   4
  -3  -6  17    2.11    1.64   4
   3   6 -17    1.70    1.55   2
   2  -6 -17    1.86    1.60   3
  -2   6  17    1.02    1.41   4
  -2   6  17   -0.17    1.33   1
   2   6 -17    1.31    1.40   2
  -2  -6  17   -0.71    1.34   4
  -1   6  17    0.56    1.26   1
   1   6 -17    0.66    1.30   2
  -1  -6  17    0.10    1.31   4
   1  -6 -17   -0.34    1.45   3
   0  -6 -17   14.22    2.10   3
   0  -6  17   13.56    1.91   4
   0   6 -17    8.11    1.78   2
   0   6  17    8.85    1.79   1
  -1  -6 -17   10.19    1.89   3
  -1   6 -17    7.03    1.67   2
   1   6  17    5.57    1.62   1
   1  -6  17    6.76    1.69   4
  -2   6 -17   -0.02    1.43   2
   2   6  17    2.24    1.40   1
   2  -6  17    0.16    1.36   4
  -2  -6 -17    0.99    1.60   3
   3  -6  17    0.69    1.43   1
   3   6  17   -1.97    1.35   1
   3  -6  17   -0.88    1.45   4
  -3   6 -17    1.64    1.57   2
   3  -6  17    1.25    1.61   5
  -3  -6 -17    1.94    1.80   3
   1   7 -17    1.02    1.50   2
   1  -7 -17    1.88    1.76   3
  -1   7  17   -1.13    1.48   1
  -1  -7  17    1.71    1.59   4
   0  -7  17    6.68    1.79   4
   0   7 -17    4.49    1.90   2
   0  -7 -17    4.49    1.87   3
   0   7  17    8.40    1.77   1
  -1   7 -17   12.43    2.03   2
  -1  -7 -17   10.53    2.15   3
   1   7  17   11.97    1.96   1
   1  -7  17   11.15    1.96   4
   5   0 -18   19.99    2.27   3
  -5   0  18   19.84    2.11   4
  -4   0  18   34.12    2.31   4
   4   0 -18   33.15    2.37   3
  -3   0  18    8.77    1.40   4
   3   0 -18    8.02    1.35   3
   2   0 -18   15.07    1.37   2
  -2   0  18   14.21    1.53   4
   2   0 -18   16.11    1.51   3
  -1   0  18  102.58    3.16   1
   1   0 -18   97.91    3.02   2
  -1   0  18   99.69    3.31   4
   1   0 -18   95.70    3.17   3
   0   0  18  140.15    3.58   1
   0   0 -18  143.27    3.87   2
   0   0 -18  141.37    3.86   3
   0   0  18  137.79    3.91   4
  -1   0 -18   -0.72    0.83   3
   1   0  18   -0.16    0.79   4
  -1   0 -18   -0.48    0.78   2
   1   0  18    1.24    0.81   1
  -2   0 -18    1.88    0.82   3
   2   0  18    1.79    0.95   1
  -2   0 -18    2.18    1.01   2
  -3   0 -18    0.24    0.98   2
   3   0  18   -1.31    0.93   1
  -4   0 -18    4.08    1.38   2
   4   0  18    5.94    1.42   1
  -5   0 -18   -0.51    1.36   2
   5   0  18   -1.62    1.22   1
   5   1 -18    3.12    1.64   3
  -5   1  18    1.30    1.45   4
   5  -1 -18    3.09    1.64   3
  -5  -1  18    4.39    1.49   4
   4   1 -18    1.01    1.34   3
  -4  -1  18    1.60    1.21   4
   4  -1 -18   -0.53    1.21   3
  -4   1  18    0.28    1.10   4
  -3  -1  18    6.14    1.31   4
  -3   1  18    7.68    1.34   4
   3   1 -18    6.76    1.36   3
   3  -1 -18    5.02    1.35   3
   3   1 -18    7.04    1.25   2
   2  -1 -18   30.88    2.02   3
  -2  -1  18   27.87    1.95   4
   2   1 -18   30.63    1.92   3
  -2   1  18   31.41    1.99   4
   2   1 -18   29.72    1.87   2
   1   1 -18  179.14    4.72   2
  -1   1  18  190.16    4.39   1
  -1   1  18  183.00    4.84   4
   1   1 -18  180.58    4.63   3
  -1  -1  18  180.70    4.92   4
   0  -1  18   77.43    2.44   1
   0   1  18   79.23    2.72   4
   0  -1 -18   80.92    2.85   3
   0   1 -18   78.07    2.80   2
   0  -1  18   78.89    2.83   4
   0   1  18   78.80    2.62   1
   0  -1 -18   75.92    2.57   2
   0   1 -18   76.64    2.62   3
   1   1  18    9.51    1.19   1
  -1  -1 -18   12.03    1.30   3
  -1   1 -18   11.18    1.35   2
  -1  -1 -18   12.25    1.25   2
   1  -1  18   10.61    1.23   4
   1  -1  18   13.59    1.24   1
  -1   1 -18   10.58    1.12   3
   2  -1  18    2.58    0.91   1
  -2  -1 -18    2.67    0.92   2
  -2  -1 -18    1.77    0.93   3
   2   1  18    0.48    0.93   1
  -2   1 -18    0.67    0.99   2
  -3  -1 -18    3.44    1.06   3
  -3  -1 -18    4.45    1.19   2
   3   1  18    4.16    1.23   1
  -3   1 -18    2.09    1.07   2
   3  -1  18    4.99    1.17   1
  -4   1 -18   25.37    2.10   2
  -4  -1 -18   28.68    2.23   2
   4  -1  18   30.60    2.20   1
   4   1  18   25.28    2.06   1
  -5  -1 -18    9.61    1.79   2
  -5   1 -18   12.50    1.90   2
   5  -1  18   13.82    1.82   1
   5   1  18   14.56    1.92   1
   5   2 -18    7.69    1.92   3
   5  -2 -18    9.61    2.02   3
  -5   2  18   10.08    1.83   4
  -5  -2  18    7.89    1.70   4
  -4   2  18    2.64    1.24   4
  -4  -2  18    3.51    1.29   4
   4  -2 -18    1.50    1.37   3
   4   2 -18    1.40    1.33   3
   4   2 -18    2.14    1.28   2
   3  -2 -18    0.34    1.12   3
  -3   2  18   -1.26    0.95   4
   3   2 -18   -0.79    1.02   2
   3   2 -18    0.05    1.03   3
  -3  -2  18   -1.23    0.99   4
  -2   2  18    4.32    1.17   4
  -2   2  18    6.41    1.05   1
   2   2 -18    5.31    1.15   3
   2  -2 -18    5.36    1.26   3
  -2  -2  18    7.41    1.36   4
   2   2 -18    6.11    1.22   2
   1   2 -18    4.79    1.22   2
  -1   2  18    5.04    1.01   1
   1   2 -18    1.94    0.91   3
   1  -2 -18    2.16    1.03   3
  -1   2  18    3.45    1.07   4
  -1  -2  18    2.81    1.10   4
   0   2 -18    3.92    1.11   2
   0   2  18    4.93    1.02   4
   0   2  18    5.45    1.10   1
   0  -2 -18    4.70    1.18   3
   0  -2  18    4.60    0.88   1
   0  -2  18    4.69    1.10   4
  -1  -2 -18   13.07    1.21   2
  -1  -2 -18   12.59    1.42   3
   1  -2  18   13.87    1.44   4
  -1   2 -18   10.87    1.38   2
   1  -2  18   14.49    1.28   1
   1   2  18   10.81    1.34   1
   2   2  18   12.63    1.42   1
  -2   2 -18   12.93    1.50   2
  -2  -2 -18   12.14    1.35   2
  -2  -2 -18   14.73    1.55   3
   2  -2  18   13.22    1.41   1
   2  -2  18   12.61    1.42   4
  -3  -2 -18    2.54    1.11   2
  -3  -2 -18    2.18    1.07   3
   3   2  18    2.29    1.15   1
   3  -2  18    1.55    1.08   1
  -3   2 -18    0.88    1.09   2
  -4  -2 -18    1.15    1.31   2
   4   2  18    0.94    1.28   1
  -4  -2 -18    3.46    1.30   3
  -4   2 -18    3.74    1.31   2
   4  -2  18    2.35    1.25   1
  -5  -2 -18    1.00    1.41   2
   5  -2  18   -1.92    1.34   1
   5   2  18    0.58    1.33   1
  -5   2 -18   -0.06    1.42   2
   5   3 -18    5.22    1.73   2
  -5  -3  18    4.70    1.67   4
  -5   3  18    2.29    1.60   4
   5   3 -18    6.63    1.81   3
   5  -3 -18    2.01    1.71   3
   4   3 -18   -0.92    1.34   3
   4   3 -18   -0.39    1.29   2
  -4   3  18    0.27    1.24   4
  -4  -3  18   -0.50    1.27   4
   4  -3 -18    0.25    1.46   3
   3   3 -18    1.23    1.13   3
  -3  -3  18    0.23    1.18   4
  -3   3  18    1.95    1.22   4
   3   3 -18    0.80    1.18   2
   3  -3 -18    1.89    1.32   3
   2   3 -18   25.47    1.86   3
  -2  -3  18   28.98    2.23   4
   2  -3 -18   27.44    2.13   3
   2   3 -18   27.32    2.03   2
  -2   3  18   26.20    1.79   1
  -2   3  18   26.69    2.00   4
  -1  -3  18   14.05    1.62   4
  -1   3  18   14.06    1.46   4
   1  -3 -18   15.68    1.63   3
  -1   3  18   16.51    1.52   1
   1   3 -18   15.18    1.60   2
   0   3 -18   22.10    1.83   2
   0  -3  18   23.69    1.86   4
   0  -3 -18   21.78    1.87   3
   0   3  18   19.23    1.66   1
   1   3  18    5.41    1.27   1
   1  -3  18    5.41    1.18   4
  -1   3 -18    4.32    1.17   2
   1  -3  18    4.81    1.01   1
  -1  -3 -18    9.30    1.42   3
  -2  -3 -18    2.87    1.19   3
   2   3  18    2.37    1.08   1
  -2   3 -18    2.17    1.11   2
   2  -3  18    3.23    1.11   4
   2  -3  18    2.46    1.03   1
  -3   3 -18    2.20    1.16   2
   3   3  18    1.70    1.11   1
   3  -3  18    1.85    1.10   1
  -3  -3 -18    1.28    1.18   3
  -3  -3 -18    1.46    1.04   2
  -4  -3 -18    0.24    1.24   2
  -4  -3 -18    3.73    1.37   3
   4   3  18    1.03    1.27   1
  -4   3 -18    2.03    1.24   2
   4  -3  18   -0.79    1.15   1
   5  -3  18    1.96    1.52   1
   5   3  18    2.43    1.49   1
  -5   3 -18    4.74    1.71   2
  -5  -3 -18    1.68    1.59   3
  -5  -3 -18    1.64    1.49   2
   4  -4 -18   10.48    1.91   3
  -4  -4  18   12.64    1.93   4
  -4   4  18    6.74    1.69   4
   4   4 -18   14.32    1.97   3
   4   4 -18    7.32    1.77   2
   3   4 -18   15.23    1.89   2
  -3  -4  18   19.13    2.15   4
  -3   4  18   17.71    1.95   4
   3   4 -18   18.52    1.83   3
   3  -4 -18   13.44    1.95   3
  -3   4  18   15.11    1.65   1
   2   4 -18    8.00    1.50   2
   2  -4 -18    9.90    1.65   3
  -2  -4  18   11.84    1.63   4
  -2   4  18    7.65    1.46   4
  -2   4  18    8.51    1.32   1
   1   4 -18    2.35    1.16   2
   1  -4 -18    1.69    1.21   3
  -1  -4  18   -1.19    1.03   4
  -1   4  18   -0.52    1.04   1
  -1   4  18   -0.74    0.95   4
   0  -4 -18   -0.06    1.16   3
   0   4 -18    0.94    1.13   2
   0   4  18   -0.71    0.97   1
   0  -4  18    0.19    1.05   4
   1  -4  18    2.31    1.12   5
   1   4  18    2.04    1.17   1
  -1   4 -18   -0.66    1.03   2
   1  -4  18    2.34    1.00   1
  -1  -4 -18    3.66    1.30   3
   1  -4  18   -0.20    1.05   4
   2  -4  18   12.49    1.50   1
  -2  -4 -18   13.54    1.75   3
  -2   4 -18    9.79    1.58   2
   2   4  18   14.38    1.72   1
   2  -4  18   15.90    1.77   5
   2  -4  18   16.29    1.81   4
   3  -4  18    1.20    1.35   4
   3  -4  18    0.42    1.16   1
   3  -4  18    1.55    1.33   5
  -3   4 -18    0.72    1.24   2
   3   4  18    1.18    1.29   1
  -3  -4 -18    0.57    1.38   3
  -4   4 -18    2.75    1.36   2
  -4  -4 -18   -0.34    1.42   3
   4   4  18    1.79    1.37   1
   4  -4  18    1.36    1.34   1
   4  -4  18    1.03    1.48   5
  -4   5  18    1.03    1.61   4
   4  -5 -18    2.49    1.72   3
   4   5 -18    2.57    1.61   2
  -4  -5  18    1.72    1.62   4
   3  -5 -18    8.62    1.82   3
  -3   5  18    5.94    1.72   4
   3   5 -18    7.97    1.69   2
  -3   5  18    7.29    1.52   1
  -3  -5  18   11.30    2.24   4
   2  -5 -18   -1.70    1.31   3
  -2   5  18    1.09    1.20   1
  -2  -5  18   -0.42    1.24   4
  -2   5  18    1.02    1.29   4
   2   5 -18    1.18    1.30   2
   1   5 -18    2.25    1.24   2
   1  -5 -18    0.53    1.44   3
  -1   5  18    0.35    1.16   1
  -1  -5  18   -0.11    1.22   4
   0  -5 -18    9.81    1.77   3
   0  -5  18    8.97    1.63   4
   0   5 -18    7.40    1.55   2
   0   5  18   10.95    1.67   1
   1   5  18    4.56    1.33   1
  -1   5 -18    1.05    1.24   2
  -1  -5 -18    3.35    1.47   3
   1  -5  18    2.29    1.39   4
   2  -5  18    3.96    1.26   1
   2   5  18   -1.27    1.19   1
   2  -5  18   -1.38    1.23   5
   2  -5  18    1.52    1.31   4
  -2   5 -18   -1.73    1.23   2
  -2  -5 -18   -1.25    1.35   3
   3  -5  18    1.84    1.44   4
   3  -5  18    0.28    1.28   1
  -3  -5 -18    2.43    1.57   3
   3  -5  18    1.35    1.46   5
   3   5  18    0.81    1.42   1
  -3   5 -18    0.05    1.38   2
   2  -6 -18   10.16    2.12   3
   2   6 -18   12.52    2.00   2
  -2  -6  18   15.98    2.15   4
  -2   6  18   11.72    1.93   1
  -1   6  18    1.12    1.34   1
   1   6 -18    1.63    1.40   2
  -1  -6  18   -1.19    1.37   4
   1  -6 -18    2.35    1.67   3
   0  -6 -18    4.66    1.70   3
   0  -6  18    0.92    1.43   4
   0   6 -18    3.94    1.53   2
   0   6  18    2.23    1.49   1
   1  -6  18    2.14    1.55   4
  -1  -6 -18    3.70    1.75   3
  -1   6 -18    2.22    1.48   2
   1   6  18    1.75    1.49   1
   2  -6  18    2.99    1.67   5
   2  -6  18    4.79    1.64   4
  -2   6 -18    2.77    1.67   2
  -2  -6 -18    4.49    1.85   3
   2  -6  18    9.45    1.55   1
   2   6  18    5.87    1.66   1
  -5   0  19   -0.44    1.36   4
   5   0 -19    1.09    1.62   3
  -4   0  19    1.43    1.26   4
   4   0 -19    1.47    1.35   3
  -3   0  19   -0.18    1.00   4
   3   0 -19    0.01    1.16   3
   2   0 -19    0.58    1.01   3
  -2   0  19    1.69    0.97   4
  -1   0  19   -0.50    0.76   1
   1   0 -19   -0.26    0.92   3
   1   0 -19   -0.47    0.82   2
  -1   0  19   -0.64    0.86   4
   0   0  19    1.08    0.82   1
   0   0 -19    1.00    0.84   2
   0   0 -19    2.68    0.93   3
   0   0  19    0.96    0.92   4
   1   0  19   -0.11    0.81   4
   1   0  19   -0.66    0.78   1
  -1   0 -19   -1.18    0.81   2
  -1   0 -19   -0.23    0.85   3
  -2   0 -19    0.28    0.85   3
  -2   0 -19   -0.12    0.90   2
   2   0  19   -0.09    0.92   1
   3   0  19   -1.06    0.94   1
  -3   0 -19   -0.89    0.93   2
   4   0  19   -0.39    1.11   1
  -4   0 -19   -0.26    1.26   2
  -5   0 -19    0.94    1.55   2
   5   0  19    2.04    1.46   1
   5  -1 -19    8.49    2.06   3
   5   1 -19   10.80    2.01   3
  -5   1  19   11.57    1.97   4
  -5  -1  19    9.97    1.82   4
  -4  -1  19   -0.09    1.24   4
   4  -1 -19    2.77    1.44   3
   4   1 -19    2.12    1.37   3
  -4   1  19   -0.95    1.12   4
  -3  -1  19   21.18    1.87   4
  -3   1  19   17.00    1.74   4
   3   1 -19   15.79    1.74   3
   3   1 -19   17.16    1.66   2
   3  -1 -19   18.23    1.87   3
  -2   1  19   -0.38    0.88   4
   2   1 -19    0.56    0.95   2
   2  -1 -19    0.45    1.03   3
  -2  -1  19   -0.60    0.97   4
   2   1 -19    0.36    0.95   3
  -1  -1  19    9.51    1.31   4
   1   1 -19   10.46    1.29   3
  -1   1  19   10.90    1.34   4
  -1   1  19    8.54    1.14   1
   1   1 -19   12.21    1.37   2
   1  -1 -19   11.05    1.41   3
   0  -1 -19  185.82    4.80   3
   0   1 -19  179.65    4.76   2
   0  -1  19  172.95    4.27   1
   0   1  19  178.00    4.69   4
   0  -1 -19  172.14    4.47   2
   0   1 -19  184.50    4.54   3
   0   1  19  180.95    4.47   1
   0  -1  19  183.50    4.84   4
   1  -1  19   39.45    2.07   4
  -1  -1 -19   43.88    2.10   2
   1  -1  19   43.08    1.97   1
  -1   1 -19   41.21    2.14   2
   1   1  19   44.03    2.05   1
  -1  -1 -19   45.64    2.26   3
  -2  -1 -19    4.31    1.11   2
   2   1  19    5.02    1.15   1
  -2  -1 -19    8.92    1.25   3
  -2   1 -19    4.22    1.16   2
   2  -1  19    4.43    1.07   1
  -3  -1 -19    6.69    1.40   2
   3  -1  19    8.30    1.37   1
  -3   1 -19    7.39    1.36   2
   3   1  19    7.68    1.37   1
  -3  -1 -19    8.70    1.33   3
   4  -1  19   20.57    1.94   1
  -4  -1 -19   18.53    1.96   2
   4   1  19   18.07    1.93   1
  -4   1 -19   14.97    1.81   2
   5  -1  19    8.72    1.72   1
  -5   1 -19   10.05    1.96   2
  -5  -1 -19    8.66    1.77   2
   5   1  19    7.01    1.68   1
  -5  -2  19    3.21    1.57   4
  -5   2  19    3.09    1.60   4
   5  -2 -19    1.25    1.73   3
   5   2 -19    3.78    1.75   3
   4   2 -19    0.79    1.31   2
  -4  -2  19    1.49    1.22   4
  -4   2  19    1.51    1.29   4
   4   2 -19    0.43    1.32   3
   4  -2 -19   -2.93    1.33   3
  -3  -2  19    1.90    1.23   4
   3  -2 -19    0.20    1.25   3
   3   2 -19    0.86    1.16   3
   3   2 -19   -0.07    1.14   2
  -3   2  19    0.64    1.04   4
   2  -2 -19    2.97    1.21   3
  -2   2  19    3.63    1.17   4
   2   2 -19    4.27    1.21   2
   2   2 -19    4.07    1.14   3
  -2   2  19    4.18    1.01   1
  -2  -2  19    3.10    1.15   4
  -1   2  19    2.46    1.01   4
   1   2 -19    1.33    1.06   2
  -1   2  19    2.47    0.99   1
   1  -2 -19    2.76    1.11   3
  -1  -2  19    2.97    1.13   4
   1   2 -19    1.47    0.95   3
   0   2  19    2.72    0.97   4
   0   2  19    1.07    0.96   1
   0  -2 -19    1.58    1.05   3
   0  -2  19    2.39    0.81   1
   0  -2  19    2.58    1.04   4
   0   2 -19    1.29    1.04   2
  -1   2 -19    0.75    0.98   2
   1   2  19    1.14    1.01   1
   1  -2  19    0.98    0.91   4
  -1  -2 -19   -0.45    0.98   3
   1  -2  19    1.02    0.83   1
   2   2  19    4.57    1.19   1
   2  -2  19    5.33    1.17   4
  -2   2 -19    5.60    1.29   2
   2  -2  19    8.26    1.26   1
  -2  -2 -19    7.22    1.31   3
  -2  -2 -19    4.41    1.11   2
   3  -2  19   16.70    1.71   1
  -3  -2 -19   19.23    1.72   3
  -3   2 -19   17.37    1.83   2
   3   2  19   20.26    1.85   1
  -3  -2 -19   16.55    1.73   2
   4   2  19   13.27    1.75   1
  -4  -2 -19   12.80    1.81   2
  -4  -2 -19   17.36    1.76   3
  -4   2 -19   13.80    1.79   2
   4  -2  19   15.02    1.82   1
   5  -2  19    0.39    1.48   1
  -5   2 -19   -0.07    1.53   2
  -5  -2 -19   -1.34    1.36   2
   5   2  19    1.20    1.45   1
   5   3 -19   24.99    2.56   3
   5  -3 -19   20.39    2.52   3
   4   3 -19   25.05    2.27   3
  -4   3  19   23.53    2.28   4
   4   3 -19   21.17    2.21   2
  -4  -3  19   18.63    2.19   4
   4  -3 -19   22.18    2.37   3
  -3   3  19   -0.50    1.14   4
   3   3 -19    0.17    1.15   2
  -3  -3  19    1.62    1.27   4
   3   3 -19    0.40    1.22   3
   3  -3 -19   -0.03    1.25   3
  -2   3  19   18.48    1.81   4
  -2  -3  19   16.19    1.81   4
   2   3 -19   17.22    1.57   3
   2  -3 -19   17.63    1.93   3
   2   3 -19   14.94    1.72   2
  -2   3  19   18.41    1.59   1
  -1   3  19    7.49    1.30   1
  -1  -3  19    7.53    1.39   4
  -1   3  19    7.27    1.28   4
   1   3 -19   10.77    1.67   2
   1  -3 -19   11.26    1.61   3
   0   3  19   14.83    1.53   1
   0   3 -19   13.46    1.57   2
   0  -3  19   15.01    1.62   4
   0  -3 -19   15.52    1.73   3
   1  -3  19    3.08    0.99   1
   1  -3  19    0.87    1.08   4
  -1   3 -19    1.29    1.13   2
   1   3  19    2.67    1.14   1
  -1  -3 -19    1.20    1.08   3
  -2   3 -19    1.02    1.08   2
  -2  -3 -19    1.70    1.20   3
   2  -3  19    1.79    1.00   1
   2   3  19    0.17    1.02   1
   2  -3  19    1.77    1.07   4
   3   3  19    0.42    1.22   1
  -3   3 -19   -1.01    1.16   2
  -3  -3 -19    1.50    1.23   3
   3  -3  19    1.13    1.11   1
  -4   3 -19    0.97    1.28   2
   4  -3  19    2.39    1.33   1
  -4  -3 -19    1.30    1.33   2
   4   3  19    0.82    1.29   1
  -4  -3 -19    0.88    1.35   3
   4  -4 -19   -0.94    1.59   3
  -4   4  19    1.89    1.50   4
  -4  -4  19    0.08    1.46   4
   4   4 -19    4.42    1.71   3
   4   4 -19   -0.22    1.43   2
  -3  -4  19    8.16    1.81   4
   3   4 -19    8.49    1.66   2
  -3   4  19    6.68    1.67   4
   3  -4 -19    6.15    1.75   3
  -2   4  19    0.28    1.16   4
  -2   4  19    2.13    1.12   1
   2  -4 -19   -0.99    1.30   3
   2   4 -19    1.10    1.24   2
  -2  -4  19    0.26    1.20   4
  -1   4  19    0.16    1.12   1
   1   4 -19   -0.02    1.46   2
   1  -4 -19   -0.98    1.19   3
  -1  -4  19    0.38    1.12   4
   0   4 -19    0.50    1.15   2
   0  -4 -19    1.45    1.32   3
   0   4  19    1.44    1.17   1
   0  -4  19   -1.03    1.05   4
   1  -4  19    3.32    1.07   1
  -1  -4 -19    0.97    1.28   3
  -1   4 -19    2.85    1.21   2
   1   4  19    3.06    1.20   1
   1  -4  19    0.99    1.15   4
   2  -4  19    3.45    1.41   4
  -2   4 -19    2.15    1.27   2
   2   4  19    2.53    1.28   1
   2  -4  19    1.66    1.22   5
   2  -4  19    3.21    1.16   1
  -2  -4 -19    1.36    1.36   3
   3  -4  19    0.34    1.43   4
  -3   4 -19    0.12    1.33   2
   3   4  19    1.09    1.40   1
   3  -4  19    0.90    1.26   1
  -3  -4 -19    0.40    1.33   3
   3  -4  19    0.01    1.37   5
  -4   4 -19   -1.82    1.34   2
   4  -4  19    2.66    1.57   5
   4   4  19   -0.68    1.46   1
   4  -4  19    0.67    1.42   1
  -4  -4 -19    1.73    1.52   3
   3  -5 -19    0.97    1.65   3
  -3   5  19    3.26    1.54   4
  -3  -5  19    1.26    1.77   4
  -3   5  19    2.23    1.47   1
   3   5 -19    4.06    1.55   2
  -2  -5  19   -1.52    1.27   4
  -2   5  19   -0.36    1.30   4
   2   5 -19    0.74    1.38   2
  -2   5  19    0.38    1.21   1
   2  -5 -19    0.46    1.46   3
  -1  -5  19    0.05    1.34   4
   1   5 -19    0.68    1.51   2
  -1   5  19   -0.59    1.23   1
   1  -5 -19   -0.63    1.48   3
   0  -5 -19    0.18    1.46   3
   0   5 -19    0.81    1.36   2
   0   5  19    3.20    1.43   1
   0  -5  19    2.31    1.30   4
   1  -5  19    4.86    1.54   4
  -1  -5 -19    6.77    1.66   3
  -1   5 -19    5.66    1.52   2
   1   5  19    6.24    1.53   1
   2   5  19    4.39    1.49   1
  -2  -5 -19    4.25    1.67   3
   2  -5  19    3.29    1.61   4
   2  -5  19    4.61    1.45   1
  -2   5 -19    3.27    1.51   2
   2  -5  19    4.31    1.55   5
   3  -5  19    3.80    1.58   4
   3   5  19    3.86    1.56   1
   3  -5  19    2.98    1.48   1
  -3   5 -19    1.33    1.47   2
   3  -5  19   -1.16    1.45   5
  -3  -5 -19    3.47    1.75   3
   2   6 -19   38.15    2.90   2
  -2  -6  19   42.26    3.05   4
  -2   6  19   36.63    2.68   1
   2  -6 -19   36.41    3.07   3
   1   6 -19    5.36    1.76   2
  -1  -6  19    3.41    1.68   4
  -1   6  19    4.47    1.63   1
   1  -6 -19    3.76    1.94   3
   0  -6 -19    3.36    1.81   3
   0  -6  19    5.45    1.71   4
   0   6  19    6.68    1.70   1
   0   6 -19    3.84    1.68   2
  -1   6 -19    6.61    1.77   2
   1  -6  19    9.70    1.79   4
  -1  -6 -19   12.10    2.18   3
   1   6  19    7.66    1.90   1
   2  -6  19    1.45    1.62   4
  -2  -6 -19    1.43    1.80   3
  -2   6 -19    0.11    1.52   2
   2   6  19   -0.43    1.36   1
   5   0 -20    0.05    1.62   3
  -5   0  20    0.69    1.54   4
  -4   0  20   12.48    1.83   4
   4   0 -20   10.01    1.77   3
   3   0 -20    2.68    1.26   3
  -3   0  20    2.91    1.21   4
   2   0 -20    2.50    1.18   3
  -2   0  20    4.47    1.21   4
  -1   0  20  192.99    5.21   4
   1   0 -20  190.46    4.89   2
   0   0 -20   73.26    2.74   2
   0   0  20   79.60    2.93   4
   0   0 -20   75.87    2.85   3
   0   0  20   79.01    2.61   1
  -1   0 -20    1.63    0.97   3
   1   0  20    2.07    0.96   1
  -1   0 -20    0.87    0.96   2
  -2   0 -20    6.46    1.25   2
   2   0  20    6.51    1.24   1
  -3   0 -20   -0.01    1.09   2
   3   0  20    1.56    1.15   1
   4   0  20   15.21    1.83   1
  -4   0 -20   15.09    1.95   2
  -5   0 -20   48.64    3.02   2
   5   0  20   45.13    2.87   1
  -5   1  20    1.05    1.61   4
   5  -1 -20    1.34    1.77   3
   5   1 -20   -0.73    1.75   3
  -5  -1  20    1.93    1.58   4
   4  -1 -20   28.33    2.39   3
  -4   1  20   25.35    2.33   4
   4   1 -20   30.61    2.45   3
  -4  -1  20   26.71    2.36   4
   3   1 -20    2.64    1.27   3
  -3   1  20    2.62    1.25   4
   3  -1 -20    2.79    1.37   3
  -3  -1  20    6.20    1.38   4
   2   1 -20    1.46    1.19   2
  -2  -1  20    2.35    1.17   4
   2   1 -20    0.85    1.06   3
   2  -1 -20    2.09    1.13   3
  -2   1  20    0.24    1.03   4
  -1  -1  20    0.31    0.97   4
  -1   1  20    0.01    0.92   4
   1   1 -20   -0.21    0.96   3
   1  -1 -20    1.99    1.10   3
  -1   1  20    0.26    0.90   1
   1   1 -20    0.57    0.95   2
   0  -1  20   18.10    1.63   4
   0  -1  20   18.72    1.43   1
   0   1  20   16.81    1.55   4
   0   1  20   17.86    1.48   1
   0  -1 -20   22.70    1.71   3
   0   1 -20   19.38    1.50   3
   0   1 -20   19.47    1.69   2
   1   1  20    1.70    0.96   1
  -1  -1 -20    1.45    0.94   2
   1  -1  20    1.99    0.95   1
   1  -1  20    2.72    1.03   4
  -1  -1 -20    1.33    1.06   3
  -1   1 -20    0.97    0.97   2
   2  -1  20    9.48    1.31   1
  -2  -1 -20    9.46    1.38   3
  -2  -1 -20    9.74    1.35   2
  -2   1 -20    8.77    1.42   2
   2   1  20    9.54    1.39   1
   3  -1  20    0.09    1.08   1
  -3   1 -20    0.74    1.07   2
  -3  -1 -20    0.12    1.11   2
   3   1  20    0.61    1.13   1
   4   1  20    0.74    1.41   1
   4  -1  20   -0.58    1.26   1
  -4  -1 -20   -0.85    1.25   2
  -4   1 -20    0.80    1.28   2
  -5  -1 -20    0.88    1.52   2
  -5   1 -20    3.48    1.68   2
   5   1  20    0.12    1.49   1
   5  -1  20   -1.15    1.41   1
  -5  -2  20    3.09    1.64   4
   5  -2 -20    3.98    1.99   3
  -5   2  20    1.72    1.59   4
   5   2 -20    1.99    1.75   3
  -4  -2  20   -0.98    1.35   4
   4   2 -20    2.53    1.42   2
   4   2 -20    0.79    1.49   3
  -4   2  20   -0.14    1.31   4
   4  -2 -20    3.36    1.65   3
   3   2 -20    0.24    1.21   3
  -3  -2  20   -1.07    1.18   4
  -3   2  20    0.15    1.11   4
   3   2 -20    0.48    1.19   2
   3  -2 -20   -0.16    1.26   3
   2   2 -20    5.20    1.26   3
   2  -2 -20    3.34    1.31   3
  -2  -2  20    3.98    1.26   4
  -2   2  20    4.44    1.28   4
   2   2 -20    4.04    1.24   2
   1  -2 -20   -0.75    1.05   3
  -1   2  20    0.88    0.96   1
   1   2 -20    0.11    1.02   2
  -1  -2  20    1.08    1.02   4
   1   2 -20    1.11    0.98   3
  -1   2  20    0.51    1.02   4
   0  -2  20   15.65    1.61   4
   0   2 -20   17.86    1.69   2
   0  -2 -20   17.89    1.72   3
   0   2  20   18.98    1.65   1
   1  -2  20    4.14    1.03   1
  -1  -2 -20    4.79    1.23   3
   1   2  20    3.40    1.17   1
   1  -2  20    3.81    1.09   4
  -1   2 -20    2.57    1.13   2
  -2  -2 -20    1.95    1.07   2
   2   2  20    0.54    1.02   1
   2  -2  20    0.55    1.01   1
  -2   2 -20    0.89    1.12   2
  -2  -2 -20    2.59    1.19   3
  -3   2 -20    3.15    1.31   2
   3   2  20    2.56    1.26   1
   3  -2  20    4.01    1.27   1
  -3  -2 -20    3.09    1.21   3
  -3  -2 -20    3.77    1.30   2
   4  -2  20    0.33    1.24   1
   4   2  20    1.38    1.36   1
  -4  -2 -20   -1.59    1.29   2
  -4   2 -20   -0.35    1.16   2
   4   3 -20   12.85    1.94   3
   4   3 -20    6.70    1.73   2
   4  -3 -20    6.24    1.98   3
  -4  -3  20    6.14    1.62   4
  -4   3  20    7.74    1.80   4
   3   3 -20   37.33    2.47   3
   3  -3 -20   35.69    2.65   3
   3   3 -20   35.23    2.41   2
  -3  -3  20   38.50    2.54   4
  -3   3  20   34.75    2.53   4
  -2   3  20   12.99    1.51   1
  -2  -3  20   11.95    1.70   4
  -2   3  20   12.79    1.69   4
   2  -3 -20   10.40    1.76   3
   2   3 -20   12.12    1.65   2
  -1  -3  20    1.43    1.13   4
  -1   3  20    0.54    0.98   4
   1   3 -20   -1.07    1.09   2
  -1   3  20    0.39    1.02   1
   1  -3 -20    0.17    1.16   3
   0   3 -20    2.42    1.12   2
   0   3  20    1.51    1.15   1
   0  -3 -20    1.75    1.29   3
   0  -3  20    0.37    1.09   4
   1  -3  20    0.30    1.07   4
   1  -3  20    0.33    0.97   1
  -1   3 -20   -0.92    1.07   2
  -1  -3 -20   -0.34    1.17   3
   1   3  20    0.05    1.12   1
   2   3  20    0.17    1.10   1
  -2  -3 -20   -2.28    1.14   3
  -2   3 -20   -0.25    1.18   2
   2  -3  20    0.61    1.11   4
   2  -3  20    0.79    1.06   1
  -3   3 -20    1.59    1.31   2
   3   3  20    1.62    1.30   1
   3  -3  20    1.40    1.29   1
  -3  -3 -20    4.15    1.45   3
   4   3  20   -1.93    1.28   1
  -4  -3 -20   -0.83    1.36   2
  -4   3 -20    1.02    1.36   2
   4  -3  20   -0.24    1.34   1
  -4  -3 -20    1.43    1.54   3
   4  -4 -20    1.80    1.78   3
  -4   4  20    4.91    1.74   4
  -4  -4  20   -0.69    1.57   4
   4   4 -20    2.30    1.60   2
  -3  -4  20    4.14    1.64   4
   3  -4 -20    1.82    1.61   3
   3   4 -20    0.98    1.42   2
  -3   4  20    1.73    1.37   4
   2   4 -20    1.00    1.35   2
  -2   4  20    0.68    1.18   1
  -2  -4  20   -1.36    1.13   4
  -2   4  20    0.51    1.25   4
   2  -4 -20   -0.14    1.42   3
   1  -4 -20   12.35    1.88   3
  -1   4  20   14.46    1.71   1
   1   4 -20   13.17    1.93   2
  -1  -4  20   10.94    1.73   4
   0  -4 -20    7.12    1.65   3
   0   4  20    5.62    1.36   1
   0   4 -20    4.57    1.43   2
   0  -4  20    6.55    1.42   4
  -1   4 -20    3.81    1.40   2
   1  -4  20    2.48    1.29   4
   1   4  20    2.18    1.31   1
  -1  -4 -20    2.38    1.41   3
   2   4  20    1.02    1.23   1
   2  -4  20    1.67    1.21   1
  -2  -4 -20    1.01    1.37   3
  -2   4 -20    1.28    1.28   2
   2  -4  20   -0.55    1.21   4
   3   4  20    0.90    1.41   1
   3  -4  20    0.78    1.29   1
  -3   4 -20    1.04    1.41   2
  -3  -4 -20    0.28    1.50   3
  -4  -4 -20    1.44    1.59   3
   3   5 -20    0.98    1.53   2
  -3  -5  20   -1.00    1.75   4
  -3   5  20    1.88    1.49   1
  -3   5  20    1.55    1.58   4
   3  -5 -20    0.57    1.68   3
  -2   5  20   10.45    1.67   1
  -2  -5  20    7.45    1.77   4
   2   5 -20   10.02    1.85   2
   2  -5 -20    8.55    1.97   3
  -1  -5  20   10.03    1.76   4
   1   5 -20    7.74    1.84   2
   1  -5 -20    9.13    1.92   3
  -1   5  20    7.56    1.62   1
   0   5  20   -0.88    1.34   1
   0  -5 -20    1.85    1.59   3
   0   5 -20    0.51    1.42   2
   0  -5  20    0.92    1.36   4
  -1   5 -20    4.23    1.46   2
   1   5  20    6.04    1.58   1
   1  -5  20    3.27    1.45   4
  -1  -5 -20    5.84    1.76   3
   2  -5  20   16.09    1.85   1
   2  -5  20   18.03    2.21   4
   2  -5  20   13.23    1.99   5
   2   5  20   19.42    2.12   1
  -2   5 -20   17.60    2.15   2
  -2  -5 -20   16.65    2.14   3
   3  -5  20    5.94    1.83   5
  -3   5 -20    3.79    1.68   2
   3   5  20    5.66    1.68   1
  -3  -5 -20    6.22    1.89   3
   3  -5  20    3.80    1.58   1
   3  -5  20    8.05    1.86   4
  -1   6  20    8.47    1.81   1
  -1  -6  20    7.14    1.83   4
   1  -6 -20    6.48    2.09   3
   1   6 -20    3.36    1.84   2
   0   6 -20   -0.94    1.55   2
   0  -6  20   -0.21    1.47   4
   0  -6 -20   -0.29    1.69   3
   0   6  20    0.93    1.57   1
   1  -6  20    2.00    1.63   4
   1   6  20    3.83    1.72   1
  -1  -6 -20    3.36    1.88   3
  -1   6 -20    0.37    1.55   2
  -5   0  21   -1.90    1.53   4
   5   0 -21   -0.37    1.68   3
  -4   0  21   -0.69    1.26   4
   4   0 -21   -0.82    1.38   3
   3   0 -21    2.18    1.32   3
  -3   0  21   -0.43    1.07   4
   2   0 -21   -0.19    1.11   3
  -2   0  21   -0.31    1.02   4
  -1   0  21    2.09    1.08   4
   1   0 -21    0.66    1.07   3
   0   0 -21    1.43    1.00   2
   0   0  21    0.87    1.05   4
   0   0 -21   -0.21    0.99   3
   0   0  21   -0.21    0.93   1
   1   0  21    0.92    0.98   1
  -1   0 -21   -0.92    0.92   2
  -1   0 -21   -0.66    1.01   3
  -2   0 -21   -0.21    1.02   2
   2   0  21   -1.51    0.97   1
  -3   0 -21   -0.06    1.16   2
   3   0  21    2.30    1.23   1
  -4   0 -21   -0.03    1.38   2
   4   0  21   -0.29    1.31   1
   4  -1 -21    1.31    1.57   3
  -4  -1  21    1.46    1.31   4
  -4   1  21   -0.47    1.34   4
   4   1 -21   -0.01    1.49   3
  -3   1  21   -1.32    1.08   4
   3  -1 -21    0.58    1.28   3
  -3  -1  21    1.09    1.20   4
   3   1 -21    0.03    1.25   3
   2  -1 -21    0.62    1.22   3
  -2  -1  21    0.38    1.10   4
   2   1 -21   -0.55    1.06   3
  -2   1  21   -0.38    1.06   4
   2   1 -21    0.92    1.10   2
  -1   1  21   17.28    1.50   1
   1  -1 -21   12.61    1.63   3
  -1  -1  21   12.90    1.58   4
   1   1 -21   12.93    1.49   3
   1   1 -21   12.47    1.49   2
  -1   1  21   11.13    1.50   4
   0  -1 -21    0.52    1.06   3
   0   1 -21    1.43    1.06   2
   0   1  21   -0.58    0.96   4
   0  -1  21    1.75    1.07   4
   0  -1  21    0.20    0.92   1
   0   1  21    0.75    0.99   1
  -1   1 -21    2.76    1.16   2
  -1  -1 -21    3.67    1.21   3
   1   1  21    4.66    1.06   1
   1  -1  21    3.64    1.11   1
   1  -1  21    4.25    1.16   4
  -1  -1 -21    3.41    1.05   2
   2   1  21    2.89    1.11   1
   2  -1  21    1.20    1.06   1
  -2   1 -21    1.96    1.19   2
  -2  -1 -21    2.26    1.19   3
  -2  -1 -21    2.32    1.08   2
  -3   1 -21    1.11    1.20   2
  -3  -1 -21   -0.85    1.19   2
   3   1  21    0.06    1.14   1
   3  -1  21    0.56    1.13   1
  -4   1 -21    2.36    1.66   2
   4  -1  21    3.63    1.47   1
   4   1  21    1.39    1.39   1
  -4  -1 -21    1.95    1.46   2
  -4  -2  21    6.04    1.68   4
  -4   2  21    2.96    1.56   4
   4   2 -21    6.07    1.74   3
   4  -2 -21    6.83    1.96   3
   3  -2 -21    0.47    1.44   3
  -3  -2  21    1.23    1.32   4
  -3   2  21   -0.46    1.22   4
   3   2 -21    1.24    1.22   2
   3   2 -21    0.33    1.27   3
  -2   2  21    5.31    1.33   4
   2   2 -21    2.75    1.24   3
   2  -2 -21    1.26    1.29   3
  -2  -2  21    3.02    1.34   4
   2   2 -21    1.25    1.47   2
  -1   2  21    1.30    1.06   4
   1  -2 -21   -0.96    1.17   3
  -1  -2  21   -1.02    1.03   4
   1   2 -21    1.54    1.15   2
  -1   2  21   -0.10    1.01   1
   0   2  21   35.60    2.15   1
   0  -2  21   38.70    2.25   4
   0  -2 -21   33.15    2.26   3
   0   2 -21   32.64    2.17   2
   1  -2  21   96.95    3.44   4
  -1  -2 -21   92.71    3.45   3
   1   2  21   91.51    3.22   1
   1  -2  21   98.32    3.11   1
  -1   2 -21   94.77    3.51   2
   2   2  21    1.71    1.16   1
   2  -2  21    1.53    1.07   1
  -2  -2 -21    0.61    1.16   3
  -2   2 -21    1.24    1.16   2
  -3  -2 -21    0.95    1.19   2
   3   2  21    2.01    1.26   1
   3  -2  21   -0.16    1.18   1
  -3  -2 -21    0.08    1.23   3
  -3   2 -21    0.07    1.24   2
   4   2  21    2.82    1.49   1
  -4   2 -21    4.56    1.55   2
   4  -2  21    5.62    1.57   1
  -4  -2 -21    5.22    1.67   2
  -4   3  21    1.74    1.53   4
   4  -3 -21    3.65    1.86   3
  -4  -3  21    4.66    1.68   4
   4   3 -21    3.81    1.68   2
   4   3 -21    1.13    1.61   3
   3   3 -21    8.62    1.61   3
  -3  -3  21    8.01    1.60   4
  -3   3  21    5.90    1.58   4
   3  -3 -21    7.62    1.81   3
   3   3 -21    2.75    1.54   2
  -2  -3  21    0.53    1.31   4
   2  -3 -21    1.46    1.47   3
  -2   3  21    1.61    1.27   4
   2   3 -21    1.91    1.32   2
   1   3 -21    2.73    1.35   2
   1  -3 -21    1.16    1.28   3
  -1   3  21    0.51    1.01   4
  -1  -3  21    2.57    1.22   4
  -1   3  21    1.90    1.19   1
   0   3 -21    0.91    1.20   2
   0  -3  21    1.03    1.16   4
   0  -3 -21    0.69    1.31   3
   0   3  21    2.17    1.25   1
  -1  -3 -21    1.75    1.36   3
  -1   3 -21    2.78    1.25   2
   1  -3  21    1.54    1.23   4
   1  -3  21    3.98    1.15   1
   1   3  21    1.39    1.25   1
  -2  -3 -21    0.07    1.26   3
   2  -3  21    1.22    1.16   4
  -2   3 -21   -0.52    1.17   2
   2  -3  21   -0.31    1.12   1
   2   3  21   -0.10    1.11   1
  -3  -3 -21   -0.23    1.33   3
   3   3  21   -0.41    1.38   1
   3  -3  21   -1.21    1.24   1
  -3   3 -21    1.28    1.27   2
  -4  -3 -21    3.16    1.57   3
   4  -3  21    3.80    1.55   1
  -4   3 -21    1.24    1.38   2
   4   3  21    1.21    1.47   1
   3  -4 -21   -1.68    1.65   3
   3   4 -21    3.12    1.50   2
  -3  -4  21    1.03    1.56   4
  -3   4  21    0.25    1.48   4
   2   4 -21    0.78    1.37   2
  -2  -4  21    0.43    1.55   4
   2  -4 -21    1.99    1.61   3
  -2   4  21    0.69    1.22   1
  -2   4  21   -0.08    1.30   4
   1  -4 -21    4.76    1.63   3
   1   4 -21    5.70    1.62   2
  -1   4  21    2.84    1.38   1
  -1  -4  21    4.18    1.47   4
   0  -4  21    0.09    1.21   4
   0   4  21    0.99    1.26   1
   0   4 -21    1.70    1.34   2
   0  -4 -21    0.78    1.41   3
  -1   4 -21    0.90    1.36   2
  -1  -4 -21    2.58    1.46   3
   1  -4  21    1.17    1.28   4
   1   4  21   -0.01    1.24   1
   2  -4  21    5.54    1.57   4
   2  -4  21    7.88    1.48   1
  -2   4 -21    5.41    1.60   2
  -2  -4 -21    9.19    1.79   3
   2   4  21    9.18    1.73   1
  -3   4 -21    3.60    1.54   2
   3  -4  21    1.17    1.45   1
   3   4  21    6.26    1.71   1
  -3  -4 -21    1.96    1.61   3
   2  -5 -21    9.87    2.11   3
  -2   5  21    9.71    1.70   1
  -2  -5  21    5.42    1.83   4
   2   5 -21    8.61    1.82   2
   1   5 -21   30.02    2.70   2
   1  -5 -21   33.47    2.84   3
  -1   5  21   27.00    2.35   1
  -1  -5  21   25.93    2.48   4
   0  -5 -21    4.30    1.80   3
   0  -5  21    3.40    1.59   4
   0   5  21    2.94    1.55   1
   0   5 -21    1.68    1.57   2
  -1   5 -21   -0.93    1.28   2
   1   5  21    2.52    1.52   1
  -1  -5 -21   -3.23    1.53   3
   1  -5  21    1.51    1.40   4
   2  -5  21    0.36    1.50   4
   2   5  21    2.05    1.59   1
  -2  -5 -21    2.57    1.63   3
  -2   5 -21    0.94    1.53   2
  -4   0  22   21.63    2.29   4
   4   0 -22   22.03    2.40   3
   3   0 -22   57.39    3.01   3
  -3   0  22   49.45    2.86   4
  -2   0  22    1.40    1.14   4
   2   0 -22    1.50    1.26   3
   1   0 -22    0.64    1.12   3
  -1   0  22    0.96    1.10   4
   0   0  22   22.20    1.67   1
   0   0 -22   20.28    1.71   2
   0   0 -22   22.01    1.77   3
   0   0  22   21.66    1.86   4
   1   0  22    1.22    1.00   1
  -1   0 -22    0.35    1.06   2
  -2   0 -22   11.25    1.54   2
   2   0  22   10.04    1.48   1
   3   0  22    5.32    1.43   1
  -3   0 -22    6.85    1.50   2
  -4   0 -22   -0.71    1.41   2
   4   0  22    0.96    1.43   1
  -4  -1  22    0.28    1.38   4
   4   1 -22   -0.46    1.62   3
  -4   1  22    1.42    1.48   4
   4  -1 -22    2.81    1.70   3
   3  -1 -22    0.64    1.48   3
  -3  -1  22    1.91    1.32   4
   3   1 -22    1.92    1.46   3
  -3   1  22    0.96    1.24   4
   2   1 -22    5.38    1.31   2
  -2   1  22    3.39    1.28   4
   2   1 -22    4.92    1.37   3
   2  -1 -22    5.23    1.41   3
  -2  -1  22    3.01    1.24   4
  -1  -1  22    1.08    1.12   4
  -1   1  22    0.33    1.03   4
   1   1 -22   -0.95    1.06   3
   1  -1 -22    1.07    1.23   3
   1   1 -22    1.84    1.14   2
   0  -1  22   40.92    2.35   4
   0   1 -22   40.27    2.32   2
   0  -1 -22   43.98    2.42   3
   0   1  22   57.80    3.34   1
  -1  -1 -22    2.55    1.23   3
   1  -1  22    0.80    1.08   1
   1   1  22    3.24    1.12   1
  -1   1 -22    1.15    1.13   2
  -2   1 -22    1.74    1.23   2
   2   1  22    2.07    1.17   1
  -2  -1 -22    2.21    1.15   2
  -2  -1 -22    2.34    1.19   3
   2  -1  22    3.19    1.22   1
   3  -1  22    1.44    1.30   1
  -3   1 -22    3.54    1.32   2
   3   1  22    0.94    1.23   1
  -3  -1 -22    0.82    1.39   2
   4  -1  22    0.75    1.38   1
  -4  -1 -22   -0.57    1.37   2
   4   1  22    1.67    1.41   1
  -4   1 -22    0.14    1.59   2
   4  -2 -22    2.57    1.82   3
   4   2 -22    2.71    1.67   3
  -4  -2  22    1.66    1.53   4
  -4   2  22    3.99    1.67   4
   3  -2 -22    7.43    1.82   3
   3   2 -22    9.95    1.70   3
   3   2 -22    4.99    1.58   2
  -3   2  22    7.89    1.67   4
  -3  -2  22    9.31    1.76   4
   2   2 -22   19.07    2.03   2
  -2  -2  22   16.40    1.89   4
  -2   2  22   18.39    1.94   4
   2  -2 -22   14.16    1.94   3
   2   2 -22   16.33    1.81   3
   1   2 -22    2.62    1.26   2
  -1   2  22    0.28    1.13   1
  -1  -2  22    2.20    1.23   4
   1  -2 -22    1.51    1.32   3
  -1   2  22    1.30    1.12   4
   0  -2  22    3.30    1.26   4
   0   2  22    1.68    1.15   1
   0   2 -22    2.56    1.20   2
   0  -2 -22    2.92    1.31   3
  -1   2 -22    7.31    1.45   2
   1   2  22   11.83    1.57   1
  -1  -2 -22   11.29    1.65   3
   1  -2  22   10.27    1.51   4
   1  -2  22   14.22    1.44   1
   2  -2  22    0.31    1.09   1
  -2   2 -22    0.58    1.17   2
  -2  -2 -22    1.27    1.22   3
   2   2  22    1.04    1.17   1
  -3  -2 -22    2.84    1.34   3
   3  -2  22   -0.29    1.15   1
   3   2  22    1.49    1.32   1
  -3   2 -22   -0.71    1.31   2
   4   2  22   -0.85    1.45   1
  -4  -2 -22    0.43    1.52   2
  -4   2 -22   -1.39    1.35   2
   4  -2  22    0.12    1.42   1
  -3   3  22    0.05    1.37   4
   3   3 -22    1.53    1.49   2
  -3  -3  22   -0.96    1.33   4
   3  -3 -22   -0.04    1.65   3
  -2   3  22   12.68    1.84   4
  -2  -3  22   13.46    1.91   4
   2  -3 -22   10.89    1.88   3
   2   3 -22   10.38    2.28   2
  -1  -3  22    1.54    1.31   4
  -1   3  22    0.90    1.26   1
   1   3 -22    0.34    1.34   2
   1  -3 -22    4.20    1.53   3
   0  -3  22    1.90    1.25   4
   0   3  22   -0.24    1.19   1
   0   3 -22    0.25    1.26   2
   0  -3 -22    1.67    1.42   3
   1  -3  22    1.17    1.22   4
   1   3  22    1.45    1.32   1
  -1   3 -22    0.50    1.21   2
  -1  -3 -22    0.00    1.34   3
  -2   3 -22    0.37    1.35   2
  -2  -3 -22   -0.77    1.33   3
   2   3  22    0.62    1.53   1
   2  -3  22    0.17    1.19   1
   3   3  22    0.94    1.43   1
  -3  -3 -22    0.98    1.45   3
   3  -3  22    1.65    1.35   1
  -3   3 -22    0.81    1.41   2
   3   4 -22    2.27    1.65   2
  -3   4  22    3.02    1.69   4
   3  -4 -22    4.34    1.94   3
  -3  -4  22    2.55    1.63   4
  -2   4  22    4.03    1.45   1
  -2   4  22    2.30    1.51   4
   2   4 -22   -0.89    1.32   2
  -2  -4  22    2.64    1.64   4
   2  -4 -22    4.20    1.81   3
  -1   4  22    7.84    1.57   1
   1  -4 -22    4.93    1.77   3
  -1  -4  22    5.16    1.58   4
   1   4 -22    3.97    1.63   2
   0   4 -22    4.64    1.58   2
   0  -4  22    6.07    1.61   4
   0   4  22    6.03    1.55   1
   0  -4 -22    5.57    1.77   3
   1   4  22    0.32    1.27   1
  -1  -4 -22    2.76    1.53   3
  -1   4 -22   -0.99    1.33   2
   1  -4  22    1.56    1.39   4
   2  -4  22    2.97    1.55   4
   2  -4  22    2.49    1.44   1
   2   4  22    3.84    1.57   1
  -2   4 -22    2.66    1.55   2
  -2  -4 -22    4.10    1.68   3
  -3   4 -22    4.24    1.63   2
  -3  -4 -22    4.27    1.77   3
   3   4  22    3.99    1.73   1
   3  -4  22    6.01    1.68   1
   1  -5 -22   13.20    2.26   3
  -1   5  22    6.52    1.74   1
   1   5 -22    6.71    1.96   2
  -1  -5  22    9.62    1.96   4
   0  -5 -22    1.46    1.81   3
   0   5 -22    1.26    1.61   2
   0   5  22    3.17    1.60   1
   0  -5  22    3.18    1.60   4
  -1   5 -22    0.51    1.54   2
   1   5  22    2.73    1.60   1
   1  -5  22   -2.19    1.44   4
  -1  -5 -22   -0.22    1.65   3
   4   0 -23   -0.48    1.60   3
  -4   0  23   -0.10    1.42   4
  -3   0  23    0.41    1.39   4
   3   0 -23    0.64    1.46   3
  -2   0  23    1.14    1.26   4
   2   0 -23   -0.89    1.34   3
  -1   0  23   -0.59    1.11   4
   1   0 -23    0.08    1.29   3
   0   0  23    1.83    1.11   1
   0   0 -23    0.75    1.06   2
   0   0 -23    1.16    1.20   3
   0   0  23    0.18    1.04   4
   1   0  23    0.36    1.10   1
  -1   0 -23    0.85    1.16   2
   2   0  23    0.02    1.14   1
  -2   0 -23    0.24    1.12   2
  -3   0 -23    0.46    1.31   2
   3   0  23   -0.11    1.30   1
   4   0  23   -1.14    1.40   1
  -4   0 -23    1.17    1.60   2
  -4  -1  23    1.02    1.52   4
   4   1 -23    1.76    1.75   3
   4  -1 -23    0.26    1.73   3
  -4   1  23    0.02    1.51   4
   3   1 -23    5.84    1.72   3
  -3   1  23    4.54    1.59   4
   3  -1 -23    4.63    1.68   3
  -3  -1  23    4.56    1.52   4
  -2  -1  23    0.42    1.22   4
  -2   1  23    0.60    1.24   4
   2   1 -23    2.67    1.46   3
   2  -1 -23    0.82    1.39   3
   1   1 -23    0.22    1.21   3
  -1  -1  23   -0.17    1.18   4
  -1   1  23   -1.11    1.11   4
   1  -1 -23   -0.20    1.23   3
   1   1 -23    0.30    1.15   2
   0  -1  23   30.35    2.19   4
   0   1 -23   28.76    2.15   2
   0  -1 -23   31.80    2.19   3
   0   1  23   39.26    2.33   1
   1   1  23   35.38    2.14   1
  -1  -1 -23   40.59    2.49   3
  -1   1 -23   37.72    2.33   2
   1  -1  23   33.89    2.08   1
  -2  -1 -23    8.10    1.44   2
  -2   1 -23    8.01    1.59   2
   2  -1  23   10.16    1.58   1
   2   1  23    6.51    1.46   1
   3   1  23    1.95    1.37   1
   3  -1  23   -0.52    1.31   1
  -3   1 -23    1.77    1.31   2
  -3  -1 -23    1.58    1.47   2
   4   1  23    0.45    1.44   1
  -4  -1 -23    2.33    1.65   2
  -4   1 -23   -0.68    1.71   2
   4  -1  23    1.41    1.49   1
  -3  -2  23    1.79    1.49   4
  -3   2  23    2.04    1.44   4
   3   2 -23    1.49    1.61   3
   3  -2 -23    3.19    1.64   3
   2   2 -23   11.00    1.78   2
   2  -2 -23    8.64    1.80   3
  -2   2  23    7.43    1.65   4
  -2  -2  23    6.58    1.65   4
   1   2 -23    9.00    1.65   2
  -1   2  23   10.02    1.65   4
  -1  -2  23   12.76    1.75   4
   1  -2 -23   10.88    1.77   3
   0  -2  23   10.13    1.64   4
   0   2  23   11.02    1.58   1
   0  -2 -23   10.27    1.74   3
   0   2 -23    8.28    1.58   2
   1   2  23    1.37    1.49   1
  -1   2 -23   -0.07    1.19   2
  -1  -2 -23   -1.04    1.33   3
   1  -2  23    0.61    1.15   4
   2  -2  23    3.21    1.32   1
   2   2  23    0.99    1.31   1
  -2   2 -23    2.87    1.36   2
  -2  -2 -23    1.49    1.43   3
   3  -2  23   -1.69    1.26   1
  -3   2 -23    0.27    1.30   2
   3   2  23   -1.01    1.28   1
   3   3 -23    1.82    1.61   2
  -3  -3  23    1.28    1.50   4
   3  -3 -23    3.36    1.92   3
  -3   3  23    3.26    1.65   4
   2  -3 -23   -1.18    1.50   3
   2   3 -23    0.11    1.54   2
  -2  -3  23    0.18    1.42   4
  -2   3  23    0.66    1.42   4
   1  -3 -23    2.47    1.56   3
   1   3 -23    3.50    1.52   2
  -1  -3  23    5.91    1.53   4
  -1   3  23    6.71    1.47   1
   0  -3  23    0.36    1.23   4
   0  -3 -23    3.14    1.51   3
   0   3  23   -1.07    1.21   1
   0   3 -23   -0.49    1.28   2
   1   3  23    9.45    1.69   1
  -1   3 -23    8.77    1.68   2
  -1  -3 -23   11.65    1.96   3
   1  -3  23   11.81    1.73   4
   2  -3  23   10.42    1.59   1
  -2  -3 -23   11.93    1.84   3
  -2   3 -23   11.58    1.85   2
   2   3  23   11.51    1.96   1
  -3   3 -23    0.15    1.46   2
   3  -3  23    1.45    1.46   1
   3   3  23    1.89    1.46   1
  -3  -3 -23   -0.17    1.48   3
   2   4 -23    3.45    2.00   2
  -2  -4  23    2.65    1.83   4
   2  -4 -23    1.28    1.77   3
   1  -4 -23   23.34    2.55   3
  -1   4  23   22.13    2.19   1
   1   4 -23   26.58    2.47   2
  -1  -4  23   21.39    2.31   4
   0   4  23   13.95    1.92   1
   0  -4 -23   14.49    2.12   3
   0   4 -23   10.42    1.96   2
   0  -4  23   12.36    1.97   4
   1   4  23    2.44    1.47   1
  -1  -4 -23    1.92    1.62   3
   1  -4  23    0.38    1.47   4
  -1   4 -23    0.80    1.46   2
   2  -4  23    0.91    1.51   4
   2   4  23    1.48    1.50   1
  -2   4 -23    0.57    1.44   2
  -2  -4 -23    2.08    1.59   3
   3   0 -24   -0.67    1.51   3
  -3   0  24    0.72    1.43   4
  -2   0  24    9.98    1.75   4
   2   0 -24    9.45    1.79   3
  -1   0  24    5.73    1.49   4
   1   0 -24    4.91    1.51   3
   1   0  24    0.56    1.15   1
  -1   0 -24    0.40    1.20   2
   2   0  24    4.98    1.37   1
  -2   0 -24    6.53    1.48   2
   3   0  24   -0.05    1.38   1
  -3   0 -24    1.28    1.38   2
   3   1 -24   16.99    2.20   3
  -3  -1  24   15.13    2.06   4
  -3   1  24   17.07    2.16   4
   3  -1 -24   12.47    2.06   3
  -2   1  24   19.85    2.08   4
   2   1 -24   18.88    2.08   3
  -2  -1  24   18.21    2.08   4
   2  -1 -24   21.16    2.24   3
  -1  -1  24    0.41    1.29   4
   1  -1 -24    0.33    1.40   3
  -1   1  24   -0.50    1.23   4
   1   1 -24    0.59    1.21   2
   0   1  24    6.71    1.48   1
   0   1 -24    4.44    1.42   2
   0  -1  24    2.57    1.31   4
   0  -1 -24    4.87    1.45   3
   1  -1  24    6.18    1.39   1
  -1  -1 -24    3.80    1.43   3
  -1   1 -24    4.00    1.40   2
   1   1  24    7.88    1.42   1
   2  -1  24    4.73    1.39   1
  -2   1 -24    3.49    1.53   2
   2   1  24    2.90    1.34   1
  -3  -1 -24    2.29    1.57   2
   3  -1  24    3.33    1.51   1
  -3   1 -24    1.02    1.33   2
   3   1  24    2.62    1.44   1
   3   2 -24    4.15    1.68   3
  -3  -2  24    4.39    1.69   4
  -3   2  24   -0.15    1.54   4
   3  -2 -24    2.20    1.75   3
   2   2 -24    2.70    1.49   2
   2  -2 -24   -2.23    1.44   3
  -2  -2  24    0.39    1.41   4
  -2   2  24   -0.67    1.35   4
   1  -2 -24    2.93    1.58   3
  -1  -2  24    1.47    1.36   4
   1   2 -24    4.88    1.56   2
   0  -2  24    4.21    1.45   4
   0   2 -24    5.22    1.53   2
   0  -2 -24    7.16    1.68   3
   0   2  24    5.15    1.49   1
  -1  -2 -24   12.38    1.90   3
  -1   2 -24    9.46    1.70   2
   1   2  24   13.86    2.03   1
   2   2  24    2.06    1.45   1
  -2  -2 -24    1.33    1.45   3
   2  -2  24    1.20    1.35   1
  -2   2 -24   -0.81    1.35   2
   3   2  24   -0.71    1.44   1
  -3   2 -24   -1.72    1.34   2
   3  -2  24    2.01    1.56   1
   2  -3 -24    4.33    1.83   3
  -2   3  24    1.37    1.54   4
  -2  -3  24    2.22    1.53   4
   2   3 -24    2.18    1.64   2
  -1   3  24    0.83    1.33   1
  -1  -3  24   -1.16    1.36   4
   1   3 -24    0.63    1.42   2
   1  -3 -24    3.31    1.65   3
   0   3  24    4.16    1.47   1
   0  -3  24    3.83    1.53   4
   0  -3 -24    4.41    1.69   3
   0   3 -24    4.59    1.56   2
   1  -3  24    1.80    1.33   4
   1   3  24   -0.11    1.47   1
  -1  -3 -24    1.87    1.55   3
  -1   3 -24    0.77    1.42   2
  -2  -3 -24    3.25    1.77   3
   2   3  24    6.46    1.82   1
   2  -3  24    4.72    1.50   1
  -2   3 -24    4.72    1.65   2
  -1  -4  24    0.08    1.57   4
   1  -4 -24    0.41    1.81   3
   1   4 -24   -0.11    1.58   2
  -1   4  24    3.43    1.59   1
   0   4 -24    4.90    1.79   2
   0   4  24    8.77    1.78   1
   0  -4 -24    7.43    2.01   3
   0  -4  24    5.64    1.71   4
  -1  -4 -24    0.50    1.75   3
  -1   4 -24    1.97    1.55   2
   1   4  24    5.97    1.71   1
   1  -4  24    2.18    1.59   4
  -3   0  25   -2.28    1.38   4
   3   0 -25    1.62    1.73   3
   2   0 -25    0.68    1.50   3
  -2   0  25    1.11    1.36   4
  -1   0  25   -0.46    1.30   4
   1   0 -25    2.86    1.51   3
   1   0  25   -1.72    1.18   1
  -1   0 -25    0.67    1.28   2
  -2   0 -25    0.77    1.36   2
   2   0  25    2.40    1.37   1
  -3   0 -25    0.43    1.44   2
   3   0  25    0.98    1.42   1
  -3   1  25    1.67    1.59   4
   3   1 -25    4.44    1.80   3
  -3  -1  25    1.75    1.58   4
   3  -1 -25    5.67    1.86   3
  -2  -1  25    8.56    1.72   4
  -2   1  25    8.33    1.77   4
   2   1 -25    8.15    1.82   3
   2  -1 -25    6.84    1.85   3
   1  -1 -25    4.02    1.63   3
  -1   1  25    3.48    1.47   4
  -1  -1  25    3.78    1.49   4
   0  -1  25    1.17    1.37   4
   0  -1 -25    1.76    1.49   3
   0   1 -25    1.41    1.39   2
  -1   1 -25    1.55    1.35   2
   1   1  25    2.83    1.37   1
   2  -1  25    2.14    1.42   1
   2   1  25    0.41    1.31   1
  -2   1 -25    1.22    1.40   2
  -2   2  25    2.16    1.54   4
  -2  -2  25    0.55    1.51   4
   2  -2 -25    2.49    1.72   3
   1  -2 -25    0.27    1.52   3
  -1  -2  25    0.30    1.27   4
   1   2 -25    1.80    1.48   2
   0   2 -25    1.74    1.46   2
   0  -2  25    0.45    1.36   4
   0   2  25    0.39    1.36   1
   0  -2 -25    1.89    1.53   3
   1   2  25   34.28    2.50   1
  -1  -2 -25   31.85    2.52   3
  -1   2 -25   25.03    2.33   2
   2  -2  25   11.40    1.85   1
  -2   2 -25    9.58    1.87   2
   2   2  25    9.93    1.77   1
  -1  -3  25   -1.01    1.48   4
   1   3 -25    0.11    1.46   2
   1  -3 -25   -0.03    1.68   3
   0  -3 -25    2.93    1.75   3
   0  -3  25    0.01    1.43   4
   0   3 -25    1.84    1.60   2
   0   3  25    4.25    1.55   1
   1  -3  25    1.25    1.49   4
   1   3  25    0.35    1.51   1
  -1   3 -25   -0.24    1.42   2
  -1  -3 -25    2.59    1.66   3
   2   0 -26    2.58    1.71   3
  -2   0  26    3.41    1.60   4
  -1   0  26    0.87    1.41   4
   1   0  26    0.83    1.40   1
   2   0  26    7.49    1.68   1
  -2   0 -26    6.83    1.60   2
  -2  -1  26    0.22    1.53   4
   2  -1 -26   -0.75    1.66   3
  -2   1  26   -0.03    1.45   4
  -1  -1  26    7.74    1.74   4
   1  -1 -26   10.23    1.94   3
   0  -1 -26    2.86    1.64   3
   0   1 -26    3.09    1.52   2
  -1   1 -26    0.39    1.41   2
   1   1  26    1.07    1.34   1
   2  -1  26    4.78    1.61   1
   2   1  26    1.57    1.47   1
  -2   1 -26    1.95    1.54   2
  -1  -2  26   11.02    1.95   4
   1  -2 -26   10.07    2.03   3
   1   2 -26    9.54    1.82   2
   0  -2 -26    2.73    1.68   3
   0  -2  26    0.77    1.48   4
   0   2 -26    2.06    1.51   2
   0   2  26    1.75    1.48   1
   1   2  26    8.80    1.87   1
  -1  -2 -26    5.14    1.77   3
  -1   2 -26    5.36    1.70   2
  -1   0  27    1.58    1.57   4
   1  -1 -27    9.54    1.92   3
   0   0   0    0.00    0.00   0
;
_shelx_hkl_checksum              54369
_olex2_submission_special_instructions 'No special instructions were received'
#END Tags that were not found in dictionaries
loop_
_space_group_symop_operation_xyz
'x, y, z'
'-x, y+1/2, -z+1/2'
'-x, -y, -z'
'x, -y-1/2, z-1/2'
loop_
_atom_site_label
_atom_site_type_symbol
_atom_site_fract_x
_atom_site_fract_y
_atom_site_fract_z
_atom_site_U_iso_or_equiv
_atom_site_adp_type
_atom_site_occupancy
_atom_site_site_symmetry_order
_atom_site_calc_flag
_atom_site_refinement_flags_posn
_atom_site_refinement_flags_occupancy
_atom_site_disorder_assembly
_atom_site_disorder_group
C1 C 0.9472(3) 0.8738(4) 0.08985(8) 0.0396(4) Uani 0.930(6) 1 d . P A 3
C1' C 0.943(4) 0.820(3) 0.0814(8) 0.023(4) Uiso 0.070(6) 1 d . P A 4
C2 C 0.7624(2) 0.9155(2) 0.13673(6) 0.0459(3) Uani 1 1 d . . . .
C3 C 0.7249(2) 0.7838(2) 0.19198(7) 0.0557(4) Uani 1 1 d . . . .
H3 H 0.6010 0.8127 0.2228 0.067 Uiso 1 1 calc R . . .
C4 C 0.8670(3) 0.6116(2) 0.20209(7) 0.0620(4) Uani 1 1 d . . . .
H4 H 0.8414 0.5259 0.2398 0.074 Uiso 1 1 calc R . . .
C5 C 1.0483(3) 0.5665(2) 0.15586(7) 0.0581(4) Uani 1 1 d . . . .
H5 H 1.1446 0.4498 0.1629 0.070 Uiso 1 1 calc R . . .
C6 C 1.0902(2) 0.6915(2) 0.09892(6) 0.0466(3) Uani 1 1 d . . . .
C7 C 0.9877(2) 1.0216(2) 0.03299(6) 0.0411(4) Uani 0.930(6) 1 d . P A 3
H7 H 0.9970 1.1610 0.0450 0.049 Uiso 0.930(6) 1 calc R P A 3
C7' C 0.953(3) 0.917(2) 0.0115(10) 0.055(7) Uiso 0.070(6) 1 d . P A 4
H7' H 0.8739 0.8391 -0.0222 0.066 Uiso 0.070(6) 1 calc R P A 4
C8 C 0.6001(3) 1.1024(2) 0.12771(8) 0.0632(4) Uani 1 1 d . . . .
H81 H 0.5120 1.0910 0.0851 0.095 Uiso 0.73(8) 1 calc GR P B 1
H82 H 0.6976 1.2260 0.1272 0.095 Uiso 0.73(8) 1 calc GR P B 1
H83 H 0.4876 1.1093 0.1651 0.095 Uiso 0.73(8) 1 calc GR P B 1
H84 H 0.4370 1.0668 0.1402 0.095 Uiso 0.27(8) 1 calc GR P B 2
H85 H 0.6028 1.1464 0.0806 0.095 Uiso 0.27(8) 1 calc GR P B 2
H86 H 0.6574 1.2130 0.1567 0.095 Uiso 0.27(8) 1 calc GR P B 2
C9 C 1.2929(3) 0.6312(2) 0.05122(7) 0.0587(4) Uani 1 1 d . . . .
H91 H 1.4014 0.7465 0.0457 0.088 Uiso 0.5(3) 1 calc GR P C 1
H92 H 1.2261 0.5930 0.0073 0.088 Uiso 0.5(3) 1 calc GR P C 1
H93 H 1.3804 0.5156 0.0703 0.088 Uiso 0.5(3) 1 calc GR P C 1
H94 H 1.3569 0.7533 0.0296 0.088 Uiso 0.5(3) 1 calc GR P C 2
H95 H 1.2315 0.5383 0.0166 0.088 Uiso 0.5(3) 1 calc GR P C 2
H96 H 1.4195 0.5636 0.0770 0.088 Uiso 0.5(3) 1 calc GR P C 2
loop_
_atom_site_aniso_label
_atom_site_aniso_U_11
_atom_site_aniso_U_22
_atom_site_aniso_U_33
_atom_site_aniso_U_23
_atom_site_aniso_U_13
_atom_site_aniso_U_12
C1 0.0415(7) 0.0413(8) 0.0361(7) -0.0066(6) 0.0029(5) -0.0013(7)
C2 0.0457(6) 0.0521(7) 0.0402(6) -0.0066(5) 0.0048(5) -0.0013(5)
C3 0.0563(8) 0.0703(9) 0.0407(6) -0.0035(6) 0.0118(5) -0.0021(6)
C4 0.0709(9) 0.0698(9) 0.0456(7) 0.0126(7) 0.0089(6) -0.0026(7)
C5 0.0645(8) 0.0566(8) 0.0531(8) 0.0083(6) 0.0019(6) 0.0086(6)
C6 0.0464(6) 0.0526(7) 0.0407(6) -0.0027(5) 0.0030(5) 0.0031(5)
C7 0.0422(7) 0.0406(7) 0.0406(7) -0.0035(5) 0.0049(5) 0.0014(5)
C8 0.0603(8) 0.0651(9) 0.0644(9) -0.0050(7) 0.0173(7) 0.0136(7)
C9 0.0552(8) 0.0661(9) 0.0549(8) 0.0008(6) 0.0089(6) 0.0187(6)
loop_
_atom_type_symbol
_atom_type_description
_atom_type_scat_dispersion_real
_atom_type_scat_dispersion_imag
_atom_type_scat_source
C C 0.0033 0.0016 'International Tables Vol C Tables 4.2.6.8 and 6.1.1.4'
H H 0.0000 0.0000 'International Tables Vol C Tables 4.2.6.8 and 6.1.1.4'
loop_
_geom_angle_atom_site_label_1
_geom_angle_atom_site_label_2
_geom_angle_atom_site_label_3
_geom_angle
_geom_angle_site_symmetry_1
C2 C1 C6 118.84(13) .
C2 C1 C7 118.62(16) .
C6 C1 C7 122.53(13) .
C6 C1' C2 119.8(10) .
C6 C1' C7' 120.9(16) .
C7' C1' C2 118.6(14) .
C1 C2 C8 120.72(13) .
C3 C2 C1 120.09(14) .
C3 C2 C1' 112.6(5) .
C3 C2 C8 119.19(12) .
C8 C2 C1' 127.0(5) .
C2 C3 H3 119.4 .
C4 C3 C2 121.25(12) .
C4 C3 H3 119.4 .
C3 C4 H4 120.3 .
C3 C4 C5 119.48(13) .
C5 C4 H4 120.3 .
C4 C5 H5 119.2 .
C4 C5 C6 121.50(13) .
C6 C5 H5 119.2 .
C1 C6 C9 123.20(12) .
C1' C6 C5 120.5(7) .
C1' C6 C9 120.1(7) .
C5 C6 C1 118.78(12) .
C5 C6 C9 117.97(12) .
C1 C7 H7 116.3 .
C7 C7 C1 127.45(17) 3_775
C7 C7 H7 116.3 3_775
C1' C7' H7' 113.3 .
C7' C7' C1' 133(2) 3_775
C7' C7' H7' 113.3 3_775
C2 C8 H81 109.5 .
C2 C8 H82 109.5 .
C2 C8 H83 109.5 .
C2 C8 H84 109.5 .
C2 C8 H85 109.5 .
C2 C8 H86 109.5 .
H81 C8 H82 109.5 .
H81 C8 H83 109.5 .
H82 C8 H83 109.5 .
H84 C8 H85 109.5 .
H84 C8 H86 109.5 .
H85 C8 H86 109.5 .
C6 C9 H91 109.5 .
C6 C9 H92 109.5 .
C6 C9 H93 109.5 .
C6 C9 H94 109.5 .
C6 C9 H95 109.5 .
C6 C9 H96 109.5 .
H91 C9 H92 109.5 .
H91 C9 H93 109.5 .
H92 C9 H93 109.5 .
H94 C9 H95 109.5 .
H94 C9 H96 109.5 .
H95 C9 H96 109.5 .
loop_
_geom_bond_atom_site_label_1
_geom_bond_atom_site_label_2
_geom_bond_distance
_geom_bond_site_symmetry_2
C1 C2 1.397(2) .
C1 C6 1.425(2) .
C1 C7 1.478(2) .
C1' C2 1.59(2) .
C1' C6 1.205(19) .
C1' C7' 1.497(16) .
C2 C3 1.3859(19) .
C2 C8 1.5093(19) .
C3 H3 0.9300 .
C3 C4 1.371(2) .
C4 H4 0.9300 .
C4 C5 1.379(2) .
C5 H5 0.9300 .
C5 C6 1.3898(19) .
C6 C9 1.5074(17) .
C7 C7 1.321(3) 3_775
C7 H7 0.9300 .
C7' C7' 1.273(18) 3_775
C7' H7' 0.9300 .
C8 H81 0.9600 .
C8 H82 0.9600 .
C8 H83 0.9600 .
C8 H84 0.9600 .
C8 H85 0.9600 .
C8 H86 0.9600 .
C9 H91 0.9600 .
C9 H92 0.9600 .
C9 H93 0.9600 .
C9 H94 0.9600 .
C9 H95 0.9600 .
C9 H96 0.9600 .
loop_
_geom_torsion_atom_site_label_1
_geom_torsion_atom_site_label_2
_geom_torsion_atom_site_label_3
_geom_torsion_atom_site_label_4
_geom_torsion
_geom_torsion_site_symmetry_4
C1 C2 C3 C4 0.2(2) .
C1' C2 C3 C4 11.6(9) .
C2 C1 C6 C1' 98(3) .
C2 C1 C6 C5 -2.9(3) .
C2 C1 C6 C9 179.65(14) .
C2 C1 C7 C7 -131.7(2) 3_775
C2 C1' C6 C1 -61(3) .
C2 C1' C6 C5 26(2) .
C2 C1' C6 C9 -168.0(8) .
C2 C1' C7' C7' 76(4) 3_775
C2 C3 C4 C5 -1.0(2) .
C3 C4 C5 C6 -0.2(2) .
C4 C5 C6 C1 2.1(2) .
C4 C5 C6 C1' -13.6(12) .
C4 C5 C6 C9 179.72(14) .
C6 C1 C2 C1' -54(3) .
C6 C1 C2 C3 1.8(2) .
C6 C1 C2 C8 -177.74(14) .
C6 C1 C7 C7 48.8(3) 3_775
C6 C1' C2 C1 104(4) .
C6 C1' C2 C3 -24.9(18) .
C6 C1' C2 C8 168.1(10) .
C6 C1' C7' C7' -95(4) 3_775
C7 C1 C2 C1' 126(3) .
C7 C1 C2 C3 -177.80(13) .
C7 C1 C2 C8 2.7(2) .
C7 C1 C6 C1' -82(3) .
C7 C1 C6 C5 176.64(14) .
C7 C1 C6 C9 -0.8(2) .
C7' C1' C2 C1 -67(3) .
C7' C1' C2 C3 164.6(11) .
C7' C1' C2 C8 -2.4(19) .
C7' C1' C6 C1 109(4) .
C7' C1' C6 C5 -164.1(11) .
C7' C1' C6 C9 2(2) .
C8 C2 C3 C4 179.73(13) .
