#------------------------------------------------------------------------------
#$Date: 2016-06-17 04:50:27 +0300 (Fri, 17 Jun 2016) $
#$Revision: 183633 $
#$URL: file:///home/coder/svn-repositories/cod/cif/2/10/75/2107516.cif $
#------------------------------------------------------------------------------
#
# This file is available in the Crystallography Open Database (COD),
# http://www.crystallography.net/. The original data for this entry
# were provided by IUCr Journals, http://journals.iucr.org/.
#
# The file may be used within the scientific community so long as
# proper attribution is given to the journal article from which the
# data were obtained.
#
data_2107516
loop_
_publ_author_name
'Sist, Mattia'
'Zhang, Jiawei'
'Brummerstedt Iversen, Bo'
_publ_section_title
;
 Crystal structure and phase transition of thermoelectric SnSe
;
_journal_coeditor_code           GW5043
_journal_issue                   3
_journal_name_full               'Acta Crystallographica Section B'
_journal_page_first              310
_journal_page_last               316
_journal_paper_doi               10.1107/S2052520616003334
_journal_volume                  72
_journal_year                    2016
_chemical_formula_moiety         'Se1 Sn0.9816'
_chemical_formula_sum            'Se Sn0.9816'
_chemical_formula_weight         195.50
_chemical_name_common            'Tin Selenide'
_space_group_IT_number           62
_symmetry_cell_setting           orthorhombic
_symmetry_Int_Tables_number      62
_symmetry_space_group_name_Hall  '-P 2ac 2n'
_symmetry_space_group_name_H-M   'P n m a'
_cell_angle_alpha                90
_cell_angle_beta                 90
_cell_angle_gamma                90
_cell_formula_units_Z            4
_cell_length_a                   11.62000(13)
_cell_length_b                   4.22357(6)
_cell_length_c                   4.38333(7)
_cell_measurement_temperature    655(5)
_cell_volume                     215.125(5)
_computing_structure_refinement  'Jana2006, (Petricek,2014)'
_diffrn_ambient_temperature      655(5)
_diffrn_detector_type            'Image plate'
_diffrn_measurement_device_type  BL44B2
_diffrn_radiation_probe          x-ray
_diffrn_radiation_type           Synchrotron,monochromatic
_diffrn_radiation_wavelength     0.50021
_diffrn_source_type              'Spring8, BL44B2 beamline'
_exptl_absorpt_coefficient_mu    11.048
_exptl_absorpt_correction_type   none
_exptl_crystal_density_diffrn    6.036
_exptl_crystal_F_000             332.3
_pd_char_colour                  metallic_grey
_pd_meas_2theta_range_inc        0.01
_pd_meas_2theta_range_max        77.970
_pd_meas_2theta_range_min        0.010
_pd_meas_number_of_points        7797
_pd_proc_2theta_range_inc        0.01
_pd_proc_2theta_range_max        37.82
_pd_proc_2theta_range_min        4.02
_pd_proc_ls_background_function
'Manual background combined with 8 Chebyshev polynoms'
_pd_proc_ls_pref_orient_corr     none
_pd_proc_ls_profile_function     Pseudo-Voigt
_pd_proc_ls_prof_R_factor        0.0174
_pd_proc_ls_prof_wR_expected     0.0133
_pd_proc_ls_prof_wR_factor       0.0232
_pd_spec_mounting                capillary
_pd_spec_mount_mode              transmission
_refine_ls_goodness_of_fit_all   1.75
_refine_ls_number_constraints    0
_refine_ls_number_parameters     32
_refine_ls_number_restraints     0
_refine_ls_R_factor_all          0.0348
_refine_ls_R_factor_gt           0.0342
_refine_ls_shift/su_max          0.0409
_refine_ls_shift/su_mean         0.0102
_refine_ls_weighting_scheme      sigma
_refine_ls_wR_factor_all         0.0150
_refine_ls_wR_factor_gt          0.0148
_cod_data_source_file            gw5043sup1.cif
_cod_data_source_block           655
_cod_depositor_comments
;
The following automatic conversions were performed:

'_diffrn_radiation_probe' value 'X-ray' changed to 'x-ray' according
to
/usr/data/users/saulius/crontab/automatic-downloads/rss-feeds/IUCr/lib/dictionaries/cif_core.dic
dictionary named 'cif_core.dic' version 2.4.2 from 2011-04-26.

Automatic conversion script
Id: cif_fix_values 4268 2015-11-12 08:31:59Z antanas 

 Adding full bibliography for 2107508--2107520.cif.
;
_cod_original_formula_sum        'Se1 Sn0.9816'
_cod_database_code               2107516
_cod_database_fobs_code          2107516
loop_
_space_group_symop_id
_space_group_symop_operation_xyz
1 x,y,z
2 -x+1/2,-y,z+1/2
3 -x,y+1/2,-z
4 x+1/2,-y+1/2,-z+1/2
5 -x,-y,-z
6 x+1/2,y,-z+1/2
7 x,-y+1/2,z
8 -x+1/2,y+1/2,z+1/2
loop_
_atom_site_label
_atom_site_type_symbol
_atom_site_fract_x
_atom_site_fract_y
_atom_site_fract_z
_atom_site_adp_type
_atom_site_U_iso_or_equiv
_atom_site_site_symmetry_multiplicity
_atom_site_occupancy
_atom_site_calc_flag
Sn Sn 0.12084(5) 0.25 0.08170(12) Uani 0.0371(3) 4 0.9816 d
Se Se 0.85555(6) 0.25 0.48400(14) Uani 0.0295(4) 4 1 d
loop_
_atom_site_aniso_label
_atom_site_aniso_type_symbol
_atom_site_aniso_U_11
_atom_site_aniso_U_22
_atom_site_aniso_U_33
_atom_site_aniso_U_12
_atom_site_aniso_U_13
_atom_site_aniso_U_23
Sn Sn 0.0352(5) 0.0359(6) 0.0403(5) 0 -0.0083(5) 0
Se Se 0.0274(6) 0.0306(6) 0.0304(7) 0 -0.0011(5) 0
loop_
_atom_type_symbol
_atom_type_scat_dispersion_real
_atom_type_scat_dispersion_imag
_atom_type_scat_source
Se 0.2899 1.2209 'International Tables Vol C tables 4.2.6.8 and 6.1.1.1'
Sn -1.5316 0.7679 'International Tables Vol C tables 4.2.6.8 and 6.1.1.1'
loop_
_geom_angle_atom_site_label_1
_geom_angle_atom_site_label_2
_geom_angle_atom_site_label_3
_geom_angle_site_symmetry_1
_geom_angle_site_symmetry_2
_geom_angle_site_symmetry_3
_geom_angle
Se Sn Se 4_455 1_555 3_656 88.539
Se Sn Se 4_455 1_555 3_655 80.612
Se Sn Se 3_645 1_555 3_655 80.494
Se Sn Se 3_646 1_555 3_656 95.348
Se Sn Se 3_656 1_555 3_655 91.139
Se Sn Se 4_455 1_555 1_455 156.257
Se Sn Sn 4_455 1_555 3_545 139.274
loop_
_geom_bond_atom_site_label_1
_geom_bond_atom_site_label_2
_geom_bond_site_symmetry_1
_geom_bond_site_symmetry_2
_geom_bond_distance
Sn Se 1_555 4_455 2.742
Sn Se 1_555 3_656 2.856
Sn Se 1_555 3_655 3.269
Sn Se 1_555 1_455 3.551
Sn Sn 1_555 3_545 3.586
Sn Se 1_555 1_454 4.046
loop_
_pd_proc_point_id
_pd_proc_2theta_corrected
_pd_proc_intensity_net
_pd_calc_intensity_net
_pd_proc_ls_weight
1 4.0200 3139.00 3128.19 56.00
2 4.0300 3133.00 3128.98 56.00
3 4.0400 3155.00 3129.77 56.00
4 4.0500 3144.00 3130.57 56.00
5 4.0600 3140.00 3131.37 56.00
6 4.0700 3118.00 3132.18 56.00
7 4.0800 3115.00 3132.99 56.00
8 4.0900 3108.00 3133.80 56.00
9 4.1000 3142.00 3134.62 56.00
10 4.1100 3175.00 3135.45 56.00
11 4.1200 3150.00 3136.28 56.00
12 4.1300 3118.00 3137.11 56.00
13 4.1400 3116.00 3137.95 56.00
14 4.1500 3132.00 3138.79 56.00
15 4.1600 3177.00 3139.64 56.00
16 4.1700 3168.00 3140.49 56.00
17 4.1800 3173.00 3141.35 56.00
18 4.1900 3153.00 3142.21 56.00
19 4.2000 3147.00 3143.07 56.00
20 4.2100 3131.00 3143.94 56.00
21 4.2200 3157.00 3144.82 56.00
22 4.2300 3161.00 3145.69 56.00
23 4.2400 3148.00 3146.57 56.00
24 4.2500 3125.00 3147.46 56.00
25 4.2600 3129.00 3148.35 56.00
26 4.2700 3161.00 3149.25 56.00
27 4.2800 3179.00 3150.15 56.00
28 4.2900 3187.00 3151.05 56.00
29 4.3000 3157.00 3151.96 56.00
30 4.3100 3139.00 3152.87 56.00
31 4.3200 3153.00 3153.79 56.00
32 4.3300 3156.00 3154.71 56.00
33 4.3400 3163.00 3155.64 56.00
34 4.3500 3182.00 3156.57 56.00
35 4.3600 3149.00 3157.50 56.00
36 4.3700 3129.00 3158.44 56.00
37 4.3800 3165.00 3159.39 56.00
38 4.3900 3161.00 3160.34 56.00
39 4.4000 3180.00 3161.29 56.00
40 4.4100 3221.00 3162.25 57.00
41 4.4200 3172.00 3163.22 56.00
42 4.4300 3146.00 3164.19 56.00
43 4.4400 3174.00 3165.17 56.00
44 4.4500 3172.00 3166.15 56.00
45 4.4600 3187.00 3167.14 56.00
46 4.4700 3211.00 3168.14 57.00
47 4.4800 3190.00 3169.14 56.00
48 4.4900 3178.00 3170.15 56.00
49 4.5000 3186.00 3171.17 56.00
50 4.5100 3149.00 3172.19 56.00
51 4.5200 3188.00 3173.22 56.00
52 4.5300 3211.00 3174.27 57.00
53 4.5400 3187.00 3175.32 56.00
54 4.5500 3188.00 3176.38 56.00
55 4.5600 3218.00 3177.45 57.00
56 4.5700 3157.00 3178.53 56.00
57 4.5800 3185.00 3179.63 56.00
58 4.5900 3191.00 3180.74 56.00
59 4.6000 3192.00 3181.87 56.00
60 4.6100 3153.00 3183.01 56.00
61 4.6200 3190.00 3184.17 56.00
62 4.6300 3187.00 3185.35 56.00
63 4.6400 3205.00 3186.56 57.00
64 4.6500 3216.00 3187.79 57.00
65 4.6600 3204.00 3189.05 57.00
66 4.6700 3190.00 3190.35 56.00
67 4.6800 3205.00 3191.69 57.00
68 4.6900 3221.00 3193.07 57.00
69 4.7000 3224.00 3194.51 57.00
70 4.7100 3263.00 3196.00 57.00
71 4.7200 3230.00 3197.57 57.00
72 4.7300 3222.00 3199.23 57.00
73 4.7400 3193.00 3201.00 57.00
74 4.7500 3221.00 3202.89 57.00
75 4.7600 3243.00 3204.94 57.00
76 4.7700 3223.00 3207.19 57.00
77 4.7800 3224.00 3209.69 57.00
78 4.7900 3229.00 3212.50 57.00
79 4.8000 3248.00 3215.72 57.00
80 4.8100 3210.00 3219.49 57.00
81 4.8200 3263.00 3223.98 57.00
82 4.8300 3310.00 3229.49 58.00
83 4.8400 3282.00 3236.44 57.00
84 4.8500 3273.00 3245.53 57.00
85 4.8600 3300.00 3258.25 57.00
86 4.8700 3360.00 3279.90 58.00
87 4.8800 3498.00 3333.46 59.00
88 4.8900 3742.00 3499.60 61.00
89 4.9000 4175.00 3961.49 65.00
90 4.9100 4961.00 4915.73 70.00
91 4.9200 6157.00 6234.65 78.00
92 4.9300 6752.00 7190.12 82.00
93 4.9400 6387.00 6934.34 80.00
94 4.9500 5236.00 5723.02 72.00
95 4.9600 4201.00 4493.49 65.00
96 4.9700 3661.00 3742.05 61.00
97 4.9800 3450.00 3423.01 59.00
98 4.9900 3317.00 3317.72 58.00
99 5.0000 3306.00 3283.60 57.00
100 5.0100 3273.00 3268.64 57.00
101 5.0200 3275.00 3259.67 57.00
102 5.0300 3206.00 3253.57 57.00
103 5.0400 3213.00 3249.30 57.00
104 5.0500 3207.00 3246.28 57.00
105 5.0600 3236.00 3244.15 57.00
106 5.0700 3242.00 3242.67 57.00
107 5.0800 3231.00 3241.68 57.00
108 5.0900 3209.00 3241.05 57.00
109 5.1000 3237.00 3240.72 57.00
110 5.1100 3227.00 3240.61 57.00
111 5.1200 3246.00 3240.68 57.00
112 5.1300 3255.00 3240.89 57.00
113 5.1400 3230.00 3241.22 57.00
114 5.1500 3217.00 3241.65 57.00
115 5.1600 3238.00 3242.16 57.00
116 5.1700 3232.00 3242.74 57.00
117 5.1800 3219.00 3243.37 57.00
118 5.1900 3259.00 3244.06 57.00
119 5.2000 3238.00 3244.78 57.00
120 5.2100 3229.00 3245.54 57.00
121 5.2200 3275.00 3246.34 57.00
122 5.2300 3245.00 3247.67 57.00
123 5.2400 3265.00 3248.52 57.00
124 5.2500 3238.00 3249.39 57.00
125 5.2600 3266.00 3250.28 57.00
126 5.2700 3194.00 3251.18 57.00
127 5.2800 3238.00 3252.10 57.00
128 5.2900 3223.00 3253.04 57.00
129 5.3000 3260.00 3253.98 57.00
130 5.3100 3246.00 3254.94 57.00
131 5.3200 3241.00 3255.90 57.00
132 5.3300 3219.00 3256.88 57.00
133 5.3400 3248.00 3257.86 57.00
134 5.3500 3235.00 3258.85 57.00
135 5.3600 3277.00 3259.84 57.00
136 5.3700 3272.00 3260.84 57.00
137 5.3800 3260.00 3261.85 57.00
138 5.3900 3247.00 3262.86 57.00
139 5.4000 3272.00 3263.88 57.00
140 5.4100 3267.00 3264.90 57.00
141 5.4200 3258.00 3265.92 57.00
142 5.4300 3291.00 3266.95 57.00
143 5.4400 3265.00 3267.98 57.00
144 5.4500 3242.00 3269.02 57.00
145 5.4600 3264.00 3270.06 57.00
146 5.4700 3279.00 3271.10 57.00
147 5.4800 3253.00 3272.14 57.00
148 5.4900 3273.00 3273.19 57.00
149 5.5000 3289.00 3274.23 57.00
150 5.5100 3246.00 3275.28 57.00
151 5.5200 3265.00 3276.34 57.00
152 5.5300 3254.00 3277.39 57.00
153 5.5400 3263.00 3278.44 57.00
154 5.5500 3300.00 3279.50 57.00
155 5.5600 3280.00 3280.56 57.00
156 5.5700 3258.00 3281.62 57.00
157 5.5800 3284.00 3282.68 57.00
158 5.5900 3247.00 3283.74 57.00
159 5.6000 3263.00 3284.81 57.00
160 5.6100 3291.00 3285.87 57.00
161 5.6200 3294.00 3286.94 57.00
162 5.6300 3282.00 3288.00 57.00
163 5.6400 3288.00 3289.07 57.00
164 5.6500 3274.00 3290.14 57.00
165 5.6600 3292.00 3291.21 57.00
166 5.6700 3316.00 3292.28 58.00
167 5.6800 3309.00 3293.35 58.00
168 5.6900 3267.00 3294.42 57.00
169 5.7000 3287.00 3295.50 57.00
170 5.7100 3305.00 3296.57 57.00
171 5.7200 3297.00 3297.64 57.00
172 5.7300 3262.00 3298.72 57.00
173 5.7400 3283.00 3299.79 57.00
174 5.7500 3256.00 3300.87 57.00
175 5.7600 3292.00 3301.94 57.00
176 5.7700 3274.00 3303.02 57.00
177 5.7800 3318.00 3304.10 58.00
178 5.7900 3303.00 3305.17 57.00
179 5.8000 3318.00 3306.25 58.00
180 5.8100 3283.00 3307.33 57.00
181 5.8200 3292.00 3308.41 57.00
182 5.8300 3277.00 3309.49 57.00
183 5.8400 3313.00 3310.57 58.00
184 5.8500 3320.00 3311.65 58.00
185 5.8600 3348.00 3312.73 58.00
186 5.8700 3291.00 3313.81 57.00
187 5.8800 3312.00 3314.89 58.00
188 5.8900 3310.00 3315.97 58.00
189 5.9000 3331.00 3317.05 58.00
190 5.9100 3344.00 3318.13 58.00
191 5.9200 3332.00 3319.22 58.00
192 5.9300 3353.00 3320.30 58.00
193 5.9400 3332.00 3321.38 58.00
194 5.9500 3312.00 3322.47 58.00
195 5.9600 3319.00 3323.55 58.00
196 5.9700 3355.00 3324.63 58.00
197 5.9800 3327.00 3325.72 58.00
198 5.9900 3332.00 3326.80 58.00
199 6.0000 3326.00 3327.89 58.00
200 6.0100 3321.00 3328.98 58.00
201 6.0200 3315.00 3330.06 58.00
202 6.0300 3333.00 3331.97 58.00
203 6.0400 3346.00 3333.88 58.00
204 6.0500 3343.00 3335.78 58.00
205 6.0600 3318.00 3337.69 58.00
206 6.0700 3339.00 3339.60 58.00
207 6.0800 3341.00 3341.51 58.00
208 6.0900 3362.00 3343.42 58.00
209 6.1000 3352.00 3345.33 58.00
210 6.1100 3315.00 3347.25 58.00
211 6.1200 3358.00 3349.16 58.00
212 6.1300 3335.00 3351.07 58.00
213 6.1400 3360.00 3352.99 58.00
214 6.1500 3382.00 3354.91 58.00
215 6.1600 3366.00 3356.82 58.00
216 6.1700 3321.00 3358.54 58.00
217 6.1800 3338.00 3360.47 58.00
218 6.1900 3336.00 3362.39 58.00
219 6.2000 3363.00 3364.32 58.00
220 6.2100 3395.00 3366.24 58.00
221 6.2200 3370.00 3368.17 58.00
222 6.2300 3342.00 3370.10 58.00
223 6.2400 3399.00 3372.04 58.00
224 6.2500 3329.00 3373.97 58.00
225 6.2600 3349.00 3375.91 58.00
226 6.2700 3353.00 3377.85 58.00
227 6.2800 3372.00 3379.79 58.00
228 6.2900 3357.00 3381.73 58.00
229 6.3000 3376.00 3383.68 58.00
230 6.3100 3383.00 3385.63 58.00
231 6.3200 3426.00 3387.59 59.00
232 6.3300 3410.00 3389.54 58.00
233 6.3400 3393.00 3391.51 58.00
234 6.3500 3386.00 3393.47 58.00
235 6.3600 3396.00 3395.44 58.00
236 6.3700 3410.00 3397.42 58.00
237 6.3800 3404.00 3399.40 58.00
238 6.3900 3407.00 3401.39 58.00
239 6.4000 3389.00 3403.38 58.00
240 6.4100 3376.00 3405.38 58.00
241 6.4200 3395.00 3407.38 58.00
242 6.4300 3368.00 3409.40 58.00
243 6.4400 3402.00 3411.42 58.00
244 6.4500 3439.00 3413.45 59.00
245 6.4600 3410.00 3415.49 58.00
246 6.4700 3390.00 3417.55 58.00
247 6.4800 3405.00 3419.61 58.00
248 6.4900 3423.00 3423.58 59.00
249 6.5000 3401.00 3425.69 58.00
250 6.5100 3426.00 3427.82 59.00
251 6.5200 3427.00 3429.96 59.00
252 6.5300 3378.00 3432.13 58.00
253 6.5400 3418.00 3434.31 58.00
254 6.5500 3408.00 3436.51 58.00
255 6.5600 3447.00 3438.74 59.00
256 6.5700 3450.00 3441.00 59.00
257 6.5800 3447.00 3443.28 59.00
258 6.5900 3459.00 3445.60 59.00
259 6.6000 3472.00 3447.95 59.00
260 6.6100 3445.00 3450.34 59.00
261 6.6200 3434.00 3452.77 59.00
262 6.6300 3440.00 3455.25 59.00
263 6.6400 3414.00 3457.79 58.00
264 6.6500 3385.00 3460.38 58.00
265 6.6600 3440.00 3463.05 59.00
266 6.6700 3407.00 3465.79 58.00
267 6.6800 3465.00 3468.61 59.00
268 6.6900 3460.00 3471.54 59.00
269 6.7000 3461.00 3474.57 59.00
270 6.7100 3443.00 3477.73 59.00
271 6.7200 3478.00 3481.94 59.00
272 6.7300 3448.00 3485.43 59.00
273 6.7400 3468.00 3489.11 59.00
274 6.7500 3499.00 3493.02 59.00
275 6.7600 3482.00 3497.20 59.00
276 6.7700 3484.00 3501.69 59.00
277 6.7800 3478.00 3506.56 59.00
278 6.7900 3482.00 3511.87 59.00
279 6.8000 3494.00 3517.73 59.00
280 6.8100 3529.00 3524.24 59.00
281 6.8200 3527.00 3531.57 59.00
282 6.8300 3497.00 3539.90 59.00
283 6.8400 3551.00 3549.50 60.00
284 6.8500 3518.00 3560.70 59.00
285 6.8600 3556.00 3574.00 60.00
286 6.8700 3587.00 3590.05 60.00
287 6.8800 3604.00 3609.88 60.00
288 6.8900 3569.00 3635.30 60.00
289 6.9000 3635.00 3670.19 60.00
290 6.9100 3697.00 3724.03 61.00
291 6.9200 3857.00 3819.10 62.00
292 6.9300 4062.00 4001.01 64.00
293 6.9400 4374.00 4344.11 66.00
294 6.9500 4897.00 4934.37 70.00
295 6.9600 5748.00 5816.09 76.00
296 6.9700 6760.00 6913.31 82.00
297 6.9800 7945.00 7956.26 89.00
298 6.9900 8637.00 8478.90 93.00
299 7.0000 8355.00 8145.00 91.00
300 7.0100 7327.00 7180.30 86.00
301 7.0200 6221.00 6067.13 79.00
302 7.0300 5236.00 5126.65 72.00
303 7.0400 4660.00 4473.70 68.00
304 7.0500 4262.00 4084.48 65.00
305 7.0600 4000.00 3876.61 63.00
306 7.0700 3808.00 3770.29 62.00
307 7.0800 3762.00 3713.30 61.00
308 7.0900 3691.00 3678.90 61.00
309 7.1000 3657.00 3655.48 60.00
310 7.1100 3641.00 3638.27 60.00
311 7.1200 3616.00 3625.17 60.00
312 7.1300 3557.00 3615.02 60.00
313 7.1400 3571.00 3607.09 60.00
314 7.1500 3545.00 3600.87 60.00
315 7.1600 3567.00 3595.99 60.00
316 7.1700 3593.00 3592.17 60.00
317 7.1800 3601.00 3589.21 60.00
318 7.1900 3561.00 3586.94 60.00
319 7.2000 3583.00 3585.24 60.00
320 7.2100 3551.00 3584.00 60.00
321 7.2200 3593.00 3583.17 60.00
322 7.2300 3581.00 3582.66 60.00
323 7.2400 3584.00 3582.43 60.00
324 7.2500 3564.00 3582.44 60.00
325 7.2600 3581.00 3582.66 60.00
326 7.2700 3522.00 3583.06 59.00
327 7.2800 3525.00 3583.61 59.00
328 7.2900 3555.00 3584.30 60.00
329 7.3000 3540.00 3585.11 59.00
330 7.3100 3566.00 3586.02 60.00
331 7.3200 3574.00 3587.03 60.00
332 7.3300 3535.00 3588.12 59.00
333 7.3400 3588.00 3589.29 60.00
334 7.3500 3589.00 3590.53 60.00
335 7.3600 3572.00 3591.83 60.00
336 7.3700 3526.00 3593.18 59.00
337 7.3800 3544.00 3594.59 60.00
338 7.3900 3546.00 3596.05 60.00
339 7.4000 3602.00 3597.55 60.00
340 7.4100 3615.00 3599.09 60.00
341 7.4200 3624.00 3600.67 60.00
342 7.4300 3593.00 3602.29 60.00
343 7.4400 3597.00 3603.94 60.00
344 7.4500 3590.00 3605.62 60.00
345 7.4600 3596.00 3607.34 60.00
346 7.4700 3581.00 3609.09 60.00
347 7.4800 3612.00 3610.87 60.00
348 7.4900 3567.00 3612.68 60.00
349 7.5000 3614.00 3614.52 60.00
350 7.5100 3576.00 3616.39 60.00
351 7.5200 3619.00 3618.28 60.00
352 7.5300 3615.00 3620.20 60.00
353 7.5400 3587.00 3622.16 60.00
354 7.5500 3579.00 3624.14 60.00
355 7.5600 3619.00 3626.15 60.00
356 7.5700 3593.00 3628.20 60.00
357 7.5800 3614.00 3630.27 60.00
358 7.5900 3635.00 3632.38 60.00
359 7.6000 3640.00 3634.52 60.00
360 7.6100 3606.00 3636.70 60.00
361 7.6200 3641.00 3638.91 60.00
362 7.6300 3633.00 3640.72 60.00
363 7.6400 3649.00 3642.58 60.00
364 7.6500 3661.00 3644.48 61.00
365 7.6600 3653.00 3646.42 60.00
366 7.6700 3622.00 3648.41 60.00
367 7.6800 3635.00 3650.46 60.00
368 7.6900 3635.00 3652.55 60.00
369 7.7000 3647.00 3654.71 60.00
370 7.7100 3659.00 3656.93 60.00
371 7.7200 3672.00 3659.21 61.00
372 7.7300 3630.00 3661.57 60.00
373 7.7400 3640.00 3664.01 60.00
374 7.7500 3651.00 3666.53 60.00
375 7.7600 3671.00 3669.14 61.00
376 7.7700 3642.00 3671.86 60.00
377 7.7800 3669.00 3674.68 61.00
378 7.7900 3645.00 3677.63 60.00
379 7.8000 3644.00 3680.71 60.00
380 7.8100 3670.00 3683.93 61.00
381 7.8200 3688.00 3687.31 61.00
382 7.8300 3698.00 3690.86 61.00
383 7.8400 3712.00 3694.62 61.00
384 7.8500 3679.00 3698.58 61.00
385 7.8600 3687.00 3702.80 61.00
386 7.8700 3687.00 3707.28 61.00
387 7.8800 3699.00 3712.07 61.00
388 7.8900 3695.00 3717.20 61.00
389 7.9000 3710.00 3722.72 61.00
390 7.9100 3690.00 3728.69 61.00
391 7.9200 3724.00 3735.15 61.00
392 7.9300 3727.00 3742.20 61.00
393 7.9400 3777.00 3749.91 61.00
394 7.9500 3776.00 3758.40 61.00
395 7.9600 3769.00 3767.79 61.00
396 7.9700 3756.00 3778.23 61.00
397 7.9800 3786.00 3789.92 62.00
398 7.9900 3777.00 3803.09 61.00
399 8.0000 3834.00 3818.04 62.00
400 8.0100 3863.00 3837.77 62.00
401 8.0200 3856.00 3857.53 62.00
402 8.0300 3845.00 3880.53 62.00
403 8.0400 3897.00 3907.57 62.00
404 8.0500 3924.00 3939.71 63.00
405 8.0600 3952.00 3978.38 63.00
406 8.0700 4013.00 4025.58 63.00
407 8.0800 4109.00 4084.13 64.00
408 8.0900 4163.00 4158.42 65.00
409 8.1000 4329.00 4256.51 66.00
410 8.1100 4499.00 4396.31 67.00
411 8.1200 4851.00 4622.27 70.00
412 8.1300 5463.00 5038.25 74.00
413 8.1400 6246.00 5849.31 79.00
414 8.1500 7707.00 7365.98 88.00
415 8.1600 10016.00 9894.17 100.00
416 8.1700 13316.00 13474.80 115.00
417 8.1800 17409.00 17554.20 132.00
418 8.1900 20527.00 20716.30 143.00
419 8.2000 20615.00 21109.80 144.00
420 8.2100 17770.00 18451.30 133.00
421 8.2200 13799.00 14439.30 117.00
422 8.2300 10219.00 10683.70 101.00
423 8.2400 7691.00 7918.85 88.00
424 8.2500 6231.00 6211.92 79.00
425 8.2600 5366.00 5291.27 73.00
426 8.2700 4858.00 4832.93 70.00
427 8.2800 4608.00 4606.55 68.00
428 8.2900 4436.00 4511.49 67.00
429 8.3000 4420.00 4455.22 66.00
430 8.3100 4440.00 4444.73 67.00
431 8.3200 4543.00 4491.12 67.00
432 8.3300 4683.00 4638.79 68.00
433 8.3400 5116.00 4984.31 72.00
434 8.3500 5758.00 5679.60 76.00
435 8.3600 6882.00 6876.51 83.00
436 8.3700 8474.00 8594.06 92.00
437 8.3800 10255.00 10546.70 101.00
438 8.3900 11631.00 12008.80 108.00
439 8.4000 11945.00 12068.30 109.00
440 8.4100 10693.00 10670.70 103.00
441 8.4200 8807.00 8700.01 94.00
442 8.4300 7047.00 6918.34 84.00
443 8.4400 5796.00 5644.11 76.00
444 8.4500 4962.00 4876.44 70.00
445 8.4600 4541.00 4467.09 67.00
446 8.4700 4264.00 4258.65 65.00
447 8.4800 4130.00 4146.35 64.00
448 8.4900 4045.00 4077.24 64.00
449 8.5000 3988.00 4028.99 63.00
450 8.5100 3945.00 4002.26 63.00
451 8.5200 3914.00 3974.00 63.00
452 8.5300 3889.00 3951.49 62.00
453 8.5400 3898.00 3933.33 62.00
454 8.5500 3877.00 3918.51 62.00
455 8.5600 3894.00 3906.33 62.00
456 8.5700 3889.00 3896.25 62.00
457 8.5800 3890.00 3887.87 62.00
458 8.5900 3854.00 3880.88 62.00
459 8.6000 3870.00 3875.04 62.00
460 8.6100 3863.00 3870.18 62.00
461 8.6200 3843.00 3866.13 62.00
462 8.6300 3842.00 3862.78 62.00
463 8.6400 3843.00 3860.03 62.00
464 8.6500 3861.00 3857.80 62.00
465 8.6600 3840.00 3856.03 62.00
466 8.6700 3883.00 3854.65 62.00
467 8.6800 3867.00 3853.64 62.00
468 8.6900 3833.00 3852.95 62.00
469 8.7000 3836.00 3852.54 62.00
470 8.7100 3811.00 3852.39 62.00
471 8.7200 3888.00 3852.48 62.00
472 8.7300 3889.00 3852.79 62.00
473 8.7400 3904.00 3853.30 62.00
474 8.7500 3837.00 3854.00 62.00
475 8.7600 3872.00 3854.37 62.00
476 8.7700 3863.00 3855.42 62.00
477 8.7800 3901.00 3856.63 62.00
478 8.7900 3909.00 3857.98 63.00
479 8.8000 3908.00 3859.49 63.00
480 8.8100 3864.00 3861.13 62.00
481 8.8200 3880.00 3862.90 62.00
482 8.8300 3845.00 3864.82 62.00
483 8.8400 3896.00 3866.86 62.00
484 8.8500 3886.00 3869.03 62.00
485 8.8600 3896.00 3871.34 62.00
486 8.8700 3880.00 3873.77 62.00
487 8.8800 3929.00 3875.97 63.00
488 8.8900 3932.00 3878.30 63.00
489 8.9000 3947.00 3880.77 63.00
490 8.9100 3948.00 3883.38 63.00
491 8.9200 3925.00 3886.13 63.00
492 8.9300 3911.00 3889.02 63.00
493 8.9400 3947.00 3892.06 63.00
494 8.9500 3942.00 3895.26 63.00
495 8.9600 3978.00 3898.63 63.00
496 8.9700 4004.00 3902.16 63.00
497 8.9800 3977.00 3905.88 63.00
498 8.9900 3953.00 3909.78 63.00
499 9.0000 3969.00 3913.89 63.00
500 9.0100 3995.00 3918.20 63.00
501 9.0200 4005.00 3922.74 63.00
502 9.0300 4047.00 3927.51 64.00
503 9.0400 4035.00 3932.55 64.00
504 9.0500 4033.00 3937.85 64.00
505 9.0600 4021.00 3943.46 63.00
506 9.0700 4041.00 3949.38 64.00
507 9.0800 4068.00 3955.64 64.00
508 9.0900 4104.00 3962.28 64.00
509 9.1000 4085.00 3969.33 64.00
510 9.1100 4025.00 3976.82 63.00
511 9.1200 4064.00 3984.80 64.00
512 9.1300 4036.00 3993.32 64.00
513 9.1400 4083.00 4002.44 64.00
514 9.1500 4102.00 4012.22 64.00
515 9.1600 4113.00 4022.75 64.00
516 9.1700 4130.00 4034.10 64.00
517 9.1800 4152.00 4046.40 64.00
518 9.1900 4200.00 4059.76 65.00
519 9.2000 4231.00 4074.35 65.00
520 9.2100 4252.00 4090.34 65.00
521 9.2200 4260.00 4107.95 65.00
522 9.2300 4244.00 4127.47 65.00
523 9.2400 4293.00 4149.25 66.00
524 9.2500 4305.00 4173.69 66.00
525 9.2600 4331.00 4201.37 66.00
526 9.2700 4393.00 4232.98 66.00
527 9.2800 4388.00 4269.46 66.00
528 9.2900 4377.00 4312.04 66.00
529 9.3000 4496.00 4362.41 67.00
530 9.3100 4505.00 4422.90 67.00
531 9.3200 4607.00 4496.82 68.00
532 9.3300 4724.00 4589.05 69.00
533 9.3400 4788.00 4707.18 69.00
534 9.3500 4984.00 4865.19 71.00
535 9.3600 5324.00 5097.55 73.00
536 9.3700 5739.00 5507.07 76.00
537 9.3800 6809.00 6380.04 83.00
538 9.3900 8765.00 8330.31 94.00
539 9.4000 12272.00 12211.70 111.00
540 9.4100 18098.00 18438.00 135.00
541 9.4200 25845.00 25812.00 161.00
542 9.4300 30932.00 30647.90 176.00
543 9.4400 29509.00 28946.50 172.00
544 9.4500 22578.00 22316.10 150.00
545 9.4600 15224.00 15277.40 123.00
546 9.4700 10250.00 10254.30 101.00
547 9.4800 7604.00 7499.04 87.00
548 9.4900 6337.00 6253.87 80.00
549 9.5000 5755.00 5742.15 76.00
550 9.5100 5543.00 5525.50 74.00
551 9.5200 5402.00 5428.50 73.00
552 9.5300 5323.00 5393.18 73.00
553 9.5400 5375.00 5400.19 73.00
554 9.5500 5383.00 5441.82 73.00
555 9.5600 5518.00 5514.97 74.00
556 9.5700 5621.00 5619.28 75.00
557 9.5800 5715.00 5756.69 76.00
558 9.5900 5838.00 5931.29 76.00
559 9.6000 6080.00 6149.66 78.00
560 9.6100 6268.00 6421.44 79.00
561 9.6200 6613.00 6760.52 81.00
562 9.6300 6994.00 7186.71 84.00
563 9.6400 7454.00 7728.72 86.00
564 9.6500 8088.00 8429.40 90.00
565 9.6600 9157.00 9358.59 96.00
566 9.6700 10655.00 10654.80 103.00
567 9.6800 13459.00 12678.00 116.00
568 9.6900 18309.00 16463.10 135.00
569 9.7000 27037.00 24628.70 164.00
570 9.7100 43092.00 42137.50 208.00
571 9.7200 73170.00 74838.70 270.00
572 9.7300 120102.00 123884.00 347.00
573 9.7400 177546.00 177735.00 421.00
574 9.7500 209909.00 207368.00 458.00
575 9.7600 191052.00 187793.00 437.00
576 9.7700 137425.00 136566.00 371.00
577 9.7800 84306.00 85321.70 290.00
578 9.7900 48836.00 49349.80 221.00
579 9.8000 30043.00 29650.30 173.00
580 9.8100 21820.00 20984.60 148.00
581 9.8200 19665.00 18596.50 140.00
582 9.8300 22086.00 21156.20 149.00
583 9.8400 31028.00 30762.70 176.00
584 9.8500 49272.00 50501.60 222.00
585 9.8600 78300.00 79191.20 280.00
586 9.8700 105026.00 105721.00 324.00
587 9.8800 110162.00 110321.00 332.00
588 9.8900 90733.00 88122.70 301.00
589 9.9000 58737.00 57401.70 242.00
590 9.9100 32541.00 33032.50 180.00
591 9.9200 18320.00 18871.50 135.00
592 9.9300 11815.00 12254.00 109.00
593 9.9400 8770.00 9425.01 94.00
594 9.9500 7252.00 8081.52 85.00
595 9.9600 6405.00 7283.47 80.00
596 9.9700 5925.00 6724.69 77.00
597 9.9800 5622.00 6303.22 75.00
598 9.9900 5412.00 5973.93 74.00
599 10.0000 5259.00 5710.73 73.00
600 10.0100 5079.00 5496.48 71.00
601 10.0200 4969.00 5319.37 70.00
602 10.0300 4851.00 5171.02 70.00
603 10.0400 4811.00 5045.30 69.00
604 10.0500 4787.00 4937.69 69.00
605 10.0600 4729.00 4844.75 69.00
606 10.0700 4650.00 4763.86 68.00
607 10.0800 4614.00 4692.06 68.00
608 10.0900 4522.00 4629.52 67.00
609 10.1000 4536.00 4574.04 67.00
610 10.1100 4524.00 4524.58 67.00
611 10.1200 4474.00 4480.26 67.00
612 10.1300 4415.00 4440.40 66.00
613 10.1400 4445.00 4404.39 67.00
614 10.1500 4364.00 4371.76 66.00
615 10.1600 4385.00 4342.08 66.00
616 10.1700 4371.00 4315.01 66.00
617 10.1800 4367.00 4290.29 66.00
618 10.1900 4279.00 4267.58 65.00
619 10.2000 4326.00 4247.51 66.00
620 10.2100 4304.00 4228.28 66.00
621 10.2200 4325.00 4210.52 66.00
622 10.2300 4290.00 4194.08 65.00
623 10.2400 4275.00 4178.85 65.00
624 10.2500 4251.00 4164.71 65.00
625 10.2600 4253.00 4151.55 65.00
626 10.2700 4246.00 4139.29 65.00
627 10.2800 4249.00 4127.86 65.00
628 10.2900 4244.00 4117.18 65.00
629 10.3000 4221.00 4107.19 65.00
630 10.3100 4209.00 4097.83 65.00
631 10.3200 4203.00 4089.06 65.00
632 10.3300 4154.00 4080.82 64.00
633 10.3400 4154.00 4073.09 64.00
634 10.3500 4191.00 4065.81 65.00
635 10.3600 4154.00 4068.29 64.00
636 10.3700 4129.00 4061.95 64.00
637 10.3800 4121.00 4055.98 64.00
638 10.3900 4093.00 4050.35 64.00
639 10.4000 4126.00 4045.04 64.00
640 10.4100 4126.00 4040.04 64.00
641 10.4200 4136.00 4035.32 64.00
642 10.4300 4100.00 4030.87 64.00
643 10.4400 4098.00 4026.66 64.00
644 10.4500 4061.00 4022.69 64.00
645 10.4600 4097.00 4018.94 64.00
646 10.4700 4109.00 4015.40 64.00
647 10.4800 4074.00 4012.92 64.00
648 10.4900 4044.00 4009.77 64.00
649 10.5000 4046.00 4006.81 64.00
650 10.5100 4051.00 4004.02 64.00
651 10.5200 4066.00 4001.40 64.00
652 10.5300 4051.00 3998.95 64.00
653 10.5400 4010.00 3996.67 63.00
654 10.5500 4020.00 3994.56 63.00
655 10.5600 4030.00 3992.63 63.00
656 10.5700 3992.00 3990.93 63.00
657 10.5800 4029.00 3989.56 63.00
658 10.5900 4014.00 3988.81 63.00
659 10.6000 4050.00 3989.33 64.00
660 10.6100 4019.00 3992.12 63.00
661 10.6200 4022.00 3998.12 63.00
662 10.6300 4000.00 4007.14 63.00
663 10.6400 4036.00 4016.49 64.00
664 10.6500 4033.00 4020.33 64.00
665 10.6600 4040.00 4014.46 64.00
666 10.6700 3984.00 4002.73 63.00
667 10.6800 4003.00 3991.07 63.00
668 10.6900 4009.00 3982.34 63.00
669 10.7000 3978.00 3976.83 63.00
670 10.7100 4009.00 3973.62 63.00
671 10.7200 3987.00 3971.67 63.00
672 10.7300 3956.00 3970.33 63.00
673 10.7400 3960.00 3969.27 63.00
674 10.7500 3970.00 3968.38 63.00
675 10.7600 3972.00 3967.61 63.00
676 10.7700 4022.00 3966.92 63.00
677 10.7800 3995.00 3966.32 63.00
678 10.7900 3937.00 3965.79 63.00
679 10.8000 3977.00 3965.32 63.00
680 10.8100 3956.00 3964.91 63.00
681 10.8200 3998.00 3964.56 63.00
682 10.8300 3996.00 3964.25 63.00
683 10.8400 3957.00 3964.00 63.00
684 10.8500 3943.00 3963.79 63.00
685 10.8600 3972.00 3963.62 63.00
686 10.8700 3930.00 3960.92 63.00
687 10.8800 3959.00 3960.88 63.00
688 10.8900 3980.00 3960.87 63.00
689 10.9000 3963.00 3960.90 63.00
690 10.9100 3982.00 3960.97 63.00
691 10.9200 3987.00 3961.07 63.00
692 10.9300 3903.00 3961.21 62.00
693 10.9400 3935.00 3961.39 63.00
694 10.9500 3970.00 3961.60 63.00
695 10.9600 3984.00 3961.84 63.00
696 10.9700 3940.00 3962.12 63.00
697 10.9800 3956.00 3962.44 63.00
698 10.9900 3922.00 3962.78 63.00
699 11.0000 3940.00 3963.16 63.00
700 11.0100 3933.00 3963.57 63.00
701 11.0200 3914.00 3964.02 63.00
702 11.0300 3892.00 3964.50 62.00
703 11.0400 3936.00 3965.01 63.00
704 11.0500 3924.00 3965.56 63.00
705 11.0600 3956.00 3966.14 63.00
706 11.0700 3960.00 3966.75 63.00
707 11.0800 3958.00 3967.40 63.00
708 11.0900 3919.00 3968.08 63.00
709 11.1000 3966.00 3967.88 63.00
710 11.1100 3938.00 3967.70 63.00
711 11.1200 3927.00 3967.57 63.00
712 11.1300 3928.00 3967.47 63.00
713 11.1400 3928.00 3970.44 63.00
714 11.1500 3917.00 3970.44 63.00
715 11.1600 3934.00 3970.48 63.00
716 11.1700 3882.00 3970.57 62.00
717 11.1800 3905.00 3970.69 62.00
718 11.1900 3935.00 3970.86 63.00
719 11.2000 3907.00 3971.07 63.00
720 11.2100 3893.00 3971.33 62.00
721 11.2200 3898.00 3950.80 62.00
722 11.2300 3861.00 3951.44 62.00
723 11.2400 3899.00 3952.12 62.00
724 11.2500 3911.00 3943.42 63.00
725 11.2600 3885.00 3944.33 62.00
726 11.2700 3882.00 3945.29 62.00
727 11.2800 3922.00 3946.30 63.00
728 11.2900 3879.00 3947.37 62.00
729 11.3000 3920.00 3948.50 63.00
730 11.3100 3923.00 3949.68 63.00
731 11.3200 3926.00 3950.93 63.00
732 11.3300 3880.00 3952.25 62.00
733 11.3400 3902.00 3953.64 62.00
734 11.3500 3897.00 3955.11 62.00
735 11.3600 3903.00 3956.66 62.00
736 11.3700 3906.00 3958.30 62.00
737 11.3800 3907.00 3960.03 63.00
738 11.3900 3898.00 3961.85 62.00
739 11.4000 3928.00 3963.79 63.00
740 11.4100 3872.00 3965.83 62.00
741 11.4200 3932.00 3967.99 63.00
742 11.4300 3931.00 3970.28 63.00
743 11.4400 3930.00 3972.71 63.00
744 11.4500 3915.00 3975.28 63.00
745 11.4600 3911.00 3978.01 63.00
746 11.4700 3901.00 3980.91 62.00
747 11.4800 3964.00 3984.00 63.00
748 11.4900 3934.00 3987.28 63.00
749 11.5000 3985.00 3990.77 63.00
750 11.5100 3946.00 3994.49 63.00
751 11.5200 3938.00 3998.46 63.00
752 11.5300 3919.00 4002.70 63.00
753 11.5400 3954.00 4007.24 63.00
754 11.5500 3971.00 4012.10 63.00
755 11.5600 3946.00 4017.30 63.00
756 11.5700 3972.00 4022.83 63.00
757 11.5800 3957.00 4028.84 63.00
758 11.5900 3961.00 4035.31 63.00
759 11.6000 3985.00 4042.29 63.00
760 11.6100 4034.00 4049.83 64.00
761 11.6200 4019.00 4057.99 63.00
762 11.6300 3981.00 4066.83 63.00
763 11.6400 4000.00 4076.45 63.00
764 11.6500 4021.00 4086.92 63.00
765 11.6600 4034.00 4098.36 64.00
766 11.6700 4058.00 4110.87 64.00
767 11.6800 4064.00 4124.61 64.00
768 11.6900 4034.00 4139.73 64.00
769 11.7000 4066.00 4156.44 64.00
770 11.7100 4055.00 4174.95 64.00
771 11.7200 4081.00 4195.55 64.00
772 11.7300 4131.00 4218.57 64.00
773 11.7400 4150.00 4244.42 64.00
774 11.7500 4125.00 4273.61 64.00
775 11.7600 4176.00 4306.83 65.00
776 11.7700 4195.00 4345.06 65.00
777 11.7800 4271.00 4389.98 65.00
778 11.7900 4335.00 4444.69 66.00
779 11.8000 4393.00 4514.72 66.00
780 11.8100 4426.00 4608.34 67.00
781 11.8200 4571.00 4734.33 68.00
782 11.8300 4718.00 4896.60 69.00
783 11.8400 4922.00 5086.22 70.00
784 11.8500 5107.00 5273.64 71.00
785 11.8600 5226.00 5419.26 72.00
786 11.8700 5302.00 5527.15 73.00
787 11.8800 5446.00 5650.98 74.00
788 11.8900 5583.00 5841.58 75.00
789 11.9000 5992.00 6136.81 77.00
790 11.9100 6511.00 6581.38 81.00
791 11.9200 7414.00 7268.51 86.00
792 11.9300 8737.00 8429.20 93.00
793 11.9400 11169.00 10575.30 106.00
794 11.9500 15142.00 14660.90 123.00
795 11.9600 22288.00 21991.80 149.00
796 11.9700 33531.00 33591.40 183.00
797 11.9800 48413.00 48949.40 220.00
798 11.9900 63643.00 64459.50 252.00
799 12.0000 72789.00 72611.60 270.00
800 12.0100 68124.00 67328.00 261.00
801 12.0200 53662.00 52616.70 232.00
802 12.0300 36875.00 36641.60 192.00
803 12.0400 24001.00 23996.90 155.00
804 12.0500 15907.00 15762.30 126.00
805 12.0600 11247.00 11111.00 106.00
806 12.0700 8617.00 8682.23 93.00
807 12.0800 7087.00 7394.85 84.00
808 12.0900 6189.00 6637.21 79.00
809 12.1000 5635.00 6130.26 75.00
810 12.1100 5243.00 5759.18 72.00
811 12.1200 4993.00 5474.18 71.00
812 12.1300 4812.00 5249.50 69.00
813 12.1400 4685.00 5069.20 68.00
814 12.1500 4610.00 4922.43 68.00
815 12.1600 4514.00 4801.43 67.00
816 12.1700 4395.00 4700.56 66.00
817 12.1800 4345.00 4615.66 66.00
818 12.1900 4311.00 4543.56 66.00
819 12.2000 4287.00 4481.83 65.00
820 12.2100 4257.00 4428.59 65.00
821 12.2200 4216.00 4382.39 65.00
822 12.2300 4175.00 4342.06 65.00
823 12.2400 4175.00 4306.65 65.00
824 12.2500 4110.00 4275.42 64.00
825 12.2600 4149.00 4247.75 64.00
826 12.2700 4159.00 4223.13 64.00
827 12.2800 4108.00 4201.15 64.00
828 12.2900 4072.00 4182.43 64.00
829 12.3000 4107.00 4164.74 64.00
830 12.3100 4073.00 4148.80 64.00
831 12.3200 4114.00 4134.40 64.00
832 12.3300 4103.00 4121.36 64.00
833 12.3400 4096.00 4109.53 64.00
834 12.3500 4037.00 4098.77 64.00
835 12.3600 4035.00 4088.99 64.00
836 12.3700 4009.00 4080.08 63.00
837 12.3800 4049.00 4071.95 64.00
838 12.3900 4063.00 4064.54 64.00
839 12.4000 4058.00 4057.77 64.00
840 12.4100 4038.00 4051.59 64.00
841 12.4200 4062.00 4045.96 64.00
842 12.4300 4028.00 4040.82 63.00
843 12.4400 4044.00 4036.14 64.00
844 12.4500 4064.00 4031.90 64.00
845 12.4600 4050.00 4028.05 64.00
846 12.4700 4016.00 4024.57 63.00
847 12.4800 4019.00 4021.44 63.00
848 12.4900 4008.00 4018.64 63.00
849 12.5000 4041.00 4016.15 64.00
850 12.5100 4074.00 4013.96 64.00
851 12.5200 4056.00 4012.05 64.00
852 12.5300 3997.00 4010.42 63.00
853 12.5400 4031.00 4009.05 63.00
854 12.5500 4004.00 4007.94 63.00
855 12.5600 4028.00 4007.07 63.00
856 12.5700 4035.00 4006.46 64.00
857 12.5800 3988.00 4006.09 63.00
858 12.5900 4000.00 4005.96 63.00
859 12.6000 4002.00 4006.08 63.00
860 12.6100 3982.00 4006.44 63.00
861 12.6200 4025.00 4007.05 63.00
862 12.6300 4075.00 4007.91 64.00
863 12.6400 4025.00 4009.03 63.00
864 12.6500 3991.00 4010.41 63.00
865 12.6600 4026.00 4012.07 63.00
866 12.6700 4043.00 4014.02 64.00
867 12.6800 4044.00 4016.27 64.00
868 12.6900 4056.00 4018.84 64.00
869 12.7000 4046.00 4021.75 64.00
870 12.7100 4039.00 4025.02 64.00
871 12.7200 4065.00 4028.67 64.00
872 12.7300 4006.00 4032.74 63.00
873 12.7400 4078.00 4037.25 64.00
874 12.7500 4086.00 4042.25 64.00
875 12.7600 4063.00 4047.78 64.00
876 12.7700 4024.00 4053.89 63.00
877 12.7800 4074.00 4060.65 64.00
878 12.7900 4063.00 4068.11 64.00
879 12.8000 4097.00 4076.36 64.00
880 12.8100 4133.00 4085.49 64.00
881 12.8200 4107.00 4095.61 64.00
882 12.8300 4058.00 4106.85 64.00
883 12.8400 4126.00 4119.36 64.00
884 12.8500 4104.00 4133.31 64.00
885 12.8600 4130.00 4148.91 64.00
886 12.8700 4173.00 4166.43 65.00
887 12.8800 4167.00 4186.16 65.00
888 12.8900 4164.00 4208.49 65.00
889 12.9000 4181.00 4233.87 65.00
890 12.9100 4217.00 4262.90 65.00
891 12.9200 4271.00 4296.34 65.00
892 12.9300 4336.00 4335.25 66.00
893 12.9400 4376.00 4381.20 66.00
894 12.9500 4386.00 4436.71 66.00
895 12.9600 4499.00 4505.86 67.00
896 12.9700 4611.00 4595.57 68.00
897 12.9800 4720.00 4717.18 69.00
898 12.9900 4925.00 4888.54 70.00
899 13.0000 5154.00 5135.81 72.00
900 13.0100 5459.00 5494.19 74.00
901 13.0200 5899.00 6005.95 77.00
902 13.0300 6489.00 6714.59 81.00
903 13.0400 7363.00 7654.86 86.00
904 13.0500 8479.00 8838.65 92.00
905 13.0600 9711.00 10239.60 99.00
906 13.0700 11249.00 11775.90 106.00
907 13.0800 12916.00 13291.60 114.00
908 13.0900 14396.00 14544.10 120.00
909 13.1000 15280.00 15241.80 124.00
910 13.1100 15241.00 15178.00 123.00
911 13.1200 14274.00 14378.00 119.00
912 13.1300 12723.00 13079.60 113.00
913 13.1400 11233.00 11572.50 106.00
914 13.1500 9758.00 10083.70 99.00
915 13.1600 8633.00 8753.84 93.00
916 13.1700 7672.00 7653.44 88.00
917 13.1800 7018.00 6801.56 84.00
918 13.1900 6469.00 6182.90 80.00
919 13.2000 6100.00 5763.64 78.00
920 13.2100 5868.00 5505.89 77.00
921 13.2200 5790.00 5378.01 76.00
922 13.2300 5800.00 5360.93 76.00
923 13.2400 5857.00 5450.16 77.00
924 13.2500 5963.00 5654.20 77.00
925 13.2600 6314.00 5989.74 79.00
926 13.2700 6667.00 6474.11 82.00
927 13.2800 7372.00 7115.63 86.00
928 13.2900 8127.00 7903.33 90.00
929 13.3000 9040.00 8795.58 95.00
930 13.3100 9986.00 9708.16 100.00
931 13.3200 10900.00 10507.50 104.00
932 13.3300 11367.00 11008.80 107.00
933 13.3400 11330.00 11067.30 106.00
934 13.3500 10701.00 10664.80 103.00
935 13.3600 9643.00 9927.60 98.00
936 13.3700 8566.00 9035.20 93.00
937 13.3800 7632.00 8136.56 87.00
938 13.3900 6888.00 7327.07 83.00
939 13.4000 6341.00 6656.47 80.00
940 13.4100 5968.00 6140.69 77.00
941 13.4200 5697.00 5772.91 75.00
942 13.4300 5504.00 5533.06 74.00
943 13.4400 5424.00 5396.57 74.00
944 13.4500 5417.00 5340.74 74.00
945 13.4600 5485.00 5348.95 74.00
946 13.4700 5597.00 5413.00 75.00
947 13.4800 5738.00 5535.31 76.00
948 13.4900 6011.00 5732.66 78.00
949 13.5000 6405.00 6042.17 80.00
950 13.5100 6906.00 6529.32 83.00
951 13.5200 7737.00 7293.84 88.00
952 13.5300 8943.00 8466.67 95.00
953 13.5400 10417.00 10190.10 102.00
954 13.5500 12530.00 12575.30 112.00
955 13.5600 15521.00 15642.40 125.00
956 13.5700 18955.00 19248.70 138.00
957 13.5800 23094.00 23007.40 152.00
958 13.5900 26585.00 26210.90 163.00
959 13.6000 28388.00 27944.50 168.00
960 13.6100 27929.00 27668.80 167.00
961 13.6200 26039.00 25822.70 161.00
962 13.6300 23164.00 23529.60 152.00
963 13.6400 21258.00 21822.90 146.00
964 13.6500 20536.00 21193.50 143.00
965 13.6600 20875.00 21429.20 144.00
966 13.6700 20870.00 21428.60 144.00
967 13.6800 19645.00 19820.90 140.00
968 13.6900 16583.00 16651.50 129.00
969 13.7000 12980.00 13157.90 114.00
970 13.7100 9983.00 10229.90 100.00
971 13.7200 7968.00 8147.94 89.00
972 13.7300 6642.00 6837.65 81.00
973 13.7400 5901.00 6060.88 77.00
974 13.7500 5365.00 5603.10 73.00
975 13.7600 5082.00 5314.30 71.00
976 13.7700 4908.00 5113.47 70.00
977 13.7800 4781.00 4962.98 69.00
978 13.7900 4644.00 4843.47 68.00
979 13.8000 4626.00 4748.20 68.00
980 13.8100 4535.00 4671.06 67.00
981 13.8200 4510.00 4608.57 67.00
982 13.8300 4534.00 4558.31 67.00
983 13.8400 4489.00 4518.68 67.00
984 13.8500 4457.00 4488.69 67.00
985 13.8600 4460.00 4467.91 67.00
986 13.8700 4477.00 4456.53 67.00
987 13.8800 4466.00 4455.45 67.00
988 13.8900 4559.00 4466.74 68.00
989 13.9000 4572.00 4494.77 68.00
990 13.9100 4618.00 4549.33 68.00
991 13.9200 4832.00 4652.80 70.00
992 13.9300 5018.00 4852.23 71.00
993 13.9400 5433.00 5229.89 74.00
994 13.9500 6132.00 5893.66 78.00
995 13.9600 7099.00 6924.76 84.00
996 13.9700 8354.00 8281.99 91.00
997 13.9800 9775.00 9673.50 99.00
998 13.9900 10467.00 10464.00 102.00
999 14.0000 10329.00 10097.00 102.00
1000 14.0100 9204.00 8867.05 96.00
1001 14.0200 7702.00 7463.37 88.00
1002 14.0300 6486.00 6294.19 81.00
1003 14.0400 5721.00 5477.28 76.00
1004 14.0500 5123.00 4969.35 72.00
1005 14.0600 4850.00 4670.14 70.00
1006 14.0700 4691.00 4490.27 68.00
1007 14.0800 4560.00 4373.84 68.00
1008 14.0900 4418.00 4292.40 66.00
1009 14.1000 4384.00 4232.45 66.00
1010 14.1100 4300.00 4187.05 66.00
1011 14.1200 4291.00 4151.95 66.00
1012 14.1300 4322.00 4124.24 66.00
1013 14.1400 4297.00 4101.89 66.00
1014 14.1500 4250.00 4083.48 65.00
1015 14.1600 4255.00 4068.03 65.00
1016 14.1700 4212.00 4054.86 65.00
1017 14.1800 4224.00 4043.51 65.00
1018 14.1900 4265.00 4033.64 65.00
1019 14.2000 4265.00 4024.99 65.00
1020 14.2100 4209.00 4017.36 65.00
1021 14.2200 4218.00 4010.62 65.00
1022 14.2300 4169.00 4004.64 65.00
1023 14.2400 4218.00 3999.33 65.00
1024 14.2500 4192.00 3994.60 65.00
1025 14.2600 4171.00 3990.40 65.00
1026 14.2700 4147.00 3986.67 64.00
1027 14.2800 4162.00 3983.38 65.00
1028 14.2900 4194.00 3980.49 65.00
1029 14.3000 4208.00 3978.00 65.00
1030 14.3100 4209.00 3975.87 65.00
1031 14.3200 4195.00 3974.11 65.00
1032 14.3300 4190.00 3972.73 65.00
1033 14.3400 4168.00 3971.77 65.00
1034 14.3500 4137.00 3971.28 64.00
1035 14.3600 4179.00 3971.42 65.00
1036 14.3700 4191.00 3972.42 65.00
1037 14.3800 4183.00 3974.75 65.00
1038 14.3900 4159.00 3979.08 64.00
1039 14.4000 4208.00 3986.38 65.00
1040 14.4100 4170.00 3997.80 65.00
1041 14.4200 4243.00 4014.38 65.00
1042 14.4300 4263.00 4036.71 65.00
1043 14.4400 4321.00 4064.30 66.00
1044 14.4500 4295.00 4095.04 66.00
1045 14.4600 4363.00 4124.37 66.00
1046 14.4700 4364.00 4145.05 66.00
1047 14.4800 4384.00 4156.41 66.00
1048 14.4900 4376.00 4143.23 66.00
1049 14.5000 4331.00 4117.70 66.00
1050 14.5100 4293.00 4087.73 66.00
1051 14.5200 4264.00 4059.17 65.00
1052 14.5300 4207.00 4035.18 65.00
1053 14.5400 4244.00 4016.92 65.00
1054 14.5500 4243.00 4004.22 65.00
1055 14.5600 4217.00 3996.20 65.00
1056 14.5700 4172.00 3991.73 65.00
1057 14.5800 4214.00 3989.74 65.00
1058 14.5900 4181.00 3989.44 65.00
1059 14.6000 4229.00 3990.29 65.00
1060 14.6100 4239.00 3991.96 65.00
1061 14.6200 4246.00 3994.29 65.00
1062 14.6300 4184.00 3997.22 65.00
1063 14.6400 4264.00 4000.74 65.00
1064 14.6500 4223.00 4004.81 65.00
1065 14.6600 4225.00 4009.49 65.00
1066 14.6700 4250.00 4014.85 65.00
1067 14.6800 4260.00 4020.95 65.00
1068 14.6900 4220.00 4027.91 65.00
1069 14.7000 4239.00 4035.84 65.00
1070 14.7100 4239.00 4044.93 65.00
1071 14.7200 4258.00 4055.42 65.00
1072 14.7300 4322.00 4067.61 66.00
1073 14.7400 4285.00 4081.97 65.00
1074 14.7500 4262.00 4099.21 65.00
1075 14.7600 4340.00 4120.72 66.00
1076 14.7700 4362.00 4149.82 66.00
1077 14.7800 4416.00 4194.73 66.00
1078 14.7900 4517.00 4272.80 67.00
1079 14.8000 4623.00 4411.15 68.00
1080 14.8100 4814.00 4634.07 69.00
1081 14.8200 5116.00 4934.04 72.00
1082 14.8300 5364.00 5233.24 73.00
1083 14.8400 5464.00 5369.17 74.00
1084 14.8500 5426.00 5256.52 74.00
1085 14.8600 5259.00 5031.80 73.00
1086 14.8700 5031.00 4849.52 71.00
1087 14.8800 5009.00 4779.01 71.00
1088 14.8900 5049.00 4836.79 71.00
1089 14.9000 5314.00 5025.21 73.00
1090 14.9100 5703.00 5356.66 76.00
1091 14.9200 6190.00 5855.74 79.00
1092 14.9300 6851.00 6544.38 83.00
1093 14.9400 7818.00 7421.25 88.00
1094 14.9500 8836.00 8438.82 94.00
1095 14.9600 10032.00 9476.41 100.00
1096 14.9700 10932.00 10322.60 105.00
1097 14.9800 11176.00 10734.10 106.00
1098 14.9900 10801.00 10627.30 104.00
1099 15.0000 10225.00 10181.20 101.00
1100 15.0100 9506.00 9677.97 97.00
1101 15.0200 9193.00 9323.66 96.00
1102 15.0300 9211.00 9206.00 96.00
1103 15.0400 9457.00 9307.02 97.00
1104 15.0500 9775.00 9516.33 99.00
1105 15.0600 9977.00 9653.68 100.00
1106 15.0700 9666.00 9540.90 98.00
1107 15.0800 9125.00 9111.77 96.00
1108 15.0900 8290.00 8444.43 91.00
1109 15.1000 7486.00 7678.03 87.00
1110 15.1100 6684.00 6928.34 82.00
1111 15.1200 6086.00 6265.51 78.00
1112 15.1300 5631.00 5722.13 75.00
1113 15.1400 5291.00 5303.45 73.00
1114 15.1500 5089.00 4997.62 71.00
1115 15.1600 4901.00 4783.53 70.00
1116 15.1700 4790.00 4638.11 69.00
1117 15.1800 4689.00 4540.98 68.00
1118 15.1900 4607.00 4476.40 68.00
1119 15.2000 4596.00 4433.71 68.00
1120 15.2100 4601.00 4406.55 68.00
1121 15.2200 4556.00 4392.10 67.00
1122 15.2300 4546.00 4390.59 67.00
1123 15.2400 4576.00 4405.13 68.00
1124 15.2500 4613.00 4441.31 68.00
1125 15.2600 4686.00 4505.73 68.00
1126 15.2700 4816.00 4602.84 69.00
1127 15.2800 4916.00 4730.31 70.00
1128 15.2900 5017.00 4873.06 71.00
1129 15.3000 5128.00 4996.02 72.00
1130 15.3100 5158.00 5049.38 72.00
1131 15.3200 5129.00 5009.77 72.00
1132 15.3300 5050.00 4909.58 71.00
1133 15.3400 4922.00 4798.45 70.00
1134 15.3500 4796.00 4708.19 69.00
1135 15.3600 4770.00 4651.78 69.00
1136 15.3700 4736.00 4630.71 69.00
1137 15.3800 4756.00 4640.77 69.00
1138 15.3900 4786.00 4676.39 69.00
1139 15.4000 4870.00 4733.49 70.00
1140 15.4100 4894.00 4810.62 70.00
1141 15.4200 5023.00 4907.33 71.00
1142 15.4300 5137.00 5030.73 72.00
1143 15.4400 5325.00 5185.38 73.00
1144 15.4500 5545.00 5380.98 74.00
1145 15.4600 5826.00 5633.36 76.00
1146 15.4700 6202.00 5971.45 79.00
1147 15.4800 6809.00 6455.35 83.00
1148 15.4900 7669.00 7213.57 88.00
1149 15.5000 9146.00 8500.42 96.00
1150 15.5100 11485.00 10746.90 107.00
1151 15.5200 15040.00 14523.30 123.00
1152 15.5300 20504.00 20331.80 143.00
1153 15.5400 28280.00 28200.00 168.00
1154 15.5500 37006.00 37097.10 192.00
1155 15.5600 44141.00 44231.60 210.00
1156 15.5700 45859.00 45636.10 214.00
1157 15.5800 40535.00 40344.10 201.00
1158 15.5900 31637.00 31760.90 178.00
1159 15.6000 22745.00 23346.80 151.00
1160 15.6100 16008.00 16718.60 127.00
1161 15.6200 11608.00 12185.30 108.00
1162 15.6300 9022.00 9385.35 95.00
1163 15.6400 7446.00 7749.42 86.00
1164 15.6500 6435.00 6790.24 80.00
1165 15.6600 5835.00 6193.43 76.00
1166 15.6700 5422.00 5790.09 74.00
1167 15.6800 5181.00 5498.11 72.00
1168 15.6900 5081.00 5275.88 71.00
1169 15.7000 4881.00 5102.36 70.00
1170 15.7100 4739.00 4963.71 69.00
1171 15.7200 4681.00 4853.08 68.00
1172 15.7300 4627.00 4763.81 68.00
1173 15.7400 4569.00 4691.79 68.00
1174 15.7500 4600.00 4634.16 68.00
1175 15.7600 4563.00 4588.95 68.00
1176 15.7700 4492.00 4554.98 67.00
1177 15.7800 4546.00 4531.85 67.00
1178 15.7900 4500.00 4520.24 67.00
1179 15.8000 4565.00 4522.76 68.00
1180 15.8100 4628.00 4545.48 68.00
1181 15.8200 4689.00 4600.27 68.00
1182 15.8300 4768.00 4707.21 69.00
1183 15.8400 4984.00 4894.51 71.00
1184 15.8500 5246.00 5193.59 72.00
1185 15.8600 5694.00 5626.43 75.00
1186 15.8700 6279.00 6187.14 79.00
1187 15.8800 6842.00 6817.00 83.00
1188 15.8900 7351.00 7372.59 86.00
1189 15.9000 7672.00 7632.03 88.00
1190 15.9100 7488.00 7448.69 87.00
1191 15.9200 7018.00 6921.49 84.00
1192 15.9300 6369.00 6274.78 80.00
1193 15.9400 5746.00 5673.24 76.00
1194 15.9500 5230.00 5191.27 72.00
1195 15.9600 4926.00 4843.81 70.00
1196 15.9700 4699.00 4613.00 69.00
1197 15.9800 4558.00 4467.81 68.00
1198 15.9900 4481.00 4376.80 67.00
1199 16.0000 4395.00 4320.40 66.00
1200 16.0100 4376.00 4283.06 66.00
1201 16.0200 4354.00 4256.98 66.00
1202 16.0300 4314.00 4238.14 66.00
1203 16.0400 4327.00 4224.45 66.00
1204 16.0500 4312.00 4214.81 66.00
1205 16.0600 4293.00 4208.58 66.00
1206 16.0700 4259.00 4202.37 65.00
1207 16.0800 4281.00 4202.04 65.00
1208 16.0900 4260.00 4204.50 65.00
1209 16.1000 4288.00 4209.86 65.00
1210 16.1100 4342.00 4218.38 66.00
1211 16.1200 4337.00 4230.55 66.00
1212 16.1300 4302.00 4247.23 66.00
1213 16.1400 4342.00 4270.08 66.00
1214 16.1500 4396.00 4302.66 66.00
1215 16.1600 4456.00 4352.78 67.00
1216 16.1700 4579.00 4436.02 68.00
1217 16.1800 4712.00 4578.33 69.00
1218 16.1900 4872.00 4811.92 70.00
1219 16.2000 5240.00 5158.94 72.00
1220 16.2100 5627.00 5606.68 75.00
1221 16.2200 6115.00 6063.54 78.00
1222 16.2300 6345.00 6331.94 80.00
1223 16.2400 6310.00 6244.85 79.00
1224 16.2500 5975.00 5904.72 77.00
1225 16.2600 5671.00 5537.98 75.00
1226 16.2700 5353.00 5285.14 73.00
1227 16.2800 5286.00 5201.88 73.00
1228 16.2900 5415.00 5297.74 74.00
1229 16.3000 5677.00 5557.33 75.00
1230 16.3100 5998.00 5945.01 77.00
1231 16.3200 6475.00 6389.99 80.00
1232 16.3300 6799.00 6767.47 82.00
1233 16.3400 7076.00 6960.13 84.00
1234 16.3500 7182.00 7019.30 85.00
1235 16.3600 7155.00 7138.26 85.00
1236 16.3700 7298.00 7484.13 85.00
1237 16.3800 7863.00 8144.50 89.00
1238 16.3900 8748.00 9134.08 94.00
1239 16.4000 10131.00 10395.60 101.00
1240 16.4100 11791.00 11788.30 109.00
1241 16.4200 13238.00 13069.90 115.00
1242 16.4300 14085.00 13904.50 119.00
1243 16.4400 14204.00 14000.20 119.00
1244 16.4500 13408.00 13329.10 116.00
1245 16.4600 11952.00 12155.40 109.00
1246 16.4700 10625.00 10824.90 103.00
1247 16.4800 9335.00 9598.97 97.00
1248 16.4900 8383.00 8627.73 92.00
1249 16.5000 7878.00 7970.39 89.00
1250 16.5100 7625.00 7616.15 87.00
1251 16.5200 7606.00 7494.64 87.00
1252 16.5300 7711.00 7482.75 88.00
1253 16.5400 7552.00 7425.01 87.00
1254 16.5500 7224.00 7206.18 85.00
1255 16.5600 6788.00 6828.19 82.00
1256 16.5700 6259.00 6378.02 79.00
1257 16.5800 5795.00 5941.05 76.00
1258 16.5900 5464.00 5566.64 74.00
1259 16.6000 5177.00 5274.26 72.00
1260 16.6100 4977.00 5063.69 71.00
1261 16.6200 4881.00 4923.80 70.00
1262 16.6300 4787.00 4839.11 69.00
1263 16.6400 4764.00 4794.96 69.00
1264 16.6500 4772.00 4780.08 69.00
1265 16.6600 4786.00 4787.33 69.00
1266 16.6700 4757.00 4813.11 69.00
1267 16.6800 4827.00 4856.60 69.00
1268 16.6900 4907.00 4919.43 70.00
1269 16.7000 5063.00 5005.92 71.00
1270 16.7100 5226.00 5124.55 72.00
1271 16.7200 5460.00 5290.83 74.00
1272 16.7300 5667.00 5531.87 75.00
1273 16.7400 6142.00 5891.50 78.00
1274 16.7500 6665.00 6435.54 82.00
1275 16.7600 7504.00 7251.48 87.00
1276 16.7700 8559.00 8438.50 93.00
1277 16.7800 10065.00 10086.20 100.00
1278 16.7900 11878.00 12238.00 109.00
1279 16.8000 14400.00 14848.10 120.00
1280 16.8100 17222.00 17724.60 131.00
1281 16.8200 20114.00 20459.20 142.00
1282 16.8300 22205.00 22398.30 149.00
1283 16.8400 22710.00 22865.20 151.00
1284 16.8500 21507.00 21662.10 147.00
1285 16.8600 19092.00 19261.70 138.00
1286 16.8700 15964.00 16384.40 126.00
1287 16.8800 13148.00 13580.20 115.00
1288 16.8900 10722.00 11151.80 104.00
1289 16.9000 8853.00 9217.22 94.00
1290 16.9100 7484.00 7776.05 87.00
1291 16.9200 6575.00 6757.91 81.00
1292 16.9300 5877.00 6065.15 77.00
1293 16.9400 5429.00 5601.07 74.00
1294 16.9500 5117.00 5287.42 72.00
1295 16.9600 4875.00 5068.32 70.00
1296 16.9700 4683.00 4907.72 68.00
1297 16.9800 4571.00 4784.24 68.00
1298 16.9900 4433.00 4685.37 67.00
1299 17.0000 4398.00 4603.95 66.00
1300 17.0100 4333.00 4535.61 66.00
1301 17.0200 4267.00 4477.51 65.00
1302 17.0300 4179.00 4427.64 65.00
1303 17.0400 4178.00 4384.53 65.00
1304 17.0500 4126.00 4346.99 64.00
1305 17.0600 4175.00 4314.13 65.00
1306 17.0700 4121.00 4285.20 64.00
1307 17.0800 4108.00 4259.61 64.00
1308 17.0900 4040.00 4238.30 64.00
1309 17.1000 4073.00 4218.03 64.00
1310 17.1100 4074.00 4199.87 64.00
1311 17.1200 4056.00 4183.56 64.00
1312 17.1300 4065.00 4168.85 64.00
1313 17.1400 4021.00 4155.54 63.00
1314 17.1500 3965.00 4143.48 63.00
1315 17.1600 4019.00 4132.51 63.00
1316 17.1700 4002.00 4122.52 63.00
1317 17.1800 4015.00 4113.39 63.00
1318 17.1900 4024.00 4105.04 63.00
1319 17.2000 3973.00 4097.39 63.00
1320 17.2100 3926.00 4090.36 63.00
1321 17.2200 3953.00 4083.90 63.00
1322 17.2300 3947.00 4079.92 63.00
1323 17.2400 3944.00 4074.46 63.00
1324 17.2500 3971.00 4069.43 63.00
1325 17.2600 3941.00 4064.79 63.00
1326 17.2700 3938.00 4060.51 63.00
1327 17.2800 3934.00 4056.56 63.00
1328 17.2900 3913.00 4052.92 63.00
1329 17.3000 3942.00 4049.56 63.00
1330 17.3100 3953.00 4046.46 63.00
1331 17.3200 3924.00 4043.61 63.00
1332 17.3300 3894.00 4040.99 62.00
1333 17.3400 3937.00 4038.58 63.00
1334 17.3500 3919.00 4036.38 63.00
1335 17.3600 3929.00 4034.37 63.00
1336 17.3700 3951.00 4032.55 63.00
1337 17.3800 3887.00 4030.80 62.00
1338 17.3900 3894.00 4029.33 62.00
1339 17.4000 3908.00 4028.02 63.00
1340 17.4100 3883.00 4020.19 62.00
1341 17.4200 3900.00 4019.27 62.00
1342 17.4300 3900.00 4018.51 62.00
1343 17.4400 3905.00 4017.92 62.00
1344 17.4500 3846.00 4017.53 62.00
1345 17.4600 3883.00 4017.31 62.00
1346 17.4700 3838.00 4017.27 62.00
1347 17.4800 3889.00 4017.41 62.00
1348 17.4900 3905.00 4017.76 62.00
1349 17.5000 3903.00 4018.34 62.00
1350 17.5100 3885.00 4019.20 62.00
1351 17.5200 3932.00 4020.41 63.00
1352 17.5300 3921.00 4022.12 63.00
1353 17.5400 3917.00 4024.62 63.00
1354 17.5500 3917.00 4028.38 63.00
1355 17.5600 3922.00 4034.05 63.00
1356 17.5700 3871.00 4042.30 62.00
1357 17.5800 3883.00 4053.46 62.00
1358 17.5900 3897.00 4066.95 62.00
1359 17.6000 3922.00 4080.53 63.00
1360 17.6100 3953.00 4089.77 63.00
1361 17.6200 3934.00 4091.01 63.00
1362 17.6300 3892.00 4086.21 62.00
1363 17.6400 3930.00 4080.24 63.00
1364 17.6500 3905.00 4076.60 62.00
1365 17.6600 3949.00 4076.79 63.00
1366 17.6700 3947.00 4081.27 63.00
1367 17.6800 3951.00 4090.30 63.00
1368 17.6900 3945.00 4104.62 63.00
1369 17.7000 3998.00 4126.20 63.00
1370 17.7100 4013.00 4158.87 63.00
1371 17.7200 4081.00 4208.73 64.00
1372 17.7300 4159.00 4284.15 64.00
1373 17.7400 4255.00 4395.03 65.00
1374 17.7500 4352.00 4548.00 66.00
1375 17.7600 4602.00 4745.82 68.00
1376 17.7700 4863.00 4980.06 70.00
1377 17.7800 5133.00 5224.45 72.00
1378 17.7900 5403.00 5427.58 74.00
1379 17.8000 5466.00 5519.77 74.00
1380 17.8100 5419.00 5461.54 74.00
1381 17.8200 5232.00 5280.67 72.00
1382 17.8300 4949.00 5045.27 70.00
1383 17.8400 4686.00 4812.17 68.00
1384 17.8500 4499.00 4612.22 67.00
1385 17.8600 4324.00 4457.03 66.00
1386 17.8700 4183.00 4346.18 65.00
1387 17.8800 4148.00 4272.89 64.00
1388 17.8900 4076.00 4228.09 64.00
1389 17.9000 4084.00 4203.44 64.00
1390 17.9100 4082.00 4192.82 64.00
1391 17.9200 4058.00 4192.73 64.00
1392 17.9300 4021.00 4202.20 63.00
1393 17.9400 4087.00 4222.71 64.00
1394 17.9500 4097.00 4258.26 64.00
1395 17.9600 4207.00 4315.51 65.00
1396 17.9700 4265.00 4403.59 65.00
1397 17.9800 4407.00 4532.99 66.00
1398 17.9900 4514.00 4712.86 67.00
1399 18.0000 4790.00 4948.71 69.00
1400 18.0100 5055.00 5235.67 71.00
1401 18.0200 5430.00 5554.31 74.00
1402 18.0300 5797.00 5860.81 76.00
1403 18.0400 6081.00 6086.39 78.00
1404 18.0500 6090.00 6157.01 78.00
1405 18.0600 5954.00 6049.23 77.00
1406 18.0700 5645.00 5808.87 75.00
1407 18.0800 5330.00 5506.57 73.00
1408 18.0900 5007.00 5197.33 71.00
1409 18.1000 4721.00 4916.63 69.00
1410 18.1100 4455.00 4683.89 67.00
1411 18.1200 4284.00 4504.64 65.00
1412 18.1300 4190.00 4374.38 65.00
1413 18.1400 4107.00 4285.73 64.00
1414 18.1500 4076.00 4224.20 64.00
1415 18.1600 4015.00 4182.61 63.00
1416 18.1700 3959.00 4153.94 63.00
1417 18.1800 3946.00 4133.43 63.00
1418 18.1900 3911.00 4118.08 63.00
1419 18.2000 3941.00 4106.15 63.00
1420 18.2100 3944.00 4096.57 63.00
1421 18.2200 3923.00 4088.75 63.00
1422 18.2300 3878.00 4082.30 62.00
1423 18.2400 3912.00 4076.93 63.00
1424 18.2500 3895.00 4072.47 62.00
1425 18.2600 3901.00 4068.77 62.00
1426 18.2700 3906.00 4065.70 62.00
1427 18.2800 3909.00 4062.92 63.00
1428 18.2900 3862.00 4060.89 62.00
1429 18.3000 3899.00 4060.72 62.00
1430 18.3100 3865.00 4059.49 62.00
1431 18.3200 3890.00 4058.61 62.00
1432 18.3300 3939.00 4058.04 63.00
1433 18.3400 3945.00 4057.78 63.00
1434 18.3500 3887.00 4057.80 62.00
1435 18.3600 3907.00 4058.10 63.00
1436 18.3700 3897.00 4058.69 62.00
1437 18.3800 3925.00 4059.59 63.00
1438 18.3900 3924.00 4060.81 63.00
1439 18.4000 3931.00 4062.40 63.00
1440 18.4100 3870.00 4064.41 62.00
1441 18.4200 3902.00 4066.93 62.00
1442 18.4300 3883.00 4070.09 62.00
1443 18.4400 3941.00 4074.10 63.00
1444 18.4500 3953.00 4079.40 63.00
1445 18.4600 3953.00 4086.84 63.00
1446 18.4700 3949.00 4098.25 63.00
1447 18.4800 3958.00 4117.05 63.00
1448 18.4900 3990.00 4148.47 63.00
1449 18.5000 4024.00 4198.53 63.00
1450 18.5100 4124.00 4270.90 64.00
1451 18.5200 4191.00 4361.58 65.00
1452 18.5300 4228.00 4450.91 65.00
1453 18.5400 4315.00 4498.07 66.00
1454 18.5500 4309.00 4471.19 66.00
1455 18.5600 4263.00 4391.96 65.00
1456 18.5700 4200.00 4303.75 65.00
1457 18.5800 4131.00 4231.21 64.00
1458 18.5900 4038.00 4181.06 64.00
1459 18.6000 4050.00 4150.88 64.00
1460 18.6100 3992.00 4134.87 63.00
1461 18.6200 4005.00 4127.48 63.00
1462 18.6300 4043.00 4124.92 64.00
1463 18.6400 3993.00 4125.10 63.00
1464 18.6500 3971.00 4127.04 63.00
1465 18.6600 4012.00 4130.30 63.00
1466 18.6700 4033.00 4134.70 64.00
1467 18.6800 4035.00 4140.18 64.00
1468 18.6900 4080.00 4146.74 64.00
1469 18.7000 4089.00 4154.45 64.00
1470 18.7100 4051.00 4163.41 64.00
1471 18.7200 4083.00 4173.75 64.00
1472 18.7300 4043.00 4185.70 64.00
1473 18.7400 4092.00 4199.53 64.00
1474 18.7500 4100.00 4215.57 64.00
1475 18.7600 4114.00 4234.30 64.00
1476 18.7700 4071.00 4256.31 64.00
1477 18.7800 4123.00 4282.41 64.00
1478 18.7900 4115.00 4313.64 64.00
1479 18.8000 4192.00 4351.46 65.00
1480 18.8100 4225.00 4397.92 65.00
1481 18.8200 4289.00 4456.05 65.00
1482 18.8300 4356.00 4530.96 66.00
1483 18.8400 4482.00 4632.29 67.00
1484 18.8500 4578.00 4780.04 68.00
1485 18.8600 4811.00 5014.69 69.00
1486 18.8700 5200.00 5409.56 72.00
1487 18.8800 5763.00 6073.47 76.00
1488 18.8900 6630.00 7127.55 81.00
1489 18.9000 8071.00 8639.14 90.00
1490 18.9100 9957.00 10517.10 100.00
1491 18.9200 12052.00 12344.90 110.00
1492 18.9300 13198.00 13282.20 115.00
1493 18.9400 12858.00 12685.10 113.00
1494 18.9500 11227.00 10998.90 106.00
1495 18.9600 9293.00 9113.69 96.00
1496 18.9700 7488.00 7541.86 87.00
1497 18.9800 6375.00 6431.02 80.00
1498 18.9900 5689.00 5740.73 75.00
1499 19.0000 5249.00 5359.67 72.00
1500 19.0100 5052.00 5182.99 71.00
1501 19.0200 4978.00 5151.08 71.00
1502 19.0300 5041.00 5250.62 71.00
1503 19.0400 5327.00 5516.84 73.00
1504 19.0500 5796.00 6005.84 76.00
1505 19.0600 6512.00 6760.63 81.00
1506 19.0700 7420.00 7755.32 86.00
1507 19.0800 8620.00 8814.34 93.00
1508 19.0900 9410.00 9521.74 97.00
1509 19.1000 9533.00 9422.17 98.00
1510 19.1100 8756.00 8577.18 94.00
1511 19.1200 7589.00 7477.00 87.00
1512 19.1300 6357.00 6487.97 80.00
1513 19.1400 5647.00 5745.84 75.00
1514 19.1500 5142.00 5254.80 72.00
1515 19.1600 4876.00 4959.74 70.00
1516 19.1700 4732.00 4794.45 69.00
1517 19.1800 4587.00 4707.48 68.00
1518 19.1900 4527.00 4668.67 67.00
1519 19.2000 4598.00 4665.72 68.00
1520 19.2100 4588.00 4698.86 68.00
1521 19.2200 4691.00 4780.30 68.00
1522 19.2300 4890.00 4920.44 70.00
1523 19.2400 5075.00 5141.91 71.00
1524 19.2500 5299.00 5462.66 73.00
1525 19.2600 5740.00 5890.16 76.00
1526 19.2700 6252.00 6409.65 79.00
1527 19.2800 6924.00 6968.75 83.00
1528 19.2900 7528.00 7457.76 87.00
1529 19.3000 7818.00 7716.22 88.00
1530 19.3100 7734.00 7627.40 88.00
1531 19.3200 7283.00 7231.62 85.00
1532 19.3300 6675.00 6683.31 82.00
1533 19.3400 6061.00 6124.15 78.00
1534 19.3500 5550.00 5634.21 74.00
1535 19.3600 5197.00 5245.34 72.00
1536 19.3700 4871.00 4959.40 70.00
1537 19.3800 4694.00 4762.04 69.00
1538 19.3900 4583.00 4632.50 68.00
1539 19.4000 4523.00 4550.55 67.00
1540 19.4100 4518.00 4497.55 67.00
1541 19.4200 4448.00 4467.97 67.00
1542 19.4300 4447.00 4452.81 67.00
1543 19.4400 4462.00 4449.18 67.00
1544 19.4500 4417.00 4456.85 66.00
1545 19.4600 4439.00 4478.16 67.00
1546 19.4700 4515.00 4518.44 67.00
1547 19.4800 4596.00 4586.64 68.00
1548 19.4900 4672.00 4695.37 68.00
1549 19.5000 4836.00 4859.81 70.00
1550 19.5100 5012.00 5094.24 71.00
1551 19.5200 5342.00 5406.67 73.00
1552 19.5300 5713.00 5790.18 76.00
1553 19.5400 6120.00 6210.87 78.00
1554 19.5500 6441.00 6591.56 80.00
1555 19.5600 6786.00 6815.84 82.00
1556 19.5700 6776.00 6790.18 82.00
1557 19.5800 6628.00 6525.72 81.00
1558 19.5900 6260.00 6128.16 79.00
1559 19.6000 5802.00 5713.73 76.00
1560 19.6100 5343.00 5353.52 73.00
1561 19.6200 5085.00 5075.70 71.00
1562 19.6300 4888.00 4882.03 70.00
1563 19.6400 4795.00 4760.91 69.00
1564 19.6500 4717.00 4696.44 69.00
1565 19.6600 4659.00 4674.84 68.00
1566 19.6700 4652.00 4688.26 68.00
1567 19.6800 4749.00 4737.17 69.00
1568 19.6900 4820.00 4832.55 69.00
1569 19.7000 5005.00 4997.57 71.00
1570 19.7100 5234.00 5266.66 72.00
1571 19.7200 5637.00 5678.09 75.00
1572 19.7300 6098.00 6257.09 78.00
1573 19.7400 6846.00 6991.26 83.00
1574 19.7500 7643.00 7791.90 87.00
1575 19.7600 8444.00 8456.13 92.00
1576 19.7700 8943.00 8758.20 95.00
1577 19.7800 9084.00 8749.30 95.00
1578 19.7900 9011.00 8781.73 95.00
1579 19.8000 9345.00 9164.89 97.00
1580 19.8100 9894.00 9952.33 99.00
1581 19.8200 10724.00 10841.30 104.00
1582 19.8300 11106.00 11158.10 105.00
1583 19.8400 10739.00 10486.70 104.00
1584 19.8500 9658.00 9239.89 98.00
1585 19.8600 8314.00 7971.77 91.00
1586 19.8700 7037.00 6944.66 84.00
1587 19.8800 6199.00 6209.65 79.00
1588 19.8900 5682.00 5713.07 75.00
1589 19.9000 5290.00 5376.21 73.00
1590 19.9100 4967.00 5136.87 70.00
1591 19.9200 4844.00 4958.15 70.00
1592 19.9300 4703.00 4820.19 69.00
1593 19.9400 4632.00 4711.90 68.00
1594 19.9500 4605.00 4626.06 68.00
1595 19.9600 4534.00 4557.62 67.00
1596 19.9700 4473.00 4502.84 67.00
1597 19.9800 4479.00 4459.07 67.00
1598 19.9900 4398.00 4424.24 66.00
1599 20.0000 4411.00 4396.78 66.00
1600 20.0100 4411.00 4375.39 66.00
1601 20.0200 4405.00 4359.05 66.00
1602 20.0300 4377.00 4346.93 66.00
1603 20.0400 4400.00 4338.45 66.00
1604 20.0500 4366.00 4333.24 66.00
1605 20.0600 4389.00 4331.20 66.00
1606 20.0700 4425.00 4332.54 67.00
1607 20.0800 4435.00 4337.91 67.00
1608 20.0900 4388.00 4348.37 66.00
1609 20.1000 4434.00 4365.46 67.00
1610 20.1100 4410.00 4391.02 66.00
1611 20.1200 4453.00 4426.87 67.00
1612 20.1300 4518.00 4474.25 67.00
1613 20.1400 4602.00 4533.20 68.00
1614 20.1500 4637.00 4601.53 68.00
1615 20.1600 4730.00 4673.69 69.00
1616 20.1700 4778.00 4739.49 69.00
1617 20.1800 4853.00 4786.02 70.00
1618 20.1900 4858.00 4805.57 70.00
1619 20.2000 4812.00 4803.50 69.00
1620 20.2100 4817.00 4794.86 69.00
1621 20.2200 4804.00 4794.62 69.00
1622 20.2300 4782.00 4813.97 69.00
1623 20.2400 4817.00 4859.54 69.00
1624 20.2500 4892.00 4936.06 70.00
1625 20.2600 5008.00 5048.48 71.00
1626 20.2700 5118.00 5204.83 72.00
1627 20.2800 5338.00 5419.71 73.00
1628 20.2900 5571.00 5715.97 75.00
1629 20.3000 6002.00 6121.98 77.00
1630 20.3100 6505.00 6661.13 81.00
1631 20.3200 7148.00 7332.13 85.00
1632 20.3300 7809.00 8081.81 88.00
1633 20.3400 8556.00 8759.74 92.00
1634 20.3500 8856.00 9096.36 94.00
1635 20.3600 8851.00 8872.21 94.00
1636 20.3700 8210.00 8190.15 91.00
1637 20.3800 7333.00 7347.33 86.00
1638 20.3900 6454.00 6563.12 80.00
1639 20.4000 5813.00 5929.58 76.00
1640 20.4100 5363.00 5460.97 73.00
1641 20.4200 5106.00 5133.85 71.00
1642 20.4300 4951.00 4911.40 70.00
1643 20.4400 4794.00 4759.41 69.00
1644 20.4500 4686.00 4653.50 68.00
1645 20.4600 4625.00 4575.78 68.00
1646 20.4700 4551.00 4517.59 67.00
1647 20.4800 4552.00 4473.25 67.00
1648 20.4900 4513.00 4439.14 67.00
1649 20.5000 4488.00 4412.76 67.00
1650 20.5100 4437.00 4392.30 67.00
1651 20.5200 4461.00 4376.42 67.00
1652 20.5300 4425.00 4364.13 67.00
1653 20.5400 4447.00 4354.70 67.00
1654 20.5500 4438.00 4347.63 67.00
1655 20.5600 4435.00 4342.53 67.00
1656 20.5700 4400.00 4339.15 66.00
1657 20.5800 4464.00 4337.30 67.00
1658 20.5900 4410.00 4336.86 66.00
1659 20.6000 4454.00 4337.77 67.00
1660 20.6100 4467.00 4339.98 67.00
1661 20.6200 4437.00 4343.51 67.00
1662 20.6300 4401.00 4348.39 66.00
1663 20.6400 4439.00 4354.40 67.00
1664 20.6500 4427.00 4362.29 67.00
1665 20.6600 4489.00 4371.95 67.00
1666 20.6700 4506.00 4383.71 67.00
1667 20.6800 4508.00 4398.03 67.00
1668 20.6900 4511.00 4415.63 67.00
1669 20.7000 4556.00 4437.53 67.00
1670 20.7100 4572.00 4465.25 68.00
1671 20.7200 4619.00 4500.83 68.00
1672 20.7300 4702.00 4547.05 69.00
1673 20.7400 4778.00 4607.40 69.00
1674 20.7500 4761.00 4686.11 69.00
1675 20.7600 4891.00 4787.82 70.00
1676 20.7700 4984.00 4917.35 71.00
1677 20.7800 5126.00 5077.45 72.00
1678 20.7900 5372.00 5273.96 73.00
1679 20.8000 5498.00 5506.04 74.00
1680 20.8100 5770.00 5771.41 76.00
1681 20.8200 6099.00 6063.22 78.00
1682 20.8300 6459.00 6369.34 80.00
1683 20.8400 6879.00 6670.54 83.00
1684 20.8500 7231.00 6940.48 85.00
1685 20.8600 7477.00 7148.68 86.00
1686 20.8700 7503.00 7269.54 87.00
1687 20.8800 7502.00 7294.20 87.00
1688 20.8900 7324.00 7234.49 86.00
1689 20.9000 7117.00 7116.10 84.00
1690 20.9100 6923.00 6978.09 83.00
1691 20.9200 6758.00 6878.43 82.00
1692 20.9300 6623.00 6877.32 81.00
1693 20.9400 6773.00 7016.42 82.00
1694 20.9500 6986.00 7308.11 84.00
1695 20.9600 7500.00 7720.72 87.00
1696 20.9700 7988.00 8151.50 89.00
1697 20.9800 8332.00 8425.47 91.00
1698 20.9900 8428.00 8405.91 92.00
1699 21.0000 8471.00 8142.12 92.00
1700 21.0100 8047.00 7780.84 90.00
1701 21.0200 7781.00 7421.50 88.00
1702 21.0300 7461.00 7103.05 86.00
1703 21.0400 7085.00 6833.46 84.00
1704 21.0500 6824.00 6606.94 83.00
1705 21.0600 6641.00 6410.47 81.00
1706 21.0700 6378.00 6229.71 80.00
1707 21.0800 6234.00 6053.76 79.00
1708 21.0900 6072.00 5877.88 78.00
1709 21.1000 5863.00 5703.67 77.00
1710 21.1100 5690.00 5536.63 75.00
1711 21.1200 5520.00 5383.43 74.00
1712 21.1300 5369.00 5249.80 73.00
1713 21.1400 5314.00 5140.21 73.00
1714 21.1500 5232.00 5058.31 72.00
1715 21.1600 5166.00 5007.59 72.00
1716 21.1700 5125.00 4991.50 72.00
1717 21.1800 5109.00 5012.95 71.00
1718 21.1900 5135.00 5072.94 72.00
1719 21.2000 5298.00 5168.53 73.00
1720 21.2100 5459.00 5289.88 74.00
1721 21.2200 5530.00 5416.02 74.00
1722 21.2300 5598.00 5512.34 75.00
1723 21.2400 5670.00 5543.02 75.00
1724 21.2500 5631.00 5499.61 75.00
1725 21.2600 5552.00 5410.06 75.00
1726 21.2700 5524.00 5313.59 74.00
1727 21.2800 5395.00 5239.82 73.00
1728 21.2900 5334.00 5208.12 73.00
1729 21.3000 5323.00 5234.68 73.00
1730 21.3100 5380.00 5340.36 73.00
1731 21.3200 5595.00 5557.98 75.00
1732 21.3300 5976.00 5935.89 77.00
1733 21.3400 6462.00 6534.07 80.00
1734 21.3500 7160.00 7407.84 85.00
1735 21.3600 8345.00 8573.09 91.00
1736 21.3700 9803.00 9965.55 99.00
1737 21.3800 11298.00 11362.50 106.00
1738 21.3900 12405.00 12322.10 111.00
1739 21.4000 12626.00 12371.60 112.00
1740 21.4100 11740.00 11494.40 108.00
1741 21.4200 10368.00 10152.50 102.00
1742 21.4300 8897.00 8801.89 94.00
1743 21.4400 7708.00 7679.60 88.00
1744 21.4500 6899.00 6857.20 83.00
1745 21.4600 6433.00 6317.71 80.00
1746 21.4700 6049.00 6001.48 78.00
1747 21.4800 5956.00 5838.13 77.00
1748 21.4900 5839.00 5763.22 76.00
1749 21.5000 5892.00 5726.37 77.00
1750 21.5100 5865.00 5695.76 77.00
1751 21.5200 5823.00 5662.01 76.00
1752 21.5300 5790.00 5634.79 76.00
1753 21.5400 5802.00 5636.96 76.00
1754 21.5500 5820.00 5691.26 76.00
1755 21.5600 5993.00 5820.12 77.00
1756 21.5700 6213.00 6043.48 79.00
1757 21.5800 6442.00 6376.66 80.00
1758 21.5900 6760.00 6827.22 82.00
1759 21.6000 7373.00 7390.42 86.00
1760 21.6100 8006.00 8042.94 89.00
1761 21.6200 8779.00 8735.40 94.00
1762 21.6300 9528.00 9381.85 98.00
1763 21.6400 10018.00 9861.06 100.00
1764 21.6500 10141.00 10048.20 101.00
1765 21.6600 10037.00 9884.29 100.00
1766 21.6700 9520.00 9418.74 98.00
1767 21.6800 8870.00 8773.15 94.00
1768 21.6900 8157.00 8072.65 90.00
1769 21.7000 7412.00 7408.17 86.00
1770 21.7100 6753.00 6835.78 82.00
1771 21.7200 6350.00 6383.65 80.00
1772 21.7300 6018.00 6062.06 78.00
1773 21.7400 5846.00 5868.15 76.00
1774 21.7500 5813.00 5786.04 76.00
1775 21.7600 5810.00 5788.98 76.00
1776 21.7700 5848.00 5836.49 76.00
1777 21.7800 5909.00 5872.41 77.00
1778 21.7900 5850.00 5839.10 76.00
1779 21.8000 5766.00 5712.96 76.00
1780 21.8100 5573.00 5521.66 75.00
1781 21.8200 5378.00 5310.06 73.00
1782 21.8300 5115.00 5111.76 72.00
1783 21.8400 4993.00 4943.68 71.00
1784 21.8500 4840.00 4811.04 70.00
1785 21.8600 4772.00 4712.42 69.00
1786 21.8700 4744.00 4642.84 69.00
1787 21.8800 4690.00 4596.35 68.00
1788 21.8900 4638.00 4567.69 68.00
1789 21.9000 4711.00 4553.56 69.00
1790 21.9100 4707.00 4553.28 69.00
1791 21.9200 4761.00 4569.54 69.00
1792 21.9300 4791.00 4608.83 69.00
1793 21.9400 4828.00 4681.17 69.00
1794 21.9500 4873.00 4798.14 70.00
1795 21.9600 5063.00 4968.21 71.00
1796 21.9700 5238.00 5189.82 72.00
1797 21.9800 5461.00 5439.17 74.00
1798 21.9900 5742.00 5654.90 76.00
1799 22.0000 5815.00 5740.71 76.00
1800 22.0100 5745.00 5644.53 76.00
1801 22.0200 5599.00 5423.43 75.00
1802 22.0300 5303.00 5173.06 73.00
1803 22.0400 5101.00 4953.08 71.00
1804 22.0500 4957.00 4785.46 70.00
1805 22.0600 4798.00 4670.78 69.00
1806 22.0700 4721.00 4599.78 69.00
1807 22.0800 4683.00 4560.11 68.00
1808 22.0900 4634.00 4542.16 68.00
1809 22.1000 4624.00 4535.37 68.00
1810 22.1100 4650.00 4536.38 68.00
1811 22.1200 4614.00 4543.11 68.00
1812 22.1300 4612.00 4552.64 68.00
1813 22.1400 4672.00 4563.56 68.00
1814 22.1500 4661.00 4573.22 68.00
1815 22.1600 4701.00 4578.35 69.00
1816 22.1700 4740.00 4575.78 69.00
1817 22.1800 4731.00 4563.78 69.00
1818 22.1900 4666.00 4542.95 68.00
1819 22.2000 4690.00 4515.86 68.00
1820 22.2100 4633.00 4485.69 68.00
1821 22.2200 4612.00 4455.23 68.00
1822 22.2300 4632.00 4426.44 68.00
1823 22.2400 4598.00 4400.55 68.00
1824 22.2500 4536.00 4378.15 67.00
1825 22.2600 4554.00 4359.44 67.00
1826 22.2700 4491.00 4344.28 67.00
1827 22.2800 4527.00 4332.37 67.00
1828 22.2900 4549.00 4323.45 67.00
1829 22.3000 4527.00 4316.69 67.00
1830 22.3100 4462.00 4311.79 67.00
1831 22.3200 4511.00 4308.39 67.00
1832 22.3300 4467.00 4306.15 67.00
1833 22.3400 4476.00 4304.81 67.00
1834 22.3500 4528.00 4304.21 67.00
1835 22.3600 4487.00 4304.22 67.00
1836 22.3700 4430.00 4304.76 67.00
1837 22.3800 4444.00 4305.77 67.00
1838 22.3900 4450.00 4307.26 67.00
1839 22.4000 4466.00 4309.07 67.00
1840 22.4100 4495.00 4310.85 67.00
1841 22.4200 4495.00 4313.75 67.00
1842 22.4300 4474.00 4317.19 67.00
1843 22.4400 4524.00 4321.20 67.00
1844 22.4500 4510.00 4325.83 67.00
1845 22.4600 4482.00 4331.18 67.00
1846 22.4700 4500.00 4337.32 67.00
1847 22.4800 4504.00 4344.39 67.00
1848 22.4900 4515.00 4352.52 67.00
1849 22.5000 4509.00 4361.90 67.00
1850 22.5100 4512.00 4372.78 67.00
1851 22.5200 4557.00 4385.46 68.00
1852 22.5300 4585.00 4400.36 68.00
1853 22.5400 4607.00 4418.10 68.00
1854 22.5500 4610.00 4439.63 68.00
1855 22.5600 4627.00 4466.55 68.00
1856 22.5700 4647.00 4501.63 68.00
1857 22.5800 4718.00 4549.45 69.00
1858 22.5900 4796.00 4617.26 69.00
1859 22.6000 4862.00 4715.11 70.00
1860 22.6100 4967.00 4855.10 70.00
1861 22.6200 5210.00 5048.59 72.00
1862 22.6300 5427.00 5301.86 74.00
1863 22.6400 5786.00 5609.18 76.00
1864 22.6500 6177.00 5941.77 79.00
1865 22.6600 6525.00 6234.84 81.00
1866 22.6700 6647.00 6403.23 82.00
1867 22.6800 6662.00 6415.31 82.00
1868 22.6900 6509.00 6337.56 81.00
1869 22.7000 6397.00 6268.95 80.00
1870 22.7100 6359.00 6275.16 80.00
1871 22.7200 6390.00 6381.64 80.00
1872 22.7300 6535.00 6584.41 81.00
1873 22.7400 6869.00 6856.77 83.00
1874 22.7500 7096.00 7150.80 84.00
1875 22.7600 7426.00 7400.32 86.00
1876 22.7700 7607.00 7533.84 87.00
1877 22.7800 7629.00 7504.66 87.00
1878 22.7900 7336.00 7317.95 86.00
1879 22.8000 7126.00 7024.29 84.00
1880 22.8100 6710.00 6686.18 82.00
1881 22.8200 6391.00 6351.48 80.00
1882 22.8300 6117.00 6045.54 78.00
1883 22.8400 5828.00 5773.33 76.00
1884 22.8500 5553.00 5529.33 75.00
1885 22.8600 5394.00 5310.68 73.00
1886 22.8700 5225.00 5122.08 72.00
1887 22.8800 5112.00 4968.36 71.00
1888 22.8900 4979.00 4849.27 71.00
1889 22.9000 4872.00 4761.02 70.00
1890 22.9100 4802.00 4698.24 69.00
1891 22.9200 4766.00 4655.68 69.00
1892 22.9300 4717.00 4628.77 69.00
1893 22.9400 4708.00 4614.10 69.00
1894 22.9500 4739.00 4609.51 69.00
1895 22.9600 4718.00 4614.15 69.00
1896 22.9700 4713.00 4628.50 69.00
1897 22.9800 4760.00 4654.30 69.00
1898 22.9900 4767.00 4696.61 69.00
1899 23.0000 4844.00 4755.71 70.00
1900 23.0100 4965.00 4838.80 70.00
1901 23.0200 5051.00 4951.52 71.00
1902 23.0300 5137.00 5099.13 72.00
1903 23.0400 5304.00 5285.03 73.00
1904 23.0500 5482.00 5508.82 74.00
1905 23.0600 5738.00 5764.63 76.00
1906 23.0700 6086.00 6043.35 78.00
1907 23.0800 6321.00 6338.71 80.00
1908 23.0900 6608.00 6647.39 81.00
1909 23.1000 7029.00 6962.07 84.00
1910 23.1100 7311.00 7260.01 86.00
1911 23.1200 7663.00 7503.79 88.00
1912 23.1300 7803.00 7648.18 88.00
1913 23.1400 7794.00 7657.97 88.00
1914 23.1500 7525.00 7526.23 87.00
1915 23.1600 7233.00 7278.57 85.00
1916 23.1700 6792.00 6959.11 82.00
1917 23.1800 6404.00 6611.95 80.00
1918 23.1900 6064.00 6271.62 78.00
1919 23.2000 5807.00 5961.58 76.00
1920 23.2100 5569.00 5697.48 75.00
1921 23.2200 5452.00 5490.40 74.00
1922 23.2300 5367.00 5351.31 73.00
1923 23.2400 5373.00 5293.53 73.00
1924 23.2500 5466.00 5333.13 74.00
1925 23.2600 5598.00 5483.99 75.00
1926 23.2700 5830.00 5746.38 76.00
1927 23.2800 6121.00 6086.80 78.00
1928 23.2900 6362.00 6403.63 80.00
1929 23.3000 6538.00 6520.96 81.00
1930 23.3100 6498.00 6335.31 81.00
1931 23.3200 6176.00 5953.51 79.00
1932 23.3300 5762.00 5543.91 76.00
1933 23.3400 5374.00 5198.22 73.00
1934 23.3500 5081.00 4941.31 71.00
1935 23.3600 4910.00 4765.61 70.00
1936 23.3700 4792.00 4650.95 69.00
1937 23.3800 4682.00 4576.49 68.00
1938 23.3900 4619.00 4526.25 68.00
1939 23.4000 4594.00 4490.29 68.00
1940 23.4100 4542.00 4463.04 67.00
1941 23.4200 4547.00 4441.60 67.00
1942 23.4300 4573.00 4424.38 68.00
1943 23.4400 4534.00 4410.43 67.00
1944 23.4500 4515.00 4399.09 67.00
1945 23.4600 4510.00 4389.90 67.00
1946 23.4700 4473.00 4382.50 67.00
1947 23.4800 4502.00 4376.63 67.00
1948 23.4900 4533.00 4372.09 67.00
1949 23.5000 4491.00 4368.74 67.00
1950 23.5100 4458.00 4366.49 67.00
1951 23.5200 4501.00 4365.30 67.00
1952 23.5300 4498.00 4365.15 67.00
1953 23.5400 4499.00 4366.11 67.00
1954 23.5500 4552.00 4368.30 67.00
1955 23.5600 4485.00 4371.93 67.00
1956 23.5700 4508.00 4377.40 67.00
1957 23.5800 4551.00 4383.96 67.00
1958 23.5900 4512.00 4395.11 67.00
1959 23.6000 4561.00 4410.71 68.00
1960 23.6100 4585.00 4432.28 68.00
1961 23.6200 4627.00 4461.62 68.00
1962 23.6300 4613.00 4500.65 68.00
1963 23.6400 4697.00 4551.12 69.00
1964 23.6500 4718.00 4614.21 69.00
1965 23.6600 4827.00 4689.99 69.00
1966 23.6700 4875.00 4776.87 70.00
1967 23.6800 4950.00 4870.66 70.00
1968 23.6900 5045.00 4964.35 71.00
1969 23.7000 5184.00 5044.38 72.00
1970 23.7100 5204.00 5097.23 72.00
1971 23.7200 5250.00 5112.55 72.00
1972 23.7300 5273.00 5091.27 73.00
1973 23.7400 5224.00 5046.23 72.00
1974 23.7500 5103.00 4995.84 71.00
1975 23.7600 5097.00 4957.80 71.00
1976 23.7700 5051.00 4947.18 71.00
1977 23.7800 5104.00 4975.31 71.00
1978 23.7900 5193.00 5049.64 72.00
1979 23.8000 5299.00 5171.71 73.00
1980 23.8100 5417.00 5334.11 74.00
1981 23.8200 5660.00 5514.81 75.00
1982 23.8300 5843.00 5670.57 76.00
1983 23.8400 5963.00 5743.01 77.00
1984 23.8500 5939.00 5694.25 77.00
1985 23.8600 5737.00 5542.18 76.00
1986 23.8700 5462.00 5341.13 74.00
1987 23.8800 5280.00 5139.09 73.00
1988 23.8900 5057.00 4962.80 71.00
1989 23.9000 4939.00 4822.52 70.00
1990 23.9100 4861.00 4719.01 70.00
1991 23.9200 4803.00 4647.84 69.00
1992 23.9300 4695.00 4602.52 69.00
1993 23.9400 4712.00 4576.53 69.00
1994 23.9500 4684.00 4564.57 68.00
1995 23.9600 4688.00 4562.93 68.00
1996 23.9700 4739.00 4569.49 69.00
1997 23.9800 4728.00 4583.66 69.00
1998 23.9900 4706.00 4605.89 69.00
1999 24.0000 4790.00 4638.01 69.00
2000 24.0100 4826.00 4683.40 69.00
2001 24.0200 4910.00 4747.49 70.00
2002 24.0300 5034.00 4838.13 71.00
2003 24.0400 5120.00 4965.69 72.00
2004 24.0500 5250.00 5142.65 72.00
2005 24.0600 5510.00 5382.09 74.00
2006 24.0700 5743.00 5695.11 76.00
2007 24.0800 6149.00 6086.49 78.00
2008 24.0900 6632.00 6548.99 81.00
2009 24.1000 7130.00 7053.62 84.00
2010 24.1100 7621.00 7539.87 87.00
2011 24.1200 8118.00 7915.07 90.00
2012 24.1300 8327.00 8086.56 91.00
2013 24.1400 8348.00 8012.43 91.00
2014 24.1500 8129.00 7728.64 90.00
2015 24.1600 7594.00 7322.67 87.00
2016 24.1700 7059.00 6884.71 84.00
2017 24.1800 6583.00 6482.05 81.00
2018 24.1900 6205.00 6156.84 79.00
2019 24.2000 5995.00 5933.18 77.00
2020 24.2100 5926.00 5825.53 77.00
2021 24.2200 5925.00 5847.87 77.00
2022 24.2300 6069.00 6019.60 78.00
2023 24.2400 6355.00 6365.57 80.00
2024 24.2500 6830.00 6908.00 83.00
2025 24.2600 7565.00 7650.88 87.00
2026 24.2700 8465.00 8552.09 92.00
2027 24.2800 9356.00 9478.66 97.00
2028 24.2900 9929.00 10165.00 100.00
2029 24.3000 10251.00 10318.80 101.00
2030 24.3100 9978.00 9900.57 100.00
2031 24.3200 9283.00 9151.72 96.00
2032 24.3300 8471.00 8325.76 92.00
2033 24.3400 7634.00 7560.38 87.00
2034 24.3500 6826.00 6912.43 83.00
2035 24.3600 6317.00 6393.53 79.00
2036 24.3700 5930.00 5991.80 77.00
2037 24.3800 5646.00 5685.16 75.00
2038 24.3900 5426.00 5451.60 74.00
2039 24.4000 5284.00 5275.09 73.00
2040 24.4100 5128.00 5145.15 72.00
2041 24.4200 5107.00 5056.66 71.00
2042 24.4300 5040.00 5008.24 71.00
2043 24.4400 5057.00 5001.26 71.00
2044 24.4500 5105.00 5038.71 71.00
2045 24.4600 5171.00 5123.57 72.00
2046 24.4700 5288.00 5256.51 73.00
2047 24.4800 5443.00 5431.72 74.00
2048 24.4900 5598.00 5631.21 75.00
2049 24.5000 5821.00 5820.01 76.00
2050 24.5100 5968.00 5957.81 77.00
2051 24.5200 6052.00 6025.78 78.00
2052 24.5300 6015.00 6028.60 78.00
2053 24.5400 5998.00 5969.79 77.00
2054 24.5500 5810.00 5849.35 76.00
2055 24.5600 5671.00 5679.75 75.00
2056 24.5700 5457.00 5487.28 74.00
2057 24.5800 5236.00 5297.92 72.00
2058 24.5900 5058.00 5128.47 71.00
2059 24.6000 4969.00 4986.83 70.00
2060 24.6100 4907.00 4875.18 70.00
2061 24.6200 4850.00 4792.03 70.00
2062 24.6300 4814.00 4734.56 69.00
2063 24.6400 4796.00 4700.25 69.00
2064 24.6500 4770.00 4685.60 69.00
2065 24.6600 4786.00 4688.02 69.00
2066 24.6700 4763.00 4705.67 69.00
2067 24.6800 4815.00 4737.47 69.00
2068 24.6900 4882.00 4782.98 70.00
2069 24.7000 4908.00 4842.32 70.00
2070 24.7100 5007.00 4916.05 71.00
2071 24.7200 5121.00 5005.36 72.00
2072 24.7300 5222.00 5111.95 72.00
2073 24.7400 5375.00 5238.17 73.00
2074 24.7500 5576.00 5386.40 75.00
2075 24.7600 5726.00 5562.73 76.00
2076 24.7700 5836.00 5773.71 76.00
2077 24.7800 6140.00 6027.28 78.00
2078 24.7900 6397.00 6327.80 80.00
2079 24.8000 6795.00 6666.03 82.00
2080 24.8100 7124.00 7012.44 84.00
2081 24.8200 7407.00 7328.85 86.00
2082 24.8300 7628.00 7602.17 87.00
2083 24.8400 7893.00 7848.30 89.00
2084 24.8500 8085.00 8069.79 90.00
2085 24.8600 8282.00 8226.10 91.00
2086 24.8700 8378.00 8260.57 92.00
2087 24.8800 8312.00 8137.44 91.00
2088 24.8900 7974.00 7858.55 89.00
2089 24.9000 7556.00 7463.57 87.00
2090 24.9100 7002.00 7013.45 84.00
2091 24.9200 6569.00 6563.01 81.00
2092 24.9300 6158.00 6147.64 78.00
2093 24.9400 5761.00 5786.02 76.00
2094 24.9500 5437.00 5485.23 74.00
2095 24.9600 5237.00 5245.06 72.00
2096 24.9700 5047.00 5060.59 71.00
2097 24.9800 4942.00 4923.70 70.00
2098 24.9900 4876.00 4825.77 70.00
2099 25.0000 4777.00 4756.80 69.00
2100 25.0100 4691.00 4707.10 68.00
2101 25.0200 4663.00 4667.80 68.00
2102 25.0300 4617.00 4632.87 68.00
2103 25.0400 4647.00 4600.65 68.00
2104 25.0500 4655.00 4572.81 68.00
2105 25.0600 4587.00 4551.92 68.00
2106 25.0700 4520.00 4540.27 67.00
2107 25.0800 4604.00 4540.20 68.00
2108 25.0900 4577.00 4553.68 68.00
2109 25.1000 4629.00 4582.60 68.00
2110 25.1100 4705.00 4628.31 69.00
2111 25.1200 4737.00 4691.08 69.00
2112 25.1300 4841.00 4769.22 70.00
2113 25.1400 4975.00 4858.06 71.00
2114 25.1500 5107.00 4948.11 71.00
2115 25.1600 5183.00 5023.60 72.00
2116 25.1700 5264.00 5064.74 73.00
2117 25.1800 5172.00 5056.76 72.00
2118 25.1900 5076.00 5000.47 71.00
2119 25.2000 4969.00 4911.53 70.00
2120 25.2100 4819.00 4809.48 69.00
2121 25.2200 4718.00 4709.20 69.00
2122 25.2300 4608.00 4619.35 68.00
2123 25.2400 4539.00 4543.96 67.00
2124 25.2500 4483.00 4484.01 67.00
2125 25.2600 4458.00 4438.36 67.00
2126 25.2700 4409.00 4405.87 66.00
2127 25.2800 4390.00 4384.01 66.00
2128 25.2900 4422.00 4370.64 66.00
2129 25.3000 4351.00 4363.89 66.00
2130 25.3100 4340.00 4362.25 66.00
2131 25.3200 4386.00 4364.47 66.00
2132 25.3300 4326.00 4369.37 66.00
2133 25.3400 4382.00 4375.86 66.00
2134 25.3500 4375.00 4382.46 66.00
2135 25.3600 4401.00 4387.51 66.00
2136 25.3700 4348.00 4389.38 66.00
2137 25.3800 4363.00 4387.17 66.00
2138 25.3900 4338.00 4381.23 66.00
2139 25.4000 4347.00 4373.08 66.00
2140 25.4100 4372.00 4364.82 66.00
2141 25.4200 4372.00 4358.65 66.00
2142 25.4300 4343.00 4356.69 66.00
2143 25.4400 4344.00 4360.92 66.00
2144 25.4500 4326.00 4373.09 66.00
2145 25.4600 4336.00 4394.39 66.00
2146 25.4700 4436.00 4424.93 67.00
2147 25.4800 4440.00 4462.93 67.00
2148 25.4900 4457.00 4503.29 67.00
2149 25.5000 4501.00 4536.16 67.00
2150 25.5100 4474.00 4549.01 67.00
2151 25.5200 4503.00 4535.07 67.00
2152 25.5300 4480.00 4499.91 67.00
2153 25.5400 4416.00 4455.76 66.00
2154 25.5500 4347.00 4412.60 66.00
2155 25.5600 4322.00 4375.70 66.00
2156 25.5700 4290.00 4346.96 65.00
2157 25.5800 4262.00 4326.40 65.00
2158 25.5900 4272.00 4313.07 65.00
2159 25.6000 4273.00 4305.69 65.00
2160 25.6100 4253.00 4303.05 65.00
2161 25.6200 4262.00 4304.27 65.00
2162 25.6300 4220.00 4308.96 65.00
2163 25.6400 4288.00 4317.28 65.00
2164 25.6500 4315.00 4330.15 66.00
2165 25.6600 4284.00 4349.42 65.00
2166 25.6700 4302.00 4378.21 66.00
2167 25.6800 4344.00 4421.00 66.00
2168 25.6900 4383.00 4483.26 66.00
2169 25.7000 4498.00 4570.69 67.00
2170 25.7100 4600.00 4686.63 68.00
2171 25.7200 4761.00 4828.32 69.00
2172 25.7300 4836.00 4983.99 70.00
2173 25.7400 5020.00 5143.30 71.00
2174 25.7500 5175.00 5306.89 72.00
2175 25.7600 5373.00 5467.95 73.00
2176 25.7700 5494.00 5594.58 74.00
2177 25.7800 5529.00 5645.13 74.00
2178 25.7900 5477.00 5597.72 74.00
2179 25.8000 5338.00 5458.73 73.00
2180 25.8100 5180.00 5258.64 72.00
2181 25.8200 4950.00 5042.08 70.00
2182 25.8300 4803.00 4845.13 69.00
2183 25.8400 4621.00 4684.52 68.00
2184 25.8500 4510.00 4563.11 67.00
2185 25.8600 4410.00 4476.59 66.00
2186 25.8700 4329.00 4417.85 66.00
2187 25.8800 4300.00 4379.80 66.00
2188 25.8900 4307.00 4356.76 66.00
2189 25.9000 4241.00 4345.16 65.00
2190 25.9100 4248.00 4343.28 65.00
2191 25.9200 4255.00 4350.74 65.00
2192 25.9300 4267.00 4367.80 65.00
2193 25.9400 4325.00 4394.56 66.00
2194 25.9500 4403.00 4429.58 66.00
2195 25.9600 4397.00 4470.34 66.00
2196 25.9700 4448.00 4508.99 67.00
2197 25.9800 4475.00 4534.00 67.00
2198 25.9900 4485.00 4535.62 67.00
2199 26.0000 4450.00 4514.40 67.00
2200 26.0100 4430.00 4480.01 67.00
2201 26.0200 4377.00 4442.03 66.00
2202 26.0300 4322.00 4405.36 66.00
2203 26.0400 4308.00 4371.53 66.00
2204 26.0500 4246.00 4341.08 65.00
2205 26.0600 4227.00 4314.58 65.00
2206 26.0700 4212.00 4292.76 65.00
2207 26.0800 4185.00 4274.77 65.00
2208 26.0900 4158.00 4260.52 64.00
2209 26.1000 4175.00 4249.43 65.00
2210 26.1100 4138.00 4240.97 64.00
2211 26.1200 4134.00 4234.68 64.00
2212 26.1300 4166.00 4230.18 65.00
2213 26.1400 4147.00 4227.15 64.00
2214 26.1500 4152.00 4225.36 64.00
2215 26.1600 4144.00 4224.62 64.00
2216 26.1700 4133.00 4224.82 64.00
2217 26.1800 4143.00 4225.91 64.00
2218 26.1900 4134.00 4227.91 64.00
2219 26.2000 4142.00 4230.90 64.00
2220 26.2100 4092.00 4235.00 64.00
2221 26.2200 4144.00 4240.76 64.00
2222 26.2300 4126.00 4247.90 64.00
2223 26.2400 4140.00 4257.28 64.00
2224 26.2500 4223.00 4269.73 65.00
2225 26.2600 4225.00 4286.27 65.00
2226 26.2700 4205.00 4308.19 65.00
2227 26.2800 4274.00 4336.84 65.00
2228 26.2900 4310.00 4373.49 66.00
2229 26.3000 4368.00 4419.17 66.00
2230 26.3100 4438.00 4474.43 67.00
2231 26.3200 4481.00 4537.39 67.00
2232 26.3300 4546.00 4605.03 67.00
2233 26.3400 4633.00 4670.53 68.00
2234 26.3500 4659.00 4723.13 68.00
2235 26.3600 4704.00 4750.71 69.00
2236 26.3700 4679.00 4747.29 68.00
2237 26.3800 4650.00 4717.73 68.00
2238 26.3900 4559.00 4674.14 68.00
2239 26.4000 4509.00 4627.33 67.00
2240 26.4100 4441.00 4584.45 67.00
2241 26.4200 4427.00 4549.23 67.00
2242 26.4300 4412.00 4522.99 66.00
2243 26.4400 4408.00 4505.41 66.00
2244 26.4500 4376.00 4495.25 66.00
2245 26.4600 4400.00 4490.60 66.00
2246 26.4700 4378.00 4489.34 66.00
2247 26.4800 4428.00 4489.25 67.00
2248 26.4900 4448.00 4488.27 67.00
2249 26.5000 4416.00 4484.74 66.00
2250 26.5100 4375.00 4477.57 66.00
2251 26.5200 4356.00 4465.56 66.00
2252 26.5300 4317.00 4450.65 66.00
2253 26.5400 4332.00 4432.77 66.00
2254 26.5500 4320.00 4412.95 66.00
2255 26.5600 4269.00 4392.23 65.00
2256 26.5700 4215.00 4371.57 65.00
2257 26.5800 4259.00 4351.70 65.00
2258 26.5900 4206.00 4333.52 65.00
2259 26.6000 4195.00 4317.37 65.00
2260 26.6100 4190.00 4303.49 65.00
2261 26.6200 4168.00 4292.39 65.00
2262 26.6300 4137.00 4282.25 64.00
2263 26.6400 4151.00 4272.67 64.00
2264 26.6500 4131.00 4262.85 64.00
2265 26.6600 4150.00 4253.19 64.00
2266 26.6700 4193.00 4244.64 65.00
2267 26.6800 4155.00 4237.88 64.00
2268 26.6900 4136.00 4233.16 64.00
2269 26.7000 4160.00 4230.48 64.00
2270 26.7100 4118.00 4229.74 64.00
2271 26.7200 4158.00 4230.81 64.00
2272 26.7300 4169.00 4233.57 65.00
2273 26.7400 4166.00 4238.13 65.00
2274 26.7500 4160.00 4244.61 64.00
2275 26.7600 4167.00 4253.39 65.00
2276 26.7700 4168.00 4264.69 65.00
2277 26.7800 4192.00 4280.72 65.00
2278 26.7900 4254.00 4302.94 65.00
2279 26.8000 4269.00 4334.19 65.00
2280 26.8100 4244.00 4378.22 65.00
2281 26.8200 4364.00 4439.33 66.00
2282 26.8300 4429.00 4521.51 67.00
2283 26.8400 4539.00 4627.16 67.00
2284 26.8500 4697.00 4754.93 69.00
2285 26.8600 4833.00 4896.56 70.00
2286 26.8700 4944.00 5031.71 70.00
2287 26.8800 5086.00 5125.90 71.00
2288 26.8900 5048.00 5144.07 71.00
2289 26.9000 5009.00 5079.47 71.00
2290 26.9100 4927.00 4961.17 70.00
2291 26.9200 4738.00 4826.93 69.00
2292 26.9300 4580.00 4702.76 68.00
2293 26.9400 4493.00 4601.14 67.00
2294 26.9500 4414.00 4526.17 66.00
2295 26.9600 4392.00 4477.72 66.00
2296 26.9700 4446.00 4454.99 67.00
2297 26.9800 4375.00 4456.29 66.00
2298 26.9900 4378.00 4481.57 66.00
2299 27.0000 4489.00 4532.21 67.00
2300 27.0100 4497.00 4610.55 67.00
2301 27.0200 4619.00 4718.79 68.00
2302 27.0300 4753.00 4856.44 69.00
2303 27.0400 4920.00 5019.03 70.00
2304 27.0500 5025.00 5193.73 71.00
2305 27.0600 5244.00 5354.95 72.00
2306 27.0700 5326.00 5464.28 73.00
2307 27.0800 5389.00 5485.46 73.00
2308 27.0900 5354.00 5410.61 73.00
2309 27.1000 5198.00 5266.67 72.00
2310 27.1100 5006.00 5093.03 71.00
2311 27.1200 4886.00 4920.49 70.00
2312 27.1300 4669.00 4766.73 68.00
2313 27.1400 4565.00 4639.26 68.00
2314 27.1500 4464.00 4539.44 67.00
2315 27.1600 4396.00 4465.10 66.00
2316 27.1700 4273.00 4412.18 65.00
2317 27.1800 4290.00 4376.23 65.00
2318 27.1900 4289.00 4353.16 65.00
2319 27.2000 4239.00 4339.75 65.00
2320 27.2100 4284.00 4333.68 65.00
2321 27.2200 4248.00 4333.53 65.00
2322 27.2300 4211.00 4338.49 65.00
2323 27.2400 4285.00 4348.27 65.00
2324 27.2500 4280.00 4362.94 65.00
2325 27.2600 4318.00 4382.94 66.00
2326 27.2700 4335.00 4409.03 66.00
2327 27.2800 4352.00 4442.29 66.00
2328 27.2900 4349.00 4483.89 66.00
2329 27.3000 4415.00 4535.07 66.00
2330 27.3100 4484.00 4597.07 67.00
2331 27.3200 4534.00 4671.09 67.00
2332 27.3300 4633.00 4758.11 68.00
2333 27.3400 4708.00 4858.77 69.00
2334 27.3500 4777.00 4972.54 69.00
2335 27.3600 4935.00 5098.15 70.00
2336 27.3700 5037.00 5231.31 71.00
2337 27.3800 5234.00 5364.95 72.00
2338 27.3900 5373.00 5488.21 73.00
2339 27.4000 5457.00 5585.71 74.00
2340 27.4100 5482.00 5639.35 74.00
2341 27.4200 5495.00 5635.69 74.00
2342 27.4300 5401.00 5576.68 73.00
2343 27.4400 5345.00 5480.74 73.00
2344 27.4500 5222.00 5371.89 72.00
2345 27.4600 5110.00 5270.63 71.00
2346 27.4700 4998.00 5191.80 71.00
2347 27.4800 4962.00 5146.08 70.00
2348 27.4900 4944.00 5140.51 70.00
2349 27.5000 5008.00 5178.37 71.00
2350 27.5100 5119.00 5257.77 72.00
2351 27.5200 5271.00 5368.86 73.00
2352 27.5300 5385.00 5488.97 73.00
2353 27.5400 5537.00 5579.98 74.00
2354 27.5500 5494.00 5598.25 74.00
2355 27.5600 5501.00 5525.30 74.00
2356 27.5700 5302.00 5384.44 73.00
2357 27.5800 5141.00 5218.66 72.00
2358 27.5900 4947.00 5062.67 70.00
2359 27.6000 4832.00 4935.19 70.00
2360 27.6100 4752.00 4843.54 69.00
2361 27.6200 4708.00 4788.37 69.00
2362 27.6300 4724.00 4766.85 69.00
2363 27.6400 4733.00 4774.53 69.00
2364 27.6500 4729.00 4806.60 69.00
2365 27.6600 4823.00 4858.54 69.00
2366 27.6700 4864.00 4926.23 70.00
2367 27.6800 4975.00 5005.71 71.00
2368 27.6900 5109.00 5092.62 71.00
2369 27.7000 5187.00 5181.74 72.00
2370 27.7100 5263.00 5266.54 73.00
2371 27.7200 5326.00 5339.14 73.00
2372 27.7300 5333.00 5390.63 73.00
2373 27.7400 5376.00 5412.22 73.00
2374 27.7500 5339.00 5397.73 73.00
2375 27.7600 5270.00 5346.49 73.00
2376 27.7700 5100.00 5264.35 71.00
2377 27.7800 5003.00 5161.49 71.00
2378 27.7900 4848.00 5048.62 70.00
2379 27.8000 4770.00 4934.36 69.00
2380 27.8100 4675.00 4824.65 68.00
2381 27.8200 4557.00 4723.25 68.00
2382 27.8300 4472.00 4632.17 67.00
2383 27.8400 4398.00 4552.24 66.00
2384 27.8500 4340.00 4483.36 66.00
2385 27.8600 4316.00 4424.88 66.00
2386 27.8700 4291.00 4375.79 66.00
2387 27.8800 4242.00 4335.68 65.00
2388 27.8900 4197.00 4301.96 65.00
2389 27.9000 4203.00 4274.25 65.00
2390 27.9100 4160.00 4251.36 64.00
2391 27.9200 4181.00 4232.84 65.00
2392 27.9300 4144.00 4217.76 64.00
2393 27.9400 4162.00 4205.53 65.00
2394 27.9500 4140.00 4195.69 64.00
2395 27.9600 4150.00 4187.87 64.00
2396 27.9700 4094.00 4181.82 64.00
2397 27.9800 4123.00 4177.40 64.00
2398 27.9900 4161.00 4174.52 65.00
2399 28.0000 4166.00 4173.17 65.00
2400 28.0100 4137.00 4173.37 64.00
2401 28.0200 4120.00 4175.17 64.00
2402 28.0300 4074.00 4178.61 64.00
2403 28.0400 4101.00 4183.67 64.00
2404 28.0500 4104.00 4190.31 64.00
2405 28.0600 4131.00 4198.35 64.00
2406 28.0700 4125.00 4207.42 64.00
2407 28.0800 4166.00 4217.16 65.00
2408 28.0900 4120.00 4226.91 64.00
2409 28.1000 4175.00 4236.66 65.00
2410 28.1100 4234.00 4246.92 65.00
2411 28.1200 4231.00 4259.49 65.00
2412 28.1300 4197.00 4277.11 65.00
2413 28.1400 4240.00 4302.75 65.00
2414 28.1500 4231.00 4338.74 65.00
2415 28.1600 4297.00 4385.71 66.00
2416 28.1700 4331.00 4441.19 66.00
2417 28.1800 4370.00 4496.93 66.00
2418 28.1900 4382.00 4537.77 66.00
2419 28.2000 4432.00 4549.28 67.00
2420 28.2100 4429.00 4527.93 67.00
2421 28.2200 4414.00 4485.50 66.00
2422 28.2300 4369.00 4437.98 66.00
2423 28.2400 4317.00 4396.73 66.00
2424 28.2500 4258.00 4367.46 65.00
2425 28.2600 4246.00 4352.40 65.00
2426 28.2700 4205.00 4352.01 65.00
2427 28.2800 4295.00 4365.92 66.00
2428 28.2900 4323.00 4393.31 66.00
2429 28.3000 4327.00 4433.02 66.00
2430 28.3100 4383.00 4483.28 66.00
2431 28.3200 4457.00 4541.18 67.00
2432 28.3300 4466.00 4601.56 67.00
2433 28.3400 4560.00 4655.82 68.00
2434 28.3500 4614.00 4692.98 68.00
2435 28.3600 4630.00 4702.94 68.00
2436 28.3700 4568.00 4683.65 68.00
2437 28.3800 4547.00 4642.88 67.00
2438 28.3900 4436.00 4592.85 67.00
2439 28.4000 4432.00 4543.90 67.00
2440 28.4100 4410.00 4501.99 66.00
2441 28.4200 4407.00 4468.75 66.00
2442 28.4300 4339.00 4442.48 66.00
2443 28.4400 4352.00 4419.80 66.00
2444 28.4500 4316.00 4398.39 66.00
2445 28.4600 4316.00 4380.04 66.00
2446 28.4700 4299.00 4366.62 66.00
2447 28.4800 4327.00 4363.97 66.00
2448 28.4900 4280.00 4377.31 65.00
2449 28.5000 4323.00 4412.02 66.00
2450 28.5100 4390.00 4473.27 66.00
2451 28.5200 4531.00 4564.98 67.00
2452 28.5300 4641.00 4686.96 68.00
2453 28.5400 4815.00 4830.67 69.00
2454 28.5500 4906.00 4971.31 70.00
2455 28.5600 5049.00 5066.47 71.00
2456 28.5700 4991.00 5081.00 71.00
2457 28.5800 4922.00 5024.80 70.00
2458 28.5900 4875.00 4941.91 70.00
2459 28.6000 4789.00 4870.47 69.00
2460 28.6100 4729.00 4828.94 69.00
2461 28.6200 4749.00 4821.58 69.00
2462 28.6300 4774.00 4844.18 69.00
2463 28.6400 4827.00 4887.18 69.00
2464 28.6500 4927.00 4937.03 70.00
2465 28.6600 4960.00 4975.11 70.00
2466 28.6700 4926.00 4977.24 70.00
2467 28.6800 4908.00 4924.93 70.00
2468 28.6900 4747.00 4824.74 69.00
2469 28.7000 4676.00 4703.50 68.00
2470 28.7100 4606.00 4585.38 68.00
2471 28.7200 4454.00 4482.93 67.00
2472 28.7300 4386.00 4400.18 66.00
2473 28.7400 4298.00 4336.68 66.00
2474 28.7500 4273.00 4289.92 65.00
2475 28.7600 4242.00 4256.74 65.00
2476 28.7700 4227.00 4234.14 65.00
2477 28.7800 4205.00 4219.80 65.00
2478 28.7900 4185.00 4212.17 65.00
2479 28.8000 4198.00 4210.51 65.00
2480 28.8100 4169.00 4214.72 65.00
2481 28.8200 4230.00 4225.27 65.00
2482 28.8300 4240.00 4243.13 65.00
2483 28.8400 4253.00 4269.65 65.00
2484 28.8500 4247.00 4306.33 65.00
2485 28.8600 4317.00 4354.68 66.00
2486 28.8700 4344.00 4415.79 66.00
2487 28.8800 4436.00 4490.04 67.00
2488 28.8900 4551.00 4576.54 67.00
2489 28.9000 4642.00 4672.48 68.00
2490 28.9100 4697.00 4772.21 69.00
2491 28.9200 4834.00 4866.26 70.00
2492 28.9300 4898.00 4941.29 70.00
2493 28.9400 4981.00 4983.62 71.00
2494 28.9500 4977.00 4984.22 71.00
2495 28.9600 4912.00 4945.86 70.00
2496 28.9700 4790.00 4880.77 69.00
2497 28.9800 4723.00 4804.37 69.00
2498 28.9900 4627.00 4729.66 68.00
2499 29.0000 4624.00 4664.84 68.00
2500 29.0100 4577.00 4612.99 68.00
2501 29.0200 4555.00 4572.30 67.00
2502 29.0300 4500.00 4537.62 67.00
2503 29.0400 4519.00 4505.04 67.00
2504 29.0500 4460.00 4476.07 67.00
2505 29.0600 4478.00 4455.37 67.00
2506 29.0700 4492.00 4446.96 67.00
2507 29.0800 4455.00 4452.78 67.00
2508 29.0900 4449.00 4473.30 67.00
2509 29.1000 4484.00 4508.14 67.00
2510 29.1100 4528.00 4556.48 67.00
2511 29.1200 4588.00 4617.21 68.00
2512 29.1300 4687.00 4688.75 68.00
2513 29.1400 4722.00 4768.93 69.00
2514 29.1500 4799.00 4854.59 69.00
2515 29.1600 4927.00 4941.17 70.00
2516 29.1700 4994.00 5022.63 71.00
2517 29.1800 5070.00 5091.62 71.00
2518 29.1900 5177.00 5140.37 72.00
2519 29.2000 5153.00 5161.88 72.00
2520 29.2100 5119.00 5151.63 72.00
2521 29.2200 5104.00 5109.19 71.00
2522 29.2300 4996.00 5039.67 71.00
2523 29.2400 4911.00 4952.08 70.00
2524 29.2500 4846.00 4856.01 70.00
2525 29.2600 4745.00 4759.07 69.00
2526 29.2700 4614.00 4666.67 68.00
2527 29.2800 4515.00 4582.24 67.00
2528 29.2900 4444.00 4507.83 67.00
2529 29.3000 4423.00 4444.52 67.00
2530 29.3100 4381.00 4392.72 66.00
2531 29.3200 4350.00 4352.42 66.00
2532 29.3300 4287.00 4323.46 65.00
2533 29.3400 4309.00 4305.58 66.00
2534 29.3500 4299.00 4298.55 66.00
2535 29.3600 4321.00 4302.10 66.00
2536 29.3700 4335.00 4315.77 66.00
2537 29.3800 4364.00 4338.59 66.00
2538 29.3900 4346.00 4368.70 66.00
2539 29.4000 4431.00 4402.93 67.00
2540 29.4100 4411.00 4436.35 66.00
2541 29.4200 4489.00 4462.97 67.00
2542 29.4300 4516.00 4475.75 67.00
2543 29.4400 4492.00 4468.29 67.00
2544 29.4500 4447.00 4438.95 67.00
2545 29.4600 4411.00 4393.49 66.00
2546 29.4700 4312.00 4341.75 66.00
2547 29.4800 4282.00 4292.13 65.00
2548 29.4900 4249.00 4250.10 65.00
2549 29.5000 4216.00 4217.79 65.00
2550 29.5100 4176.00 4195.50 65.00
2551 29.5200 4194.00 4181.97 65.00
2552 29.5300 4148.00 4174.37 64.00
2553 29.5400 4179.00 4168.29 65.00
2554 29.5500 4198.00 4159.16 65.00
2555 29.5600 4170.00 4145.25 65.00
2556 29.5700 4098.00 4128.53 64.00
2557 29.5800 4114.00 4112.00 64.00
2558 29.5900 4093.00 4097.63 64.00
2559 29.6000 4070.00 4086.21 64.00
2560 29.6100 4111.00 4077.87 64.00
2561 29.6200 4112.00 4072.40 64.00
2562 29.6300 4060.00 4069.53 64.00
2563 29.6400 4064.00 4069.06 64.00
2564 29.6500 4059.00 4070.92 64.00
2565 29.6600 4081.00 4075.28 64.00
2566 29.6700 4137.00 4082.54 64.00
2567 29.6800 4113.00 4093.30 64.00
2568 29.6900 4127.00 4108.32 64.00
2569 29.7000 4125.00 4128.41 64.00
2570 29.7100 4164.00 4154.24 65.00
2571 29.7200 4213.00 4186.23 65.00
2572 29.7300 4292.00 4224.17 66.00
2573 29.7400 4340.00 4266.96 66.00
2574 29.7500 4351.00 4311.93 66.00
2575 29.7600 4413.00 4354.38 66.00
2576 29.7700 4481.00 4387.78 67.00
2577 29.7800 4478.00 4406.26 67.00
2578 29.7900 4480.00 4408.24 67.00
2579 29.8000 4422.00 4397.78 66.00
2580 29.8100 4382.00 4381.84 66.00
2581 29.8200 4370.00 4366.87 66.00
2582 29.8300 4303.00 4357.18 66.00
2583 29.8400 4382.00 4355.16 66.00
2584 29.8500 4388.00 4361.81 66.00
2585 29.8600 4380.00 4377.29 66.00
2586 29.8700 4387.00 4401.30 66.00
2587 29.8800 4420.00 4433.21 66.00
2588 29.8900 4443.00 4472.10 67.00
2589 29.9000 4505.00 4516.37 67.00
2590 29.9100 4607.00 4562.72 68.00
2591 29.9200 4608.00 4604.23 68.00
2592 29.9300 4597.00 4625.05 68.00
2593 29.9400 4592.00 4607.39 68.00
2594 29.9500 4541.00 4552.84 67.00
2595 29.9600 4485.00 4482.87 67.00
2596 29.9700 4446.00 4416.27 67.00
2597 29.9800 4382.00 4361.42 66.00
2598 29.9900 4298.00 4320.13 66.00
2599 30.0000 4269.00 4291.13 65.00
2600 30.0100 4241.00 4271.85 65.00
2601 30.0200 4297.00 4259.37 66.00
2602 30.0300 4337.00 4250.99 66.00
2603 30.0400 4257.00 4244.30 65.00
2604 30.0500 4237.00 4237.36 65.00
2605 30.0600 4237.00 4228.44 65.00
2606 30.0700 4212.00 4216.61 65.00
2607 30.0800 4215.00 4202.06 65.00
2608 30.0900 4237.00 4186.03 65.00
2609 30.1000 4196.00 4170.10 65.00
2610 30.1100 4163.00 4155.72 65.00
2611 30.1200 4184.00 4143.60 65.00
2612 30.1300 4131.00 4134.38 64.00
2613 30.1400 4116.00 4128.43 64.00
2614 30.1500 4176.00 4126.00 65.00
2615 30.1600 4167.00 4127.40 65.00
2616 30.1700 4134.00 4133.09 64.00
2617 30.1800 4148.00 4143.86 64.00
2618 30.1900 4124.00 4161.07 64.00
2619 30.2000 4230.00 4186.81 65.00
2620 30.2100 4277.00 4224.02 65.00
2621 30.2200 4308.00 4276.33 66.00
2622 30.2300 4320.00 4347.55 66.00
2623 30.2400 4476.00 4440.83 67.00
2624 30.2500 4541.00 4557.47 67.00
2625 30.2600 4690.00 4693.34 68.00
2626 30.2700 4866.00 4835.29 70.00
2627 30.2800 4951.00 4955.94 70.00
2628 30.2900 4967.00 5017.93 70.00
2629 30.3000 4973.00 4997.08 71.00
2630 30.3100 4845.00 4905.07 70.00
2631 30.3200 4770.00 4778.10 69.00
2632 30.3300 4640.00 4649.31 68.00
2633 30.3400 4546.00 4537.43 67.00
2634 30.3500 4458.00 4449.99 67.00
2635 30.3600 4423.00 4388.10 67.00
2636 30.3700 4352.00 4349.79 66.00
2637 30.3800 4375.00 4331.92 66.00
2638 30.3900 4373.00 4331.33 66.00
2639 30.4000 4369.00 4345.58 66.00
2640 30.4100 4370.00 4373.11 66.00
2641 30.4200 4416.00 4413.06 66.00
2642 30.4300 4409.00 4464.61 66.00
2643 30.4400 4536.00 4526.01 67.00
2644 30.4500 4613.00 4593.06 68.00
2645 30.4600 4646.00 4657.53 68.00
2646 30.4700 4714.00 4706.73 69.00
2647 30.4800 4722.00 4727.91 69.00
2648 30.4900 4711.00 4716.20 69.00
2649 30.5000 4708.00 4677.54 69.00
2650 30.5100 4648.00 4623.98 68.00
2651 30.5200 4590.00 4567.52 68.00
2652 30.5300 4537.00 4516.91 67.00
2653 30.5400 4481.00 4477.00 67.00
2654 30.5500 4458.00 4449.28 67.00
2655 30.5600 4491.00 4432.56 67.00
2656 30.5700 4478.00 4423.47 67.00
2657 30.5800 4499.00 4417.21 67.00
2658 30.5900 4451.00 4409.08 67.00
2659 30.6000 4445.00 4396.81 67.00
2660 30.6100 4420.00 4381.68 66.00
2661 30.6200 4460.00 4367.83 67.00
2662 30.6300 4476.00 4360.29 67.00
2663 30.6400 4417.00 4363.72 66.00
2664 30.6500 4390.00 4382.01 66.00
2665 30.6600 4473.00 4418.01 67.00
2666 30.6700 4453.00 4473.15 67.00
2667 30.6800 4526.00 4547.84 67.00
2668 30.6900 4634.00 4642.90 68.00
2669 30.7000 4705.00 4757.49 69.00
2670 30.7100 4780.00 4883.82 69.00
2671 30.7200 4909.00 5002.26 70.00
2672 30.7300 4990.00 5083.60 71.00
2673 30.7400 5064.00 5105.65 71.00
2674 30.7500 5078.00 5069.23 71.00
2675 30.7600 5023.00 4990.97 71.00
2676 30.7700 4902.00 4888.64 70.00
2677 30.7800 4801.00 4776.86 69.00
2678 30.7900 4673.00 4667.15 68.00
2679 30.8000 4571.00 4567.27 68.00
2680 30.8100 4504.00 4481.08 67.00
2681 30.8200 4440.00 4409.72 67.00
2682 30.8300 4339.00 4352.62 66.00
2683 30.8400 4337.00 4308.37 66.00
2684 30.8500 4306.00 4275.12 66.00
2685 30.8600 4328.00 4250.70 66.00
2686 30.8700 4329.00 4233.16 66.00
2687 30.8800 4320.00 4219.03 66.00
2688 30.8900 4258.00 4206.45 65.00
2689 30.9000 4284.00 4193.62 65.00
2690 30.9100 4237.00 4179.50 65.00
2691 30.9200 4256.00 4164.45 65.00
2692 30.9300 4273.00 4148.97 65.00
2693 30.9400 4222.00 4133.94 65.00
2694 30.9500 4244.00 4120.10 65.00
2695 30.9600 4232.00 4108.04 65.00
2696 30.9700 4179.00 4098.13 65.00
2697 30.9800 4189.00 4090.64 65.00
2698 30.9900 4178.00 4085.76 65.00
2699 31.0000 4169.00 4083.63 65.00
2700 31.0100 4174.00 4084.44 65.00
2701 31.0200 4204.00 4088.37 65.00
2702 31.0300 4206.00 4095.72 65.00
2703 31.0400 4222.00 4106.87 65.00
2704 31.0500 4246.00 4122.28 65.00
2705 31.0600 4262.00 4142.87 65.00
2706 31.0700 4255.00 4169.47 65.00
2707 31.0800 4297.00 4203.21 66.00
2708 31.0900 4324.00 4245.40 66.00
2709 31.1000 4393.00 4297.47 66.00
2710 31.1100 4475.00 4360.92 67.00
2711 31.1200 4498.00 4437.16 67.00
2712 31.1300 4567.00 4527.18 68.00
2713 31.1400 4677.00 4631.56 68.00
2714 31.1500 4802.00 4749.56 69.00
2715 31.1600 4967.00 4878.77 70.00
2716 31.1700 5095.00 5014.06 71.00
2717 31.1800 5245.00 5146.82 72.00
2718 31.1900 5313.00 5264.58 73.00
2719 31.2000 5452.00 5352.58 74.00
2720 31.2100 5445.00 5396.20 74.00
2721 31.2200 5436.00 5384.27 74.00
2722 31.2300 5396.00 5313.84 73.00
2723 31.2400 5273.00 5195.65 73.00
2724 31.2500 5043.00 5051.27 71.00
2725 31.2600 4911.00 4902.43 70.00
2726 31.2700 4747.00 4764.28 69.00
2727 31.2800 4631.00 4645.20 68.00
2728 31.2900 4605.00 4549.16 68.00
2729 31.3000 4514.00 4475.95 67.00
2730 31.3100 4447.00 4424.40 67.00
2731 31.3200 4461.00 4392.07 67.00
2732 31.3300 4459.00 4375.86 67.00
2733 31.3400 4458.00 4372.85 67.00
2734 31.3500 4462.00 4381.04 67.00
2735 31.3600 4473.00 4399.97 67.00
2736 31.3700 4445.00 4430.23 67.00
2737 31.3800 4476.00 4472.07 67.00
2738 31.3900 4533.00 4523.92 67.00
2739 31.4000 4626.00 4581.19 68.00
2740 31.4100 4696.00 4635.70 69.00
2741 31.4200 4735.00 4676.18 69.00
2742 31.4300 4737.00 4691.18 69.00
2743 31.4400 4753.00 4673.81 69.00
2744 31.4500 4674.00 4624.71 68.00
2745 31.4600 4589.00 4551.53 68.00
2746 31.4700 4533.00 4466.21 67.00
2747 31.4800 4457.00 4381.23 67.00
2748 31.4900 4306.00 4305.32 66.00
2749 31.5000 4316.00 4242.47 66.00
2750 31.5100 4240.00 4193.94 65.00
2751 31.5200 4250.00 4159.07 65.00
2752 31.5300 4244.00 4136.71 65.00
2753 31.5400 4232.00 4125.20 65.00
2754 31.5500 4186.00 4123.21 65.00
2755 31.5600 4215.00 4129.42 65.00
2756 31.5700 4175.00 4142.53 65.00
2757 31.5800 4228.00 4160.89 65.00
2758 31.5900 4247.00 4182.06 65.00
2759 31.6000 4294.00 4202.33 66.00
2760 31.6100 4270.00 4216.74 65.00
2761 31.6200 4303.00 4220.52 66.00
2762 31.6300 4312.00 4211.77 66.00
2763 31.6400 4302.00 4192.64 66.00
2764 31.6500 4282.00 4167.74 65.00
2765 31.6600 4233.00 4141.62 65.00
2766 31.6700 4180.00 4117.33 65.00
2767 31.6800 4177.00 4096.45 65.00
2768 31.6900 4126.00 4079.51 64.00
2769 31.7000 4172.00 4066.42 65.00
2770 31.7100 4146.00 4056.59 64.00
2771 31.7200 4163.00 4049.25 65.00
2772 31.7300 4115.00 4043.50 64.00
2773 31.7400 4120.00 4038.58 64.00
2774 31.7500 4087.00 4033.94 64.00
2775 31.7600 4117.00 4029.29 64.00
2776 31.7700 4159.00 4024.62 64.00
2777 31.7800 4112.00 4020.16 64.00
2778 31.7900 4059.00 4016.20 64.00
2779 31.8000 4078.00 4013.12 64.00
2780 31.8100 4103.00 4011.30 64.00
2781 31.8200 4117.00 4011.10 64.00
2782 31.8300 4146.00 4012.90 64.00
2783 31.8400 4118.00 4016.99 64.00
2784 31.8500 4075.00 4023.60 64.00
2785 31.8600 4130.00 4032.83 64.00
2786 31.8700 4093.00 4044.58 64.00
2787 31.8800 4142.00 4058.37 64.00
2788 31.8900 4180.00 4073.60 65.00
2789 31.9000 4182.00 4088.91 65.00
2790 31.9100 4189.00 4102.09 65.00
2791 31.9200 4246.00 4111.25 65.00
2792 31.9300 4207.00 4115.11 65.00
2793 31.9400 4232.00 4114.09 65.00
2794 31.9500 4246.00 4109.87 65.00
2795 31.9600 4229.00 4104.67 65.00
2796 31.9700 4198.00 4100.42 65.00
2797 31.9800 4182.00 4098.50 65.00
2798 31.9900 4151.00 4099.79 64.00
2799 32.0000 4186.00 4104.89 65.00
2800 32.0100 4241.00 4114.29 65.00
2801 32.0200 4256.00 4128.71 65.00
2802 32.0300 4220.00 4148.87 65.00
2803 32.0400 4241.00 4175.56 65.00
2804 32.0500 4248.00 4209.31 65.00
2805 32.0600 4309.00 4250.20 66.00
2806 32.0700 4353.00 4297.37 66.00
2807 32.0800 4363.00 4348.71 66.00
2808 32.0900 4411.00 4400.25 66.00
2809 32.1000 4487.00 4445.83 67.00
2810 32.1100 4498.00 4477.70 67.00
2811 32.1200 4534.00 4488.61 67.00
2812 32.1300 4529.00 4475.32 67.00
2813 32.1400 4479.00 4440.40 67.00
2814 32.1500 4405.00 4390.64 66.00
2815 32.1600 4371.00 4333.98 66.00
2816 32.1700 4298.00 4276.79 66.00
2817 32.1800 4254.00 4223.27 65.00
2818 32.1900 4226.00 4175.93 65.00
2819 32.2000 4189.00 4135.92 65.00
2820 32.2100 4134.00 4103.60 64.00
2821 32.2200 4128.00 4078.76 64.00
2822 32.2300 4081.00 4060.93 64.00
2823 32.2400 4085.00 4049.47 64.00
2824 32.2500 4143.00 4043.72 64.00
2825 32.2600 4109.00 4043.03 64.00
2826 32.2700 4085.00 4046.97 64.00
2827 32.2800 4101.00 4055.08 64.00
2828 32.2900 4104.00 4066.97 64.00
2829 32.3000 4136.00 4082.25 64.00
2830 32.3100 4180.00 4100.43 65.00
2831 32.3200 4166.00 4120.79 65.00
2832 32.3300 4186.00 4142.31 65.00
2833 32.3400 4246.00 4163.54 65.00
2834 32.3500 4241.00 4182.60 65.00
2835 32.3600 4272.00 4197.45 65.00
2836 32.3700 4284.00 4206.29 65.00
2837 32.3800 4297.00 4208.08 66.00
2838 32.3900 4233.00 4202.70 65.00
2839 32.4000 4250.00 4190.86 65.00
2840 32.4100 4208.00 4173.67 65.00
2841 32.4200 4200.00 4152.51 65.00
2842 32.4300 4162.00 4129.02 65.00
2843 32.4400 4140.00 4104.85 64.00
2844 32.4500 4099.00 4081.22 64.00
2845 32.4600 4132.00 4059.42 64.00
2846 32.4700 4060.00 4039.85 64.00
2847 32.4800 4082.00 4022.74 64.00
2848 32.4900 4086.00 4008.04 64.00
2849 32.5000 4054.00 3995.59 64.00
2850 32.5100 4002.00 3985.16 63.00
2851 32.5200 4018.00 3976.45 63.00
2852 32.5300 3979.00 3969.25 63.00
2853 32.5400 4018.00 3963.31 63.00
2854 32.5500 4014.00 3958.42 63.00
2855 32.5600 3980.00 3954.40 63.00
2856 32.5700 3990.00 3951.09 63.00
2857 32.5800 4027.00 3948.37 63.00
2858 32.5900 3984.00 3946.15 63.00
2859 32.6000 4014.00 3944.35 63.00
2860 32.6100 4065.00 3942.92 64.00
2861 32.6200 4024.00 3941.82 63.00
2862 32.6300 3996.00 3941.02 63.00
2863 32.6400 3994.00 3940.50 63.00
2864 32.6500 3970.00 3940.25 63.00
2865 32.6600 3991.00 3940.28 63.00
2866 32.6700 4015.00 3940.60 63.00
2867 32.6800 3988.00 3941.25 63.00
2868 32.6900 3936.00 3942.32 63.00
2869 32.7000 3962.00 3943.93 63.00
2870 32.7100 3969.00 3946.26 63.00
2871 32.7200 3973.00 3949.58 63.00
2872 32.7300 4039.00 3954.18 64.00
2873 32.7400 3985.00 3960.39 63.00
2874 32.7500 3953.00 3968.44 63.00
2875 32.7600 3984.00 3978.44 63.00
2876 32.7700 3986.00 3990.03 63.00
2877 32.7800 4041.00 4002.25 64.00
2878 32.7900 4078.00 4012.92 64.00
2879 32.8000 4045.00 4019.07 64.00
2880 32.8100 4053.00 4019.15 64.00
2881 32.8200 4073.00 4013.22 64.00
2882 32.8300 4056.00 4004.58 64.00
2883 32.8400 4030.00 3995.84 63.00
2884 32.8500 4051.00 3988.87 64.00
2885 32.8600 4012.00 3984.29 63.00
2886 32.8700 3993.00 3982.37 63.00
2887 32.8800 4033.00 3983.24 64.00
2888 32.8900 4004.00 3986.96 63.00
2889 32.9000 4088.00 3993.68 64.00
2890 32.9100 4045.00 4003.71 64.00
2891 32.9200 4059.00 4017.42 64.00
2892 32.9300 4039.00 4035.29 64.00
2893 32.9400 4055.00 4057.69 64.00
2894 32.9500 4076.00 4084.71 64.00
2895 32.9600 4155.00 4116.50 64.00
2896 32.9700 4171.00 4152.00 65.00
2897 32.9800 4233.00 4189.18 65.00
2898 32.9900 4202.00 4224.63 65.00
2899 33.0000 4269.00 4253.18 65.00
2900 33.0100 4287.00 4269.22 65.00
2901 33.0200 4309.00 4269.37 66.00
2902 33.0300 4295.00 4254.59 66.00
2903 33.0400 4312.00 4229.67 66.00
2904 33.0500 4216.00 4200.50 65.00
2905 33.0600 4211.00 4171.85 65.00
2906 33.0700 4157.00 4147.00 64.00
2907 33.0800 4185.00 4127.96 65.00
2908 33.0900 4176.00 4116.10 65.00
2909 33.1000 4152.00 4112.64 64.00
2910 33.1100 4156.00 4119.01 64.00
2911 33.1200 4162.00 4137.17 65.00
2912 33.1300 4208.00 4169.25 65.00
2913 33.1400 4231.00 4217.04 65.00
2914 33.1500 4312.00 4280.84 66.00
2915 33.1600 4350.00 4356.71 66.00
2916 33.1700 4369.00 4432.23 66.00
2917 33.1800 4443.00 4483.60 67.00
2918 33.1900 4430.00 4488.46 67.00
2919 33.2000 4438.00 4449.59 67.00
2920 33.2100 4455.00 4391.52 67.00
2921 33.2200 4392.00 4336.31 66.00
2922 33.2300 4333.00 4294.66 66.00
2923 33.2400 4321.00 4268.90 66.00
2924 33.2500 4263.00 4257.57 65.00
2925 33.2600 4297.00 4257.43 66.00
2926 33.2700 4306.00 4264.32 66.00
2927 33.2800 4293.00 4273.44 66.00
2928 33.2900 4262.00 4279.77 65.00
2929 33.3000 4273.00 4279.38 65.00
2930 33.3100 4253.00 4269.42 65.00
2931 33.3200 4278.00 4251.53 65.00
2932 33.3300 4270.00 4229.13 65.00
2933 33.3400 4181.00 4206.02 65.00
2934 33.3500 4170.00 4185.10 65.00
2935 33.3600 4171.00 4168.09 65.00
2936 33.3700 4125.00 4155.94 64.00
2937 33.3800 4153.00 4148.94 64.00
2938 33.3900 4175.00 4147.02 65.00
2939 33.4000 4176.00 4149.82 65.00
2940 33.4100 4160.00 4156.80 64.00
2941 33.4200 4204.00 4167.34 65.00
2942 33.4300 4134.00 4180.85 64.00
2943 33.4400 4155.00 4197.02 64.00
2944 33.4500 4253.00 4216.08 65.00
2945 33.4600 4222.00 4238.80 65.00
2946 33.4700 4225.00 4266.24 65.00
2947 33.4800 4289.00 4298.83 65.00
2948 33.4900 4288.00 4335.33 65.00
2949 33.5000 4353.00 4372.04 66.00
2950 33.5100 4379.00 4403.28 66.00
2951 33.5200 4422.00 4422.42 66.00
2952 33.5300 4385.00 4422.91 66.00
2953 33.5400 4391.00 4400.31 66.00
2954 33.5500 4347.00 4356.61 66.00
2955 33.5600 4346.00 4300.82 66.00
2956 33.5700 4317.00 4243.42 66.00
2957 33.5800 4218.00 4191.47 65.00
2958 33.5900 4154.00 4148.19 64.00
2959 33.6000 4149.00 4114.25 64.00
2960 33.6100 4093.00 4089.06 64.00
2961 33.6200 4078.00 4071.55 64.00
2962 33.6300 4080.00 4060.48 64.00
2963 33.6400 4055.00 4054.67 64.00
2964 33.6500 4023.00 4053.06 63.00
2965 33.6600 4051.00 4054.65 64.00
2966 33.6700 4059.00 4058.76 64.00
2967 33.6800 4062.00 4063.60 64.00
2968 33.6900 4107.00 4068.27 64.00
2969 33.7000 4093.00 4071.70 64.00
2970 33.7100 4083.00 4073.33 64.00
2971 33.7200 4101.00 4073.19 64.00
2972 33.7300 4052.00 4071.81 64.00
2973 33.7400 4108.00 4070.01 64.00
2974 33.7500 4108.00 4068.57 64.00
2975 33.7600 4067.00 4068.52 64.00
2976 33.7700 4032.00 4070.28 63.00
2977 33.7800 4081.00 4074.24 64.00
2978 33.7900 4075.00 4080.75 64.00
2979 33.8000 4113.00 4090.20 64.00
2980 33.8100 4143.00 4103.16 64.00
2981 33.8200 4145.00 4120.45 64.00
2982 33.8300 4119.00 4143.26 64.00
2983 33.8400 4151.00 4173.02 64.00
2984 33.8500 4180.00 4211.37 65.00
2985 33.8600 4292.00 4259.86 66.00
2986 33.8700 4356.00 4319.23 66.00
2987 33.8800 4409.00 4388.60 66.00
2988 33.8900 4464.00 4463.43 67.00
2989 33.9000 4527.00 4533.27 67.00
2990 33.9100 4561.00 4583.79 68.00
2991 33.9200 4647.00 4606.60 68.00
2992 33.9300 4667.00 4607.90 68.00
2993 33.9400 4652.00 4602.51 68.00
2994 33.9500 4628.00 4602.32 68.00
2995 33.9600 4627.00 4612.31 68.00
2996 33.9700 4647.00 4631.90 68.00
2997 33.9800 4704.00 4657.18 69.00
2998 33.9900 4746.00 4681.82 69.00
2999 34.0000 4747.00 4699.08 69.00
3000 34.0100 4737.00 4704.31 69.00
3001 34.0200 4731.00 4696.60 69.00
3002 34.0300 4678.00 4678.56 68.00
3003 34.0400 4668.00 4653.33 68.00
3004 34.0500 4664.00 4622.95 68.00
3005 34.0600 4595.00 4587.54 68.00
3006 34.0700 4561.00 4545.99 68.00
3007 34.0800 4540.00 4497.25 67.00
3008 34.0900 4454.00 4442.39 67.00
3009 34.1000 4407.00 4384.94 66.00
3010 34.1100 4368.00 4328.92 66.00
3011 34.1200 4317.00 4277.20 66.00
3012 34.1300 4205.00 4231.18 65.00
3013 34.1400 4182.00 4191.28 65.00
3014 34.1500 4155.00 4157.28 64.00
3015 34.1600 4157.00 4128.72 64.00
3016 34.1700 4144.00 4104.97 64.00
3017 34.1800 4130.00 4085.39 64.00
3018 34.1900 4031.00 4069.40 63.00
3019 34.2000 4077.00 4056.42 64.00
3020 34.2100 4029.00 4046.01 63.00
3021 34.2200 4049.00 4037.79 64.00
3022 34.2300 4067.00 4031.48 64.00
3023 34.2400 4042.00 4026.89 64.00
3024 34.2500 4045.00 4023.96 64.00
3025 34.2600 4052.00 4022.67 64.00
3026 34.2700 4028.00 4023.36 63.00
3027 34.2800 4023.00 4026.26 63.00
3028 34.2900 4076.00 4031.76 64.00
3029 34.3000 4059.00 4040.21 64.00
3030 34.3100 4070.00 4051.83 64.00
3031 34.3200 4100.00 4066.63 64.00
3032 34.3300 4075.00 4083.81 64.00
3033 34.3400 4101.00 4101.35 64.00
3034 34.3500 4138.00 4115.58 64.00
3035 34.3600 4113.00 4121.90 64.00
3036 34.3700 4088.00 4117.56 64.00
3037 34.3800 4078.00 4104.27 64.00
3038 34.3900 4054.00 4086.40 64.00
3039 34.4000 4063.00 4068.09 64.00
3040 34.4100 4084.00 4051.77 64.00
3041 34.4200 4063.00 4038.49 64.00
3042 34.4300 4041.00 4028.38 64.00
3043 34.4400 4037.00 4021.14 64.00
3044 34.4500 4042.00 4016.22 64.00
3045 34.4600 4041.00 4012.93 64.00
3046 34.4700 4013.00 4010.62 63.00
3047 34.4800 4052.00 4008.80 64.00
3048 34.4900 4009.00 4007.21 63.00
3049 34.5000 4020.00 4005.85 63.00
3050 34.5100 3969.00 4004.88 63.00
3051 34.5200 4005.00 4004.48 63.00
3052 34.5300 4022.00 4004.84 63.00
3053 34.5400 4028.00 4006.12 63.00
3054 34.5500 4008.00 4008.45 63.00
3055 34.5600 4013.00 4012.00 63.00
3056 34.5700 4027.00 4016.90 63.00
3057 34.5800 4040.00 4023.31 64.00
3058 34.5900 4074.00 4031.35 64.00
3059 34.6000 4049.00 4041.11 64.00
3060 34.6100 4031.00 4052.62 63.00
3061 34.6200 4066.00 4065.81 64.00
3062 34.6300 4045.00 4080.43 64.00
3063 34.6400 4074.00 4095.98 64.00
3064 34.6500 4107.00 4111.69 64.00
3065 34.6600 4089.00 4126.35 64.00
3066 34.6700 4080.00 4138.51 64.00
3067 34.6800 4123.00 4146.78 64.00
3068 34.6900 4112.00 4150.41 64.00
3069 34.7000 4139.00 4149.80 64.00
3070 34.7100 4153.00 4146.44 64.00
3071 34.7200 4120.00 4142.32 64.00
3072 34.7300 4090.00 4139.38 64.00
3073 34.7400 4107.00 4139.26 64.00
3074 34.7500 4121.00 4143.27 64.00
3075 34.7600 4148.00 4152.54 64.00
3076 34.7700 4200.00 4167.55 65.00
3077 34.7800 4165.00 4188.60 65.00
3078 34.7900 4164.00 4215.24 65.00
3079 34.8000 4241.00 4245.90 65.00
3080 34.8100 4286.00 4277.41 65.00
3081 34.8200 4350.00 4304.55 66.00
3082 34.8300 4377.00 4321.21 66.00
3083 34.8400 4395.00 4323.05 66.00
3084 34.8500 4347.00 4309.92 66.00
3085 34.8600 4319.00 4285.47 66.00
3086 34.8700 4255.00 4255.04 65.00
3087 34.8800 4264.00 4223.51 65.00
3088 34.8900 4221.00 4194.74 65.00
3089 34.9000 4172.00 4170.84 65.00
3090 34.9100 4137.00 4153.12 64.00
3091 34.9200 4103.00 4142.26 64.00
3092 34.9300 4087.00 4138.64 64.00
3093 34.9400 4117.00 4142.46 64.00
3094 34.9500 4163.00 4153.71 65.00
3095 34.9600 4158.00 4172.14 64.00
3096 34.9700 4167.00 4197.09 65.00
3097 34.9800 4194.00 4227.01 65.00
3098 34.9900 4170.00 4259.13 65.00
3099 35.0000 4245.00 4288.82 65.00
3100 35.0100 4279.00 4310.35 65.00
3101 35.0200 4304.00 4319.19 66.00
3102 35.0300 4246.00 4315.16 65.00
3103 35.0400 4294.00 4302.37 66.00
3104 35.0500 4215.00 4286.44 65.00
3105 35.0600 4241.00 4271.38 65.00
3106 35.0700 4239.00 4258.56 65.00
3107 35.0800 4230.00 4247.77 65.00
3108 35.0900 4208.00 4239.22 65.00
3109 35.1000 4190.00 4233.88 65.00
3110 35.1100 4143.00 4232.41 64.00
3111 35.1200 4194.00 4234.76 65.00
3112 35.1300 4224.00 4240.46 65.00
3113 35.1400 4208.00 4248.71 65.00
3114 35.1500 4196.00 4258.58 65.00
3115 35.1600 4216.00 4268.65 65.00
3116 35.1700 4245.00 4277.18 65.00
3117 35.1800 4278.00 4282.57 65.00
3118 35.1900 4291.00 4284.03 66.00
3119 35.2000 4278.00 4281.90 65.00
3120 35.2100 4224.00 4277.18 65.00
3121 35.2200 4247.00 4270.91 65.00
3122 35.2300 4196.00 4263.98 65.00
3123 35.2400 4227.00 4256.94 65.00
3124 35.2500 4218.00 4249.90 65.00
3125 35.2600 4172.00 4242.56 65.00
3126 35.2700 4135.00 4234.27 64.00
3127 35.2800 4183.00 4224.49 65.00
3128 35.2900 4124.00 4213.06 64.00
3129 35.3000 4149.00 4200.44 64.00
3130 35.3100 4159.00 4187.42 64.00
3131 35.3200 4146.00 4174.83 64.00
3132 35.3300 4069.00 4163.27 64.00
3133 35.3400 4118.00 4153.05 64.00
3134 35.3500 4058.00 4144.22 64.00
3135 35.3600 4087.00 4136.70 64.00
3136 35.3700 4128.00 4130.34 64.00
3137 35.3800 4099.00 4125.01 64.00
3138 35.3900 4049.00 4120.61 64.00
3139 35.4000 4063.00 4117.10 64.00
3140 35.4100 4040.00 4114.52 64.00
3141 35.4200 4072.00 4112.92 64.00
3142 35.4300 4119.00 4112.34 64.00
3143 35.4400 4090.00 4112.77 64.00
3144 35.4500 4057.00 4114.10 64.00
3145 35.4600 4083.00 4116.08 64.00
3146 35.4700 4080.00 4118.34 64.00
3147 35.4800 4091.00 4120.49 64.00
3148 35.4900 4121.00 4122.23 64.00
3149 35.5000 4092.00 4123.38 64.00
3150 35.5100 4049.00 4123.68 64.00
3151 35.5200 4091.00 4122.96 64.00
3152 35.5300 4043.00 4120.86 64.00
3153 35.5400 4109.00 4117.28 64.00
3154 35.5500 4084.00 4112.42 64.00
3155 35.5600 4048.00 4106.78 64.00
3156 35.5700 4007.00 4101.07 63.00
3157 35.5800 4057.00 4096.02 64.00
3158 35.5900 4030.00 4092.29 63.00
3159 35.6000 4075.00 4090.37 64.00
3160 35.6100 4078.00 4090.55 64.00
3161 35.6200 4059.00 4092.86 64.00
3162 35.6300 4048.00 4096.94 64.00
3163 35.6400 4050.00 4101.87 64.00
3164 35.6500 4034.00 4106.23 64.00
3165 35.6600 4072.00 4108.64 64.00
3166 35.6700 4098.00 4108.71 64.00
3167 35.6800 4065.00 4107.60 64.00
3168 35.6900 4039.00 4107.32 64.00
3169 35.7000 4038.00 4109.53 64.00
3170 35.7100 4064.00 4114.80 64.00
3171 35.7200 4108.00 4122.81 64.00
3172 35.7300 4107.00 4133.35 64.00
3173 35.7400 4112.00 4146.48 64.00
3174 35.7500 4092.00 4161.09 64.00
3175 35.7600 4141.00 4173.48 64.00
3176 35.7700 4140.00 4179.67 64.00
3177 35.7800 4136.00 4178.95 64.00
3178 35.7900 4172.00 4175.15 65.00
3179 35.8000 4140.00 4173.55 64.00
3180 35.8100 4100.00 4177.82 64.00
3181 35.8200 4129.00 4189.80 64.00
3182 35.8300 4159.00 4209.45 64.00
3183 35.8400 4171.00 4235.17 65.00
3184 35.8500 4213.00 4263.42 65.00
3185 35.8600 4220.00 4288.65 65.00
3186 35.8700 4241.00 4305.26 65.00
3187 35.8800 4296.00 4311.24 66.00
3188 35.8900 4243.00 4309.59 65.00
3189 35.9000 4279.00 4305.44 65.00
3190 35.9100 4264.00 4302.92 65.00
3191 35.9200 4269.00 4304.27 65.00
3192 35.9300 4235.00 4310.45 65.00
3193 35.9400 4285.00 4321.74 65.00
3194 35.9500 4265.00 4338.24 65.00
3195 35.9600 4301.00 4359.99 66.00
3196 35.9700 4333.00 4386.80 66.00
3197 35.9800 4343.00 4417.50 66.00
3198 35.9900 4361.00 4448.91 66.00
3199 36.0000 4403.00 4475.09 66.00
3200 36.0100 4406.00 4488.41 66.00
3201 36.0200 4424.00 4483.08 67.00
3202 36.0300 4423.00 4458.99 67.00
3203 36.0400 4399.00 4421.69 66.00
3204 36.0500 4344.00 4378.63 66.00
3205 36.0600 4305.00 4335.53 66.00
3206 36.0700 4263.00 4295.63 65.00
3207 36.0800 4229.00 4260.22 65.00
3208 36.0900 4210.00 4229.07 65.00
3209 36.1000 4177.00 4201.76 65.00
3210 36.1100 4133.00 4177.71 64.00
3211 36.1200 4110.00 4156.65 64.00
3212 36.1300 4055.00 4138.46 64.00
3213 36.1400 4060.00 4123.13 64.00
3214 36.1500 4105.00 4110.62 64.00
3215 36.1600 4048.00 4100.85 64.00
3216 36.1700 4012.00 4093.68 63.00
3217 36.1800 4042.00 4088.97 64.00
3218 36.1900 4036.00 4086.55 64.00
3219 36.2000 4037.00 4086.18 64.00
3220 36.2100 4051.00 4087.54 64.00
3221 36.2200 4009.00 4090.27 63.00
3222 36.2300 4001.00 4093.77 63.00
3223 36.2400 4055.00 4097.30 64.00
3224 36.2500 4025.00 4099.95 63.00
3225 36.2600 4065.00 4100.78 64.00
3226 36.2700 4065.00 4099.02 64.00
3227 36.2800 4018.00 4094.29 63.00
3228 36.2900 4016.00 4086.69 63.00
3229 36.3000 4033.00 4076.85 64.00
3230 36.3100 4009.00 4065.63 63.00
3231 36.3200 4019.00 4054.00 63.00
3232 36.3300 3978.00 4042.71 63.00
3233 36.3400 3970.00 4032.35 63.00
3234 36.3500 3936.00 4023.28 63.00
3235 36.3600 3984.00 4015.84 63.00
3236 36.3700 3923.00 4010.16 63.00
3237 36.3800 3977.00 4006.28 63.00
3238 36.3900 3965.00 4004.19 63.00
3239 36.4000 3952.00 4003.83 63.00
3240 36.4100 3932.00 4005.24 63.00
3241 36.4200 3974.00 4008.68 63.00
3242 36.4300 3946.00 4014.52 63.00
3243 36.4400 3976.00 4023.18 63.00
3244 36.4500 4018.00 4035.02 63.00
3245 36.4600 3987.00 4050.36 63.00
3246 36.4700 3979.00 4069.46 63.00
3247 36.4800 4011.00 4092.41 63.00
3248 36.4900 4012.00 4119.13 63.00
3249 36.5000 4045.00 4149.12 64.00
3250 36.5100 4107.00 4181.40 64.00
3251 36.5200 4114.00 4214.29 64.00
3252 36.5300 4156.00 4245.33 64.00
3253 36.5400 4182.00 4271.35 65.00
3254 36.5500 4213.00 4289.36 65.00
3255 36.5600 4206.00 4296.98 65.00
3256 36.5700 4281.00 4294.05 65.00
3257 36.5800 4228.00 4282.85 65.00
3258 36.5900 4192.00 4266.80 65.00
3259 36.6000 4201.00 4248.93 65.00
3260 36.6100 4174.00 4231.04 65.00
3261 36.6200 4179.00 4213.70 65.00
3262 36.6300 4158.00 4196.71 64.00
3263 36.6400 4144.00 4179.88 64.00
3264 36.6500 4107.00 4163.49 64.00
3265 36.6600 4112.00 4148.47 64.00
3266 36.6700 4058.00 4136.00 64.00
3267 36.6800 4063.00 4127.23 64.00
3268 36.6900 4091.00 4122.96 64.00
3269 36.7000 4045.00 4123.64 64.00
3270 36.7100 4049.00 4129.22 64.00
3271 36.7200 4116.00 4139.19 64.00
3272 36.7300 4120.00 4152.43 64.00
3273 36.7400 4139.00 4167.16 64.00
3274 36.7500 4142.00 4180.91 64.00
3275 36.7600 4144.00 4190.95 64.00
3276 36.7700 4127.00 4194.64 64.00
3277 36.7800 4153.00 4190.36 64.00
3278 36.7900 4115.00 4178.16 64.00
3279 36.8000 4166.00 4159.94 65.00
3280 36.8100 4152.00 4138.36 64.00
3281 36.8200 4104.00 4116.01 64.00
3282 36.8300 4021.00 4094.86 63.00
3283 36.8400 4039.00 4076.25 64.00
3284 36.8500 4028.00 4060.94 63.00
3285 36.8600 4043.00 4049.36 64.00
3286 36.8700 4030.00 4041.56 63.00
3287 36.8800 4012.00 4037.23 63.00
3288 36.8900 3975.00 4035.75 63.00
3289 36.9000 4058.00 4036.05 64.00
3290 36.9100 4015.00 4036.59 63.00
3291 36.9200 4065.00 4035.48 64.00
3292 36.9300 4079.00 4030.98 64.00
3293 36.9400 4029.00 4022.18 63.00
3294 36.9500 3983.00 4009.46 63.00
3295 36.9600 3986.00 3994.17 63.00
3296 36.9700 3983.00 3977.91 63.00
3297 36.9800 3952.00 3962.01 63.00
3298 36.9900 3976.00 3947.34 63.00
3299 37.0000 3942.00 3934.40 63.00
3300 37.0100 3917.00 3923.41 63.00
3301 37.0200 3938.00 3914.47 63.00
3302 37.0300 3902.00 3907.52 62.00
3303 37.0400 3919.00 3902.43 63.00
3304 37.0500 3932.00 3898.98 63.00
3305 37.0600 3922.00 3896.87 63.00
3306 37.0700 3871.00 3895.82 62.00
3307 37.0800 3894.00 3895.54 62.00
3308 37.0900 3898.00 3895.81 62.00
3309 37.1000 3906.00 3896.54 62.00
3310 37.1100 3928.00 3897.70 63.00
3311 37.1200 3907.00 3899.35 63.00
3312 37.1300 3861.00 3901.62 62.00
3313 37.1400 3896.00 3904.34 62.00
3314 37.1500 3879.00 3907.54 62.00
3315 37.1600 3928.00 3911.21 63.00
3316 37.1700 3923.00 3915.49 63.00
3317 37.1800 3920.00 3920.68 63.00
3318 37.1900 3949.00 3927.14 63.00
3319 37.2000 3950.00 3935.16 63.00
3320 37.2100 3943.00 3944.89 63.00
3321 37.2200 3985.00 3956.14 63.00
3322 37.2300 4018.00 3968.39 63.00
3323 37.2400 4000.00 3980.82 63.00
3324 37.2500 3953.00 3992.18 63.00
3325 37.2600 4013.00 4001.10 63.00
3326 37.2700 3967.00 4006.59 63.00
3327 37.2800 4028.00 4008.63 63.00
3328 37.2900 4018.00 4008.07 63.00
3329 37.3000 4031.00 4005.93 63.00
3330 37.3100 4017.00 4002.78 63.00
3331 37.3200 4043.00 3998.61 64.00
3332 37.3300 4003.00 3993.00 63.00
3333 37.3400 4027.00 3985.46 63.00
3334 37.3500 4003.00 3975.62 63.00
3335 37.3600 4024.00 3963.47 63.00
3336 37.3700 3953.00 3949.33 63.00
3337 37.3800 3978.00 3933.78 63.00
3338 37.3900 3929.00 3917.51 63.00
3339 37.4000 3946.00 3901.16 63.00
3340 37.4100 3957.00 3885.35 63.00
3341 37.4200 3908.00 3870.54 63.00
3342 37.4300 3887.00 3857.09 62.00
3343 37.4400 3891.00 3845.31 62.00
3344 37.4500 3877.00 3835.39 62.00
3345 37.4600 3865.00 3827.49 62.00
3346 37.4700 3888.00 3821.70 62.00
3347 37.4800 3860.00 3818.07 62.00
3348 37.4900 3847.00 3816.57 62.00
3349 37.5000 3835.00 3817.16 62.00
3350 37.5100 3875.00 3819.69 62.00
3351 37.5200 3859.00 3823.91 62.00
3352 37.5300 3899.00 3829.42 62.00
3353 37.5400 3881.00 3835.64 62.00
3354 37.5500 3860.00 3841.88 62.00
3355 37.5600 3900.00 3847.32 62.00
3356 37.5700 3866.00 3851.06 62.00
3357 37.5800 3942.00 3851.82 63.00
3358 37.5900 3922.00 3848.34 63.00
3359 37.6000 3901.00 3839.81 62.00
3360 37.6100 3895.00 3827.08 62.00
3361 37.6200 3901.00 3812.10 62.00
3362 37.6300 3837.00 3796.72 62.00
3363 37.6400 3870.00 3782.07 62.00
3364 37.6500 3857.00 3768.61 62.00
3365 37.6600 3846.00 3756.48 62.00
3366 37.6700 3808.00 3745.66 62.00
3367 37.6800 3824.00 3736.04 62.00
3368 37.6900 3772.00 3727.52 61.00
3369 37.7000 3814.00 3720.00 62.00
3370 37.7100 3826.00 3713.40 62.00
3371 37.7200 3836.00 3707.67 62.00
3372 37.7300 3781.00 3702.71 61.00
3373 37.7400 3815.00 3698.41 62.00
3374 37.7500 3768.00 3694.61 61.00
3375 37.7600 3810.00 3690.99 62.00
3376 37.7700 3805.00 3687.16 62.00
3377 37.7800 3807.00 3682.76 62.00
3378 37.7900 3777.00 3677.70 61.00
3379 37.8000 3781.00 3671.96 61.00
3380 37.8100 3787.00 3666.03 62.00
3381 37.8200 3780.00 3660.34 61.00
loop_
_pd_proc_info_excluded_regions
'from 0.01 to 4.010'
'from 37.83 to 78.048'
loop_
_refln_index_h
_refln_index_k
_refln_index_l
_refln_F_squared_calc
_refln_F_squared_meas
_refln_F_squared_sigma
_refln_observed_status
_refln_d_spacing
2 0 0 467.64 415.31 6.94 o 5.809999
1 0 1 895.03 913.45 10.46 o 4.101237
2 0 1 4251.06 4147.62 20.80 o 3.499184
2 1 0 2083.00 2057.93 16.57 o 3.416281
0 1 1 6980.41 7038.61 29.44 o 3.041427
1 1 1 29423.00 29434.88 40.82 o 2.942311
4 0 0 57434.11 57515.82 112.55 o 2.905000
3 0 1 179.76 179.75 0.36 o 2.902503
2 1 1 8.16 8.98 1.23 o 2.694556
4 0 1 199.20 178.03 3.64 o 2.421488
4 1 0 3556.23 3573.94 8.20 o 2.393499
3 1 1 15885.54 15947.99 36.68 o 2.392102
0 0 2 23809.94 23172.42 117.83 o 2.191666
1 0 2 7337.65 7366.95 49.35 o 2.153693
0 2 0 45321.59 45086.20 133.86 o 2.111785
4 1 1 4555.48 4459.31 17.59 o 2.100720
5 0 1 4423.23 4604.87 42.41 o 2.053262
2 0 2 419.69 438.78 3.98 o 2.050618
2 2 0 220.32 417.65 35.05 o 1.984745
6 0 0 1588.37 1831.47 49.03 o 1.936666
1 1 2 3573.51 3732.66 24.04 o 1.918646
3 0 2 6666.48 6753.65 42.10 o 1.907479
1 2 1 380.76 436.90 11.73 o 1.877505
5 1 1 20096.52 20063.39 57.21 o 1.846614
2 1 2 478.93 476.91 1.36 o 1.844690
2 2 1 2048.77 2096.45 26.67 o 1.808037
6 0 1 2030.02 2112.69 37.62 o 1.771466
6 1 0 2084.25 2044.70 20.73 o 1.760419
4 0 2 15127.00 15005.39 79.69 o 1.749592
3 1 2 1743.84 1709.13 13.82 o 1.738411
4 2 0 29616.94 28935.85 113.42 o 1.708140
3 2 1 133.13 130.02 0.52 o 1.707632
6 1 1 37.19 0.63 0.94 < 1.633596
4 1 2 1249.91 1119.60 30.64 o 1.616395
5 0 2 3800.44 3421.23 67.26 o 1.594473
4 2 1 106.41 96.44 1.93 o 1.591564
7 0 1 581.64 321.30 40.77 o 1.552406
0 2 2 13276.74 12866.67 95.22 o 1.520714
1 2 2 3978.88 3858.12 40.22 o 1.507856
5 1 2 3481.11 3435.95 43.21 o 1.491714
5 2 1 2346.74 2327.35 36.18 o 1.472130
2 2 2 245.91 243.91 3.84 o 1.471155
7 1 1 3243.42 3267.22 25.17 o 1.457097
8 0 0 15427.85 15834.24 120.98 o 1.452500
6 0 2 1870.92 1903.41 13.64 o 1.451252
1 0 3 1478.03 1496.69 10.39 o 1.449695
6 2 0 975.03 969.36 30.70 o 1.427331
2 0 3 3866.01 3724.34 37.13 o 1.416990
3 2 2 3683.70 3541.39 36.67 o 1.415525
0 1 3 9457.17 9486.39 80.68 o 1.380820
8 0 1 291.82 290.12 2.98 o 1.378773
8 1 0 4984.16 4999.62 45.33 o 1.373545
6 1 2 21.12 21.31 0.20 o 1.372489
1 1 3 2504.91 2548.42 20.53 o 1.371173
2 3 0 396.46 407.74 3.71 o 1.368260
3 0 3 2493.36 2570.46 22.96 o 1.367079
6 2 1 1116.94 1223.03 23.24 o 1.357190
4 2 2 8843.25 8901.73 63.15 o 1.347278
2 1 3 0.01 0.01 0.00 o 1.343401
0 3 1 1984.96 2038.39 14.72 o 1.340415
1 3 1 8879.98 9023.36 68.05 o 1.331585
7 0 2 3115.50 3139.62 43.96 o 1.323276
8 1 1 1583.76 1739.85 44.51 o 1.310701
2 3 1 2.08 2.30 0.06 o 1.306106
4 0 3 242.70 270.25 6.56 o 1.305306
3 1 3 477.68 624.32 28.63 o 1.300643
5 2 2 2203.80 2325.56 32.86 o 1.272496
4 3 0 1193.10 1237.23 12.36 o 1.266917
3 3 1 4977.31 5139.54 52.68 o 1.266710
7 1 2 412.08 422.37 5.42 o 1.262749
7 2 1 419.25 427.62 5.21 o 1.250804
4 1 3 6872.67 6872.69 71.34 o 1.247106
9 0 1 4755.90 5037.65 93.40 o 1.238502
5 0 3 129.53 132.53 2.14 o 1.236955
4 3 1 1441.74 1653.22 40.83 o 1.217099
8 0 2 4279.27 4881.04 108.67 o 1.210744
8 2 0 9166.01 9720.03 100.16 o 1.196749
6 2 2 1174.93 1243.22 12.93 o 1.196051
1 2 3 927.54 962.63 8.80 o 1.195179
9 1 1 6890.56 6845.53 56.71 o 1.188460
5 1 3 3114.80 3102.30 24.64 o 1.187093
1 3 2 1108.44 1109.04 20.43 o 1.178415
2 2 3 2201.24 2211.93 40.02 o 1.176653
6 0 3 2389.21 2470.62 23.79 o 1.166395
8 1 2 1928.82 1985.21 18.95 o 1.163867
10 0 0 1111.29 1135.16 11.04 o 1.162000
5 3 1 7114.24 7280.99 66.06 o 1.161125
2 3 2 257.64 262.61 2.50 o 1.160646
8 2 1 175.01 176.06 4.30 o 1.154494
3 2 3 1587.04 1766.94 61.80 o 1.147603
6 3 0 547.67 506.30 38.94 o 1.138760
3 3 2 543.91 464.50 41.96 o 1.132738
6 1 3 0.00 0.00 0.00 o 1.124309
10 0 1 648.29 583.48 16.43 o 1.123203
7 2 2 1842.87 1658.07 43.93 o 1.121321
10 1 0 1658.02 1496.44 39.96 o 1.120371
9 0 2 1070.07 790.33 77.29 o 1.112432
4 2 3 149.14 108.51 11.04 o 1.110324
6 3 1 11.03 8.95 0.73 o 1.102173
4 3 2 488.12 398.14 21.85 o 1.096844
7 0 3 1446.81 1170.23 60.47 o 1.096774
0 0 4 326.88 253.45 12.57 o 1.095833
1 0 4 2170.47 1644.69 82.98 o 1.090992
10 1 1 34.18 14.20 3.61 o 1.085475
2 0 4 188.91 162.59 5.10 o 1.076846
9 1 2 1924.56 1693.99 62.81 o 1.075744
9 2 1 2902.75 2596.37 71.53 o 1.068330
5 2 3 81.85 72.90 2.02 o 1.067337
7 1 3 34.79 28.46 1.02 o 1.061565
1 1 4 428.85 379.61 6.33 o 1.056320
0 4 0 9304.16 8242.65 140.16 o 1.055893
5 3 2 1200.48 1046.72 20.93 o 1.055346
3 0 4 1555.07 1380.69 22.18 o 1.054445
8 2 2 2656.94 2398.41 49.89 o 1.050360
2 1 4 3644.42 3330.66 61.74 o 1.043465
7 3 1 1122.73 1022.76 22.59 o 1.042873
2 4 0 56.85 51.00 1.26 o 1.038876
8 0 3 421.54 308.70 23.02 o 1.030103
11 0 1 201.02 149.25 11.05 o 1.026962
10 0 2 1482.30 1105.93 74.40 o 1.026631
4 0 4 157.03 122.72 5.12 o 1.025309
3 1 4 179.58 142.20 5.66 o 1.023045
1 4 1 36.95 29.31 1.20 o 1.022547
6 2 3 1432.74 1152.31 52.53 o 1.021009
10 2 0 736.72 640.79 23.43 o 1.018057
0 3 3 3468.26 3194.21 96.62 o 1.013809
8 3 0 1971.00 1848.08 46.98 o 1.010919
2 4 1 391.00 365.01 9.19 o 1.010872
6 3 2 21.25 19.94 0.56 o 1.010498
1 3 3 1014.53 950.55 28.93 o 1.009972
8 1 3 2792.53 2642.84 78.37 o 1.000768
2 3 3 0.04 0.04 0.00 o 0.998719
11 1 1 192.74 184.06 5.91 o 0.997887
10 1 2 129.26 123.59 3.75 o 0.997583
4 1 4 123.39 119.30 2.37 o 0.996371
4 4 0 6558.60 6389.31 147.36 o 0.992373
3 4 1 75.11 73.19 1.73 o 0.992273
10 2 1 395.96 384.37 9.45 o 0.991662
5 0 4 1655.58 1618.01 36.44 o 0.991171
8 3 1 584.12 575.28 26.40 o 0.985061
9 2 2 668.19 675.32 35.95 o 0.984226
3 3 3 198.07 196.76 16.43 o 0.980770
7 2 3 947.52 987.36 48.20 o 0.973332
0 2 4 226.71 231.91 8.92 o 0.972674
1 2 4 1361.09 1387.52 49.07 o 0.969284
12 0 0 2194.95 2180.91 95.98 o 0.968333
4 4 1 23.80 23.96 0.89 o 0.967878
9 0 3 77.33 77.34 3.09 o 0.967501
5 1 4 595.22 600.28 23.45 o 0.964956
7 3 2 142.16 145.08 8.38 o 0.964213
2 2 4 121.29 121.14 3.70 o 0.959323
4 3 3 2607.19 2594.40 81.49 o 0.957194
6 0 4 963.25 968.59 22.79 o 0.953739
11 0 2 914.23 934.95 31.58 o 0.951596
0 4 2 3192.13 3293.83 102.14 o 0.951251
1 4 2 885.28 888.78 25.34 o 0.948080
12 0 1 165.28 161.95 4.84 o 0.945536
12 1 0 2524.96 2477.36 66.65 o 0.943845
3 2 4 976.26 977.38 24.18 o 0.943383
9 1 3 1566.08 1553.82 40.18 o 0.943074
5 4 1 486.85 501.67 15.24 o 0.939006
2 4 2 64.66 70.02 2.96 o 0.938752
6 1 4 1612.10 1709.12 33.71 o 0.930315
9 3 1 2782.81 2938.23 59.35 o 0.929895
5 3 3 1293.81 1358.17 27.99 o 0.929240
11 1 2 56.37 59.21 1.23 o 0.928325
6 4 0 276.48 291.30 5.36 o 0.927058
8 2 3 269.41 282.85 6.69 o 0.925831
3 4 2 830.71 898.14 28.14 o 0.923800
11 2 1 140.29 152.59 5.11 o 0.923548
10 2 2 969.92 1058.98 36.59 o 0.923307
12 1 1 348.48 377.91 13.77 o 0.922697
4 2 4 109.98 121.00 3.85 o 0.922345
8 3 2 810.63 1023.69 65.72 o 0.917972
7 0 4 624.51 850.30 56.13 o 0.914534
10 0 3 1037.11 1426.63 109.75 o 0.909457
6 4 1 246.38 277.50 12.37 o 0.906995
4 4 2 2211.82 2437.94 111.60 o 0.904018
6 3 3 0.06 0.08 0.01 o 0.898185
5 2 4 1059.95 1295.46 89.73 o 0.897257
10 3 0 617.88 756.27 56.19 o 0.896174
7 1 4 54.50 66.44 5.28 o 0.893820
10 1 3 0.53 0.71 0.19 o 0.889079
12 0 2 503.30 662.08 133.84 o 0.885733
5 4 2 535.28 588.75 38.87 o 0.880358
12 2 0 1397.29 1535.85 106.14 o 0.880210
9 2 3 51.39 54.18 3.29 o 0.879584
10 3 1 12.58 12.99 0.61 o 0.878011
13 0 1 2508.49 2556.12 134.90 o 0.875822
8 0 4 2.44 2.49 0.12 o 0.874796
1 0 5 1233.28 1247.06 46.46 o 0.874182
7 4 1 145.50 145.93 6.45 o 0.873078
9 3 2 761.65 761.10 37.04 o 0.872837
6 2 4 628.53 619.51 29.10 o 0.869205
11 2 2 580.29 571.32 31.33 o 0.867582
12 1 2 976.35 954.54 53.93 o 0.866876
2 0 5 8.63 8.52 0.39 o 0.866854
7 3 3 14.40 14.28 0.86 o 0.865212
12 2 1 106.45 114.27 11.36 o 0.862982
1 3 4 163.39 167.30 15.19 o 0.862366
0 1 5 878.93 912.11 25.46 o 0.858371
13 1 1 1208.73 1257.07 43.22 o 0.857578
8 1 4 187.53 194.34 5.50 o 0.856615
11 0 3 301.53 312.61 9.00 o 0.856061
1 1 5 8.29 8.59 0.25 o 0.856038
2 3 4 1525.61 1584.99 45.30 o 0.855328
3 0 5 1399.58 1450.86 40.31 o 0.855040
8 4 0 2313.87 2401.64 68.79 o 0.854070
6 4 2 326.33 340.79 10.42 o 0.853816
1 4 3 257.29 267.85 9.45 o 0.853499
2 1 5 13.98 14.44 0.62 o 0.849153
2 4 3 513.65 523.58 78.94 o 0.846675
3 3 4 66.64 65.83 9.92 o 0.843973
4 0 5 18.57 18.47 1.20 o 0.839282
7 2 4 401.32 389.23 30.90 o 0.839219
11 1 3 278.92 259.69 23.71 o 0.839001
8 4 1 44.84 44.77 3.03 o 0.838305
3 1 5 86.87 85.12 5.28 o 0.838039
2 5 0 26.87 25.43 1.44 o 0.835925
3 4 3 448.89 453.13 31.39 o 0.835656
9 0 4 717.73 687.16 39.72 o 0.835473
10 2 3 664.92 662.93 43.73 o 0.835291
8 3 3 1144.07 1006.40 67.63 o 0.831335
14 0 0 288.18 249.54 17.51 o 0.830000
11 3 1 70.28 62.02 3.54 o 0.829681
10 3 2 48.42 42.60 2.51 o 0.829506
0 5 1 299.60 259.35 13.59 o 0.829453
4 3 4 55.47 48.22 2.76 o 0.828809
13 0 2 172.38 148.74 9.90 o 0.827659
1 5 1 1443.86 1227.34 65.84 o 0.827348
7 4 2 460.87 384.86 26.08 o 0.825343
4 1 5 661.39 538.52 34.62 o 0.823187
2 5 1 0.26 0.19 0.02 o 0.821127
4 4 3 39.79 29.52 3.71 o 0.820928
5 0 5 510.83 382.32 31.08 o 0.820247
9 1 4 485.41 356.50 38.33 o 0.819591
12 2 2 326.89 249.89 28.34 o 0.816798
14 0 1 160.04 124.74 14.32 o 0.815509
14 1 0 959.83 785.24 67.57 o 0.814423
13 1 2 708.69 601.59 34.75 o 0.812211
4 5 0 208.12 180.42 7.63 o 0.811119
3 5 1 802.57 698.62 29.63 o 0.811064
5 3 4 243.27 212.45 9.53 o 0.810462
13 2 1 1645.17 1447.28 67.46 o 0.809006
8 2 4 1.97 1.71 0.09 o 0.808197
1 2 5 809.01 691.00 30.05 o 0.807713
12 0 3 264.47 227.56 12.00 o 0.807163
5 1 5 96.29 80.14 4.04 o 0.805203
9 4 1 766.48 544.82 57.57 o 0.803512
5 4 3 22.86 14.82 2.19 o 0.803089
2 2 5 5.03 3.51 0.29 o 0.801922
14 1 1 18.58 11.45 1.85 o 0.800719
6 0 5 24.82 19.37 1.13 o 0.798652
12 3 0 1092.17 859.49 55.58 o 0.797833
4 5 1 229.65 181.49 10.72 o 0.797578
9 3 3 680.88 540.83 35.53 o 0.797367
10 0 4 892.90 712.03 42.20 o 0.797237
8 4 2 721.78 589.07 32.22 o 0.795782
11 2 3 202.43 173.09 11.11 o 0.793355
12 1 3 705.99 608.16 40.60 o 0.792815
3 2 5 924.43 809.67 42.98 o 0.792541
6 3 4 694.29 646.56 53.88 o 0.789611
11 3 2 22.55 21.58 2.22 o 0.788393
1 5 2 171.02 172.00 15.89 o 0.786390
12 3 1 146.38 150.59 13.55 o 0.784937
6 1 5 74.13 77.86 5.43 o 0.784745
10 1 4 276.95 293.83 22.23 o 0.783403
6 4 3 368.31 388.54 30.74 o 0.782787
10 4 0 221.49 241.78 17.55 o 0.781455
5 5 1 1248.66 1371.49 96.62 o 0.781189
2 5 2 62.50 68.89 5.07 o 0.781043
4 2 5 12.47 14.15 0.94 o 0.779944
9 2 4 473.74 632.58 61.66 o 0.776884
14 0 2 469.50 641.01 75.38 o 0.776203
7 0 5 766.90 1063.24 102.45 o 0.775203
6 5 0 69.68 98.77 10.76 o 0.774269
14 2 0 194.98 376.82 71.14 o 0.772478
3 5 2 84.00 137.31 21.45 o 0.772368
