#------------------------------------------------------------------------------
#$Date: 2016-06-17 04:50:27 +0300 (Fri, 17 Jun 2016) $
#$Revision: 183633 $
#$URL: file:///home/coder/svn-repositories/cod/cif/2/10/75/2107520.cif $
#------------------------------------------------------------------------------
#
# This file is available in the Crystallography Open Database (COD),
# http://www.crystallography.net/. The original data for this entry
# were provided by IUCr Journals, http://journals.iucr.org/.
#
# The file may be used within the scientific community so long as
# proper attribution is given to the journal article from which the
# data were obtained.
#
data_2107520
loop_
_publ_author_name
'Sist, Mattia'
'Zhang, Jiawei'
'Brummerstedt Iversen, Bo'
_publ_section_title
;
 Crystal structure and phase transition of thermoelectric SnSe
;
_journal_coeditor_code           GW5043
_journal_issue                   3
_journal_name_full               'Acta Crystallographica Section B'
_journal_page_first              310
_journal_page_last               316
_journal_paper_doi               10.1107/S2052520616003334
_journal_volume                  72
_journal_year                    2016
_chemical_formula_moiety         'Se1 Sn0.9816'
_chemical_formula_sum            'Se Sn0.9816'
_chemical_formula_weight         195.50
_chemical_name_common            'Tin Selenide'
_space_group_IT_number           63
_symmetry_cell_setting           orthorhombic
_symmetry_Int_Tables_number      63
_symmetry_space_group_name_Hall  '-C 2c 2'
_symmetry_space_group_name_H-M   'C m c m'
_cell_angle_alpha                90
_cell_angle_beta                 90
_cell_angle_gamma                90
_cell_formula_units_Z            4
_cell_length_a                   4.29978(8)
_cell_length_b                   11.71878(17)
_cell_length_c                   4.31479(8)
_cell_measurement_temperature    855(5)
_cell_volume                     217.414(7)
_computing_structure_refinement  'Jana2006, (Petricek,2014)'
_diffrn_ambient_temperature      855(5)
_diffrn_detector_type            'Image plate'
_diffrn_measurement_device_type  BL44B2
_diffrn_radiation_probe          x-ray
_diffrn_radiation_type           Synchrotron,monochromatic
_diffrn_radiation_wavelength     0.50021
_diffrn_source_type              'Spring8, BL44B2 beamline'
_exptl_absorpt_coefficient_mu    10.932
_exptl_absorpt_correction_type   none
_exptl_crystal_density_diffrn    5.973
_exptl_crystal_F_000             332.3
_pd_char_colour                  metallic_grey
_pd_meas_2theta_range_inc        0.01
_pd_meas_2theta_range_max        77.980
_pd_meas_2theta_range_min        0.010
_pd_meas_number_of_points        7798
_pd_proc_2theta_range_inc        0.01
_pd_proc_2theta_range_max        32.22
_pd_proc_2theta_range_min        4.02
_pd_proc_ls_background_function
'Manual background combined with 8 Chebyshev polynoms'
_pd_proc_ls_pref_orient_corr     none
_pd_proc_ls_profile_function     Pseudo-Voigt
_pd_proc_ls_prof_R_factor        0.0217
_pd_proc_ls_prof_wR_expected     0.0129
_pd_proc_ls_prof_wR_factor       0.0300
_pd_spec_mounting                capillary
_pd_spec_mount_mode              transmission
_refine_ls_goodness_of_fit_all   2.32
_refine_ls_number_constraints    0
_refine_ls_number_parameters     28
_refine_ls_number_restraints     0
_refine_ls_R_factor_all          0.0315
_refine_ls_R_factor_gt           0.0245
_refine_ls_shift/su_max          0.0127
_refine_ls_shift/su_mean         0.0022
_refine_ls_weighting_scheme      sigma
_refine_ls_wR_factor_all         0.0124
_refine_ls_wR_factor_gt          0.0122
_cod_data_source_file            gw5043sup1.cif
_cod_data_source_block           855
_cod_depositor_comments
;
The following automatic conversions were performed:

'_diffrn_radiation_probe' value 'X-ray' changed to 'x-ray' according
to
/usr/data/users/saulius/crontab/automatic-downloads/rss-feeds/IUCr/lib/dictionaries/cif_core.dic
dictionary named 'cif_core.dic' version 2.4.2 from 2011-04-26.

Automatic conversion script
Id: cif_fix_values 4268 2015-11-12 08:31:59Z antanas 

 Adding full bibliography for 2107508--2107520.cif.
;
_cod_original_cell_volume        217.414(6)
_cod_original_formula_sum        'Se1 Sn0.9816'
_cod_database_code               2107520
_cod_database_fobs_code          2107520
loop_
_space_group_symop_id
_space_group_symop_operation_xyz
1 x,y,z
2 -x,-y,z+1/2
3 -x,y,-z+1/2
4 x,-y,-z
5 -x,-y,-z
6 x,y,-z+1/2
7 x,-y,z+1/2
8 -x,y,z
9 x+1/2,y+1/2,z
10 -x+1/2,-y+1/2,z+1/2
11 -x+1/2,y+1/2,-z+1/2
12 x+1/2,-y+1/2,-z
13 -x+1/2,-y+1/2,-z
14 x+1/2,y+1/2,-z+1/2
15 x+1/2,-y+1/2,z+1/2
16 -x+1/2,y+1/2,z
loop_
_atom_site_label
_atom_site_type_symbol
_atom_site_fract_x
_atom_site_fract_y
_atom_site_fract_z
_atom_site_adp_type
_atom_site_U_iso_or_equiv
_atom_site_site_symmetry_multiplicity
_atom_site_occupancy
_atom_site_calc_flag
Sn Sn 0 0.12424(7) 0.25 Uani 0.0634(6) 4 0.9816 d
Se Se 0.5 0.85654(8) 0.25 Uani 0.0422(7) 4 1 d
loop_
_atom_site_aniso_label
_atom_site_aniso_type_symbol
_atom_site_aniso_U_11
_atom_site_aniso_U_22
_atom_site_aniso_U_33
_atom_site_aniso_U_12
_atom_site_aniso_U_13
_atom_site_aniso_U_23
Sn Sn 0.0804(13) 0.0492(8) 0.0606(11) 0 0 0
Se Se 0.0490(14) 0.0400(10) 0.0375(13) 0 0 0
loop_
_atom_type_symbol
_atom_type_scat_dispersion_real
_atom_type_scat_dispersion_imag
_atom_type_scat_source
Se 0.2899 1.2209 'International Tables Vol C tables 4.2.6.8 and 6.1.1.1'
Sn -1.5316 0.7679 'International Tables Vol C tables 4.2.6.8 and 6.1.1.1'
loop_
_geom_angle_atom_site_label_1
_geom_angle_atom_site_label_2
_geom_angle_atom_site_label_3
_geom_angle_site_symmetry_1
_geom_angle_site_symmetry_2
_geom_angle_site_symmetry_3
_geom_angle
Se Sn Se 11_545 1_555 2_665 85.771
Se Sn Se 11_545 1_555 2_565 85.771
Se Sn Se 2_564 1_555 2_565 89.887
Se Sn Se 2_664 1_555 2_665 89.887
Se Sn Se 2_665 1_555 2_565 89.490
Se Sn Se 11_545 1_555 1_545 145.577
Se Sn Sn 11_545 1_555 2_554 143.465
loop_
_geom_bond_atom_site_label_1
_geom_bond_atom_site_label_2
_geom_bond_site_symmetry_1
_geom_bond_site_symmetry_2
_geom_bond_distance
Sn Se 1_555 11_545 2.722
Sn Se 1_555 2_665 3.054
Sn Se 1_555 2_565 3.054
Sn Se 1_555 1_545 3.803
Sn Sn 1_555 2_554 3.624
Sn Se 1_555 1_445 3.803
loop_
_pd_proc_point_id
_pd_proc_2theta_corrected
_pd_proc_intensity_net
_pd_calc_intensity_net
_pd_proc_ls_weight
1 4.0200 3180.00 3291.70 56.00
2 4.0300 3172.00 3289.95 56.00
3 4.0400 3196.00 3288.23 57.00
4 4.0500 3211.00 3286.55 57.00
5 4.0600 3234.00 3284.92 57.00
6 4.0700 3207.00 3283.32 57.00
7 4.0800 3183.00 3281.77 56.00
8 4.0900 3188.00 3280.25 56.00
9 4.1000 3230.00 3278.77 57.00
10 4.1100 3200.00 3277.34 57.00
11 4.1200 3217.00 3275.94 57.00
12 4.1300 3211.00 3274.58 57.00
13 4.1400 3181.00 3273.26 56.00
14 4.1500 3177.00 3271.98 56.00
15 4.1600 3197.00 3270.73 57.00
16 4.1700 3230.00 3269.53 57.00
17 4.1800 3215.00 3268.36 57.00
18 4.1900 3230.00 3267.23 57.00
19 4.2000 3174.00 3266.14 56.00
20 4.2100 3214.00 3265.08 57.00
21 4.2200 3206.00 3264.06 57.00
22 4.2300 3230.00 3263.08 57.00
23 4.2400 3217.00 3262.13 57.00
24 4.2500 3205.00 3261.23 57.00
25 4.2600 3241.00 3260.35 57.00
26 4.2700 3214.00 3259.52 57.00
27 4.2800 3230.00 3258.72 57.00
28 4.2900 3223.00 3257.96 57.00
29 4.3000 3217.00 3257.23 57.00
30 4.3100 3235.00 3256.54 57.00
31 4.3200 3221.00 3255.88 57.00
32 4.3300 3233.00 3255.26 57.00
33 4.3400 3224.00 3254.68 57.00
34 4.3500 3219.00 3254.13 57.00
35 4.3600 3238.00 3253.62 57.00
36 4.3700 3230.00 3253.14 57.00
37 4.3800 3237.00 3252.70 57.00
38 4.3900 3261.00 3252.29 57.00
39 4.4000 3233.00 3251.92 57.00
40 4.4100 3245.00 3251.59 57.00
41 4.4200 3234.00 3251.29 57.00
42 4.4300 3260.00 3251.03 57.00
43 4.4400 3246.00 3250.80 57.00
44 4.4500 3254.00 3250.61 57.00
45 4.4600 3222.00 3250.46 57.00
46 4.4700 3255.00 3250.35 57.00
47 4.4800 3237.00 3250.27 57.00
48 4.4900 3244.00 3250.24 57.00
49 4.5000 3235.00 3250.24 57.00
50 4.5100 3279.00 3250.28 57.00
51 4.5200 3283.00 3250.37 57.00
52 4.5300 3252.00 3250.49 57.00
53 4.5400 3297.00 3250.67 57.00
54 4.5500 3304.00 3250.88 57.00
55 4.5600 3242.00 3251.15 57.00
56 4.5700 3277.00 3251.46 57.00
57 4.5800 3311.00 3251.83 58.00
58 4.5900 3274.00 3252.25 57.00
59 4.6000 3283.00 3252.73 57.00
60 4.6100 3242.00 3253.28 57.00
61 4.6200 3279.00 3253.89 57.00
62 4.6300 3285.00 3254.58 57.00
63 4.6400 3304.00 3255.35 57.00
64 4.6500 3282.00 3256.21 57.00
65 4.6600 3295.00 3257.18 57.00
66 4.6700 3289.00 3258.26 57.00
67 4.6800 3276.00 3259.48 57.00
68 4.6900 3285.00 3260.85 57.00
69 4.7000 3285.00 3262.41 57.00
70 4.7100 3320.00 3264.19 58.00
71 4.7200 3330.00 3266.22 58.00
72 4.7300 3319.00 3268.58 58.00
73 4.7400 3321.00 3271.35 58.00
74 4.7500 3343.00 3274.62 58.00
75 4.7600 3323.00 3278.55 58.00
76 4.7700 3327.00 3283.35 58.00
77 4.7800 3354.00 3289.33 58.00
78 4.7900 3375.00 3296.92 58.00
79 4.8000 3353.00 3306.82 58.00
80 4.8100 3427.00 3320.16 59.00
81 4.8200 3459.00 3339.03 59.00
82 4.8300 3522.00 3369.86 59.00
83 4.8400 3713.00 3443.64 61.00
84 4.8500 4063.00 3693.90 64.00
85 4.8600 4771.00 4486.24 69.00
86 4.8700 6221.00 6280.35 79.00
87 4.8800 8254.00 8812.68 91.00
88 4.8900 9274.00 10390.70 96.00
89 4.9000 8340.00 9366.12 91.00
90 4.9100 6282.00 6861.84 79.00
91 4.9200 4600.00 4818.55 68.00
92 4.9300 3858.00 3821.44 62.00
93 4.9400 3571.00 3486.71 60.00
94 4.9500 3456.00 3391.32 59.00
95 4.9600 3405.00 3356.67 58.00
96 4.9700 3397.00 3337.58 58.00
97 4.9800 3347.00 3324.89 58.00
98 4.9900 3357.00 3315.99 58.00
99 5.0000 3352.00 3309.62 58.00
100 5.0100 3362.00 3305.00 58.00
101 5.0200 3339.00 3301.65 58.00
102 5.0300 3384.00 3299.22 58.00
103 5.0400 3349.00 3297.49 58.00
104 5.0500 3330.00 3296.29 58.00
105 5.0600 3317.00 3295.51 58.00
106 5.0700 3336.00 3295.07 58.00
107 5.0800 3345.00 3294.89 58.00
108 5.0900 3309.00 3294.94 58.00
109 5.1000 3316.00 3295.17 58.00
110 5.1100 3353.00 3295.56 58.00
111 5.1200 3333.00 3296.07 58.00
112 5.1300 3341.00 3296.70 58.00
113 5.1400 3340.00 3297.43 58.00
114 5.1500 3348.00 3298.24 58.00
115 5.1600 3365.00 3299.12 58.00
116 5.1700 3348.00 3300.08 58.00
117 5.1800 3334.00 3301.09 58.00
118 5.1900 3316.00 3302.16 58.00
119 5.2000 3352.00 3303.27 58.00
120 5.2100 3390.00 3304.43 58.00
121 5.2200 3375.00 3305.64 58.00
122 5.2300 3368.00 3306.88 58.00
123 5.2400 3388.00 3308.15 58.00
124 5.2500 3365.00 3309.46 58.00
125 5.2600 3364.00 3310.81 58.00
126 5.2700 3372.00 3312.18 58.00
127 5.2800 3368.00 3313.58 58.00
128 5.2900 3341.00 3315.00 58.00
129 5.3000 3363.00 3316.45 58.00
130 5.3100 3377.00 3317.93 58.00
131 5.3200 3365.00 3319.42 58.00
132 5.3300 3373.00 3320.94 58.00
133 5.3400 3379.00 3322.48 58.00
134 5.3500 3362.00 3324.04 58.00
135 5.3600 3382.00 3325.63 58.00
136 5.3700 3359.00 3327.23 58.00
137 5.3800 3401.00 3328.84 58.00
138 5.3900 3385.00 3330.48 58.00
139 5.4000 3346.00 3332.14 58.00
140 5.4100 3358.00 3333.81 58.00
141 5.4200 3344.00 3335.50 58.00
142 5.4300 3379.00 3337.20 58.00
143 5.4400 3387.00 3338.92 58.00
144 5.4500 3407.00 3340.66 58.00
145 5.4600 3388.00 3342.41 58.00
146 5.4700 3393.00 3344.17 58.00
147 5.4800 3350.00 3345.95 58.00
148 5.4900 3392.00 3347.75 58.00
149 5.5000 3398.00 3349.56 58.00
150 5.5100 3438.00 3351.38 59.00
151 5.5200 3376.00 3353.21 58.00
152 5.5300 3392.00 3355.06 58.00
153 5.5400 3389.00 3356.92 58.00
154 5.5500 3388.00 3358.80 58.00
155 5.5600 3408.00 3360.69 58.00
156 5.5700 3410.00 3362.59 58.00
157 5.5800 3386.00 3364.50 58.00
158 5.5900 3414.00 3366.42 58.00
159 5.6000 3411.00 3368.35 58.00
160 5.6100 3405.00 3370.30 58.00
161 5.6200 3429.00 3372.26 59.00
162 5.6300 3426.00 3374.23 59.00
163 5.6400 3439.00 3376.21 59.00
164 5.6500 3447.00 3378.20 59.00
165 5.6600 3431.00 3380.20 59.00
166 5.6700 3413.00 3382.21 58.00
167 5.6800 3434.00 3384.23 59.00
168 5.6900 3441.00 3386.26 59.00
169 5.7000 3424.00 3388.31 59.00
170 5.7100 3444.00 3390.36 59.00
171 5.7200 3425.00 3392.42 59.00
172 5.7300 3417.00 3394.49 58.00
173 5.7400 3425.00 3396.57 59.00
174 5.7500 3428.00 3398.66 59.00
175 5.7600 3424.00 3400.76 59.00
176 5.7700 3440.00 3402.86 59.00
177 5.7800 3431.00 3404.98 59.00
178 5.7900 3433.00 3407.11 59.00
179 5.8000 3452.00 3409.24 59.00
180 5.8100 3426.00 3412.34 59.00
181 5.8200 3438.00 3414.51 59.00
182 5.8300 3459.00 3416.68 59.00
183 5.8400 3469.00 3418.87 59.00
184 5.8500 3463.00 3421.06 59.00
185 5.8600 3469.00 3423.25 59.00
186 5.8700 3460.00 3425.46 59.00
187 5.8800 3423.00 3427.67 59.00
188 5.8900 3472.00 3429.90 59.00
189 5.9000 3465.00 3432.13 59.00
190 5.9100 3448.00 3434.36 59.00
191 5.9200 3463.00 3436.61 59.00
192 5.9300 3506.00 3438.86 59.00
193 5.9400 3475.00 3441.12 59.00
194 5.9500 3454.00 3443.39 59.00
195 5.9600 3465.00 3445.66 59.00
196 5.9700 3492.00 3447.94 59.00
197 5.9800 3506.00 3450.23 59.00
198 5.9900 3477.00 3452.52 59.00
199 6.0000 3454.00 3454.83 59.00
200 6.0100 3471.00 3457.13 59.00
201 6.0200 3494.00 3459.45 59.00
202 6.0300 3501.00 3461.43 59.00
203 6.0400 3498.00 3463.76 59.00
204 6.0500 3483.00 3466.10 59.00
205 6.0600 3475.00 3469.40 59.00
206 6.0700 3521.00 3472.70 59.00
207 6.0800 3511.00 3476.01 59.00
208 6.0900 3489.00 3479.32 59.00
209 6.1000 3530.00 3482.64 59.00
210 6.1100 3499.00 3485.96 59.00
211 6.1200 3517.00 3489.29 59.00
212 6.1300 3499.00 3492.63 59.00
213 6.1400 3510.00 3495.97 59.00
214 6.1500 3489.00 3499.32 59.00
215 6.1600 3543.00 3502.67 60.00
216 6.1700 3524.00 3506.03 59.00
217 6.1800 3526.00 3509.39 59.00
218 6.1900 3541.00 3512.76 60.00
219 6.2000 3545.00 3516.14 60.00
220 6.2100 3510.00 3519.52 59.00
221 6.2200 3526.00 3522.90 59.00
222 6.2300 3518.00 3526.29 59.00
223 6.2400 3507.00 3529.69 59.00
224 6.2500 3529.00 3533.09 59.00
225 6.2600 3489.00 3536.50 59.00
226 6.2700 3527.00 3539.91 59.00
227 6.2800 3532.00 3543.33 59.00
228 6.2900 3553.00 3546.75 60.00
229 6.3000 3522.00 3550.18 59.00
230 6.3100 3543.00 3553.61 60.00
231 6.3200 3531.00 3557.05 59.00
232 6.3300 3550.00 3560.49 60.00
233 6.3400 3532.00 3563.94 59.00
234 6.3500 3590.00 3567.39 60.00
235 6.3600 3537.00 3570.85 59.00
236 6.3700 3539.00 3574.32 59.00
237 6.3800 3546.00 3577.79 60.00
238 6.3900 3558.00 3581.27 60.00
239 6.4000 3599.00 3584.75 60.00
240 6.4100 3589.00 3588.24 60.00
241 6.4200 3535.00 3591.74 59.00
242 6.4300 3583.00 3595.24 60.00
243 6.4400 3585.00 3598.75 60.00
244 6.4500 3576.00 3602.26 60.00
245 6.4600 3604.00 3605.79 60.00
246 6.4700 3593.00 3609.32 60.00
247 6.4800 3600.00 3612.85 60.00
248 6.4900 3599.00 3616.40 60.00
249 6.5000 3629.00 3619.95 60.00
250 6.5100 3608.00 3623.52 60.00
251 6.5200 3600.00 3627.09 60.00
252 6.5300 3592.00 3630.67 60.00
253 6.5400 3555.00 3634.26 60.00
254 6.5500 3612.00 3637.86 60.00
255 6.5600 3624.00 3641.48 60.00
256 6.5700 3621.00 3645.10 60.00
257 6.5800 3649.00 3648.74 60.00
258 6.5900 3646.00 3652.39 60.00
259 6.6000 3634.00 3656.06 60.00
260 6.6100 3640.00 3659.74 60.00
261 6.6200 3652.00 3663.44 60.00
262 6.6300 3625.00 3667.16 60.00
263 6.6400 3646.00 3670.90 60.00
264 6.6500 3609.00 3674.66 60.00
265 6.6600 3598.00 3678.44 60.00
266 6.6700 3666.00 3682.25 61.00
267 6.6800 3661.00 3686.08 61.00
268 6.6900 3667.00 3689.94 61.00
269 6.7000 3686.00 3693.84 61.00
270 6.7100 3674.00 3697.78 61.00
271 6.7200 3652.00 3701.75 60.00
272 6.7300 3682.00 3705.77 61.00
273 6.7400 3699.00 3709.84 61.00
274 6.7500 3680.00 3713.96 61.00
275 6.7600 3655.00 3718.14 60.00
276 6.7700 3695.00 3722.40 61.00
277 6.7800 3692.00 3726.73 61.00
278 6.7900 3686.00 3731.14 61.00
279 6.8000 3688.00 3735.66 61.00
280 6.8100 3667.00 3740.29 61.00
281 6.8200 3696.00 3745.05 61.00
282 6.8300 3711.00 3749.95 61.00
283 6.8400 3715.00 3755.02 61.00
284 6.8500 3711.00 3760.30 61.00
285 6.8600 3670.00 3765.80 61.00
286 6.8700 3706.00 3771.57 61.00
287 6.8800 3722.00 3777.66 61.00
288 6.8900 3717.00 3784.13 61.00
289 6.9000 3752.00 3791.95 61.00
290 6.9100 3758.00 3799.44 61.00
291 6.9200 3749.00 3807.60 61.00
292 6.9300 3784.00 3816.59 62.00
293 6.9400 3810.00 3826.60 62.00
294 6.9500 3809.00 3837.92 62.00
295 6.9600 3783.00 3850.90 62.00
296 6.9700 3833.00 3866.04 62.00
297 6.9800 3806.00 3884.04 62.00
298 6.9900 3878.00 3905.90 62.00
299 7.0000 3918.00 3933.08 63.00
300 7.0100 3972.00 3967.84 63.00
301 7.0200 4052.00 4013.87 64.00
302 7.0300 4191.00 4079.00 65.00
303 7.0400 4423.00 4186.94 67.00
304 7.0500 4757.00 4419.08 69.00
305 7.0600 5457.00 5005.23 74.00
306 7.0700 6649.00 6377.36 82.00
307 7.0800 8697.00 8912.62 93.00
308 7.0900 11579.00 12244.60 108.00
309 7.1000 13864.00 14634.90 118.00
310 7.1100 13747.00 13931.20 117.00
311 7.1200 11098.00 10858.60 105.00
312 7.1300 8126.00 7738.21 90.00
313 7.1400 6077.00 5707.64 78.00
314 7.1500 5084.00 4727.97 71.00
315 7.1600 4518.00 4336.71 67.00
316 7.1700 4310.00 4179.63 66.00
317 7.1800 4148.00 4101.25 64.00
318 7.1900 4091.00 4052.30 64.00
319 7.2000 3974.00 4018.34 63.00
320 7.2100 3951.00 3993.86 63.00
321 7.2200 3895.00 3975.89 62.00
322 7.2300 3893.00 3962.57 62.00
323 7.2400 3906.00 3952.65 62.00
324 7.2500 3882.00 3945.27 62.00
325 7.2600 3889.00 3939.82 62.00
326 7.2700 3877.00 3935.87 62.00
327 7.2800 3861.00 3933.10 62.00
328 7.2900 3872.00 3931.27 62.00
329 7.3000 3836.00 3930.19 62.00
330 7.3100 3814.00 3929.73 62.00
331 7.3200 3842.00 3929.78 62.00
332 7.3300 3843.00 3930.25 62.00
333 7.3400 3846.00 3931.07 62.00
334 7.3500 3836.00 3932.18 62.00
335 7.3600 3883.00 3933.55 62.00
336 7.3700 3852.00 3935.13 62.00
337 7.3800 3863.00 3936.90 62.00
338 7.3900 3837.00 3938.83 62.00
339 7.4000 3802.00 3940.90 62.00
340 7.4100 3810.00 3943.08 62.00
341 7.4200 3857.00 3945.37 62.00
342 7.4300 3864.00 3947.76 62.00
343 7.4400 3853.00 3950.23 62.00
344 7.4500 3854.00 3952.76 62.00
345 7.4600 3871.00 3955.37 62.00
346 7.4700 3848.00 3958.03 62.00
347 7.4800 3869.00 3960.74 62.00
348 7.4900 3891.00 3963.50 62.00
349 7.5000 3854.00 3966.30 62.00
350 7.5100 3885.00 3969.14 62.00
351 7.5200 3872.00 3972.01 62.00
352 7.5300 3861.00 3974.92 62.00
353 7.5400 3888.00 3977.85 62.00
354 7.5500 3889.00 3980.81 62.00
355 7.5600 3878.00 3983.79 62.00
356 7.5700 3881.00 3986.80 62.00
357 7.5800 3866.00 3989.83 62.00
358 7.5900 3875.00 3992.87 62.00
359 7.6000 3886.00 3995.93 62.00
360 7.6100 3907.00 3999.01 63.00
361 7.6200 3897.00 4002.11 62.00
362 7.6300 3923.00 4005.22 63.00
363 7.6400 3901.00 4008.35 62.00
364 7.6500 3878.00 4011.49 62.00
365 7.6600 3898.00 4014.64 62.00
366 7.6700 3937.00 4017.81 63.00
367 7.6800 3889.00 4020.99 62.00
368 7.6900 3919.00 4024.19 63.00
369 7.7000 3904.00 4027.39 62.00
370 7.7100 3959.00 4029.41 63.00
371 7.7200 3934.00 4031.44 63.00
372 7.7300 3940.00 4033.49 63.00
373 7.7400 3901.00 4035.55 62.00
374 7.7500 3881.00 4037.62 62.00
375 7.7600 3955.00 4039.71 63.00
376 7.7700 3914.00 4041.82 63.00
377 7.7800 3942.00 4043.95 63.00
378 7.7900 3951.00 4046.09 63.00
379 7.8000 3941.00 4048.26 63.00
380 7.8100 3962.00 4050.45 63.00
381 7.8200 3929.00 4052.66 63.00
382 7.8300 3956.00 4054.90 63.00
383 7.8400 3951.00 4057.17 63.00
384 7.8500 3960.00 4059.47 63.00
385 7.8600 3951.00 4061.81 63.00
386 7.8700 3960.00 4064.18 63.00
387 7.8800 3990.00 4066.60 63.00
388 7.8900 3971.00 4069.06 63.00
389 7.9000 4014.00 4071.58 63.00
390 7.9100 3991.00 4074.15 63.00
391 7.9200 3978.00 4076.80 63.00
392 7.9300 3990.00 4079.51 63.00
393 7.9400 3976.00 4082.31 63.00
394 7.9500 3956.00 4085.21 63.00
395 7.9600 4028.00 4088.22 63.00
396 7.9700 4016.00 4091.36 63.00
397 7.9800 3990.00 4094.63 63.00
398 7.9900 4008.00 4098.08 63.00
399 8.0000 3987.00 4101.72 63.00
400 8.0100 4008.00 4105.58 63.00
401 8.0200 4030.00 4109.71 63.00
402 8.0300 4061.00 4114.16 64.00
403 8.0400 4033.00 4118.98 64.00
404 8.0500 4038.00 4124.24 64.00
405 8.0600 4055.00 4130.04 64.00
406 8.0700 4081.00 4136.51 64.00
407 8.0800 4075.00 4143.78 64.00
408 8.0900 4111.00 4152.06 64.00
409 8.1000 4080.00 4161.60 64.00
410 8.1100 4139.00 4172.77 64.00
411 8.1200 4129.00 4186.04 64.00
412 8.1300 4163.00 4202.07 65.00
413 8.1400 4216.00 4221.82 65.00
414 8.1500 4262.00 4246.67 65.00
415 8.1600 4307.00 4278.75 66.00
416 8.1700 4381.00 4321.57 66.00
417 8.1800 4505.00 4382.59 67.00
418 8.1900 4676.00 4483.40 68.00
419 8.2000 5037.00 4692.22 71.00
420 8.2100 5574.00 5187.11 75.00
421 8.2200 6479.00 6286.47 80.00
422 8.2300 8030.00 8272.00 90.00
423 8.2400 10104.00 10929.30 101.00
424 8.2500 11920.00 13065.60 109.00
425 8.2600 12201.00 12921.10 110.00
426 8.2700 10557.00 10642.40 103.00
427 8.2800 8248.00 8023.99 91.00
428 8.2900 6537.00 6140.22 81.00
429 8.3000 5510.00 5126.54 74.00
430 8.3100 4939.00 4679.01 70.00
431 8.3200 4659.00 4491.18 68.00
432 8.3300 4491.00 4400.00 67.00
433 8.3400 4368.00 4344.92 66.00
434 8.3500 4292.00 4306.85 66.00
435 8.3600 4304.00 4279.04 66.00
436 8.3700 4207.00 4258.16 65.00
437 8.3800 4221.00 4242.22 65.00
438 8.3900 4203.00 4229.87 65.00
439 8.4000 4198.00 4220.20 65.00
440 8.4100 4164.00 4211.62 65.00
441 8.4200 4141.00 4205.58 64.00
442 8.4300 4128.00 4200.78 64.00
443 8.4400 4169.00 4196.96 65.00
444 8.4500 4133.00 4193.93 64.00
445 8.4600 4094.00 4191.54 64.00
446 8.4700 4132.00 4189.67 64.00
447 8.4800 4131.00 4210.89 64.00
448 8.4900 4108.00 4210.19 64.00
449 8.5000 4136.00 4209.81 64.00
450 8.5100 4158.00 4209.70 64.00
451 8.5200 4118.00 4209.81 64.00
452 8.5300 4144.00 4210.13 64.00
453 8.5400 4092.00 4220.53 64.00
454 8.5500 4129.00 4221.33 64.00
455 8.5600 4129.00 4222.26 64.00
456 8.5700 4147.00 4223.32 64.00
457 8.5800 4134.00 4224.48 64.00
458 8.5900 4167.00 4225.74 65.00
459 8.6000 4152.00 4227.09 64.00
460 8.6100 4182.00 4228.52 65.00
461 8.6200 4160.00 4230.02 64.00
462 8.6300 4160.00 4231.59 64.00
463 8.6400 4159.00 4233.23 64.00
464 8.6500 4162.00 4234.92 65.00
465 8.6600 4171.00 4236.67 65.00
466 8.6700 4170.00 4238.47 65.00
467 8.6800 4184.00 4240.32 65.00
468 8.6900 4186.00 4242.21 65.00
469 8.7000 4218.00 4244.16 65.00
470 8.7100 4210.00 4246.15 65.00
471 8.7200 4177.00 4248.18 65.00
472 8.7300 4193.00 4250.25 65.00
473 8.7400 4222.00 4252.37 65.00
474 8.7500 4247.00 4254.53 65.00
475 8.7600 4178.00 4256.73 65.00
476 8.7700 4217.00 4258.97 65.00
477 8.7800 4207.00 4261.25 65.00
478 8.7900 4221.00 4263.57 65.00
479 8.8000 4228.00 4265.94 65.00
480 8.8100 4240.00 4268.35 65.00
481 8.8200 4232.00 4270.81 65.00
482 8.8300 4199.00 4273.31 65.00
483 8.8400 4251.00 4275.85 65.00
484 8.8500 4266.00 4278.45 65.00
485 8.8600 4286.00 4281.09 65.00
486 8.8700 4288.00 4283.78 65.00
487 8.8800 4261.00 4286.53 65.00
488 8.8900 4271.00 4289.33 65.00
489 8.9000 4295.00 4292.19 66.00
490 8.9100 4293.00 4295.11 66.00
491 8.9200 4309.00 4298.09 66.00
492 8.9300 4320.00 4301.13 66.00
493 8.9400 4303.00 4304.24 66.00
494 8.9500 4313.00 4307.42 66.00
495 8.9600 4348.00 4310.68 66.00
496 8.9700 4358.00 4314.01 66.00
497 8.9800 4366.00 4317.42 66.00
498 8.9900 4390.00 4320.92 66.00
499 9.0000 4369.00 4324.51 66.00
500 9.0100 4388.00 4328.20 66.00
501 9.0200 4345.00 4331.98 66.00
502 9.0300 4400.00 4335.87 66.00
503 9.0400 4433.00 4339.88 67.00
504 9.0500 4455.00 4344.00 67.00
505 9.0600 4462.00 4348.25 67.00
506 9.0700 4490.00 4352.63 67.00
507 9.0800 4472.00 4357.15 67.00
508 9.0900 4479.00 4361.82 67.00
509 9.1000 4499.00 4366.65 67.00
510 9.1100 4499.00 4371.65 67.00
511 9.1200 4531.00 4376.83 67.00
512 9.1300 4514.00 4382.21 67.00
513 9.1400 4483.00 4387.79 67.00
514 9.1500 4487.00 4393.59 67.00
515 9.1600 4531.00 4399.62 67.00
516 9.1700 4575.00 4405.91 68.00
517 9.1800 4617.00 4412.46 68.00
518 9.1900 4584.00 4419.31 68.00
519 9.2000 4624.00 4426.46 68.00
520 9.2100 4599.00 4433.96 68.00
521 9.2200 4695.00 4441.81 69.00
522 9.2300 4671.00 4450.05 68.00
523 9.2400 4694.00 4458.71 69.00
524 9.2500 4731.00 4467.83 69.00
525 9.2600 4748.00 4477.44 69.00
526 9.2700 4775.00 4487.58 69.00
527 9.2800 4837.00 4498.31 70.00
528 9.2900 4870.00 4509.67 70.00
529 9.3000 4828.00 4521.73 69.00
530 9.3100 4828.00 4534.54 69.00
531 9.3200 4852.00 4548.18 70.00
532 9.3300 4921.00 4562.73 70.00
533 9.3400 4949.00 4578.29 70.00
534 9.3500 5012.00 4594.95 71.00
535 9.3600 4998.00 4612.83 71.00
536 9.3700 5066.00 4632.06 71.00
537 9.3800 5103.00 4652.80 71.00
538 9.3900 5153.00 4675.22 72.00
539 9.4000 5195.00 4699.51 72.00
540 9.4100 5278.00 4725.91 73.00
541 9.4200 5307.00 4754.68 73.00
542 9.4300 5329.00 4786.12 73.00
543 9.4400 5322.00 4820.58 73.00
544 9.4500 5388.00 4858.51 73.00
545 9.4600 5411.00 4900.38 74.00
546 9.4700 5483.00 4946.79 74.00
547 9.4800 5496.00 4998.42 74.00
548 9.4900 5561.00 5056.15 75.00
549 9.5000 5618.00 5120.97 75.00
550 9.5100 5657.00 5194.13 75.00
551 9.5200 5743.00 5277.17 76.00
552 9.5300 5825.00 5371.97 76.00
553 9.5400 5924.00 5480.92 77.00
554 9.5500 6085.00 5607.04 78.00
555 9.5600 6210.00 5754.17 79.00
556 9.5700 6338.00 5927.33 80.00
557 9.5800 6566.00 6133.12 81.00
558 9.5900 6767.00 6380.42 82.00
559 9.6000 7031.00 6681.29 84.00
560 9.6100 7356.00 7052.47 86.00
561 9.6200 7788.00 7517.10 88.00
562 9.6300 8335.00 8111.92 91.00
563 9.6400 9220.00 8888.99 96.00
564 9.6500 10469.00 9933.41 102.00
565 9.6600 12427.00 11410.00 111.00
566 9.6700 15951.00 13781.70 126.00
567 9.6800 22785.00 18692.20 151.00
568 9.6900 36354.00 31212.80 191.00
569 9.7000 64263.00 61905.90 254.00
570 9.7100 117184.00 121441.00 342.00
571 9.7200 196180.00 202578.00 443.00
572 9.7300 262912.00 261887.00 513.00
573 9.7400 252426.00 244486.00 502.00
574 9.7500 178250.00 173479.00 422.00
575 9.7600 110724.00 112731.00 333.00
576 9.7700 89806.00 92795.10 300.00
577 9.7800 105568.00 107102.00 325.00
578 9.7900 125261.00 124953.00 354.00
579 9.8000 116901.00 113955.00 342.00
580 9.8100 84154.00 79333.00 290.00
581 9.8200 45879.00 45991.90 214.00
582 9.8300 23803.00 25199.50 154.00
583 9.8400 14344.00 15463.10 120.00
584 9.8500 10450.00 11481.20 102.00
585 9.8600 8448.00 9673.71 92.00
586 9.8700 7419.00 8614.37 86.00
587 9.8800 6843.00 7875.51 83.00
588 9.8900 6501.00 7324.12 81.00
589 9.9000 6193.00 6900.95 79.00
590 9.9100 6047.00 6569.05 78.00
591 9.9200 5893.00 6300.41 77.00
592 9.9300 5738.00 6073.06 76.00
593 9.9400 5651.00 5877.05 75.00
594 9.9500 5561.00 5710.22 75.00
595 9.9600 5428.00 5569.81 74.00
596 9.9700 5410.00 5451.58 74.00
597 9.9800 5349.00 5351.04 73.00
598 9.9900 5301.00 5264.40 73.00
599 10.0000 5245.00 5188.90 72.00
600 10.0100 5191.00 5122.59 72.00
601 10.0200 5153.00 5063.99 72.00
602 10.0300 5095.00 5011.94 71.00
603 10.0400 5062.00 4965.49 71.00
604 10.0500 5028.00 4923.87 71.00
605 10.0600 5048.00 4886.43 71.00
606 10.0700 5035.00 4852.64 71.00
607 10.0800 4963.00 4822.05 70.00
608 10.0900 4966.00 4794.25 70.00
609 10.1000 4924.00 4768.94 70.00
610 10.1100 4910.00 4745.83 70.00
611 10.1200 4884.00 4724.67 70.00
612 10.1300 4871.00 4705.25 70.00
613 10.1400 4805.00 4687.40 69.00
614 10.1500 4812.00 4670.95 69.00
615 10.1600 4809.00 4655.76 69.00
616 10.1700 4815.00 4641.72 69.00
617 10.1800 4807.00 4628.71 69.00
618 10.1900 4775.00 4616.64 69.00
619 10.2000 4721.00 4605.42 69.00
620 10.2100 4739.00 4594.99 69.00
621 10.2200 4721.00 4585.26 69.00
622 10.2300 4708.00 4576.19 69.00
623 10.2400 4693.00 4567.71 69.00
624 10.2500 4681.00 4559.79 68.00
625 10.2600 4677.00 4552.37 68.00
626 10.2700 4686.00 4545.41 68.00
627 10.2800 4645.00 4538.89 68.00
628 10.2900 4652.00 4532.76 68.00
629 10.3000 4606.00 4527.01 68.00
630 10.3100 4643.00 4521.59 68.00
631 10.3200 4571.00 4516.50 68.00
632 10.3300 4581.00 4511.70 68.00
633 10.3400 4609.00 4507.17 68.00
634 10.3500 4585.00 4502.90 68.00
635 10.3600 4600.00 4498.88 68.00
636 10.3700 4607.00 4495.07 68.00
637 10.3800 4568.00 4492.02 68.00
638 10.3900 4554.00 4488.63 67.00
639 10.4000 4528.00 4485.42 67.00
640 10.4100 4545.00 4482.38 67.00
641 10.4200 4553.00 4479.51 67.00
642 10.4300 4530.00 4476.79 67.00
643 10.4400 4546.00 4474.21 67.00
644 10.4500 4496.00 4471.77 67.00
645 10.4600 4497.00 4469.46 67.00
646 10.4700 4513.00 4467.26 67.00
647 10.4800 4524.00 4465.18 67.00
648 10.4900 4522.00 4463.21 67.00
649 10.5000 4478.00 4461.33 67.00
650 10.5100 4495.00 4459.55 67.00
651 10.5200 4439.00 4457.87 67.00
652 10.5300 4459.00 4456.27 67.00
653 10.5400 4458.00 4463.50 67.00
654 10.5500 4467.00 4462.19 67.00
655 10.5600 4404.00 4460.95 66.00
656 10.5700 4422.00 4459.78 66.00
657 10.5800 4445.00 4458.68 67.00
658 10.5900 4472.00 4457.64 67.00
659 10.6000 4430.00 4456.67 67.00
660 10.6100 4427.00 4455.76 67.00
661 10.6200 4356.00 4454.91 66.00
662 10.6300 4418.00 4454.11 66.00
663 10.6400 4391.00 4453.36 66.00
664 10.6500 4414.00 4452.67 66.00
665 10.6600 4401.00 4452.02 66.00
666 10.6700 4405.00 4451.42 66.00
667 10.6800 4395.00 4450.86 66.00
668 10.6900 4391.00 4450.35 66.00
669 10.7000 4397.00 4449.88 66.00
670 10.7100 4399.00 4449.45 66.00
671 10.7200 4409.00 4449.06 66.00
672 10.7300 4419.00 4448.70 66.00
673 10.7400 4365.00 4448.38 66.00
674 10.7500 4391.00 4448.10 66.00
675 10.7600 4363.00 4447.85 66.00
676 10.7700 4361.00 4447.63 66.00
677 10.7800 4387.00 4447.45 66.00
678 10.7900 4412.00 4447.29 66.00
679 10.8000 4377.00 4447.17 66.00
680 10.8100 4406.00 4447.08 66.00
681 10.8200 4437.00 4447.01 67.00
682 10.8300 4389.00 4446.97 66.00
683 10.8400 4392.00 4446.96 66.00
684 10.8500 4401.00 4446.98 66.00
685 10.8600 4344.00 4447.02 66.00
686 10.8700 4361.00 4447.09 66.00
687 10.8800 4329.00 4447.19 66.00
688 10.8900 4336.00 4447.31 66.00
689 10.9000 4352.00 4447.46 66.00
690 10.9100 4352.00 4447.63 66.00
691 10.9200 4339.00 4447.82 66.00
692 10.9300 4344.00 4448.04 66.00
693 10.9400 4307.00 4448.29 66.00
694 10.9500 4282.00 4448.55 65.00
695 10.9600 4308.00 4448.85 66.00
696 10.9700 4356.00 4449.16 66.00
697 10.9800 4310.00 4449.50 66.00
698 10.9900 4318.00 4427.39 66.00
699 11.0000 4322.00 4428.13 66.00
700 11.0100 4339.00 4428.89 66.00
701 11.0200 4390.00 4429.67 66.00
702 11.0300 4360.00 4430.46 66.00
703 11.0400 4310.00 4431.27 66.00
704 11.0500 4332.00 4432.10 66.00
705 11.0600 4321.00 4423.26 66.00
706 11.0700 4326.00 4424.28 66.00
707 11.0800 4337.00 4425.32 66.00
708 11.0900 4336.00 4426.38 66.00
709 11.1000 4287.00 4427.45 65.00
710 11.1100 4313.00 4428.55 66.00
711 11.1200 4309.00 4429.67 66.00
712 11.1300 4286.00 4430.77 65.00
713 11.1400 4300.00 4431.90 66.00
714 11.1500 4318.00 4433.06 66.00
715 11.1600 4284.00 4434.24 65.00
716 11.1700 4284.00 4435.45 65.00
717 11.1800 4281.00 4436.69 65.00
718 11.1900 4315.00 4437.96 66.00
719 11.2000 4272.00 4439.27 65.00
720 11.2100 4315.00 4440.61 66.00
721 11.2200 4280.00 4441.98 65.00
722 11.2300 4300.00 4443.40 66.00
723 11.2400 4293.00 4444.86 66.00
724 11.2500 4316.00 4446.36 66.00
725 11.2600 4285.00 4447.91 65.00
726 11.2700 4298.00 4449.51 66.00
727 11.2800 4321.00 4451.16 66.00
728 11.2900 4335.00 4452.87 66.00
729 11.3000 4286.00 4454.64 65.00
730 11.3100 4312.00 4456.47 66.00
731 11.3200 4323.00 4458.37 66.00
732 11.3300 4313.00 4460.35 66.00
733 11.3400 4298.00 4462.40 66.00
734 11.3500 4316.00 4464.53 66.00
735 11.3600 4346.00 4466.76 66.00
736 11.3700 4363.00 4469.08 66.00
737 11.3800 4399.00 4471.51 66.00
738 11.3900 4384.00 4474.04 66.00
739 11.4000 4333.00 4476.70 66.00
740 11.4100 4331.00 4479.48 66.00
741 11.4200 4314.00 4482.41 66.00
742 11.4300 4290.00 4485.48 65.00
743 11.4400 4352.00 4488.72 66.00
744 11.4500 4365.00 4492.13 66.00
745 11.4600 4359.00 4495.73 66.00
746 11.4700 4358.00 4499.54 66.00
747 11.4800 4345.00 4503.58 66.00
748 11.4900 4366.00 4507.87 66.00
749 11.5000 4391.00 4512.42 66.00
750 11.5100 4402.00 4517.28 66.00
751 11.5200 4368.00 4522.45 66.00
752 11.5300 4380.00 4527.99 66.00
753 11.5400 4375.00 4533.93 66.00
754 11.5500 4382.00 4540.30 66.00
755 11.5600 4401.00 4547.16 66.00
756 11.5700 4422.00 4554.56 66.00
757 11.5800 4403.00 4562.57 66.00
758 11.5900 4456.00 4571.26 67.00
759 11.6000 4422.00 4580.71 66.00
760 11.6100 4435.00 4595.08 67.00
761 11.6200 4464.00 4606.42 67.00
762 11.6300 4503.00 4618.88 67.00
763 11.6400 4461.00 4632.61 67.00
764 11.6500 4511.00 4647.81 67.00
765 11.6600 4514.00 4664.71 67.00
766 11.6700 4515.00 4683.61 67.00
767 11.6800 4553.00 4704.84 67.00
768 11.6900 4616.00 4728.83 68.00
769 11.7000 4612.00 4756.15 68.00
770 11.7100 4653.00 4787.48 68.00
771 11.7200 4705.00 4823.73 69.00
772 11.7300 4757.00 4869.75 69.00
773 11.7400 4801.00 4919.94 69.00
774 11.7500 4838.00 4980.24 70.00
775 11.7600 4894.00 5054.44 70.00
776 11.7700 5047.00 5150.08 71.00
777 11.7800 5207.00 5285.80 72.00
778 11.7900 5491.00 5507.92 74.00
779 11.8000 5926.00 5910.57 77.00
780 11.8100 6647.00 6625.86 82.00
781 11.8200 7582.00 7735.76 87.00
782 11.8300 8778.00 9108.73 94.00
783 11.8400 9756.00 10220.40 99.00
784 11.8500 9977.00 10359.40 100.00
785 11.8600 9584.00 9664.30 98.00
786 11.8700 8981.00 8935.80 95.00
787 11.8800 8981.00 8720.16 95.00
788 11.8900 10060.00 9378.66 100.00
789 11.9000 12688.00 11573.50 113.00
790 11.9100 17882.00 16805.30 134.00
791 11.9200 27707.00 27291.40 166.00
792 11.9300 43641.00 44233.60 209.00
793 11.9400 63369.00 64600.90 252.00
794 11.9500 77267.00 77987.10 278.00
795 11.9600 73037.00 72603.80 270.00
796 11.9700 54102.00 53695.20 233.00
797 11.9800 33871.00 34340.60 184.00
798 11.9900 20391.00 20758.60 143.00
799 12.0000 13160.00 13251.70 115.00
800 12.0100 9527.00 9690.54 98.00
801 12.0200 7559.00 8035.12 87.00
802 12.0300 6570.00 7157.53 81.00
803 12.0400 5966.00 6601.80 77.00
804 12.0500 5615.00 6207.82 75.00
805 12.0600 5330.00 5913.34 73.00
806 12.0700 5177.00 5686.89 72.00
807 12.0800 5028.00 5509.10 71.00
808 12.0900 4973.00 5367.11 71.00
809 12.1000 4904.00 5252.00 70.00
810 12.1100 4836.00 5157.46 70.00
811 12.1200 4756.00 5078.90 69.00
812 12.1300 4732.00 5012.96 69.00
813 12.1400 4728.00 4957.09 69.00
814 12.1500 4736.00 4909.38 69.00
815 12.1600 4724.00 4868.33 69.00
816 12.1700 4654.00 4832.77 68.00
817 12.1800 4630.00 4801.78 68.00
818 12.1900 4620.00 4774.64 68.00
819 12.2000 4599.00 4750.74 68.00
820 12.2100 4602.00 4729.60 68.00
821 12.2200 4608.00 4710.83 68.00
822 12.2300 4587.00 4694.09 68.00
823 12.2400 4541.00 4679.12 67.00
824 12.2500 4521.00 4665.69 67.00
825 12.2600 4510.00 4653.60 67.00
826 12.2700 4533.00 4642.69 67.00
827 12.2800 4519.00 4632.83 67.00
828 12.2900 4518.00 4623.90 67.00
829 12.3000 4494.00 4615.79 67.00
830 12.3100 4513.00 4608.41 67.00
831 12.3200 4492.00 4601.70 67.00
832 12.3300 4507.00 4595.57 67.00
833 12.3400 4541.00 4589.99 67.00
834 12.3500 4504.00 4584.88 67.00
835 12.3600 4488.00 4580.22 67.00
836 12.3700 4516.00 4575.96 67.00
837 12.3800 4503.00 4572.06 67.00
838 12.3900 4475.00 4568.50 67.00
839 12.4000 4461.00 4565.25 67.00
840 12.4100 4465.00 4563.05 67.00
841 12.4200 4466.00 4560.36 67.00
842 12.4300 4474.00 4557.90 67.00
843 12.4400 4467.00 4555.68 67.00
844 12.4500 4464.00 4553.72 67.00
845 12.4600 4490.00 4551.90 67.00
846 12.4700 4495.00 4550.27 67.00
847 12.4800 4490.00 4548.81 67.00
848 12.4900 4496.00 4547.52 67.00
849 12.5000 4465.00 4546.38 67.00
850 12.5100 4468.00 4545.39 67.00
851 12.5200 4442.00 4544.54 67.00
852 12.5300 4462.00 4543.82 67.00
853 12.5400 4449.00 4543.29 67.00
854 12.5500 4442.00 4542.83 67.00
855 12.5600 4482.00 4542.49 67.00
856 12.5700 4476.00 4542.26 67.00
857 12.5800 4518.00 4542.15 67.00
858 12.5900 4485.00 4542.15 67.00
859 12.6000 4503.00 4542.26 67.00
860 12.6100 4501.00 4542.48 67.00
861 12.6200 4468.00 4542.80 67.00
862 12.6300 4457.00 4543.23 67.00
863 12.6400 4469.00 4543.77 67.00
864 12.6500 4433.00 4544.41 67.00
865 12.6600 4481.00 4545.16 67.00
866 12.6700 4468.00 4546.02 67.00
867 12.6800 4438.00 4546.98 67.00
868 12.6900 4468.00 4547.72 67.00
869 12.7000 4490.00 4548.57 67.00
870 12.7100 4480.00 4549.54 67.00
871 12.7200 4501.00 4550.62 67.00
872 12.7300 4475.00 4551.84 67.00
873 12.7400 4517.00 4553.18 67.00
874 12.7500 4482.00 4554.65 67.00
875 12.7600 4499.00 4556.27 67.00
876 12.7700 4482.00 4558.04 67.00
877 12.7800 4473.00 4559.95 67.00
878 12.7900 4492.00 4562.04 67.00
879 12.8000 4494.00 4564.29 67.00
880 12.8100 4558.00 4566.73 68.00
881 12.8200 4548.00 4569.36 67.00
882 12.8300 4555.00 4572.21 67.00
883 12.8400 4540.00 4575.27 67.00
884 12.8500 4542.00 4578.57 67.00
885 12.8600 4538.00 4582.13 67.00
886 12.8700 4548.00 4585.97 67.00
887 12.8800 4562.00 4590.11 68.00
888 12.8900 4555.00 4594.57 67.00
889 12.9000 4514.00 4599.38 67.00
890 12.9100 4554.00 4604.58 67.00
891 12.9200 4563.00 4610.20 68.00
892 12.9300 4582.00 4616.28 68.00
893 12.9400 4607.00 4622.87 68.00
894 12.9500 4617.00 4630.01 68.00
895 12.9600 4572.00 4637.77 68.00
896 12.9700 4619.00 4646.22 68.00
897 12.9800 4643.00 4655.43 68.00
898 12.9900 4626.00 4665.49 68.00
899 13.0000 4657.00 4676.51 68.00
900 13.0100 4648.00 4688.59 68.00
901 13.0200 4643.00 4701.89 68.00
902 13.0300 4642.00 4716.56 68.00
903 13.0400 4682.00 4732.80 68.00
904 13.0500 4686.00 4750.82 68.00
905 13.0600 4708.00 4770.90 69.00
906 13.0700 4730.00 4793.35 69.00
907 13.0800 4737.00 4818.56 69.00
908 13.0900 4788.00 4847.00 69.00
909 13.1000 4817.00 4879.24 69.00
910 13.1100 4826.00 4915.98 69.00
911 13.1200 4898.00 4958.10 70.00
912 13.1300 4886.00 5006.69 70.00
913 13.1400 4876.00 5063.16 70.00
914 13.1500 4959.00 5129.28 70.00
915 13.1600 5043.00 5207.42 71.00
916 13.1700 5099.00 5300.63 71.00
917 13.1800 5209.00 5413.06 72.00
918 13.1900 5339.00 5550.40 73.00
919 13.2000 5470.00 5720.72 74.00
920 13.2100 5690.00 5936.36 75.00
921 13.2200 6023.00 6219.02 78.00
922 13.2300 6497.00 6613.78 81.00
923 13.2400 7155.00 7222.93 85.00
924 13.2500 8406.00 8265.83 92.00
925 13.2600 10311.00 10140.40 102.00
926 13.2700 13621.00 13398.80 117.00
927 13.2800 18633.00 18527.30 137.00
928 13.2900 25770.00 25521.70 161.00
929 13.3000 33783.00 33329.50 184.00
930 13.3100 39796.00 39375.30 199.00
931 13.3200 41380.00 41179.80 203.00
932 13.3300 40129.00 40147.10 200.00
933 13.3400 39235.00 39490.90 198.00
934 13.3500 39639.00 39785.00 199.00
935 13.3600 38233.00 38347.00 196.00
936 13.3700 32813.00 32878.40 181.00
937 13.3800 24869.00 25251.30 158.00
938 13.3900 17831.00 18275.60 134.00
939 13.4000 12668.00 13161.40 113.00
940 13.4100 9641.00 9947.06 98.00
941 13.4200 7861.00 8128.35 89.00
942 13.4300 6825.00 7130.99 83.00
943 13.4400 6196.00 6550.65 79.00
944 13.4500 5852.00 6172.27 76.00
945 13.4600 5569.00 5899.51 75.00
946 13.4700 5385.00 5690.73 73.00
947 13.4800 5276.00 5525.76 73.00
948 13.4900 5170.00 5392.79 72.00
949 13.5000 5091.00 5284.02 71.00
950 13.5100 5056.00 5193.95 71.00
951 13.5200 5018.00 5118.54 71.00
952 13.5300 5016.00 5054.82 71.00
953 13.5400 5013.00 5000.50 71.00
954 13.5500 4972.00 4953.85 71.00
955 13.5600 4899.00 4913.53 70.00
956 13.5700 4902.00 4878.62 70.00
957 13.5800 4861.00 4847.99 70.00
958 13.5900 4849.00 4821.10 70.00
959 13.6000 4849.00 4797.41 70.00
960 13.6100 4847.00 4776.47 70.00
961 13.6200 4830.00 4757.91 69.00
962 13.6300 4879.00 4741.44 70.00
963 13.6400 4849.00 4726.79 70.00
964 13.6500 4841.00 4713.77 70.00
965 13.6600 4846.00 4702.21 70.00
966 13.6700 4816.00 4691.95 69.00
967 13.6800 4815.00 4682.90 69.00
968 13.6900 4790.00 4674.95 69.00
969 13.7000 4810.00 4668.03 69.00
970 13.7100 4827.00 4662.09 69.00
971 13.7200 4786.00 4657.09 69.00
972 13.7300 4835.00 4653.02 70.00
973 13.7400 4764.00 4649.87 69.00
974 13.7500 4795.00 4647.68 69.00
975 13.7600 4760.00 4646.48 69.00
976 13.7700 4777.00 4646.36 69.00
977 13.7800 4779.00 4647.43 69.00
978 13.7900 4824.00 4649.84 69.00
979 13.8000 4808.00 4653.82 69.00
980 13.8100 4859.00 4659.68 70.00
981 13.8200 4824.00 4667.83 69.00
982 13.8300 4855.00 4678.87 70.00
983 13.8400 4905.00 4693.65 70.00
984 13.8500 4923.00 4713.36 70.00
985 13.8600 4959.00 4739.87 70.00
986 13.8700 5038.00 4783.25 71.00
987 13.8800 5134.00 4836.25 72.00
988 13.8900 5302.00 4921.79 73.00
989 13.9000 5570.00 5079.53 75.00
990 13.9100 5954.00 5392.71 77.00
991 13.9200 6461.00 5991.32 80.00
992 13.9300 7350.00 6996.57 86.00
993 13.9400 8560.00 8387.33 93.00
994 13.9500 9645.00 9809.71 98.00
995 13.9600 10174.00 10453.20 101.00
996 13.9700 9643.00 9760.12 98.00
997 13.9800 8467.00 8324.66 92.00
998 13.9900 7247.00 6943.57 85.00
999 14.0000 6345.00 5953.89 80.00
1000 14.0100 5757.00 5367.71 76.00
1001 14.0200 5401.00 5061.40 73.00
1002 14.0300 5183.00 4906.30 72.00
1003 14.0400 5048.00 4821.23 71.00
1004 14.0500 4984.00 4767.88 71.00
1005 14.0600 4889.00 4730.81 70.00
1006 14.0700 4866.00 4703.81 70.00
1007 14.0800 4873.00 4683.91 70.00
1008 14.0900 4823.00 4669.50 69.00
1009 14.1000 4807.00 4659.78 69.00
1010 14.1100 4806.00 4654.74 69.00
1011 14.1200 4803.00 4655.63 69.00
1012 14.1300 4795.00 4665.72 69.00
1013 14.1400 4865.00 4690.91 70.00
1014 14.1500 4944.00 4738.75 70.00
1015 14.1600 4973.00 4814.94 71.00
1016 14.1700 5098.00 4917.43 71.00
1017 14.1800 5188.00 5028.58 72.00
1018 14.1900 5295.00 5110.22 73.00
1019 14.2000 5297.00 5134.02 73.00
1020 14.2100 5288.00 5125.63 73.00
1021 14.2200 5233.00 5120.07 72.00
1022 14.2300 5252.00 5108.56 72.00
1023 14.2400 5177.00 5051.19 72.00
1024 14.2500 5066.00 4945.19 71.00
1025 14.2600 4982.00 4830.31 71.00
1026 14.2700 4877.00 4735.65 70.00
1027 14.2800 4766.00 4669.54 69.00
1028 14.2900 4755.00 4628.53 69.00
1029 14.3000 4718.00 4604.78 69.00
1030 14.3100 4726.00 4590.96 69.00
1031 14.3200 4701.00 4582.27 69.00
1032 14.3300 4705.00 4576.23 69.00
1033 14.3400 4710.00 4571.69 69.00
1034 14.3500 4671.00 4568.12 68.00
1035 14.3600 4706.00 4565.26 69.00
1036 14.3700 4713.00 4562.95 69.00
1037 14.3800 4716.00 4561.07 69.00
1038 14.3900 4704.00 4559.54 69.00
1039 14.4000 4702.00 4558.31 69.00
1040 14.4100 4705.00 4557.33 69.00
1041 14.4200 4727.00 4556.57 69.00
1042 14.4300 4736.00 4556.01 69.00
1043 14.4400 4766.00 4555.62 69.00
1044 14.4500 4737.00 4555.41 69.00
1045 14.4600 4743.00 4555.36 69.00
1046 14.4700 4728.00 4555.47 69.00
1047 14.4800 4761.00 4555.74 69.00
1048 14.4900 4770.00 4556.18 69.00
1049 14.5000 4753.00 4556.79 69.00
1050 14.5100 4761.00 4557.60 69.00
1051 14.5200 4708.00 4558.62 69.00
1052 14.5300 4781.00 4559.88 69.00
1053 14.5400 4740.00 4561.43 69.00
1054 14.5500 4765.00 4563.31 69.00
1055 14.5600 4758.00 4565.84 69.00
1056 14.5700 4758.00 4568.63 69.00
1057 14.5800 4740.00 4572.07 69.00
1058 14.5900 4762.00 4576.33 69.00
1059 14.6000 4760.00 4581.68 69.00
1060 14.6100 4767.00 4588.53 69.00
1061 14.6200 4810.00 4597.47 69.00
1062 14.6300 4813.00 4609.57 69.00
1063 14.6400 4800.00 4627.07 69.00
1064 14.6500 4858.00 4656.22 70.00
1065 14.6600 4920.00 4714.46 70.00
1066 14.6700 5031.00 4841.25 71.00
1067 14.6800 5218.00 5096.90 72.00
1068 14.6900 5669.00 5521.20 75.00
1069 14.7000 6099.00 6049.10 78.00
1070 14.7100 6478.00 6415.66 80.00
1071 14.7200 6361.00 6296.20 80.00
1072 14.7300 5914.00 5809.84 77.00
1073 14.7400 5408.00 5312.71 74.00
1074 14.7500 5101.00 4968.76 71.00
1075 14.7600 4938.00 4782.37 70.00
1076 14.7700 4896.00 4698.63 70.00
1077 14.7800 4832.00 4659.10 70.00
1078 14.7900 4837.00 4638.53 70.00
1079 14.8000 4854.00 4625.94 70.00
1080 14.8100 4820.00 4617.49 69.00
1081 14.8200 4850.00 4611.68 70.00
1082 14.8300 4837.00 4607.70 70.00
1083 14.8400 4830.00 4605.06 69.00
1084 14.8500 4853.00 4603.46 70.00
1085 14.8600 4858.00 4602.66 70.00
1086 14.8700 4845.00 4602.52 70.00
1087 14.8800 4831.00 4602.94 70.00
1088 14.8900 4829.00 4603.84 69.00
1089 14.9000 4844.00 4605.19 70.00
1090 14.9100 4885.00 4606.96 70.00
1091 14.9200 4880.00 4609.13 70.00
1092 14.9300 4918.00 4611.72 70.00
1093 14.9400 4886.00 4614.75 70.00
1094 14.9500 4887.00 4618.27 70.00
1095 14.9600 4908.00 4622.33 70.00
1096 14.9700 4912.00 4627.01 70.00
1097 14.9800 4931.00 4632.45 70.00
1098 14.9900 4895.00 4638.83 70.00
1099 15.0000 4908.00 4642.83 70.00
1100 15.0100 4975.00 4652.09 71.00
1101 15.0200 4968.00 4663.72 70.00
1102 15.0300 5021.00 4675.39 71.00
1103 15.0400 5048.00 4699.29 71.00
1104 15.0500 5120.00 4741.12 72.00
1105 15.0600 5210.00 4819.30 72.00
1106 15.0700 5357.00 4958.02 73.00
1107 15.0800 5567.00 5171.34 75.00
1108 15.0900 5859.00 5434.26 77.00
1109 15.1000 6074.00 5645.11 78.00
1110 15.1100 6104.00 5651.09 78.00
1111 15.1200 5851.00 5453.50 76.00
1112 15.1300 5613.00 5205.73 75.00
1113 15.1400 5358.00 5008.43 73.00
1114 15.1500 5238.00 4886.20 72.00
1115 15.1600 5217.00 4824.82 72.00
1116 15.1700 5155.00 4800.25 72.00
1117 15.1800 5087.00 4794.36 71.00
1118 15.1900 5104.00 4797.67 71.00
1119 15.2000 5120.00 4806.29 72.00
1120 15.2100 5121.00 4818.83 72.00
1121 15.2200 5210.00 4834.85 72.00
1122 15.2300 5220.00 4854.28 72.00
1123 15.2400 5216.00 4877.29 72.00
1124 15.2500 5195.00 4904.19 72.00
1125 15.2600 5273.00 4935.50 73.00
1126 15.2700 5267.00 4971.88 73.00
1127 15.2800 5316.00 5014.25 73.00
1128 15.2900 5322.00 5063.81 73.00
1129 15.3000 5359.00 5122.05 73.00
1130 15.3100 5420.00 5191.03 74.00
1131 15.3200 5482.00 5273.37 74.00
1132 15.3300 5557.00 5372.65 75.00
1133 15.3400 5671.00 5493.74 75.00
1134 15.3500 5810.00 5643.29 76.00
1135 15.3600 5904.00 5830.82 77.00
1136 15.3700 6149.00 6070.41 78.00
1137 15.3800 6520.00 6383.93 81.00
1138 15.3900 7014.00 6815.26 84.00
1139 15.4000 7840.00 7462.08 89.00
1140 15.4100 9027.00 8558.35 95.00
1141 15.4200 11141.00 10607.30 106.00
1142 15.4300 14946.00 14466.70 122.00
1143 15.4400 21326.00 21147.20 146.00
1144 15.4500 31399.00 31103.40 177.00
1145 15.4600 43961.00 43052.80 210.00
1146 15.4700 53080.00 52446.20 230.00
1147 15.4800 52732.00 52651.70 230.00
1148 15.4900 43712.00 43486.80 209.00
1149 15.5000 30603.00 31529.10 175.00
1150 15.5100 20037.00 21459.90 142.00
1151 15.5200 13576.00 14659.70 117.00
1152 15.5300 10042.00 10714.20 100.00
1153 15.5400 8115.00 8616.51 90.00
1154 15.5500 7027.00 7496.95 84.00
1155 15.5600 6421.00 6839.75 80.00
1156 15.5700 6001.00 6403.86 77.00
1157 15.5800 5773.00 6088.17 76.00
1158 15.5900 5593.00 5848.39 75.00
1159 15.6000 5463.00 5661.59 74.00
1160 15.6100 5362.00 5513.58 73.00
1161 15.6200 5299.00 5394.84 73.00
1162 15.6300 5242.00 5298.87 72.00
1163 15.6400 5196.00 5221.18 72.00
1164 15.6500 5168.00 5159.16 72.00
1165 15.6600 5145.00 5112.58 72.00
1166 15.6700 5140.00 5085.20 72.00
1167 15.6800 5132.00 5086.18 72.00
1168 15.6900 5193.00 5128.04 72.00
1169 15.7000 5289.00 5217.15 73.00
1170 15.7100 5431.00 5336.76 74.00
1171 15.7200 5457.00 5425.12 74.00
1172 15.7300 5444.00 5394.83 74.00
1173 15.7400 5322.00 5253.54 73.00
1174 15.7500 5190.00 5090.06 72.00
1175 15.7600 5102.00 4958.79 71.00
1176 15.7700 5039.00 4871.55 71.00
1177 15.7800 4968.00 4819.22 70.00
1178 15.7900 4947.00 4787.89 70.00
1179 15.8000 4941.00 4767.30 70.00
1180 15.8100 4901.00 4752.04 70.00
1181 15.8200 4906.00 4739.77 70.00
1182 15.8300 4905.00 4729.50 70.00
1183 15.8400 4885.00 4720.76 70.00
1184 15.8500 4880.00 4713.24 70.00
1185 15.8600 4822.00 4706.76 69.00
1186 15.8700 4859.00 4701.15 70.00
1187 15.8800 4864.00 4696.32 70.00
1188 15.8900 4887.00 4692.18 70.00
1189 15.9000 4846.00 4688.68 70.00
1190 15.9100 4873.00 4685.75 70.00
1191 15.9200 4844.00 4683.37 70.00
1192 15.9300 4838.00 4681.53 70.00
1193 15.9400 4811.00 4680.08 69.00
1194 15.9500 4844.00 4679.27 70.00
1195 15.9600 4808.00 4678.98 69.00
1196 15.9700 4829.00 4679.24 69.00
1197 15.9800 4824.00 4680.08 69.00
1198 15.9900 4805.00 4681.55 69.00
1199 16.0000 4836.00 4683.74 70.00
1200 16.0100 4842.00 4686.74 70.00
1201 16.0200 4822.00 4690.71 69.00
1202 16.0300 4845.00 4695.84 70.00
1203 16.0400 4860.00 4702.43 70.00
1204 16.0500 4870.00 4710.89 70.00
1205 16.0600 4906.00 4721.88 70.00
1206 16.0700 4938.00 4736.52 70.00
1207 16.0800 4950.00 4757.19 70.00
1208 16.0900 4981.00 4789.53 71.00
1209 16.1000 5049.00 4846.47 71.00
1210 16.1100 5173.00 4952.52 72.00
1211 16.1200 5389.00 5143.33 73.00
1212 16.1300 5674.00 5447.15 75.00
1213 16.1400 6004.00 5851.03 77.00
1214 16.1500 6386.00 6248.13 80.00
1215 16.1600 6513.00 6409.24 81.00
1216 16.1700 6366.00 6199.99 80.00
1217 16.1800 5998.00 5798.24 77.00
1218 16.1900 5553.00 5417.46 75.00
1219 16.2000 5284.00 5144.09 73.00
1220 16.2100 5153.00 4981.09 72.00
1221 16.2200 5064.00 4896.68 71.00
1222 16.2300 5007.00 4856.97 71.00
1223 16.2400 4952.00 4839.54 70.00
1224 16.2500 4966.00 4833.20 70.00
1225 16.2600 4893.00 4833.24 70.00
1226 16.2700 4909.00 4837.77 70.00
1227 16.2800 4947.00 4845.96 70.00
1228 16.2900 4917.00 4857.45 70.00
1229 16.3000 4935.00 4872.08 70.00
1230 16.3100 4933.00 4889.92 70.00
1231 16.3200 4898.00 4911.12 70.00
1232 16.3300 4953.00 4936.02 70.00
1233 16.3400 4981.00 4965.05 71.00
1234 16.3500 5000.00 4998.82 71.00
1235 16.3600 5035.00 5038.11 71.00
1236 16.3700 5084.00 5083.95 71.00
1237 16.3800 5079.00 5137.61 71.00
1238 16.3900 5179.00 5200.83 72.00
1239 16.4000 5225.00 5275.81 72.00
1240 16.4100 5280.00 5363.60 73.00
1241 16.4200 5400.00 5470.01 73.00
1242 16.4300 5513.00 5600.42 74.00
1243 16.4400 5641.00 5762.66 75.00
1244 16.4500 5837.00 5969.00 76.00
1245 16.4600 6136.00 6241.62 78.00
1246 16.4700 6573.00 6625.10 81.00
1247 16.4800 7226.00 7211.12 85.00
1248 16.4900 8274.00 8172.83 91.00
1249 16.5000 9824.00 9790.01 99.00
1250 16.5100 12325.00 12418.00 111.00
1251 16.5200 16153.00 16368.30 127.00
1252 16.5300 21502.00 21684.90 147.00
1253 16.5400 27832.00 27805.10 167.00
1254 16.5500 33090.00 33149.80 182.00
1255 16.5600 35533.00 35900.10 189.00
1256 16.5700 35645.00 36220.50 189.00
1257 16.5800 34580.00 35395.50 186.00
1258 16.5900 32256.00 33221.70 180.00
1259 16.6000 28239.00 28841.50 168.00
1260 16.6100 22696.00 23113.70 151.00
1261 16.6200 17029.00 17698.30 130.00
1262 16.6300 12927.00 13448.20 114.00
1263 16.6400 10050.00 10485.30 100.00
1264 16.6500 8257.00 8590.58 91.00
1265 16.6600 7194.00 7440.94 85.00
1266 16.6700 6455.00 6743.66 80.00
1267 16.6800 5982.00 6298.17 77.00
1268 16.6900 5706.00 5989.92 76.00
1269 16.7000 5464.00 5760.94 74.00
1270 16.7100 5308.00 5582.42 73.00
1271 16.7200 5175.00 5439.10 72.00
1272 16.7300 5104.00 5321.81 71.00
1273 16.7400 4963.00 5224.51 70.00
1274 16.7500 4959.00 5142.80 70.00
1275 16.7600 4904.00 5073.48 70.00
1276 16.7700 4849.00 5014.11 70.00
1277 16.7800 4846.00 4962.84 70.00
1278 16.7900 4826.00 4918.23 69.00
1279 16.8000 4760.00 4879.13 69.00
1280 16.8100 4749.00 4844.65 69.00
1281 16.8200 4736.00 4814.04 69.00
1282 16.8300 4732.00 4786.73 69.00
1283 16.8400 4706.00 4762.24 69.00
1284 16.8500 4683.00 4740.16 68.00
1285 16.8600 4650.00 4720.17 68.00
1286 16.8700 4680.00 4702.00 68.00
1287 16.8800 4647.00 4685.42 68.00
1288 16.8900 4648.00 4670.22 68.00
1289 16.9000 4625.00 4656.24 68.00
1290 16.9100 4613.00 4643.35 68.00
1291 16.9200 4598.00 4631.41 68.00
1292 16.9300 4607.00 4620.33 68.00
1293 16.9400 4576.00 4610.02 68.00
1294 16.9500 4553.00 4600.38 67.00
1295 16.9600 4582.00 4591.37 68.00
1296 16.9700 4568.00 4582.90 68.00
1297 16.9800 4519.00 4574.94 67.00
1298 16.9900 4543.00 4567.44 67.00
1299 17.0000 4556.00 4560.34 67.00
1300 17.0100 4545.00 4553.63 67.00
1301 17.0200 4528.00 4547.25 67.00
1302 17.0300 4529.00 4541.20 67.00
1303 17.0400 4513.00 4535.43 67.00
1304 17.0500 4517.00 4529.92 67.00
1305 17.0600 4488.00 4524.66 67.00
1306 17.0700 4520.00 4519.62 67.00
1307 17.0800 4506.00 4514.80 67.00
1308 17.0900 4475.00 4503.32 67.00
1309 17.1000 4472.00 4498.94 67.00
1310 17.1100 4485.00 4494.73 67.00
1311 17.1200 4458.00 4490.67 67.00
1312 17.1300 4440.00 4486.76 67.00
1313 17.1400 4476.00 4482.98 67.00
1314 17.1500 4484.00 4479.32 67.00
1315 17.1600 4446.00 4475.77 67.00
1316 17.1700 4427.00 4472.34 67.00
1317 17.1800 4443.00 4469.00 67.00
1318 17.1900 4457.00 4465.77 67.00
1319 17.2000 4439.00 4462.62 67.00
1320 17.2100 4437.00 4459.55 67.00
1321 17.2200 4431.00 4456.57 67.00
1322 17.2300 4426.00 4453.66 67.00
1323 17.2400 4376.00 4450.82 66.00
1324 17.2500 4409.00 4448.05 66.00
1325 17.2600 4389.00 4445.34 66.00
1326 17.2700 4431.00 4442.62 67.00
1327 17.2800 4386.00 4440.03 66.00
1328 17.2900 4402.00 4437.50 66.00
1329 17.3000 4391.00 4435.02 66.00
1330 17.3100 4414.00 4432.59 66.00
1331 17.3200 4409.00 4430.21 66.00
1332 17.3300 4373.00 4427.87 66.00
1333 17.3400 4378.00 4425.58 66.00
1334 17.3500 4390.00 4423.33 66.00
1335 17.3600 4400.00 4421.13 66.00
1336 17.3700 4361.00 4418.96 66.00
1337 17.3800 4396.00 4416.83 66.00
1338 17.3900 4397.00 4416.85 66.00
1339 17.4000 4339.00 4414.82 66.00
1340 17.4100 4355.00 4412.83 66.00
1341 17.4200 4369.00 4410.88 66.00
1342 17.4300 4353.00 4408.96 66.00
1343 17.4400 4381.00 4407.08 66.00
1344 17.4500 4381.00 4405.23 66.00
1345 17.4600 4361.00 4406.04 66.00
1346 17.4700 4369.00 4406.88 66.00
1347 17.4800 4321.00 4407.76 66.00
1348 17.4900 4315.00 4409.01 66.00
1349 17.5000 4368.00 4409.96 66.00
1350 17.5100 4354.00 4410.96 66.00
1351 17.5200 4319.00 4411.99 66.00
1352 17.5300 4330.00 4413.06 66.00
1353 17.5400 4327.00 4414.17 66.00
1354 17.5500 4301.00 4415.33 66.00
1355 17.5600 4332.00 4416.54 66.00
1356 17.5700 4349.00 4417.80 66.00
1357 17.5800 4316.00 4419.12 66.00
1358 17.5900 4302.00 4420.49 66.00
1359 17.6000 4310.00 4421.93 66.00
1360 17.6100 4315.00 4423.44 66.00
1361 17.6200 4324.00 4425.04 66.00
1362 17.6300 4348.00 4426.72 66.00
1363 17.6400 4303.00 4428.51 66.00
1364 17.6500 4357.00 4430.42 66.00
1365 17.6600 4317.00 4432.46 66.00
1366 17.6700 4318.00 4434.66 66.00
1367 17.6800 4337.00 4437.04 66.00
1368 17.6900 4348.00 4439.65 66.00
1369 17.7000 4321.00 4442.51 66.00
1370 17.7100 4324.00 4445.69 66.00
1371 17.7200 4343.00 4449.25 66.00
1372 17.7300 4340.00 4453.29 66.00
1373 17.7400 4334.00 4457.93 66.00
1374 17.7500 4345.00 4463.33 66.00
1375 17.7600 4333.00 4469.46 66.00
1376 17.7700 4353.00 4477.14 66.00
1377 17.7800 4387.00 4486.55 66.00
1378 17.7900 4384.00 4498.43 66.00
1379 17.8000 4428.00 4514.14 67.00
1380 17.8100 4412.00 4536.54 66.00
1381 17.8200 4494.00 4571.86 67.00
1382 17.8300 4535.00 4632.51 67.00
1383 17.8400 4654.00 4738.77 68.00
1384 17.8500 4805.00 4915.48 69.00
1385 17.8600 5037.00 5179.16 71.00
1386 17.8700 5402.00 5515.76 73.00
1387 17.8800 5655.00 5846.06 75.00
1388 17.8900 5874.00 6004.74 77.00
1389 17.9000 5757.00 5872.43 76.00
1390 17.9100 5459.00 5552.11 74.00
1391 17.9200 5141.00 5213.97 72.00
1392 17.9300 4853.00 4944.95 70.00
1393 17.9400 4620.00 4763.29 68.00
1394 17.9500 4532.00 4654.16 67.00
1395 17.9600 4471.00 4592.80 67.00
1396 17.9700 4435.00 4558.24 67.00
1397 17.9800 4415.00 4537.43 66.00
1398 17.9900 4408.00 4523.68 66.00
1399 18.0000 4374.00 4514.67 66.00
1400 18.0100 4380.00 4507.49 66.00
1401 18.0200 4340.00 4502.11 66.00
1402 18.0300 4327.00 4498.05 66.00
1403 18.0400 4372.00 4494.99 66.00
1404 18.0500 4336.00 4492.71 66.00
1405 18.0600 4335.00 4491.04 66.00
1406 18.0700 4342.00 4489.86 66.00
1407 18.0800 4350.00 4489.07 66.00
1408 18.0900 4344.00 4488.60 66.00
1409 18.1000 4331.00 4488.40 66.00
1410 18.1100 4336.00 4488.42 66.00
1411 18.1200 4298.00 4489.67 66.00
1412 18.1300 4282.00 4490.05 65.00
1413 18.1400 4312.00 4490.57 66.00
1414 18.1500 4338.00 4491.21 66.00
1415 18.1600 4340.00 4491.96 66.00
1416 18.1700 4371.00 4492.80 66.00
1417 18.1800 4325.00 4493.73 66.00
1418 18.1900 4335.00 4494.74 66.00
1419 18.2000 4313.00 4495.81 66.00
1420 18.2100 4308.00 4496.95 66.00
1421 18.2200 4320.00 4498.16 66.00
1422 18.2300 4347.00 4499.42 66.00
1423 18.2400 4330.00 4500.74 66.00
1424 18.2500 4366.00 4502.12 66.00
1425 18.2600 4361.00 4503.56 66.00
1426 18.2700 4367.00 4505.05 66.00
1427 18.2800 4373.00 4506.60 66.00
1428 18.2900 4361.00 4508.21 66.00
1429 18.3000 4364.00 4509.89 66.00
1430 18.3100 4378.00 4511.64 66.00
1431 18.3200 4352.00 4513.49 66.00
1432 18.3300 4372.00 4515.44 66.00
1433 18.3400 4375.00 4517.51 66.00
1434 18.3500 4353.00 4519.74 66.00
1435 18.3600 4355.00 4522.20 66.00
1436 18.3700 4377.00 4525.02 66.00
1437 18.3800 4398.00 4528.49 66.00
1438 18.3900 4402.00 4533.24 66.00
1439 18.4000 4440.00 4537.01 67.00
1440 18.4100 4409.00 4547.68 66.00
1441 18.4200 4394.00 4562.82 66.00
1442 18.4300 4429.00 4578.84 67.00
1443 18.4400 4403.00 4597.14 66.00
1444 18.4500 4458.00 4606.01 67.00
1445 18.4600 4442.00 4600.19 67.00
1446 18.4700 4464.00 4586.14 67.00
1447 18.4800 4414.00 4572.33 66.00
1448 18.4900 4443.00 4562.52 67.00
1449 18.5000 4410.00 4557.17 66.00
1450 18.5100 4416.00 4555.31 66.00
1451 18.5200 4453.00 4555.68 67.00
1452 18.5300 4456.00 4557.31 67.00
1453 18.5400 4419.00 4559.65 66.00
1454 18.5500 4451.00 4562.45 67.00
1455 18.5600 4428.00 4565.61 67.00
1456 18.5700 4451.00 4569.09 67.00
1457 18.5800 4454.00 4572.89 67.00
1458 18.5900 4472.00 4577.00 67.00
1459 18.6000 4433.00 4581.47 67.00
1460 18.6100 4473.00 4586.30 67.00
1461 18.6200 4472.00 4591.55 67.00
1462 18.6300 4500.00 4597.26 67.00
1463 18.6400 4544.00 4603.50 67.00
1464 18.6500 4568.00 4610.33 68.00
1465 18.6600 4531.00 4617.86 67.00
1466 18.6700 4492.00 4626.20 67.00
1467 18.6800 4542.00 4635.48 67.00
1468 18.6900 4527.00 4645.88 67.00
1469 18.7000 4571.00 4657.62 68.00
1470 18.7100 4556.00 4670.96 67.00
1471 18.7200 4583.00 4686.26 68.00
1472 18.7300 4613.00 4703.95 68.00
1473 18.7400 4583.00 4724.62 68.00
1474 18.7500 4616.00 4749.01 68.00
1475 18.7600 4645.00 4778.16 68.00
1476 18.7700 4675.00 4813.44 68.00
1477 18.7800 4716.00 4856.78 69.00
1478 18.7900 4751.00 4910.91 69.00
1479 18.8000 4808.00 4979.81 69.00
1480 18.8100 4868.00 5069.78 70.00
1481 18.8200 4989.00 5191.93 71.00
1482 18.8300 5120.00 5370.71 72.00
1483 18.8400 5385.00 5666.62 73.00
1484 18.8500 5876.00 6221.62 77.00
1485 18.8600 6807.00 7303.14 83.00
1486 18.8700 8684.00 9261.98 93.00
1487 18.8800 11805.00 12296.00 109.00
1488 18.8900 16148.00 16014.70 127.00
1489 18.9000 19685.00 18829.10 140.00
1490 18.9100 20023.00 18486.00 142.00
1491 18.9200 16710.00 15317.60 129.00
1492 18.9300 12030.00 11654.70 110.00
1493 18.9400 8467.00 8822.85 92.00
1494 18.9500 6662.00 7058.47 82.00
1495 18.9600 5723.00 6106.64 76.00
1496 18.9700 5306.00 5620.79 73.00
1497 18.9800 5069.00 5358.34 71.00
1498 18.9900 4946.00 5197.12 70.00
1499 19.0000 4867.00 5086.12 70.00
1500 19.0100 4845.00 5004.65 70.00
1501 19.0200 4764.00 4942.83 69.00
1502 19.0300 4734.00 4895.23 69.00
1503 19.0400 4728.00 4857.66 69.00
1504 19.0500 4737.00 4827.83 69.00
1505 19.0600 4738.00 4803.94 69.00
1506 19.0700 4733.00 4784.76 69.00
1507 19.0800 4706.00 4769.23 69.00
1508 19.0900 4711.00 4756.71 69.00
1509 19.1000 4704.00 4746.68 69.00
1510 19.1100 4681.00 4738.76 68.00
1511 19.1200 4690.00 4732.64 68.00
1512 19.1300 4726.00 4728.12 69.00
1513 19.1400 4698.00 4725.06 69.00
1514 19.1500 4712.00 4723.35 69.00
1515 19.1600 4708.00 4722.97 69.00
1516 19.1700 4686.00 4723.92 68.00
1517 19.1800 4715.00 4726.27 69.00
1518 19.1900 4700.00 4730.16 69.00
1519 19.2000 4689.00 4735.81 68.00
1520 19.2100 4687.00 4743.56 68.00
1521 19.2200 4717.00 4753.93 69.00
1522 19.2300 4737.00 4768.94 69.00
1523 19.2400 4790.00 4787.76 69.00
1524 19.2500 4779.00 4814.63 69.00
1525 19.2600 4817.00 4855.90 69.00
1526 19.2700 4871.00 4923.96 70.00
1527 19.2800 4994.00 5039.36 71.00
1528 19.2900 5188.00 5229.46 72.00
1529 19.3000 5452.00 5518.68 74.00
1530 19.3100 5790.00 5910.33 76.00
1531 19.3200 6233.00 6356.39 79.00
1532 19.3300 6633.00 6716.85 81.00
1533 19.3400 6761.00 6786.08 82.00
1534 19.3500 6583.00 6515.01 81.00
1535 19.3600 6156.00 6083.92 78.00
1536 19.3700 5731.00 5669.39 76.00
1537 19.3800 5347.00 5348.01 73.00
1538 19.3900 5148.00 5131.00 72.00
1539 19.4000 4979.00 4999.00 71.00
1540 19.4100 4875.00 4924.28 70.00
1541 19.4200 4900.00 4883.43 70.00
1542 19.4300 4825.00 4861.47 69.00
1543 19.4400 4825.00 4850.46 69.00
1544 19.4500 4800.00 4846.76 69.00
1545 19.4600 4809.00 4849.03 69.00
1546 19.4700 4805.00 4857.37 69.00
1547 19.4800 4823.00 4873.58 69.00
1548 19.4900 4851.00 4901.80 70.00
1549 19.5000 4863.00 4948.63 70.00
1550 19.5100 4943.00 5020.29 70.00
1551 19.5200 5038.00 5116.49 71.00
1552 19.5300 5136.00 5220.55 72.00
1553 19.5400 5196.00 5295.37 72.00
1554 19.5500 5254.00 5330.12 72.00
1555 19.5600 5222.00 5378.85 72.00
1556 19.5700 5274.00 5509.85 73.00
1557 19.5800 5528.00 5787.14 74.00
1558 19.5900 5908.00 6275.56 77.00
1559 19.6000 6609.00 7030.56 81.00
1560 19.6100 7650.00 8069.68 87.00
1561 19.6200 8841.00 9297.64 94.00
1562 19.6300 10121.00 10434.10 101.00
1563 19.6400 11225.00 11247.80 106.00
1564 19.6500 11967.00 11727.00 109.00
1565 19.6600 11899.00 11533.30 109.00
1566 19.6700 10910.00 10325.10 104.00
1567 19.6800 9154.00 8677.75 96.00
1568 19.6900 7399.00 7255.87 86.00
1569 19.7000 6088.00 6282.06 78.00
1570 19.7100 5435.00 5706.92 74.00
1571 19.7200 5188.00 5394.38 72.00
1572 19.7300 5010.00 5223.78 71.00
1573 19.7400 4921.00 5122.18 70.00
1574 19.7500 4883.00 5055.09 70.00
1575 19.7600 4858.00 5007.91 70.00
1576 19.7700 4819.00 4974.20 69.00
1577 19.7800 4834.00 4950.71 70.00
1578 19.7900 4860.00 4935.82 70.00
1579 19.8000 4805.00 4929.16 69.00
1580 19.8100 4813.00 4931.92 69.00
1581 19.8200 4828.00 4947.61 69.00
1582 19.8300 4840.00 4982.81 70.00
1583 19.8400 4919.00 5047.38 70.00
1584 19.8500 5078.00 5152.74 71.00
1585 19.8600 5168.00 5307.81 72.00
1586 19.8700 5402.00 5511.22 73.00
1587 19.8800 5588.00 5738.32 75.00
1588 19.8900 5812.00 5930.03 76.00
1589 19.9000 5960.00 6027.63 77.00
1590 19.9100 5972.00 6030.66 77.00
1591 19.9200 5926.00 5955.65 77.00
1592 19.9300 5807.00 5796.63 76.00
1593 19.9400 5579.00 5579.50 75.00
1594 19.9500 5340.00 5361.97 73.00
1595 19.9600 5161.00 5181.97 72.00
1596 19.9700 5032.00 5049.12 71.00
1597 19.9800 4877.00 4958.56 70.00
1598 19.9900 4838.00 4900.02 70.00
1599 20.0000 4791.00 4863.01 69.00
1600 20.0100 4752.00 4839.18 69.00
1601 20.0200 4772.00 4823.08 69.00
1602 20.0300 4755.00 4811.51 69.00
1603 20.0400 4752.00 4802.81 69.00
1604 20.0500 4723.00 4796.00 69.00
1605 20.0600 4741.00 4790.60 69.00
1606 20.0700 4709.00 4786.28 69.00
1607 20.0800 4749.00 4782.81 69.00
1608 20.0900 4700.00 4780.02 69.00
1609 20.1000 4714.00 4777.80 69.00
1610 20.1100 4719.00 4776.05 69.00
1611 20.1200 4671.00 4774.70 68.00
1612 20.1300 4700.00 4773.68 69.00
1613 20.1400 4692.00 4772.97 68.00
1614 20.1500 4713.00 4772.52 69.00
1615 20.1600 4682.00 4772.37 68.00
1616 20.1700 4758.00 4772.52 69.00
1617 20.1800 4733.00 4773.06 69.00
1618 20.1900 4723.00 4774.10 69.00
1619 20.2000 4733.00 4775.77 69.00
1620 20.2100 4753.00 4778.16 69.00
1621 20.2200 4746.00 4781.22 69.00
1622 20.2300 4758.00 4784.66 69.00
1623 20.2400 4746.00 4787.70 69.00
1624 20.2500 4725.00 4789.21 69.00
1625 20.2600 4756.00 4788.66 69.00
1626 20.2700 4771.00 4787.33 69.00
1627 20.2800 4702.00 4785.24 69.00
1628 20.2900 4762.00 4783.57 69.00
1629 20.3000 4758.00 4782.56 69.00
1630 20.3100 4724.00 4782.21 69.00
1631 20.3200 4757.00 4782.38 69.00
1632 20.3300 4770.00 4782.94 69.00
1633 20.3400 4728.00 4783.75 69.00
1634 20.3500 4747.00 4784.73 69.00
1635 20.3600 4786.00 4785.82 69.00
1636 20.3700 4764.00 4787.01 69.00
1637 20.3800 4803.00 4788.27 69.00
1638 20.3900 4802.00 4789.61 69.00
1639 20.4000 4767.00 4790.31 69.00
1640 20.4100 4773.00 4791.08 69.00
1641 20.4200 4779.00 4792.33 69.00
1642 20.4300 4772.00 4791.16 69.00
1643 20.4400 4781.00 4792.17 69.00
1644 20.4500 4771.00 4793.24 69.00
1645 20.4600 4744.00 4794.40 69.00
1646 20.4700 4830.00 4795.63 69.00
1647 20.4800 4801.00 4796.97 69.00
1648 20.4900 4785.00 4798.40 69.00
1649 20.5000 4803.00 4799.96 69.00
1650 20.5100 4816.00 4801.66 69.00
1651 20.5200 4767.00 4803.54 69.00
1652 20.5300 4808.00 4805.63 69.00
1653 20.5400 4817.00 4808.04 69.00
1654 20.5500 4803.00 4810.88 69.00
1655 20.5600 4830.00 4814.34 69.00
1656 20.5700 4855.00 4818.64 70.00
1657 20.5800 4820.00 4823.99 69.00
1658 20.5900 4829.00 4830.53 69.00
1659 20.6000 4874.00 4838.17 70.00
1660 20.6100 4875.00 4846.44 70.00
1661 20.6200 4907.00 4854.29 70.00
1662 20.6300 4902.00 4860.43 70.00
1663 20.6400 4872.00 4864.55 70.00
1664 20.6500 4916.00 4867.97 70.00
1665 20.6600 4919.00 4872.53 70.00
1666 20.6700 4912.00 4879.71 70.00
1667 20.6800 4971.00 4890.90 71.00
1668 20.6900 4978.00 4908.18 71.00
1669 20.7000 4963.00 4935.71 70.00
1670 20.7100 5026.00 4982.07 71.00
1671 20.7200 5080.00 5062.49 71.00
1672 20.7300 5257.00 5198.16 73.00
1673 20.7400 5407.00 5408.54 74.00
1674 20.7500 5635.00 5695.14 75.00
1675 20.7600 5929.00 6013.45 77.00
1676 20.7700 6158.00 6236.58 78.00
1677 20.7800 6223.00 6210.09 79.00
1678 20.7900 6090.00 5957.67 78.00
1679 20.8000 5825.00 5643.38 76.00
1680 20.8100 5554.00 5375.59 75.00
1681 20.8200 5304.00 5186.35 73.00
1682 20.8300 5195.00 5068.60 72.00
1683 20.8400 5106.00 5001.44 71.00
1684 20.8500 5098.00 4964.44 71.00
1685 20.8600 5101.00 4943.71 71.00
1686 20.8700 5084.00 4931.64 71.00
1687 20.8800 5084.00 4924.64 71.00
1688 20.8900 5052.00 4921.03 71.00
1689 20.9000 5078.00 4920.04 71.00
1690 20.9100 5079.00 4921.27 71.00
1691 20.9200 5071.00 4924.61 71.00
1692 20.9300 5089.00 4930.24 71.00
1693 20.9400 5021.00 4938.81 71.00
1694 20.9500 5065.00 4951.71 71.00
1695 20.9600 5061.00 4971.45 71.00
1696 20.9700 5126.00 5001.68 72.00
1697 20.9800 5147.00 5046.49 72.00
1698 20.9900 5261.00 5108.53 73.00
1699 21.0000 5313.00 5185.97 73.00
1700 21.0100 5393.00 5267.53 73.00
1701 21.0200 5453.00 5327.19 74.00
1702 21.0300 5495.00 5335.99 74.00
1703 21.0400 5477.00 5296.30 74.00
1704 21.0500 5405.00 5238.72 74.00
1705 21.0600 5307.00 5188.04 73.00
1706 21.0700 5291.00 5154.64 73.00
1707 21.0800 5325.00 5140.11 73.00
1708 21.0900 5297.00 5142.13 73.00
1709 21.1000 5253.00 5157.21 72.00
1710 21.1100 5292.00 5182.62 73.00
1711 21.1200 5264.00 5216.95 73.00
1712 21.1300 5343.00 5260.19 73.00
1713 21.1400 5381.00 5313.43 73.00
1714 21.1500 5462.00 5378.86 74.00
1715 21.1600 5536.00 5460.03 74.00
1716 21.1700 5593.00 5563.03 75.00
1717 21.1800 5720.00 5698.76 76.00
1718 21.1900 5915.00 5887.05 77.00
1719 21.2000 6196.00 6163.76 79.00
1720 21.2100 6568.00 6583.09 81.00
1721 21.2200 7147.00 7220.30 85.00
1722 21.2300 7979.00 8150.66 89.00
1723 21.2400 9186.00 9422.72 96.00
1724 21.2500 10680.00 11010.70 103.00
1725 21.2600 12527.00 12749.20 112.00
1726 21.2700 14129.00 14285.00 119.00
1727 21.2800 15395.00 15339.80 124.00
1728 21.2900 16314.00 16258.50 128.00
1729 21.3000 17691.00 17835.70 133.00
1730 21.3100 20086.00 20502.20 142.00
1731 21.3200 23261.00 23730.90 153.00
1732 21.3300 25320.00 25619.00 159.00
1733 21.3400 24811.00 24139.20 158.00
1734 21.3500 21172.00 20055.80 146.00
1735 21.3600 16358.00 15596.90 128.00
1736 21.3700 12409.00 11995.60 111.00
1737 21.3800 9761.00 9517.97 99.00
1738 21.3900 8081.00 7981.46 90.00
1739 21.4000 7149.00 7078.19 85.00
1740 21.4100 6538.00 6541.66 81.00
1741 21.4200 6136.00 6199.20 78.00
1742 21.4300 5903.00 5958.38 77.00
1743 21.4400 5717.00 5774.68 76.00
1744 21.4500 5595.00 5628.97 75.00
1745 21.4600 5495.00 5511.80 74.00
1746 21.4700 5431.00 5416.88 74.00
1747 21.4800 5357.00 5339.59 73.00
1748 21.4900 5296.00 5276.16 73.00
1749 21.5000 5271.00 5223.63 73.00
1750 21.5100 5210.00 5179.61 72.00
1751 21.5200 5216.00 5142.32 72.00
1752 21.5300 5164.00 5110.38 72.00
1753 21.5400 5161.00 5082.78 72.00
1754 21.5500 5145.00 5058.75 72.00
1755 21.5600 5119.00 5037.69 72.00
1756 21.5700 5131.00 5019.13 72.00
1757 21.5800 5136.00 5002.69 72.00
1758 21.5900 5106.00 4988.07 71.00
1759 21.6000 5067.00 4975.00 71.00
1760 21.6100 5124.00 4963.28 72.00
1761 21.6200 5069.00 4952.73 71.00
1762 21.6300 5074.00 4943.21 71.00
1763 21.6400 5074.00 4934.59 71.00
1764 21.6500 5048.00 4926.76 71.00
1765 21.6600 4999.00 4919.64 71.00
1766 21.6700 5029.00 4913.14 71.00
1767 21.6800 5033.00 4907.20 71.00
1768 21.6900 5002.00 4901.75 71.00
1769 21.7000 5020.00 4896.76 71.00
1770 21.7100 4984.00 4892.18 71.00
1771 21.7200 4973.00 4888.77 71.00
1772 21.7300 4993.00 4884.89 71.00
1773 21.7400 5007.00 4881.31 71.00
1774 21.7500 4953.00 4878.01 70.00
1775 21.7600 4989.00 4874.97 71.00
1776 21.7700 4934.00 4872.16 70.00
1777 21.7800 4972.00 4869.56 71.00
1778 21.7900 4958.00 4867.16 70.00
1779 21.8000 4967.00 4864.95 70.00
1780 21.8100 4945.00 4862.91 70.00
1781 21.8200 4955.00 4861.03 70.00
1782 21.8300 4940.00 4859.31 70.00
1783 21.8400 4927.00 4857.72 70.00
1784 21.8500 4934.00 4856.28 70.00
1785 21.8600 4948.00 4854.83 70.00
1786 21.8700 4966.00 4853.64 70.00
1787 21.8800 4990.00 4852.56 71.00
1788 21.8900 5013.00 4851.60 71.00
1789 21.9000 4970.00 4850.75 70.00
1790 21.9100 4967.00 4849.90 70.00
1791 21.9200 4924.00 4849.26 70.00
1792 21.9300 4946.00 4848.74 70.00
1793 21.9400 4938.00 4848.32 70.00
1794 21.9500 4945.00 4848.00 70.00
1795 21.9600 4937.00 4847.79 70.00
1796 21.9700 4945.00 4847.69 70.00
1797 21.9800 4890.00 4847.71 70.00
1798 21.9900 4912.00 4847.84 70.00
1799 22.0000 4918.00 4848.09 70.00
1800 22.0100 4952.00 4848.46 70.00
1801 22.0200 4869.00 4848.97 70.00
1802 22.0300 4929.00 4849.62 70.00
1803 22.0400 4908.00 4850.43 70.00
1804 22.0500 4920.00 4851.40 70.00
1805 22.0600 4927.00 4852.55 70.00
1806 22.0700 4959.00 4854.00 70.00
1807 22.0800 4913.00 4855.56 70.00
1808 22.0900 4917.00 4857.36 70.00
1809 22.1000 4912.00 4859.43 70.00
1810 22.1100 4923.00 4861.79 70.00
1811 22.1200 4921.00 4864.50 70.00
1812 22.1300 4912.00 4867.58 70.00
1813 22.1400 4906.00 4871.11 70.00
1814 22.1500 4944.00 4875.14 70.00
1815 22.1600 4925.00 4879.75 70.00
1816 22.1700 4927.00 4885.94 70.00
1817 22.1800 4927.00 4892.06 70.00
1818 22.1900 4932.00 4899.14 70.00
1819 22.2000 4914.00 4907.37 70.00
1820 22.2100 4979.00 4917.02 71.00
1821 22.2200 4967.00 4928.43 70.00
1822 22.2300 4957.00 4942.13 70.00
1823 22.2400 5006.00 4958.88 71.00
1824 22.2500 4987.00 4979.86 71.00
1825 22.2600 5014.00 5006.79 71.00
1826 22.2700 5070.00 5042.08 71.00
1827 22.2800 5073.00 5088.87 71.00
1828 22.2900 5150.00 5151.09 72.00
1829 22.3000 5229.00 5233.59 72.00
1830 22.3100 5338.00 5342.90 73.00
1831 22.3200 5441.00 5487.44 74.00
1832 22.3300 5647.00 5677.70 75.00
1833 22.3400 5861.00 5928.05 77.00
1834 22.3500 6124.00 6262.07 78.00
1835 22.3600 6535.00 6707.07 81.00
1836 22.3700 7102.00 7266.68 84.00
1837 22.3800 7616.00 7884.82 87.00
1838 22.3900 8189.00 8412.30 90.00
1839 22.4000 8459.00 8658.80 92.00
1840 22.4100 8424.00 8596.00 92.00
1841 22.4200 8273.00 8411.27 91.00
1842 22.4300 8134.00 8285.54 90.00
1843 22.4400 8056.00 8243.24 90.00
1844 22.4500 8054.00 8146.16 90.00
1845 22.4600 7764.00 7823.70 88.00
1846 22.4700 7353.00 7290.13 86.00
1847 22.4800 6797.00 6706.59 82.00
1848 22.4900 6225.00 6195.31 79.00
1849 22.5000 5805.00 5799.67 76.00
1850 22.5100 5533.00 5518.24 74.00
1851 22.5200 5359.00 5329.32 73.00
1852 22.5300 5200.00 5205.79 72.00
1853 22.5400 5100.00 5124.51 71.00
1854 22.5500 5051.00 5068.55 71.00
1855 22.5600 4997.00 5027.69 71.00
1856 22.5700 4982.00 4996.26 71.00
1857 22.5800 4993.00 4971.17 71.00
1858 22.5900 4959.00 4950.64 70.00
1859 22.6000 4975.00 4933.59 71.00
1860 22.6100 4926.00 4919.26 70.00
1861 22.6200 4934.00 4908.78 70.00
1862 22.6300 4940.00 4898.42 70.00
1863 22.6400 4897.00 4889.52 70.00
1864 22.6500 4933.00 4881.84 70.00
1865 22.6600 4955.00 4875.20 70.00
1866 22.6700 4897.00 4869.45 70.00
1867 22.6800 4905.00 4864.49 70.00
1868 22.6900 4914.00 4860.25 70.00
1869 22.7000 4892.00 4856.67 70.00
1870 22.7100 4888.00 4853.76 70.00
1871 22.7200 4919.00 4851.56 70.00
1872 22.7300 4931.00 4850.24 70.00
1873 22.7400 4898.00 4850.14 70.00
1874 22.7500 4926.00 4851.91 70.00
1875 22.7600 4905.00 4856.52 70.00
1876 22.7700 4916.00 4865.16 70.00
1877 22.7800 4951.00 4878.87 70.00
1878 22.7900 4962.00 4897.80 70.00
1879 22.8000 4924.00 4920.09 70.00
1880 22.8100 4998.00 4940.08 71.00
1881 22.8200 5016.00 4948.14 71.00
1882 22.8300 5005.00 4938.37 71.00
1883 22.8400 5001.00 4916.22 71.00
1884 22.8500 4948.00 4891.40 70.00
1885 22.8600 4947.00 4869.74 70.00
1886 22.8700 4933.00 4853.23 70.00
1887 22.8800 4883.00 4841.76 70.00
1888 22.8900 4913.00 4834.29 70.00
1889 22.9000 4891.00 4829.63 70.00
1890 22.9100 4889.00 4826.77 70.00
1891 22.9200 4895.00 4825.03 70.00
1892 22.9300 4910.00 4824.04 70.00
1893 22.9400 4927.00 4823.60 70.00
1894 22.9500 4922.00 4823.69 70.00
1895 22.9600 4945.00 4824.40 70.00
1896 22.9700 4943.00 4825.36 70.00
1897 22.9800 4900.00 4826.77 70.00
1898 22.9900 4918.00 4826.68 70.00
1899 23.0000 4911.00 4829.44 70.00
1900 23.0100 4928.00 4833.04 70.00
1901 23.0200 4925.00 4837.69 70.00
1902 23.0300 4950.00 4843.68 70.00
1903 23.0400 4893.00 4851.44 70.00
1904 23.0500 4952.00 4861.69 70.00
1905 23.0600 4959.00 4875.70 70.00
1906 23.0700 5000.00 4895.93 71.00
1907 23.0800 5038.00 4927.37 71.00
1908 23.0900 5140.00 4979.08 72.00
1909 23.1000 5185.00 5065.23 72.00
1910 23.1100 5305.00 5202.98 73.00
1911 23.1200 5497.00 5405.66 74.00
1912 23.1300 5711.00 5669.27 76.00
1913 23.1400 5997.00 5949.63 77.00
1914 23.1500 6225.00 6134.24 79.00
1915 23.1600 6184.00 6099.83 79.00
1916 23.1700 6056.00 5872.42 78.00
1917 23.1800 5775.00 5587.85 76.00
1918 23.1900 5473.00 5338.62 74.00
1919 23.2000 5285.00 5154.30 73.00
1920 23.2100 5187.00 5032.19 72.00
1921 23.2200 5099.00 4956.77 71.00
1922 23.2300 5023.00 4911.30 71.00
1923 23.2400 4991.00 4883.01 71.00
1924 23.2500 4981.00 4863.21 71.00
1925 23.2600 4942.00 4849.72 70.00
1926 23.2700 4937.00 4839.53 70.00
1927 23.2800 4939.00 4831.58 70.00
1928 23.2900 4952.00 4825.25 70.00
1929 23.3000 4959.00 4820.16 70.00
1930 23.3100 4941.00 4816.03 70.00
1931 23.3200 4934.00 4812.65 70.00
1932 23.3300 4940.00 4808.73 70.00
1933 23.3400 4887.00 4806.50 70.00
1934 23.3500 4929.00 4804.69 70.00
1935 23.3600 4947.00 4803.26 70.00
1936 23.3700 4913.00 4802.16 70.00
1937 23.3800 4977.00 4801.34 71.00
1938 23.3900 4930.00 4800.79 70.00
1939 23.4000 4875.00 4800.50 70.00
1940 23.4100 4922.00 4800.45 70.00
1941 23.4200 4911.00 4800.64 70.00
1942 23.4300 4906.00 4801.08 70.00
1943 23.4400 4918.00 4801.78 70.00
1944 23.4500 4942.00 4802.76 70.00
1945 23.4600 4902.00 4804.05 70.00
1946 23.4700 4899.00 4805.70 70.00
1947 23.4800 4928.00 4807.78 70.00
1948 23.4900 4949.00 4810.40 70.00
1949 23.5000 4952.00 4813.79 70.00
1950 23.5100 4940.00 4818.29 70.00
1951 23.5200 4945.00 4824.49 70.00
1952 23.5300 4975.00 4833.24 71.00
1953 23.5400 4978.00 4845.62 71.00
1954 23.5500 4980.00 4862.77 71.00
1955 23.5600 5016.00 4885.51 71.00
1956 23.5700 5041.00 4913.75 71.00
1957 23.5800 5029.00 4945.67 71.00
1958 23.5900 5059.00 4976.38 71.00
1959 23.6000 5113.00 4997.45 72.00
1960 23.6100 5071.00 5001.50 71.00
1961 23.6200 5122.00 4989.73 72.00
1962 23.6300 5105.00 4970.71 71.00
1963 23.6400 5079.00 4952.54 71.00
1964 23.6500 5083.00 4939.81 71.00
1965 23.6600 5060.00 4934.18 71.00
1966 23.6700 5057.00 4936.06 71.00
1967 23.6800 5071.00 4945.20 71.00
1968 23.6900 5098.00 4961.33 71.00
1969 23.7000 5065.00 4984.69 71.00
1970 23.7100 5093.00 5016.52 71.00
1971 23.7200 5137.00 5059.78 72.00
1972 23.7300 5178.00 5120.41 72.00
1973 23.7400 5283.00 5209.27 73.00
1974 23.7500 5429.00 5344.34 74.00
1975 23.7600 5557.00 5551.65 75.00
1976 23.7700 5862.00 5863.17 77.00
1977 23.7800 6267.00 6308.83 79.00
1978 23.7900 6861.00 6901.70 83.00
1979 23.8000 7595.00 7609.49 87.00
1980 23.8100 8374.00 8314.61 92.00
1981 23.8200 8857.00 8819.01 94.00
1982 23.8300 9121.00 8985.76 96.00
1983 23.8400 8923.00 8819.03 94.00
1984 23.8500 8442.00 8360.60 92.00
1985 23.8600 7749.00 7707.00 88.00
1986 23.8700 7115.00 7023.47 84.00
1987 23.8800 6486.00 6433.58 81.00
1988 23.8900 6018.00 5980.92 78.00
1989 23.9000 5723.00 5660.01 76.00
1990 23.9100 5508.00 5445.74 74.00
1991 23.9200 5399.00 5308.92 73.00
1992 23.9300 5345.00 5224.52 73.00
1993 23.9400 5273.00 5174.56 73.00
1994 23.9500 5284.00 5148.23 73.00
1995 23.9600 5286.00 5140.66 73.00
1996 23.9700 5272.00 5151.67 73.00
1997 23.9800 5332.00 5184.86 73.00
1998 23.9900 5340.00 5246.36 73.00
1999 24.0000 5469.00 5342.78 74.00
2000 24.0100 5571.00 5477.72 75.00
2001 24.0200 5794.00 5646.56 76.00
2002 24.0300 6002.00 5828.48 77.00
2003 24.0400 6185.00 5991.53 79.00
2004 24.0500 6245.00 6144.86 79.00
2005 24.0600 6391.00 6373.92 80.00
2006 24.0700 6701.00 6782.77 82.00
2007 24.0800 7340.00 7433.18 86.00
2008 24.0900 8246.00 8308.11 91.00
2009 24.1000 9247.00 9245.99 96.00
2010 24.1100 10083.00 9866.67 100.00
2011 24.1200 10022.00 9759.59 100.00
2012 24.1300 9330.00 8981.72 97.00
2013 24.1400 8082.00 7968.52 90.00
2014 24.1500 7026.00 7046.76 84.00
2015 24.1600 6277.00 6337.57 79.00
2016 24.1700 5825.00 5846.46 76.00
2017 24.1800 5502.00 5530.23 74.00
2018 24.1900 5357.00 5333.73 73.00
2019 24.2000 5268.00 5210.69 73.00
2020 24.2100 5196.00 5130.08 72.00
2021 24.2200 5178.00 5073.90 72.00
2022 24.2300 5124.00 5032.84 72.00
2023 24.2400 5077.00 5002.01 71.00
2024 24.2500 5076.00 4978.72 71.00
2025 24.2600 5050.00 4961.35 71.00
2026 24.2700 5072.00 4948.84 71.00
2027 24.2800 5081.00 4940.51 71.00
2028 24.2900 5083.00 4935.91 71.00
2029 24.3000 5070.00 4934.69 71.00
2030 24.3100 5111.00 4936.60 71.00
2031 24.3200 5064.00 4941.55 71.00
2032 24.3300 5097.00 4949.82 71.00
2033 24.3400 5118.00 4961.97 72.00
2034 24.3500 5112.00 4978.69 71.00
2035 24.3600 5112.00 5000.91 71.00
2036 24.3700 5132.00 5030.00 72.00
2037 24.3800 5219.00 5068.29 72.00
2038 24.3900 5244.00 5119.80 72.00
2039 24.4000 5361.00 5191.58 73.00
2040 24.4100 5410.00 5295.57 74.00
2041 24.4200 5556.00 5450.29 75.00
2042 24.4300 5784.00 5681.41 76.00
2043 24.4400 6037.00 6018.87 78.00
2044 24.4500 6518.00 6490.38 81.00
2045 24.4600 7151.00 7109.33 85.00
2046 24.4700 7943.00 7857.38 89.00
2047 24.4800 8780.00 8651.45 94.00
2048 24.4900 9490.00 9317.28 97.00
2049 24.5000 9852.00 9665.57 99.00
2050 24.5100 9838.00 9685.82 99.00
2051 24.5200 9743.00 9557.67 99.00
2052 24.5300 9661.00 9423.96 98.00
2053 24.5400 9476.00 9256.66 97.00
2054 24.5500 9158.00 8910.11 96.00
2055 24.5600 8618.00 8324.37 93.00
2056 24.5700 7805.00 7618.74 88.00
2057 24.5800 7048.00 6948.13 84.00
2058 24.5900 6445.00 6398.03 80.00
2059 24.6000 5984.00 5992.02 77.00
2060 24.6100 5755.00 5724.37 76.00
2061 24.6200 5590.00 5572.37 75.00
2062 24.6300 5594.00 5500.81 75.00
2063 24.6400 5502.00 5457.68 74.00
2064 24.6500 5458.00 5386.73 74.00
2065 24.6600 5353.00 5280.09 73.00
2066 24.6700 5226.00 5171.88 72.00
2067 24.6800 5125.00 5085.91 72.00
2068 24.6900 5104.00 5028.97 71.00
2069 24.7000 5071.00 5000.53 71.00
2070 24.7100 5064.00 4999.19 71.00
2071 24.7200 5055.00 5025.98 71.00
2072 24.7300 5129.00 5084.33 72.00
2073 24.7400 5197.00 5177.52 72.00
2074 24.7500 5341.00 5303.87 73.00
2075 24.7600 5511.00 5449.29 74.00
2076 24.7700 5641.00 5576.76 75.00
2077 24.7800 5630.00 5627.32 75.00
2078 24.7900 5586.00 5565.58 75.00
2079 24.8000 5501.00 5422.77 74.00
2080 24.8100 5306.00 5257.68 73.00
2081 24.8200 5197.00 5108.82 72.00
2082 24.8300 5063.00 4990.72 71.00
2083 24.8400 4953.00 4904.62 70.00
2084 24.8500 4882.00 4845.43 70.00
2085 24.8600 4894.00 4806.16 70.00
2086 24.8700 4829.00 4780.47 69.00
2087 24.8800 4850.00 4763.68 70.00
2088 24.8900 4857.00 4752.86 70.00
2089 24.9000 4811.00 4746.31 69.00
2090 24.9100 4818.00 4742.84 69.00
2091 24.9200 4831.00 4741.25 70.00
2092 24.9300 4797.00 4739.79 69.00
2093 24.9400 4777.00 4736.21 69.00
2094 24.9500 4807.00 4729.01 69.00
2095 24.9600 4757.00 4718.79 69.00
2096 24.9700 4765.00 4707.44 69.00
2097 24.9800 4719.00 4696.56 69.00
2098 24.9900 4743.00 4686.95 69.00
2099 25.0000 4719.00 4678.83 69.00
2100 25.0100 4724.00 4672.14 69.00
2101 25.0200 4674.00 4666.42 68.00
2102 25.0300 4706.00 4661.86 69.00
2103 25.0400 4703.00 4657.97 69.00
2104 25.0500 4676.00 4654.57 68.00
2105 25.0600 4678.00 4651.50 68.00
2106 25.0700 4714.00 4648.70 69.00
2107 25.0800 4684.00 4646.09 68.00
2108 25.0900 4716.00 4643.64 69.00
2109 25.1000 4647.00 4641.34 68.00
2110 25.1100 4617.00 4639.16 68.00
2111 25.1200 4648.00 4637.10 68.00
2112 25.1300 4644.00 4635.16 68.00
2113 25.1400 4662.00 4633.32 68.00
2114 25.1500 4651.00 4631.60 68.00
2115 25.1600 4672.00 4629.98 68.00
2116 25.1700 4648.00 4628.48 68.00
2117 25.1800 4662.00 4627.12 68.00
2118 25.1900 4643.00 4626.38 68.00
2119 25.2000 4607.00 4625.38 68.00
2120 25.2100 4599.00 4624.63 68.00
2121 25.2200 4609.00 4624.24 68.00
2122 25.2300 4602.00 4624.46 68.00
2123 25.2400 4635.00 4625.78 68.00
2124 25.2500 4651.00 4629.12 68.00
2125 25.2600 4641.00 4635.92 68.00
2126 25.2700 4678.00 4647.78 68.00
2127 25.2800 4687.00 4665.53 68.00
2128 25.2900 4678.00 4687.40 68.00
2129 25.3000 4728.00 4705.92 69.00
2130 25.3100 4714.00 4708.40 69.00
2131 25.3200 4670.00 4691.70 68.00
2132 25.3300 4659.00 4667.41 68.00
2133 25.3400 4667.00 4645.49 68.00
2134 25.3500 4670.00 4629.30 68.00
2135 25.3600 4634.00 4618.67 68.00
2136 25.3700 4619.00 4612.13 68.00
2137 25.3800 4614.00 4608.15 68.00
2138 25.3900 4627.00 4605.65 68.00
2139 25.4000 4589.00 4604.03 68.00
2140 25.4100 4575.00 4603.03 68.00
2141 25.4200 4588.00 4602.58 68.00
2142 25.4300 4583.00 4602.69 68.00
2143 25.4400 4583.00 4603.45 68.00
2144 25.4500 4598.00 4605.05 68.00
2145 25.4600 4545.00 4607.89 67.00
2146 25.4700 4560.00 4612.73 68.00
2147 25.4800 4586.00 4621.04 68.00
2148 25.4900 4641.00 4635.37 68.00
2149 25.5000 4624.00 4659.32 68.00
2150 25.5100 4683.00 4696.95 68.00
2151 25.5200 4719.00 4750.82 69.00
2152 25.5300 4766.00 4818.65 69.00
2153 25.5400 4854.00 4886.88 70.00
2154 25.5500 4901.00 4925.19 70.00
2155 25.5600 4852.00 4906.61 70.00
2156 25.5700 4815.00 4843.82 69.00
2157 25.5800 4725.00 4770.60 69.00
2158 25.5900 4673.00 4707.50 68.00
2159 25.6000 4630.00 4660.56 68.00
2160 25.6100 4574.00 4628.68 68.00
2161 25.6200 4530.00 4608.13 67.00
2162 25.6300 4506.00 4594.96 67.00
2163 25.6400 4510.00 4586.14 67.00
2164 25.6500 4517.00 4579.79 67.00
2165 25.6600 4495.00 4574.87 67.00
2166 25.6700 4513.00 4570.85 67.00
2167 25.6800 4473.00 4567.44 67.00
2168 25.6900 4496.00 4564.47 67.00
2169 25.7000 4507.00 4561.85 67.00
2170 25.7100 4472.00 4559.48 67.00
2171 25.7200 4500.00 4557.32 67.00
2172 25.7300 4463.00 4555.32 67.00
2173 25.7400 4477.00 4553.46 67.00
2174 25.7500 4441.00 4551.71 67.00
2175 25.7600 4444.00 4550.05 67.00
2176 25.7700 4446.00 4548.47 67.00
2177 25.7800 4439.00 4546.96 67.00
2178 25.7900 4451.00 4545.52 67.00
2179 25.8000 4436.00 4544.12 67.00
2180 25.8100 4449.00 4542.77 67.00
2181 25.8200 4426.00 4541.46 67.00
2182 25.8300 4433.00 4540.20 67.00
2183 25.8400 4444.00 4538.98 67.00
2184 25.8500 4481.00 4537.79 67.00
2185 25.8600 4417.00 4536.64 66.00
2186 25.8700 4416.00 4535.53 66.00
2187 25.8800 4432.00 4534.46 67.00
2188 25.8900 4444.00 4533.44 67.00
2189 25.9000 4418.00 4532.46 66.00
2190 25.9100 4434.00 4531.53 67.00
2191 25.9200 4446.00 4530.66 67.00
2192 25.9300 4433.00 4529.40 67.00
2193 25.9400 4453.00 4528.68 67.00
2194 25.9500 4407.00 4528.06 66.00
2195 25.9600 4442.00 4527.55 67.00
2196 25.9700 4407.00 4527.32 66.00
2197 25.9800 4415.00 4527.13 66.00
2198 25.9900 4459.00 4527.17 67.00
2199 26.0000 4406.00 4527.14 66.00
2200 26.0100 4440.00 4527.79 67.00
2201 26.0200 4466.00 4529.14 67.00
2202 26.0300 4449.00 4531.45 67.00
2203 26.0400 4430.00 4535.40 67.00
2204 26.0500 4441.00 4542.21 67.00
2205 26.0600 4461.00 4553.88 67.00
2206 26.0700 4472.00 4572.10 67.00
2207 26.0800 4507.00 4601.08 67.00
2208 26.0900 4526.00 4640.62 67.00
2209 26.1000 4558.00 4686.78 68.00
2210 26.1100 4602.00 4725.94 68.00
2211 26.1200 4608.00 4735.90 68.00
2212 26.1300 4601.00 4708.56 68.00
2213 26.1400 4567.00 4661.81 68.00
2214 26.1500 4510.00 4615.52 67.00
2215 26.1600 4458.00 4578.42 67.00
2216 26.1700 4438.00 4551.95 67.00
2217 26.1800 4416.00 4534.37 66.00
2218 26.1900 4334.00 4523.06 66.00
2219 26.2000 4444.00 4515.65 67.00
2220 26.2100 4425.00 4510.68 67.00
2221 26.2200 4361.00 4506.81 66.00
2222 26.2300 4388.00 4503.72 66.00
2223 26.2400 4415.00 4501.14 66.00
2224 26.2500 4394.00 4498.92 66.00
2225 26.2600 4410.00 4496.98 66.00
2226 26.2700 4412.00 4495.25 66.00
2227 26.2800 4373.00 4493.69 66.00
2228 26.2900 4379.00 4492.27 66.00
2229 26.3000 4394.00 4490.97 66.00
2230 26.3100 4412.00 4489.77 66.00
2231 26.3200 4380.00 4488.66 66.00
2232 26.3300 4412.00 4487.63 66.00
2233 26.3400 4377.00 4486.68 66.00
2234 26.3500 4393.00 4485.74 66.00
2235 26.3600 4387.00 4484.94 66.00
2236 26.3700 4403.00 4484.20 66.00
2237 26.3800 4413.00 4483.54 66.00
2238 26.3900 4416.00 4482.95 66.00
2239 26.4000 4387.00 4482.45 66.00
2240 26.4100 4373.00 4482.04 66.00
2241 26.4200 4389.00 4481.73 66.00
2242 26.4300 4381.00 4481.56 66.00
2243 26.4400 4413.00 4481.54 66.00
2244 26.4500 4423.00 4481.74 67.00
2245 26.4600 4374.00 4482.24 66.00
2246 26.4700 4374.00 4483.17 66.00
2247 26.4800 4388.00 4484.72 66.00
2248 26.4900 4394.00 4487.11 66.00
2249 26.5000 4413.00 4490.60 66.00
2250 26.5100 4418.00 4495.38 66.00
2251 26.5200 4398.00 4501.48 66.00
2252 26.5300 4405.00 4508.66 66.00
2253 26.5400 4413.00 4516.12 66.00
2254 26.5500 4396.00 4522.29 66.00
2255 26.5600 4453.00 4525.24 67.00
2256 26.5700 4432.00 4524.14 67.00
2257 26.5800 4420.00 4520.19 66.00
2258 26.5900 4441.00 4515.40 67.00
2259 26.6000 4440.00 4511.32 67.00
2260 26.6100 4398.00 4508.75 66.00
2261 26.6200 4418.00 4508.00 66.00
2262 26.6300 4434.00 4509.14 67.00
2263 26.6400 4411.00 4512.15 66.00
2264 26.6500 4448.00 4517.02 67.00
2265 26.6600 4419.00 4523.85 66.00
2266 26.6700 4443.00 4532.93 67.00
2267 26.6800 4449.00 4544.88 67.00
2268 26.6900 4505.00 4560.78 67.00
2269 26.7000 4472.00 4582.54 67.00
2270 26.7100 4549.00 4613.32 67.00
2271 26.7200 4563.00 4658.04 68.00
2272 26.7300 4641.00 4723.73 68.00
2273 26.7400 4733.00 4819.10 69.00
2274 26.7500 4825.00 4953.24 69.00
2275 26.7600 4982.00 5132.44 71.00
2276 26.7700 5235.00 5355.09 72.00
2277 26.7800 5472.00 5605.69 74.00
2278 26.7900 5718.00 5841.18 76.00
2279 26.8000 5905.00 5988.73 77.00
2280 26.8100 5912.00 5989.04 77.00
2281 26.8200 5754.00 5855.02 76.00
2282 26.8300 5495.00 5651.98 74.00
2283 26.8400 5285.00 5442.99 73.00
2284 26.8500 5106.00 5266.58 71.00
2285 26.8600 5022.00 5138.89 71.00
2286 26.8700 4998.00 5061.19 71.00
2287 26.8800 4984.00 5024.88 71.00
2288 26.8900 4973.00 5013.60 71.00
2289 26.9000 4987.00 5004.63 71.00
2290 26.9100 4977.00 4975.91 71.00
2291 26.9200 4930.00 4919.59 70.00
2292 26.9300 4815.00 4845.17 69.00
2293 26.9400 4705.00 4767.29 69.00
2294 26.9500 4636.00 4696.43 68.00
2295 26.9600 4573.00 4637.01 68.00
2296 26.9700 4506.00 4589.94 67.00
2297 26.9800 4487.00 4554.24 67.00
2298 26.9900 4471.00 4527.91 67.00
2299 27.0000 4424.00 4508.76 67.00
2300 27.0100 4463.00 4494.78 67.00
2301 27.0200 4415.00 4484.38 66.00
2302 27.0300 4431.00 4476.46 67.00
2303 27.0400 4430.00 4470.26 67.00
2304 27.0500 4392.00 4465.39 66.00
2305 27.0600 4367.00 4461.57 66.00
2306 27.0700 4402.00 4458.64 66.00
2307 27.0800 4386.00 4456.55 66.00
2308 27.0900 4400.00 4455.30 66.00
2309 27.1000 4416.00 4454.98 66.00
2310 27.1100 4407.00 4455.85 66.00
2311 27.1200 4377.00 4458.38 66.00
2312 27.1300 4409.00 4463.39 66.00
2313 27.1400 4445.00 4472.04 67.00
2314 27.1500 4395.00 4485.64 66.00
2315 27.1600 4445.00 4505.11 67.00
2316 27.1700 4476.00 4530.11 67.00
2317 27.1800 4454.00 4557.21 67.00
2318 27.1900 4471.00 4577.73 67.00
2319 27.2000 4512.00 4581.48 67.00
2320 27.2100 4502.00 4568.86 67.00
2321 27.2200 4478.00 4550.50 67.00
2322 27.2300 4494.00 4535.31 67.00
2323 27.2400 4426.00 4526.94 67.00
2324 27.2500 4456.00 4526.05 67.00
2325 27.2600 4453.00 4532.12 67.00
2326 27.2700 4458.00 4544.62 67.00
2327 27.2800 4526.00 4564.03 67.00
2328 27.2900 4520.00 4592.40 67.00
2329 27.3000 4553.00 4633.35 67.00
2330 27.3100 4602.00 4691.69 68.00
2331 27.3200 4657.00 4773.37 68.00
2332 27.3300 4762.00 4885.04 69.00
2333 27.3400 4931.00 5032.69 70.00
2334 27.3500 5083.00 5218.12 71.00
2335 27.3600 5292.00 5437.52 73.00
2336 27.3700 5544.00 5686.51 74.00
2337 27.3800 5865.00 5960.86 77.00
2338 27.3900 6170.00 6232.22 79.00
2339 27.4000 6337.00 6417.78 80.00
2340 27.4100 6358.00 6410.98 80.00
2341 27.4200 6044.00 6191.60 78.00
2342 27.4300 5676.00 5854.86 75.00
2343 27.4400 5264.00 5508.44 73.00
2344 27.4500 4974.00 5210.34 71.00
2345 27.4600 4774.00 4978.61 69.00
2346 27.4700 4625.00 4810.26 68.00
2347 27.4800 4539.00 4693.76 67.00
2348 27.4900 4479.00 4614.98 67.00
2349 27.5000 4436.00 4561.52 67.00
2350 27.5100 4403.00 4524.12 66.00
2351 27.5200 4386.00 4496.76 66.00
2352 27.5300 4404.00 4475.77 66.00
2353 27.5400 4399.00 4459.04 66.00
2354 27.5500 4418.00 4445.33 66.00
2355 27.5600 4403.00 4433.88 66.00
2356 27.5700 4381.00 4424.16 66.00
2357 27.5800 4388.00 4415.83 66.00
2358 27.5900 4344.00 4408.62 66.00
2359 27.6000 4358.00 4402.31 66.00
2360 27.6100 4370.00 4396.76 66.00
2361 27.6200 4307.00 4391.83 66.00
2362 27.6300 4343.00 4387.51 66.00
2363 27.6400 4356.00 4383.54 66.00
2364 27.6500 4352.00 4379.96 66.00
2365 27.6600 4327.00 4376.71 66.00
2366 27.6700 4363.00 4373.73 66.00
2367 27.6800 4353.00 4371.01 66.00
2368 27.6900 4321.00 4368.51 66.00
2369 27.7000 4353.00 4366.20 66.00
2370 27.7100 4352.00 4364.07 66.00
2371 27.7200 4322.00 4362.10 66.00
2372 27.7300 4351.00 4360.28 66.00
2373 27.7400 4355.00 4358.58 66.00
2374 27.7500 4346.00 4357.01 66.00
2375 27.7600 4354.00 4355.53 66.00
2376 27.7700 4390.00 4354.14 66.00
2377 27.7800 4327.00 4352.81 66.00
2378 27.7900 4335.00 4351.56 66.00
2379 27.8000 4321.00 4350.39 66.00
2380 27.8100 4329.00 4349.35 66.00
2381 27.8200 4311.00 4348.36 66.00
2382 27.8300 4320.00 4347.45 66.00
2383 27.8400 4305.00 4346.65 66.00
2384 27.8500 4341.00 4345.94 66.00
2385 27.8600 4367.00 4345.35 66.00
2386 27.8700 4352.00 4345.01 66.00
2387 27.8800 4372.00 4344.65 66.00
2388 27.8900 4335.00 4344.42 66.00
2389 27.9000 4321.00 4344.34 66.00
2390 27.9100 4354.00 4344.46 66.00
2391 27.9200 4333.00 4344.83 66.00
2392 27.9300 4356.00 4345.52 66.00
2393 27.9400 4343.00 4346.62 66.00
2394 27.9500 4353.00 4348.26 66.00
2395 27.9600 4322.00 4350.51 66.00
2396 27.9700 4321.00 4353.36 66.00
2397 27.9800 4351.00 4356.65 66.00
2398 27.9900 4355.00 4359.94 66.00
2399 28.0000 4396.00 4363.01 66.00
2400 28.0100 4385.00 4366.51 66.00
2401 28.0200 4387.00 4371.66 66.00
2402 28.0300 4390.00 4379.91 66.00
2403 28.0400 4363.00 4392.93 66.00
2404 28.0500 4418.00 4412.97 66.00
2405 28.0600 4453.00 4442.54 67.00
2406 28.0700 4477.00 4483.96 67.00
2407 28.0800 4508.00 4538.39 67.00
2408 28.0900 4600.00 4603.73 68.00
2409 28.1000 4681.00 4671.68 68.00
2410 28.1100 4729.00 4726.73 69.00
2411 28.1200 4752.00 4754.40 69.00
2412 28.1300 4805.00 4750.88 69.00
2413 28.1400 4708.00 4721.45 69.00
2414 28.1500 4690.00 4678.52 68.00
2415 28.1600 4631.00 4637.77 68.00
2416 28.1700 4562.00 4609.60 68.00
2417 28.1800 4577.00 4596.17 68.00
2418 28.1900 4622.00 4592.83 68.00
2419 28.2000 4558.00 4590.30 68.00
2420 28.2100 4584.00 4578.50 68.00
2421 28.2200 4526.00 4552.97 67.00
2422 28.2300 4500.00 4517.69 67.00
2423 28.2400 4491.00 4480.07 67.00
2424 28.2500 4471.00 4445.66 67.00
2425 28.2600 4412.00 4416.76 66.00
2426 28.2700 4396.00 4394.04 66.00
2427 28.2800 4354.00 4377.07 66.00
2428 28.2900 4342.00 4364.87 66.00
2429 28.3000 4352.00 4356.38 66.00
2430 28.3100 4350.00 4350.61 66.00
2431 28.3200 4311.00 4346.83 66.00
2432 28.3300 4355.00 4344.53 66.00
2433 28.3400 4357.00 4343.42 66.00
2434 28.3500 4359.00 4343.36 66.00
2435 28.3600 4362.00 4344.27 66.00
2436 28.3700 4374.00 4346.09 66.00
2437 28.3800 4345.00 4348.50 66.00
2438 28.3900 4381.00 4351.04 66.00
2439 28.4000 4385.00 4353.10 66.00
2440 28.4100 4353.00 4354.55 66.00
2441 28.4200 4358.00 4355.98 66.00
2442 28.4300 4375.00 4358.12 66.00
2443 28.4400 4371.00 4361.41 66.00
2444 28.4500 4386.00 4366.16 66.00
2445 28.4600 4421.00 4372.65 66.00
2446 28.4700 4417.00 4381.25 66.00
2447 28.4800 4459.00 4392.56 67.00
2448 28.4900 4441.00 4407.55 67.00
2449 28.5000 4459.00 4427.68 67.00
2450 28.5100 4470.00 4455.04 67.00
2451 28.5200 4496.00 4492.40 67.00
2452 28.5300 4549.00 4543.56 67.00
2453 28.5400 4615.00 4611.68 68.00
2454 28.5500 4682.00 4701.53 68.00
2455 28.5600 4758.00 4818.08 69.00
2456 28.5700 4925.00 4966.96 70.00
2457 28.5800 5133.00 5152.97 72.00
2458 28.5900 5377.00 5375.93 73.00
2459 28.6000 5670.00 5624.44 75.00
2460 28.6100 5955.00 5872.66 77.00
2461 28.6200 6113.00 6072.11 78.00
2462 28.6300 6216.00 6136.71 79.00
2463 28.6400 6044.00 6006.96 78.00
2464 28.6500 5723.00 5756.93 76.00
2465 28.6600 5455.00 5505.58 74.00
2466 28.6700 5275.00 5311.08 73.00
2467 28.6800 5145.00 5178.85 72.00
2468 28.6900 5100.00 5086.94 71.00
2469 28.7000 5005.00 5005.82 71.00
2470 28.7100 4939.00 4917.35 70.00
2471 28.7200 4853.00 4821.91 70.00
2472 28.7300 4780.00 4728.99 69.00
2473 28.7400 4679.00 4646.85 68.00
2474 28.7500 4629.00 4579.71 68.00
2475 28.7600 4572.00 4528.72 68.00
2476 28.7700 4554.00 4492.89 67.00
2477 28.7800 4528.00 4469.57 67.00
2478 28.7900 4519.00 4454.17 67.00
2479 28.8000 4475.00 4440.40 67.00
2480 28.8100 4461.00 4423.59 67.00
2481 28.8200 4432.00 4404.39 67.00
2482 28.8300 4406.00 4386.24 66.00
2483 28.8400 4469.00 4371.50 67.00
2484 28.8500 4403.00 4361.12 66.00
2485 28.8600 4388.00 4355.46 66.00
2486 28.8700 4403.00 4354.80 66.00
2487 28.8800 4391.00 4359.53 66.00
2488 28.8900 4387.00 4370.04 66.00
2489 28.9000 4431.00 4386.48 67.00
2490 28.9100 4458.00 4408.02 67.00
2491 28.9200 4464.00 4431.80 67.00
2492 28.9300 4499.00 4451.39 67.00
2493 28.9400 4471.00 4457.76 67.00
2494 28.9500 4478.00 4446.16 67.00
2495 28.9600 4465.00 4421.39 67.00
2496 28.9700 4434.00 4392.38 67.00
2497 28.9800 4399.00 4365.33 66.00
2498 28.9900 4364.00 4342.91 66.00
2499 29.0000 4369.00 4325.61 66.00
2500 29.0100 4346.00 4312.88 66.00
2501 29.0200 4358.00 4303.77 66.00
2502 29.0300 4370.00 4297.10 66.00
2503 29.0400 4319.00 4292.36 66.00
2504 29.0500 4328.00 4288.76 66.00
2505 29.0600 4334.00 4285.91 66.00
2506 29.0700 4327.00 4283.58 66.00
2507 29.0800 4352.00 4281.60 66.00
2508 29.0900 4326.00 4279.90 66.00
2509 29.1000 4297.00 4278.41 66.00
2510 29.1100 4334.00 4277.11 66.00
2511 29.1200 4346.00 4275.96 66.00
2512 29.1300 4285.00 4274.94 65.00
2513 29.1400 4337.00 4274.03 66.00
2514 29.1500 4335.00 4273.22 66.00
2515 29.1600 4315.00 4272.51 66.00
2516 29.1700 4307.00 4271.89 66.00
2517 29.1800 4294.00 4271.34 66.00
2518 29.1900 4304.00 4270.87 66.00
2519 29.2000 4281.00 4270.48 65.00
2520 29.2100 4318.00 4270.13 66.00
2521 29.2200 4290.00 4270.13 65.00
2522 29.2300 4309.00 4269.97 66.00
2523 29.2400 4260.00 4269.89 65.00
2524 29.2500 4264.00 4269.89 65.00
2525 29.2600 4310.00 4269.99 66.00
2526 29.2700 4325.00 4270.19 66.00
2527 29.2800 4317.00 4270.65 66.00
2528 29.2900 4321.00 4271.10 66.00
2529 29.3000 4331.00 4271.70 66.00
2530 29.3100 4303.00 4272.49 66.00
2531 29.3200 4310.00 4273.50 66.00
2532 29.3300 4320.00 4274.76 66.00
2533 29.3400 4305.00 4276.35 66.00
2534 29.3500 4308.00 4278.35 66.00
2535 29.3600 4330.00 4280.88 66.00
2536 29.3700 4321.00 4284.12 66.00
2537 29.3800 4328.00 4288.31 66.00
2538 29.3900 4309.00 4293.91 66.00
2539 29.4000 4321.00 4301.60 66.00
2540 29.4100 4349.00 4312.66 66.00
2541 29.4200 4338.00 4329.34 66.00
2542 29.4300 4391.00 4355.27 66.00
2543 29.4400 4438.00 4395.57 67.00
2544 29.4500 4481.00 4455.77 67.00
2545 29.4600 4557.00 4539.12 68.00
2546 29.4700 4667.00 4641.10 68.00
2547 29.4800 4778.00 4739.54 69.00
2548 29.4900 4787.00 4787.55 69.00
2549 29.5000 4730.00 4750.80 69.00
2550 29.5100 4725.00 4656.28 69.00
2551 29.5200 4564.00 4553.16 68.00
2552 29.5300 4499.00 4467.36 67.00
2553 29.5400 4418.00 4405.09 66.00
2554 29.5500 4361.00 4363.73 66.00
2555 29.5600 4339.00 4337.82 66.00
2556 29.5700 4324.00 4322.05 66.00
2557 29.5800 4341.00 4312.91 66.00
2558 29.5900 4303.00 4308.20 66.00
2559 29.6000 4310.00 4307.16 66.00
2560 29.6100 4334.00 4310.16 66.00
2561 29.6200 4330.00 4318.61 66.00
2562 29.6300 4394.00 4334.66 66.00
2563 29.6400 4366.00 4360.18 66.00
2564 29.6500 4442.00 4396.43 67.00
2565 29.6600 4501.00 4439.15 67.00
2566 29.6700 4501.00 4474.53 67.00
2567 29.6800 4571.00 4480.93 68.00
2568 29.6900 4545.00 4452.97 67.00
2569 29.7000 4459.00 4409.70 67.00
2570 29.7100 4425.00 4369.20 67.00
2571 29.7200 4393.00 4338.36 66.00
2572 29.7300 4376.00 4317.86 66.00
2573 29.7400 4359.00 4305.91 66.00
2574 29.7500 4357.00 4300.31 66.00
2575 29.7600 4332.00 4299.36 66.00
2576 29.7700 4335.00 4302.07 66.00
2577 29.7800 4319.00 4307.89 66.00
2578 29.7900 4352.00 4316.25 66.00
2579 29.8000 4369.00 4325.83 66.00
2580 29.8100 4363.00 4334.13 66.00
2581 29.8200 4375.00 4337.43 66.00
2582 29.8300 4370.00 4333.84 66.00
2583 29.8400 4325.00 4325.37 66.00
2584 29.8500 4341.00 4315.68 66.00
2585 29.8600 4328.00 4307.14 66.00
2586 29.8700 4343.00 4300.75 66.00
2587 29.8800 4326.00 4296.67 66.00
2588 29.8900 4326.00 4294.71 66.00
2589 29.9000 4363.00 4294.56 66.00
2590 29.9100 4358.00 4295.92 66.00
2591 29.9200 4367.00 4298.59 66.00
2592 29.9300 4387.00 4302.53 66.00
2593 29.9400 4386.00 4307.83 66.00
2594 29.9500 4380.00 4314.79 66.00
2595 29.9600 4387.00 4323.97 66.00
2596 29.9700 4415.00 4336.36 66.00
2597 29.9800 4422.00 4353.67 66.00
2598 29.9900 4460.00 4378.66 67.00
2599 30.0000 4445.00 4415.38 67.00
2600 30.0100 4516.00 4468.91 67.00
2601 30.0200 4569.00 4544.62 68.00
2602 30.0300 4672.00 4646.31 68.00
2603 30.0400 4798.00 4773.04 69.00
2604 30.0500 4913.00 4912.91 70.00
2605 30.0600 5010.00 5035.45 71.00
2606 30.0700 5082.00 5097.35 71.00
2607 30.0800 5070.00 5083.05 71.00
2608 30.0900 5059.00 5027.08 71.00
2609 30.1000 5029.00 4977.29 71.00
2610 30.1100 4991.00 4959.68 71.00
2611 30.1200 4986.00 4967.81 71.00
2612 30.1300 4966.00 4959.57 70.00
2613 30.1400 4924.00 4888.91 70.00
2614 30.1500 4801.00 4766.85 69.00
2615 30.1600 4719.00 4639.51 69.00
2616 30.1700 4623.00 4534.33 68.00
2617 30.1800 4524.00 4457.45 67.00
2618 30.1900 4469.00 4405.29 67.00
2619 30.2000 4447.00 4371.36 67.00
2620 30.2100 4392.00 4349.43 66.00
2621 30.2200 4384.00 4334.93 66.00
2622 30.2300 4381.00 4324.90 66.00
2623 30.2400 4380.00 4317.87 66.00
2624 30.2500 4339.00 4313.05 66.00
2625 30.2600 4361.00 4310.13 66.00
2626 30.2700 4352.00 4308.97 66.00
2627 30.2800 4361.00 4309.60 66.00
2628 30.2900 4372.00 4312.06 66.00
2629 30.3000 4356.00 4316.36 66.00
2630 30.3100 4352.00 4322.39 66.00
2631 30.3200 4336.00 4329.76 66.00
2632 30.3300 4404.00 4337.60 66.00
2633 30.3400 4415.00 4344.51 66.00
2634 30.3500 4398.00 4348.96 66.00
2635 30.3600 4370.00 4350.58 66.00
2636 30.3700 4420.00 4351.03 66.00
2637 30.3800 4402.00 4353.32 66.00
2638 30.3900 4393.00 4360.77 66.00
2639 30.4000 4416.00 4376.12 66.00
2640 30.4100 4428.00 4401.05 67.00
2641 30.4200 4453.00 4435.08 67.00
2642 30.4300 4490.00 4472.89 67.00
2643 30.4400 4501.00 4501.23 67.00
2644 30.4500 4537.00 4504.02 67.00
2645 30.4600 4520.00 4479.98 67.00
2646 30.4700 4477.00 4443.77 67.00
2647 30.4800 4419.00 4407.96 66.00
2648 30.4900 4433.00 4378.07 67.00
2649 30.5000 4412.00 4355.31 66.00
2650 30.5100 4394.00 4339.71 66.00
2651 30.5200 4411.00 4330.27 66.00
2652 30.5300 4412.00 4325.30 66.00
2653 30.5400 4398.00 4322.66 66.00
2654 30.5500 4350.00 4320.22 66.00
2655 30.5600 4376.00 4317.25 66.00
2656 30.5700 4365.00 4314.51 66.00
2657 30.5800 4377.00 4312.87 66.00
2658 30.5900 4402.00 4312.65 66.00
2659 30.6000 4372.00 4313.95 66.00
2660 30.6100 4360.00 4316.76 66.00
2661 30.6200 4376.00 4321.12 66.00
2662 30.6300 4372.00 4327.15 66.00
2663 30.6400 4398.00 4335.07 66.00
2664 30.6500 4407.00 4345.17 66.00
2665 30.6600 4407.00 4357.85 66.00
2666 30.6700 4376.00 4373.57 66.00
2667 30.6800 4430.00 4392.83 67.00
2668 30.6900 4479.00 4416.31 67.00
2669 30.7000 4473.00 4444.77 67.00
2670 30.7100 4544.00 4479.38 67.00
2671 30.7200 4533.00 4522.30 67.00
2672 30.7300 4561.00 4577.60 68.00
2673 30.7400 4644.00 4650.72 68.00
2674 30.7500 4691.00 4747.03 68.00
2675 30.7600 4832.00 4869.30 70.00
2676 30.7700 5020.00 5014.62 71.00
2677 30.7800 5122.00 5170.11 72.00
2678 30.7900 5317.00 5309.43 73.00
2679 30.8000 5443.00 5401.77 74.00
2680 30.8100 5485.00 5433.80 74.00
2681 30.8200 5513.00 5416.55 74.00
2682 30.8300 5470.00 5363.30 74.00
2683 30.8400 5325.00 5274.51 73.00
2684 30.8500 5185.00 5150.36 72.00
2685 30.8600 5028.00 5005.60 71.00
2686 30.8700 4887.00 4862.07 70.00
2687 30.8800 4745.00 4735.29 69.00
2688 30.8900 4632.00 4631.39 68.00
2689 30.9000 4530.00 4550.43 67.00
2690 30.9100 4495.00 4489.59 67.00
2691 30.9200 4414.00 4445.12 66.00
2692 30.9300 4424.00 4413.13 67.00
2693 30.9400 4415.00 4390.26 66.00
2694 30.9500 4382.00 4373.86 66.00
2695 30.9600 4323.00 4362.00 66.00
2696 30.9700 4384.00 4353.38 66.00
2697 30.9800 4348.00 4347.19 66.00
2698 30.9900 4354.00 4342.93 66.00
2699 31.0000 4363.00 4340.36 66.00
2700 31.0100 4349.00 4339.39 66.00
2701 31.0200 4357.00 4340.05 66.00
2702 31.0300 4373.00 4342.53 66.00
2703 31.0400 4385.00 4347.22 66.00
2704 31.0500 4409.00 4354.84 66.00
2705 31.0600 4424.00 4366.76 67.00
2706 31.0700 4418.00 4385.45 66.00
2707 31.0800 4459.00 4415.17 67.00
2708 31.0900 4485.00 4462.20 67.00
2709 31.1000 4592.00 4534.02 68.00
2710 31.1100 4677.00 4636.66 68.00
2711 31.1200 4804.00 4769.67 69.00
2712 31.1300 4930.00 4915.36 70.00
2713 31.1400 4995.00 5023.10 71.00
2714 31.1500 5015.00 5026.95 71.00
2715 31.1600 4957.00 4926.57 70.00
2716 31.1700 4813.00 4789.14 69.00
2717 31.1800 4681.00 4668.44 68.00
2718 31.1900 4629.00 4584.12 68.00
2719 31.2000 4528.00 4537.12 67.00
2720 31.2100 4512.00 4520.55 67.00
2721 31.2200 4558.00 4524.53 68.00
2722 31.2300 4526.00 4537.17 67.00
2723 31.2400 4584.00 4545.30 68.00
2724 31.2500 4558.00 4539.31 68.00
2725 31.2600 4544.00 4520.07 67.00
2726 31.2700 4500.00 4496.73 67.00
2727 31.2800 4475.00 4478.31 67.00
2728 31.2900 4435.00 4469.59 67.00
2729 31.3000 4463.00 4471.59 67.00
2730 31.3100 4477.00 4481.76 67.00
2731 31.3200 4439.00 4493.59 67.00
2732 31.3300 4473.00 4497.06 67.00
2733 31.3400 4412.00 4484.85 66.00
2734 31.3500 4422.00 4458.68 66.00
2735 31.3600 4401.00 4426.55 66.00
2736 31.3700 4385.00 4395.37 66.00
2737 31.3800 4322.00 4368.81 66.00
2738 31.3900 4312.00 4347.79 66.00
2739 31.4000 4328.00 4332.03 66.00
2740 31.4100 4278.00 4320.62 65.00
2741 31.4200 4298.00 4312.70 66.00
2742 31.4300 4292.00 4307.26 66.00
2743 31.4400 4270.00 4303.56 65.00
2744 31.4500 4285.00 4301.08 65.00
2745 31.4600 4256.00 4299.37 65.00
2746 31.4700 4283.00 4298.48 65.00
2747 31.4800 4264.00 4298.19 65.00
2748 31.4900 4267.00 4298.45 65.00
2749 31.5000 4232.00 4299.24 65.00
2750 31.5100 4249.00 4300.57 65.00
2751 31.5200 4281.00 4302.49 65.00
2752 31.5300 4254.00 4305.05 65.00
2753 31.5400 4281.00 4308.34 65.00
2754 31.5500 4306.00 4312.51 66.00
2755 31.5600 4271.00 4317.74 65.00
2756 31.5700 4284.00 4324.45 65.00
2757 31.5800 4288.00 4333.17 65.00
2758 31.5900 4314.00 4344.80 66.00
2759 31.6000 4352.00 4360.79 66.00
2760 31.6100 4368.00 4383.36 66.00
2761 31.6200 4360.00 4415.65 66.00
2762 31.6300 4400.00 4461.57 66.00
2763 31.6400 4458.00 4525.34 67.00
2764 31.6500 4554.00 4610.47 67.00
2765 31.6600 4640.00 4717.85 68.00
2766 31.6700 4763.00 4842.74 69.00
2767 31.6800 4885.00 4969.06 70.00
2768 31.6900 4985.00 5066.46 71.00
2769 31.7000 5005.00 5105.43 71.00
2770 31.7100 5020.00 5088.07 71.00
2771 31.7200 4956.00 5047.91 70.00
2772 31.7300 4992.00 5016.48 71.00
2773 31.7400 4921.00 5001.53 70.00
2774 31.7500 4942.00 4984.34 70.00
2775 31.7600 4922.00 4934.26 70.00
2776 31.7700 4838.00 4841.90 70.00
2777 31.7800 4704.00 4729.14 69.00
2778 31.7900 4613.00 4621.66 68.00
2779 31.8000 4492.00 4532.25 67.00
2780 31.8100 4462.00 4463.33 67.00
2781 31.8200 4418.00 4412.78 66.00
2782 31.8300 4360.00 4376.87 66.00
2783 31.8400 4313.00 4351.66 66.00
2784 31.8500 4320.00 4333.85 66.00
2785 31.8600 4290.00 4321.04 65.00
2786 31.8700 4300.00 4311.67 66.00
2787 31.8800 4284.00 4304.84 65.00
2788 31.8900 4267.00 4300.06 65.00
2789 31.9000 4291.00 4297.08 66.00
2790 31.9100 4248.00 4295.71 65.00
2791 31.9200 4273.00 4295.71 65.00
2792 31.9300 4288.00 4296.69 65.00
2793 31.9400 4290.00 4297.90 65.00
2794 31.9500 4275.00 4298.17 65.00
2795 31.9600 4315.00 4296.26 66.00
2796 31.9700 4279.00 4291.78 65.00
2797 31.9800 4245.00 4285.49 65.00
2798 31.9900 4250.00 4278.59 65.00
2799 32.0000 4247.00 4271.97 65.00
2800 32.0100 4230.00 4266.08 65.00
2801 32.0200 4262.00 4261.05 65.00
2802 32.0300 4238.00 4256.77 65.00
2803 32.0400 4238.00 4253.32 65.00
2804 32.0500 4261.00 4250.46 65.00
2805 32.0600 4227.00 4248.05 65.00
2806 32.0700 4198.00 4245.96 65.00
2807 32.0800 4227.00 4244.10 65.00
2808 32.0900 4219.00 4242.40 65.00
2809 32.1000 4201.00 4240.83 65.00
2810 32.1100 4233.00 4239.43 65.00
2811 32.1200 4207.00 4238.02 65.00
2812 32.1300 4204.00 4236.66 65.00
2813 32.1400 4234.00 4235.33 65.00
2814 32.1500 4255.00 4234.06 65.00
2815 32.1600 4175.00 4232.81 65.00
2816 32.1700 4214.00 4231.59 65.00
2817 32.1800 4207.00 4230.39 65.00
2818 32.1900 4212.00 4229.21 65.00
2819 32.2000 4198.00 4228.05 65.00
2820 32.2100 4224.00 4226.89 65.00
2821 32.2200 4185.00 4225.76 65.00
loop_
_pd_proc_info_excluded_regions
'from 0.01 to 4.010'
'from 32.23 to 78.058'
loop_
_refln_index_h
_refln_index_k
_refln_index_l
_refln_F_squared_calc
_refln_F_squared_meas
_refln_F_squared_sigma
_refln_observed_status
_refln_d_spacing
0 2 0 751.19 651.25 7.56 o 5.859389
1 1 0 1479.46 1443.40 11.43 o 4.036636
0 2 1 1773.99 1655.43 14.86 o 3.474397
1 1 1 31361.75 31337.82 40.43 o 2.947764
0 4 0 55280.89 55221.64 98.11 o 2.929694
1 3 0 5.45 4.16 0.11 o 2.891277
0 4 1 2003.73 1969.62 19.23 o 2.423780
1 3 1 16022.95 15959.07 38.58 o 2.401891
0 0 2 40334.29 40468.40 109.19 o 2.157394
2 0 0 34951.08 34848.59 94.36 o 2.149888
1 5 0 3873.39 3936.88 44.49 o 2.057890
0 2 2 340.55 435.45 22.67 o 2.024525
2 2 0 308.38 390.16 21.04 o 2.018318
0 6 0 2418.40 2579.33 75.46 o 1.953130
1 1 2 386.93 574.98 21.99 o 1.902697
1 5 1 20819.48 20752.76 58.82 o 1.857448
2 2 1 239.51 265.15 11.87 o 1.828194
0 6 1 1574.87 1769.09 47.06 o 1.779326
0 4 2 25169.96 24717.92 73.66 o 1.737199
2 4 0 21789.28 21316.46 64.41 o 1.733273
1 3 2 25.01 24.19 0.10 o 1.729086
2 4 1 962.29 846.47 29.04 o 1.608356
1 7 0 91.83 0.00 0.00 < 1.560037
2 0 2 17256.66 17670.11 107.98 o 1.522847
1 5 2 1626.45 1591.42 37.58 o 1.489083
2 2 2 176.24 138.66 6.45 o 1.473882
1 7 1 2793.83 2772.23 24.19 o 1.467090
0 8 0 13191.28 13232.92 117.03 o 1.464847
0 6 2 1395.57 1285.13 41.70 o 1.447914
2 6 0 1264.76 1174.99 37.95 o 1.445639
3 1 0 29.10 9.72 6.47 < 1.422658
0 2 3 49.98 63.62 9.57 o 1.396798
0 8 1 2401.76 2451.40 83.00 o 1.387091
2 6 1 354.53 470.22 27.43 o 1.370749
1 1 3 7512.73 7487.28 31.17 o 1.354833
2 4 2 11198.68 11298.63 46.50 o 1.351208
3 1 1 5714.63 5757.47 23.15 o 1.351110
3 3 0 114.62 120.44 0.80 o 1.345545
0 4 3 626.79 590.07 8.51 o 1.291073
1 3 3 3821.53 3648.74 40.52 o 1.287733
3 3 1 2844.26 2735.29 31.72 o 1.284535
1 7 2 145.37 208.51 35.27 o 1.264156
1 9 0 3036.91 3370.08 115.34 o 1.246199
3 5 0 480.14 728.59 75.14 o 1.222750
0 8 2 6828.24 6947.36 81.38 o 1.211890
2 8 0 5883.43 5990.74 70.21 o 1.210555
2 6 2 770.93 785.13 11.10 o 1.200946
1 9 1 6449.63 6596.44 71.35 o 1.197263
3 1 2 0.92 1.32 0.14 o 1.187673
1 5 3 5930.86 6186.46 54.07 o 1.178879
3 5 1 4558.86 4750.67 41.47 o 1.176424
0 10 0 1484.60 1551.41 43.33 o 1.171878
2 2 3 1.87 1.96 0.10 o 1.171293
2 8 1 1294.67 1384.07 56.12 o 1.165551
0 6 3 140.39 201.49 30.09 o 1.158132
3 3 2 125.90 132.19 26.48 o 1.141692
0 10 1 999.56 849.25 105.94 o 1.130909
2 4 3 342.24 133.32 47.93 < 1.106827
3 7 0 169.27 5.35 9.97 < 1.088755
1 9 2 1585.67 1415.74 38.28 o 1.079104
0 0 4 5841.27 5242.51 137.14 o 1.078697
4 0 0 3403.35 3060.59 102.39 o 1.074944
3 5 2 217.91 115.75 29.67 o 1.063772
0 2 4 73.39 62.72 2.60 o 1.060869
1 7 3 659.30 596.78 13.25 o 1.057439
4 2 0 49.31 44.39 0.98 o 1.057299
2 8 2 3175.18 2844.97 63.00 o 1.055712
3 7 1 462.81 413.66 9.14 o 1.055666
1 1 4 0.01 0.00 0.03 < 1.042129
1 11 0 24.67 23.81 5.83 o 1.034076
0 10 2 930.44 921.76 68.08 o 1.029764
2 10 0 843.70 832.93 59.29 o 1.028945
4 2 1 39.28 38.93 2.86 o 1.026918
0 8 3 882.04 871.66 65.50 o 1.026275
2 6 3 19.09 22.88 5.52 o 1.019603
0 4 4 3894.18 3924.58 83.49 o 1.012262
3 1 3 1786.52 1798.54 39.43 o 1.011443
1 3 4 108.68 109.76 2.34 o 1.010650
4 4 0 2255.19 2294.16 50.10 o 1.009159
1 11 1 117.94 134.01 11.70 o 1.005600
2 10 1 361.56 449.51 49.45 o 1.000880
4 4 1 154.64 162.57 12.26 o 0.982641
3 3 3 845.65 887.38 61.66 o 0.982588
0 12 0 1576.83 2053.99 264.27 o 0.976565
3 7 2 143.46 204.55 38.36 o 0.971993
2 0 4 2908.73 2975.88 114.80 o 0.964142
3 9 0 627.45 646.91 24.31 o 0.963759
4 0 2 1952.66 2010.69 82.45 o 0.962128
1 5 4 154.53 181.70 24.62 o 0.955400
0 12 1 930.25 1078.26 140.32 o 0.952474
2 2 4 41.84 48.48 6.42 o 0.951349
4 2 2 31.03 42.38 9.08 o 0.949414
0 6 4 334.48 344.13 11.63 o 0.944256
1 9 3 2103.49 2161.78 62.57 o 0.941835
4 6 0 224.88 231.25 6.67 o 0.941736
3 9 1 1622.61 1665.76 48.53 o 0.940582
1 11 2 33.70 34.68 1.85 o 0.932492
3 5 3 1520.74 1562.38 81.78 o 0.931589
2 10 2 534.54 535.04 32.48 o 0.928724
2 8 3 494.06 453.04 50.93 o 0.926162
4 6 1 0.64 0.47 0.12 o 0.920076
2 4 4 1946.90 1768.38 69.61 o 0.915824
4 4 2 1300.79 1193.41 47.90 o 0.914097
0 10 3 206.47 137.57 54.45 < 0.908493
