#------------------------------------------------------------------------------
#$Date: 2016-06-17 04:50:27 +0300 (Fri, 17 Jun 2016) $
#$Revision: 183633 $
#$URL: file:///home/coder/svn-repositories/cod/cif/2/10/75/2107513.cif $
#------------------------------------------------------------------------------
#
# This file is available in the Crystallography Open Database (COD),
# http://www.crystallography.net/. The original data for this entry
# were provided by IUCr Journals, http://journals.iucr.org/.
#
# The file may be used within the scientific community so long as
# proper attribution is given to the journal article from which the
# data were obtained.
#
data_2107513
loop_
_publ_author_name
'Sist, Mattia'
'Zhang, Jiawei'
'Brummerstedt Iversen, Bo'
_publ_section_title
;
 Crystal structure and phase transition of thermoelectric SnSe
;
_journal_coeditor_code           GW5043
_journal_issue                   3
_journal_name_full               'Acta Crystallographica Section B'
_journal_page_first              310
_journal_page_last               316
_journal_paper_doi               10.1107/S2052520616003334
_journal_volume                  72
_journal_year                    2016
_chemical_formula_moiety         'Se1 Sn0.9816'
_chemical_formula_sum            'Se Sn0.9816'
_chemical_formula_weight         195.50
_chemical_name_common            'Tin Selenide'
_space_group_IT_number           62
_symmetry_cell_setting           orthorhombic
_symmetry_Int_Tables_number      62
_symmetry_space_group_name_Hall  '-P 2ac 2n'
_symmetry_space_group_name_H-M   'P n m a'
_cell_angle_alpha                90
_cell_angle_beta                 90
_cell_angle_gamma                90
_cell_formula_units_Z            4
_cell_length_a                   11.51965(14)
_cell_length_b                   4.16265(6)
_cell_length_c                   4.43427(8)
_cell_measurement_temperature    380(5)
_cell_volume                     212.633(6)
_computing_structure_refinement  'Jana2006, (Petricek,2014)'
_diffrn_ambient_temperature      380(5)
_diffrn_detector_type            'Image plate'
_diffrn_measurement_device_type  BL44B2
_diffrn_radiation_probe          x-ray
_diffrn_radiation_type           Synchrotron,monochromatic
_diffrn_radiation_wavelength     0.50021
_diffrn_source_type              'Spring8, BL44B2 beamline'
_exptl_absorpt_coefficient_mu    11.178
_exptl_absorpt_correction_type   none
_exptl_crystal_density_diffrn    6.107
_exptl_crystal_F_000             332.3
_pd_char_colour                  metallic_grey
_pd_meas_2theta_range_inc        0.01
_pd_meas_2theta_range_max        77.970
_pd_meas_2theta_range_min        0.010
_pd_meas_number_of_points        7797
_pd_proc_2theta_range_inc        0.01
_pd_proc_2theta_range_max        38.28
_pd_proc_2theta_range_min        4.02
_pd_proc_ls_background_function
'Manual background combined with 8 Chebyshev polynoms'
_pd_proc_ls_pref_orient_corr     none
_pd_proc_ls_profile_function     Pseudo-Voigt
_pd_proc_ls_prof_R_factor        0.0167
_pd_proc_ls_prof_wR_expected     0.0134
_pd_proc_ls_prof_wR_factor       0.0220
_pd_spec_mounting                capillary
_pd_spec_mount_mode              transmission
_refine_ls_goodness_of_fit_all   1.65
_refine_ls_number_constraints    0
_refine_ls_number_parameters     32
_refine_ls_number_restraints     0
_refine_ls_R_factor_all          0.0171
_refine_ls_R_factor_gt           0.0171
_refine_ls_shift/su_max          0.0147
_refine_ls_shift/su_mean         0.0029
_refine_ls_weighting_scheme      sigma
_refine_ls_wR_factor_all         0.0126
_refine_ls_wR_factor_gt          0.0126
_cod_data_source_file            gw5043sup1.cif
_cod_data_source_block           380
_cod_depositor_comments
;
The following automatic conversions were performed:

'_diffrn_radiation_probe' value 'X-ray' changed to 'x-ray' according
to
/usr/data/users/saulius/crontab/automatic-downloads/rss-feeds/IUCr/lib/dictionaries/cif_core.dic
dictionary named 'cif_core.dic' version 2.4.2 from 2011-04-26.

Automatic conversion script
Id: cif_fix_values 4268 2015-11-12 08:31:59Z antanas 

 Adding full bibliography for 2107508--2107520.cif.
;
_cod_original_formula_sum        'Se1 Sn0.9816'
_cod_database_code               2107513
_cod_database_fobs_code          2107513
loop_
_space_group_symop_id
_space_group_symop_operation_xyz
1 x,y,z
2 -x+1/2,-y,z+1/2
3 -x,y+1/2,-z
4 x+1/2,-y+1/2,-z+1/2
5 -x,-y,-z
6 x+1/2,y,-z+1/2
7 x,-y+1/2,z
8 -x+1/2,y+1/2,z+1/2
loop_
_atom_site_label
_atom_site_type_symbol
_atom_site_fract_x
_atom_site_fract_y
_atom_site_fract_z
_atom_site_adp_type
_atom_site_U_iso_or_equiv
_atom_site_site_symmetry_multiplicity
_atom_site_occupancy
_atom_site_calc_flag
Sn Sn 0.11883(4) 0.25 0.10051(10) Uani 0.0186(2) 4 0.9816 d
Se Se 0.85524(5) 0.25 0.48217(12) Uani 0.0150(3) 4 1 d
loop_
_atom_site_aniso_label
_atom_site_aniso_type_symbol
_atom_site_aniso_U_11
_atom_site_aniso_U_22
_atom_site_aniso_U_33
_atom_site_aniso_U_12
_atom_site_aniso_U_13
_atom_site_aniso_U_23
Sn Sn 0.0183(3) 0.0183(4) 0.0192(4) 0 -0.0048(3) 0
Se Se 0.0153(4) 0.0149(5) 0.0149(5) 0 -0.0016(4) 0
loop_
_atom_type_symbol
_atom_type_scat_dispersion_real
_atom_type_scat_dispersion_imag
_atom_type_scat_source
Se 0.2899 1.2209 'International Tables Vol C tables 4.2.6.8 and 6.1.1.1'
Sn -1.5316 0.7679 'International Tables Vol C tables 4.2.6.8 and 6.1.1.1'
loop_
_geom_angle_atom_site_label_1
_geom_angle_atom_site_label_2
_geom_angle_atom_site_label_3
_geom_angle_site_symmetry_1
_geom_angle_site_symmetry_2
_geom_angle_site_symmetry_3
_geom_angle
Se Sn Se 4_455 1_555 3_656 88.994
Se Sn Se 4_455 1_555 3_655 78.910
Se Sn Se 3_645 1_555 3_655 77.335
Se Sn Se 3_646 1_555 3_656 95.986
Se Sn Se 3_656 1_555 3_655 92.212
Se Sn Se 4_455 1_555 1_455 158.533
Se Sn Sn 4_455 1_555 3_545 136.908
loop_
_geom_bond_atom_site_label_1
_geom_bond_atom_site_label_2
_geom_bond_site_symmetry_1
_geom_bond_site_symmetry_2
_geom_bond_distance
Sn Se 1_555 4_455 2.748
Sn Se 1_555 3_656 2.801
Sn Se 1_555 3_655 3.331
Sn Se 1_555 1_455 3.476
Sn Sn 1_555 3_545 3.553
Sn Se 1_555 1_454 4.091
loop_
_pd_proc_point_id
_pd_proc_2theta_corrected
_pd_proc_intensity_net
_pd_calc_intensity_net
_pd_proc_ls_weight
1 4.0200 3199.00 3150.21 57.00
2 4.0300 3189.00 3151.01 56.00
3 4.0400 3198.00 3151.81 57.00
4 4.0500 3215.00 3152.62 57.00
5 4.0600 3208.00 3153.43 57.00
6 4.0700 3207.00 3154.25 57.00
7 4.0800 3200.00 3155.07 57.00
8 4.0900 3224.00 3155.89 57.00
9 4.1000 3207.00 3156.72 57.00
10 4.1100 3232.00 3157.55 57.00
11 4.1200 3184.00 3158.38 56.00
12 4.1300 3200.00 3159.22 57.00
13 4.1400 3215.00 3160.06 57.00
14 4.1500 3220.00 3160.90 57.00
15 4.1600 3207.00 3161.75 57.00
16 4.1700 3214.00 3162.60 57.00
17 4.1800 3203.00 3163.46 57.00
18 4.1900 3186.00 3164.32 56.00
19 4.2000 3229.00 3165.18 57.00
20 4.2100 3189.00 3166.04 56.00
21 4.2200 3243.00 3166.91 57.00
22 4.2300 3229.00 3167.78 57.00
23 4.2400 3217.00 3168.66 57.00
24 4.2500 3176.00 3169.54 56.00
25 4.2600 3187.00 3170.42 56.00
26 4.2700 3205.00 3171.31 57.00
27 4.2800 3197.00 3172.19 57.00
28 4.2900 3179.00 3173.09 56.00
29 4.3000 3218.00 3173.98 57.00
30 4.3100 3176.00 3174.88 56.00
31 4.3200 3206.00 3175.78 57.00
32 4.3300 3221.00 3176.69 57.00
33 4.3400 3211.00 3177.60 57.00
34 4.3500 3233.00 3178.51 57.00
35 4.3600 3226.00 3179.43 57.00
36 4.3700 3198.00 3180.35 57.00
37 4.3800 3229.00 3181.27 57.00
38 4.3900 3222.00 3182.20 57.00
39 4.4000 3224.00 3183.13 57.00
40 4.4100 3219.00 3184.06 57.00
41 4.4200 3211.00 3185.00 57.00
42 4.4300 3180.00 3185.95 56.00
43 4.4400 3206.00 3186.89 57.00
44 4.4500 3200.00 3187.84 57.00
45 4.4600 3215.00 3188.80 57.00
46 4.4700 3230.00 3189.76 57.00
47 4.4800 3184.00 3190.72 56.00
48 4.4900 3192.00 3191.69 56.00
49 4.5000 3225.00 3192.66 57.00
50 4.5100 3211.00 3193.64 57.00
51 4.5200 3206.00 3194.62 57.00
52 4.5300 3205.00 3195.61 57.00
53 4.5400 3199.00 3196.61 57.00
54 4.5500 3199.00 3197.61 57.00
55 4.5600 3221.00 3198.62 57.00
56 4.5700 3222.00 3199.64 57.00
57 4.5800 3216.00 3200.66 57.00
58 4.5900 3238.00 3201.69 57.00
59 4.6000 3212.00 3202.73 57.00
60 4.6100 3220.00 3203.78 57.00
61 4.6200 3243.00 3204.84 57.00
62 4.6300 3254.00 3205.92 57.00
63 4.6400 3252.00 3207.00 57.00
64 4.6500 3285.00 3208.10 57.00
65 4.6600 3274.00 3209.22 57.00
66 4.6700 3258.00 3210.35 57.00
67 4.6800 3289.00 3211.51 57.00
68 4.6900 3261.00 3212.69 57.00
69 4.7000 3264.00 3213.89 57.00
70 4.7100 3252.00 3215.12 57.00
71 4.7200 3225.00 3216.38 57.00
72 4.7300 3184.00 3217.69 56.00
73 4.7400 3245.00 3219.04 57.00
74 4.7500 3232.00 3220.44 57.00
75 4.7600 3234.00 3221.91 57.00
76 4.7700 3271.00 3223.45 57.00
77 4.7800 3250.00 3225.08 57.00
78 4.7900 3219.00 3226.82 57.00
79 4.8000 3264.00 3228.69 57.00
80 4.8100 3265.00 3230.73 57.00
81 4.8200 3250.00 3233.31 57.00
82 4.8300 3274.00 3235.83 57.00
83 4.8400 3260.00 3238.69 57.00
84 4.8500 3247.00 3241.99 57.00
85 4.8600 3294.00 3245.90 57.00
86 4.8700 3295.00 3250.64 57.00
87 4.8800 3291.00 3256.54 57.00
88 4.8900 3324.00 3264.15 58.00
89 4.9000 3364.00 3274.51 58.00
90 4.9100 3373.00 3290.70 58.00
91 4.9200 3444.00 3324.35 59.00
92 4.9300 3567.00 3414.31 60.00
93 4.9400 3813.00 3650.53 62.00
94 4.9500 4302.00 4145.90 66.00
95 4.9600 4926.00 4889.00 70.00
96 4.9700 5495.00 5565.12 74.00
97 4.9800 5428.00 5638.47 74.00
98 4.9900 4787.00 5036.15 69.00
99 5.0000 4034.00 4273.22 64.00
100 5.0100 3641.00 3726.33 60.00
101 5.0200 3412.00 3451.94 58.00
102 5.0300 3305.00 3345.47 57.00
103 5.0400 3293.00 3307.62 57.00
104 5.0500 3257.00 3291.54 57.00
105 5.0600 3256.00 3282.43 57.00
106 5.0700 3281.00 3276.39 57.00
107 5.0800 3199.00 3272.20 57.00
108 5.0900 3213.00 3269.25 57.00
109 5.1000 3213.00 3267.18 57.00
110 5.1100 3220.00 3265.75 57.00
111 5.1200 3227.00 3264.79 57.00
112 5.1300 3230.00 3264.20 57.00
113 5.1400 3208.00 3263.87 57.00
114 5.1500 3183.00 3263.77 56.00
115 5.1600 3230.00 3263.83 57.00
116 5.1700 3221.00 3264.04 57.00
117 5.1800 3222.00 3264.35 57.00
118 5.1900 3229.00 3264.76 57.00
119 5.2000 3267.00 3265.25 57.00
120 5.2100 3205.00 3265.80 57.00
121 5.2200 3253.00 3266.40 57.00
122 5.2300 3220.00 3267.05 57.00
123 5.2400 3251.00 3267.73 57.00
124 5.2500 3255.00 3268.46 57.00
125 5.2600 3205.00 3269.20 57.00
126 5.2700 3210.00 3269.98 57.00
127 5.2800 3230.00 3270.78 57.00
128 5.2900 3242.00 3271.59 57.00
129 5.3000 3203.00 3272.42 57.00
130 5.3100 3248.00 3273.27 57.00
131 5.3200 3240.00 3274.13 57.00
132 5.3300 3200.00 3275.00 57.00
133 5.3400 3263.00 3275.88 57.00
134 5.3500 3214.00 3276.77 57.00
135 5.3600 3243.00 3277.67 57.00
136 5.3700 3255.00 3278.58 57.00
137 5.3800 3231.00 3279.49 57.00
138 5.3900 3198.00 3280.41 57.00
139 5.4000 3221.00 3281.34 57.00
140 5.4100 3214.00 3282.26 57.00
141 5.4200 3221.00 3283.20 57.00
142 5.4300 3278.00 3284.14 57.00
143 5.4400 3265.00 3285.08 57.00
144 5.4500 3216.00 3286.02 57.00
145 5.4600 3239.00 3286.97 57.00
146 5.4700 3250.00 3287.92 57.00
147 5.4800 3244.00 3288.88 57.00
148 5.4900 3263.00 3289.83 57.00
149 5.5000 3232.00 3290.79 57.00
150 5.5100 3229.00 3291.75 57.00
151 5.5200 3240.00 3292.71 57.00
152 5.5300 3245.00 3293.67 57.00
153 5.5400 3260.00 3294.64 57.00
154 5.5500 3290.00 3295.60 57.00
155 5.5600 3250.00 3296.57 57.00
156 5.5700 3235.00 3297.54 57.00
157 5.5800 3267.00 3298.51 57.00
158 5.5900 3240.00 3299.48 57.00
159 5.6000 3242.00 3300.45 57.00
160 5.6100 3251.00 3301.42 57.00
161 5.6200 3241.00 3302.39 57.00
162 5.6300 3235.00 3303.36 57.00
163 5.6400 3255.00 3304.34 57.00
164 5.6500 3238.00 3305.31 57.00
165 5.6600 3253.00 3306.28 57.00
166 5.6700 3291.00 3307.26 57.00
167 5.6800 3258.00 3308.23 57.00
168 5.6900 3227.00 3309.21 57.00
169 5.7000 3266.00 3310.18 57.00
170 5.7100 3240.00 3311.16 57.00
171 5.7200 3258.00 3312.13 57.00
172 5.7300 3287.00 3313.11 57.00
173 5.7400 3267.00 3314.08 57.00
174 5.7500 3245.00 3315.06 57.00
175 5.7600 3269.00 3316.03 57.00
176 5.7700 3266.00 3317.01 57.00
177 5.7800 3284.00 3317.98 57.00
178 5.7900 3272.00 3318.96 57.00
179 5.8000 3266.00 3319.93 57.00
180 5.8100 3267.00 3320.91 57.00
181 5.8200 3255.00 3321.88 57.00
182 5.8300 3232.00 3322.86 57.00
183 5.8400 3227.00 3323.83 57.00
184 5.8500 3239.00 3324.81 57.00
185 5.8600 3241.00 3325.78 57.00
186 5.8700 3244.00 3326.76 57.00
187 5.8800 3280.00 3327.73 57.00
188 5.8900 3275.00 3328.71 57.00
189 5.9000 3260.00 3329.68 57.00
190 5.9100 3276.00 3330.66 57.00
191 5.9200 3273.00 3331.63 57.00
192 5.9300 3240.00 3332.28 57.00
193 5.9400 3278.00 3332.93 57.00
194 5.9500 3282.00 3333.58 57.00
195 5.9600 3276.00 3334.23 57.00
196 5.9700 3292.00 3334.88 57.00
197 5.9800 3271.00 3335.53 57.00
198 5.9900 3284.00 3336.18 57.00
199 6.0000 3299.00 3336.83 57.00
200 6.0100 3263.00 3337.48 57.00
201 6.0200 3297.00 3338.13 57.00
202 6.0300 3281.00 3338.78 57.00
203 6.0400 3284.00 3339.43 57.00
204 6.0500 3267.00 3340.09 57.00
205 6.0600 3295.00 3340.74 57.00
206 6.0700 3282.00 3341.39 57.00
207 6.0800 3272.00 3342.04 57.00
208 6.0900 3296.00 3342.69 57.00
209 6.1000 3245.00 3343.35 57.00
210 6.1100 3257.00 3344.00 57.00
211 6.1200 3300.00 3344.66 57.00
212 6.1300 3288.00 3345.31 57.00
213 6.1400 3284.00 3348.82 57.00
214 6.1500 3316.00 3349.51 58.00
215 6.1600 3291.00 3350.20 57.00
216 6.1700 3263.00 3350.89 57.00
217 6.1800 3280.00 3351.58 57.00
218 6.1900 3269.00 3352.27 57.00
219 6.2000 3288.00 3352.97 57.00
220 6.2100 3297.00 3353.66 57.00
221 6.2200 3300.00 3354.36 57.00
222 6.2300 3286.00 3355.06 57.00
223 6.2400 3324.00 3355.77 58.00
224 6.2500 3290.00 3356.48 57.00
225 6.2600 3292.00 3357.02 57.00
226 6.2700 3315.00 3357.74 58.00
227 6.2800 3292.00 3358.46 57.00
228 6.2900 3309.00 3359.18 58.00
229 6.3000 3300.00 3359.91 57.00
230 6.3100 3328.00 3360.65 58.00
231 6.3200 3320.00 3361.38 58.00
232 6.3300 3334.00 3362.13 58.00
233 6.3400 3325.00 3362.88 58.00
234 6.3500 3284.00 3363.64 57.00
235 6.3600 3305.00 3364.40 57.00
236 6.3700 3331.00 3365.17 58.00
237 6.3800 3307.00 3365.95 58.00
238 6.3900 3318.00 3366.74 58.00
239 6.4000 3303.00 3367.54 57.00
240 6.4100 3293.00 3368.34 57.00
241 6.4200 3321.00 3369.16 58.00
242 6.4300 3317.00 3370.00 58.00
243 6.4400 3349.00 3370.84 58.00
244 6.4500 3341.00 3371.70 58.00
245 6.4600 3331.00 3372.58 58.00
246 6.4700 3313.00 3373.47 58.00
247 6.4800 3351.00 3374.38 58.00
248 6.4900 3313.00 3375.31 58.00
249 6.5000 3355.00 3376.27 58.00
250 6.5100 3353.00 3377.25 58.00
251 6.5200 3331.00 3378.26 58.00
252 6.5300 3303.00 3379.30 57.00
253 6.5400 3366.00 3380.37 58.00
254 6.5500 3353.00 3381.48 58.00
255 6.5600 3367.00 3382.63 58.00
256 6.5700 3387.00 3383.83 58.00
257 6.5800 3344.00 3385.08 58.00
258 6.5900 3318.00 3386.39 58.00
259 6.6000 3390.00 3387.77 58.00
260 6.6100 3338.00 3389.22 58.00
261 6.6200 3345.00 3390.75 58.00
262 6.6300 3346.00 3393.33 58.00
263 6.6400 3346.00 3395.08 58.00
264 6.6500 3324.00 3396.95 58.00
265 6.6600 3339.00 3398.95 58.00
266 6.6700 3335.00 3401.13 58.00
267 6.6800 3344.00 3403.49 58.00
268 6.6900 3365.00 3406.07 58.00
269 6.7000 3343.00 3408.91 58.00
270 6.7100 3346.00 3412.06 58.00
271 6.7200 3390.00 3415.56 58.00
272 6.7300 3370.00 3419.51 58.00
273 6.7400 3378.00 3423.97 58.00
274 6.7500 3418.00 3429.08 58.00
275 6.7600 3389.00 3434.97 58.00
276 6.7700 3379.00 3441.83 58.00
277 6.7800 3415.00 3449.91 58.00
278 6.7900 3423.00 3459.57 59.00
279 6.8000 3451.00 3471.32 59.00
280 6.8100 3475.00 3486.05 59.00
281 6.8200 3487.00 3505.40 59.00
282 6.8300 3502.00 3532.81 59.00
283 6.8400 3594.00 3575.13 60.00
284 6.8500 3700.00 3645.07 61.00
285 6.8600 3783.00 3763.11 62.00
286 6.8700 3990.00 3956.48 63.00
287 6.8800 4246.00 4252.16 65.00
288 6.8900 4612.00 4662.88 68.00
289 6.9000 5144.00 5168.85 72.00
290 6.9100 5719.00 5697.94 76.00
291 6.9200 6200.00 6110.08 79.00
292 6.9300 6392.00 6231.70 80.00
293 6.9400 6168.00 5997.98 79.00
294 6.9500 5625.00 5528.41 75.00
295 6.9600 5144.00 4996.16 72.00
296 6.9700 4636.00 4518.22 68.00
297 6.9800 4264.00 4146.93 65.00
298 6.9900 4007.00 3889.13 63.00
299 7.0000 3834.00 3725.37 62.00
300 7.0100 3691.00 3627.38 61.00
301 7.0200 3645.00 3569.76 60.00
302 7.0300 3596.00 3534.71 60.00
303 7.0400 3567.00 3511.76 60.00
304 7.0500 3544.00 3495.44 60.00
305 7.0600 3517.00 3483.06 59.00
306 7.0700 3470.00 3473.31 59.00
307 7.0800 3483.00 3465.45 59.00
308 7.0900 3444.00 3459.04 59.00
309 7.1000 3452.00 3453.76 59.00
310 7.1100 3467.00 3449.39 59.00
311 7.1200 3458.00 3445.76 59.00
312 7.1300 3452.00 3442.72 59.00
313 7.1400 3454.00 3440.18 59.00
314 7.1500 3449.00 3438.06 59.00
315 7.1600 3460.00 3436.28 59.00
316 7.1700 3486.00 3434.80 59.00
317 7.1800 3446.00 3433.57 59.00
318 7.1900 3401.00 3432.55 58.00
319 7.2000 3411.00 3431.73 58.00
320 7.2100 3420.00 3431.06 58.00
321 7.2200 3431.00 3430.54 59.00
322 7.2300 3458.00 3430.14 59.00
323 7.2400 3440.00 3429.85 59.00
324 7.2500 3427.00 3429.67 59.00
325 7.2600 3448.00 3429.57 59.00
326 7.2700 3453.00 3429.55 59.00
327 7.2800 3454.00 3429.61 59.00
328 7.2900 3439.00 3429.73 59.00
329 7.3000 3475.00 3429.92 59.00
330 7.3100 3463.00 3430.16 59.00
331 7.3200 3470.00 3430.45 59.00
332 7.3300 3434.00 3430.80 59.00
333 7.3400 3460.00 3431.19 59.00
334 7.3500 3496.00 3431.63 59.00
335 7.3600 3455.00 3432.11 59.00
336 7.3700 3435.00 3432.63 59.00
337 7.3800 3441.00 3433.19 59.00
338 7.3900 3466.00 3433.79 59.00
339 7.4000 3488.00 3434.42 59.00
340 7.4100 3477.00 3435.10 59.00
341 7.4200 3466.00 3435.81 59.00
342 7.4300 3438.00 3436.56 59.00
343 7.4400 3473.00 3437.35 59.00
344 7.4500 3455.00 3438.17 59.00
345 7.4600 3506.00 3439.04 59.00
346 7.4700 3509.00 3439.94 59.00
347 7.4800 3481.00 3440.88 59.00
348 7.4900 3483.00 3441.87 59.00
349 7.5000 3514.00 3442.89 59.00
350 7.5100 3526.00 3443.97 59.00
351 7.5200 3557.00 3445.08 60.00
352 7.5300 3599.00 3446.25 60.00
353 7.5400 3593.00 3447.46 60.00
354 7.5500 3561.00 3448.73 60.00
355 7.5600 3597.00 3450.06 60.00
356 7.5700 3533.00 3451.44 59.00
357 7.5800 3527.00 3452.89 59.00
358 7.5900 3515.00 3454.40 59.00
359 7.6000 3522.00 3455.98 59.00
360 7.6100 3498.00 3457.63 59.00
361 7.6200 3491.00 3459.37 59.00
362 7.6300 3504.00 3461.19 59.00
363 7.6400 3515.00 3463.10 59.00
364 7.6500 3529.00 3465.11 59.00
365 7.6600 3506.00 3467.23 59.00
366 7.6700 3480.00 3469.45 59.00
367 7.6800 3520.00 3471.81 59.00
368 7.6900 3505.00 3474.29 59.00
369 7.7000 3497.00 3481.02 59.00
370 7.7100 3549.00 3483.85 60.00
371 7.7200 3538.00 3486.85 59.00
372 7.7300 3510.00 3490.04 59.00
373 7.7400 3541.00 3493.43 60.00
374 7.7500 3528.00 3497.05 59.00
375 7.7600 3556.00 3500.91 60.00
376 7.7700 3566.00 3505.04 60.00
377 7.7800 3540.00 3509.46 59.00
378 7.7900 3544.00 3514.22 60.00
379 7.8000 3589.00 3519.34 60.00
380 7.8100 3556.00 3524.86 60.00
381 7.8200 3574.00 3530.84 60.00
382 7.8300 3617.00 3537.32 60.00
383 7.8400 3592.00 3544.36 60.00
384 7.8500 3570.00 3552.05 60.00
385 7.8600 3627.00 3560.46 60.00
386 7.8700 3619.00 3569.69 60.00
387 7.8800 3634.00 3579.85 60.00
388 7.8900 3643.00 3591.09 60.00
389 7.9000 3629.00 3603.55 60.00
390 7.9100 3645.00 3617.44 60.00
391 7.9200 3684.00 3632.98 61.00
392 7.9300 3726.00 3650.46 61.00
393 7.9400 3714.00 3670.21 61.00
394 7.9500 3747.00 3692.65 61.00
395 7.9600 3776.00 3718.31 61.00
396 7.9700 3804.00 3747.83 62.00
397 7.9800 3868.00 3782.04 62.00
398 7.9900 3899.00 3842.87 62.00
399 8.0000 3955.00 3890.15 63.00
400 8.0100 4051.00 3946.30 64.00
401 8.0200 4119.00 4013.74 64.00
402 8.0300 4209.00 4095.77 65.00
403 8.0400 4376.00 4197.45 66.00
404 8.0500 4577.00 4327.31 68.00
405 8.0600 4809.00 4501.93 69.00
406 8.0700 5204.00 4755.67 72.00
407 8.0800 5652.00 5158.26 75.00
408 8.0900 6430.00 5837.52 80.00
409 8.1000 7581.00 6993.51 87.00
410 8.1100 9262.00 8875.47 96.00
411 8.1200 11796.00 11696.20 109.00
412 8.1300 15366.00 15479.20 124.00
413 8.1400 19460.00 19871.40 139.00
414 8.1500 23388.00 23933.70 153.00
415 8.1600 25864.00 26118.80 161.00
416 8.1700 24885.00 25227.20 158.00
417 8.1800 21177.00 21785.40 146.00
418 8.1900 16643.00 17385.80 129.00
419 8.2000 12716.00 13266.90 113.00
420 8.2100 9687.00 10013.80 98.00
421 8.2200 7776.00 7743.56 88.00
422 8.2300 6468.00 6305.47 80.00
423 8.2400 5652.00 5451.24 75.00
424 8.2500 5087.00 4953.11 71.00
425 8.2600 4731.00 4651.92 69.00
426 8.2700 4448.00 4455.33 67.00
427 8.2800 4336.00 4316.20 66.00
428 8.2900 4199.00 4211.86 65.00
429 8.3000 4127.00 4131.19 64.00
430 8.3100 4061.00 4068.18 64.00
431 8.3200 4025.00 4019.11 63.00
432 8.3300 3941.00 3981.57 63.00
433 8.3400 3983.00 3953.94 63.00
434 8.3500 3980.00 3935.24 63.00
435 8.3600 3940.00 3925.02 63.00
436 8.3700 3991.00 3923.35 63.00
437 8.3800 3983.00 3930.95 63.00
438 8.3900 4012.00 3949.46 63.00
439 8.4000 4079.00 3982.46 64.00
440 8.4100 4201.00 4037.97 65.00
441 8.4200 4337.00 4134.06 66.00
442 8.4300 4579.00 4308.32 68.00
443 8.4400 4904.00 4627.87 70.00
444 8.4500 5456.00 5188.92 74.00
445 8.4600 6274.00 6088.91 79.00
446 8.4700 7427.00 7364.30 86.00
447 8.4800 8893.00 8915.08 94.00
448 8.4900 10374.00 10359.80 102.00
449 8.5000 11104.00 11077.90 105.00
450 8.5100 10701.00 10611.50 103.00
451 8.5200 9471.00 9265.31 97.00
452 8.5300 7850.00 7694.62 89.00
453 8.5400 6439.00 6329.50 80.00
454 8.5500 5476.00 5329.98 74.00
455 8.5600 4834.00 4685.74 70.00
456 8.5700 4420.00 4306.75 66.00
457 8.5800 4247.00 4092.52 65.00
458 8.5900 4049.00 3968.10 64.00
459 8.6000 3950.00 3889.46 63.00
460 8.6100 3923.00 3834.62 63.00
461 8.6200 3829.00 3793.46 62.00
462 8.6300 3751.00 3761.24 61.00
463 8.6400 3748.00 3735.42 61.00
464 8.6500 3737.00 3714.43 61.00
465 8.6600 3735.00 3697.20 61.00
466 8.6700 3731.00 3682.92 61.00
467 8.6800 3688.00 3671.03 61.00
468 8.6900 3682.00 3661.08 61.00
469 8.7000 3718.00 3652.73 61.00
470 8.7100 3684.00 3645.71 61.00
471 8.7200 3675.00 3639.82 61.00
472 8.7300 3691.00 3634.89 61.00
473 8.7400 3664.00 3630.78 61.00
474 8.7500 3647.00 3627.38 60.00
475 8.7600 3689.00 3624.62 61.00
476 8.7700 3674.00 3622.42 61.00
477 8.7800 3666.00 3620.72 61.00
478 8.7900 3670.00 3619.46 61.00
479 8.8000 3659.00 3618.62 60.00
480 8.8100 3657.00 3618.16 60.00
481 8.8200 3682.00 3618.05 61.00
482 8.8300 3683.00 3618.28 61.00
483 8.8400 3687.00 3618.80 61.00
484 8.8500 3712.00 3619.62 61.00
485 8.8600 3654.00 3620.72 60.00
486 8.8700 3639.00 3622.10 60.00
487 8.8800 3660.00 3623.74 60.00
488 8.8900 3691.00 3625.64 61.00
489 8.9000 3703.00 3627.81 61.00
490 8.9100 3737.00 3630.23 61.00
491 8.9200 3700.00 3632.92 61.00
492 8.9300 3692.00 3635.87 61.00
493 8.9400 3739.00 3639.08 61.00
494 8.9500 3726.00 3642.57 61.00
495 8.9600 3696.00 3646.34 61.00
496 8.9700 3725.00 3650.41 61.00
497 8.9800 3698.00 3654.78 61.00
498 8.9900 3718.00 3659.46 61.00
499 9.0000 3751.00 3664.47 61.00
500 9.0100 3726.00 3669.84 61.00
501 9.0200 3767.00 3675.57 61.00
502 9.0300 3762.00 3681.70 61.00
503 9.0400 3762.00 3687.90 61.00
504 9.0500 3738.00 3694.90 61.00
505 9.0600 3794.00 3702.37 62.00
506 9.0700 3810.00 3710.35 62.00
507 9.0800 3809.00 3718.90 62.00
508 9.0900 3849.00 3728.04 62.00
509 9.1000 3858.00 3737.85 62.00
510 9.1100 3816.00 3748.37 62.00
511 9.1200 3831.00 3759.68 62.00
512 9.1300 3821.00 3771.86 62.00
513 9.1400 3840.00 3784.99 62.00
514 9.1500 3889.00 3799.19 62.00
515 9.1600 3873.00 3814.57 62.00
516 9.1700 3858.00 3831.27 62.00
517 9.1800 3903.00 3849.47 62.00
518 9.1900 3890.00 3869.36 62.00
519 9.2000 3920.00 3891.17 63.00
520 9.2100 3934.00 3915.17 63.00
521 9.2200 3974.00 3941.70 63.00
522 9.2300 4006.00 3971.16 63.00
523 9.2400 4015.00 4004.04 63.00
524 9.2500 4069.00 4040.96 64.00
525 9.2600 4076.00 4082.66 64.00
526 9.2700 4141.00 4130.10 64.00
527 9.2800 4136.00 4184.48 64.00
528 9.2900 4161.00 4247.38 65.00
529 9.3000 4234.00 4320.84 65.00
530 9.3100 4319.00 4407.58 66.00
531 9.3200 4433.00 4511.28 67.00
532 9.3300 4564.00 4637.06 68.00
533 9.3400 4687.00 4792.38 68.00
534 9.3500 4909.00 4989.20 70.00
535 9.3600 5248.00 5250.08 72.00
536 9.3700 5720.00 5624.41 76.00
537 9.3800 6420.00 6223.85 80.00
538 9.3900 7632.00 7279.05 87.00
539 9.4000 9389.00 9183.97 97.00
540 9.4100 12295.00 12444.50 111.00
541 9.4200 17014.00 17434.50 130.00
542 9.4300 23458.00 23966.30 153.00
543 9.4400 30577.00 30725.00 175.00
544 9.4500 35132.00 34826.40 187.00
545 9.4600 33887.00 33506.60 184.00
546 9.4700 27831.00 27791.60 167.00
547 9.4800 20769.00 20965.60 144.00
548 9.4900 15087.00 15172.50 123.00
549 9.5000 11250.00 11116.30 106.00
550 9.5100 8961.00 8657.43 95.00
551 9.5200 7630.00 7317.21 87.00
552 9.5300 6728.00 6627.25 82.00
553 9.5400 6232.00 6274.22 79.00
554 9.5500 5870.00 6093.57 77.00
555 9.5600 5678.00 6011.53 75.00
556 9.5700 5668.00 5997.38 75.00
557 9.5800 5681.00 6038.38 75.00
558 9.5900 5699.00 6129.68 75.00
559 9.6000 5886.00 6270.83 77.00
560 9.6100 6002.00 6464.83 77.00
561 9.6200 6264.00 6718.15 79.00
562 9.6300 6633.00 7041.10 81.00
563 9.6400 6990.00 7449.01 84.00
564 9.6500 7437.00 7964.06 86.00
565 9.6600 8243.00 8619.20 91.00
566 9.6700 9279.00 9466.72 96.00
567 9.6800 10736.00 10602.40 104.00
568 9.6900 13011.00 12228.70 114.00
569 9.7000 16063.00 14798.60 127.00
570 9.7100 20904.00 19257.20 145.00
571 9.7200 29073.00 27280.30 171.00
572 9.7300 41953.00 41175.40 205.00
573 9.7400 62111.00 63023.10 249.00
574 9.7500 92006.00 92918.20 303.00
575 9.7600 124896.00 126553.00 353.00
576 9.7700 151612.00 152493.00 389.00
577 9.7800 157386.00 155366.00 397.00
578 9.7900 135109.00 133097.00 368.00
579 9.8000 99616.00 99996.80 316.00
580 9.8100 68208.00 69005.30 261.00
581 9.8200 45923.00 45681.70 214.00
582 9.8300 31645.00 30617.40 178.00
583 9.8400 23391.00 21994.60 153.00
584 9.8500 18471.00 17472.80 136.00
585 9.8600 15721.00 15232.90 125.00
586 9.8700 14376.00 14187.70 120.00
587 9.8800 14027.00 13785.60 118.00
588 9.8900 14262.00 13857.70 119.00
589 9.9000 15621.00 14728.90 125.00
590 9.9100 18687.00 17488.30 137.00
591 9.9200 25110.00 24206.40 158.00
592 9.9300 37402.00 37464.80 193.00
593 9.9400 56721.00 58310.50 238.00
594 9.9500 81326.00 82889.60 285.00
595 9.9600 99342.00 99209.50 315.00
596 9.9700 95838.00 93609.40 310.00
597 9.9800 73012.00 71065.70 270.00
598 9.9900 45949.00 46688.60 214.00
599 10.0000 27399.00 28548.60 166.00
600 10.0100 17044.00 17801.20 131.00
601 10.0200 11906.00 12339.40 109.00
602 10.0300 9071.00 9690.51 95.00
603 10.0400 7488.00 8283.02 87.00
604 10.0500 6529.00 7401.43 81.00
605 10.0600 5943.00 6774.62 77.00
606 10.0700 5509.00 6299.06 74.00
607 10.0800 5221.00 5926.02 72.00
608 10.0900 4995.00 5638.79 71.00
609 10.1000 4826.00 5394.82 69.00
610 10.1100 4724.00 5192.74 69.00
611 10.1200 4567.00 5023.09 68.00
612 10.1300 4453.00 4879.03 67.00
613 10.1400 4380.00 4755.45 66.00
614 10.1500 4328.00 4648.49 66.00
615 10.1600 4259.00 4555.13 65.00
616 10.1700 4253.00 4473.07 65.00
617 10.1800 4195.00 4400.47 65.00
618 10.1900 4113.00 4333.02 64.00
619 10.2000 4113.00 4275.25 64.00
620 10.2100 4085.00 4223.30 64.00
621 10.2200 4044.00 4176.40 64.00
622 10.2300 4047.00 4133.88 64.00
623 10.2400 4001.00 4095.18 63.00
624 10.2500 3934.00 4059.84 63.00
625 10.2600 3915.00 4027.46 63.00
626 10.2700 3911.00 3997.71 63.00
627 10.2800 3906.00 3970.31 62.00
628 10.2900 3931.00 3944.99 63.00
629 10.3000 3892.00 3921.55 62.00
630 10.3100 3830.00 3899.79 62.00
631 10.3200 3850.00 3879.56 62.00
632 10.3300 3853.00 3860.71 62.00
633 10.3400 3819.00 3843.12 62.00
634 10.3500 3822.00 3826.66 62.00
635 10.3600 3784.00 3811.25 62.00
636 10.3700 3758.00 3796.79 61.00
637 10.3800 3810.00 3782.26 62.00
638 10.3900 3771.00 3769.49 61.00
639 10.4000 3764.00 3757.47 61.00
640 10.4100 3783.00 3746.13 62.00
641 10.4200 3778.00 3735.43 61.00
642 10.4300 3732.00 3725.32 61.00
643 10.4400 3747.00 3715.75 61.00
644 10.4500 3741.00 3706.70 61.00
645 10.4600 3726.00 3698.12 61.00
646 10.4700 3710.00 3689.99 61.00
647 10.4800 3712.00 3682.28 61.00
648 10.4900 3673.00 3674.96 61.00
649 10.5000 3723.00 3668.02 61.00
650 10.5100 3699.00 3661.44 61.00
651 10.5200 3673.00 3655.19 61.00
652 10.5300 3709.00 3649.28 61.00
653 10.5400 3695.00 3643.68 61.00
654 10.5500 3661.00 3638.40 61.00
655 10.5600 3677.00 3633.44 61.00
656 10.5700 3700.00 3628.80 61.00
657 10.5800 3679.00 3624.52 61.00
658 10.5900 3722.00 3620.64 61.00
659 10.6000 3634.00 3617.31 60.00
660 10.6100 3634.00 3614.80 60.00
661 10.6200 3663.00 3613.72 61.00
662 10.6300 3652.00 3615.05 60.00
663 10.6400 3664.00 3620.14 61.00
664 10.6500 3702.00 3630.20 61.00
665 10.6600 3676.00 3645.38 61.00
666 10.6700 3692.00 3663.50 61.00
667 10.6800 3742.00 3678.40 61.00
668 10.6900 3721.00 3680.63 61.00
669 10.7000 3730.00 3666.46 61.00
670 10.7100 3715.00 3643.16 61.00
671 10.7200 3679.00 3619.47 61.00
672 10.7300 3642.00 3599.88 60.00
673 10.7400 3678.00 3585.51 61.00
674 10.7500 3638.00 3575.66 60.00
675 10.7600 3633.00 3568.97 60.00
676 10.7700 3640.00 3564.19 60.00
677 10.7800 3638.00 3560.47 60.00
678 10.7900 3621.00 3557.35 60.00
679 10.8000 3634.00 3554.58 60.00
680 10.8100 3624.00 3552.06 60.00
681 10.8200 3634.00 3549.73 60.00
682 10.8300 3654.00 3547.55 60.00
683 10.8400 3600.00 3545.52 60.00
684 10.8500 3592.00 3543.60 60.00
685 10.8600 3611.00 3541.78 60.00
686 10.8700 3602.00 3540.06 60.00
687 10.8800 3606.00 3538.43 60.00
688 10.8900 3625.00 3536.88 60.00
689 10.9000 3598.00 3535.41 60.00
690 10.9100 3579.00 3534.01 60.00
691 10.9200 3616.00 3532.67 60.00
692 10.9300 3615.00 3531.40 60.00
693 10.9400 3615.00 3530.20 60.00
694 10.9500 3613.00 3529.05 60.00
695 10.9600 3581.00 3527.97 60.00
696 10.9700 3516.00 3526.93 59.00
697 10.9800 3589.00 3525.96 60.00
698 10.9900 3574.00 3525.04 60.00
699 11.0000 3565.00 3524.17 60.00
700 11.0100 3602.00 3523.35 60.00
701 11.0200 3561.00 3522.59 60.00
702 11.0300 3555.00 3521.87 60.00
703 11.0400 3585.00 3521.21 60.00
704 11.0500 3535.00 3520.59 59.00
705 11.0600 3586.00 3520.02 60.00
706 11.0700 3579.00 3519.51 60.00
707 11.0800 3555.00 3519.04 60.00
708 11.0900 3528.00 3518.62 59.00
709 11.1000 3557.00 3518.25 60.00
710 11.1100 3556.00 3517.93 60.00
711 11.1200 3545.00 3517.65 60.00
712 11.1300 3556.00 3517.43 60.00
713 11.1400 3539.00 3517.26 59.00
714 11.1500 3520.00 3517.13 59.00
715 11.1600 3551.00 3517.06 60.00
716 11.1700 3549.00 3517.04 60.00
717 11.1800 3526.00 3517.08 59.00
718 11.1900 3583.00 3517.16 60.00
719 11.2000 3562.00 3517.31 60.00
720 11.2100 3515.00 3513.42 59.00
721 11.2200 3556.00 3513.73 60.00
722 11.2300 3532.00 3514.09 59.00
723 11.2400 3517.00 3514.51 59.00
724 11.2500 3525.00 3514.99 59.00
725 11.2600 3548.00 3515.53 60.00
726 11.2700 3505.00 3516.14 59.00
727 11.2800 3514.00 3516.82 59.00
728 11.2900 3515.00 3517.57 59.00
729 11.3000 3533.00 3518.39 59.00
730 11.3100 3547.00 3519.28 60.00
731 11.3200 3515.00 3520.26 59.00
732 11.3300 3479.00 3521.31 59.00
733 11.3400 3526.00 3522.45 59.00
734 11.3500 3543.00 3523.69 60.00
735 11.3600 3554.00 3525.01 60.00
736 11.3700 3538.00 3526.43 59.00
737 11.3800 3533.00 3527.96 59.00
738 11.3900 3517.00 3529.60 59.00
739 11.4000 3578.00 3531.34 60.00
740 11.4100 3562.00 3533.21 60.00
741 11.4200 3542.00 3535.21 60.00
742 11.4300 3548.00 3537.34 60.00
743 11.4400 3532.00 3539.61 59.00
744 11.4500 3497.00 3530.77 59.00
745 11.4600 3532.00 3533.50 59.00
746 11.4700 3508.00 3536.40 59.00
747 11.4800 3503.00 3539.48 59.00
748 11.4900 3522.00 3542.75 59.00
749 11.5000 3519.00 3546.22 59.00
750 11.5100 3508.00 3549.91 59.00
751 11.5200 3543.00 3553.84 60.00
752 11.5300 3543.00 3558.01 60.00
753 11.5400 3539.00 3562.46 59.00
754 11.5500 3564.00 3567.20 60.00
755 11.5600 3561.00 3572.25 60.00
756 11.5700 3556.00 3557.13 60.00
757 11.5800 3553.00 3563.12 60.00
758 11.5900 3572.00 3569.51 60.00
759 11.6000 3558.00 3576.33 60.00
760 11.6100 3603.00 3583.62 60.00
761 11.6200 3573.00 3591.44 60.00
762 11.6300 3551.00 3599.81 60.00
763 11.6400 3596.00 3608.82 60.00
764 11.6500 3581.00 3618.51 60.00
765 11.6600 3590.00 3628.96 60.00
766 11.6700 3608.00 3648.67 60.00
767 11.6800 3588.00 3660.97 60.00
768 11.6900 3585.00 3674.33 60.00
769 11.7000 3623.00 3688.85 60.00
770 11.7100 3621.00 3704.70 60.00
771 11.7200 3679.00 3722.03 61.00
772 11.7300 3701.00 3741.06 61.00
773 11.7400 3704.00 3762.03 61.00
774 11.7500 3684.00 3785.24 61.00
775 11.7600 3741.00 3811.04 61.00
776 11.7700 3732.00 3839.92 61.00
777 11.7800 3800.00 3872.53 62.00
778 11.7900 3851.00 3909.87 62.00
779 11.8000 3859.00 3953.65 62.00
780 11.8100 3888.00 4006.84 62.00
781 11.8200 3983.00 4074.27 63.00
782 11.8300 4044.00 4162.83 64.00
783 11.8400 4127.00 4280.28 64.00
784 11.8500 4302.00 4432.30 66.00
785 11.8600 4461.00 4617.71 67.00
786 11.8700 4657.00 4821.71 68.00
787 11.8800 4877.00 5008.93 70.00
788 11.8900 4989.00 5134.98 71.00
789 11.9000 5085.00 5196.88 71.00
790 11.9100 5120.00 5242.94 72.00
791 11.9200 5189.00 5323.32 72.00
792 11.9300 5359.00 5469.26 73.00
793 11.9400 5639.00 5701.06 75.00
794 11.9500 6078.00 6040.57 78.00
795 11.9600 6672.00 6528.15 82.00
796 11.9700 7607.00 7251.41 87.00
797 11.9800 8841.00 8389.90 94.00
798 11.9900 10698.00 10268.00 103.00
799 12.0000 13685.00 13375.80 117.00
800 12.0100 18073.00 18292.30 134.00
801 12.0200 24618.00 25456.20 157.00
802 12.0300 33933.00 34779.40 184.00
803 12.0400 44008.00 45107.50 210.00
804 12.0500 52854.00 53513.00 230.00
805 12.0600 56675.00 55914.60 238.00
806 12.0700 52297.00 51054.60 229.00
807 12.0800 42950.00 42282.80 207.00
808 12.0900 33414.00 33473.20 183.00
809 12.1000 26340.00 26564.20 162.00
810 12.1100 21754.00 21853.30 147.00
811 12.1200 19005.00 18626.80 138.00
812 12.1300 16478.00 15938.70 128.00
813 12.1400 13898.00 13402.80 118.00
814 12.1500 11351.00 11129.60 107.00
815 12.1600 9289.00 9257.76 96.00
816 12.1700 7714.00 7822.70 88.00
817 12.1800 6677.00 6785.14 82.00
818 12.1900 5946.00 6065.03 77.00
819 12.2000 5442.00 5571.31 74.00
820 12.2100 5092.00 5225.96 71.00
821 12.2200 4784.00 4973.43 69.00
822 12.2300 4570.00 4779.33 68.00
823 12.2400 4422.00 4623.89 66.00
824 12.2500 4312.00 4495.92 66.00
825 12.2600 4221.00 4388.68 65.00
826 12.2700 4124.00 4297.74 64.00
827 12.2800 4006.00 4219.91 63.00
828 12.2900 3970.00 4152.79 63.00
829 12.3000 3916.00 4094.55 63.00
830 12.3100 3863.00 4043.71 62.00
831 12.3200 3828.00 3999.12 62.00
832 12.3300 3841.00 3959.82 62.00
833 12.3400 3802.00 3925.05 62.00
834 12.3500 3773.00 3894.20 61.00
835 12.3600 3771.00 3866.73 61.00
836 12.3700 3738.00 3842.22 61.00
837 12.3800 3758.00 3820.30 61.00
838 12.3900 3729.00 3800.67 61.00
839 12.4000 3682.00 3783.08 61.00
840 12.4100 3673.00 3767.30 61.00
841 12.4200 3670.00 3753.16 61.00
842 12.4300 3654.00 3740.48 60.00
843 12.4400 3675.00 3729.14 61.00
844 12.4500 3665.00 3719.02 61.00
845 12.4600 3655.00 3710.02 60.00
846 12.4700 3614.00 3702.06 60.00
847 12.4800 3661.00 3695.06 61.00
848 12.4900 3639.00 3688.97 60.00
849 12.5000 3648.00 3683.73 60.00
850 12.5100 3662.00 3679.30 61.00
851 12.5200 3660.00 3675.64 60.00
852 12.5300 3591.00 3672.73 60.00
853 12.5400 3631.00 3670.56 60.00
854 12.5500 3596.00 3669.10 60.00
855 12.5600 3632.00 3668.34 60.00
856 12.5700 3632.00 3668.31 60.00
857 12.5800 3642.00 3668.99 60.00
858 12.5900 3598.00 3670.41 60.00
859 12.6000 3649.00 3672.59 60.00
860 12.6100 3655.00 3675.55 60.00
861 12.6200 3675.00 3679.34 61.00
862 12.6300 3658.00 3684.00 60.00
863 12.6400 3674.00 3689.59 61.00
864 12.6500 3660.00 3696.18 60.00
865 12.6600 3705.00 3703.86 61.00
866 12.6700 3711.00 3712.73 61.00
867 12.6800 3689.00 3722.92 61.00
868 12.6900 3734.00 3734.56 61.00
869 12.7000 3704.00 3747.85 61.00
870 12.7100 3731.00 3763.01 61.00
871 12.7200 3774.00 3780.33 61.00
872 12.7300 3800.00 3800.20 62.00
873 12.7400 3816.00 3823.12 62.00
874 12.7500 3876.00 3849.87 62.00
875 12.7600 3897.00 3881.52 62.00
876 12.7700 3922.00 3919.69 63.00
877 12.7800 4019.00 3966.75 63.00
878 12.7900 4066.00 4026.12 64.00
879 12.8000 4134.00 4102.63 64.00
880 12.8100 4264.00 4202.78 65.00
881 12.8200 4379.00 4334.93 66.00
882 12.8300 4503.00 4509.34 67.00
883 12.8400 4679.00 4737.56 68.00
884 12.8500 4918.00 5031.62 70.00
885 12.8600 5261.00 5402.44 73.00
886 12.8700 5644.00 5858.02 75.00
887 12.8800 6064.00 6400.91 78.00
888 12.8900 6549.00 7025.79 81.00
889 12.9000 7277.00 7716.57 85.00
890 12.9100 8011.00 8443.33 90.00
891 12.9200 8797.00 9158.33 94.00
892 12.9300 9636.00 9794.01 98.00
893 12.9400 10206.00 10267.90 101.00
894 12.9500 10455.00 10501.90 102.00
895 12.9600 10581.00 10453.30 103.00
896 12.9700 10143.00 10136.30 101.00
897 12.9800 9530.00 9615.16 98.00
898 12.9900 8777.00 8974.27 94.00
899 13.0000 8081.00 8291.97 90.00
900 13.0100 7457.00 7628.47 86.00
901 13.0200 6970.00 7025.49 83.00
902 13.0300 6521.00 6510.02 81.00
903 13.0400 6215.00 6098.09 79.00
904 13.0500 6089.00 5798.44 78.00
905 13.0600 5944.00 5615.18 77.00
906 13.0700 5903.00 5550.27 77.00
907 13.0800 6033.00 5605.17 78.00
908 13.0900 6107.00 5781.53 78.00
909 13.1000 6368.00 6080.72 80.00
910 13.1100 6731.00 6502.11 82.00
911 13.1200 7137.00 7041.00 84.00
912 13.1300 7702.00 7685.12 88.00
913 13.1400 8458.00 8411.34 92.00
914 13.1500 9208.00 9181.35 96.00
915 13.1600 10057.00 9937.25 100.00
916 13.1700 10862.00 10598.60 104.00
917 13.1800 11390.00 11069.50 107.00
918 13.1900 11548.00 11262.30 107.00
919 13.2000 11412.00 11134.10 107.00
920 13.2100 10713.00 10708.60 104.00
921 13.2200 9869.00 10063.30 99.00
922 13.2300 8976.00 9294.27 95.00
923 13.2400 8066.00 8486.16 90.00
924 13.2500 7234.00 7702.70 85.00
925 13.2600 6613.00 6982.75 81.00
926 13.2700 6087.00 6350.59 78.00
927 13.2800 5602.00 5816.00 75.00
928 13.2900 5312.00 5378.59 73.00
929 13.3000 4981.00 5031.08 71.00
930 13.3100 4796.00 4761.86 69.00
931 13.3200 4629.00 4557.55 68.00
932 13.3300 4525.00 4404.71 67.00
933 13.3400 4395.00 4291.34 66.00
934 13.3500 4360.00 4207.37 66.00
935 13.3600 4269.00 4144.94 65.00
936 13.3700 4167.00 4098.16 65.00
937 13.3800 4133.00 4062.85 64.00
938 13.3900 4097.00 4036.15 64.00
939 13.4000 4066.00 4016.13 64.00
940 13.4100 4064.00 4001.53 64.00
941 13.4200 4047.00 3991.53 64.00
942 13.4300 4002.00 3985.63 63.00
943 13.4400 4025.00 3983.48 63.00
944 13.4500 4027.00 3984.92 63.00
945 13.4600 4031.00 3995.46 63.00
946 13.4700 4045.00 4004.75 64.00
947 13.4800 4050.00 4016.83 64.00
948 13.4900 4028.00 4032.66 63.00
949 13.5000 4091.00 4052.46 64.00
950 13.5100 4090.00 4076.56 64.00
951 13.5200 4122.00 4105.39 64.00
952 13.5300 4193.00 4139.47 65.00
953 13.5400 4194.00 4179.49 65.00
954 13.5500 4226.00 4226.30 65.00
955 13.5600 4285.00 4280.98 65.00
956 13.5700 4346.00 4344.86 66.00
957 13.5800 4462.00 4419.65 67.00
958 13.5900 4566.00 4507.52 68.00
959 13.6000 4660.00 4611.30 68.00
960 13.6100 4783.00 4734.67 69.00
961 13.6200 5025.00 4882.76 71.00
962 13.6300 5218.00 5063.04 72.00
963 13.6400 5492.00 5287.48 74.00
964 13.6500 5890.00 5577.02 77.00
965 13.6600 6326.00 5970.17 80.00
966 13.6700 6945.00 6536.06 83.00
967 13.6800 7932.00 7389.43 89.00
968 13.6900 9186.00 8697.10 96.00
969 13.7000 11034.00 10662.00 105.00
970 13.7100 13702.00 13468.50 117.00
971 13.7200 17109.00 17189.40 131.00
972 13.7300 21117.00 21640.70 145.00
973 13.7400 25777.00 26172.80 161.00
974 13.7500 29247.00 29651.10 171.00
975 13.7600 30950.00 31295.50 176.00
976 13.7700 31404.00 31542.70 177.00
977 13.7800 30943.00 31247.40 176.00
978 13.7900 30479.00 30683.20 175.00
979 13.8000 29899.00 29570.20 173.00
980 13.8100 27969.00 27588.00 167.00
981 13.8200 24940.00 24788.90 158.00
982 13.8300 21295.00 21556.40 146.00
983 13.8400 17825.00 18311.80 134.00
984 13.8500 14640.00 15344.50 121.00
985 13.8600 12322.00 12806.00 111.00
986 13.8700 10385.00 10745.70 102.00
987 13.8800 8939.00 9146.34 95.00
988 13.8900 7924.00 7947.69 89.00
989 13.9000 7074.00 7071.52 84.00
990 13.9100 6405.00 6439.51 80.00
991 13.9200 6010.00 5984.81 78.00
992 13.9300 5616.00 5656.19 75.00
993 13.9400 5393.00 5418.35 73.00
994 13.9500 5242.00 5250.17 72.00
995 13.9600 5091.00 5143.43 71.00
996 13.9700 4998.00 5103.13 71.00
997 13.9800 5095.00 5149.96 71.00
998 13.9900 5225.00 5322.21 72.00
999 14.0000 5573.00 5671.58 75.00
1000 14.0100 6141.00 6247.09 78.00
1001 14.0200 6854.00 7064.58 83.00
1002 14.0300 7817.00 8059.86 88.00
1003 14.0400 8938.00 9009.06 95.00
1004 14.0500 9541.00 9520.46 98.00
1005 14.0600 9407.00 9251.05 97.00
1006 14.0700 8556.00 8348.95 92.00
1007 14.0800 7354.00 7245.53 86.00
1008 14.0900 6238.00 6244.19 79.00
1009 14.1000 5455.00 5463.25 74.00
1010 14.1100 4927.00 4912.47 70.00
1011 14.1200 4581.00 4549.86 68.00
1012 14.1300 4371.00 4318.71 66.00
1013 14.1400 4208.00 4169.43 65.00
1014 14.1500 4079.00 4067.74 64.00
1015 14.1600 4000.00 3993.43 63.00
1016 14.1700 3960.00 3935.71 63.00
1017 14.1800 3885.00 3887.90 62.00
1018 14.1900 3850.00 3849.08 62.00
1019 14.2000 3834.00 3816.28 62.00
1020 14.2100 3807.00 3788.23 62.00
1021 14.2200 3783.00 3764.02 62.00
1022 14.2300 3795.00 3742.95 62.00
1023 14.2400 3764.00 3728.50 61.00
1024 14.2500 3771.00 3712.29 61.00
1025 14.2600 3737.00 3697.96 61.00
1026 14.2700 3730.00 3685.25 61.00
1027 14.2800 3734.00 3673.95 61.00
1028 14.2900 3758.00 3663.88 61.00
1029 14.3000 3761.00 3654.91 61.00
1030 14.3100 3798.00 3646.91 62.00
1031 14.3200 3785.00 3643.42 62.00
1032 14.3300 3732.00 3637.14 61.00
1033 14.3400 3749.00 3631.59 61.00
1034 14.3500 3755.00 3626.72 61.00
1035 14.3600 3743.00 3622.49 61.00
1036 14.3700 3792.00 3618.84 62.00
1037 14.3800 3719.00 3615.76 61.00
1038 14.3900 3682.00 3613.22 61.00
1039 14.4000 3711.00 3611.19 61.00
1040 14.4100 3678.00 3609.67 61.00
1041 14.4200 3704.00 3608.64 61.00
1042 14.4300 3729.00 3608.09 61.00
1043 14.4400 3695.00 3608.03 61.00
1044 14.4500 3673.00 3608.46 61.00
1045 14.4600 3705.00 3609.39 61.00
1046 14.4700 3671.00 3610.82 61.00
1047 14.4800 3694.00 3612.77 61.00
1048 14.4900 3730.00 3615.28 61.00
1049 14.5000 3726.00 3618.36 61.00
1050 14.5100 3719.00 3622.07 61.00
1051 14.5200 3745.00 3626.44 61.00
1052 14.5300 3720.00 3631.54 61.00
1053 14.5400 3725.00 3637.48 61.00
1054 14.5500 3776.00 3644.39 61.00
1055 14.5600 3751.00 3652.47 61.00
1056 14.5700 3754.00 3661.98 61.00
1057 14.5800 3773.00 3673.29 61.00
1058 14.5900 3782.00 3686.86 61.00
1059 14.6000 3813.00 3703.21 62.00
1060 14.6100 3853.00 3722.86 62.00
1061 14.6200 3850.00 3746.24 62.00
1062 14.6300 3864.00 3773.55 62.00
1063 14.6400 3931.00 3804.59 63.00
1064 14.6500 3940.00 3838.58 63.00
1065 14.6600 3976.00 3873.85 63.00
1066 14.6700 4033.00 3907.80 64.00
1067 14.6800 4007.00 3937.74 63.00
1068 14.6900 4048.00 3962.70 64.00
1069 14.7000 4053.00 3984.74 64.00
1070 14.7100 4071.00 4007.81 64.00
1071 14.7200 4159.00 4036.11 64.00
1072 14.7300 4238.00 4073.44 65.00
1073 14.7400 4266.00 4123.59 65.00
1074 14.7500 4347.00 4191.17 66.00
1075 14.7600 4514.00 4282.37 67.00
1076 14.7700 4618.00 4405.99 68.00
1077 14.7800 4824.00 4574.06 69.00
1078 14.7900 5050.00 4802.35 71.00
1079 14.8000 5317.00 5110.06 73.00
1080 14.8100 5702.00 5518.20 76.00
1081 14.8200 6254.00 6047.34 79.00
1082 14.8300 6847.00 6713.87 83.00
1083 14.8400 7682.00 7524.85 88.00
1084 14.8500 8650.00 8473.04 93.00
1085 14.8600 9732.00 9527.93 99.00
1086 14.8700 10892.00 10626.60 104.00
1087 14.8800 12148.00 11666.00 110.00
1088 14.8900 13002.00 12516.90 114.00
1089 14.9000 13457.00 13077.10 116.00
1090 14.9100 13544.00 13334.80 116.00
1091 14.9200 13275.00 13374.40 115.00
1092 14.9300 12949.00 13311.20 114.00
1093 14.9400 12990.00 13219.00 114.00
1094 14.9500 12964.00 13094.50 114.00
1095 14.9600 12960.00 12854.40 114.00
1096 14.9700 12524.00 12371.50 112.00
1097 14.9800 11616.00 11594.80 108.00
1098 14.9900 10445.00 10622.80 102.00
1099 15.0000 9374.00 9595.07 97.00
1100 15.0100 8343.00 8611.03 91.00
1101 15.0200 7439.00 7723.68 86.00
1102 15.0300 6721.00 6954.28 82.00
1103 15.0400 6119.00 6305.34 78.00
1104 15.0500 5644.00 5770.74 75.00
1105 15.0600 5338.00 5340.35 73.00
1106 15.0700 5053.00 5001.13 71.00
1107 15.0800 4862.00 4738.65 70.00
1108 15.0900 4720.00 4538.26 69.00
1109 15.1000 4554.00 4386.36 67.00
1110 15.1100 4367.00 4271.08 66.00
1111 15.1200 4326.00 4182.85 66.00
1112 15.1300 4241.00 4114.35 65.00
1113 15.1400 4183.00 4060.21 65.00
1114 15.1500 4155.00 4016.69 64.00
1115 15.1600 4097.00 3981.18 64.00
1116 15.1700 4033.00 3951.93 64.00
1117 15.1800 4037.00 3927.77 64.00
1118 15.1900 4002.00 3907.87 63.00
1119 15.2000 4003.00 3891.66 63.00
1120 15.2100 4003.00 3878.71 63.00
1121 15.2200 3960.00 3868.74 63.00
1122 15.2300 3927.00 3861.51 63.00
1123 15.2400 3974.00 3856.87 63.00
1124 15.2500 3944.00 3854.73 63.00
1125 15.2600 3948.00 3855.03 63.00
1126 15.2700 3985.00 3857.77 63.00
1127 15.2800 3965.00 3863.00 63.00
1128 15.2900 3957.00 3870.83 63.00
1129 15.3000 4000.00 3881.42 63.00
1130 15.3100 4003.00 3895.01 63.00
1131 15.3200 4021.00 3911.98 63.00
1132 15.3300 4093.00 3932.86 64.00
1133 15.3400 4109.00 3958.49 64.00
1134 15.3500 4131.00 3990.18 64.00
1135 15.3600 4214.00 4029.99 65.00
1136 15.3700 4247.00 4081.04 65.00
1137 15.3800 4328.00 4147.80 66.00
1138 15.3900 4476.00 4236.30 67.00
1139 15.4000 4558.00 4354.84 68.00
1140 15.4100 4695.00 4509.22 69.00
1141 15.4200 4937.00 4707.67 70.00
1142 15.4300 5158.00 4954.35 72.00
1143 15.4400 5438.00 5247.22 74.00
1144 15.4500 5820.00 5574.55 76.00
1145 15.4600 6115.00 5917.40 78.00
1146 15.4700 6444.00 6261.31 80.00
1147 15.4800 6823.00 6601.36 83.00
1148 15.4900 7171.00 6927.09 85.00
1149 15.5000 7449.00 7208.38 86.00
1150 15.5100 7699.00 7402.56 88.00
1151 15.5200 7626.00 7481.00 87.00
1152 15.5300 7492.00 7455.41 87.00
1153 15.5400 7404.00 7377.02 86.00
1154 15.5500 7296.00 7314.61 85.00
1155 15.5600 7366.00 7340.20 86.00
1156 15.5700 7751.00 7534.94 88.00
1157 15.5800 8292.00 8008.44 91.00
1158 15.5900 9165.00 8920.05 96.00
1159 15.6000 10734.00 10486.50 104.00
1160 15.6100 12889.00 12959.50 114.00
1161 15.6200 16322.00 16556.20 128.00
1162 15.6300 20956.00 21336.20 145.00
1163 15.6400 26463.00 27017.20 163.00
1164 15.6500 32089.00 32672.80 179.00
1165 15.6600 36536.00 36494.50 191.00
1166 15.6700 36808.00 36579.50 192.00
1167 15.6800 33331.00 32863.90 183.00
1168 15.6900 27288.00 27198.90 165.00
1169 15.7000 21097.00 21426.00 145.00
1170 15.7100 15945.00 16507.10 126.00
1171 15.7200 12453.00 12743.90 112.00
1172 15.7300 9891.00 10079.60 99.00
1173 15.7400 8276.00 8295.08 91.00
1174 15.7500 7126.00 7134.08 84.00
1175 15.7600 6285.00 6375.45 79.00
1176 15.7700 5749.00 5862.18 76.00
1177 15.7800 5348.00 5496.10 73.00
1178 15.7900 5007.00 5221.18 71.00
1179 15.8000 4787.00 5006.64 69.00
1180 15.8100 4628.00 4835.00 68.00
1181 15.8200 4448.00 4695.78 67.00
1182 15.8300 4361.00 4581.92 66.00
1183 15.8400 4332.00 4485.96 66.00
1184 15.8500 4253.00 4409.58 65.00
1185 15.8600 4186.00 4347.52 65.00
1186 15.8700 4187.00 4297.85 65.00
1187 15.8800 4138.00 4259.21 64.00
1188 15.8900 4100.00 4230.75 64.00
1189 15.9000 4109.00 4212.08 64.00
1190 15.9100 4127.00 4203.37 64.00
1191 15.9200 4128.00 4205.56 64.00
1192 15.9300 4216.00 4220.79 65.00
1193 15.9400 4218.00 4253.19 65.00
1194 15.9500 4289.00 4309.95 65.00
1195 15.9600 4412.00 4402.59 66.00
1196 15.9700 4567.00 4547.82 68.00
1197 15.9800 4823.00 4767.26 69.00
1198 15.9900 5178.00 5084.85 72.00
1199 16.0000 5513.00 5521.17 74.00
1200 16.0100 6047.00 6085.36 78.00
1201 16.0200 6753.00 6763.52 82.00
1202 16.0300 7480.00 7501.17 86.00
1203 16.0400 8149.00 8181.14 90.00
1204 16.0500 8606.00 8619.78 93.00
1205 16.0600 8609.00 8649.04 93.00
1206 16.0700 8160.00 8256.39 90.00
1207 16.0800 7549.00 7596.79 87.00
1208 16.0900 6725.00 6860.61 82.00
1209 16.1000 6092.00 6173.43 78.00
1210 16.1100 5529.00 5596.53 74.00
1211 16.1200 5094.00 5147.86 71.00
1212 16.1300 4778.00 4820.91 69.00
1213 16.1400 4591.00 4595.94 68.00
1214 16.1500 4480.00 4449.58 67.00
1215 16.1600 4392.00 4360.12 66.00
1216 16.1700 4351.00 4310.77 66.00
1217 16.1800 4301.00 4290.28 66.00
1218 16.1900 4287.00 4292.34 65.00
1219 16.2000 4392.00 4314.65 66.00
1220 16.2100 4392.00 4358.29 66.00
1221 16.2200 4455.00 4427.94 67.00
1222 16.2300 4594.00 4532.90 68.00
1223 16.2400 4718.00 4688.92 69.00
1224 16.2500 4887.00 4920.30 70.00
1225 16.2600 5257.00 5260.02 73.00
1226 16.2700 5667.00 5746.43 75.00
1227 16.2800 6243.00 6413.04 79.00
1228 16.2900 7102.00 7272.54 84.00
1229 16.3000 8005.00 8288.94 89.00
1230 16.3100 9045.00 9338.50 95.00
1231 16.3200 9969.00 10202.90 100.00
1232 16.3300 10614.00 10726.00 103.00
1233 16.3400 10996.00 10964.40 105.00
1234 16.3500 11311.00 11041.20 106.00
1235 16.3600 11339.00 10985.40 106.00
1236 16.3700 11168.00 10761.70 106.00
1237 16.3800 10696.00 10354.80 103.00
1238 16.3900 10006.00 9808.21 100.00
1239 16.4000 9317.00 9205.94 97.00
1240 16.4100 8568.00 8636.01 93.00
1241 16.4200 8064.00 8169.38 90.00
1242 16.4300 7703.00 7856.69 88.00
1243 16.4400 7729.00 7728.00 88.00
1244 16.4500 7803.00 7790.96 88.00
1245 16.4600 8119.00 8024.02 90.00
1246 16.4700 8674.00 8365.11 93.00
1247 16.4800 9034.00 8699.97 95.00
1248 16.4900 9224.00 8852.71 96.00
1249 16.5000 9133.00 8684.84 96.00
1250 16.5100 8563.00 8202.57 93.00
1251 16.5200 7764.00 7543.32 88.00
1252 16.5300 6906.00 6850.65 83.00
1253 16.5400 6169.00 6212.79 79.00
1254 16.5500 5608.00 5670.07 75.00
1255 16.5600 5268.00 5232.01 73.00
1256 16.5700 4894.00 4891.58 70.00
1257 16.5800 4665.00 4633.91 68.00
1258 16.5900 4483.00 4441.90 67.00
1259 16.6000 4340.00 4299.93 66.00
1260 16.6100 4181.00 4194.92 65.00
1261 16.6200 4197.00 4116.77 65.00
1262 16.6300 4106.00 4057.95 64.00
1263 16.6400 4008.00 4013.07 63.00
1264 16.6500 4012.00 3978.37 63.00
1265 16.6600 3958.00 3951.34 63.00
1266 16.6700 3911.00 3930.25 63.00
1267 16.6800 3910.00 3910.89 63.00
1268 16.6900 3939.00 3898.74 63.00
1269 16.7000 3900.00 3890.08 62.00
1270 16.7100 3914.00 3883.86 63.00
1271 16.7200 3890.00 3881.59 62.00
1272 16.7300 3895.00 3882.21 62.00
1273 16.7400 3909.00 3885.67 63.00
1274 16.7500 3933.00 3891.97 63.00
1275 16.7600 3923.00 3901.18 63.00
1276 16.7700 3973.00 3913.42 63.00
1277 16.7800 3938.00 3928.87 63.00
1278 16.7900 3938.00 3947.79 63.00
1279 16.8000 3992.00 3970.54 63.00
1280 16.8100 4020.00 3997.52 63.00
1281 16.8200 4061.00 4029.31 64.00
1282 16.8300 4150.00 4066.57 64.00
1283 16.8400 4149.00 4111.36 64.00
1284 16.8500 4180.00 4162.43 65.00
1285 16.8600 4301.00 4222.43 66.00
1286 16.8700 4373.00 4293.34 66.00
1287 16.8800 4465.00 4378.05 67.00
1288 16.8900 4663.00 4480.87 68.00
1289 16.9000 4753.00 4608.49 69.00
1290 16.9100 4950.00 4771.21 70.00
1291 16.9200 5268.00 4983.89 73.00
1292 16.9300 5574.00 5271.81 75.00
1293 16.9400 5997.00 5666.58 77.00
1294 16.9500 6519.00 6210.40 81.00
1295 16.9600 7171.00 6953.46 85.00
1296 16.9700 7991.00 7949.07 89.00
1297 16.9800 9147.00 9242.15 96.00
1298 16.9900 10533.00 10856.70 103.00
1299 17.0000 12333.00 12777.90 111.00
1300 17.0100 14461.00 14940.20 120.00
1301 17.0200 16624.00 17204.30 129.00
1302 17.0300 18722.00 19322.70 137.00
1303 17.0400 20704.00 20915.40 144.00
1304 17.0500 21458.00 21565.70 146.00
1305 17.0600 21134.00 21055.10 145.00
1306 17.0700 19540.00 19532.20 140.00
1307 17.0800 17183.00 17402.20 131.00
1308 17.0900 14555.00 15078.60 121.00
1309 17.1000 12334.00 12852.20 111.00
1310 17.1100 10338.00 10882.80 102.00
1311 17.1200 8837.00 9239.35 94.00
1312 17.1300 7734.00 7929.94 88.00
1313 17.1400 6811.00 6925.23 83.00
1314 17.1500 6113.00 6177.30 78.00
1315 17.1600 5631.00 5631.04 75.00
1316 17.1700 5197.00 5234.91 72.00
1317 17.1800 4896.00 4945.52 70.00
1318 17.1900 4654.00 4729.95 68.00
1319 17.2000 4474.00 4564.66 67.00
1320 17.2100 4299.00 4433.95 66.00
1321 17.2200 4198.00 4327.46 65.00
1322 17.2300 4132.00 4238.70 64.00
1323 17.2400 4012.00 4163.38 63.00
1324 17.2500 3953.00 4098.67 63.00
1325 17.2600 3883.00 4042.54 62.00
1326 17.2700 3820.00 3993.54 62.00
1327 17.2800 3773.00 3950.49 61.00
1328 17.2900 3739.00 3912.51 61.00
1329 17.3000 3726.00 3878.86 61.00
1330 17.3100 3723.00 3848.92 61.00
1331 17.3200 3677.00 3822.21 61.00
1332 17.3300 3658.00 3798.31 60.00
1333 17.3400 3665.00 3776.86 61.00
1334 17.3500 3622.00 3757.57 60.00
1335 17.3600 3616.00 3740.20 60.00
1336 17.3700 3622.00 3724.53 60.00
1337 17.3800 3582.00 3710.38 60.00
1338 17.3900 3530.00 3697.59 59.00
1339 17.4000 3576.00 3686.05 60.00
1340 17.4100 3579.00 3675.62 60.00
1341 17.4200 3570.00 3666.22 60.00
1342 17.4300 3594.00 3657.76 60.00
1343 17.4400 3553.00 3650.18 60.00
1344 17.4500 3517.00 3644.10 59.00
1345 17.4600 3540.00 3638.11 59.00
1346 17.4700 3553.00 3632.86 60.00
1347 17.4800 3535.00 3628.32 59.00
1348 17.4900 3532.00 3624.46 59.00
1349 17.5000 3523.00 3621.28 59.00
1350 17.5100 3516.00 3618.77 59.00
1351 17.5200 3540.00 3616.90 59.00
1352 17.5300 3522.00 3615.78 59.00
1353 17.5400 3511.00 3615.39 59.00
1354 17.5500 3552.00 3615.78 60.00
1355 17.5600 3554.00 3617.01 60.00
1356 17.5700 3532.00 3619.17 59.00
1357 17.5800 3556.00 3622.39 60.00
1358 17.5900 3550.00 3626.81 60.00
1359 17.6000 3571.00 3632.70 60.00
1360 17.6100 3595.00 3640.38 60.00
1361 17.6200 3555.00 3650.47 60.00
1362 17.6300 3560.00 3663.83 60.00
1363 17.6400 3599.00 3681.86 60.00
1364 17.6500 3627.00 3706.64 60.00
1365 17.6600 3645.00 3741.15 60.00
1366 17.6700 3704.00 3789.26 61.00
1367 17.6800 3744.00 3855.52 61.00
1368 17.6900 3800.00 3944.54 62.00
1369 17.7000 3938.00 4059.99 63.00
1370 17.7100 4058.00 4202.90 64.00
1371 17.7200 4227.00 4369.34 65.00
1372 17.7300 4443.00 4548.94 67.00
1373 17.7400 4625.00 4727.63 68.00
1374 17.7500 4817.00 4892.20 69.00
1375 17.7600 4997.00 5025.79 71.00
1376 17.7700 5091.00 5103.53 71.00
1377 17.7800 5106.00 5102.37 71.00
1378 17.7900 5020.00 5018.83 71.00
1379 17.8000 4834.00 4873.55 70.00
1380 17.8100 4568.00 4697.77 68.00
1381 17.8200 4382.00 4518.79 66.00
1382 17.8300 4209.00 4354.33 65.00
1383 17.8400 4115.00 4214.14 64.00
1384 17.8500 4023.00 4102.40 63.00
1385 17.8600 3927.00 4020.03 63.00
1386 17.8700 3882.00 3966.12 62.00
1387 17.8800 3899.00 3933.72 62.00
1388 17.8900 3890.00 3933.10 62.00
1389 17.9000 3905.00 3958.93 62.00
1390 17.9100 3969.00 4012.97 63.00
1391 17.9200 4012.00 4098.20 63.00
1392 17.9300 4105.00 4218.15 64.00
1393 17.9400 4283.00 4375.83 65.00
1394 17.9500 4475.00 4572.24 67.00
1395 17.9600 4696.00 4804.82 69.00
1396 17.9700 5003.00 5065.18 71.00
1397 17.9800 5275.00 5336.28 73.00
1398 17.9900 5547.00 5589.29 74.00
1399 18.0000 5859.00 5783.47 77.00
1400 18.0100 5994.00 5875.51 77.00
1401 18.0200 5938.00 5840.22 77.00
1402 18.0300 5771.00 5692.24 76.00
1403 18.0400 5405.00 5456.90 74.00
1404 18.0500 5037.00 5183.94 71.00
1405 18.0600 4769.00 4908.33 69.00
1406 18.0700 4511.00 4652.49 67.00
1407 18.0800 4251.00 4428.55 65.00
1408 18.0900 4104.00 4241.19 64.00
1409 18.1000 3975.00 4090.38 63.00
1410 18.1100 3862.00 3972.92 62.00
1411 18.1200 3793.00 3884.04 62.00
1412 18.1300 3684.00 3818.40 61.00
1413 18.1400 3698.00 3769.99 61.00
1414 18.1500 3682.00 3736.78 61.00
1415 18.1600 3619.00 3714.71 60.00
1416 18.1700 3594.00 3701.83 60.00
1417 18.1800 3593.00 3697.05 60.00
1418 18.1900 3594.00 3699.82 60.00
1419 18.2000 3624.00 3709.74 60.00
1420 18.2100 3667.00 3726.08 61.00
1421 18.2200 3674.00 3747.26 61.00
1422 18.2300 3645.00 3770.09 60.00
1423 18.2400 3721.00 3789.10 61.00
1424 18.2500 3737.00 3797.22 61.00
1425 18.2600 3725.00 3789.50 61.00
1426 18.2700 3714.00 3767.04 61.00
1427 18.2800 3655.00 3735.88 60.00
1428 18.2900 3625.00 3702.55 60.00
1429 18.3000 3617.00 3671.42 60.00
1430 18.3100 3564.00 3644.64 60.00
1431 18.3200 3545.00 3622.93 60.00
1432 18.3300 3541.00 3606.14 60.00
1433 18.3400 3536.00 3593.66 59.00
1434 18.3500 3510.00 3584.65 59.00
1435 18.3600 3523.00 3578.30 59.00
1436 18.3700 3468.00 3573.90 59.00
1437 18.3800 3504.00 3570.91 59.00
1438 18.3900 3489.00 3568.94 59.00
1439 18.4000 3464.00 3567.75 59.00
1440 18.4100 3450.00 3567.17 59.00
1441 18.4200 3483.00 3566.64 59.00
1442 18.4300 3473.00 3567.07 59.00
1443 18.4400 3489.00 3567.94 59.00
1444 18.4500 3495.00 3569.26 59.00
1445 18.4600 3499.00 3571.02 59.00
1446 18.4700 3453.00 3573.26 59.00
1447 18.4800 3499.00 3576.00 59.00
1448 18.4900 3514.00 3579.30 59.00
1449 18.5000 3459.00 3582.36 59.00
1450 18.5100 3505.00 3587.04 59.00
1451 18.5200 3497.00 3592.60 59.00
1452 18.5300 3492.00 3599.27 59.00
1453 18.5400 3539.00 3607.36 59.00
1454 18.5500 3538.00 3617.44 59.00
1455 18.5600 3546.00 3630.48 60.00
1456 18.5700 3578.00 3648.20 60.00
1457 18.5800 3557.00 3673.44 60.00
1458 18.5900 3614.00 3710.38 60.00
1459 18.6000 3655.00 3764.32 60.00
1460 18.6100 3728.00 3840.58 61.00
1461 18.6200 3822.00 3942.25 62.00
1462 18.6300 3900.00 4066.43 62.00
1463 18.6400 4036.00 4197.41 64.00
1464 18.6500 4144.00 4297.58 64.00
1465 18.6600 4230.00 4321.94 65.00
1466 18.6700 4156.00 4258.71 64.00
1467 18.6800 4122.00 4146.62 64.00
1468 18.6900 3978.00 4029.95 63.00
1469 18.7000 3839.00 3932.09 62.00
1470 18.7100 3763.00 3860.07 61.00
1471 18.7200 3748.00 3812.64 61.00
1472 18.7300 3698.00 3785.22 61.00
1473 18.7400 3677.00 3772.09 61.00
1474 18.7500 3687.00 3769.59 61.00
1475 18.7600 3674.00 3778.47 61.00
1476 18.7700 3660.00 3788.19 60.00
1477 18.7800 3718.00 3802.76 61.00
1478 18.7900 3706.00 3821.65 61.00
1479 18.8000 3734.00 3845.07 61.00
1480 18.8100 3803.00 3873.63 62.00
1481 18.8200 3792.00 3908.31 62.00
1482 18.8300 3823.00 3950.75 62.00
1483 18.8400 3894.00 4003.57 62.00
1484 18.8500 3950.00 4071.10 63.00
1485 18.8600 4016.00 4160.16 63.00
1486 18.8700 4175.00 4281.23 65.00
1487 18.8800 4315.00 4449.09 66.00
1488 18.8900 4486.00 4683.08 67.00
1489 18.9000 4790.00 5005.16 69.00
1490 18.9100 5155.00 5436.68 72.00
1491 18.9200 5700.00 5991.90 75.00
1492 18.9300 6397.00 6670.03 80.00
1493 18.9400 7164.00 7441.36 85.00
1494 18.9500 8125.00 8227.77 90.00
1495 18.9600 9036.00 8882.27 95.00
1496 18.9700 9592.00 9215.96 98.00
1497 18.9800 9506.00 9110.79 97.00
1498 18.9900 8959.00 8626.12 95.00
1499 19.0000 8076.00 7944.49 90.00
1500 19.0100 7161.00 7240.84 85.00
1501 19.0200 6520.00 6624.18 81.00
1502 19.0300 6039.00 6149.40 78.00
1503 19.0400 5801.00 5839.97 76.00
1504 19.0500 5700.00 5704.65 75.00
1505 19.0600 5711.00 5746.25 76.00
1506 19.0700 5889.00 5966.13 77.00
1507 19.0800 6282.00 6363.59 79.00
1508 19.0900 6782.00 6930.49 82.00
1509 19.1000 7558.00 7641.35 87.00
1510 19.1100 8551.00 8434.85 92.00
1511 19.1200 9429.00 9190.01 97.00
1512 19.1300 10121.00 9717.90 101.00
1513 19.1400 10393.00 9832.37 102.00
1514 19.1500 9975.00 9487.75 100.00
1515 19.1600 9086.00 8822.23 95.00
1516 19.1700 8104.00 8039.50 90.00
1517 19.1800 7253.00 7295.76 85.00
1518 19.1900 6557.00 6677.43 81.00
1519 19.2000 6131.00 6223.49 78.00
1520 19.2100 5833.00 5945.43 76.00
1521 19.2200 5774.00 5840.17 76.00
1522 19.2300 5823.00 5897.18 76.00
1523 19.2400 6018.00 6101.98 78.00
1524 19.2500 6279.00 6436.73 79.00
1525 19.2600 6786.00 6877.11 82.00
1526 19.2700 7320.00 7386.48 86.00
1527 19.2800 8000.00 7905.68 89.00
1528 19.2900 8627.00 8346.26 93.00
1529 19.3000 8914.00 8600.46 94.00
1530 19.3100 8919.00 8585.87 94.00
1531 19.3200 8640.00 8297.26 93.00
1532 19.3300 8038.00 7809.47 90.00
1533 19.3400 7269.00 7226.92 85.00
1534 19.3500 6615.00 6635.68 81.00
1535 19.3600 5978.00 6089.99 77.00
1536 19.3700 5513.00 5617.18 74.00
1537 19.3800 5151.00 5226.85 72.00
1538 19.3900 4856.00 4917.36 70.00
1539 19.4000 4667.00 4680.33 68.00
1540 19.4100 4487.00 4504.19 67.00
1541 19.4200 4360.00 4376.55 66.00
1542 19.4300 4244.00 4286.16 65.00
1543 19.4400 4240.00 4223.78 65.00
1544 19.4500 4172.00 4182.49 65.00
1545 19.4600 4161.00 4157.51 65.00
1546 19.4700 4168.00 4145.80 65.00
1547 19.4800 4132.00 4145.61 64.00
1548 19.4900 4102.00 4156.08 64.00
1549 19.5000 4172.00 4176.95 65.00
1550 19.5100 4178.00 4208.31 65.00
1551 19.5200 4270.00 4250.53 65.00
1552 19.5300 4326.00 4304.11 66.00
1553 19.5400 4347.00 4369.63 66.00
1554 19.5500 4382.00 4447.55 66.00
1555 19.5600 4503.00 4538.11 67.00
1556 19.5700 4618.00 4640.91 68.00
1557 19.5800 4726.00 4754.98 69.00
1558 19.5900 4902.00 4876.62 70.00
1559 19.6000 4996.00 5001.09 71.00
1560 19.6100 5144.00 5120.29 72.00
1561 19.6200 5291.00 5223.77 73.00
1562 19.6300 5369.00 5303.29 73.00
1563 19.6400 5430.00 5359.32 74.00
1564 19.6500 5433.00 5402.86 74.00
1565 19.6600 5437.00 5448.94 74.00
1566 19.6700 5415.00 5514.14 74.00
1567 19.6800 5491.00 5614.76 74.00
1568 19.6900 5583.00 5756.53 75.00
1569 19.7000 5769.00 5946.47 76.00
1570 19.7100 6010.00 6178.47 78.00
1571 19.7200 6255.00 6431.28 79.00
1572 19.7300 6527.00 6661.84 81.00
1573 19.7400 6705.00 6808.45 82.00
1574 19.7500 6778.00 6817.41 82.00
1575 19.7600 6660.00 6683.17 82.00
1576 19.7700 6479.00 6455.20 80.00
1577 19.7800 6153.00 6201.94 78.00
1578 19.7900 5904.00 5976.49 77.00
1579 19.8000 5794.00 5811.91 76.00
1580 19.8100 5714.00 5721.32 76.00
1581 19.8200 5748.00 5707.75 76.00
1582 19.8300 5852.00 5767.77 76.00
1583 19.8400 5902.00 5896.80 77.00
1584 19.8500 6058.00 6096.09 78.00
1585 19.8600 6322.00 6376.68 80.00
1586 19.8700 6640.00 6751.32 81.00
1587 19.8800 7081.00 7214.57 84.00
1588 19.8900 7626.00 7713.86 87.00
1589 19.9000 8140.00 8123.81 90.00
1590 19.9100 8398.00 8277.77 92.00
1591 19.9200 8395.00 8105.07 92.00
1592 19.9300 8033.00 7725.02 90.00
1593 19.9400 7616.00 7348.11 87.00
1594 19.9500 7395.00 7149.63 86.00
1595 19.9600 7382.00 7239.86 86.00
1596 19.9700 7698.00 7666.73 88.00
1597 19.9800 8429.00 8394.24 92.00
1598 19.9900 9210.00 9233.80 96.00
1599 20.0000 9783.00 9769.55 99.00
1600 20.0100 9731.00 9584.72 99.00
1601 20.0200 8936.00 8764.27 95.00
1602 20.0300 7867.00 7752.24 89.00
1603 20.0400 6941.00 6862.18 83.00
1604 20.0500 6174.00 6199.24 79.00
1605 20.0600 5694.00 5759.26 75.00
1606 20.0700 5418.00 5493.76 74.00
1607 20.0800 5201.00 5345.15 72.00
1608 20.0900 5158.00 5263.91 72.00
1609 20.1000 5141.00 5212.09 72.00
1610 20.1100 5093.00 5173.16 71.00
1611 20.1200 5103.00 5131.40 71.00
1612 20.1300 5075.00 5080.39 71.00
1613 20.1400 4962.00 5018.20 70.00
1614 20.1500 4850.00 4946.00 70.00
1615 20.1600 4780.00 4866.69 69.00
1616 20.1700 4681.00 4783.90 68.00
1617 20.1800 4584.00 4701.11 68.00
1618 20.1900 4524.00 4621.39 67.00
1619 20.2000 4423.00 4547.15 67.00
1620 20.2100 4398.00 4480.32 66.00
1621 20.2200 4354.00 4422.30 66.00
1622 20.2300 4341.00 4374.22 66.00
1623 20.2400 4304.00 4336.95 66.00
1624 20.2500 4328.00 4311.35 66.00
1625 20.2600 4274.00 4298.39 65.00
1626 20.2700 4277.00 4299.51 65.00
1627 20.2800 4329.00 4317.04 66.00
1628 20.2900 4346.00 4354.85 66.00
1629 20.3000 4427.00 4418.99 67.00
1630 20.3100 4544.00 4518.53 67.00
1631 20.3200 4685.00 4665.80 68.00
1632 20.3300 4817.00 4876.19 69.00
1633 20.3400 5062.00 5166.49 71.00
1634 20.3500 5377.00 5552.23 73.00
1635 20.3600 5873.00 6042.91 77.00
1636 20.3700 6469.00 6636.19 80.00
1637 20.3800 7155.00 7307.54 85.00
1638 20.3900 7931.00 7996.69 89.00
1639 20.4000 8705.00 8591.20 93.00
1640 20.4100 9177.00 8940.02 96.00
1641 20.4200 9216.00 8926.26 96.00
1642 20.4300 8817.00 8557.74 94.00
1643 20.4400 8085.00 7960.29 90.00
1644 20.4500 7230.00 7283.47 85.00
1645 20.4600 6579.00 6634.46 81.00
1646 20.4700 5974.00 6069.53 77.00
1647 20.4800 5502.00 5610.73 74.00
1648 20.4900 5226.00 5259.95 72.00
1649 20.5000 5009.00 5007.60 71.00
1650 20.5100 4836.00 4839.17 70.00
1651 20.5200 4783.00 4739.10 69.00
1652 20.5300 4698.00 4693.76 69.00
1653 20.5400 4720.00 4692.51 69.00
1654 20.5500 4720.00 4728.01 69.00
1655 20.5600 4752.00 4795.57 69.00
1656 20.5700 4803.00 4892.32 69.00
1657 20.5800 4949.00 5016.37 70.00
1658 20.5900 5051.00 5165.93 71.00
1659 20.6000 5204.00 5338.88 72.00
1660 20.6100 5490.00 5532.06 74.00
1661 20.6200 5647.00 5741.01 75.00
1662 20.6300 5892.00 5959.22 77.00
1663 20.6400 6180.00 6178.08 79.00
1664 20.6500 6469.00 6386.24 80.00
1665 20.6600 6737.00 6570.00 82.00
1666 20.6700 7029.00 6714.79 84.00
1667 20.6800 7086.00 6807.53 84.00
1668 20.6900 7125.00 6840.17 84.00
1669 20.7000 7065.00 6812.14 84.00
1670 20.7100 6884.00 6730.86 83.00
1671 20.7200 6639.00 6609.59 81.00
1672 20.7300 6416.00 6464.11 80.00
1673 20.7400 6173.00 6309.79 79.00
1674 20.7500 5959.00 6159.54 77.00
1675 20.7600 5823.00 6023.31 76.00
1676 20.7700 5736.00 5907.91 76.00
1677 20.7800 5649.00 5817.41 75.00
1678 20.7900 5637.00 5753.26 75.00
1679 20.8000 5563.00 5714.64 75.00
1680 20.8100 5583.00 5698.52 75.00
1681 20.8200 5692.00 5700.13 75.00
1682 20.8300 5686.00 5713.38 75.00
1683 20.8400 5795.00 5731.40 76.00
1684 20.8500 5900.00 5747.70 77.00
1685 20.8600 5880.00 5755.80 77.00
1686 20.8700 5867.00 5749.98 77.00
1687 20.8800 5924.00 5725.55 77.00
1688 20.8900 5799.00 5679.52 76.00
1689 20.9000 5751.00 5611.44 76.00
1690 20.9100 5646.00 5523.81 75.00
1691 20.9200 5467.00 5421.72 74.00
1692 20.9300 5295.00 5311.93 73.00
1693 20.9400 5206.00 5201.57 72.00
1694 20.9500 5062.00 5097.51 71.00
1695 20.9600 4946.00 5005.45 70.00
1696 20.9700 4883.00 4930.83 70.00
1697 20.9800 4813.00 4877.17 69.00
1698 20.9900 4791.00 4846.63 69.00
1699 21.0000 4828.00 4838.73 69.00
1700 21.0100 4859.00 4848.99 70.00
1701 21.0200 4911.00 4867.50 70.00
1702 21.0300 4942.00 4878.36 70.00
1703 21.0400 4906.00 4862.76 70.00
1704 21.0500 4833.00 4810.89 70.00
1705 21.0600 4802.00 4734.92 69.00
1706 21.0700 4714.00 4663.81 69.00
1707 21.0800 4662.00 4615.29 68.00
1708 21.0900 4696.00 4608.35 69.00
1709 21.1000 4731.00 4656.32 69.00
1710 21.1100 4803.00 4772.34 69.00
1711 21.1200 4959.00 4969.18 70.00
1712 21.1300 5201.00 5256.54 72.00
1713 21.1400 5573.00 5635.35 75.00
1714 21.1500 6067.00 6087.42 78.00
1715 21.1600 6476.00 6556.65 80.00
1716 21.1700 6868.00 6930.73 83.00
1717 21.1800 7207.00 7067.00 85.00
1718 21.1900 7072.00 6899.54 84.00
1719 21.2000 6764.00 6507.37 82.00
1720 21.2100 6310.00 6033.13 79.00
1721 21.2200 5791.00 5581.96 76.00
1722 21.2300 5315.00 5203.63 73.00
1723 21.2400 5037.00 4911.65 71.00
1724 21.2500 4844.00 4701.56 70.00
1725 21.2600 4669.00 4560.60 68.00
1726 21.2700 4576.00 4473.93 68.00
1727 21.2800 4526.00 4428.12 67.00
1728 21.2900 4479.00 4413.03 67.00
1729 21.3000 4483.00 4422.20 67.00
1730 21.3100 4540.00 4452.59 67.00
1731 21.3200 4605.00 4504.00 68.00
1732 21.3300 4727.00 4578.71 69.00
1733 21.3400 4784.00 4681.36 69.00
1734 21.3500 4862.00 4818.60 70.00
1735 21.3600 5082.00 5000.94 71.00
1736 21.3700 5327.00 5240.34 73.00
1737 21.3800 5625.00 5551.30 75.00
1738 21.3900 5928.00 5948.51 77.00
1739 21.4000 6359.00 6441.95 80.00
1740 21.4100 6886.00 7030.73 83.00
1741 21.4200 7620.00 7694.63 87.00
1742 21.4300 8317.00 8391.11 91.00
1743 21.4400 9101.00 9059.48 95.00
1744 21.4500 9832.00 9626.86 99.00
1745 21.4600 10258.00 9999.97 101.00
1746 21.4700 10421.00 10073.00 102.00
1747 21.4800 10250.00 9787.91 101.00
1748 21.4900 9548.00 9197.05 98.00
1749 21.5000 8648.00 8436.87 93.00
1750 21.5100 7770.00 7644.30 88.00
1751 21.5200 6955.00 6910.27 83.00
1752 21.5300 6280.00 6278.81 79.00
1753 21.5400 5799.00 5763.66 76.00
1754 21.5500 5429.00 5360.52 74.00
1755 21.5600 5139.00 5055.83 72.00
1756 21.5700 4984.00 4832.06 71.00
1757 21.5800 4804.00 4671.50 69.00
1758 21.5900 4664.00 4558.43 68.00
1759 21.6000 4599.00 4480.35 68.00
1760 21.6100 4558.00 4428.27 68.00
1761 21.6200 4495.00 4396.22 67.00
1762 21.6300 4504.00 4380.76 67.00
1763 21.6400 4481.00 4380.32 67.00
1764 21.6500 4483.00 4394.76 67.00
1765 21.6600 4531.00 4424.97 67.00
1766 21.6700 4581.00 4472.64 68.00
1767 21.6800 4627.00 4540.07 68.00
1768 21.6900 4718.00 4629.04 69.00
1769 21.7000 4835.00 4744.46 70.00
1770 21.7100 4914.00 4888.26 70.00
1771 21.7200 5158.00 5062.98 72.00
1772 21.7300 5326.00 5269.63 73.00
1773 21.7400 5587.00 5506.86 75.00
1774 21.7500 5879.00 5769.47 77.00
1775 21.7600 6186.00 6050.41 79.00
1776 21.7700 6431.00 6335.88 80.00
1777 21.7800 6784.00 6619.50 82.00
1778 21.7900 7094.00 6895.96 84.00
1779 21.8000 7410.00 7158.33 86.00
1780 21.8100 7733.00 7393.84 88.00
1781 21.8200 7818.00 7590.25 88.00
1782 21.8300 7934.00 7752.50 89.00
1783 21.8400 8039.00 7909.16 90.00
1784 21.8500 8136.00 8098.98 90.00
1785 21.8600 8347.00 8350.48 91.00
1786 21.8700 8675.00 8670.78 93.00
1787 21.8800 9026.00 9040.51 95.00
1788 21.8900 9438.00 9417.47 97.00
1789 21.9000 9960.00 9731.92 100.00
1790 21.9100 10206.00 9904.14 101.00
1791 21.9200 10211.00 9870.48 101.00
1792 21.9300 9982.00 9613.33 100.00
1793 21.9400 9350.00 9168.69 97.00
1794 21.9500 8637.00 8604.43 93.00
1795 21.9600 7938.00 7991.16 89.00
1796 21.9700 7255.00 7383.38 85.00
1797 21.9800 6698.00 6816.92 82.00
1798 21.9900 6236.00 6311.32 79.00
1799 22.0000 5801.00 5877.50 76.00
1800 22.0100 5492.00 5516.25 74.00
1801 22.0200 5258.00 5224.04 73.00
1802 22.0300 5062.00 4994.58 71.00
1803 22.0400 4885.00 4820.18 70.00
1804 22.0500 4800.00 4693.58 69.00
1805 22.0600 4706.00 4608.93 69.00
1806 22.0700 4664.00 4563.14 68.00
1807 22.0800 4678.00 4556.25 68.00
1808 22.0900 4672.00 4591.61 68.00
1809 22.1000 4719.00 4675.05 69.00
1810 22.1100 4843.00 4813.02 70.00
1811 22.1200 4986.00 5009.66 71.00
1812 22.1300 5178.00 5261.79 72.00
1813 22.1400 5543.00 5550.93 74.00
1814 22.1500 5807.00 5830.04 76.00
1815 22.1600 6057.00 6017.47 78.00
1816 22.1700 6160.00 6030.44 78.00
1817 22.1800 5976.00 5854.30 77.00
1818 22.1900 5637.00 5557.35 75.00
1819 22.2000 5363.00 5227.09 73.00
1820 22.2100 4981.00 4920.69 71.00
1821 22.2200 4736.00 4662.95 69.00
1822 22.2300 4547.00 4459.17 67.00
1823 22.2400 4384.00 4305.05 66.00
1824 22.2500 4264.00 4191.88 65.00
1825 22.2600 4211.00 4110.02 65.00
1826 22.2700 4137.00 4050.67 64.00
1827 22.2800 4100.00 4006.88 64.00
1828 22.2900 4078.00 3973.66 64.00
1829 22.3000 4025.00 3947.69 63.00
1830 22.3100 3985.00 3926.83 63.00
1831 22.3200 3987.00 3909.72 63.00
1832 22.3300 3961.00 3895.45 63.00
1833 22.3400 3973.00 3883.40 63.00
1834 22.3500 3978.00 3873.12 63.00
1835 22.3600 3947.00 3864.31 63.00
1836 22.3700 3921.00 3856.75 63.00
1837 22.3800 3948.00 3849.66 63.00
1838 22.3900 3913.00 3844.29 63.00
1839 22.4000 3930.00 3839.89 63.00
1840 22.4100 3952.00 3836.41 63.00
1841 22.4200 3898.00 3833.79 62.00
1842 22.4300 3889.00 3831.95 62.00
1843 22.4400 3931.00 3830.94 63.00
1844 22.4500 3905.00 3830.70 62.00
1845 22.4600 3917.00 3831.19 63.00
1846 22.4700 3938.00 3832.43 63.00
1847 22.4800 3892.00 3833.61 62.00
1848 22.4900 3894.00 3836.35 62.00
1849 22.5000 3920.00 3839.86 63.00
1850 22.5100 3939.00 3844.20 63.00
1851 22.5200 3948.00 3849.41 63.00
1852 22.5300 3935.00 3855.57 63.00
1853 22.5400 3941.00 3862.77 63.00
1854 22.5500 3925.00 3871.12 63.00
1855 22.5600 3950.00 3880.78 63.00
1856 22.5700 3961.00 3891.94 63.00
1857 22.5800 3996.00 3904.84 63.00
1858 22.5900 4026.00 3919.83 63.00
1859 22.6000 4026.00 3937.39 63.00
1860 22.6100 4035.00 3958.23 64.00
1861 22.6200 4086.00 3983.39 64.00
1862 22.6300 4123.00 4014.41 64.00
1863 22.6400 4174.00 4053.53 65.00
1864 22.6500 4236.00 4103.89 65.00
1865 22.6600 4272.00 4169.55 65.00
1866 22.6700 4313.00 4255.55 66.00
1867 22.6800 4480.00 4367.42 67.00
1868 22.6900 4580.00 4510.65 68.00
1869 22.7000 4779.00 4689.04 69.00
1870 22.7100 4992.00 4904.98 71.00
1871 22.7200 5248.00 5154.87 72.00
1872 22.7300 5522.00 5426.87 74.00
1873 22.7400 5878.00 5696.13 77.00
1874 22.7500 6169.00 5921.28 79.00
1875 22.7600 6329.00 6052.82 80.00
1876 22.7700 6343.00 6058.12 80.00
1877 22.7800 6201.00 5945.59 79.00
1878 22.7900 5911.00 5758.99 77.00
1879 22.8000 5689.00 5549.29 75.00
1880 22.8100 5485.00 5354.90 74.00
1881 22.8200 5316.00 5198.52 73.00
1882 22.8300 5187.00 5095.05 72.00
1883 22.8400 5116.00 5042.50 72.00
1884 22.8500 5130.00 5044.82 72.00
1885 22.8600 5200.00 5100.22 72.00
1886 22.8700 5292.00 5205.36 73.00
1887 22.8800 5439.00 5355.55 74.00
1888 22.8900 5650.00 5544.80 75.00
1889 22.9000 5816.00 5766.37 76.00
1890 22.9100 5984.00 6015.87 77.00
1891 22.9200 6280.00 6294.11 79.00
1892 22.9300 6549.00 6607.19 81.00
1893 22.9400 6892.00 6961.84 83.00
1894 22.9500 7313.00 7361.29 86.00
1895 22.9600 7684.00 7802.24 88.00
1896 22.9700 8159.00 8274.56 90.00
1897 22.9800 8799.00 8759.94 94.00
1898 22.9900 9273.00 9233.42 96.00
1899 23.0000 9779.00 9664.77 99.00
1900 23.0100 10239.00 10022.40 101.00
1901 23.0200 10361.00 10275.50 102.00
1902 23.0300 10396.00 10396.50 102.00
1903 23.0400 10418.00 10363.20 102.00
1904 23.0500 10160.00 10166.50 101.00
1905 23.0600 9709.00 9818.37 99.00
1906 23.0700 9196.00 9352.45 96.00
1907 23.0800 8605.00 8813.66 93.00
1908 23.0900 7980.00 8246.26 89.00
1909 23.1000 7516.00 7685.81 87.00
1910 23.1100 6941.00 7158.26 83.00
1911 23.1200 6506.00 6680.10 81.00
1912 23.1300 6201.00 6260.47 79.00
1913 23.1400 5854.00 5902.34 77.00
1914 23.1500 5594.00 5604.23 75.00
1915 23.1600 5395.00 5361.44 73.00
1916 23.1700 5264.00 5167.65 73.00
1917 23.1800 5096.00 5015.76 71.00
1918 23.1900 5027.00 4899.06 71.00
1919 23.2000 4936.00 4811.71 70.00
1920 23.2100 4824.00 4749.20 69.00
1921 23.2200 4803.00 4708.06 69.00
1922 23.2300 4742.00 4685.46 69.00
1923 23.2400 4745.00 4678.25 69.00
1924 23.2500 4772.00 4681.91 69.00
1925 23.2600 4743.00 4689.28 69.00
1926 23.2700 4673.00 4690.23 68.00
1927 23.2800 4733.00 4673.97 69.00
1928 23.2900 4701.00 4634.50 69.00
1929 23.3000 4615.00 4573.84 68.00
1930 23.3100 4597.00 4503.18 68.00
1931 23.3200 4515.00 4432.07 67.00
1932 23.3300 4444.00 4368.18 67.00
1933 23.3400 4396.00 4316.45 66.00
1934 23.3500 4372.00 4279.76 66.00
1935 23.3600 4369.00 4260.51 66.00
1936 23.3700 4380.00 4261.73 66.00
1937 23.3800 4403.00 4288.11 66.00
1938 23.3900 4430.00 4346.93 67.00
1939 23.4000 4550.00 4449.07 67.00
1940 23.4100 4671.00 4604.35 68.00
1941 23.4200 4885.00 4824.28 70.00
1942 23.4300 5150.00 5113.45 72.00
1943 23.4400 5490.00 5460.17 74.00
1944 23.4500 5787.00 5818.43 76.00
1945 23.4600 6137.00 6088.81 78.00
1946 23.4700 6205.00 6150.25 79.00
1947 23.4800 6108.00 5965.79 78.00
1948 23.4900 5798.00 5625.25 76.00
1949 23.5000 5415.00 5249.02 74.00
1950 23.5100 5017.00 4910.55 71.00
1951 23.5200 4781.00 4636.41 69.00
1952 23.5300 4549.00 4428.43 67.00
1953 23.5400 4392.00 4277.45 66.00
1954 23.5500 4288.00 4170.85 65.00
1955 23.5600 4181.00 4096.19 65.00
1956 23.5700 4130.00 4043.38 64.00
1957 23.5800 4073.00 4005.08 64.00
1958 23.5900 4061.00 3976.47 64.00
1959 23.6000 4046.00 3954.52 64.00
1960 23.6100 4054.00 3937.41 64.00
1961 23.6200 4014.00 3923.97 63.00
1962 23.6300 3997.00 3913.47 63.00
1963 23.6400 4007.00 3905.41 63.00
1964 23.6500 4009.00 3899.38 63.00
1965 23.6600 3992.00 3895.22 63.00
1966 23.6700 4016.00 3892.71 63.00
1967 23.6800 3979.00 3891.72 63.00
1968 23.6900 3953.00 3892.20 63.00
1969 23.7000 4015.00 3893.51 63.00
1970 23.7100 4007.00 3896.89 63.00
1971 23.7200 3986.00 3901.79 63.00
1972 23.7300 4025.00 3908.37 63.00
1973 23.7400 4028.00 3916.84 63.00
1974 23.7500 4029.00 3927.55 63.00
1975 23.7600 4059.00 3941.04 64.00
1976 23.7700 4064.00 3958.06 64.00
1977 23.7800 4070.00 3979.69 64.00
1978 23.7900 4147.00 4007.39 64.00
1979 23.8000 4164.00 4043.01 65.00
1980 23.8100 4157.00 4088.80 64.00
1981 23.8200 4230.00 4147.25 65.00
1982 23.8300 4285.00 4220.85 65.00
1983 23.8400 4377.00 4311.81 66.00
1984 23.8500 4517.00 4421.44 67.00
1985 23.8600 4656.00 4549.45 68.00
1986 23.8700 4766.00 4692.59 69.00
1987 23.8800 5009.00 4842.96 71.00
1988 23.8900 5158.00 4986.97 72.00
1989 23.9000 5286.00 5108.03 73.00
1990 23.9100 5388.00 5194.87 73.00
1991 23.9200 5399.00 5249.96 73.00
1992 23.9300 5400.00 5288.15 73.00
1993 23.9400 5450.00 5327.02 74.00
1994 23.9500 5470.00 5378.35 74.00
1995 23.9600 5513.00 5445.27 74.00
1996 23.9700 5607.00 5522.78 75.00
1997 23.9800 5729.00 5599.79 76.00
1998 23.9900 5814.00 5665.56 76.00
1999 24.0000 5847.00 5705.76 76.00
2000 24.0100 5865.00 5721.58 77.00
2001 24.0200 5855.00 5719.94 77.00
2002 24.0300 5900.00 5711.33 77.00
2003 24.0400 5821.00 5704.44 76.00
2004 24.0500 5817.00 5703.00 76.00
2005 24.0600 5854.00 5705.04 77.00
2006 24.0700 5846.00 5703.91 76.00
2007 24.0800 5852.00 5690.91 76.00
2008 24.0900 5851.00 5659.16 76.00
2009 24.1000 5729.00 5607.20 76.00
2010 24.1100 5597.00 5539.94 75.00
2011 24.1200 5537.00 5466.71 74.00
2012 24.1300 5390.00 5397.88 73.00
2013 24.1400 5297.00 5342.39 73.00
2014 24.1500 5281.00 5306.77 73.00
2015 24.1600 5183.00 5295.07 72.00
2016 24.1700 5249.00 5309.11 72.00
2017 24.1800 5333.00 5349.17 73.00
2018 24.1900 5443.00 5411.40 74.00
2019 24.2000 5541.00 5491.52 74.00
2020 24.2100 5660.00 5582.44 75.00
2021 24.2200 5786.00 5674.97 76.00
2022 24.2300 5884.00 5757.66 77.00
2023 24.2400 5967.00 5817.46 77.00
2024 24.2500 5952.00 5842.50 77.00
2025 24.2600 5946.00 5829.66 77.00
2026 24.2700 5925.00 5790.47 77.00
2027 24.2800 5808.00 5747.92 76.00
2028 24.2900 5741.00 5727.21 76.00
2029 24.3000 5753.00 5748.87 76.00
2030 24.3100 5776.00 5826.93 76.00
2031 24.3200 5956.00 5969.34 77.00
2032 24.3300 6194.00 6177.94 79.00
2033 24.3400 6497.00 6447.63 81.00
2034 24.3500 6713.00 6763.53 82.00
2035 24.3600 7205.00 7097.92 85.00
2036 24.3700 7541.00 7409.19 87.00
2037 24.3800 7859.00 7651.59 89.00
2038 24.3900 8081.00 7797.80 90.00
2039 24.4000 8090.00 7860.48 90.00
2040 24.4100 8064.00 7890.80 90.00
2041 24.4200 8047.00 7953.98 90.00
2042 24.4300 8160.00 8104.62 90.00
2043 24.4400 8370.00 8373.42 91.00
2044 24.4500 8815.00 8759.91 94.00
2045 24.4600 9256.00 9220.21 96.00
2046 24.4700 9699.00 9649.29 98.00
2047 24.4800 10009.00 9886.75 100.00
2048 24.4900 9974.00 9786.29 100.00
2049 24.5000 9533.00 9335.32 98.00
2050 24.5100 8876.00 8663.22 94.00
2051 24.5200 8000.00 7930.26 89.00
2052 24.5300 7220.00 7245.37 85.00
2053 24.5400 6679.00 6659.75 82.00
2054 24.5500 6177.00 6188.64 79.00
2055 24.5600 5821.00 5828.56 76.00
2056 24.5700 5603.00 5567.81 75.00
2057 24.5800 5392.00 5391.45 73.00
2058 24.5900 5284.00 5285.05 73.00
2059 24.6000 5266.00 5236.01 73.00
2060 24.6100 5247.00 5234.01 72.00
2061 24.6200 5290.00 5270.14 73.00
2062 24.6300 5388.00 5335.76 73.00
2063 24.6400 5479.00 5421.10 74.00
2064 24.6500 5571.00 5513.44 75.00
2065 24.6600 5724.00 5595.68 76.00
2066 24.6700 5772.00 5646.06 76.00
2067 24.6800 5768.00 5643.11 76.00
2068 24.6900 5635.00 5575.94 75.00
2069 24.7000 5470.00 5451.97 74.00
2070 24.7100 5221.00 5292.64 72.00
2071 24.7200 5114.00 5121.38 72.00
2072 24.7300 4934.00 4955.96 70.00
2073 24.7400 4766.00 4806.96 69.00
2074 24.7500 4675.00 4679.65 68.00
2075 24.7600 4581.00 4576.17 68.00
2076 24.7700 4471.00 4496.36 67.00
2077 24.7800 4498.00 4440.58 67.00
2078 24.7900 4447.00 4407.75 67.00
2079 24.8000 4444.00 4397.62 67.00
2080 24.8100 4451.00 4410.44 67.00
2081 24.8200 4499.00 4447.04 67.00
2082 24.8300 4523.00 4508.48 67.00
2083 24.8400 4635.00 4595.48 68.00
2084 24.8500 4728.00 4707.68 69.00
2085 24.8600 4855.00 4842.35 70.00
2086 24.8700 5036.00 4992.59 71.00
2087 24.8800 5221.00 5144.62 72.00
2088 24.8900 5365.00 5276.36 73.00
2089 24.9000 5514.00 5360.41 74.00
2090 24.9100 5543.00 5376.26 74.00
2091 24.9200 5448.00 5323.63 74.00
2092 24.9300 5357.00 5223.14 73.00
2093 24.9400 5240.00 5103.51 72.00
2094 24.9500 5040.00 4989.18 71.00
2095 24.9600 5007.00 4896.47 71.00
2096 24.9700 4954.00 4835.37 70.00
2097 24.9800 4931.00 4811.15 70.00
2098 24.9900 4992.00 4827.70 71.00
2099 25.0000 5049.00 4887.61 71.00
2100 25.0100 5099.00 4992.90 71.00
2101 25.0200 5258.00 5145.13 73.00
2102 25.0300 5455.00 5344.68 74.00
2103 25.0400 5719.00 5589.67 76.00
2104 25.0500 6020.00 5873.93 78.00
2105 25.0600 6278.00 6186.40 79.00
2106 25.0700 6582.00 6511.83 81.00
2107 25.0800 6954.00 6836.61 83.00
2108 25.0900 7274.00 7157.04 85.00
2109 25.1000 7597.00 7475.57 87.00
2110 25.1100 7942.00 7788.92 89.00
2111 25.1200 8215.00 8081.98 91.00
2112 25.1300 8409.00 8330.99 92.00
2113 25.1400 8628.00 8507.91 93.00
2114 25.1500 8616.00 8584.48 93.00
2115 25.1600 8520.00 8538.27 92.00
2116 25.1700 8302.00 8361.80 91.00
2117 25.1800 7922.00 8069.47 89.00
2118 25.1900 7463.00 7694.32 86.00
2119 25.2000 7084.00 7276.86 84.00
2120 25.2100 6620.00 6852.97 81.00
2121 25.2200 6204.00 6448.27 79.00
2122 25.2300 5860.00 6077.26 77.00
2123 25.2400 5561.00 5745.60 75.00
2124 25.2500 5250.00 5452.63 72.00
2125 25.2600 5068.00 5195.53 71.00
2126 25.2700 4897.00 4971.72 70.00
2127 25.2800 4754.00 4779.79 69.00
2128 25.2900 4610.00 4618.09 68.00
2129 25.3000 4464.00 4484.13 67.00
2130 25.3100 4365.00 4374.40 66.00
2131 25.3200 4308.00 4285.14 66.00
2132 25.3300 4219.00 4212.69 65.00
2133 25.3400 4147.00 4153.77 64.00
2134 25.3500 4130.00 4105.60 64.00
2135 25.3600 4088.00 4065.89 64.00
2136 25.3700 4024.00 4032.84 63.00
2137 25.3800 4007.00 4005.03 63.00
2138 25.3900 3979.00 3981.38 63.00
2139 25.4000 3928.00 3961.07 63.00
2140 25.4100 3936.00 3943.52 63.00
2141 25.4200 3884.00 3928.26 62.00
2142 25.4300 3899.00 3914.97 62.00
2143 25.4400 3876.00 3903.40 62.00
2144 25.4500 3878.00 3893.38 62.00
2145 25.4600 3844.00 3884.77 62.00
2146 25.4700 3865.00 3877.46 62.00
2147 25.4800 3839.00 3871.40 62.00
2148 25.4900 3823.00 3866.56 62.00
2149 25.5000 3854.00 3862.92 62.00
2150 25.5100 3850.00 3860.57 62.00
2151 25.5200 3825.00 3859.58 62.00
2152 25.5300 3847.00 3859.79 62.00
2153 25.5400 3839.00 3862.07 62.00
2154 25.5500 3819.00 3866.42 62.00
2155 25.5600 3839.00 3873.29 62.00
2156 25.5700 3861.00 3883.29 62.00
2157 25.5800 3883.00 3897.12 62.00
2158 25.5900 3892.00 3915.63 62.00
2159 25.6000 3936.00 3939.75 63.00
2160 25.6100 3876.00 3970.38 62.00
2161 25.6200 3959.00 4008.27 63.00
2162 25.6300 4025.00 4053.87 63.00
2163 25.6400 4106.00 4107.05 64.00
2164 25.6500 4173.00 4166.74 65.00
2165 25.6600 4223.00 4230.35 65.00
2166 25.6700 4258.00 4293.18 65.00
2167 25.6800 4363.00 4347.84 66.00
2168 25.6900 4339.00 4384.42 66.00
2169 25.7000 4376.00 4397.44 66.00
2170 25.7100 4365.00 4384.34 66.00
2171 25.7200 4317.00 4350.36 66.00
2172 25.7300 4229.00 4304.63 65.00
2173 25.7400 4176.00 4256.11 65.00
2174 25.7500 4128.00 4212.87 64.00
2175 25.7600 4078.00 4176.79 64.00
2176 25.7700 4064.00 4152.21 64.00
2177 25.7800 4063.00 4141.41 64.00
2178 25.7900 4066.00 4146.06 64.00
2179 25.8000 4115.00 4169.24 64.00
2180 25.8100 4155.00 4213.10 64.00
2181 25.8200 4229.00 4280.62 65.00
2182 25.8300 4287.00 4374.94 65.00
2183 25.8400 4391.00 4499.04 66.00
2184 25.8500 4503.00 4654.91 67.00
2185 25.8600 4737.00 4842.52 69.00
2186 25.8700 4967.00 5057.09 70.00
2187 25.8800 5209.00 5287.96 72.00
2188 25.8900 5504.00 5512.16 74.00
2189 25.9000 5674.00 5696.74 75.00
2190 25.9100 5762.00 5803.44 76.00
2191 25.9200 5775.00 5805.03 76.00
2192 25.9300 5642.00 5702.04 75.00
2193 25.9400 5479.00 5527.10 74.00
2194 25.9500 5258.00 5327.65 73.00
2195 25.9600 5057.00 5142.72 71.00
2196 25.9700 4881.00 4994.67 70.00
2197 25.9800 4828.00 4893.30 69.00
2198 25.9900 4758.00 4840.31 69.00
2199 26.0000 4776.00 4831.87 69.00
2200 26.0100 4818.00 4858.45 69.00
2201 26.0200 4866.00 4903.04 70.00
2202 26.0300 4872.00 4941.12 70.00
2203 26.0400 4953.00 4949.17 70.00
2204 26.0500 4919.00 4919.05 70.00
2205 26.0600 4836.00 4859.81 70.00
2206 26.0700 4782.00 4784.20 69.00
2207 26.0800 4650.00 4699.65 68.00
2208 26.0900 4540.00 4610.79 67.00
2209 26.1000 4499.00 4523.35 67.00
2210 26.1100 4363.00 4443.78 66.00
2211 26.1200 4346.00 4376.67 66.00
2212 26.1300 4261.00 4324.04 65.00
2213 26.1400 4210.00 4285.70 65.00
2214 26.1500 4142.00 4260.62 64.00
2215 26.1600 4195.00 4247.10 65.00
2216 26.1700 4185.00 4243.45 65.00
2217 26.1800 4210.00 4248.00 65.00
2218 26.1900 4253.00 4259.27 65.00
2219 26.2000 4235.00 4275.74 65.00
2220 26.2100 4224.00 4296.58 65.00
2221 26.2200 4258.00 4320.51 65.00
2222 26.2300 4292.00 4346.36 66.00
2223 26.2400 4295.00 4372.69 66.00
2224 26.2500 4333.00 4398.95 66.00
2225 26.2600 4374.00 4420.09 66.00
2226 26.2700 4369.00 4434.44 66.00
2227 26.2800 4424.00 4438.96 67.00
2228 26.2900 4391.00 4431.23 66.00
2229 26.3000 4351.00 4410.27 66.00
2230 26.3100 4316.00 4376.94 66.00
2231 26.3200 4225.00 4333.72 65.00
2232 26.3300 4178.00 4283.93 65.00
2233 26.3400 4113.00 4230.95 64.00
2234 26.3500 4058.00 4177.66 64.00
2235 26.3600 3995.00 4126.31 63.00
2236 26.3700 3979.00 4078.43 63.00
2237 26.3800 3921.00 4035.09 63.00
2238 26.3900 3853.00 3996.91 62.00
2239 26.4000 3879.00 3964.26 62.00
2240 26.4100 3865.00 3937.29 62.00
2241 26.4200 3824.00 3916.08 62.00
2242 26.4300 3822.00 3900.63 62.00
2243 26.4400 3831.00 3890.93 62.00
2244 26.4500 3846.00 3887.01 62.00
2245 26.4600 3842.00 3888.88 62.00
2246 26.4700 3853.00 3896.58 62.00
2247 26.4800 3860.00 3910.03 62.00
2248 26.4900 3859.00 3929.00 62.00
2249 26.5000 3888.00 3952.92 62.00
2250 26.5100 3891.00 3980.59 62.00
2251 26.5200 3956.00 4010.26 63.00
2252 26.5300 3969.00 4038.75 63.00
2253 26.5400 4037.00 4061.72 64.00
2254 26.5500 4056.00 4074.27 64.00
2255 26.5600 3999.00 4072.81 63.00
2256 26.5700 3964.00 4057.03 63.00
2257 26.5800 3983.00 4030.11 63.00
2258 26.5900 3939.00 3996.93 63.00
2259 26.6000 3928.00 3961.96 63.00
2260 26.6100 3889.00 3928.34 62.00
2261 26.6200 3823.00 3897.86 62.00
2262 26.6300 3775.00 3871.40 61.00
2263 26.6400 3803.00 3849.17 62.00
2264 26.6500 3764.00 3831.06 61.00
2265 26.6600 3753.00 3816.71 61.00
2266 26.6700 3776.00 3805.66 61.00
2267 26.6800 3725.00 3797.43 61.00
2268 26.6900 3742.00 3791.56 61.00
2269 26.7000 3753.00 3787.67 61.00
2270 26.7100 3737.00 3785.45 61.00
2271 26.7200 3744.00 3784.70 61.00
2272 26.7300 3783.00 3785.30 62.00
2273 26.7400 3734.00 3787.21 61.00
2274 26.7500 3686.00 3790.50 61.00
2275 26.7600 3732.00 3795.29 61.00
2276 26.7700 3759.00 3801.78 61.00
2277 26.7800 3761.00 3810.24 61.00
2278 26.7900 3758.00 3820.96 61.00
2279 26.8000 3752.00 3834.23 61.00
2280 26.8100 3777.00 3850.29 61.00
2281 26.8200 3821.00 3869.15 62.00
2282 26.8300 3847.00 3890.47 62.00
2283 26.8400 3857.00 3913.25 62.00
2284 26.8500 3910.00 3936.05 63.00
2285 26.8600 3881.00 3958.10 62.00
2286 26.8700 3913.00 3980.81 63.00
2287 26.8800 3959.00 4007.83 63.00
2288 26.8900 4013.00 4043.72 63.00
2289 26.9000 4056.00 4092.88 64.00
2290 26.9100 4148.00 4159.34 64.00
2291 26.9200 4183.00 4246.86 65.00
2292 26.9300 4261.00 4358.09 65.00
2293 26.9400 4436.00 4496.20 67.00
2294 26.9500 4628.00 4660.82 68.00
2295 26.9600 4797.00 4848.68 69.00
2296 26.9700 5092.00 5050.75 71.00
2297 26.9800 5279.00 5248.92 73.00
2298 26.9900 5427.00 5415.18 74.00
2299 27.0000 5619.00 5517.33 75.00
2300 27.0100 5591.00 5534.47 75.00
2301 27.0200 5554.00 5470.51 75.00
2302 27.0300 5412.00 5351.34 74.00
2303 27.0400 5185.00 5208.75 72.00
2304 27.0500 5005.00 5067.14 71.00
2305 27.0600 4895.00 4940.24 70.00
2306 27.0700 4772.00 4833.19 69.00
2307 27.0800 4706.00 4745.99 69.00
2308 27.0900 4653.00 4676.08 68.00
2309 27.1000 4578.00 4620.47 68.00
2310 27.1100 4548.00 4576.76 67.00
2311 27.1200 4489.00 4543.42 67.00
2312 27.1300 4477.00 4519.48 67.00
2313 27.1400 4467.00 4504.20 67.00
2314 27.1500 4511.00 4496.92 67.00
2315 27.1600 4499.00 4497.03 67.00
2316 27.1700 4458.00 4504.09 67.00
2317 27.1800 4534.00 4517.66 67.00
2318 27.1900 4539.00 4538.11 67.00
2319 27.2000 4573.00 4565.89 68.00
2320 27.2100 4603.00 4602.46 68.00
2321 27.2200 4618.00 4649.62 68.00
2322 27.2300 4664.00 4712.83 68.00
2323 27.2400 4763.00 4795.79 69.00
2324 27.2500 4875.00 4902.95 70.00
2325 27.2600 4982.00 5037.89 71.00
2326 27.2700 5179.00 5202.09 72.00
2327 27.2800 5269.00 5393.78 73.00
2328 27.2900 5483.00 5605.68 74.00
2329 27.3000 5723.00 5822.76 76.00
2330 27.3100 5902.00 6020.70 77.00
2331 27.3200 6104.00 6170.08 78.00
2332 27.3300 6196.00 6247.63 79.00
2333 27.3400 6184.00 6249.99 79.00
2334 27.3500 6047.00 6195.69 78.00
2335 27.3600 5974.00 6113.49 77.00
2336 27.3700 5871.00 6029.13 77.00
2337 27.3800 5766.00 5959.36 76.00
2338 27.3900 5749.00 5912.26 76.00
2339 27.4000 5723.00 5889.80 76.00
2340 27.4100 5728.00 5889.88 76.00
2341 27.4200 5854.00 5907.80 77.00
2342 27.4300 5884.00 5937.23 77.00
2343 27.4400 5961.00 5971.06 77.00
2344 27.4500 6063.00 6002.20 78.00
2345 27.4600 6047.00 6024.28 78.00
2346 27.4700 5991.00 6032.49 77.00
2347 27.4800 6032.00 6024.05 78.00
2348 27.4900 5923.00 5998.54 77.00
2349 27.5000 5834.00 5957.83 76.00
2350 27.5100 5776.00 5905.45 76.00
2351 27.5200 5633.00 5846.64 75.00
2352 27.5300 5504.00 5786.74 74.00
2353 27.5400 5444.00 5731.18 74.00
2354 27.5500 5368.00 5684.81 73.00
2355 27.5600 5331.00 5651.45 73.00
2356 27.5700 5324.00 5633.53 73.00
2357 27.5800 5311.00 5631.35 73.00
2358 27.5900 5336.00 5642.35 73.00
2359 27.6000 5470.00 5660.17 74.00
2360 27.6100 5487.00 5674.92 74.00
2361 27.6200 5488.00 5676.02 74.00
2362 27.6300 5529.00 5657.49 74.00
2363 27.6400 5460.00 5622.02 74.00
2364 27.6500 5439.00 5579.82 74.00
2365 27.6600 5421.00 5544.04 74.00
2366 27.6700 5408.00 5519.32 74.00
2367 27.6800 5431.00 5506.80 74.00
2368 27.6900 5416.00 5498.20 74.00
2369 27.7000 5418.00 5480.34 74.00
2370 27.7100 5374.00 5441.94 73.00
2371 27.7200 5372.00 5380.69 73.00
2372 27.7300 5256.00 5304.29 72.00
2373 27.7400 5202.00 5224.85 72.00
2374 27.7500 5125.00 5152.31 72.00
2375 27.7600 5007.00 5091.80 71.00
2376 27.7700 4987.00 5043.79 71.00
2377 27.7800 5012.00 5005.47 71.00
2378 27.7900 4965.00 4972.09 70.00
2379 27.8000 4951.00 4938.28 70.00
2380 27.8100 4924.00 4899.18 70.00
2381 27.8200 4834.00 4851.65 70.00
2382 27.8300 4762.00 4794.69 69.00
2383 27.8400 4710.00 4728.87 69.00
2384 27.8500 4564.00 4657.67 68.00
2385 27.8600 4507.00 4583.67 67.00
2386 27.8700 4440.00 4509.85 67.00
2387 27.8800 4356.00 4438.86 66.00
2388 27.8900 4224.00 4372.79 65.00
2389 27.9000 4237.00 4313.31 65.00
2390 27.9100 4176.00 4261.70 65.00
2391 27.9200 4157.00 4218.36 64.00
2392 27.9300 4111.00 4185.19 64.00
2393 27.9400 4066.00 4162.15 64.00
2394 27.9500 4050.00 4149.58 64.00
2395 27.9600 4077.00 4147.39 64.00
2396 27.9700 4074.00 4155.85 64.00
2397 27.9800 4113.00 4174.14 64.00
2398 27.9900 4159.00 4201.76 64.00
2399 28.0000 4164.00 4237.15 65.00
2400 28.0100 4182.00 4278.09 65.00
2401 28.0200 4292.00 4321.37 66.00
2402 28.0300 4311.00 4362.46 66.00
2403 28.0400 4350.00 4395.74 66.00
2404 28.0500 4417.00 4415.32 66.00
2405 28.0600 4391.00 4416.71 66.00
2406 28.0700 4356.00 4398.44 66.00
2407 28.0800 4349.00 4362.66 66.00
2408 28.0900 4277.00 4314.07 65.00
2409 28.1000 4207.00 4258.24 65.00
2410 28.1100 4191.00 4200.15 65.00
2411 28.1200 4087.00 4145.27 64.00
2412 28.1300 4019.00 4092.84 63.00
2413 28.1400 3999.00 4046.11 63.00
2414 28.1500 3944.00 4005.97 63.00
2415 28.1600 3905.00 3972.86 62.00
2416 28.1700 3900.00 3946.92 62.00
2417 28.1800 3846.00 3928.20 62.00
2418 28.1900 3843.00 3916.71 62.00
2419 28.2000 3847.00 3912.32 62.00
2420 28.2100 3843.00 3915.83 62.00
2421 28.2200 3867.00 3927.50 62.00
2422 28.2300 3908.00 3948.07 63.00
2423 28.2400 3935.00 3978.40 63.00
2424 28.2500 3951.00 4019.39 63.00
2425 28.2600 4001.00 4071.75 63.00
2426 28.2700 4020.00 4135.78 63.00
2427 28.2800 4142.00 4210.80 64.00
2428 28.2900 4228.00 4294.72 65.00
2429 28.3000 4280.00 4382.85 65.00
2430 28.3100 4386.00 4467.79 66.00
2431 28.3200 4488.00 4540.52 67.00
2432 28.3300 4532.00 4593.70 67.00
2433 28.3400 4571.00 4624.71 68.00
2434 28.3500 4611.00 4634.91 68.00
2435 28.3600 4618.00 4626.84 68.00
2436 28.3700 4569.00 4602.77 68.00
2437 28.3800 4533.00 4565.04 67.00
2438 28.3900 4438.00 4515.87 67.00
2439 28.4000 4360.00 4457.11 66.00
2440 28.4100 4285.00 4389.10 65.00
2441 28.4200 4211.00 4314.14 65.00
2442 28.4300 4112.00 4237.84 64.00
2443 28.4400 4057.00 4166.79 64.00
2444 28.4500 4004.00 4105.21 63.00
2445 28.4600 3950.00 4054.95 63.00
2446 28.4700 3939.00 4016.69 63.00
2447 28.4800 3900.00 3990.30 62.00
2448 28.4900 3875.00 3975.57 62.00
2449 28.5000 3917.00 3972.39 63.00
2450 28.5100 3918.00 3980.86 63.00
2451 28.5200 3933.00 4001.29 63.00
2452 28.5300 3972.00 4034.19 63.00
2453 28.5400 4008.00 4080.03 63.00
2454 28.5500 4018.00 4140.03 63.00
2455 28.5600 4114.00 4212.25 64.00
2456 28.5700 4203.00 4296.48 65.00
2457 28.5800 4296.00 4390.08 66.00
2458 28.5900 4463.00 4488.06 67.00
2459 28.6000 4578.00 4582.12 68.00
2460 28.6100 4681.00 4660.82 68.00
2461 28.6200 4760.00 4711.72 69.00
2462 28.6300 4775.00 4726.38 69.00
2463 28.6400 4687.00 4704.64 68.00
2464 28.6500 4631.00 4655.00 68.00
2465 28.6600 4506.00 4590.30 67.00
2466 28.6700 4398.00 4522.61 66.00
2467 28.6800 4388.00 4460.60 66.00
2468 28.6900 4349.00 4409.03 66.00
2469 28.7000 4316.00 4369.45 66.00
2470 28.7100 4291.00 4340.67 66.00
2471 28.7200 4268.00 4319.44 65.00
2472 28.7300 4257.00 4301.46 65.00
2473 28.7400 4273.00 4283.17 65.00
2474 28.7500 4204.00 4263.41 65.00
2475 28.7600 4215.00 4243.94 65.00
2476 28.7700 4189.00 4228.30 65.00
2477 28.7800 4169.00 4220.27 65.00
2478 28.7900 4130.00 4222.77 64.00
2479 28.8000 4208.00 4238.44 65.00
2480 28.8100 4176.00 4268.70 65.00
2481 28.8200 4240.00 4314.54 65.00
2482 28.8300 4341.00 4376.37 66.00
2483 28.8400 4347.00 4454.39 66.00
2484 28.8500 4423.00 4547.71 67.00
2485 28.8600 4576.00 4654.69 68.00
2486 28.8700 4644.00 4772.61 68.00
2487 28.8800 4775.00 4897.88 69.00
2488 28.8900 4977.00 5025.90 71.00
2489 28.9000 5104.00 5151.01 71.00
2490 28.9100 5191.00 5266.23 72.00
2491 28.9200 5315.00 5363.75 73.00
2492 28.9300 5384.00 5436.34 73.00
2493 28.9400 5411.00 5479.55 74.00
2494 28.9500 5414.00 5492.73 74.00
2495 28.9600 5409.00 5478.43 74.00
2496 28.9700 5300.00 5440.46 73.00
2497 28.9800 5271.00 5382.19 73.00
2498 28.9900 5179.00 5306.19 72.00
2499 29.0000 5073.00 5214.78 71.00
2500 29.0100 5050.00 5110.93 71.00
2501 29.0200 4867.00 4998.33 70.00
2502 29.0300 4769.00 4881.14 69.00
2503 29.0400 4677.00 4763.20 68.00
2504 29.0500 4570.00 4647.85 68.00
2505 29.0600 4451.00 4537.84 67.00
2506 29.0700 4394.00 4435.09 66.00
2507 29.0800 4243.00 4341.20 65.00
2508 29.0900 4170.00 4256.74 65.00
2509 29.1000 4110.00 4181.94 64.00
2510 29.1100 4035.00 4116.54 64.00
2511 29.1200 4033.00 4060.05 64.00
2512 29.1300 3986.00 4011.82 63.00
2513 29.1400 3931.00 3971.18 63.00
2514 29.1500 3903.00 3937.45 62.00
2515 29.1600 3906.00 3909.97 62.00
2516 29.1700 3875.00 3888.40 62.00
2517 29.1800 3880.00 3872.26 62.00
2518 29.1900 3899.00 3861.33 62.00
2519 29.2000 3840.00 3855.53 62.00
2520 29.2100 3849.00 3854.79 62.00
2521 29.2200 3867.00 3858.95 62.00
2522 29.2300 3869.00 3866.78 62.00
2523 29.2400 3896.00 3877.92 62.00
2524 29.2500 3924.00 3888.89 63.00
2525 29.2600 3932.00 3895.53 63.00
2526 29.2700 3896.00 3894.20 62.00
2527 29.2800 3901.00 3884.34 62.00
2528 29.2900 3910.00 3868.86 63.00
2529 29.3000 3839.00 3851.59 62.00
2530 29.3100 3862.00 3836.32 62.00
2531 29.3200 3842.00 3824.47 62.00
2532 29.3300 3818.00 3816.83 62.00
2533 29.3400 3851.00 3813.68 62.00
2534 29.3500 3872.00 3815.11 62.00
2535 29.3600 3856.00 3821.23 62.00
2536 29.3700 3878.00 3832.22 62.00
2537 29.3800 3835.00 3848.36 62.00
2538 29.3900 3868.00 3870.28 62.00
2539 29.4000 3944.00 3898.49 63.00
2540 29.4100 3974.00 3933.62 63.00
2541 29.4200 3994.00 3976.27 63.00
2542 29.4300 4059.00 4026.79 64.00
2543 29.4400 4076.00 4085.01 64.00
2544 29.4500 4141.00 4149.71 64.00
2545 29.4600 4247.00 4219.21 65.00
2546 29.4700 4307.00 4290.07 66.00
2547 29.4800 4347.00 4358.02 66.00
2548 29.4900 4464.00 4421.24 67.00
2549 29.5000 4481.00 4480.82 67.00
2550 29.5100 4490.00 4540.79 67.00
2551 29.5200 4583.00 4606.08 68.00
2552 29.5300 4685.00 4680.55 68.00
2553 29.5400 4787.00 4766.07 69.00
2554 29.5500 4846.00 4862.53 70.00
2555 29.5600 4946.00 4967.88 70.00
2556 29.5700 5043.00 5078.17 71.00
2557 29.5800 5151.00 5187.57 72.00
2558 29.5900 5303.00 5288.46 73.00
2559 29.6000 5418.00 5372.01 74.00
2560 29.6100 5458.00 5429.42 74.00
2561 29.6200 5507.00 5454.62 74.00
2562 29.6300 5421.00 5446.96 74.00
2563 29.6400 5406.00 5412.02 74.00
2564 29.6500 5295.00 5359.83 73.00
2565 29.6600 5211.00 5300.77 72.00
2566 29.6700 5209.00 5243.43 72.00
2567 29.6800 5096.00 5193.38 71.00
2568 29.6900 5044.00 5153.42 71.00
2569 29.7000 5033.00 5123.82 71.00
2570 29.7100 5014.00 5102.89 71.00
2571 29.7200 5025.00 5087.51 71.00
2572 29.7300 5060.00 5074.22 71.00
2573 29.7400 5033.00 5060.33 71.00
2574 29.7500 5018.00 5044.57 71.00
2575 29.7600 5056.00 5026.92 71.00
2576 29.7700 5027.00 5007.47 71.00
2577 29.7800 5029.00 4985.10 71.00
2578 29.7900 4995.00 4956.94 71.00
2579 29.8000 4956.00 4918.80 70.00
2580 29.8100 4871.00 4866.84 70.00
2581 29.8200 4873.00 4799.40 70.00
2582 29.8300 4755.00 4717.99 69.00
2583 29.8400 4659.00 4626.91 68.00
2584 29.8500 4573.00 4531.42 68.00
2585 29.8600 4425.00 4436.44 67.00
2586 29.8700 4321.00 4345.67 66.00
2587 29.8800 4275.00 4261.65 65.00
2588 29.8900 4180.00 4185.64 65.00
2589 29.9000 4096.00 4118.33 64.00
2590 29.9100 4077.00 4059.75 64.00
2591 29.9200 3982.00 4009.58 63.00
2592 29.9300 3959.00 3967.26 63.00
2593 29.9400 3955.00 3932.11 63.00
2594 29.9500 3924.00 3903.35 63.00
2595 29.9600 3901.00 3880.21 62.00
2596 29.9700 3894.00 3861.93 62.00
2597 29.9800 3871.00 3847.85 62.00
2598 29.9900 3861.00 3837.37 62.00
2599 30.0000 3877.00 3829.98 62.00
2600 30.0100 3848.00 3825.24 62.00
2601 30.0200 3842.00 3822.75 62.00
2602 30.0300 3861.00 3822.21 62.00
2603 30.0400 3861.00 3823.36 62.00
2604 30.0500 3828.00 3826.02 62.00
2605 30.0600 3895.00 3830.15 62.00
2606 30.0700 3832.00 3835.77 62.00
2607 30.0800 3867.00 3843.04 62.00
2608 30.0900 3906.00 3852.35 62.00
2609 30.1000 3863.00 3864.18 62.00
2610 30.1100 3862.00 3879.25 62.00
2611 30.1200 3923.00 3898.55 63.00
2612 30.1300 3912.00 3923.34 63.00
2613 30.1400 3958.00 3955.04 63.00
2614 30.1500 4044.00 3994.95 64.00
2615 30.1600 4083.00 4044.06 64.00
2616 30.1700 4101.00 4101.77 64.00
2617 30.1800 4193.00 4163.98 65.00
2618 30.1900 4237.00 4220.60 65.00
2619 30.2000 4244.00 4256.17 65.00
2620 30.2100 4284.00 4260.32 65.00
2621 30.2200 4228.00 4238.81 65.00
2622 30.2300 4181.00 4208.13 65.00
2623 30.2400 4197.00 4182.65 65.00
2624 30.2500 4191.00 4170.04 65.00
2625 30.2600 4164.00 4173.36 65.00
2626 30.2700 4200.00 4193.41 65.00
2627 30.2800 4189.00 4229.87 65.00
2628 30.2900 4230.00 4281.90 65.00
2629 30.3000 4319.00 4348.44 66.00
2630 30.3100 4375.00 4428.38 66.00
2631 30.3200 4483.00 4520.36 67.00
2632 30.3300 4620.00 4621.99 68.00
2633 30.3400 4744.00 4728.71 69.00
2634 30.3500 4844.00 4832.49 70.00
2635 30.3600 4987.00 4921.49 71.00
2636 30.3700 5063.00 4981.15 71.00
2637 30.3800 5104.00 4999.62 71.00
2638 30.3900 5068.00 4971.28 71.00
2639 30.4000 4939.00 4900.70 70.00
2640 30.4100 4755.00 4800.16 69.00
2641 30.4200 4655.00 4684.25 68.00
2642 30.4300 4501.00 4565.58 67.00
2643 30.4400 4413.00 4452.99 66.00
2644 30.4500 4325.00 4351.91 66.00
2645 30.4600 4237.00 4265.05 65.00
2646 30.4700 4119.00 4193.42 64.00
2647 30.4800 4145.00 4136.93 64.00
2648 30.4900 4090.00 4094.82 64.00
2649 30.5000 4086.00 4067.35 64.00
2650 30.5100 4088.00 4050.52 64.00
2651 30.5200 4051.00 4044.43 64.00
2652 30.5300 4049.00 4047.97 64.00
2653 30.5400 4089.00 4060.10 64.00
2654 30.5500 4131.00 4079.96 64.00
2655 30.5600 4118.00 4106.69 64.00
2656 30.5700 4196.00 4139.42 65.00
2657 30.5800 4256.00 4177.00 65.00
2658 30.5900 4245.00 4217.72 65.00
2659 30.6000 4302.00 4258.63 66.00
2660 30.6100 4315.00 4295.08 66.00
2661 30.6200 4362.00 4321.04 66.00
2662 30.6300 4368.00 4331.45 66.00
2663 30.6400 4351.00 4325.59 66.00
2664 30.6500 4313.00 4308.24 66.00
2665 30.6600 4319.00 4287.23 66.00
2666 30.6700 4306.00 4269.98 66.00
2667 30.6800 4302.00 4261.74 66.00
2668 30.6900 4312.00 4265.49 66.00
2669 30.7000 4304.00 4282.56 66.00
2670 30.7100 4283.00 4313.07 65.00
2671 30.7200 4372.00 4356.22 66.00
2672 30.7300 4465.00 4410.19 67.00
2673 30.7400 4541.00 4472.17 67.00
2674 30.7500 4607.00 4538.04 68.00
2675 30.7600 4690.00 4602.62 68.00
2676 30.7700 4753.00 4660.12 69.00
2677 30.7800 4813.00 4705.35 69.00
2678 30.7900 4841.00 4735.16 70.00
2679 30.8000 4815.00 4749.75 69.00
2680 30.8100 4838.00 4752.68 70.00
2681 30.8200 4755.00 4749.66 69.00
2682 30.8300 4732.00 4746.78 69.00
2683 30.8400 4756.00 4748.75 69.00
2684 30.8500 4772.00 4759.40 69.00
2685 30.8600 4800.00 4779.46 69.00
2686 30.8700 4815.00 4808.91 69.00
2687 30.8800 4853.00 4843.41 70.00
2688 30.8900 4865.00 4880.52 70.00
2689 30.9000 4914.00 4916.94 70.00
2690 30.9100 4936.00 4950.26 70.00
2691 30.9200 4955.00 4979.97 70.00
2692 30.9300 5014.00 5008.95 71.00
2693 30.9400 5035.00 5043.31 71.00
2694 30.9500 5060.00 5089.64 71.00
2695 30.9600 5172.00 5152.04 72.00
2696 30.9700 5207.00 5230.93 72.00
2697 30.9800 5302.00 5321.78 73.00
2698 30.9900 5419.00 5413.60 74.00
2699 31.0000 5490.00 5487.12 74.00
2700 31.0100 5499.00 5517.74 74.00
2701 31.0200 5534.00 5486.98 74.00
2702 31.0300 5464.00 5395.42 74.00
2703 31.0400 5352.00 5261.81 73.00
2704 31.0500 5172.00 5109.61 72.00
2705 31.0600 4962.00 4956.46 70.00
2706 31.0700 4798.00 4812.31 69.00
2707 31.0800 4676.00 4681.58 68.00
2708 31.0900 4571.00 4565.82 68.00
2709 31.1000 4460.00 4464.77 67.00
2710 31.1100 4358.00 4377.48 66.00
2711 31.1200 4279.00 4302.65 65.00
2712 31.1300 4174.00 4239.07 65.00
2713 31.1400 4179.00 4185.53 65.00
2714 31.1500 4149.00 4141.17 64.00
2715 31.1600 4140.00 4105.26 64.00
2716 31.1700 4137.00 4077.25 64.00
2717 31.1800 4075.00 4056.58 64.00
2718 31.1900 4068.00 4043.05 64.00
2719 31.2000 4044.00 4036.19 64.00
2720 31.2100 4093.00 4035.68 64.00
2721 31.2200 4076.00 4041.24 64.00
2722 31.2300 4121.00 4052.64 64.00
2723 31.2400 4085.00 4069.40 64.00
2724 31.2500 4131.00 4091.34 64.00
2725 31.2600 4174.00 4117.51 65.00
2726 31.2700 4240.00 4146.76 65.00
2727 31.2800 4278.00 4177.62 65.00
2728 31.2900 4310.00 4208.20 66.00
2729 31.3000 4318.00 4236.25 66.00
2730 31.3100 4316.00 4259.26 66.00
2731 31.3200 4373.00 4274.75 66.00
2732 31.3300 4369.00 4281.15 66.00
2733 31.3400 4354.00 4278.61 66.00
2734 31.3500 4391.00 4269.15 66.00
2735 31.3600 4312.00 4255.80 66.00
2736 31.3700 4300.00 4242.03 66.00
2737 31.3800 4327.00 4229.97 66.00
2738 31.3900 4334.00 4220.90 66.00
2739 31.4000 4302.00 4215.49 66.00
2740 31.4100 4323.00 4214.33 66.00
2741 31.4200 4299.00 4218.30 66.00
2742 31.4300 4267.00 4228.66 65.00
2743 31.4400 4303.00 4246.88 66.00
2744 31.4500 4314.00 4274.34 66.00
2745 31.4600 4351.00 4311.89 66.00
2746 31.4700 4406.00 4359.79 66.00
2747 31.4800 4444.00 4417.04 67.00
2748 31.4900 4515.00 4481.35 67.00
2749 31.5000 4606.00 4548.88 68.00
2750 31.5100 4611.00 4614.21 68.00
2751 31.5200 4745.00 4670.77 69.00
2752 31.5300 4792.00 4712.16 69.00
2753 31.5400 4802.00 4734.27 69.00
2754 31.5500 4761.00 4736.90 69.00
2755 31.5600 4799.00 4723.99 69.00
2756 31.5700 4719.00 4702.15 69.00
2757 31.5800 4681.00 4678.42 68.00
2758 31.5900 4706.00 4658.43 69.00
2759 31.6000 4640.00 4645.38 68.00
2760 31.6100 4609.00 4639.64 68.00
2761 31.6200 4641.00 4639.01 68.00
2762 31.6300 4632.00 4640.06 68.00
2763 31.6400 4645.00 4640.36 68.00
2764 31.6500 4646.00 4640.38 68.00
2765 31.6600 4603.00 4643.32 68.00
2766 31.6700 4627.00 4652.77 68.00
2767 31.6800 4658.00 4669.96 68.00
2768 31.6900 4641.00 4692.06 68.00
2769 31.7000 4684.00 4711.17 68.00
2770 31.7100 4729.00 4716.35 69.00
2771 31.7200 4717.00 4698.32 69.00
2772 31.7300 4656.00 4654.73 68.00
2773 31.7400 4647.00 4590.94 68.00
2774 31.7500 4547.00 4516.16 67.00
2775 31.7600 4489.00 4439.30 67.00
2776 31.7700 4413.00 4367.06 66.00
2777 31.7800 4313.00 4303.84 66.00
2778 31.7900 4237.00 4252.11 65.00
2779 31.8000 4220.00 4212.95 65.00
2780 31.8100 4195.00 4186.20 65.00
2781 31.8200 4224.00 4170.85 65.00
2782 31.8300 4191.00 4164.95 65.00
2783 31.8400 4181.00 4165.55 65.00
2784 31.8500 4143.00 4168.83 64.00
2785 31.8600 4231.00 4170.51 65.00
2786 31.8700 4202.00 4166.86 65.00
2787 31.8800 4244.00 4155.96 65.00
2788 31.8900 4229.00 4138.12 65.00
2789 31.9000 4162.00 4115.36 65.00
2790 31.9100 4110.00 4090.16 64.00
2791 31.9200 4138.00 4064.33 64.00
2792 31.9300 4112.00 4038.65 64.00
2793 31.9400 4085.00 4012.93 64.00
2794 31.9500 4084.00 3986.52 64.00
2795 31.9600 4042.00 3959.00 64.00
2796 31.9700 4000.00 3930.35 63.00
2797 31.9800 3983.00 3901.17 63.00
2798 31.9900 3932.00 3872.41 63.00
2799 32.0000 3926.00 3845.07 63.00
2800 32.0100 3890.00 3819.91 62.00
2801 32.0200 3833.00 3797.46 62.00
2802 32.0300 3784.00 3778.01 62.00
2803 32.0400 3833.00 3761.67 62.00
2804 32.0500 3818.00 3748.45 62.00
2805 32.0600 3795.00 3738.29 62.00
2806 32.0700 3838.00 3731.09 62.00
2807 32.0800 3783.00 3726.75 62.00
2808 32.0900 3782.00 3725.13 61.00
2809 32.1000 3814.00 3726.10 62.00
2810 32.1100 3784.00 3729.52 62.00
2811 32.1200 3804.00 3735.25 62.00
2812 32.1300 3829.00 3743.14 62.00
2813 32.1400 3786.00 3753.01 62.00
2814 32.1500 3798.00 3764.68 62.00
2815 32.1600 3849.00 3777.92 62.00
2816 32.1700 3862.00 3792.46 62.00
2817 32.1800 3870.00 3807.96 62.00
2818 32.1900 3894.00 3824.00 62.00
2819 32.2000 3902.00 3840.07 62.00
2820 32.2100 3910.00 3855.56 63.00
2821 32.2200 3916.00 3869.88 63.00
2822 32.2300 3997.00 3882.42 63.00
2823 32.2400 3994.00 3892.81 63.00
2824 32.2500 4012.00 3900.91 63.00
2825 32.2600 3983.00 3907.00 63.00
2826 32.2700 3969.00 3911.72 63.00
2827 32.2800 4016.00 3916.02 63.00
2828 32.2900 4011.00 3921.01 63.00
2829 32.3000 4013.00 3927.96 63.00
2830 32.3100 4028.00 3937.96 63.00
2831 32.3200 4027.00 3952.00 63.00
2832 32.3300 3996.00 3970.87 63.00
2833 32.3400 4054.00 3995.06 64.00
2834 32.3500 4050.00 4024.80 64.00
2835 32.3600 4084.00 4059.81 64.00
2836 32.3700 4132.00 4099.56 64.00
2837 32.3800 4162.00 4142.70 65.00
2838 32.3900 4213.00 4187.15 65.00
2839 32.4000 4275.00 4230.01 65.00
2840 32.4100 4316.00 4267.50 66.00
2841 32.4200 4395.00 4295.36 66.00
2842 32.4300 4414.00 4309.51 66.00
2843 32.4400 4373.00 4307.08 66.00
2844 32.4500 4338.00 4287.46 66.00
2845 32.4600 4336.00 4252.53 66.00
2846 32.4700 4281.00 4205.82 65.00
2847 32.4800 4208.00 4152.24 65.00
2848 32.4900 4139.00 4095.70 64.00
2849 32.5000 4064.00 4039.60 64.00
2850 32.5100 4005.00 3986.25 63.00
2851 32.5200 4003.00 3937.97 63.00
2852 32.5300 3932.00 3893.92 63.00
2853 32.5400 3902.00 3855.31 62.00
2854 32.5500 3899.00 3822.22 62.00
2855 32.5600 3840.00 3794.44 62.00
2856 32.5700 3810.00 3771.68 62.00
2857 32.5800 3811.00 3753.53 62.00
2858 32.5900 3804.00 3739.57 62.00
2859 32.6000 3760.00 3729.30 61.00
2860 32.6100 3798.00 3722.40 62.00
2861 32.6200 3767.00 3718.47 61.00
2862 32.6300 3744.00 3717.23 61.00
2863 32.6400 3767.00 3718.43 61.00
2864 32.6500 3796.00 3721.90 62.00
2865 32.6600 3775.00 3727.48 61.00
2866 32.6700 3784.00 3735.07 62.00
2867 32.6800 3775.00 3744.57 61.00
2868 32.6900 3809.00 3755.87 62.00
2869 32.7000 3802.00 3768.81 62.00
2870 32.7100 3798.00 3783.18 62.00
2871 32.7200 3835.00 3798.69 62.00
2872 32.7300 3855.00 3814.92 62.00
2873 32.7400 3858.00 3831.32 62.00
2874 32.7500 3836.00 3847.11 62.00
2875 32.7600 3881.00 3861.37 62.00
2876 32.7700 3899.00 3873.32 62.00
2877 32.7800 3958.00 3882.02 63.00
2878 32.7900 3960.00 3887.38 63.00
2879 32.8000 3942.00 3889.38 63.00
2880 32.8100 3919.00 3888.53 63.00
2881 32.8200 3945.00 3885.49 63.00
2882 32.8300 3889.00 3880.93 62.00
2883 32.8400 3890.00 3875.37 62.00
2884 32.8500 3926.00 3869.20 63.00
2885 32.8600 3869.00 3862.72 62.00
2886 32.8700 3836.00 3856.12 62.00
2887 32.8800 3883.00 3849.61 62.00
2888 32.8900 3870.00 3843.34 62.00
2889 32.9000 3881.00 3838.59 62.00
2890 32.9100 3889.00 3833.42 62.00
2891 32.9200 3828.00 3829.03 62.00
2892 32.9300 3828.00 3825.53 62.00
2893 32.9400 3837.00 3822.94 62.00
2894 32.9500 3857.00 3821.10 62.00
2895 32.9600 3835.00 3819.65 62.00
2896 32.9700 3857.00 3817.92 62.00
2897 32.9800 3821.00 3815.09 62.00
2898 32.9900 3823.00 3810.55 62.00
2899 33.0000 3863.00 3804.29 62.00
2900 33.0100 3839.00 3796.91 62.00
2901 33.0200 3822.00 3789.28 62.00
2902 33.0300 3835.00 3782.14 62.00
2903 33.0400 3792.00 3775.93 62.00
2904 33.0500 3784.00 3770.88 62.00
2905 33.0600 3788.00 3767.03 62.00
2906 33.0700 3839.00 3764.33 62.00
2907 33.0800 3820.00 3762.71 62.00
2908 33.0900 3853.00 3762.11 62.00
2909 33.1000 3797.00 3762.48 62.00
2910 33.1100 3783.00 3763.83 62.00
2911 33.1200 3830.00 3766.19 62.00
2912 33.1300 3812.00 3769.68 62.00
2913 33.1400 3819.00 3774.49 62.00
2914 33.1500 3832.00 3780.77 62.00
2915 33.1600 3843.00 3788.94 62.00
2916 33.1700 3811.00 3799.28 62.00
2917 33.1800 3892.00 3812.17 62.00
2918 33.1900 3883.00 3828.05 62.00
2919 33.2000 3907.00 3847.37 63.00
2920 33.2100 3913.00 3870.64 63.00
2921 33.2200 3893.00 3899.07 62.00
2922 33.2300 3932.00 3931.74 63.00
2923 33.2400 3981.00 3969.78 63.00
2924 33.2500 4002.00 4013.49 63.00
2925 33.2600 4061.00 4062.98 64.00
2926 33.2700 4142.00 4118.09 64.00
2927 33.2800 4195.00 4178.09 65.00
2928 33.2900 4231.00 4241.79 65.00
2929 33.3000 4358.00 4306.89 66.00
2930 33.3100 4415.00 4370.37 66.00
2931 33.3200 4457.00 4427.86 67.00
2932 33.3300 4522.00 4474.76 67.00
2933 33.3400 4556.00 4507.14 67.00
2934 33.3500 4540.00 4523.74 67.00
2935 33.3600 4596.00 4527.03 68.00
2936 33.3700 4576.00 4522.90 68.00
2937 33.3800 4520.00 4518.94 67.00
2938 33.3900 4544.00 4522.59 67.00
2939 33.4000 4547.00 4539.87 67.00
2940 33.4100 4517.00 4574.38 67.00
2941 33.4200 4567.00 4626.10 68.00
2942 33.4300 4622.00 4688.92 68.00
2943 33.4400 4700.00 4748.10 69.00
2944 33.4500 4739.00 4782.21 69.00
2945 33.4600 4720.00 4774.57 69.00
2946 33.4700 4685.00 4726.92 68.00
2947 33.4800 4678.00 4657.81 68.00
2948 33.4900 4631.00 4588.28 68.00
2949 33.5000 4572.00 4531.90 68.00
2950 33.5100 4529.00 4494.06 67.00
2951 33.5200 4516.00 4474.77 67.00
2952 33.5300 4503.00 4471.08 67.00
2953 33.5400 4556.00 4478.14 67.00
2954 33.5500 4556.00 4490.14 67.00
2955 33.5600 4578.00 4501.15 68.00
2956 33.5700 4581.00 4506.39 68.00
2957 33.5800 4548.00 4503.88 67.00
2958 33.5900 4507.00 4494.35 67.00
2959 33.6000 4541.00 4480.87 67.00
2960 33.6100 4477.00 4467.51 67.00
2961 33.6200 4476.00 4458.14 67.00
2962 33.6300 4517.00 4455.91 67.00
2963 33.6400 4507.00 4462.98 67.00
2964 33.6500 4486.00 4481.37 67.00
2965 33.6600 4527.00 4511.82 67.00
2966 33.6700 4537.00 4554.60 67.00
2967 33.6800 4614.00 4609.01 68.00
2968 33.6900 4665.00 4672.91 68.00
2969 33.7000 4692.00 4742.10 68.00
2970 33.7100 4762.00 4809.24 69.00
2971 33.7200 4863.00 4863.87 70.00
2972 33.7300 4888.00 4893.93 70.00
2973 33.7400 4925.00 4890.41 70.00
2974 33.7500 4878.00 4851.90 70.00
2975 33.7600 4823.00 4785.71 69.00
2976 33.7700 4703.00 4704.08 69.00
2977 33.7800 4635.00 4619.06 68.00
2978 33.7900 4563.00 4539.59 68.00
2979 33.8000 4500.00 4471.25 67.00
2980 33.8100 4468.00 4416.88 67.00
2981 33.8200 4417.00 4377.66 66.00
2982 33.8300 4353.00 4353.69 66.00
2983 33.8400 4372.00 4344.50 66.00
2984 33.8500 4358.00 4349.18 66.00
2985 33.8600 4414.00 4366.62 66.00
2986 33.8700 4469.00 4395.45 67.00
2987 33.8800 4452.00 4434.12 67.00
2988 33.8900 4474.00 4480.69 67.00
2989 33.9000 4559.00 4532.91 68.00
2990 33.9100 4636.00 4587.79 68.00
2991 33.9200 4713.00 4641.75 69.00
2992 33.9300 4804.00 4690.62 69.00
2993 33.9400 4801.00 4729.95 69.00
2994 33.9500 4832.00 4755.77 70.00
2995 33.9600 4861.00 4765.30 70.00
2996 33.9700 4808.00 4757.57 69.00
2997 33.9800 4786.00 4733.36 69.00
2998 33.9900 4737.00 4694.72 69.00
2999 34.0000 4668.00 4644.44 68.00
3000 34.0100 4580.00 4585.51 68.00
3001 34.0200 4546.00 4520.96 67.00
3002 34.0300 4441.00 4453.83 67.00
3003 34.0400 4415.00 4386.66 66.00
3004 34.0500 4349.00 4321.83 66.00
3005 34.0600 4267.00 4261.18 65.00
3006 34.0700 4192.00 4206.61 65.00
3007 34.0800 4174.00 4159.38 65.00
3008 34.0900 4119.00 4121.11 64.00
3009 34.1000 4129.00 4091.85 64.00
3010 34.1100 4108.00 4072.58 64.00
3011 34.1200 4081.00 4064.25 64.00
3012 34.1300 4079.00 4067.10 64.00
3013 34.1400 4138.00 4081.27 64.00
3014 34.1500 4115.00 4106.36 64.00
3015 34.1600 4187.00 4140.81 65.00
3016 34.1700 4227.00 4181.30 65.00
3017 34.1800 4237.00 4221.59 65.00
3018 34.1900 4276.00 4253.23 65.00
3019 34.2000 4308.00 4268.84 66.00
3020 34.2100 4298.00 4266.58 66.00
3021 34.2200 4302.00 4251.15 66.00
3022 34.2300 4288.00 4230.31 65.00
3023 34.2400 4236.00 4210.28 65.00
3024 34.2500 4203.00 4194.03 65.00
3025 34.2600 4225.00 4181.47 65.00
3026 34.2700 4221.00 4170.63 65.00
3027 34.2800 4205.00 4159.49 65.00
3028 34.2900 4242.00 4146.50 65.00
3029 34.3000 4182.00 4131.68 65.00
3030 34.3100 4170.00 4116.30 65.00
3031 34.3200 4148.00 4102.13 64.00
3032 34.3300 4108.00 4090.76 64.00
3033 34.3400 4087.00 4083.21 64.00
3034 34.3500 4118.00 4080.00 64.00
3035 34.3600 4075.00 4081.07 64.00
3036 34.3700 4057.00 4086.03 64.00
3037 34.3800 4077.00 4094.19 64.00
3038 34.3900 4120.00 4104.78 64.00
3039 34.4000 4117.00 4117.06 64.00
3040 34.4100 4145.00 4130.50 64.00
3041 34.4200 4128.00 4144.89 64.00
3042 34.4300 4117.00 4159.93 64.00
3043 34.4400 4178.00 4176.22 65.00
3044 34.4500 4197.00 4193.08 65.00
3045 34.4600 4177.00 4210.57 65.00
3046 34.4700 4231.00 4227.73 65.00
3047 34.4800 4205.00 4243.64 65.00
3048 34.4900 4205.00 4257.42 65.00
3049 34.5000 4272.00 4268.37 65.00
3050 34.5100 4295.00 4276.16 66.00
3051 34.5200 4291.00 4280.72 66.00
3052 34.5300 4284.00 4281.98 65.00
3053 34.5400 4260.00 4279.65 65.00
3054 34.5500 4228.00 4272.94 65.00
3055 34.5600 4237.00 4260.82 65.00
3056 34.5700 4252.00 4242.64 65.00
3057 34.5800 4183.00 4218.51 65.00
3058 34.5900 4192.00 4189.81 65.00
3059 34.6000 4144.00 4158.65 64.00
3060 34.6100 4072.00 4127.22 64.00
3061 34.6200 4072.00 4097.50 64.00
3062 34.6300 4033.00 4070.93 64.00
3063 34.6400 4027.00 4048.50 63.00
3064 34.6500 4039.00 4030.80 64.00
3065 34.6600 4005.00 4018.14 63.00
3066 34.6700 3953.00 4010.55 63.00
3067 34.6800 3985.00 4007.85 63.00
3068 34.6900 3992.00 4009.66 63.00
3069 34.7000 4008.00 4015.39 63.00
3070 34.7100 4049.00 4024.25 64.00
3071 34.7200 4031.00 4035.20 63.00
3072 34.7300 4008.00 4046.94 63.00
3073 34.7400 4041.00 4057.88 64.00
3074 34.7500 4081.00 4066.21 64.00
3075 34.7600 4074.00 4070.24 64.00
3076 34.7700 4112.00 4068.79 64.00
3077 34.7800 4077.00 4061.62 64.00
3078 34.7900 4035.00 4049.56 64.00
3079 34.8000 4034.00 4034.30 64.00
3080 34.8100 3970.00 4017.81 63.00
3081 34.8200 4023.00 4002.02 63.00
3082 34.8300 3999.00 3988.45 63.00
3083 34.8400 3946.00 3978.29 63.00
3084 34.8500 3916.00 3972.34 63.00
3085 34.8600 3949.00 3971.14 63.00
3086 34.8700 3988.00 3975.02 63.00
3087 34.8800 3969.00 3984.13 63.00
3088 34.8900 4003.00 3998.33 63.00
3089 34.9000 4008.00 4017.45 63.00
3090 34.9100 3977.00 4040.78 63.00
3091 34.9200 4093.00 4067.37 64.00
3092 34.9300 4117.00 4095.78 64.00
3093 34.9400 4159.00 4124.32 64.00
3094 34.9500 4207.00 4151.37 65.00
3095 34.9600 4195.00 4175.87 65.00
3096 34.9700 4197.00 4197.65 65.00
3097 34.9800 4235.00 4217.41 65.00
3098 34.9900 4217.00 4236.19 65.00
3099 35.0000 4255.00 4254.70 65.00
3100 35.0100 4293.00 4272.73 66.00
3101 35.0200 4312.00 4289.08 66.00
3102 35.0300 4244.00 4301.86 65.00
3103 35.0400 4334.00 4309.40 66.00
3104 35.0500 4324.00 4311.15 66.00
3105 35.0600 4301.00 4308.27 66.00
3106 35.0700 4298.00 4303.20 66.00
3107 35.0800 4240.00 4298.77 65.00
3108 35.0900 4222.00 4297.37 65.00
3109 35.1000 4269.00 4300.50 65.00
3110 35.1100 4251.00 4308.60 65.00
3111 35.1200 4259.00 4321.10 65.00
3112 35.1300 4309.00 4336.18 66.00
3113 35.1400 4321.00 4351.56 66.00
3114 35.1500 4322.00 4363.53 66.00
3115 35.1600 4357.00 4368.20 66.00
3116 35.1700 4359.00 4362.32 66.00
3117 35.1800 4340.00 4344.30 66.00
3118 35.1900 4339.00 4314.86 66.00
3119 35.2000 4251.00 4276.57 65.00
3120 35.2100 4204.00 4232.95 65.00
3121 35.2200 4178.00 4187.33 65.00
3122 35.2300 4107.00 4142.44 64.00
3123 35.2400 4050.00 4100.12 64.00
3124 35.2500 4034.00 4061.59 64.00
3125 35.2600 3990.00 4027.45 63.00
3126 35.2700 3933.00 3998.02 63.00
3127 35.2800 3940.00 3973.37 63.00
3128 35.2900 3925.00 3953.44 63.00
3129 35.3000 3922.00 3938.03 63.00
3130 35.3100 3898.00 3926.84 62.00
3131 35.3200 3929.00 3920.06 63.00
3132 35.3300 3869.00 3916.75 62.00
3133 35.3400 3927.00 3916.86 63.00
3134 35.3500 3926.00 3920.00 63.00
3135 35.3600 3934.00 3925.57 63.00
3136 35.3700 3939.00 3932.72 63.00
3137 35.3800 3924.00 3940.32 63.00
3138 35.3900 3942.00 3947.26 63.00
3139 35.4000 3940.00 3952.94 63.00
3140 35.4100 3959.00 3957.55 63.00
3141 35.4200 3974.00 3961.68 63.00
3142 35.4300 3993.00 3965.84 63.00
3143 35.4400 4011.00 3970.22 63.00
3144 35.4500 3982.00 3975.11 63.00
3145 35.4600 4020.00 3980.56 63.00
3146 35.4700 4010.00 3986.82 63.00
3147 35.4800 4020.00 3994.46 63.00
3148 35.4900 4046.00 4004.13 64.00
3149 35.5000 4036.00 4016.36 64.00
3150 35.5100 3966.00 4031.64 63.00
3151 35.5200 4058.00 4050.53 64.00
3152 35.5300 4056.00 4073.20 64.00
3153 35.5400 4102.00 4099.81 64.00
3154 35.5500 4129.00 4130.22 64.00
3155 35.5600 4127.00 4164.14 64.00
3156 35.5700 4145.00 4200.97 64.00
3157 35.5800 4215.00 4239.84 65.00
3158 35.5900 4246.00 4279.49 65.00
3159 35.6000 4308.00 4318.88 66.00
3160 35.6100 4353.00 4355.55 66.00
3161 35.6200 4333.00 4388.31 66.00
3162 35.6300 4348.00 4415.96 66.00
3163 35.6400 4449.00 4437.84 67.00
3164 35.6500 4444.00 4453.77 67.00
3165 35.6600 4453.00 4463.89 67.00
3166 35.6700 4479.00 4468.41 67.00
3167 35.6800 4458.00 4467.55 67.00
3168 35.6900 4442.00 4461.51 67.00
3169 35.7000 4475.00 4450.65 67.00
3170 35.7100 4433.00 4435.62 67.00
3171 35.7200 4409.00 4417.24 66.00
3172 35.7300 4380.00 4396.50 66.00
3173 35.7400 4358.00 4374.29 66.00
3174 35.7500 4300.00 4351.42 66.00
3175 35.7600 4310.00 4328.42 66.00
3176 35.7700 4318.00 4305.69 66.00
3177 35.7800 4256.00 4283.46 65.00
3178 35.7900 4256.00 4261.88 65.00
3179 35.8000 4222.00 4241.10 65.00
3180 35.8100 4194.00 4221.25 65.00
3181 35.8200 4203.00 4202.56 65.00
3182 35.8300 4142.00 4185.21 64.00
3183 35.8400 4135.00 4169.45 64.00
3184 35.8500 4149.00 4155.49 64.00
3185 35.8600 4145.00 4143.44 64.00
3186 35.8700 4075.00 4133.33 64.00
3187 35.8800 4096.00 4124.97 64.00
3188 35.8900 4091.00 4118.00 64.00
3189 35.9000 4093.00 4111.92 64.00
3190 35.9100 4069.00 4106.28 64.00
3191 35.9200 4067.00 4100.91 64.00
3192 35.9300 4050.00 4096.10 64.00
3193 35.9400 4101.00 4092.62 64.00
3194 35.9500 4079.00 4091.43 64.00
3195 35.9600 4050.00 4093.54 64.00
3196 35.9700 4086.00 4099.88 64.00
3197 35.9800 4103.00 4111.20 64.00
3198 35.9900 4078.00 4127.94 64.00
3199 36.0000 4136.00 4149.83 64.00
3200 36.0100 4151.00 4176.30 64.00
3201 36.0200 4179.00 4207.17 65.00
3202 36.0300 4238.00 4243.28 65.00
3203 36.0400 4243.00 4286.20 65.00
3204 36.0500 4297.00 4336.66 66.00
3205 36.0600 4387.00 4393.25 66.00
3206 36.0700 4453.00 4451.06 67.00
3207 36.0800 4473.00 4501.50 67.00
3208 36.0900 4514.00 4533.59 67.00
3209 36.1000 4524.00 4538.10 67.00
3210 36.1100 4484.00 4513.42 67.00
3211 36.1200 4460.00 4465.58 67.00
3212 36.1300 4396.00 4405.19 66.00
3213 36.1400 4324.00 4342.33 66.00
3214 36.1500 4317.00 4283.80 66.00
3215 36.1600 4203.00 4233.23 65.00
3216 36.1700 4154.00 4191.86 64.00
3217 36.1800 4161.00 4159.69 65.00
3218 36.1900 4108.00 4136.15 64.00
3219 36.2000 4111.00 4120.56 64.00
3220 36.2100 4125.00 4112.49 64.00
3221 36.2200 4082.00 4111.93 64.00
3222 36.2300 4097.00 4119.19 64.00
3223 36.2400 4097.00 4134.84 64.00
3224 36.2500 4100.00 4159.48 64.00
3225 36.2600 4146.00 4193.69 64.00
3226 36.2700 4195.00 4237.84 65.00
3227 36.2800 4227.00 4291.87 65.00
3228 36.2900 4248.00 4355.21 65.00
3229 36.3000 4372.00 4426.12 66.00
3230 36.3100 4389.00 4501.40 66.00
3231 36.3200 4499.00 4575.67 67.00
3232 36.3300 4619.00 4641.86 68.00
3233 36.3400 4612.00 4692.13 68.00
3234 36.3500 4615.00 4720.80 68.00
3235 36.3600 4686.00 4726.72 68.00
3236 36.3700 4652.00 4713.65 68.00
3237 36.3800 4637.00 4688.21 68.00
3238 36.3900 4616.00 4657.10 68.00
3239 36.4000 4581.00 4625.48 68.00
3240 36.4100 4511.00 4596.31 67.00
3241 36.4200 4496.00 4570.76 67.00
3242 36.4300 4500.00 4549.43 67.00
3243 36.4400 4454.00 4532.17 67.00
3244 36.4500 4469.00 4517.72 67.00
3245 36.4600 4466.00 4505.59 67.00
3246 36.4700 4449.00 4494.86 67.00
3247 36.4800 4445.00 4484.54 67.00
3248 36.4900 4395.00 4473.62 66.00
3249 36.5000 4392.00 4461.20 66.00
3250 36.5100 4412.00 4446.52 66.00
3251 36.5200 4363.00 4429.24 66.00
3252 36.5300 4380.00 4409.46 66.00
3253 36.5400 4360.00 4387.69 66.00
3254 36.5500 4313.00 4364.81 66.00
3255 36.5600 4274.00 4341.86 65.00
3256 36.5700 4275.00 4319.87 65.00
3257 36.5800 4193.00 4299.78 65.00
3258 36.5900 4187.00 4282.41 65.00
3259 36.6000 4142.00 4268.36 64.00
3260 36.6100 4170.00 4258.11 65.00
3261 36.6200 4158.00 4251.93 64.00
3262 36.6300 4140.00 4249.91 64.00
3263 36.6400 4122.00 4251.92 64.00
3264 36.6500 4114.00 4257.51 64.00
3265 36.6600 4175.00 4266.08 65.00
3266 36.6700 4177.00 4276.60 65.00
3267 36.6800 4205.00 4287.81 65.00
3268 36.6900 4249.00 4298.15 65.00
3269 36.7000 4250.00 4306.03 65.00
3270 36.7100 4225.00 4309.99 65.00
3271 36.7200 4235.00 4309.28 65.00
3272 36.7300 4266.00 4304.01 65.00
3273 36.7400 4257.00 4295.24 65.00
3274 36.7500 4257.00 4284.83 65.00
3275 36.7600 4230.00 4275.03 65.00
3276 36.7700 4175.00 4268.21 65.00
3277 36.7800 4227.00 4266.49 65.00
3278 36.7900 4226.00 4271.65 65.00
3279 36.8000 4208.00 4284.96 65.00
3280 36.8100 4263.00 4307.21 65.00
3281 36.8200 4278.00 4338.79 65.00
3282 36.8300 4305.00 4379.46 66.00
3283 36.8400 4364.00 4428.38 66.00
3284 36.8500 4427.00 4483.93 67.00
3285 36.8600 4450.00 4543.70 67.00
3286 36.8700 4562.00 4604.28 68.00
3287 36.8800 4571.00 4661.79 68.00
3288 36.8900 4661.00 4712.28 68.00
3289 36.9000 4699.00 4752.49 69.00
3290 36.9100 4735.00 4780.05 69.00
3291 36.9200 4759.00 4793.67 69.00
3292 36.9300 4760.00 4792.80 69.00
3293 36.9400 4775.00 4777.65 69.00
3294 36.9500 4687.00 4749.26 68.00
3295 36.9600 4658.00 4709.59 68.00
3296 36.9700 4602.00 4661.13 68.00
3297 36.9800 4545.00 4606.64 67.00
3298 36.9900 4491.00 4548.61 67.00
3299 37.0000 4390.00 4489.29 66.00
3300 37.0100 4338.00 4430.42 66.00
3301 37.0200 4290.00 4373.48 65.00
3302 37.0300 4267.00 4319.68 65.00
3303 37.0400 4196.00 4269.81 65.00
3304 37.0500 4159.00 4224.43 64.00
3305 37.0600 4128.00 4183.76 64.00
3306 37.0700 4052.00 4147.96 64.00
3307 37.0800 4069.00 4116.88 64.00
3308 37.0900 4052.00 4090.38 64.00
3309 37.1000 4002.00 4068.16 63.00
3310 37.1100 4003.00 4049.87 63.00
3311 37.1200 3993.00 4035.01 63.00
3312 37.1300 3963.00 4023.00 63.00
3313 37.1400 4025.00 4013.15 63.00
3314 37.1500 3977.00 4004.69 63.00
3315 37.1600 4001.00 3996.85 63.00
3316 37.1700 3970.00 3988.91 63.00
3317 37.1800 3982.00 3980.28 63.00
3318 37.1900 3932.00 3970.61 63.00
3319 37.2000 3941.00 3959.70 63.00
3320 37.2100 3903.00 3947.91 62.00
3321 37.2200 3919.00 3935.44 63.00
3322 37.2300 3902.00 3922.72 62.00
3323 37.2400 3871.00 3910.15 62.00
3324 37.2500 3827.00 3898.10 62.00
3325 37.2600 3864.00 3886.85 62.00
3326 37.2700 3824.00 3876.59 62.00
3327 37.2800 3816.00 3867.43 62.00
3328 37.2900 3829.00 3859.43 62.00
3329 37.3000 3810.00 3852.60 62.00
3330 37.3100 3818.00 3846.94 62.00
3331 37.3200 3819.00 3842.47 62.00
3332 37.3300 3813.00 3839.17 62.00
3333 37.3400 3820.00 3837.17 62.00
3334 37.3500 3801.00 3836.48 62.00
3335 37.3600 3817.00 3837.15 62.00
3336 37.3700 3779.00 3839.29 61.00
3337 37.3800 3844.00 3842.99 62.00
3338 37.3900 3804.00 3848.41 62.00
3339 37.4000 3833.00 3855.70 62.00
3340 37.4100 3821.00 3864.89 62.00
3341 37.4200 3855.00 3876.27 62.00
3342 37.4300 3817.00 3889.77 62.00
3343 37.4400 3883.00 3905.44 62.00
3344 37.4500 3892.00 3922.65 62.00
3345 37.4600 3888.00 3941.02 62.00
3346 37.4700 3965.00 3959.68 63.00
3347 37.4800 3964.00 3977.39 63.00
3348 37.4900 3939.00 3992.63 63.00
3349 37.5000 3986.00 4003.76 63.00
3350 37.5100 3964.00 4009.38 63.00
3351 37.5200 4011.00 4008.55 63.00
3352 37.5300 3984.00 4000.94 63.00
3353 37.5400 3947.00 3987.11 63.00
3354 37.5500 3915.00 3967.96 63.00
3355 37.5600 3925.00 3944.81 63.00
3356 37.5700 3929.00 3919.19 63.00
3357 37.5800 3867.00 3892.54 62.00
3358 37.5900 3882.00 3866.16 62.00
3359 37.6000 3851.00 3841.14 62.00
3360 37.6100 3790.00 3818.18 62.00
3361 37.6200 3811.00 3797.86 62.00
3362 37.6300 3798.00 3780.53 62.00
3363 37.6400 3774.00 3766.41 61.00
3364 37.6500 3761.00 3755.61 61.00
3365 37.6600 3750.00 3748.07 61.00
3366 37.6700 3749.00 3744.05 61.00
3367 37.6800 3765.00 3743.40 61.00
3368 37.6900 3756.00 3746.08 61.00
3369 37.7000 3753.00 3752.03 61.00
3370 37.7100 3808.00 3761.16 62.00
3371 37.7200 3782.00 3773.30 61.00
3372 37.7300 3789.00 3788.48 62.00
3373 37.7400 3826.00 3806.43 62.00
3374 37.7500 3851.00 3826.90 62.00
3375 37.7600 3863.00 3849.83 62.00
3376 37.7700 3888.00 3874.28 62.00
3377 37.7800 3884.00 3899.93 62.00
3378 37.7900 3920.00 3926.07 63.00
3379 37.8000 3995.00 3951.73 63.00
3380 37.8100 4037.00 3975.59 64.00
3381 37.8200 4074.00 3995.96 64.00
3382 37.8300 4109.00 4011.10 64.00
3383 37.8400 4053.00 4019.72 64.00
3384 37.8500 4041.00 4021.51 64.00
3385 37.8600 4066.00 4017.16 64.00
3386 37.8700 4044.00 4008.00 64.00
3387 37.8800 4025.00 3995.36 63.00
3388 37.8900 4042.00 3980.44 64.00
3389 37.9000 3970.00 3964.12 63.00
3390 37.9100 3941.00 3947.11 63.00
3391 37.9200 3972.00 3929.86 63.00
3392 37.9300 3939.00 3912.68 63.00
3393 37.9400 3900.00 3895.74 62.00
3394 37.9500 3892.00 3879.12 62.00
3395 37.9600 3879.00 3862.83 62.00
3396 37.9700 3850.00 3846.85 62.00
3397 37.9800 3871.00 3831.13 62.00
3398 37.9900 3876.00 3815.80 62.00
3399 38.0000 3842.00 3801.10 62.00
3400 38.0100 3856.00 3786.37 62.00
3401 38.0200 3834.00 3771.95 62.00
3402 38.0300 3792.00 3757.85 62.00
3403 38.0400 3811.00 3744.10 62.00
3404 38.0500 3798.00 3730.76 62.00
3405 38.0600 3786.00 3717.89 62.00
3406 38.0700 3791.00 3705.58 62.00
3407 38.0800 3765.00 3693.93 61.00
3408 38.0900 3741.00 3683.01 61.00
3409 38.1000 3754.00 3672.86 61.00
3410 38.1100 3736.00 3663.43 61.00
3411 38.1200 3743.00 3654.55 61.00
3412 38.1300 3732.00 3645.91 61.00
3413 38.1400 3702.00 3637.08 61.00
3414 38.1500 3700.00 3627.62 61.00
3415 38.1600 3744.00 3617.27 61.00
3416 38.1700 3721.00 3606.07 61.00
3417 38.1800 3706.00 3594.25 61.00
3418 38.1900 3713.00 3582.18 61.00
3419 38.2000 3715.00 3570.24 61.00
3420 38.2100 3674.00 3558.60 61.00
3421 38.2200 3672.00 3547.47 61.00
3422 38.2300 3646.00 3536.87 60.00
3423 38.2400 3673.00 3526.85 61.00
3424 38.2500 3671.00 3517.48 61.00
3425 38.2600 3654.00 3508.85 60.00
3426 38.2700 3631.00 3501.04 60.00
3427 38.2800 3613.00 3494.14 60.00
loop_
_pd_proc_info_excluded_regions
'from 0.01 to 4.010'
'from 38.29 to 78.048'
loop_
_refln_index_h
_refln_index_k
_refln_index_l
_refln_F_squared_calc
_refln_F_squared_meas
_refln_F_squared_sigma
_refln_observed_status
_refln_d_spacing
2 0 0 314.94 293.98 7.03 o 5.759827
1 0 1 624.56 650.68 10.35 o 4.138270
2 0 1 6719.86 6596.68 25.72 o 3.513638
2 1 0 2230.05 2278.25 18.24 o 3.373800
0 1 1 10709.62 10703.96 36.28 o 3.034921
1 1 1 29023.52 29102.79 41.72 o 2.934779
3 0 1 537.12 542.01 1.36 o 2.902779
4 0 0 60562.88 60557.75 120.52 o 2.879914
2 1 1 24.50 30.29 2.29 o 2.684997
4 0 1 383.78 365.29 5.61 o 2.415233
3 1 1 16641.81 16634.43 38.58 o 2.381021
4 1 0 4911.89 4954.38 13.11 o 2.368353
0 0 2 18878.42 18453.15 106.90 o 2.217136
1 0 2 10771.06 10805.92 58.57 o 2.177178
4 1 1 7454.57 7439.80 20.38 o 2.089056
0 2 0 51805.86 51293.18 132.22 o 2.081323
2 0 2 474.48 469.30 1.33 o 2.069135
5 0 1 5064.60 5034.39 42.79 o 2.044443
2 2 0 168.63 201.28 5.17 o 1.957446
1 1 2 5686.39 5742.70 24.63 o 1.929233
3 0 2 10631.74 10660.09 45.09 o 1.920057
6 0 0 1105.09 1089.62 5.74 o 1.919942
1 2 1 312.82 330.07 3.06 o 1.859396
2 1 2 2310.40 2346.74 12.49 o 1.852856
5 1 1 20757.46 20623.81 59.66 o 1.835062
2 2 1 3739.09 3700.62 31.51 o 1.790731
6 0 1 3637.57 3654.14 21.80 o 1.761882
4 0 2 12307.85 12412.54 61.22 o 1.756819
3 1 2 2664.68 2738.43 16.68 o 1.743520
6 1 0 2622.97 2690.50 18.95 o 1.743433
3 2 1 374.24 366.66 1.37 o 1.691460
4 2 0 35853.50 35007.54 126.16 o 1.686900
6 1 1 129.66 121.02 2.49 o 1.622529
4 1 2 1674.94 1551.82 30.02 o 1.618572
5 0 2 5738.61 5528.45 78.81 o 1.597555
4 2 1 234.81 171.35 13.64 o 1.576665
7 0 1 1249.17 1021.12 44.55 o 1.542841
0 2 2 12091.31 11991.28 90.83 o 1.517460
1 2 2 6704.65 6811.37 45.91 o 1.504464
5 1 2 6360.68 6414.86 47.64 o 1.491486
2 2 2 315.94 306.45 3.76 o 1.467389
1 0 3 4866.89 4775.29 41.17 o 1.466071
5 2 1 3116.76 3050.87 27.28 o 1.458504
6 0 2 2325.30 2339.15 16.06 o 1.451390
7 1 1 4181.51 4242.87 28.31 o 1.446671
8 0 0 19275.86 19648.27 147.30 o 1.439957
2 0 3 4982.53 5035.92 33.46 o 1.431700
3 2 2 6760.44 6768.79 53.86 o 1.411258
6 2 0 789.54 790.62 6.26 o 1.411212
0 1 3 13853.83 13869.44 106.30 o 1.392886
1 1 3 1241.42 1256.56 9.56 o 1.382814
3 0 3 6578.54 6574.28 55.11 o 1.379423
6 1 2 534.60 536.75 7.22 o 1.370474
8 0 1 689.05 691.60 11.87 o 1.369555
8 1 0 8256.72 8539.11 96.79 o 1.360836
2 1 3 0.81 0.83 0.01 o 1.353861
2 3 0 619.11 640.32 4.21 o 1.348958
6 2 1 2320.33 2384.15 15.92 o 1.344754
4 2 2 8297.25 8529.41 56.87 o 1.342498
0 3 1 4042.37 4178.60 28.03 o 1.324231
7 0 2 6148.82 6367.23 38.43 o 1.321432
1 3 1 11546.46 11829.49 66.37 o 1.315567
4 0 3 512.97 526.27 2.86 o 1.315006
3 1 3 3.41 3.47 0.02 o 1.309401
8 1 1 3158.10 3269.55 47.57 o 1.300951
2 3 1 8.84 9.90 0.29 o 1.290562
5 2 2 3829.43 4139.02 50.01 o 1.267279
7 1 2 640.64 648.56 4.41 o 1.259493
4 1 3 10672.30 10609.08 56.48 o 1.253925
3 3 1 6904.21 6846.20 37.33 o 1.251879
4 3 0 2137.33 2121.00 11.63 o 1.250027
5 0 3 1284.25 1277.99 8.25 o 1.244076
7 2 1 954.87 1022.38 18.16 o 1.239442
9 0 1 7189.55 7565.12 116.48 o 1.229755
8 0 2 3711.32 4005.72 53.44 o 1.207617
4 3 1 3139.74 3334.46 33.85 o 1.203135
1 2 3 3390.99 3546.21 32.52 o 1.198573
5 1 3 2465.90 2545.36 19.10 o 1.191980
6 2 2 1665.21 1698.18 15.30 o 1.190511
8 2 0 13188.02 13499.47 79.07 o 1.184177
2 2 3 3276.84 3344.90 18.87 o 1.179572
9 1 1 8146.69 8324.07 51.91 o 1.179366
6 0 3 3551.90 3621.61 26.19 o 1.171213
1 3 2 2367.20 2405.62 29.34 o 1.170117
8 1 2 3028.14 3237.88 45.35 o 1.159797
2 3 2 1240.39 1259.01 9.05 o 1.152417
10 0 0 829.62 850.38 6.93 o 1.151965
3 2 3 4672.62 4663.89 31.62 o 1.149817
5 3 1 9708.53 9655.22 66.43 o 1.148098
8 2 1 474.62 463.43 3.82 o 1.144083
6 1 3 7.11 6.54 0.21 o 1.127436
3 3 2 1122.38 1032.95 32.36 o 1.124623
6 3 0 977.08 893.41 22.61 o 1.124600
7 2 2 4206.60 4021.62 56.39 o 1.115581
10 0 1 1497.18 1434.03 20.82 o 1.114956
4 2 3 360.38 345.19 4.44 o 1.111706
10 1 0 2709.93 2602.63 41.14 o 1.110236
0 0 4 55.75 53.03 0.64 o 1.108568
9 0 2 1825.22 1737.33 30.87 o 1.108501
1 0 4 2579.15 2418.25 34.75 o 1.103470
7 0 3 4008.69 3569.37 90.53 o 1.099655
6 3 1 54.85 44.38 2.12 o 1.090089
4 3 2 846.87 702.43 37.11 o 1.088886
2 0 4 375.10 308.91 10.90 o 1.088589
10 1 1 161.48 150.40 5.00 o 1.076992
9 1 2 4532.28 4488.76 68.60 o 1.071171
5 2 3 903.31 894.32 11.91 o 1.067853
1 1 4 208.50 202.32 1.92 o 1.066629
3 0 4 1754.48 1696.41 15.00 o 1.065071
7 1 3 773.81 743.43 7.78 o 1.063182
9 2 1 5062.33 4875.50 47.28 o 1.058755
2 1 4 11600.44 10910.67 77.93 o 1.053172
5 3 2 2940.90 2721.92 26.26 o 1.047581
8 2 2 2661.48 2484.70 27.36 o 1.044528
0 4 0 16213.51 15361.99 176.92 o 1.040662
4 0 4 136.79 130.03 1.90 o 1.034567
3 1 4 24.64 22.82 0.41 o 1.031831
7 3 1 1944.29 1763.59 45.05 o 1.031692
8 0 3 1078.64 977.34 24.04 o 1.031421
2 4 0 67.14 61.26 1.28 o 1.024081
10 0 2 2231.97 2030.73 49.23 o 1.022221
6 2 3 2467.82 2226.97 51.24 o 1.020702
11 0 1 581.75 530.46 13.56 o 1.019203
0 3 3 6750.81 6350.45 133.60 o 1.011640
1 4 1 50.27 47.01 0.82 o 1.009239
10 2 0 636.75 600.50 11.39 o 1.007887
1 3 3 693.61 654.26 11.81 o 1.007762
4 1 4 165.06 155.88 1.80 o 1.004023
6 3 2 319.11 300.35 4.08 o 1.002955
8 1 3 5179.70 4856.86 62.75 o 1.001146
8 3 0 4244.98 3983.24 52.47 o 0.999159
5 0 4 2241.63 2107.44 26.54 o 0.998946
2 4 1 1123.64 1056.79 13.94 o 0.997817
2 3 3 0.19 0.18 0.00 o 0.996388
10 1 2 16.38 15.43 0.48 o 0.992727
11 1 1 433.02 442.43 21.67 o 0.989962
10 2 1 1061.87 1065.86 17.30 o 0.982819
3 4 1 210.59 207.89 2.42 o 0.979611
4 4 0 12119.85 12007.77 131.75 o 0.978723
0 2 4 29.76 29.54 0.33 o 0.978435
9 2 2 1314.56 1294.18 15.42 o 0.978389
3 3 3 4.66 4.60 0.06 o 0.978260
1 2 4 1865.66 1849.80 19.70 o 0.974925
8 3 1 1558.31 1543.86 17.52 o 0.974721
7 2 3 2951.87 2913.64 37.96 o 0.972291
5 1 4 556.76 553.55 6.44 o 0.971367
9 0 3 22.24 22.75 0.46 o 0.967593
2 2 4 274.71 278.98 5.90 o 0.964616
6 0 4 2148.14 2167.30 35.33 o 0.960029
12 0 0 3677.41 3654.54 108.73 o 0.959971
7 3 2 301.42 302.80 5.17 o 0.956914
4 4 1 79.88 80.20 1.31 o 0.955720
4 3 3 5389.24 5397.59 92.95 o 0.954465
3 2 4 1271.53 1313.02 18.42 o 0.948139
11 0 2 2592.27 2712.06 58.57 o 0.946923
9 1 3 1663.26 1698.55 23.15 o 0.942467
0 4 2 4456.40 4539.70 60.96 o 0.942051
1 4 2 2295.64 2329.22 26.15 o 0.938917
12 0 1 553.54 557.13 7.16 o 0.938237
6 1 4 6253.70 6335.08 68.60 o 0.935472
12 1 0 5721.34 5733.14 73.70 o 0.935419
2 4 2 123.39 128.77 2.21 o 0.929698
5 4 1 1023.85 1082.28 19.69 o 0.927426
4 2 4 88.87 93.88 1.53 o 0.926428
5 3 3 1365.85 1480.48 30.86 o 0.926279
8 2 3 790.77 842.87 14.61 o 0.924167
11 1 2 81.73 86.97 1.57 o 0.923335
9 3 1 4349.08 4460.63 66.03 o 0.920322
7 0 4 719.58 740.81 9.73 o 0.919419
10 2 2 1666.07 1688.45 25.59 o 0.917531
11 2 1 443.36 446.85 7.39 o 0.915347
12 1 1 973.49 976.58 17.11 o 0.915275
3 4 2 2357.56 2389.96 36.73 o 0.914919
6 4 0 342.20 348.96 5.04 o 0.914907
8 3 2 1653.40 1725.64 37.04 o 0.910932
10 0 3 2044.09 2204.18 61.31 o 0.908609
5 2 4 1654.13 1851.17 49.07 o 0.900587
7 1 4 0.07 0.08 0.01 o 0.897781
6 4 1 806.46 892.88 23.20 o 0.896033
4 4 2 3180.65 3502.91 94.34 o 0.895365
6 3 3 2.68 2.93 0.08 o 0.894999
10 1 3 21.77 24.37 1.11 o 0.887708
10 3 0 1383.70 1525.32 68.59 o 0.886322
1 0 5 3993.54 4485.16 155.69 o 0.884238
12 0 2 411.30 451.41 24.32 o 0.880941
8 0 4 405.74 429.56 12.43 o 0.878410
9 2 3 15.28 16.28 0.61 o 0.877412
2 0 5 559.04 566.70 10.21 o 0.876525
5 4 2 1430.91 1442.81 25.81 o 0.871974
6 2 4 1601.82 1629.62 26.89 o 0.871760
12 2 0 2711.79 2724.97 50.70 o 0.871717
10 3 1 83.31 84.74 1.33 o 0.869130
13 0 1 5364.41 5426.17 98.46 o 0.868947
0 1 5 498.82 505.65 6.14 o 0.867387
9 3 2 2406.19 2418.95 35.78 o 0.866062
1 1 5 42.49 43.24 0.50 o 0.864939
3 0 5 4400.53 4490.06 50.11 o 0.864107
1 3 4 104.84 106.65 1.49 o 0.863656
7 4 1 432.06 442.59 6.23 o 0.862747
11 2 2 1912.16 1944.13 31.26 o 0.861912
12 1 2 2008.35 2038.14 33.78 o 0.861853
7 3 3 414.78 423.22 6.51 o 0.861823
8 1 4 261.99 268.24 3.58 o 0.859481
2 1 5 50.92 52.30 0.65 o 0.857716
2 3 4 6321.17 6545.94 101.04 o 0.856465
12 2 1 411.29 428.04 7.86 o 0.855346
11 0 3 1105.16 1151.72 20.31 o 0.854504
13 1 1 1691.13 1777.05 48.69 o 0.850611
1 4 3 1348.52 1399.21 35.96 o 0.848606
4 0 5 36.16 36.63 0.64 o 0.847576
3 1 5 664.85 670.73 12.91 o 0.846070
6 4 2 687.08 694.51 16.30 o 0.845730
3 3 4 10.95 10.98 0.26 o 0.844870
8 4 0 5115.30 5074.88 121.67 o 0.843450
2 4 3 1202.31 1171.72 31.47 o 0.841781
7 2 4 535.15 522.74 12.73 o 0.841015
9 0 4 1198.51 1176.31 29.22 o 0.837970
11 1 3 1499.40 1469.64 46.45 o 0.837049
10 2 3 1521.81 1488.30 38.41 o 0.832718
3 4 3 1906.91 1868.36 45.55 o 0.830764
4 1 5 365.58 356.19 7.50 o 0.830535
4 3 4 95.72 93.11 2.19 o 0.829399
8 4 1 186.25 181.12 4.25 o 0.828594
8 3 3 2836.61 2739.46 68.83 o 0.827775
5 0 5 2060.20 2011.58 42.95 o 0.827654
2 5 0 107.25 103.22 2.57 o 0.823967
10 3 2 7.81 7.59 0.26 o 0.822997
13 0 2 341.71 333.16 14.19 o 0.822842
14 0 0 181.25 178.26 9.08 o 0.822832
9 1 4 749.92 730.89 17.86 o 0.821490
11 3 1 226.61 220.21 6.74 o 0.821420
0 5 1 1095.59 1075.16 23.31 o 0.818233
7 4 2 1641.71 1610.91 36.44 o 0.817571
1 5 1 3297.85 3218.41 67.76 o 0.816177
4 4 3 145.39 141.38 3.20 o 0.816043
1 2 5 3005.75 2919.70 52.74 o 0.813837
5 1 5 39.47 38.36 0.68 o 0.811764
12 2 2 309.23 297.64 7.85 o 0.811265
5 3 4 305.37 296.07 6.38 o 0.810703
2 5 1 2.23 2.16 0.04 o 0.810100
8 2 4 302.30 292.80 6.31 o 0.809286
14 0 1 536.04 520.16 14.16 o 0.809022
2 2 5 423.39 403.47 7.02 o 0.807812
13 1 2 2435.61 2360.47 59.94 o 0.807222
14 1 0 2209.84 2143.00 55.60 o 0.807213
6 0 5 234.07 221.43 3.48 o 0.805112
12 0 3 943.09 897.16 17.60 o 0.805078
13 2 1 4051.94 3788.84 73.63 o 0.801868
3 5 1 1976.26 1818.14 31.00 o 0.800266
4 5 0 637.15 585.80 9.83 o 0.799782
10 0 4 2532.60 2323.11 39.07 o 0.798777
5 4 3 367.03 337.29 6.27 o 0.798216
3 2 5 3328.66 3056.05 47.40 o 0.798060
9 4 1 2062.49 1897.25 33.27 o 0.794395
14 1 1 132.85 118.79 2.92 o 0.794162
9 3 3 950.65 871.14 16.76 o 0.793674
11 2 3 839.62 784.30 13.80 o 0.790476
6 1 5 306.34 282.12 4.41 o 0.790462
12 1 3 1772.26 1655.52 29.15 o 0.790430
6 3 4 3531.62 3298.30 57.01 o 0.789483
12 3 0 3246.37 3035.47 53.76 o 0.789451
8 4 2 1108.36 1037.75 18.70 o 0.788332
4 5 1 899.82 840.47 14.92 o 0.787082
4 2 5 27.58 25.76 0.47 o 0.784983
10 1 4 1792.17 1663.37 37.17 o 0.784465
11 3 2 45.16 41.40 1.55 o 0.782146
7 0 5 2719.73 2524.09 68.96 o 0.780706
6 4 3 999.78 946.37 35.95 o 0.777937
1 5 2 672.26 640.63 22.31 o 0.777616
9 2 4 911.12 872.01 29.74 o 0.777333
12 3 1 550.39 527.02 19.46 o 0.777230
2 5 2 413.05 432.45 12.38 o 0.772355
10 4 0 284.05 297.39 8.53 o 0.772219
14 0 2 927.42 980.52 31.56 o 0.771421
5 5 1 2980.07 3193.93 89.13 o 0.771051
5 2 5 1567.92 1721.09 47.00 o 0.769077
7 1 5 1621.48 1791.02 50.38 o 0.767327
7 3 4 0.01 0.01 0.00 o 0.766431
13 2 2 260.49 319.28 14.97 o 0.765211
14 2 0 138.83 170.16 8.09 o 0.765204
3 5 2 323.51 402.97 19.40 o 0.763819
6 5 0 259.68 310.63 13.74 o 0.763811
