#------------------------------------------------------------------------------
#$Date: 2016-06-17 04:50:27 +0300 (Fri, 17 Jun 2016) $
#$Revision: 183633 $
#$URL: file:///home/coder/svn-repositories/cod/cif/2/10/75/2107514.cif $
#------------------------------------------------------------------------------
#
# This file is available in the Crystallography Open Database (COD),
# http://www.crystallography.net/. The original data for this entry
# were provided by IUCr Journals, http://journals.iucr.org/.
#
# The file may be used within the scientific community so long as
# proper attribution is given to the journal article from which the
# data were obtained.
#
data_2107514
loop_
_publ_author_name
'Sist, Mattia'
'Zhang, Jiawei'
'Brummerstedt Iversen, Bo'
_publ_section_title
;
 Crystal structure and phase transition of thermoelectric SnSe
;
_journal_coeditor_code           GW5043
_journal_issue                   3
_journal_name_full               'Acta Crystallographica Section B'
_journal_page_first              310
_journal_page_last               316
_journal_paper_doi               10.1107/S2052520616003334
_journal_volume                  72
_journal_year                    2016
_chemical_formula_moiety         'Se1 Sn0.9816'
_chemical_formula_sum            'Se Sn0.9816'
_chemical_formula_weight         195.50
_chemical_name_common            'Tin Selenide'
_space_group_IT_number           62
_symmetry_cell_setting           orthorhombic
_symmetry_Int_Tables_number      62
_symmetry_space_group_name_Hall  '-P 2ac 2n'
_symmetry_space_group_name_H-M   'P n m a'
_cell_angle_alpha                90
_cell_angle_beta                 90
_cell_angle_gamma                90
_cell_formula_units_Z            4
_cell_length_a                   11.54547(15)
_cell_length_b                   4.17619(6)
_cell_length_c                   4.42402(9)
_cell_measurement_temperature    465(5)
_cell_volume                     213.309(6)
_computing_structure_refinement  'Jana2006, (Petricek,2014)'
_diffrn_ambient_temperature      465(5)
_diffrn_detector_type            'Image plate'
_diffrn_measurement_device_type  BL44B2
_diffrn_radiation_probe          x-ray
_diffrn_radiation_type           Synchrotron,monochromatic
_diffrn_radiation_wavelength     0.50021
_diffrn_source_type              'Spring8, BL44B2 beamline'
_exptl_absorpt_coefficient_mu    11.143
_exptl_absorpt_correction_type   none
_exptl_crystal_density_diffrn    6.088
_exptl_crystal_F_000             332.3
_pd_char_colour                  metallic_grey
_pd_meas_2theta_range_inc        0.01
_pd_meas_2theta_range_max        77.970
_pd_meas_2theta_range_min        0.010
_pd_meas_number_of_points        7797
_pd_proc_2theta_range_inc        0.01
_pd_proc_2theta_range_max        38.28
_pd_proc_2theta_range_min        4.02
_pd_proc_ls_background_function
'Manual background combined with 8 Chebyshev polynoms'
_pd_proc_ls_pref_orient_corr     none
_pd_proc_ls_profile_function     Pseudo-Voigt
_pd_proc_ls_prof_R_factor        0.0173
_pd_proc_ls_prof_wR_expected     0.0134
_pd_proc_ls_prof_wR_factor       0.0225
_pd_spec_mounting                capillary
_pd_spec_mount_mode              transmission
_refine_ls_goodness_of_fit_all   1.68
_refine_ls_number_constraints    0
_refine_ls_number_parameters     32
_refine_ls_number_restraints     0
_refine_ls_R_factor_all          0.0244
_refine_ls_R_factor_gt           0.0244
_refine_ls_shift/su_max          0.0199
_refine_ls_shift/su_mean         0.0043
_refine_ls_weighting_scheme      sigma
_refine_ls_wR_factor_all         0.0155
_refine_ls_wR_factor_gt          0.0155
_cod_data_source_file            gw5043sup1.cif
_cod_data_source_block           465
_cod_depositor_comments
;
The following automatic conversions were performed:

'_diffrn_radiation_probe' value 'X-ray' changed to 'x-ray' according
to
/usr/data/users/saulius/crontab/automatic-downloads/rss-feeds/IUCr/lib/dictionaries/cif_core.dic
dictionary named 'cif_core.dic' version 2.4.2 from 2011-04-26.

Automatic conversion script
Id: cif_fix_values 4268 2015-11-12 08:31:59Z antanas 

 Adding full bibliography for 2107508--2107520.cif.
;
_cod_original_formula_sum        'Se1 Sn0.9816'
_cod_database_code               2107514
_cod_database_fobs_code          2107514
loop_
_space_group_symop_id
_space_group_symop_operation_xyz
1 x,y,z
2 -x+1/2,-y,z+1/2
3 -x,y+1/2,-z
4 x+1/2,-y+1/2,-z+1/2
5 -x,-y,-z
6 x+1/2,y,-z+1/2
7 x,-y+1/2,z
8 -x+1/2,y+1/2,z+1/2
loop_
_atom_site_label
_atom_site_type_symbol
_atom_site_fract_x
_atom_site_fract_y
_atom_site_fract_z
_atom_site_adp_type
_atom_site_U_iso_or_equiv
_atom_site_site_symmetry_multiplicity
_atom_site_occupancy
_atom_site_calc_flag
Sn Sn 0.11923(4) 0.25 0.09733(11) Uani 0.0237(2) 4 0.9816 d
Se Se 0.85523(6) 0.25 0.48242(13) Uani 0.0185(3) 4 1 d
loop_
_atom_site_aniso_label
_atom_site_aniso_type_symbol
_atom_site_aniso_U_11
_atom_site_aniso_U_22
_atom_site_aniso_U_33
_atom_site_aniso_U_12
_atom_site_aniso_U_13
_atom_site_aniso_U_23
Sn Sn 0.0239(4) 0.0229(5) 0.0241(4) 0 -0.0058(4) 0
Se Se 0.0183(5) 0.0190(5) 0.0184(5) 0 -0.0024(4) 0
loop_
_atom_type_symbol
_atom_type_scat_dispersion_real
_atom_type_scat_dispersion_imag
_atom_type_scat_source
Se 0.2899 1.2209 'International Tables Vol C tables 4.2.6.8 and 6.1.1.1'
Sn -1.5316 0.7679 'International Tables Vol C tables 4.2.6.8 and 6.1.1.1'
loop_
_geom_angle_atom_site_label_1
_geom_angle_atom_site_label_2
_geom_angle_atom_site_label_3
_geom_angle_site_symmetry_1
_geom_angle_site_symmetry_2
_geom_angle_site_symmetry_3
_geom_angle
Se Sn Se 4_455 1_555 3_656 88.906
Se Sn Se 4_455 1_555 3_655 79.208
Se Sn Se 3_645 1_555 3_655 77.932
Se Sn Se 3_646 1_555 3_656 95.930
Se Sn Se 3_656 1_555 3_655 91.973
Se Sn Se 4_455 1_555 1_455 158.175
Se Sn Sn 4_455 1_555 3_545 137.362
loop_
_geom_bond_atom_site_label_1
_geom_bond_atom_site_label_2
_geom_bond_site_symmetry_1
_geom_bond_site_symmetry_2
_geom_bond_distance
Sn Se 1_555 4_455 2.748
Sn Se 1_555 3_656 2.811
Sn Se 1_555 3_655 3.320
Sn Se 1_555 1_455 3.492
Sn Sn 1_555 3_545 3.561
Sn Se 1_555 1_454 4.085
loop_
_pd_proc_point_id
_pd_proc_2theta_corrected
_pd_proc_intensity_net
_pd_calc_intensity_net
_pd_proc_ls_weight
1 4.0200 3178.00 3160.59 56.00
2 4.0300 3147.00 3160.40 56.00
3 4.0400 3162.00 3160.23 56.00
4 4.0500 3162.00 3160.06 56.00
5 4.0600 3162.00 3159.91 56.00
6 4.0700 3145.00 3159.78 56.00
7 4.0800 3167.00 3159.65 56.00
8 4.0900 3154.00 3159.54 56.00
9 4.1000 3143.00 3159.44 56.00
10 4.1100 3177.00 3159.35 56.00
11 4.1200 3178.00 3159.27 56.00
12 4.1300 3175.00 3159.21 56.00
13 4.1400 3173.00 3159.16 56.00
14 4.1500 3156.00 3159.12 56.00
15 4.1600 3148.00 3159.09 56.00
16 4.1700 3185.00 3159.07 56.00
17 4.1800 3163.00 3159.06 56.00
18 4.1900 3142.00 3159.07 56.00
19 4.2000 3174.00 3159.09 56.00
20 4.2100 3166.00 3159.12 56.00
21 4.2200 3175.00 3159.16 56.00
22 4.2300 3194.00 3159.21 57.00
23 4.2400 3172.00 3159.27 56.00
24 4.2500 3159.00 3159.35 56.00
25 4.2600 3199.00 3159.44 57.00
26 4.2700 3182.00 3159.53 56.00
27 4.2800 3180.00 3159.64 56.00
28 4.2900 3203.00 3159.76 57.00
29 4.3000 3198.00 3159.89 57.00
30 4.3100 3167.00 3160.04 56.00
31 4.3200 3211.00 3160.19 57.00
32 4.3300 3190.00 3160.36 56.00
33 4.3400 3187.00 3160.53 56.00
34 4.3500 3179.00 3160.72 56.00
35 4.3600 3177.00 3160.92 56.00
36 4.3700 3176.00 3161.13 56.00
37 4.3800 3210.00 3161.35 57.00
38 4.3900 3201.00 3161.58 57.00
39 4.4000 3199.00 3161.82 57.00
40 4.4100 3211.00 3162.07 57.00
41 4.4200 3201.00 3162.34 57.00
42 4.4300 3183.00 3162.62 56.00
43 4.4400 3217.00 3162.90 57.00
44 4.4500 3184.00 3163.20 56.00
45 4.4600 3199.00 3163.51 57.00
46 4.4700 3197.00 3163.84 57.00
47 4.4800 3182.00 3164.17 56.00
48 4.4900 3160.00 3164.52 56.00
49 4.5000 3223.00 3164.88 57.00
50 4.5100 3179.00 3165.25 56.00
51 4.5200 3197.00 3165.63 57.00
52 4.5300 3214.00 3166.03 57.00
53 4.5400 3189.00 3166.44 56.00
54 4.5500 3175.00 3166.86 56.00
55 4.5600 3245.00 3167.30 57.00
56 4.5700 3224.00 3167.75 57.00
57 4.5800 3212.00 3168.22 57.00
58 4.5900 3234.00 3168.70 57.00
59 4.6000 3219.00 3169.20 57.00
60 4.6100 3216.00 3169.72 57.00
61 4.6200 3259.00 3170.26 57.00
62 4.6300 3222.00 3170.81 57.00
63 4.6400 3277.00 3171.39 57.00
64 4.6500 3297.00 3171.99 57.00
65 4.6600 3289.00 3172.62 57.00
66 4.6700 3262.00 3173.27 57.00
67 4.6800 3275.00 3173.95 57.00
68 4.6900 3252.00 3174.66 57.00
69 4.7000 3247.00 3175.41 57.00
70 4.7100 3260.00 3176.20 57.00
71 4.7200 3227.00 3177.04 57.00
72 4.7300 3205.00 3177.93 57.00
73 4.7400 3233.00 3178.88 57.00
74 4.7500 3199.00 3179.90 57.00
75 4.7600 3220.00 3181.01 57.00
76 4.7700 3234.00 3182.21 57.00
77 4.7800 3252.00 3183.54 57.00
78 4.7900 3214.00 3185.01 57.00
79 4.8000 3251.00 3186.65 57.00
80 4.8100 3226.00 3188.52 57.00
81 4.8200 3250.00 3190.67 57.00
82 4.8300 3261.00 3193.18 57.00
83 4.8400 3245.00 3196.16 57.00
84 4.8500 3258.00 3199.78 57.00
85 4.8600 3266.00 3204.26 57.00
86 4.8700 3264.00 3209.97 57.00
87 4.8800 3338.00 3217.83 58.00
88 4.8900 3337.00 3228.24 58.00
89 4.9000 3399.00 3244.90 58.00
90 4.9100 3436.00 3280.88 59.00
91 4.9200 3590.00 3380.63 60.00
92 4.9300 3850.00 3647.86 62.00
93 4.9400 4380.00 4211.05 66.00
94 4.9500 5198.00 5047.99 72.00
95 4.9600 5698.00 5783.45 75.00
96 4.9700 5545.00 5817.15 74.00
97 4.9800 4858.00 5115.71 70.00
98 4.9900 4006.00 4269.68 63.00
99 5.0000 3532.00 3683.08 59.00
100 5.0100 3353.00 3398.98 58.00
101 5.0200 3270.00 3292.40 57.00
102 5.0300 3218.00 3255.10 57.00
103 5.0400 3199.00 3238.96 57.00
104 5.0500 3186.00 3229.56 56.00
105 5.0600 3179.00 3223.19 56.00
106 5.0700 3200.00 3218.68 57.00
107 5.0800 3166.00 3215.41 56.00
108 5.0900 3164.00 3213.04 56.00
109 5.1000 3182.00 3211.31 56.00
110 5.1100 3174.00 3210.07 56.00
111 5.1200 3207.00 3209.19 57.00
112 5.1300 3194.00 3208.60 57.00
113 5.1400 3163.00 3208.23 56.00
114 5.1500 3143.00 3208.04 56.00
115 5.1600 3188.00 3207.99 56.00
116 5.1700 3169.00 3208.06 56.00
117 5.1800 3146.00 3208.23 56.00
118 5.1900 3173.00 3208.49 56.00
119 5.2000 3163.00 3208.81 56.00
120 5.2100 3145.00 3209.19 56.00
121 5.2200 3164.00 3209.62 56.00
122 5.2300 3162.00 3210.10 56.00
123 5.2400 3154.00 3210.61 56.00
124 5.2500 3205.00 3211.16 57.00
125 5.2600 3173.00 3211.74 56.00
126 5.2700 3156.00 3212.34 56.00
127 5.2800 3188.00 3212.97 56.00
128 5.2900 3198.00 3213.62 57.00
129 5.3000 3178.00 3214.29 56.00
130 5.3100 3200.00 3214.97 57.00
131 5.3200 3191.00 3215.67 56.00
132 5.3300 3164.00 3216.39 56.00
133 5.3400 3191.00 3217.12 56.00
134 5.3500 3171.00 3217.87 56.00
135 5.3600 3197.00 3218.62 57.00
136 5.3700 3184.00 3219.39 56.00
137 5.3800 3171.00 3220.16 56.00
138 5.3900 3171.00 3220.95 56.00
139 5.4000 3186.00 3221.74 56.00
140 5.4100 3201.00 3222.54 57.00
141 5.4200 3175.00 3223.36 56.00
142 5.4300 3175.00 3224.17 56.00
143 5.4400 3190.00 3225.00 56.00
144 5.4500 3144.00 3225.83 56.00
145 5.4600 3179.00 3226.67 56.00
146 5.4700 3180.00 3227.52 56.00
147 5.4800 3166.00 3228.37 56.00
148 5.4900 3202.00 3229.23 57.00
149 5.5000 3202.00 3230.09 57.00
150 5.5100 3159.00 3230.96 56.00
151 5.5200 3180.00 3231.84 56.00
152 5.5300 3186.00 3232.72 56.00
153 5.5400 3178.00 3233.60 56.00
154 5.5500 3214.00 3234.49 57.00
155 5.5600 3193.00 3235.39 57.00
156 5.5700 3183.00 3236.29 56.00
157 5.5800 3220.00 3237.19 57.00
158 5.5900 3215.00 3238.10 57.00
159 5.6000 3197.00 3239.01 57.00
160 5.6100 3197.00 3239.93 57.00
161 5.6200 3221.00 3240.85 57.00
162 5.6300 3180.00 3241.77 56.00
163 5.6400 3215.00 3242.70 57.00
164 5.6500 3201.00 3243.63 57.00
165 5.6600 3198.00 3244.57 57.00
166 5.6700 3222.00 3245.51 57.00
167 5.6800 3213.00 3246.45 57.00
168 5.6900 3190.00 3247.40 56.00
169 5.7000 3214.00 3248.34 57.00
170 5.7100 3174.00 3249.30 56.00
171 5.7200 3232.00 3250.25 57.00
172 5.7300 3216.00 3251.21 57.00
173 5.7400 3190.00 3252.18 56.00
174 5.7500 3179.00 3253.14 56.00
175 5.7600 3231.00 3254.11 57.00
176 5.7700 3182.00 3255.08 56.00
177 5.7800 3188.00 3256.06 56.00
178 5.7900 3205.00 3257.04 57.00
179 5.8000 3214.00 3258.02 57.00
180 5.8100 3206.00 3259.00 57.00
181 5.8200 3223.00 3259.99 57.00
182 5.8300 3207.00 3260.98 57.00
183 5.8400 3207.00 3261.97 57.00
184 5.8500 3205.00 3262.96 57.00
185 5.8600 3217.00 3263.96 57.00
186 5.8700 3173.00 3264.96 56.00
187 5.8800 3206.00 3265.96 57.00
188 5.8900 3204.00 3266.97 57.00
189 5.9000 3210.00 3267.98 57.00
190 5.9100 3237.00 3268.99 57.00
191 5.9200 3213.00 3270.00 57.00
192 5.9300 3208.00 3270.90 57.00
193 5.9400 3252.00 3271.80 57.00
194 5.9500 3234.00 3272.70 57.00
195 5.9600 3264.00 3273.60 57.00
196 5.9700 3255.00 3274.51 57.00
197 5.9800 3227.00 3275.42 57.00
198 5.9900 3211.00 3276.33 57.00
199 6.0000 3247.00 3277.25 57.00
200 6.0100 3250.00 3278.17 57.00
201 6.0200 3236.00 3279.09 57.00
202 6.0300 3249.00 3280.01 57.00
203 6.0400 3216.00 3280.93 57.00
204 6.0500 3242.00 3281.86 57.00
205 6.0600 3248.00 3282.79 57.00
206 6.0700 3224.00 3283.72 57.00
207 6.0800 3223.00 3284.66 57.00
208 6.0900 3235.00 3285.60 57.00
209 6.1000 3244.00 3286.54 57.00
210 6.1100 3206.00 3287.48 57.00
211 6.1200 3239.00 3288.43 57.00
212 6.1300 3197.00 3289.38 57.00
213 6.1400 3235.00 3290.34 57.00
214 6.1500 3266.00 3291.29 57.00
215 6.1600 3240.00 3292.25 57.00
216 6.1700 3210.00 3293.21 57.00
217 6.1800 3234.00 3294.18 57.00
218 6.1900 3226.00 3297.75 57.00
219 6.2000 3245.00 3298.75 57.00
220 6.2100 3280.00 3299.75 57.00
221 6.2200 3246.00 3300.76 57.00
222 6.2300 3213.00 3301.77 57.00
223 6.2400 3257.00 3302.61 57.00
224 6.2500 3243.00 3303.64 57.00
225 6.2600 3269.00 3304.67 57.00
226 6.2700 3251.00 3305.70 57.00
227 6.2800 3250.00 3306.74 57.00
228 6.2900 3217.00 3307.79 57.00
229 6.3000 3257.00 3308.84 57.00
230 6.3100 3245.00 3309.89 57.00
231 6.3200 3286.00 3310.96 57.00
232 6.3300 3303.00 3312.03 57.00
233 6.3400 3267.00 3313.10 57.00
234 6.3500 3253.00 3314.19 57.00
235 6.3600 3289.00 3315.28 57.00
236 6.3700 3278.00 3316.38 57.00
237 6.3800 3268.00 3317.50 57.00
238 6.3900 3278.00 3318.62 57.00
239 6.4000 3273.00 3319.75 57.00
240 6.4100 3250.00 3320.89 57.00
241 6.4200 3286.00 3322.04 57.00
242 6.4300 3301.00 3323.21 57.00
243 6.4400 3254.00 3324.39 57.00
244 6.4500 3298.00 3325.58 57.00
245 6.4600 3278.00 3326.79 57.00
246 6.4700 3272.00 3328.02 57.00
247 6.4800 3319.00 3329.27 58.00
248 6.4900 3295.00 3330.54 57.00
249 6.5000 3292.00 3331.82 57.00
250 6.5100 3287.00 3333.14 57.00
251 6.5200 3301.00 3334.48 57.00
252 6.5300 3291.00 3335.84 57.00
253 6.5400 3320.00 3337.24 58.00
254 6.5500 3299.00 3338.68 57.00
255 6.5600 3301.00 3340.15 57.00
256 6.5700 3305.00 3341.66 57.00
257 6.5800 3307.00 3343.22 58.00
258 6.5900 3270.00 3344.84 57.00
259 6.6000 3310.00 3346.51 58.00
260 6.6100 3303.00 3348.25 57.00
261 6.6200 3337.00 3350.06 58.00
262 6.6300 3325.00 3352.86 58.00
263 6.6400 3329.00 3354.86 58.00
264 6.6500 3262.00 3356.96 57.00
265 6.6600 3314.00 3359.18 58.00
266 6.6700 3304.00 3361.54 57.00
267 6.6800 3292.00 3364.07 57.00
268 6.6900 3334.00 3366.77 58.00
269 6.7000 3344.00 3369.69 58.00
270 6.7100 3321.00 3372.86 58.00
271 6.7200 3348.00 3376.33 58.00
272 6.7300 3338.00 3380.15 58.00
273 6.7400 3338.00 3384.39 58.00
274 6.7500 3362.00 3389.14 58.00
275 6.7600 3384.00 3394.49 58.00
276 6.7700 3342.00 3400.60 58.00
277 6.7800 3370.00 3407.64 58.00
278 6.7900 3365.00 3415.84 58.00
279 6.8000 3377.00 3425.53 58.00
280 6.8100 3408.00 3437.17 58.00
281 6.8200 3426.00 3451.48 59.00
282 6.8300 3433.00 3469.80 59.00
283 6.8400 3466.00 3494.83 59.00
284 6.8500 3528.00 3532.24 59.00
285 6.8600 3607.00 3593.20 60.00
286 6.8700 3753.00 3697.23 61.00
287 6.8800 3919.00 3873.02 63.00
288 6.8900 4133.00 4153.20 64.00
289 6.9000 4533.00 4560.78 67.00
290 6.9100 5012.00 5088.29 71.00
291 6.9200 5667.00 5674.87 75.00
292 6.9300 6270.00 6184.56 79.00
293 6.9400 6536.00 6419.93 81.00
294 6.9500 6379.00 6256.54 80.00
295 6.9600 5931.00 5784.12 77.00
296 6.9700 5306.00 5201.08 73.00
297 6.9800 4752.00 4658.08 69.00
298 6.9900 4335.00 4228.52 66.00
299 7.0000 4042.00 3927.92 64.00
300 7.0100 3849.00 3737.26 62.00
301 7.0200 3738.00 3624.37 61.00
302 7.0300 3628.00 3559.23 60.00
303 7.0400 3566.00 3520.54 60.00
304 7.0500 3536.00 3495.79 59.00
305 7.0600 3528.00 3478.52 59.00
306 7.0700 3457.00 3465.62 59.00
307 7.0800 3482.00 3455.58 59.00
308 7.0900 3434.00 3447.60 59.00
309 7.1000 3446.00 3441.18 59.00
310 7.1100 3430.00 3435.98 59.00
311 7.1200 3442.00 3431.76 59.00
312 7.1300 3385.00 3428.31 58.00
313 7.1400 3438.00 3425.51 59.00
314 7.1500 3421.00 3423.23 58.00
315 7.1600 3444.00 3421.39 59.00
316 7.1700 3431.00 3419.92 59.00
317 7.1800 3403.00 3418.76 58.00
318 7.1900 3398.00 3417.86 58.00
319 7.2000 3407.00 3417.18 58.00
320 7.2100 3401.00 3416.70 58.00
321 7.2200 3420.00 3416.40 58.00
322 7.2300 3447.00 3416.24 59.00
323 7.2400 3425.00 3416.21 59.00
324 7.2500 3381.00 3416.29 58.00
325 7.2600 3434.00 3416.48 59.00
326 7.2700 3435.00 3416.76 59.00
327 7.2800 3403.00 3417.12 58.00
328 7.2900 3436.00 3417.56 59.00
329 7.3000 3430.00 3418.06 59.00
330 7.3100 3435.00 3418.63 59.00
331 7.3200 3424.00 3419.26 59.00
332 7.3300 3415.00 3419.94 58.00
333 7.3400 3405.00 3420.66 58.00
334 7.3500 3452.00 3421.44 59.00
335 7.3600 3448.00 3422.26 59.00
336 7.3700 3380.00 3423.12 58.00
337 7.3800 3431.00 3424.03 59.00
338 7.3900 3400.00 3424.97 58.00
339 7.4000 3428.00 3425.95 59.00
340 7.4100 3434.00 3426.97 59.00
341 7.4200 3448.00 3428.02 59.00
342 7.4300 3412.00 3429.11 58.00
343 7.4400 3441.00 3430.23 59.00
344 7.4500 3425.00 3431.39 59.00
345 7.4600 3441.00 3432.59 59.00
346 7.4700 3456.00 3433.82 59.00
347 7.4800 3475.00 3435.09 59.00
348 7.4900 3427.00 3436.39 59.00
349 7.5000 3443.00 3437.74 59.00
350 7.5100 3457.00 3439.12 59.00
351 7.5200 3465.00 3440.55 59.00
352 7.5300 3455.00 3442.01 59.00
353 7.5400 3483.00 3443.53 59.00
354 7.5500 3457.00 3445.08 59.00
355 7.5600 3475.00 3446.69 59.00
356 7.5700 3471.00 3448.35 59.00
357 7.5800 3499.00 3450.06 59.00
358 7.5900 3496.00 3451.83 59.00
359 7.6000 3465.00 3453.65 59.00
360 7.6100 3455.00 3455.54 59.00
361 7.6200 3498.00 3457.50 59.00
362 7.6300 3495.00 3459.54 59.00
363 7.6400 3504.00 3461.64 59.00
364 7.6500 3506.00 3463.84 59.00
365 7.6600 3454.00 3466.12 59.00
366 7.6700 3482.00 3468.50 59.00
367 7.6800 3509.00 3470.98 59.00
368 7.6900 3524.00 3473.57 59.00
369 7.7000 3510.00 3476.28 59.00
370 7.7100 3544.00 3479.12 60.00
371 7.7200 3521.00 3482.11 59.00
372 7.7300 3495.00 3485.25 59.00
373 7.7400 3516.00 3488.56 59.00
374 7.7500 3510.00 3495.83 59.00
375 7.7600 3544.00 3499.57 60.00
376 7.7700 3547.00 3503.54 60.00
377 7.7800 3550.00 3507.75 60.00
378 7.7900 3525.00 3512.23 59.00
379 7.8000 3548.00 3517.02 60.00
380 7.8100 3515.00 3522.14 59.00
381 7.8200 3591.00 3527.62 60.00
382 7.8300 3537.00 3533.53 59.00
383 7.8400 3584.00 3539.90 60.00
384 7.8500 3571.00 3546.79 60.00
385 7.8600 3578.00 3554.27 60.00
386 7.8700 3581.00 3562.42 60.00
387 7.8800 3624.00 3571.33 60.00
388 7.8900 3657.00 3581.10 60.00
389 7.9000 3640.00 3591.87 60.00
390 7.9100 3630.00 3603.78 60.00
391 7.9200 3691.00 3617.02 61.00
392 7.9300 3671.00 3631.81 61.00
393 7.9400 3676.00 3648.41 61.00
394 7.9500 3710.00 3667.14 61.00
395 7.9600 3753.00 3688.42 61.00
396 7.9700 3759.00 3712.74 61.00
397 7.9800 3789.00 3740.74 62.00
398 7.9900 3819.00 3773.20 62.00
399 8.0000 3856.00 3811.16 62.00
400 8.0100 3940.00 3855.96 63.00
401 8.0200 3997.00 3909.36 63.00
402 8.0300 4015.00 3973.75 63.00
403 8.0400 4166.00 4073.17 65.00
404 8.0500 4307.00 4171.84 66.00
405 8.0600 4490.00 4299.48 67.00
406 8.0700 4789.00 4474.94 69.00
407 8.0800 5127.00 4738.33 72.00
408 8.0900 5646.00 5170.96 75.00
409 8.1000 6464.00 5919.08 80.00
410 8.1100 7693.00 7201.22 88.00
411 8.1200 9539.00 9268.24 98.00
412 8.1300 12349.00 12288.20 111.00
413 8.1400 15930.00 16173.40 126.00
414 8.1500 20022.00 20377.80 141.00
415 8.1600 23486.00 23710.30 153.00
416 8.1700 24285.00 24605.70 156.00
417 8.1800 22131.00 22525.40 149.00
418 8.1900 17965.00 18644.40 134.00
419 8.2000 13830.00 14475.60 118.00
420 8.2100 10407.00 10925.70 102.00
421 8.2200 8193.00 8321.96 91.00
422 8.2300 6617.00 6621.00 81.00
423 8.2400 5743.00 5601.33 76.00
424 8.2500 5119.00 5016.62 72.00
425 8.2600 4752.00 4677.33 69.00
426 8.2700 4449.00 4467.19 67.00
427 8.2800 4305.00 4325.32 66.00
428 8.2900 4171.00 4222.69 65.00
429 8.3000 4099.00 4145.72 64.00
430 8.3100 4080.00 4087.56 64.00
431 8.3200 4015.00 4044.33 63.00
432 8.3300 3964.00 4013.68 63.00
433 8.3400 3975.00 3994.30 63.00
434 8.3500 3976.00 3985.68 63.00
435 8.3600 3981.00 3988.18 63.00
436 8.3700 4073.00 4003.42 64.00
437 8.3800 4128.00 4035.57 64.00
438 8.3900 4170.00 4094.69 65.00
439 8.4000 4376.00 4203.84 66.00
440 8.4100 4633.00 4410.13 68.00
441 8.4200 5048.00 4793.69 71.00
442 8.4300 5693.00 5459.65 75.00
443 8.4400 6612.00 6495.79 81.00
444 8.4500 7775.00 7895.17 88.00
445 8.4600 9377.00 9458.38 97.00
446 8.4700 10606.00 10697.00 103.00
447 8.4800 10984.00 10949.00 105.00
448 8.4900 10326.00 10050.20 102.00
449 8.5000 8730.00 8533.95 93.00
450 8.5100 7195.00 7016.03 85.00
451 8.5200 5990.00 5806.98 77.00
452 8.5300 5145.00 4981.38 72.00
453 8.5400 4667.00 4479.67 68.00
454 8.5500 4359.00 4196.32 66.00
455 8.5600 4131.00 4037.83 64.00
456 8.5700 3969.00 3943.50 63.00
457 8.5800 3930.00 3881.27 63.00
458 8.5900 3810.00 3836.23 62.00
459 8.6000 3768.00 3801.69 61.00
460 8.6100 3772.00 3774.36 61.00
461 8.6200 3739.00 3752.34 61.00
462 8.6300 3745.00 3734.39 61.00
463 8.6400 3753.00 3719.63 61.00
464 8.6500 3727.00 3707.41 61.00
465 8.6600 3715.00 3697.25 61.00
466 8.6700 3750.00 3688.75 61.00
467 8.6800 3733.00 3681.65 61.00
468 8.6900 3722.00 3675.71 61.00
469 8.7000 3724.00 3670.75 61.00
470 8.7100 3705.00 3666.64 61.00
471 8.7200 3701.00 3663.25 61.00
472 8.7300 3725.00 3660.50 61.00
473 8.7400 3689.00 3658.30 61.00
474 8.7500 3668.00 3656.60 61.00
475 8.7600 3750.00 3655.34 61.00
476 8.7700 3713.00 3654.48 61.00
477 8.7800 3709.00 3653.99 61.00
478 8.7900 3761.00 3653.83 61.00
479 8.8000 3759.00 3653.98 61.00
480 8.8100 3711.00 3654.42 61.00
481 8.8200 3731.00 3655.13 61.00
482 8.8300 3749.00 3656.10 61.00
483 8.8400 3741.00 3657.32 61.00
484 8.8500 3754.00 3658.78 61.00
485 8.8600 3743.00 3660.47 61.00
486 8.8700 3696.00 3662.40 61.00
487 8.8800 3760.00 3664.54 61.00
488 8.8900 3734.00 3666.90 61.00
489 8.9000 3768.00 3669.49 61.00
490 8.9100 3772.00 3672.30 61.00
491 8.9200 3748.00 3675.34 61.00
492 8.9300 3722.00 3678.61 61.00
493 8.9400 3805.00 3682.12 62.00
494 8.9500 3745.00 3685.87 61.00
495 8.9600 3766.00 3689.87 61.00
496 8.9700 3801.00 3694.14 62.00
497 8.9800 3764.00 3698.68 61.00
498 8.9900 3776.00 3703.50 61.00
499 9.0000 3799.00 3708.63 62.00
500 9.0100 3799.00 3713.72 62.00
501 9.0200 3797.00 3719.51 62.00
502 9.0300 3837.00 3725.65 62.00
503 9.0400 3811.00 3732.18 62.00
504 9.0500 3815.00 3739.12 62.00
505 9.0600 3838.00 3746.50 62.00
506 9.0700 3833.00 3754.36 62.00
507 9.0800 3860.00 3762.73 62.00
508 9.0900 3890.00 3771.66 62.00
509 9.1000 3888.00 3781.20 62.00
510 9.1100 3832.00 3791.41 62.00
511 9.1200 3873.00 3802.36 62.00
512 9.1300 3859.00 3814.11 62.00
513 9.1400 3866.00 3826.76 62.00
514 9.1500 3907.00 3840.40 63.00
515 9.1600 3915.00 3855.15 63.00
516 9.1700 3914.00 3871.14 63.00
517 9.1800 3967.00 3888.54 63.00
518 9.1900 3924.00 3907.53 63.00
519 9.2000 4009.00 3928.34 63.00
520 9.2100 3992.00 3951.22 63.00
521 9.2200 4026.00 3976.51 63.00
522 9.2300 4029.00 4004.59 63.00
523 9.2400 4109.00 4035.94 64.00
524 9.2500 4111.00 4071.16 64.00
525 9.2600 4156.00 4111.00 64.00
526 9.2700 4197.00 4156.40 65.00
527 9.2800 4230.00 4208.57 65.00
528 9.2900 4249.00 4269.09 65.00
529 9.3000 4307.00 4340.03 66.00
530 9.3100 4381.00 4424.21 66.00
531 9.3200 4502.00 4525.42 67.00
532 9.3300 4631.00 4649.09 68.00
533 9.3400 4764.00 4803.28 69.00
534 9.3500 4959.00 5001.65 70.00
535 9.3600 5308.00 5271.85 73.00
536 9.3700 5779.00 5678.07 76.00
537 9.3800 6579.00 6368.07 81.00
538 9.3900 7973.00 7639.09 89.00
539 9.4000 10138.00 9963.25 101.00
540 9.4100 13582.00 13859.20 117.00
541 9.4200 19118.00 19525.30 138.00
542 9.4300 25866.00 26295.80 161.00
543 9.4400 31962.00 32013.50 179.00
544 9.4500 33743.00 33328.80 184.00
545 9.4600 29647.00 29247.20 172.00
546 9.4700 22618.00 22650.80 150.00
547 9.4800 16186.00 16425.00 127.00
548 9.4900 11694.00 11820.70 108.00
549 9.5000 8977.00 8948.31 95.00
550 9.5100 7429.00 7374.11 86.00
551 9.5200 6579.00 6577.14 81.00
552 9.5300 6037.00 6181.17 78.00
553 9.5400 5832.00 5982.05 76.00
554 9.5500 5610.00 5888.33 75.00
555 9.5600 5597.00 5862.83 75.00
556 9.5700 5591.00 5890.47 75.00
557 9.5800 5695.00 5965.20 75.00
558 9.5900 5750.00 6085.60 76.00
559 9.6000 5917.00 6253.60 77.00
560 9.6100 6085.00 6474.20 78.00
561 9.6200 6331.00 6755.91 80.00
562 9.6300 6650.00 7111.45 82.00
563 9.6400 7118.00 7559.29 84.00
564 9.6500 7646.00 8126.17 87.00
565 9.6600 8523.00 8852.75 92.00
566 9.6700 9646.00 9807.42 98.00
567 9.6800 11375.00 11126.60 107.00
568 9.6900 14076.00 13119.50 119.00
569 9.7000 18175.00 16489.50 135.00
570 9.7100 24515.00 22650.20 157.00
571 9.7200 35526.00 33889.40 188.00
572 9.7300 52508.00 52850.30 229.00
573 9.7400 79480.00 80922.90 282.00
574 9.7500 114682.00 115694.00 339.00
575 9.7600 147158.00 147825.00 384.00
576 9.7700 160987.00 160580.00 401.00
577 9.7800 147469.00 144557.00 384.00
578 9.7900 112445.00 111430.00 335.00
579 9.8000 76777.00 77384.00 277.00
580 9.8100 50572.00 50702.80 225.00
581 9.8200 34169.00 33162.90 185.00
582 9.8300 24233.00 23112.40 156.00
583 9.8400 18787.00 17922.80 137.00
584 9.8500 15869.00 15450.20 126.00
585 9.8600 14645.00 14441.50 121.00
586 9.8700 14821.00 14379.30 122.00
587 9.8800 16237.00 15366.50 127.00
588 9.8900 19446.00 18387.70 139.00
589 9.9000 26280.00 25659.50 162.00
590 9.9100 38971.00 39941.40 197.00
591 9.9200 60307.00 61952.70 246.00
592 9.9300 85697.00 86557.70 293.00
593 9.9400 99487.00 99986.80 315.00
594 9.9500 91708.00 90129.10 303.00
595 9.9600 67745.00 65738.40 260.00
596 9.9700 41064.00 41817.50 203.00
597 9.9800 23983.00 25119.20 155.00
598 9.9900 15065.00 15790.70 123.00
599 10.0000 10814.00 11265.60 104.00
600 10.0100 8408.00 9101.28 92.00
601 10.0200 7138.00 7922.01 84.00
602 10.0300 6310.00 7156.98 79.00
603 10.0400 5835.00 6601.11 76.00
604 10.0500 5469.00 6174.88 74.00
605 10.0600 5209.00 5838.46 72.00
606 10.0700 4984.00 5567.42 71.00
607 10.0800 4892.00 5345.29 70.00
608 10.0900 4715.00 5160.57 69.00
609 10.1000 4663.00 5004.98 68.00
610 10.1100 4573.00 4872.48 68.00
611 10.1200 4495.00 4758.49 67.00
612 10.1300 4376.00 4670.96 66.00
613 10.1400 4404.00 4584.58 66.00
614 10.1500 4325.00 4508.54 66.00
615 10.1600 4277.00 4438.61 65.00
616 10.1700 4289.00 4378.61 65.00
617 10.1800 4219.00 4324.88 65.00
618 10.1900 4180.00 4276.54 65.00
619 10.2000 4199.00 4232.87 65.00
620 10.2100 4116.00 4193.25 64.00
621 10.2200 4120.00 4157.19 64.00
622 10.2300 4131.00 4124.26 64.00
623 10.2400 4083.00 4094.08 64.00
624 10.2500 4035.00 4066.36 64.00
625 10.2600 4056.00 4040.82 64.00
626 10.2700 4065.00 4017.23 64.00
627 10.2800 4038.00 3995.41 64.00
628 10.2900 4025.00 3975.16 63.00
629 10.3000 3990.00 3956.34 63.00
630 10.3100 3957.00 3938.81 63.00
631 10.3200 3994.00 3922.46 63.00
632 10.3300 3950.00 3906.28 63.00
633 10.3400 3961.00 3891.99 63.00
634 10.3500 3960.00 3878.59 63.00
635 10.3600 3931.00 3866.02 63.00
636 10.3700 3897.00 3854.21 62.00
637 10.3800 3892.00 3843.10 62.00
638 10.3900 3856.00 3832.62 62.00
639 10.4000 3893.00 3822.75 62.00
640 10.4100 3885.00 3813.43 62.00
641 10.4200 3870.00 3804.62 62.00
642 10.4300 3834.00 3796.29 62.00
643 10.4400 3837.00 3788.41 62.00
644 10.4500 3799.00 3780.95 62.00
645 10.4600 3856.00 3773.88 62.00
646 10.4700 3856.00 3767.17 62.00
647 10.4800 3823.00 3760.82 62.00
648 10.4900 3815.00 3754.79 62.00
649 10.5000 3819.00 3749.07 62.00
650 10.5100 3796.00 3743.66 62.00
651 10.5200 3816.00 3738.53 62.00
652 10.5300 3827.00 3733.69 62.00
653 10.5400 3841.00 3729.12 62.00
654 10.5500 3782.00 3724.82 61.00
655 10.5600 3807.00 3720.81 62.00
656 10.5700 3755.00 3717.10 61.00
657 10.5800 3785.00 3713.74 62.00
658 10.5900 3803.00 3710.83 62.00
659 10.6000 3797.00 3708.59 62.00
660 10.6100 3751.00 3707.53 61.00
661 10.6200 3776.00 3708.55 61.00
662 10.6300 3769.00 3712.92 61.00
663 10.6400 3806.00 3721.89 62.00
664 10.6500 3797.00 3735.77 62.00
665 10.6600 3813.00 3752.67 62.00
666 10.6700 3816.00 3766.86 62.00
667 10.6800 3837.00 3769.34 62.00
668 10.6900 3808.00 3756.44 62.00
669 10.7000 3795.00 3735.11 62.00
670 10.7100 3793.00 3713.66 62.00
671 10.7200 3764.00 3696.24 61.00
672 10.7300 3704.00 3683.77 61.00
673 10.7400 3758.00 3675.44 61.00
674 10.7500 3737.00 3669.90 61.00
675 10.7600 3731.00 3665.99 61.00
676 10.7700 3719.00 3662.96 61.00
677 10.7800 3732.00 3660.40 61.00
678 10.7900 3718.00 3658.14 61.00
679 10.8000 3756.00 3656.08 61.00
680 10.8100 3729.00 3654.19 61.00
681 10.8200 3702.00 3652.43 61.00
682 10.8300 3720.00 3650.79 61.00
683 10.8400 3719.00 3649.24 61.00
684 10.8500 3704.00 3647.79 61.00
685 10.8600 3743.00 3646.42 61.00
686 10.8700 3697.00 3645.13 61.00
687 10.8800 3720.00 3643.91 61.00
688 10.8900 3728.00 3642.76 61.00
689 10.9000 3730.00 3641.67 61.00
690 10.9100 3695.00 3640.64 61.00
691 10.9200 3730.00 3639.67 61.00
692 10.9300 3713.00 3638.75 61.00
693 10.9400 3757.00 3637.88 61.00
694 10.9500 3739.00 3637.07 61.00
695 10.9600 3700.00 3636.31 61.00
696 10.9700 3671.00 3635.59 61.00
697 10.9800 3714.00 3634.93 61.00
698 10.9900 3657.00 3634.31 60.00
699 11.0000 3695.00 3633.74 61.00
700 11.0100 3694.00 3633.21 61.00
701 11.0200 3675.00 3632.73 61.00
702 11.0300 3670.00 3632.29 61.00
703 11.0400 3688.00 3631.90 61.00
704 11.0500 3656.00 3631.55 60.00
705 11.0600 3652.00 3631.24 60.00
706 11.0700 3692.00 3630.98 61.00
707 11.0800 3658.00 3630.76 60.00
708 11.0900 3660.00 3630.59 60.00
709 11.1000 3684.00 3630.46 61.00
710 11.1100 3649.00 3630.37 60.00
711 11.1200 3630.00 3630.33 60.00
712 11.1300 3661.00 3630.33 61.00
713 11.1400 3620.00 3630.38 60.00
714 11.1500 3626.00 3630.48 60.00
715 11.1600 3627.00 3626.92 60.00
716 11.1700 3663.00 3627.15 61.00
717 11.1800 3673.00 3627.43 61.00
718 11.1900 3691.00 3627.76 61.00
719 11.2000 3663.00 3628.14 61.00
720 11.2100 3660.00 3628.57 60.00
721 11.2200 3683.00 3629.06 61.00
722 11.2300 3665.00 3629.60 61.00
723 11.2400 3677.00 3630.19 61.00
724 11.2500 3649.00 3630.84 60.00
725 11.2600 3629.00 3631.56 60.00
726 11.2700 3594.00 3632.33 60.00
727 11.2800 3649.00 3633.17 60.00
728 11.2900 3615.00 3634.08 60.00
729 11.3000 3646.00 3635.05 60.00
730 11.3100 3646.00 3636.10 60.00
731 11.3200 3636.00 3637.23 60.00
732 11.3300 3628.00 3638.43 60.00
733 11.3400 3663.00 3639.71 61.00
734 11.3500 3651.00 3641.09 60.00
735 11.3600 3636.00 3642.55 60.00
736 11.3700 3642.00 3644.11 60.00
737 11.3800 3662.00 3645.77 61.00
738 11.3900 3606.00 3647.53 60.00
739 11.4000 3666.00 3638.72 61.00
740 11.4100 3651.00 3640.86 60.00
741 11.4200 3661.00 3643.12 61.00
742 11.4300 3653.00 3645.52 60.00
743 11.4400 3647.00 3648.05 60.00
744 11.4500 3607.00 3650.72 60.00
745 11.4600 3642.00 3653.56 60.00
746 11.4700 3605.00 3656.56 60.00
747 11.4800 3630.00 3659.74 60.00
748 11.4900 3653.00 3663.11 60.00
749 11.5000 3652.00 3666.69 60.00
750 11.5100 3631.00 3650.27 60.00
751 11.5200 3648.00 3654.53 60.00
752 11.5300 3657.00 3659.05 60.00
753 11.5400 3659.00 3663.84 60.00
754 11.5500 3651.00 3668.92 60.00
755 11.5600 3695.00 3674.32 61.00
756 11.5700 3612.00 3680.07 60.00
757 11.5800 3677.00 3686.19 61.00
758 11.5900 3652.00 3692.72 60.00
759 11.6000 3673.00 3699.71 61.00
760 11.6100 3677.00 3707.18 61.00
761 11.6200 3684.00 3715.19 61.00
762 11.6300 3655.00 3723.80 60.00
763 11.6400 3698.00 3733.06 61.00
764 11.6500 3668.00 3743.04 61.00
765 11.6600 3702.00 3753.82 61.00
766 11.6700 3754.00 3765.50 61.00
767 11.6800 3717.00 3778.17 61.00
768 11.6900 3686.00 3791.95 61.00
769 11.7000 3750.00 3807.00 61.00
770 11.7100 3753.00 3831.62 61.00
771 11.7200 3768.00 3849.78 61.00
772 11.7300 3795.00 3869.78 62.00
773 11.7400 3835.00 3891.91 62.00
774 11.7500 3801.00 3916.50 62.00
775 11.7600 3836.00 3943.99 62.00
776 11.7700 3850.00 3974.96 62.00
777 11.7800 3912.00 4010.30 63.00
778 11.7900 3966.00 4051.46 63.00
779 11.8000 4011.00 4101.01 63.00
780 11.8100 3997.00 4163.26 63.00
781 11.8200 4131.00 4244.37 64.00
782 11.8300 4180.00 4352.15 65.00
783 11.8400 4337.00 4492.30 66.00
784 11.8500 4559.00 4664.57 68.00
785 11.8600 4680.00 4856.28 68.00
786 11.8700 4837.00 5035.40 70.00
787 11.8800 5025.00 5161.21 71.00
788 11.8900 5086.00 5231.13 71.00
789 11.9000 5095.00 5290.73 71.00
790 11.9100 5231.00 5387.19 72.00
791 11.9200 5398.00 5550.56 73.00
792 11.9300 5695.00 5802.02 75.00
793 11.9400 6231.00 6167.12 79.00
794 11.9500 6861.00 6696.36 83.00
795 11.9600 7859.00 7501.00 89.00
796 11.9700 9418.00 8808.72 97.00
797 11.9800 11545.00 11022.00 107.00
798 11.9900 14864.00 14723.80 122.00
799 12.0000 20158.00 20540.60 142.00
800 12.0100 27737.00 28817.90 167.00
801 12.0200 38142.00 39126.30 195.00
802 12.0300 49369.00 49562.80 222.00
803 12.0400 56440.00 56233.60 238.00
804 12.0500 55952.00 55469.50 237.00
805 12.0600 49092.00 48375.20 222.00
806 12.0700 39447.00 39248.90 199.00
807 12.0800 30818.00 31014.60 176.00
808 12.0900 24518.00 24453.50 157.00
809 12.1000 19741.00 19269.80 141.00
810 12.1100 15629.00 15177.20 125.00
811 12.1200 12484.00 12068.70 112.00
812 12.1300 9981.00 9798.29 100.00
813 12.1400 8225.00 8187.82 91.00
814 12.1500 7016.00 7074.79 84.00
815 12.1600 6244.00 6317.95 79.00
816 12.1700 5630.00 5800.61 75.00
817 12.1800 5266.00 5435.74 73.00
818 12.1900 4903.00 5165.97 70.00
819 12.2000 4722.00 4956.89 69.00
820 12.2100 4585.00 4789.01 68.00
821 12.2200 4409.00 4650.97 66.00
822 12.2300 4284.00 4535.69 65.00
823 12.2400 4240.00 4438.30 65.00
824 12.2500 4126.00 4355.30 64.00
825 12.2600 4118.00 4284.01 64.00
826 12.2700 4076.00 4222.37 64.00
827 12.2800 4019.00 4168.74 63.00
828 12.2900 3936.00 4121.82 63.00
829 12.3000 3965.00 4080.57 63.00
830 12.3100 3864.00 4044.16 62.00
831 12.3200 3896.00 4011.89 62.00
832 12.3300 3904.00 3983.18 62.00
833 12.3400 3871.00 3957.58 62.00
834 12.3500 3834.00 3934.67 62.00
835 12.3600 3828.00 3914.14 62.00
836 12.3700 3788.00 3895.70 62.00
837 12.3800 3803.00 3879.12 62.00
838 12.3900 3812.00 3864.18 62.00
839 12.4000 3788.00 3850.73 62.00
840 12.4100 3774.00 3838.62 61.00
841 12.4200 3801.00 3827.70 62.00
842 12.4300 3785.00 3817.88 62.00
843 12.4400 3758.00 3809.07 61.00
844 12.4500 3771.00 3801.17 61.00
845 12.4600 3749.00 3794.12 61.00
846 12.4700 3729.00 3787.87 61.00
847 12.4800 3750.00 3782.34 61.00
848 12.4900 3736.00 3777.52 61.00
849 12.5000 3755.00 3773.33 61.00
850 12.5100 3784.00 3769.78 62.00
851 12.5200 3746.00 3766.83 61.00
852 12.5300 3752.00 3764.45 61.00
853 12.5400 3721.00 3762.64 61.00
854 12.5500 3710.00 3761.39 61.00
855 12.5600 3735.00 3760.68 61.00
856 12.5700 3726.00 3760.51 61.00
857 12.5800 3730.00 3760.89 61.00
858 12.5900 3702.00 3761.83 61.00
859 12.6000 3717.00 3763.34 61.00
860 12.6100 3752.00 3765.43 61.00
861 12.6200 3747.00 3768.14 61.00
862 12.6300 3747.00 3771.48 61.00
863 12.6400 3758.00 3775.51 61.00
864 12.6500 3728.00 3780.25 61.00
865 12.6600 3767.00 3785.77 61.00
866 12.6700 3744.00 3792.12 61.00
867 12.6800 3751.00 3799.39 61.00
868 12.6900 3754.00 3807.65 61.00
869 12.7000 3789.00 3817.02 62.00
870 12.7100 3779.00 3827.62 61.00
871 12.7200 3825.00 3839.58 62.00
872 12.7300 3820.00 3853.10 62.00
873 12.7400 3844.00 3868.39 62.00
874 12.7500 3928.00 3885.71 63.00
875 12.7600 3926.00 3905.42 63.00
876 12.7700 3899.00 3928.00 62.00
877 12.7800 3991.00 3954.10 63.00
878 12.7900 3971.00 3984.69 63.00
879 12.8000 4009.00 4021.22 63.00
880 12.8100 4109.00 4065.82 64.00
881 12.8200 4147.00 4121.67 64.00
882 12.8300 4198.00 4193.38 65.00
883 12.8400 4320.00 4287.36 66.00
884 12.8500 4406.00 4412.18 66.00
885 12.8600 4589.00 4578.62 68.00
886 12.8700 4787.00 4799.41 69.00
887 12.8800 5014.00 5088.34 71.00
888 12.8900 5266.00 5458.65 73.00
889 12.9000 5658.00 5920.88 75.00
890 12.9100 6117.00 6480.23 78.00
891 12.9200 6728.00 7133.38 82.00
892 12.9300 7472.00 7865.28 86.00
893 12.9400 8231.00 8645.34 91.00
894 12.9500 9093.00 9423.61 95.00
895 12.9600 10020.00 10126.80 100.00
896 12.9700 10618.00 10662.80 103.00
897 12.9800 11013.00 10940.50 105.00
898 12.9900 11021.00 10906.20 105.00
899 13.0000 10549.00 10571.30 103.00
900 13.0100 9837.00 10006.60 99.00
901 13.0200 9120.00 9307.78 95.00
902 13.0300 8342.00 8563.36 91.00
903 13.0400 7649.00 7840.54 87.00
904 13.0500 7150.00 7185.15 85.00
905 13.0600 6675.00 6625.71 82.00
906 13.0700 6328.00 6178.10 80.00
907 13.0800 6122.00 5849.37 78.00
908 13.0900 5988.00 5641.44 77.00
909 13.1000 5966.00 5553.96 77.00
910 13.1100 6034.00 5586.51 78.00
911 13.1200 6109.00 5739.61 78.00
912 13.1300 6267.00 6014.30 79.00
913 13.1400 6651.00 6410.45 82.00
914 13.1500 7014.00 6923.96 84.00
915 13.1600 7588.00 7543.58 87.00
916 13.1700 8339.00 8246.79 91.00
917 13.1800 9129.00 8995.47 96.00
918 13.1900 9869.00 9730.88 99.00
919 13.2000 10636.00 10371.20 103.00
920 13.2100 11150.00 10818.40 106.00
921 13.2200 11293.00 10984.50 106.00
922 13.2300 11003.00 10830.40 105.00
923 13.2400 10307.00 10386.70 102.00
924 13.2500 9397.00 9736.74 97.00
925 13.2600 8538.00 8978.26 92.00
926 13.2700 7777.00 8198.40 88.00
927 13.2800 6982.00 7448.80 84.00
928 13.2900 6424.00 6770.84 80.00
929 13.3000 5901.00 6184.70 77.00
930 13.3100 5511.00 5697.25 74.00
931 13.3200 5207.00 5305.69 72.00
932 13.3300 4953.00 5000.54 70.00
933 13.3400 4772.00 4768.96 69.00
934 13.3500 4677.00 4596.93 68.00
935 13.3600 4549.00 4471.15 67.00
936 13.3700 4418.00 4380.09 66.00
937 13.3800 4383.00 4314.52 66.00
938 13.3900 4291.00 4267.46 66.00
939 13.4000 4270.00 4233.92 65.00
940 13.4100 4239.00 4210.48 65.00
941 13.4200 4192.00 4194.89 65.00
942 13.4300 4164.00 4185.72 65.00
943 13.4400 4168.00 4182.10 65.00
944 13.4500 4166.00 4183.55 65.00
945 13.4600 4162.00 4189.84 65.00
946 13.4700 4207.00 4200.91 65.00
947 13.4800 4212.00 4216.87 65.00
948 13.4900 4187.00 4237.96 65.00
949 13.5000 4283.00 4270.76 65.00
950 13.5100 4255.00 4303.45 65.00
951 13.5200 4302.00 4342.87 66.00
952 13.5300 4366.00 4389.92 66.00
953 13.5400 4405.00 4445.76 66.00
954 13.5500 4466.00 4511.86 67.00
955 13.5600 4621.00 4590.11 68.00
956 13.5700 4695.00 4682.98 69.00
957 13.5800 4833.00 4793.76 70.00
958 13.5900 5014.00 4926.95 71.00
959 13.6000 5200.00 5089.11 72.00
960 13.6100 5405.00 5290.24 74.00
961 13.6200 5797.00 5546.89 76.00
962 13.6300 6193.00 5887.51 79.00
963 13.6400 6829.00 6362.30 83.00
964 13.6500 7652.00 7057.78 87.00
965 13.6600 8686.00 8113.25 93.00
966 13.6700 10144.00 9727.27 101.00
967 13.6800 12451.00 12136.40 112.00
968 13.6900 15422.00 15548.40 124.00
969 13.7000 19642.00 20031.20 140.00
970 13.7100 24948.00 25347.50 158.00
971 13.7200 30115.00 30731.30 174.00
972 13.7300 34302.00 34823.70 185.00
973 13.7400 36717.00 36473.60 192.00
974 13.7500 35991.00 35695.30 190.00
975 13.7600 33454.00 33122.40 183.00
976 13.7700 29489.00 29378.80 172.00
977 13.7800 24860.00 25124.50 158.00
978 13.7900 20428.00 20959.10 143.00
979 13.8000 16704.00 17253.70 129.00
980 13.8100 13548.00 14155.70 116.00
981 13.8200 11237.00 11680.70 106.00
982 13.8300 9527.00 9779.37 98.00
983 13.8400 8257.00 8372.36 91.00
984 13.8500 7291.00 7365.74 85.00
985 13.8600 6665.00 6664.67 82.00
986 13.8700 6158.00 6183.54 78.00
987 13.8800 5799.00 5852.77 76.00
988 13.8900 5550.00 5619.68 74.00
989 13.9000 5360.00 5446.90 73.00
990 13.9100 5169.00 5310.19 72.00
991 13.9200 5076.00 5196.72 71.00
992 13.9300 4908.00 5103.35 70.00
993 13.9400 4884.00 5034.81 70.00
994 13.9500 4925.00 5003.58 70.00
995 13.9600 4950.00 5032.88 70.00
996 13.9700 5037.00 5153.78 71.00
997 13.9800 5373.00 5435.36 73.00
998 13.9900 5799.00 5929.08 76.00
999 14.0000 6549.00 6670.93 81.00
1000 14.0100 7566.00 7629.84 87.00
1001 14.0200 8597.00 8640.60 93.00
1002 14.0300 9343.00 9333.61 97.00
1003 14.0400 9481.00 9289.71 97.00
1004 14.0500 8672.00 8514.12 93.00
1005 14.0600 7545.00 7428.18 87.00
1006 14.0700 6450.00 6395.10 80.00
1007 14.0800 5610.00 5574.43 75.00
1008 14.0900 5011.00 4993.76 71.00
1009 14.1000 4707.00 4614.04 69.00
1010 14.1100 4435.00 4377.49 67.00
1011 14.1200 4247.00 4228.83 65.00
1012 14.1300 4185.00 4130.31 65.00
1013 14.1400 4079.00 4059.85 64.00
1014 14.1500 3975.00 4005.91 63.00
1015 14.1600 3967.00 3962.64 63.00
1016 14.1700 3965.00 3926.94 63.00
1017 14.1800 3932.00 3896.93 63.00
1018 14.1900 3950.00 3871.40 63.00
1019 14.2000 3922.00 3849.42 63.00
1020 14.2100 3882.00 3830.36 62.00
1021 14.2200 3862.00 3813.69 62.00
1022 14.2300 3843.00 3799.04 62.00
1023 14.2400 3843.00 3786.08 62.00
1024 14.2500 3884.00 3774.57 62.00
1025 14.2600 3852.00 3764.32 62.00
1026 14.2700 3783.00 3758.94 62.00
1027 14.2800 3855.00 3750.78 62.00
1028 14.2900 3815.00 3743.49 62.00
1029 14.3000 3835.00 3736.96 62.00
1030 14.3100 3868.00 3731.13 62.00
1031 14.3200 3811.00 3725.93 62.00
1032 14.3300 3801.00 3721.31 62.00
1033 14.3400 3817.00 3717.23 62.00
1034 14.3500 3778.00 3717.10 61.00
1035 14.3600 3815.00 3714.01 62.00
1036 14.3700 3809.00 3711.38 62.00
1037 14.3800 3803.00 3709.17 62.00
1038 14.3900 3780.00 3707.38 61.00
1039 14.4000 3807.00 3705.98 62.00
1040 14.4100 3785.00 3704.98 62.00
1041 14.4200 3808.00 3704.37 62.00
1042 14.4300 3804.00 3704.16 62.00
1043 14.4400 3820.00 3704.34 62.00
1044 14.4500 3795.00 3704.93 62.00
1045 14.4600 3839.00 3705.94 62.00
1046 14.4700 3790.00 3707.40 62.00
1047 14.4800 3834.00 3709.35 62.00
1048 14.4900 3813.00 3711.83 62.00
1049 14.5000 3817.00 3714.94 62.00
1050 14.5100 3801.00 3718.81 62.00
1051 14.5200 3830.00 3723.65 62.00
1052 14.5300 3822.00 3729.75 62.00
1053 14.5400 3825.00 3737.51 62.00
1054 14.5500 3907.00 3747.42 63.00
1055 14.5600 3881.00 3759.99 62.00
1056 14.5700 3881.00 3775.68 62.00
1057 14.5800 3926.00 3794.75 63.00
1058 14.5900 3906.00 3817.10 62.00
1059 14.6000 3942.00 3842.02 63.00
1060 14.6100 3963.00 3867.96 63.00
1061 14.6200 3977.00 3892.24 63.00
1062 14.6300 3982.00 3911.39 63.00
1063 14.6400 4038.00 3922.83 64.00
1064 14.6500 4030.00 3926.85 63.00
1065 14.6600 4036.00 3926.51 64.00
1066 14.6700 4036.00 3925.57 64.00
1067 14.6800 4024.00 3926.98 63.00
1068 14.6900 4016.00 3932.62 63.00
1069 14.7000 4078.00 3943.56 64.00
1070 14.7100 4064.00 3960.43 64.00
1071 14.7200 4098.00 3983.63 64.00
1072 14.7300 4181.00 4013.55 65.00
1073 14.7400 4186.00 4050.91 65.00
1074 14.7500 4203.00 4097.02 65.00
1075 14.7600 4325.00 4154.22 66.00
1076 14.7700 4414.00 4226.42 66.00
1077 14.7800 4534.00 4319.72 67.00
1078 14.7900 4702.00 4443.30 69.00
1079 14.8000 4899.00 4610.07 70.00
1080 14.8100 5055.00 4836.79 71.00
1081 14.8200 5420.00 5143.73 74.00
1082 14.8300 5760.00 5552.95 76.00
1083 14.8400 6308.00 6084.92 79.00
1084 14.8500 6965.00 6755.05 83.00
1085 14.8600 7781.00 7568.07 88.00
1086 14.8700 8721.00 8513.26 93.00
1087 14.8800 9940.00 9556.75 100.00
1088 14.8900 11056.00 10630.70 105.00
1089 14.9000 12163.00 11628.90 110.00
1090 14.9100 12900.00 12427.00 114.00
1091 14.9200 13176.00 12936.00 115.00
1092 14.9300 13048.00 13130.90 114.00
1093 14.9400 12806.00 13031.90 113.00
1094 14.9500 12496.00 12737.10 112.00
1095 14.9600 12195.00 12381.20 110.00
1096 14.9700 12079.00 12012.00 110.00
1097 14.9800 11790.00 11589.80 109.00
1098 14.9900 11215.00 11051.20 106.00
1099 15.0000 10512.00 10371.00 103.00
1100 15.0100 9577.00 9582.43 98.00
1101 15.0200 8628.00 8750.63 93.00
1102 15.0300 7819.00 7938.97 88.00
1103 15.0400 7110.00 7191.59 84.00
1104 15.0500 6468.00 6533.45 80.00
1105 15.0600 6017.00 5975.28 78.00
1106 15.0700 5669.00 5517.12 75.00
1107 15.0800 5345.00 5151.93 73.00
1108 15.0900 5161.00 4868.09 72.00
1109 15.1000 4946.00 4651.91 70.00
1110 15.1100 4748.00 4489.35 69.00
1111 15.1200 4670.00 4367.66 68.00
1112 15.1300 4515.00 4276.23 67.00
1113 15.1400 4434.00 4206.69 67.00
1114 15.1500 4398.00 4152.90 66.00
1115 15.1600 4341.00 4110.52 66.00
1116 15.1700 4280.00 4076.60 65.00
1117 15.1800 4269.00 4049.16 65.00
1118 15.1900 4204.00 4026.89 65.00
1119 15.2000 4192.00 4008.91 65.00
1120 15.2100 4133.00 3994.64 64.00
1121 15.2200 4134.00 3983.64 64.00
1122 15.2300 4117.00 3975.63 64.00
1123 15.2400 4137.00 3970.41 64.00
1124 15.2500 4103.00 3967.86 64.00
1125 15.2600 4128.00 3967.90 64.00
1126 15.2700 4156.00 3970.54 64.00
1127 15.2800 4140.00 3975.86 64.00
1128 15.2900 4099.00 3984.00 64.00
1129 15.3000 4143.00 3995.26 64.00
1130 15.3100 4129.00 4010.15 64.00
1131 15.3200 4175.00 4029.49 65.00
1132 15.3300 4200.00 4054.62 65.00
1133 15.3400 4245.00 4087.57 65.00
1134 15.3500 4262.00 4131.08 65.00
1135 15.3600 4355.00 4188.48 66.00
1136 15.3700 4460.00 4263.22 67.00
1137 15.3800 4562.00 4357.95 68.00
1138 15.3900 4689.00 4473.46 68.00
1139 15.4000 4848.00 4606.90 70.00
1140 15.4100 4933.00 4749.52 70.00
1141 15.4200 5090.00 4886.44 71.00
1142 15.4300 5223.00 5006.22 72.00
1143 15.4400 5325.00 5117.89 73.00
1144 15.4500 5463.00 5245.66 74.00
1145 15.4600 5619.00 5416.87 75.00
1146 15.4700 5843.00 5647.31 76.00
1147 15.4800 6189.00 5941.18 79.00
1148 15.4900 6504.00 6291.08 81.00
1149 15.5000 6947.00 6676.88 83.00
1150 15.5100 7395.00 7065.62 86.00
1151 15.5200 7782.00 7418.37 88.00
1152 15.5300 7981.00 7714.62 89.00
1153 15.5400 8296.00 7985.49 91.00
1154 15.5500 8598.00 8331.92 93.00
1155 15.5600 9240.00 8923.58 96.00
1156 15.5700 10322.00 9994.28 102.00
1157 15.5800 12093.00 11832.20 110.00
1158 15.5900 14609.00 14733.80 121.00
1159 15.6000 18638.00 18897.50 137.00
1160 15.6100 23761.00 24259.80 154.00
1161 15.6200 30012.00 30233.90 173.00
1162 15.6300 35399.00 35344.90 188.00
1163 15.6400 37491.00 37371.00 194.00
1164 15.6500 35009.00 35102.30 187.00
1165 15.6600 29900.00 29812.10 173.00
1166 15.6700 23166.00 23708.40 152.00
1167 15.6800 17576.00 18218.70 133.00
1168 15.6900 13392.00 13902.60 116.00
1169 15.7000 10557.00 10809.10 103.00
1170 15.7100 8545.00 8737.97 92.00
1171 15.7200 7366.00 7407.34 86.00
1172 15.7300 6430.00 6557.24 80.00
1173 15.7400 5855.00 5997.03 77.00
1174 15.7500 5471.00 5607.05 74.00
1175 15.7600 5134.00 5319.26 72.00
1176 15.7700 4887.00 5094.84 70.00
1177 15.7800 4706.00 4918.49 69.00
1178 15.7900 4542.00 4776.03 67.00
1179 15.8000 4464.00 4659.95 67.00
1180 15.8100 4400.00 4564.92 66.00
1181 15.8200 4320.00 4487.18 66.00
1182 15.8300 4278.00 4423.88 65.00
1183 15.8400 4286.00 4373.01 65.00
1184 15.8500 4222.00 4333.13 65.00
1185 15.8600 4202.00 4303.33 65.00
1186 15.8700 4196.00 4283.18 65.00
1187 15.8800 4208.00 4272.86 65.00
1188 15.8900 4210.00 4273.41 65.00
1189 15.9000 4296.00 4287.23 66.00
1190 15.9100 4332.00 4318.98 66.00
1191 15.9200 4401.00 4376.74 66.00
1192 15.9300 4566.00 4473.39 68.00
1193 15.9400 4681.00 4627.08 68.00
1194 15.9500 4872.00 4860.31 70.00
1195 15.9600 5226.00 5196.09 72.00
1196 15.9700 5652.00 5650.78 75.00
1197 15.9800 6180.00 6224.55 79.00
1198 15.9900 6886.00 6887.57 83.00
1199 16.0000 7518.00 7559.55 87.00
1200 16.0100 8009.00 8091.17 89.00
1201 16.0200 8336.00 8299.66 91.00
1202 16.0300 8018.00 8091.44 90.00
1203 16.0400 7507.00 7557.02 87.00
1204 16.0500 6806.00 6880.96 82.00
1205 16.0600 6154.00 6212.27 78.00
1206 16.0700 5544.00 5632.11 74.00
1207 16.0800 5195.00 5170.73 72.00
1208 16.0900 4860.00 4828.46 70.00
1209 16.1000 4617.00 4588.83 68.00
1210 16.1100 4495.00 4429.02 67.00
1211 16.1200 4357.00 4326.48 66.00
1212 16.1300 4259.00 4263.04 65.00
1213 16.1400 4257.00 4225.84 65.00
1214 16.1500 4186.00 4206.87 65.00
1215 16.1600 4194.00 4201.65 65.00
1216 16.1700 4200.00 4208.14 65.00
1217 16.1800 4221.00 4225.97 65.00
1218 16.1900 4228.00 4256.25 65.00
1219 16.2000 4305.00 4302.14 66.00
1220 16.2100 4344.00 4370.05 66.00
1221 16.2200 4467.00 4471.86 67.00
1222 16.2300 4729.00 4627.13 69.00
1223 16.2400 4914.00 4863.37 70.00
1224 16.2500 5184.00 5212.29 72.00
1225 16.2600 5719.00 5699.32 76.00
1226 16.2700 6274.00 6326.84 79.00
1227 16.2800 7033.00 7044.28 84.00
1228 16.2900 7716.00 7713.43 88.00
1229 16.3000 8057.00 8157.36 90.00
1230 16.3100 8237.00 8361.26 91.00
1231 16.3200 8284.00 8501.19 91.00
1232 16.3300 8491.00 8736.60 92.00
1233 16.3400 8941.00 9117.88 95.00
1234 16.3500 9630.00 9608.07 98.00
1235 16.3600 10277.00 10109.00 101.00
1236 16.3700 10771.00 10490.00 104.00
1237 16.3800 11077.00 10637.80 105.00
1238 16.3900 10865.00 10518.00 104.00
1239 16.4000 10388.00 10195.90 102.00
1240 16.4100 9829.00 9794.17 99.00
1241 16.4200 9338.00 9429.48 97.00
1242 16.4300 9040.00 9172.03 95.00
1243 16.4400 9020.00 9024.36 95.00
1244 16.4500 8921.00 8915.07 94.00
1245 16.4600 8873.00 8747.46 94.00
1246 16.4700 8742.00 8499.71 93.00
1247 16.4800 8509.00 8220.60 92.00
1248 16.4900 8199.00 7933.90 91.00
1249 16.5000 7907.00 7614.78 89.00
1250 16.5100 7418.00 7235.58 86.00
1251 16.5200 6891.00 6805.40 83.00
1252 16.5300 6368.00 6352.96 80.00
1253 16.5400 5870.00 5917.77 77.00
1254 16.5500 5425.00 5524.77 74.00
1255 16.5600 5137.00 5186.14 72.00
1256 16.5700 4826.00 4905.68 69.00
1257 16.5800 4663.00 4681.53 68.00
1258 16.5900 4507.00 4507.83 67.00
1259 16.6000 4378.00 4373.74 66.00
1260 16.6100 4234.00 4276.50 65.00
1261 16.6200 4219.00 4205.03 65.00
1262 16.6300 4103.00 4152.75 64.00
1263 16.6400 4112.00 4113.40 64.00
1264 16.6500 4081.00 4085.09 64.00
1265 16.6600 4084.00 4064.34 64.00
1266 16.6700 4048.00 4049.49 64.00
1267 16.6800 4046.00 4039.48 64.00
1268 16.6900 4003.00 4033.68 63.00
1269 16.7000 4027.00 4031.70 63.00
1270 16.7100 4019.00 4033.32 63.00
1271 16.7200 4040.00 4038.48 64.00
1272 16.7300 4011.00 4047.20 63.00
1273 16.7400 4011.00 4059.58 63.00
1274 16.7500 4060.00 4075.85 64.00
1275 16.7600 4105.00 4096.31 64.00
1276 16.7700 4150.00 4121.36 64.00
1277 16.7800 4183.00 4151.58 65.00
1278 16.7900 4160.00 4187.65 64.00
1279 16.8000 4274.00 4230.51 65.00
1280 16.8100 4293.00 4281.35 66.00
1281 16.8200 4405.00 4341.83 66.00
1282 16.8300 4493.00 4414.22 67.00
1283 16.8400 4618.00 4501.07 68.00
1284 16.8500 4727.00 4609.56 69.00
1285 16.8600 4900.00 4747.28 70.00
1286 16.8700 5102.00 4927.58 71.00
1287 16.8800 5424.00 5171.02 74.00
1288 16.8900 5814.00 5507.52 76.00
1289 16.9000 6250.00 5977.88 79.00
1290 16.9100 6822.00 6632.61 83.00
1291 16.9200 7656.00 7528.20 87.00
1292 16.9300 8689.00 8717.18 93.00
1293 16.9400 10007.00 10235.50 100.00
1294 16.9500 11752.00 12083.40 108.00
1295 16.9600 13654.00 14201.30 117.00
1296 16.9700 15809.00 16452.00 126.00
1297 16.9800 18209.00 18586.30 135.00
1298 16.9900 19988.00 20232.20 141.00
1299 17.0000 20927.00 20968.50 145.00
1300 17.0100 20611.00 20552.30 144.00
1301 17.0200 19134.00 19108.70 138.00
1302 17.0300 16721.00 17036.40 129.00
1303 17.0400 14353.00 14757.60 120.00
1304 17.0500 11996.00 12569.80 110.00
1305 17.0600 10163.00 10638.40 101.00
1306 17.0700 8725.00 9033.64 93.00
1307 17.0800 7589.00 7763.98 87.00
1308 17.0900 6624.00 6798.65 81.00
1309 17.1000 6047.00 6087.41 78.00
1310 17.1100 5520.00 5573.50 74.00
1311 17.1200 5169.00 5204.58 72.00
1312 17.1300 4852.00 4937.34 70.00
1313 17.1400 4671.00 4739.26 68.00
1314 17.1500 4449.00 4587.84 67.00
1315 17.1600 4350.00 4468.12 66.00
1316 17.1700 4197.00 4370.59 65.00
1317 17.1800 4110.00 4289.20 64.00
1318 17.1900 4046.00 4220.12 64.00
1319 17.2000 3985.00 4160.74 63.00
1320 17.2100 3895.00 4109.24 62.00
1321 17.2200 3888.00 4064.25 62.00
1322 17.2300 3847.00 4024.74 62.00
1323 17.2400 3799.00 3989.86 62.00
1324 17.2500 3794.00 3958.94 62.00
1325 17.2600 3759.00 3931.42 61.00
1326 17.2700 3709.00 3906.84 61.00
1327 17.2800 3742.00 3884.82 61.00
1328 17.2900 3732.00 3865.03 61.00
1329 17.3000 3708.00 3847.20 61.00
1330 17.3100 3707.00 3831.10 61.00
1331 17.3200 3675.00 3816.53 61.00
1332 17.3300 3653.00 3803.33 60.00
1333 17.3400 3654.00 3791.35 60.00
1334 17.3500 3667.00 3780.47 61.00
1335 17.3600 3662.00 3770.58 61.00
1336 17.3700 3649.00 3761.60 60.00
1337 17.3800 3626.00 3753.43 60.00
1338 17.3900 3602.00 3746.02 60.00
1339 17.4000 3602.00 3739.30 60.00
1340 17.4100 3565.00 3733.23 60.00
1341 17.4200 3617.00 3727.76 60.00
1342 17.4300 3597.00 3722.86 60.00
1343 17.4400 3590.00 3718.49 60.00
1344 17.4500 3560.00 3714.60 60.00
1345 17.4600 3599.00 3711.25 60.00
1346 17.4700 3589.00 3708.38 60.00
1347 17.4800 3627.00 3705.98 60.00
1348 17.4900 3629.00 3704.69 60.00
1349 17.5000 3600.00 3703.26 60.00
1350 17.5100 3568.00 3702.33 60.00
1351 17.5200 3621.00 3701.90 60.00
1352 17.5300 3596.00 3702.04 60.00
1353 17.5400 3600.00 3702.76 60.00
1354 17.5500 3624.00 3704.13 60.00
1355 17.5600 3632.00 3706.21 60.00
1356 17.5700 3614.00 3709.11 60.00
1357 17.5800 3676.00 3712.97 61.00
1358 17.5900 3652.00 3717.98 60.00
1359 17.6000 3630.00 3724.47 60.00
1360 17.6100 3653.00 3732.93 60.00
1361 17.6200 3656.00 3744.18 60.00
1362 17.6300 3630.00 3759.43 60.00
1363 17.6400 3682.00 3780.43 61.00
1364 17.6500 3695.00 3809.38 61.00
1365 17.6600 3760.00 3848.86 61.00
1366 17.6700 3811.00 3901.42 62.00
1367 17.6800 3855.00 3968.82 62.00
1368 17.6900 3910.00 4050.60 63.00
1369 17.7000 4018.00 4143.70 63.00
1370 17.7100 4102.00 4246.48 64.00
1371 17.7200 4207.00 4363.48 65.00
1372 17.7300 4386.00 4500.81 66.00
1373 17.7400 4537.00 4657.90 67.00
1374 17.7500 4683.00 4823.74 68.00
1375 17.7600 4930.00 4975.11 70.00
1376 17.7700 5056.00 5079.05 71.00
1377 17.7800 5080.00 5104.66 71.00
1378 17.7900 5035.00 5036.92 71.00
1379 17.8000 4862.00 4905.39 70.00
1380 17.8100 4618.00 4737.37 68.00
1381 17.8200 4480.00 4562.60 67.00
1382 17.8300 4265.00 4400.69 65.00
1383 17.8400 4138.00 4262.35 64.00
1384 17.8500 4078.00 4152.04 64.00
1385 17.8600 3986.00 4070.43 63.00
1386 17.8700 3928.00 4016.02 63.00
1387 17.8800 3971.00 3986.67 63.00
1388 17.8900 3941.00 3980.62 63.00
1389 17.9000 3915.00 3997.66 63.00
1390 17.9100 4010.00 4039.03 63.00
1391 17.9200 4056.00 4107.70 64.00
1392 17.9300 4105.00 4207.59 64.00
1393 17.9400 4254.00 4342.69 65.00
1394 17.9500 4412.00 4515.52 66.00
1395 17.9600 4617.00 4725.62 68.00
1396 17.9700 4908.00 4967.50 70.00
1397 17.9800 5155.00 5228.01 72.00
1398 17.9900 5441.00 5482.89 74.00
1399 18.0000 5776.00 5695.06 76.00
1400 18.0100 5918.00 5819.83 77.00
1401 18.0200 5931.00 5823.56 77.00
1402 18.0300 5792.00 5704.50 76.00
1403 18.0400 5484.00 5493.97 74.00
1404 18.0500 5099.00 5240.63 71.00
1405 18.0600 4829.00 4974.46 69.00
1406 18.0700 4547.00 4724.71 67.00
1407 18.0800 4348.00 4505.40 66.00
1408 18.0900 4194.00 4322.39 65.00
1409 18.1000 4061.00 4176.37 64.00
1410 18.1100 3923.00 4064.57 63.00
1411 18.1200 3889.00 3982.56 62.00
1412 18.1300 3808.00 3925.35 62.00
1413 18.1400 3784.00 3888.29 62.00
1414 18.1500 3773.00 3867.46 61.00
1415 18.1600 3761.00 3859.68 61.00
1416 18.1700 3753.00 3862.18 61.00
1417 18.1800 3779.00 3872.05 61.00
1418 18.1900 3812.00 3885.40 62.00
1419 18.2000 3820.00 3896.62 62.00
1420 18.2100 3829.00 3898.92 62.00
1421 18.2200 3806.00 3887.77 62.00
1422 18.2300 3750.00 3864.34 61.00
1423 18.2400 3778.00 3834.20 61.00
1424 18.2500 3715.00 3803.02 61.00
1425 18.2600 3713.00 3774.42 61.00
1426 18.2700 3679.00 3750.12 61.00
1427 18.2800 3654.00 3730.58 60.00
1428 18.2900 3599.00 3715.52 60.00
1429 18.3000 3637.00 3704.30 60.00
1430 18.3100 3589.00 3696.11 60.00
1431 18.3200 3591.00 3690.19 60.00
1432 18.3300 3604.00 3685.50 60.00
1433 18.3400 3620.00 3682.42 60.00
1434 18.3500 3574.00 3680.21 60.00
1435 18.3600 3598.00 3678.65 60.00
1436 18.3700 3581.00 3677.63 60.00
1437 18.3800 3571.00 3677.06 60.00
1438 18.3900 3552.00 3676.91 60.00
1439 18.4000 3581.00 3677.14 60.00
1440 18.4100 3534.00 3677.73 59.00
1441 18.4200 3592.00 3677.91 60.00
1442 18.4300 3587.00 3679.26 60.00
1443 18.4400 3617.00 3681.01 60.00
1444 18.4500 3595.00 3683.19 60.00
1445 18.4600 3609.00 3685.85 60.00
1446 18.4700 3614.00 3689.05 60.00
1447 18.4800 3624.00 3692.88 60.00
1448 18.4900 3628.00 3697.47 60.00
1449 18.5000 3633.00 3702.99 60.00
1450 18.5100 3636.00 3709.74 60.00
1451 18.5200 3633.00 3718.19 60.00
1452 18.5300 3591.00 3729.20 60.00
1453 18.5400 3663.00 3744.33 61.00
1454 18.5500 3635.00 3765.52 60.00
1455 18.5600 3703.00 3798.27 61.00
1456 18.5700 3727.00 3847.14 61.00
1457 18.5800 3780.00 3917.48 61.00
1458 18.5900 3841.00 4012.38 62.00
1459 18.6000 3964.00 4128.68 63.00
1460 18.6100 4071.00 4250.06 64.00
1461 18.6200 4148.00 4339.09 64.00
1462 18.6300 4210.00 4351.43 65.00
1463 18.6400 4162.00 4282.00 65.00
1464 18.6500 4061.00 4172.73 64.00
1465 18.6600 3982.00 4063.99 63.00
1466 18.6700 3877.00 3975.11 62.00
1467 18.6800 3844.00 3911.47 62.00
1468 18.6900 3797.00 3870.54 62.00
1469 18.7000 3739.00 3847.23 61.00
1470 18.7100 3702.00 3836.30 61.00
1471 18.7200 3755.00 3833.58 61.00
1472 18.7300 3704.00 3836.37 61.00
1473 18.7400 3761.00 3843.15 61.00
1474 18.7500 3744.00 3853.24 61.00
1475 18.7600 3748.00 3866.39 61.00
1476 18.7700 3733.00 3882.68 61.00
1477 18.7800 3802.00 3902.38 62.00
1478 18.7900 3779.00 3925.94 61.00
1479 18.8000 3823.00 3958.01 62.00
1480 18.8100 3869.00 3991.73 62.00
1481 18.8200 3904.00 4032.56 62.00
1482 18.8300 3948.00 4083.02 63.00
1483 18.8400 4034.00 4147.18 64.00
1484 18.8500 4113.00 4231.83 64.00
1485 18.8600 4210.00 4347.70 65.00
1486 18.8700 4360.00 4510.89 66.00
1487 18.8800 4557.00 4743.11 68.00
1488 18.8900 4772.00 5070.66 69.00
1489 18.9000 5204.00 5519.66 72.00
1490 18.9100 5770.00 6109.20 76.00
1491 18.9200 6494.00 6839.80 81.00
1492 18.9300 7458.00 7677.76 86.00
1493 18.9400 8439.00 8528.63 92.00
1494 18.9500 9225.00 9214.27 96.00
1495 18.9600 9834.00 9510.77 99.00
1496 18.9700 9587.00 9302.66 98.00
1497 18.9800 8880.00 8695.14 94.00
1498 18.9900 7963.00 7913.45 89.00
1499 19.0000 7074.00 7144.63 84.00
1500 19.0100 6332.00 6493.68 80.00
1501 19.0200 5900.00 6006.11 77.00
1502 19.0300 5585.00 5696.36 75.00
1503 19.0400 5502.00 5564.82 74.00
1504 19.0500 5542.00 5608.98 74.00
1505 19.0600 5719.00 5828.13 76.00
1506 19.0700 6023.00 6222.07 78.00
1507 19.0800 6597.00 6784.28 81.00
1508 19.0900 7327.00 7488.39 86.00
1509 19.1000 8281.00 8267.81 91.00
1510 19.1100 9167.00 8986.65 96.00
1511 19.1200 9751.00 9438.56 99.00
1512 19.1300 9776.00 9441.61 99.00
1513 19.1400 9322.00 8993.05 97.00
1514 19.1500 8408.00 8271.98 92.00
1515 19.1600 7488.00 7485.60 87.00
1516 19.1700 6714.00 6770.61 82.00
1517 19.1800 6080.00 6193.72 78.00
1518 19.1900 5634.00 5777.98 75.00
1519 19.2000 5454.00 5523.86 74.00
1520 19.2100 5340.00 5421.08 73.00
1521 19.2200 5369.00 5456.53 73.00
1522 19.2300 5528.00 5617.98 74.00
1523 19.2400 5788.00 5893.84 76.00
1524 19.2500 6128.00 6270.14 78.00
1525 19.2600 6689.00 6724.24 82.00
1526 19.2700 7212.00 7216.68 85.00
1527 19.2800 7837.00 7680.49 89.00
1528 19.2900 8352.00 8020.01 91.00
1529 19.3000 8443.00 8136.71 92.00
1530 19.3100 8295.00 7985.52 91.00
1531 19.3200 7837.00 7607.86 89.00
1532 19.3300 7132.00 7099.60 84.00
1533 19.3400 6536.00 6554.93 81.00
1534 19.3500 5950.00 6037.77 77.00
1535 19.3600 5473.00 5582.99 74.00
1536 19.3700 5079.00 5204.60 71.00
1537 19.3800 4830.00 4903.60 69.00
1538 19.3900 4616.00 4672.98 68.00
1539 19.4000 4479.00 4501.59 67.00
1540 19.4100 4363.00 4377.09 66.00
1541 19.4200 4277.00 4287.88 65.00
1542 19.4300 4183.00 4224.40 65.00
1543 19.4400 4205.00 4179.33 65.00
1544 19.4500 4150.00 4147.61 64.00
1545 19.4600 4110.00 4125.90 64.00
1546 19.4700 4127.00 4112.23 64.00
1547 19.4800 4108.00 4105.55 64.00
1548 19.4900 4103.00 4105.50 64.00
1549 19.5000 4138.00 4112.25 64.00
1550 19.5100 4121.00 4126.42 64.00
1551 19.5200 4138.00 4149.08 64.00
1552 19.5300 4212.00 4181.69 65.00
1553 19.5400 4228.00 4226.06 65.00
1554 19.5500 4284.00 4284.12 65.00
1555 19.5600 4402.00 4357.80 66.00
1556 19.5700 4443.00 4448.64 67.00
1557 19.5800 4571.00 4557.35 68.00
1558 19.5900 4673.00 4682.79 68.00
1559 19.6000 4789.00 4822.56 69.00
1560 19.6100 4915.00 4972.47 70.00
1561 19.6200 5128.00 5133.31 72.00
1562 19.6300 5251.00 5313.81 72.00
1563 19.6400 5439.00 5527.83 74.00
1564 19.6500 5696.00 5784.28 75.00
1565 19.6600 5986.00 6081.57 77.00
1566 19.6700 6271.00 6404.46 79.00
1567 19.6800 6670.00 6718.82 82.00
1568 19.6900 6931.00 6968.42 83.00
1569 19.7000 7077.00 7085.03 84.00
1570 19.7100 7028.00 7029.95 84.00
1571 19.7200 6811.00 6822.17 83.00
1572 19.7300 6466.00 6527.64 80.00
1573 19.7400 6177.00 6215.21 79.00
1574 19.7500 5791.00 5933.92 76.00
1575 19.7600 5610.00 5711.57 75.00
1576 19.7700 5463.00 5566.34 74.00
1577 19.7800 5420.00 5503.53 74.00
1578 19.7900 5451.00 5531.93 74.00
1579 19.8000 5616.00 5658.29 75.00
1580 19.8100 5801.00 5888.73 76.00
1581 19.8200 6128.00 6224.93 78.00
1582 19.8300 6623.00 6658.03 81.00
1583 19.8400 7088.00 7163.40 84.00
1584 19.8500 7608.00 7690.29 87.00
1585 19.8600 8180.00 8139.65 90.00
1586 19.8700 8486.00 8360.32 92.00
1587 19.8800 8507.00 8251.47 92.00
1588 19.8900 8244.00 7897.66 91.00
1589 19.9000 7854.00 7517.51 89.00
1590 19.9100 7544.00 7313.97 87.00
1591 19.9200 7594.00 7413.44 87.00
1592 19.9300 7938.00 7856.13 89.00
1593 19.9400 8642.00 8561.57 93.00
1594 19.9500 9275.00 9242.56 96.00
1595 19.9600 9455.00 9409.16 97.00
1596 19.9700 8877.00 8819.05 94.00
1597 19.9800 8071.00 7802.09 90.00
1598 19.9900 6946.00 6783.11 83.00
1599 20.0000 6047.00 5970.00 78.00
1600 20.0100 5405.00 5398.37 74.00
1601 20.0200 5002.00 5034.27 71.00
1602 20.0300 4710.00 4820.49 69.00
1603 20.0400 4633.00 4704.33 68.00
1604 20.0500 4529.00 4648.29 67.00
1605 20.0600 4496.00 4629.90 67.00
1606 20.0700 4514.00 4636.80 67.00
1607 20.0800 4500.00 4661.96 67.00
1608 20.0900 4500.00 4700.69 67.00
1609 20.1000 4575.00 4749.01 68.00
1610 20.1100 4664.00 4803.05 68.00
1611 20.1200 4748.00 4858.33 69.00
1612 20.1300 4806.00 4910.08 69.00
1613 20.1400 4889.00 4953.17 70.00
1614 20.1500 4893.00 4982.68 70.00
1615 20.1600 4968.00 4994.81 70.00
1616 20.1700 4949.00 4987.81 70.00
1617 20.1800 4915.00 4962.42 70.00
1618 20.1900 4871.00 4921.66 70.00
1619 20.2000 4820.00 4869.99 69.00
1620 20.2100 4695.00 4812.48 69.00
1621 20.2200 4659.00 4753.92 68.00
1622 20.2300 4594.00 4698.72 68.00
1623 20.2400 4553.00 4650.76 67.00
1624 20.2500 4582.00 4613.73 68.00
1625 20.2600 4550.00 4591.43 67.00
1626 20.2700 4533.00 4588.34 67.00
1627 20.2800 4550.00 4610.24 67.00
1628 20.2900 4607.00 4664.96 68.00
1629 20.3000 4706.00 4762.98 69.00
1630 20.3100 4900.00 4917.69 70.00
1631 20.3200 5066.00 5144.27 71.00
1632 20.3300 5322.00 5457.40 73.00
1633 20.3400 5726.00 5866.67 76.00
1634 20.3500 6144.00 6371.38 78.00
1635 20.3600 6765.00 6953.59 82.00
1636 20.3700 7487.00 7569.36 87.00
1637 20.3800 8104.00 8132.27 90.00
1638 20.3900 8567.00 8508.18 93.00
1639 20.4000 8733.00 8562.61 93.00
1640 20.4100 8431.00 8263.21 92.00
1641 20.4200 7757.00 7712.99 88.00
1642 20.4300 7081.00 7064.08 84.00
1643 20.4400 6413.00 6432.63 80.00
1644 20.4500 5806.00 5880.31 76.00
1645 20.4600 5414.00 5430.73 74.00
1646 20.4700 5078.00 5084.41 71.00
1647 20.4800 4837.00 4829.94 70.00
1648 20.4900 4679.00 4650.57 68.00
1649 20.5000 4570.00 4528.72 68.00
1650 20.5100 4450.00 4449.28 67.00
1651 20.5200 4440.00 4400.72 67.00
1652 20.5300 4416.00 4375.35 66.00
1653 20.5400 4430.00 4368.63 67.00
1654 20.5500 4467.00 4378.43 67.00
1655 20.5600 4453.00 4404.22 67.00
1656 20.5700 4465.00 4446.52 67.00
1657 20.5800 4525.00 4506.44 67.00
1658 20.5900 4597.00 4585.35 68.00
1659 20.6000 4680.00 4684.64 68.00
1660 20.6100 4793.00 4805.37 69.00
1661 20.6200 4899.00 4948.12 70.00
1662 20.6300 5045.00 5112.58 71.00
1663 20.6400 5252.00 5297.46 72.00
1664 20.6500 5449.00 5500.04 74.00
1665 20.6600 5632.00 5715.72 75.00
1666 20.6700 5959.00 5937.81 77.00
1667 20.6800 6192.00 6156.85 79.00
1668 20.6900 6440.00 6360.69 80.00
1669 20.7000 6739.00 6534.83 82.00
1670 20.7100 6960.00 6664.44 83.00
1671 20.7200 7081.00 6737.50 84.00
1672 20.7300 7045.00 6748.39 84.00
1673 20.7400 6919.00 6700.01 83.00
1674 20.7500 6677.00 6602.95 82.00
1675 20.7600 6496.00 6472.91 81.00
1676 20.7700 6219.00 6326.23 79.00
1677 20.7800 6010.00 6177.72 78.00
1678 20.7900 5904.00 6039.13 77.00
1679 20.8000 5723.00 5918.99 76.00
1680 20.8100 5633.00 5822.60 75.00
1681 20.8200 5612.00 5752.60 75.00
1682 20.8300 5570.00 5708.95 75.00
1683 20.8400 5623.00 5689.30 75.00
1684 20.8500 5682.00 5688.97 75.00
1685 20.8600 5715.00 5702.40 76.00
1686 20.8700 5707.00 5722.62 76.00
1687 20.8800 5854.00 5743.08 77.00
1688 20.8900 5886.00 5758.12 77.00
1689 20.9000 5905.00 5763.22 77.00
1690 20.9100 5925.00 5755.01 77.00
1691 20.9200 5879.00 5731.53 77.00
1692 20.9300 5787.00 5692.87 76.00
1693 20.9400 5739.00 5641.86 76.00
1694 20.9500 5574.00 5584.05 75.00
1695 20.9600 5523.00 5526.46 74.00
1696 20.9700 5483.00 5475.76 74.00
1697 20.9800 5416.00 5435.25 74.00
1698 20.9900 5310.00 5401.51 73.00
1699 21.0000 5354.00 5361.37 73.00
1700 21.0100 5264.00 5298.52 73.00
1701 21.0200 5207.00 5211.70 72.00
1702 21.0300 5132.00 5119.77 72.00
1703 21.0400 5097.00 5047.98 71.00
1704 21.0500 5005.00 5019.40 71.00
1705 21.0600 5089.00 5054.09 71.00
1706 21.0700 5135.00 5169.40 72.00
1707 21.0800 5329.00 5378.07 73.00
1708 21.0900 5640.00 5683.65 75.00
1709 21.1000 5978.00 6070.99 77.00
1710 21.1100 6350.00 6491.68 80.00
1711 21.1200 6772.00 6834.72 82.00
1712 21.1300 6938.00 6960.28 83.00
1713 21.1400 6909.00 6796.07 83.00
1714 21.1500 6635.00 6415.79 81.00
1715 21.1600 6159.00 5959.37 78.00
1716 21.1700 5678.00 5528.99 75.00
1717 21.1800 5312.00 5171.57 73.00
1718 21.1900 4994.00 4898.72 71.00
1719 21.2000 4792.00 4704.59 69.00
1720 21.2100 4715.00 4575.41 69.00
1721 21.2200 4612.00 4495.64 68.00
1722 21.2300 4502.00 4451.68 67.00
1723 21.2400 4546.00 4433.30 67.00
1724 21.2500 4493.00 4433.78 67.00
1725 21.2600 4522.00 4448.98 67.00
1726 21.2700 4548.00 4477.88 67.00
1727 21.2800 4598.00 4520.08 68.00
1728 21.2900 4608.00 4576.93 68.00
1729 21.3000 4751.00 4651.48 69.00
1730 21.3100 4795.00 4748.66 69.00
1731 21.3200 4916.00 4875.39 70.00
1732 21.3300 5110.00 5039.89 71.00
1733 21.3400 5305.00 5250.96 73.00
1734 21.3500 5493.00 5516.22 74.00
1735 21.3600 5861.00 5839.83 77.00
1736 21.3700 6173.00 6218.25 79.00
1737 21.3800 6620.00 6639.11 81.00
1738 21.3900 7088.00 7089.20 84.00
1739 21.4000 7573.00 7568.09 87.00
1740 21.4100 8066.00 8088.25 90.00
1741 21.4200 8747.00 8647.51 94.00
1742 21.4300 9258.00 9194.77 96.00
1743 21.4400 9859.00 9611.24 99.00
1744 21.4500 10122.00 9743.09 101.00
1745 21.4600 9865.00 9500.02 99.00
1746 21.4700 9225.00 8934.44 96.00
1747 21.4800 8456.00 8197.04 92.00
1748 21.4900 7540.00 7432.96 87.00
1749 21.5000 6795.00 6733.47 82.00
1750 21.5100 6224.00 6140.40 79.00
1751 21.5200 5708.00 5665.14 76.00
1752 21.5300 5359.00 5301.24 73.00
1753 21.5400 5142.00 5033.53 72.00
1754 21.5500 4954.00 4842.31 70.00
1755 21.5600 4836.00 4711.46 70.00
1756 21.5700 4780.00 4624.91 69.00
1757 21.5800 4664.00 4571.48 68.00
1758 21.5900 4638.00 4543.74 68.00
1759 21.6000 4655.00 4537.40 68.00
1760 21.6100 4630.00 4550.39 68.00
1761 21.6200 4702.00 4582.09 69.00
1762 21.6300 4742.00 4632.56 69.00
1763 21.6400 4779.00 4702.09 69.00
1764 21.6500 4841.00 4790.60 70.00
1765 21.6600 4994.00 4897.43 71.00
1766 21.6700 5076.00 5020.71 71.00
1767 21.6800 5275.00 5157.00 73.00
1768 21.6900 5471.00 5300.84 74.00
1769 21.7000 5613.00 5445.76 75.00
1770 21.7100 5754.00 5587.30 76.00
1771 21.7200 5948.00 5728.38 77.00
1772 21.7300 6048.00 5881.99 78.00
1773 21.7400 6200.00 6068.11 79.00
1774 21.7500 6442.00 6310.84 80.00
1775 21.7600 6686.00 6626.63 82.00
1776 21.7700 7021.00 7022.99 84.00
1777 21.7800 7558.00 7493.72 87.00
1778 21.7900 8014.00 8014.92 90.00
1779 21.8000 8629.00 8547.31 93.00
1780 21.8100 9150.00 9050.50 96.00
1781 21.8200 9557.00 9489.07 98.00
1782 21.8300 9883.00 9842.06 99.00
1783 21.8400 10292.00 10077.10 101.00
1784 21.8500 10326.00 10147.00 102.00
1785 21.8600 10304.00 10011.20 102.00
1786 21.8700 9929.00 9666.31 100.00
1787 21.8800 9277.00 9155.42 96.00
1788 21.8900 8535.00 8550.00 92.00
1789 21.9000 7897.00 7917.50 89.00
1790 21.9100 7239.00 7307.95 85.00
1791 21.9200 6686.00 6752.21 82.00
1792 21.9300 6253.00 6265.56 79.00
1793 21.9400 5889.00 5853.24 77.00
1794 21.9500 5546.00 5513.33 74.00
1795 21.9600 5301.00 5240.01 73.00
1796 21.9700 5102.00 5024.85 71.00
1797 21.9800 4950.00 4858.84 70.00
1798 21.9900 4840.00 4733.47 70.00
1799 22.0000 4719.00 4641.40 69.00
1800 22.0100 4648.00 4577.30 68.00
1801 22.0200 4635.00 4538.21 68.00
1802 22.0300 4600.00 4524.07 68.00
1803 22.0400 4635.00 4537.83 68.00
1804 22.0500 4692.00 4585.31 68.00
1805 22.0600 4735.00 4674.33 69.00
1806 22.0700 4830.00 4812.52 69.00
1807 22.0800 5048.00 5004.24 71.00
1808 22.0900 5250.00 5245.12 72.00
1809 22.1000 5494.00 5513.19 74.00
1810 22.1100 5791.00 5755.67 76.00
1811 22.1200 5959.00 5889.23 77.00
1812 22.1300 5900.00 5846.45 77.00
1813 22.1400 5793.00 5640.60 76.00
1814 22.1500 5498.00 5351.03 74.00
1815 22.1600 5216.00 5054.06 72.00
1816 22.1700 4942.00 4791.60 70.00
1817 22.1800 4722.00 4578.78 69.00
1818 22.1900 4517.00 4415.86 67.00
1819 22.2000 4438.00 4296.25 67.00
1820 22.2100 4298.00 4210.58 66.00
1821 22.2200 4270.00 4149.64 65.00
1822 22.2300 4229.00 4105.73 65.00
1823 22.2400 4172.00 4073.22 65.00
1824 22.2500 4121.00 4048.28 64.00
1825 22.2600 4109.00 4027.90 64.00
1826 22.2700 4087.00 4011.77 64.00
1827 22.2800 4096.00 3998.34 64.00
1828 22.2900 4078.00 3986.91 64.00
1829 22.3000 4029.00 3977.16 63.00
1830 22.3100 4041.00 3968.78 64.00
1831 22.3200 4062.00 3961.59 64.00
1832 22.3300 4058.00 3955.45 64.00
1833 22.3400 4040.00 3950.25 64.00
1834 22.3500 4065.00 3945.92 64.00
1835 22.3600 4056.00 3942.38 64.00
1836 22.3700 4020.00 3938.87 63.00
1837 22.3800 4040.00 3936.72 64.00
1838 22.3900 4051.00 3935.21 64.00
1839 22.4000 4073.00 3934.28 64.00
1840 22.4100 4058.00 3933.92 64.00
1841 22.4200 4035.00 3934.11 64.00
1842 22.4300 4023.00 3934.84 63.00
1843 22.4400 4054.00 3936.11 64.00
1844 22.4500 4057.00 3937.92 64.00
1845 22.4600 4048.00 3940.29 64.00
1846 22.4700 4106.00 3943.25 64.00
1847 22.4800 4063.00 3946.82 64.00
1848 22.4900 4048.00 3951.05 64.00
1849 22.5000 4059.00 3956.00 64.00
1850 22.5100 4089.00 3961.74 64.00
1851 22.5200 4099.00 3968.37 64.00
1852 22.5300 4111.00 3975.98 64.00
1853 22.5400 4089.00 3984.73 64.00
1854 22.5500 4086.00 3994.78 64.00
1855 22.5600 4142.00 4006.38 64.00
1856 22.5700 4147.00 4019.48 64.00
1857 22.5800 4153.00 4035.28 64.00
1858 22.5900 4199.00 4054.08 65.00
1859 22.6000 4196.00 4076.93 65.00
1860 22.6100 4204.00 4105.37 65.00
1861 22.6200 4251.00 4141.71 65.00
1862 22.6300 4288.00 4189.21 65.00
1863 22.6400 4394.00 4252.19 66.00
1864 22.6500 4461.00 4335.93 67.00
1865 22.6600 4594.00 4446.20 68.00
1866 22.6700 4643.00 4588.49 68.00
1867 22.6800 4896.00 4766.55 70.00
1868 22.6900 5079.00 4980.76 71.00
1869 22.7000 5363.00 5225.12 73.00
1870 22.7100 5677.00 5483.07 75.00
1871 22.7200 5921.00 5722.38 77.00
1872 22.7300 6150.00 5894.94 78.00
1873 22.7400 6251.00 5954.44 79.00
1874 22.7500 6117.00 5887.08 78.00
1875 22.7600 5905.00 5723.33 77.00
1876 22.7700 5716.00 5514.73 76.00
1877 22.7800 5445.00 5305.49 74.00
1878 22.7900 5182.00 5123.15 72.00
1879 22.8000 5065.00 4981.55 71.00
1880 22.8100 4964.00 4886.24 70.00
1881 22.8200 4944.00 4838.14 70.00
1882 22.8300 4996.00 4835.83 71.00
1883 22.8400 5012.00 4877.09 71.00
1884 22.8500 5090.00 4959.64 71.00
1885 22.8600 5255.00 5084.12 72.00
1886 22.8700 5377.00 5242.55 73.00
1887 22.8800 5577.00 5435.06 75.00
1888 22.8900 5840.00 5661.21 76.00
1889 22.9000 5968.00 5925.31 77.00
1890 22.9100 6205.00 6236.47 79.00
1891 22.9200 6551.00 6603.41 81.00
1892 22.9300 6914.00 7029.68 83.00
1893 22.9400 7419.00 7509.89 86.00
1894 22.9500 7972.00 8028.13 89.00
1895 22.9600 8481.00 8555.32 92.00
1896 22.9700 8931.00 9050.67 95.00
1897 22.9800 9474.00 9466.75 97.00
1898 22.9900 9827.00 9763.15 99.00
1899 23.0000 10026.00 9917.94 100.00
1900 23.0100 10117.00 9929.66 101.00
1901 23.0200 9991.00 9809.05 100.00
1902 23.0300 9661.00 9571.56 98.00
1903 23.0400 9376.00 9236.52 97.00
1904 23.0500 8857.00 8827.50 94.00
1905 23.0600 8302.00 8372.25 91.00
1906 23.0700 7795.00 7898.98 88.00
1907 23.0800 7239.00 7432.14 85.00
1908 23.0900 6783.00 6990.43 82.00
1909 23.1000 6457.00 6585.94 80.00
1910 23.1100 6074.00 6225.79 78.00
1911 23.1200 5779.00 5912.97 76.00
1912 23.1300 5560.00 5648.19 75.00
1913 23.1400 5443.00 5430.13 74.00
1914 23.1500 5247.00 5256.65 72.00
1915 23.1600 5191.00 5123.78 72.00
1916 23.1700 5085.00 5029.24 71.00
1917 23.1800 5073.00 4967.33 71.00
1918 23.1900 5033.00 4931.98 71.00
1919 23.2000 5021.00 4915.18 71.00
1920 23.2100 4989.00 4906.37 71.00
1921 23.2200 5025.00 4892.63 71.00
1922 23.2300 4976.00 4862.12 71.00
1923 23.2400 4946.00 4809.43 70.00
1924 23.2500 4893.00 4738.64 70.00
1925 23.2600 4803.00 4659.41 69.00
1926 23.2700 4663.00 4581.24 68.00
1927 23.2800 4617.00 4510.67 68.00
1928 23.2900 4554.00 4451.45 67.00
1929 23.3000 4505.00 4405.69 67.00
1930 23.3100 4532.00 4374.71 67.00
1931 23.3200 4483.00 4360.13 67.00
1932 23.3300 4446.00 4364.77 67.00
1933 23.3400 4514.00 4393.65 67.00
1934 23.3500 4576.00 4454.85 68.00
1935 23.3600 4693.00 4559.29 69.00
1936 23.3700 4871.00 4719.28 70.00
1937 23.3800 5068.00 4944.67 71.00
1938 23.3900 5351.00 5236.64 73.00
1939 23.4000 5705.00 5574.46 76.00
1940 23.4100 5976.00 5894.48 77.00
1941 23.4200 6162.00 6080.94 78.00
1942 23.4300 6141.00 6033.64 78.00
1943 23.4400 5967.00 5776.50 77.00
1944 23.4500 5598.00 5424.96 75.00
1945 23.4600 5288.00 5081.44 73.00
1946 23.4700 4953.00 4792.67 70.00
1947 23.4800 4714.00 4569.85 69.00
1948 23.4900 4582.00 4407.53 68.00
1949 23.5000 4462.00 4293.61 67.00
1950 23.5100 4358.00 4214.98 66.00
1951 23.5200 4348.00 4160.42 66.00
1952 23.5300 4231.00 4121.59 65.00
1953 23.5400 4227.00 4092.96 65.00
1954 23.5500 4197.00 4071.14 65.00
1955 23.5600 4184.00 4054.10 65.00
1956 23.5700 4155.00 4040.08 64.00
1957 23.5800 4169.00 4029.38 65.00
1958 23.5900 4157.00 4020.95 64.00
1959 23.6000 4179.00 4014.40 65.00
1960 23.6100 4187.00 4009.49 65.00
1961 23.6200 4156.00 4006.02 64.00
1962 23.6300 4118.00 4003.85 64.00
1963 23.6400 4157.00 4002.90 64.00
1964 23.6500 4144.00 4003.10 64.00
1965 23.6600 4143.00 4004.43 64.00
1966 23.6700 4139.00 4006.91 64.00
1967 23.6800 4133.00 4010.58 64.00
1968 23.6900 4162.00 4015.51 65.00
1969 23.7000 4192.00 4021.85 65.00
1970 23.7100 4149.00 4029.76 64.00
1971 23.7200 4206.00 4039.56 65.00
1972 23.7300 4198.00 4051.67 65.00
1973 23.7400 4230.00 4066.74 65.00
1974 23.7500 4206.00 4085.72 65.00
1975 23.7600 4263.00 4109.98 65.00
1976 23.7700 4267.00 4141.43 65.00
1977 23.7800 4354.00 4182.54 66.00
1978 23.7900 4371.00 4236.37 66.00
1979 23.8000 4460.00 4306.38 67.00
1980 23.8100 4478.00 4396.15 67.00
1981 23.8200 4633.00 4508.84 68.00
1982 23.8300 4726.00 4646.37 69.00
1983 23.8400 4944.00 4808.47 70.00
1984 23.8500 5122.00 4990.84 72.00
1985 23.8600 5316.00 5183.15 73.00
1986 23.8700 5476.00 5367.33 74.00
1987 23.8800 5721.00 5520.75 76.00
1988 23.8900 5788.00 5625.49 76.00
1989 23.9000 5909.00 5677.21 77.00
1990 23.9100 5909.00 5682.51 77.00
1991 23.9200 5872.00 5649.12 77.00
1992 23.9300 5725.00 5581.38 76.00
1993 23.9400 5733.00 5483.71 76.00
1994 23.9500 5527.00 5365.04 74.00
1995 23.9600 5405.00 5238.27 74.00
1996 23.9700 5331.00 5116.68 73.00
1997 23.9800 5170.00 5010.77 72.00
1998 23.9900 5027.00 4927.46 71.00
1999 24.0000 4997.00 4870.49 71.00
2000 24.0100 4944.00 4841.39 70.00
2001 24.0200 4961.00 4840.01 70.00
2002 24.0300 5028.00 4864.90 71.00
2003 24.0400 5091.00 4915.16 71.00
2004 24.0500 5140.00 4982.77 72.00
2005 24.0600 5280.00 5063.59 73.00
2006 24.0700 5372.00 5149.51 73.00
2007 24.0800 5449.00 5230.58 74.00
2008 24.0900 5538.00 5296.67 74.00
2009 24.1000 5549.00 5340.49 74.00
2010 24.1100 5507.00 5360.93 74.00
2011 24.1200 5493.00 5364.26 74.00
2012 24.1300 5420.00 5361.68 74.00
2013 24.1400 5404.00 5365.77 74.00
2014 24.1500 5432.00 5387.58 74.00
2015 24.1600 5420.00 5435.17 74.00
2016 24.1700 5477.00 5513.31 74.00
2017 24.1800 5636.00 5623.02 75.00
2018 24.1900 5750.00 5760.87 76.00
2019 24.2000 5983.00 5917.42 77.00
2020 24.2100 6194.00 6076.72 79.00
2021 24.2200 6341.00 6219.92 80.00
2022 24.2300 6408.00 6334.98 80.00
2023 24.2400 6556.00 6425.87 81.00
2024 24.2500 6553.00 6510.25 81.00
2025 24.2600 6656.00 6609.11 82.00
2026 24.2700 6772.00 6738.16 82.00
2027 24.2800 6936.00 6901.07 83.00
2028 24.2900 7077.00 7089.39 84.00
2029 24.3000 7340.00 7277.35 86.00
2030 24.3100 7536.00 7423.45 87.00
2031 24.3200 7679.00 7483.69 88.00
2032 24.3300 7738.00 7436.38 88.00
2033 24.3400 7635.00 7304.65 87.00
2034 24.3500 7364.00 7142.80 86.00
2035 24.3600 7220.00 7015.05 85.00
2036 24.3700 7050.00 6976.28 84.00
2037 24.3800 7142.00 7065.61 85.00
2038 24.3900 7339.00 7304.52 86.00
2039 24.4000 7681.00 7692.70 88.00
2040 24.4100 8079.00 8194.32 90.00
2041 24.4200 8724.00 8716.30 93.00
2042 24.4300 9059.00 9099.72 95.00
2043 24.4400 9249.00 9182.24 96.00
2044 24.4500 9067.00 8925.78 95.00
2045 24.4600 8594.00 8444.77 93.00
2046 24.4700 7972.00 7890.01 89.00
2047 24.4800 7520.00 7358.21 87.00
2048 24.4900 7041.00 6887.31 84.00
2049 24.5000 6651.00 6484.58 82.00
2050 24.5100 6286.00 6146.22 79.00
2051 24.5200 5956.00 5866.62 77.00
2052 24.5300 5654.00 5640.26 75.00
2053 24.5400 5508.00 5462.55 74.00
2054 24.5500 5346.00 5329.84 73.00
2055 24.5600 5247.00 5239.67 72.00
2056 24.5700 5213.00 5190.53 72.00
2057 24.5800 5199.00 5180.91 72.00
2058 24.5900 5190.00 5208.29 72.00
2059 24.6000 5302.00 5267.69 73.00
2060 24.6100 5390.00 5349.81 73.00
2061 24.6200 5511.00 5438.95 74.00
2062 24.6300 5599.00 5512.41 75.00
2063 24.6400 5643.00 5545.74 75.00
2064 24.6500 5596.00 5525.46 75.00
2065 24.6600 5581.00 5454.69 75.00
2066 24.6700 5430.00 5349.35 74.00
2067 24.6800 5319.00 5226.79 73.00
2068 24.6900 5199.00 5100.09 72.00
2069 24.7000 5040.00 4977.73 71.00
2070 24.7100 4858.00 4865.22 70.00
2071 24.7200 4809.00 4765.82 69.00
2072 24.7300 4704.00 4681.35 69.00
2073 24.7400 4682.00 4612.56 68.00
2074 24.7500 4626.00 4559.70 68.00
2075 24.7600 4606.00 4523.10 68.00
2076 24.7700 4527.00 4503.49 67.00
2077 24.7800 4587.00 4502.25 68.00
2078 24.7900 4568.00 4521.27 68.00
2079 24.8000 4603.00 4562.72 68.00
2080 24.8100 4672.00 4628.58 68.00
2081 24.8200 4782.00 4719.82 69.00
2082 24.8300 4831.00 4835.54 70.00
2083 24.8400 5069.00 4971.29 71.00
2084 24.8500 5184.00 5116.93 72.00
2085 24.8600 5395.00 5253.89 73.00
2086 24.8700 5553.00 5355.84 75.00
2087 24.8800 5584.00 5397.36 75.00
2088 24.8900 5523.00 5369.61 74.00
2089 24.9000 5457.00 5287.36 74.00
2090 24.9100 5301.00 5178.94 73.00
2091 24.9200 5197.00 5071.50 72.00
2092 24.9300 5133.00 4984.20 72.00
2093 24.9400 5044.00 4929.07 71.00
2094 24.9500 5001.00 4913.67 71.00
2095 24.9600 5068.00 4943.13 71.00
2096 24.9700 5153.00 5020.98 72.00
2097 24.9800 5304.00 5150.28 73.00
2098 24.9900 5514.00 5331.13 74.00
2099 25.0000 5707.00 5559.86 76.00
2100 25.0100 5871.00 5825.95 77.00
2101 25.0200 6168.00 6111.76 79.00
2102 25.0300 6425.00 6403.17 80.00
2103 25.0400 6724.00 6701.31 82.00
2104 25.0500 7062.00 7014.08 84.00
2105 25.0600 7389.00 7340.51 86.00
2106 25.0700 7693.00 7663.48 88.00
2107 25.0800 8088.00 7951.06 90.00
2108 25.0900 8292.00 8163.16 91.00
2109 25.1000 8413.00 8264.82 92.00
2110 25.1100 8458.00 8238.89 92.00
2111 25.1200 8213.00 8090.42 91.00
2112 25.1300 7854.00 7840.91 89.00
2113 25.1400 7506.00 7519.16 87.00
2114 25.1500 7080.00 7155.59 84.00
2115 25.1600 6653.00 6778.39 82.00
2116 25.1700 6238.00 6409.82 79.00
2117 25.1800 5897.00 6064.67 77.00
2118 25.1900 5545.00 5749.99 74.00
2119 25.2000 5292.00 5468.02 73.00
2120 25.2100 5067.00 5218.97 71.00
2121 25.2200 4906.00 5002.92 70.00
2122 25.2300 4763.00 4819.29 69.00
2123 25.2400 4625.00 4666.29 68.00
2124 25.2500 4459.00 4540.74 67.00
2125 25.2600 4421.00 4438.87 66.00
2126 25.2700 4317.00 4356.70 66.00
2127 25.2800 4252.00 4290.59 65.00
2128 25.2900 4215.00 4237.26 65.00
2129 25.3000 4163.00 4193.99 65.00
2130 25.3100 4098.00 4158.54 64.00
2131 25.3200 4092.00 4129.15 64.00
2132 25.3300 4042.00 4104.48 64.00
2133 25.3400 4056.00 4083.50 64.00
2134 25.3500 4077.00 4065.49 64.00
2135 25.3600 4019.00 4049.89 63.00
2136 25.3700 3992.00 4036.27 63.00
2137 25.3800 4010.00 4024.40 63.00
2138 25.3900 3983.00 4014.04 63.00
2139 25.4000 3978.00 4004.88 63.00
2140 25.4100 3988.00 3996.96 63.00
2141 25.4200 3959.00 3990.32 63.00
2142 25.4300 3945.00 3984.80 63.00
2143 25.4400 3957.00 3980.37 63.00
2144 25.4500 3939.00 3977.04 63.00
2145 25.4600 3951.00 3974.89 63.00
2146 25.4700 3973.00 3974.00 63.00
2147 25.4800 3945.00 3974.53 63.00
2148 25.4900 3943.00 3976.67 63.00
2149 25.5000 3956.00 3980.68 63.00
2150 25.5100 3932.00 3986.91 63.00
2151 25.5200 3974.00 3995.80 63.00
2152 25.5300 3975.00 4007.86 63.00
2153 25.5400 3951.00 4023.72 63.00
2154 25.5500 3962.00 4044.05 63.00
2155 25.5600 4021.00 4068.66 63.00
2156 25.5700 4053.00 4099.84 64.00
2157 25.5800 4121.00 4136.96 64.00
2158 25.5900 4146.00 4179.75 64.00
2159 25.6000 4199.00 4227.17 65.00
2160 25.6100 4203.00 4277.14 65.00
2161 25.6200 4292.00 4326.26 66.00
2162 25.6300 4286.00 4369.55 65.00
2163 25.6400 4356.00 4400.48 66.00
2164 25.6500 4344.00 4412.01 66.00
2165 25.6600 4335.00 4401.47 66.00
2166 25.6700 4268.00 4370.99 65.00
2167 25.6800 4264.00 4327.97 65.00
2168 25.6900 4200.00 4280.81 65.00
2169 25.7000 4172.00 4236.07 65.00
2170 25.7100 4143.00 4197.94 64.00
2171 25.7200 4100.00 4168.78 64.00
2172 25.7300 4037.00 4149.97 64.00
2173 25.7400 4083.00 4142.15 64.00
2174 25.7500 4063.00 4146.59 64.00
2175 25.7600 4124.00 4165.18 64.00
2176 25.7700 4132.00 4199.57 64.00
2177 25.7800 4176.00 4252.53 65.00
2178 25.7900 4205.00 4327.39 65.00
2179 25.8000 4340.00 4429.42 66.00
2180 25.8100 4438.00 4559.06 67.00
2181 25.8200 4602.00 4719.48 68.00
2182 25.8300 4804.00 4909.05 69.00
2183 25.8400 5042.00 5119.98 71.00
2184 25.8500 5215.00 5333.55 72.00
2185 25.8600 5466.00 5516.32 74.00
2186 25.8700 5552.00 5624.26 75.00
2187 25.8800 5576.00 5626.01 75.00
2188 25.8900 5495.00 5529.06 74.00
2189 25.9000 5310.00 5374.43 73.00
2190 25.9100 5095.00 5207.53 71.00
2191 25.9200 4939.00 5060.49 70.00
2192 25.9300 4813.00 4950.33 69.00
2193 25.9400 4791.00 4882.69 69.00
2194 25.9500 4823.00 4853.62 69.00
2195 25.9600 4806.00 4849.26 69.00
2196 25.9700 4766.00 4846.75 69.00
2197 25.9800 4798.00 4823.90 69.00
2198 25.9900 4751.00 4774.73 69.00
2199 26.0000 4696.00 4711.33 69.00
2200 26.0100 4636.00 4649.34 68.00
2201 26.0200 4591.00 4597.39 68.00
2202 26.0300 4517.00 4555.40 67.00
2203 26.0400 4488.00 4517.50 67.00
2204 26.0500 4422.00 4476.05 66.00
2205 26.0600 4402.00 4426.71 66.00
2206 26.0700 4375.00 4371.17 66.00
2207 26.0800 4258.00 4314.62 65.00
2208 26.0900 4141.00 4262.67 64.00
2209 26.1000 4117.00 4218.52 64.00
2210 26.1100 4098.00 4183.69 64.00
2211 26.1200 4075.00 4158.53 64.00
2212 26.1300 4083.00 4142.74 64.00
2213 26.1400 4049.00 4135.68 64.00
2214 26.1500 4030.00 4136.57 63.00
2215 26.1600 4064.00 4144.60 64.00
2216 26.1700 4046.00 4159.03 64.00
2217 26.1800 4092.00 4179.17 64.00
2218 26.1900 4130.00 4204.42 64.00
2219 26.2000 4161.00 4234.16 65.00
2220 26.2100 4175.00 4267.71 65.00
2221 26.2200 4244.00 4304.24 65.00
2222 26.2300 4247.00 4342.73 65.00
2223 26.2400 4321.00 4381.83 66.00
2224 26.2500 4397.00 4419.86 66.00
2225 26.2600 4439.00 4454.70 67.00
2226 26.2700 4438.00 4483.77 67.00
2227 26.2800 4489.00 4504.20 67.00
2228 26.2900 4459.00 4513.25 67.00
2229 26.3000 4473.00 4509.04 67.00
2230 26.3100 4458.00 4492.25 67.00
2231 26.3200 4372.00 4462.24 66.00
2232 26.3300 4274.00 4422.88 65.00
2233 26.3400 4243.00 4377.63 65.00
2234 26.3500 4208.00 4329.81 65.00
2235 26.3600 4161.00 4282.16 65.00
2236 26.3700 4138.00 4237.02 64.00
2237 26.3800 4056.00 4195.97 64.00
2238 26.3900 4010.00 4160.17 63.00
2239 26.4000 4026.00 4130.54 63.00
2240 26.4100 3999.00 4107.73 63.00
2241 26.4200 3987.00 4092.16 63.00
2242 26.4300 4005.00 4084.03 63.00
2243 26.4400 3965.00 4083.25 63.00
2244 26.4500 3964.00 4089.41 63.00
2245 26.4600 4039.00 4101.66 64.00
2246 26.4700 4046.00 4118.54 64.00
2247 26.4800 4102.00 4137.58 64.00
2248 26.4900 4127.00 4154.97 64.00
2249 26.5000 4125.00 4165.82 64.00
2250 26.5100 4092.00 4165.65 64.00
2251 26.5200 4118.00 4152.71 64.00
2252 26.5300 4048.00 4129.02 64.00
2253 26.5400 4018.00 4098.99 63.00
2254 26.5500 3988.00 4067.07 63.00
2255 26.5600 3963.00 4036.45 63.00
2256 26.5700 3909.00 4008.96 63.00
2257 26.5800 3959.00 3985.37 63.00
2258 26.5900 3907.00 3965.82 63.00
2259 26.6000 3894.00 3950.05 62.00
2260 26.6100 3908.00 3937.61 63.00
2261 26.6200 3879.00 3927.93 62.00
2262 26.6300 3822.00 3920.47 62.00
2263 26.6400 3875.00 3914.71 62.00
2264 26.6500 3828.00 3910.29 62.00
2265 26.6600 3843.00 3906.92 62.00
2266 26.6700 3850.00 3904.44 62.00
2267 26.6800 3849.00 3902.76 62.00
2268 26.6900 3788.00 3901.90 62.00
2269 26.7000 3814.00 3901.93 62.00
2270 26.7100 3825.00 3902.98 62.00
2271 26.7200 3837.00 3905.24 62.00
2272 26.7300 3866.00 3908.92 62.00
2273 26.7400 3892.00 3914.26 62.00
2274 26.7500 3841.00 3921.44 62.00
2275 26.7600 3901.00 3930.52 62.00
2276 26.7700 3890.00 3941.34 62.00
2277 26.7800 3896.00 3953.23 62.00
2278 26.7900 3918.00 3964.49 63.00
2279 26.8000 3897.00 3974.55 62.00
2280 26.8100 3912.00 3982.55 63.00
2281 26.8200 3944.00 3989.90 63.00
2282 26.8300 3961.00 3999.14 63.00
2283 26.8400 3977.00 4012.86 63.00
2284 26.8500 3978.00 4033.40 63.00
2285 26.8600 4003.00 4063.14 63.00
2286 26.8700 4006.00 4104.69 63.00
2287 26.8800 4092.00 4160.93 64.00
2288 26.8900 4163.00 4234.79 65.00
2289 26.9000 4242.00 4328.87 65.00
2290 26.9100 4398.00 4444.78 66.00
2291 26.9200 4533.00 4582.23 67.00
2292 26.9300 4727.00 4737.39 69.00
2293 26.9400 4925.00 4900.63 70.00
2294 26.9500 5106.00 5053.56 71.00
2295 26.9600 5238.00 5169.31 72.00
2296 26.9700 5284.00 5220.76 73.00
2297 26.9800 5303.00 5196.02 73.00
2298 26.9900 5120.00 5107.32 72.00
2299 27.0000 4979.00 4982.29 71.00
2300 27.0100 4796.00 4848.25 69.00
2301 27.0200 4679.00 4723.85 68.00
2302 27.0300 4552.00 4618.82 67.00
2303 27.0400 4466.00 4536.72 67.00
2304 27.0500 4369.00 4477.01 66.00
2305 27.0600 4358.00 4437.25 66.00
2306 27.0700 4347.00 4413.16 66.00
2307 27.0800 4320.00 4399.51 66.00
2308 27.0900 4362.00 4394.12 66.00
2309 27.1000 4341.00 4393.91 66.00
2310 27.1100 4293.00 4398.36 66.00
2311 27.1200 4363.00 4408.31 66.00
2312 27.1300 4360.00 4425.40 66.00
2313 27.1400 4379.00 4451.62 66.00
2314 27.1500 4412.00 4489.13 66.00
2315 27.1600 4452.00 4540.09 67.00
2316 27.1700 4505.00 4606.83 67.00
2317 27.1800 4617.00 4691.25 68.00
2318 27.1900 4705.00 4794.62 69.00
2319 27.2000 4850.00 4917.37 70.00
2320 27.2100 4987.00 5058.15 71.00
2321 27.2200 5088.00 5213.37 71.00
2322 27.2300 5258.00 5375.01 73.00
2323 27.2400 5469.00 5528.37 74.00
2324 27.2500 5570.00 5650.47 75.00
2325 27.2600 5649.00 5714.48 75.00
2326 27.2700 5644.00 5701.83 75.00
2327 27.2800 5529.00 5614.70 74.00
2328 27.2900 5377.00 5475.33 73.00
2329 27.3000 5256.00 5313.05 72.00
2330 27.3100 5029.00 5152.31 71.00
2331 27.3200 4849.00 5008.76 70.00
2332 27.3300 4788.00 4890.70 69.00
2333 27.3400 4730.00 4801.40 69.00
2334 27.3500 4614.00 4741.09 68.00
2335 27.3600 4626.00 4708.53 68.00
2336 27.3700 4600.00 4701.19 68.00
2337 27.3800 4609.00 4716.20 68.00
2338 27.3900 4677.00 4750.72 68.00
2339 27.4000 4666.00 4802.12 68.00
2340 27.4100 4708.00 4868.13 69.00
2341 27.4200 4816.00 4946.77 69.00
2342 27.4300 4855.00 5036.40 70.00
2343 27.4400 4991.00 5135.52 71.00
2344 27.4500 5149.00 5242.70 72.00
2345 27.4600 5219.00 5356.40 72.00
2346 27.4700 5349.00 5474.96 73.00
2347 27.4800 5562.00 5596.32 75.00
2348 27.4900 5665.00 5718.17 75.00
2349 27.5000 5822.00 5837.84 76.00
2350 27.5100 5974.00 5952.65 77.00
2351 27.5200 6055.00 6059.83 78.00
2352 27.5300 6098.00 6156.65 78.00
2353 27.5400 6146.00 6239.77 78.00
2354 27.5500 6165.00 6304.43 79.00
2355 27.5600 6187.00 6344.21 79.00
2356 27.5700 6194.00 6352.84 79.00
2357 27.5800 6074.00 6328.77 78.00
2358 27.5900 5942.00 6278.83 77.00
2359 27.6000 5896.00 6216.78 77.00
2360 27.6100 5806.00 6157.67 76.00
2361 27.6200 5747.00 6112.35 76.00
2362 27.6300 5796.00 6084.67 76.00
2363 27.6400 5796.00 6070.34 76.00
2364 27.6500 5809.00 6057.19 76.00
2365 27.6600 5810.00 6028.45 76.00
2366 27.6700 5781.00 5970.35 76.00
2367 27.6800 5721.00 5879.23 76.00
2368 27.6900 5683.00 5763.52 75.00
2369 27.7000 5541.00 5635.27 74.00
2370 27.7100 5368.00 5500.62 73.00
2371 27.7200 5315.00 5365.54 73.00
2372 27.7300 5138.00 5232.27 72.00
2373 27.7400 4987.00 5102.37 71.00
2374 27.7500 4849.00 4977.38 70.00
2375 27.7600 4714.00 4858.97 69.00
2376 27.7700 4630.00 4748.50 68.00
2377 27.7800 4575.00 4646.45 68.00
2378 27.7900 4435.00 4554.32 67.00
2379 27.8000 4358.00 4471.77 66.00
2380 27.8100 4297.00 4398.36 66.00
2381 27.8200 4217.00 4334.66 65.00
2382 27.8300 4150.00 4280.14 64.00
2383 27.8400 4168.00 4234.68 65.00
2384 27.8500 4100.00 4198.18 64.00
2385 27.8600 4088.00 4170.55 64.00
2386 27.8700 4084.00 4151.71 64.00
2387 27.8800 4053.00 4141.59 64.00
2388 27.8900 4031.00 4140.03 63.00
2389 27.9000 4078.00 4146.79 64.00
2390 27.9100 4070.00 4161.47 64.00
2391 27.9200 4106.00 4183.40 64.00
2392 27.9300 4157.00 4211.49 64.00
2393 27.9400 4189.00 4244.05 65.00
2394 27.9500 4164.00 4278.51 65.00
2395 27.9600 4230.00 4311.28 65.00
2396 27.9700 4231.00 4337.94 65.00
2397 27.9800 4272.00 4354.05 65.00
2398 27.9900 4302.00 4356.66 66.00
2399 28.0000 4286.00 4345.41 65.00
2400 28.0100 4220.00 4322.67 65.00
2401 28.0200 4220.00 4292.21 65.00
2402 28.0300 4165.00 4257.80 65.00
2403 28.0400 4169.00 4222.22 65.00
2404 28.0500 4121.00 4187.14 64.00
2405 28.0600 4096.00 4153.08 64.00
2406 28.0700 4041.00 4120.86 64.00
2407 28.0800 4012.00 4090.51 63.00
2408 28.0900 3983.00 4062.41 63.00
2409 28.1000 3955.00 4036.98 63.00
2410 28.1100 3963.00 4014.62 63.00
2411 28.1200 3906.00 3995.56 62.00
2412 28.1300 3899.00 3979.96 62.00
2413 28.1400 3911.00 3967.90 63.00
2414 28.1500 3872.00 3959.43 62.00
2415 28.1600 3879.00 3954.82 62.00
2416 28.1700 3901.00 3955.70 62.00
2417 28.1800 3876.00 3959.97 62.00
2418 28.1900 3868.00 3969.72 62.00
2419 28.2000 3899.00 3985.93 62.00
2420 28.2100 3936.00 4009.68 63.00
2421 28.2200 3956.00 4041.89 63.00
2422 28.2300 4009.00 4083.77 63.00
2423 28.2400 4058.00 4135.50 64.00
2424 28.2500 4073.00 4196.43 64.00
2425 28.2600 4175.00 4263.99 65.00
2426 28.2700 4216.00 4333.35 65.00
2427 28.2800 4311.00 4397.34 66.00
2428 28.2900 4370.00 4449.64 66.00
2429 28.3000 4419.00 4488.55 66.00
2430 28.3100 4403.00 4517.61 66.00
2431 28.3200 4475.00 4541.76 67.00
2432 28.3300 4469.00 4562.31 67.00
2433 28.3400 4514.00 4575.24 67.00
2434 28.3500 4535.00 4572.63 67.00
2435 28.3600 4512.00 4548.29 67.00
2436 28.3700 4428.00 4502.83 67.00
2437 28.3800 4406.00 4442.66 66.00
2438 28.3900 4269.00 4375.55 65.00
2439 28.4000 4212.00 4307.87 65.00
2440 28.4100 4154.00 4244.03 64.00
2441 28.4200 4071.00 4186.68 64.00
2442 28.4300 4013.00 4137.24 63.00
2443 28.4400 4020.00 4096.34 63.00
2444 28.4500 3963.00 4064.23 63.00
2445 28.4600 3965.00 4040.96 63.00
2446 28.4700 3966.00 4026.70 63.00
2447 28.4800 3959.00 4021.69 63.00
2448 28.4900 3920.00 4026.38 63.00
2449 28.5000 3976.00 4041.43 63.00
2450 28.5100 3990.00 4067.68 63.00
2451 28.5200 4028.00 4106.02 63.00
2452 28.5300 4115.00 4157.26 64.00
2453 28.5400 4167.00 4221.82 65.00
2454 28.5500 4212.00 4299.36 65.00
2455 28.5600 4334.00 4388.26 66.00
2456 28.5700 4431.00 4484.69 67.00
2457 28.5800 4574.00 4581.52 68.00
2458 28.5900 4684.00 4667.88 68.00
2459 28.6000 4759.00 4730.47 69.00
2460 28.6100 4741.00 4759.15 69.00
2461 28.6200 4745.00 4749.82 69.00
2462 28.6300 4637.00 4710.48 68.00
2463 28.6400 4570.00 4653.18 68.00
2464 28.6500 4502.00 4589.37 67.00
2465 28.6600 4418.00 4526.86 66.00
2466 28.6700 4344.00 4469.97 66.00
2467 28.6800 4337.00 4421.25 66.00
2468 28.6900 4273.00 4381.43 65.00
2469 28.7000 4315.00 4349.62 66.00
2470 28.7100 4329.00 4323.29 66.00
2471 28.7200 4264.00 4299.47 65.00
2472 28.7300 4230.00 4276.63 65.00
2473 28.7400 4214.00 4255.65 65.00
2474 28.7500 4195.00 4239.26 65.00
2475 28.7600 4185.00 4230.68 65.00
2476 28.7700 4177.00 4232.60 65.00
2477 28.7800 4221.00 4246.99 65.00
2478 28.7900 4180.00 4275.14 65.00
2479 28.8000 4253.00 4317.70 65.00
2480 28.8100 4289.00 4374.94 65.00
2481 28.8200 4372.00 4446.58 66.00
2482 28.8300 4423.00 4532.21 67.00
2483 28.8400 4542.00 4631.39 67.00
2484 28.8500 4599.00 4743.37 68.00
2485 28.8600 4745.00 4866.55 69.00
2486 28.8700 4842.00 4997.48 70.00
2487 28.8800 5011.00 5130.46 71.00
2488 28.8900 5155.00 5257.03 72.00
2489 28.9000 5266.00 5366.38 73.00
2490 28.9100 5359.00 5446.80 73.00
2491 28.9200 5466.00 5488.12 74.00
2492 28.9300 5415.00 5485.12 74.00
2493 28.9400 5391.00 5438.58 73.00
2494 28.9500 5304.00 5355.32 73.00
2495 28.9600 5124.00 5245.76 72.00
2496 28.9700 4977.00 5121.02 71.00
2497 28.9800 4841.00 4990.65 70.00
2498 28.9900 4738.00 4862.24 69.00
2499 29.0000 4609.00 4740.61 68.00
2500 29.0100 4567.00 4628.69 68.00
2501 29.0200 4421.00 4527.84 66.00
2502 29.0300 4317.00 4438.47 66.00
2503 29.0400 4296.00 4360.13 66.00
2504 29.0500 4250.00 4292.04 65.00
2505 29.0600 4195.00 4233.20 65.00
2506 29.0700 4165.00 4182.05 65.00
2507 29.0800 4106.00 4138.69 64.00
2508 29.0900 4074.00 4101.73 64.00
2509 29.1000 4057.00 4070.52 64.00
2510 29.1100 4018.00 4044.46 63.00
2511 29.1200 4023.00 4023.13 63.00
2512 29.1300 4034.00 4006.15 64.00
2513 29.1400 3958.00 3993.01 63.00
2514 29.1500 3967.00 3984.03 63.00
2515 29.1600 3995.00 3978.85 63.00
2516 29.1700 3973.00 3977.13 63.00
2517 29.1800 3995.00 3977.86 63.00
2518 29.1900 3988.00 3978.87 63.00
2519 29.2000 3973.00 3976.93 63.00
2520 29.2100 3958.00 3969.34 63.00
2521 29.2200 3980.00 3956.07 63.00
2522 29.2300 3957.00 3939.75 63.00
2523 29.2400 3947.00 3923.56 63.00
2524 29.2500 3960.00 3909.89 63.00
2525 29.2600 3952.00 3899.86 63.00
2526 29.2700 3917.00 3893.76 63.00
2527 29.2800 3953.00 3892.23 63.00
2528 29.2900 3921.00 3895.18 63.00
2529 29.3000 3935.00 3902.81 63.00
2530 29.3100 3947.00 3915.45 63.00
2531 29.3200 3936.00 3933.57 63.00
2532 29.3300 3960.00 3957.76 63.00
2533 29.3400 4034.00 3988.69 64.00
2534 29.3500 4060.00 4027.02 64.00
2535 29.3600 4098.00 4073.23 64.00
2536 29.3700 4143.00 4127.42 64.00
2537 29.3800 4184.00 4189.03 65.00
2538 29.3900 4237.00 4256.54 65.00
2539 29.4000 4336.00 4327.01 66.00
2540 29.4100 4388.00 4396.76 66.00
2541 29.4200 4483.00 4462.63 67.00
2542 29.4300 4534.00 4523.77 67.00
2543 29.4400 4599.00 4581.87 68.00
2544 29.4500 4626.00 4639.72 68.00
2545 29.4600 4680.00 4699.30 68.00
2546 29.4700 4774.00 4760.79 69.00
2547 29.4800 4808.00 4822.50 69.00
2548 29.4900 4902.00 4881.40 70.00
2549 29.5000 4941.00 4933.64 70.00
2550 29.5100 4976.00 4975.90 71.00
2551 29.5200 5049.00 5005.69 71.00
2552 29.5300 5043.00 5022.14 71.00
2553 29.5400 5067.00 5025.55 71.00
2554 29.5500 5014.00 5016.74 71.00
2555 29.5600 4970.00 4994.66 70.00
2556 29.5700 4897.00 4958.76 70.00
2557 29.5800 4866.00 4909.52 70.00
2558 29.5900 4787.00 4850.48 69.00
2559 29.6000 4725.00 4787.72 69.00
2560 29.6100 4688.00 4727.60 68.00
2561 29.6200 4611.00 4674.50 68.00
2562 29.6300 4565.00 4630.24 68.00
2563 29.6400 4546.00 4594.40 67.00
2564 29.6500 4531.00 4565.28 67.00
2565 29.6600 4507.00 4540.99 67.00
2566 29.6700 4507.00 4520.65 67.00
2567 29.6800 4494.00 4504.74 67.00
2568 29.6900 4428.00 4494.71 67.00
2569 29.7000 4499.00 4492.16 67.00
2570 29.7100 4445.00 4498.11 67.00
2571 29.7200 4494.00 4512.67 67.00
2572 29.7300 4506.00 4534.95 67.00
2573 29.7400 4570.00 4563.11 68.00
2574 29.7500 4584.00 4594.37 68.00
2575 29.7600 4653.00 4625.01 68.00
2576 29.7700 4649.00 4650.32 68.00
2577 29.7800 4715.00 4664.99 69.00
2578 29.7900 4700.00 4664.02 69.00
2579 29.8000 4665.00 4644.27 68.00
2580 29.8100 4574.00 4605.75 68.00
2581 29.8200 4569.00 4551.73 68.00
2582 29.8300 4469.00 4487.36 67.00
2583 29.8400 4366.00 4418.06 66.00
2584 29.8500 4316.00 4348.21 66.00
2585 29.8600 4245.00 4280.86 65.00
2586 29.8700 4145.00 4217.86 64.00
2587 29.8800 4187.00 4160.31 65.00
2588 29.8900 4101.00 4108.59 64.00
2589 29.9000 4055.00 4062.84 64.00
2590 29.9100 4034.00 4022.89 64.00
2591 29.9200 3998.00 3988.46 63.00
2592 29.9300 3977.00 3959.14 63.00
2593 29.9400 3953.00 3934.50 63.00
2594 29.9500 3934.00 3914.06 63.00
2595 29.9600 3910.00 3897.38 63.00
2596 29.9700 3913.00 3884.04 63.00
2597 29.9800 3894.00 3873.78 62.00
2598 29.9900 3845.00 3866.32 62.00
2599 30.0000 3874.00 3861.47 62.00
2600 30.0100 3848.00 3859.14 62.00
2601 30.0200 3838.00 3859.38 62.00
2602 30.0300 3878.00 3862.34 62.00
2603 30.0400 3882.00 3868.41 62.00
2604 30.0500 3881.00 3878.26 62.00
2605 30.0600 3925.00 3892.88 63.00
2606 30.0700 3885.00 3913.52 62.00
2607 30.0800 3954.00 3941.58 63.00
2608 30.0900 4013.00 3978.25 63.00
2609 30.1000 4053.00 4023.70 64.00
2610 30.1100 4080.00 4075.37 64.00
2611 30.1200 4144.00 4125.33 64.00
2612 30.1300 4144.00 4159.42 64.00
2613 30.1400 4157.00 4165.68 64.00
2614 30.1500 4203.00 4146.84 65.00
2615 30.1600 4129.00 4117.40 64.00
2616 30.1700 4106.00 4090.32 64.00
2617 30.1800 4090.00 4071.98 64.00
2618 30.1900 4076.00 4064.00 64.00
2619 30.2000 4087.00 4065.94 64.00
2620 30.2100 4092.00 4076.56 64.00
2621 30.2200 4112.00 4094.20 64.00
2622 30.2300 4104.00 4118.25 64.00
2623 30.2400 4164.00 4147.89 65.00
2624 30.2500 4197.00 4183.40 65.00
2625 30.2600 4234.00 4226.02 65.00
2626 30.2700 4287.00 4277.57 65.00
2627 30.2800 4309.00 4339.85 66.00
2628 30.2900 4315.00 4414.00 66.00
2629 30.3000 4414.00 4499.75 66.00
2630 30.3100 4529.00 4594.73 67.00
2631 30.3200 4630.00 4693.46 68.00
2632 30.3300 4778.00 4786.48 69.00
2633 30.3400 4872.00 4860.44 70.00
2634 30.3500 4920.00 4900.64 70.00
2635 30.3600 4945.00 4896.70 70.00
2636 30.3700 4868.00 4847.72 70.00
2637 30.3800 4731.00 4762.85 69.00
2638 30.3900 4644.00 4656.56 68.00
2639 30.4000 4483.00 4542.82 67.00
2640 30.4100 4356.00 4432.19 66.00
2641 30.4200 4301.00 4331.17 66.00
2642 30.4300 4203.00 4243.25 65.00
2643 30.4400 4153.00 4169.88 64.00
2644 30.4500 4119.00 4111.36 64.00
2645 30.4600 4089.00 4067.14 64.00
2646 30.4700 4016.00 4036.33 63.00
2647 30.4800 4036.00 4017.92 64.00
2648 30.4900 4018.00 4010.94 63.00
2649 30.5000 3999.00 4014.59 63.00
2650 30.5100 4053.00 4028.19 64.00
2651 30.5200 4061.00 4051.17 64.00
2652 30.5300 4058.00 4082.87 64.00
2653 30.5400 4116.00 4122.30 64.00
2654 30.5500 4159.00 4167.63 64.00
2655 30.5600 4234.00 4216.63 65.00
2656 30.5700 4267.00 4262.02 65.00
2657 30.5800 4323.00 4298.54 66.00
2658 30.5900 4322.00 4321.56 66.00
2659 30.6000 4345.00 4331.07 66.00
2660 30.6100 4313.00 4331.62 66.00
2661 30.6200 4343.00 4329.54 66.00
2662 30.6300 4396.00 4330.21 66.00
2663 30.6400 4353.00 4337.23 66.00
2664 30.6500 4344.00 4352.69 66.00
2665 30.6600 4409.00 4377.50 66.00
2666 30.6700 4416.00 4411.30 66.00
2667 30.6800 4448.00 4453.41 67.00
2668 30.6900 4510.00 4501.17 67.00
2669 30.7000 4575.00 4551.02 68.00
2670 30.7100 4562.00 4598.63 68.00
2671 30.7200 4660.00 4639.87 68.00
2672 30.7300 4711.00 4671.79 69.00
2673 30.7400 4718.00 4693.22 69.00
2674 30.7500 4731.00 4704.47 69.00
2675 30.7600 4778.00 4706.78 69.00
2676 30.7700 4724.00 4701.85 69.00
2677 30.7800 4722.00 4691.75 69.00
2678 30.7900 4699.00 4678.59 69.00
2679 30.8000 4689.00 4663.85 68.00
2680 30.8100 4700.00 4648.03 69.00
2681 30.8200 4682.00 4630.87 68.00
2682 30.8300 4639.00 4612.10 68.00
2683 30.8400 4664.00 4592.12 68.00
2684 30.8500 4624.00 4572.20 68.00
2685 30.8600 4596.00 4555.08 68.00
2686 30.8700 4595.00 4545.94 68.00
2687 30.8800 4558.00 4551.47 68.00
2688 30.8900 4548.00 4577.25 67.00
2689 30.9000 4619.00 4625.60 68.00
2690 30.9100 4662.00 4694.19 68.00
2691 30.9200 4742.00 4774.02 69.00
2692 30.9300 4843.00 4847.93 70.00
2693 30.9400 4838.00 4894.67 70.00
2694 30.9500 4850.00 4898.23 70.00
2695 30.9600 4898.00 4863.18 70.00
2696 30.9700 4827.00 4807.22 69.00
2697 30.9800 4810.00 4748.37 69.00
2698 30.9900 4799.00 4697.22 69.00
2699 31.0000 4752.00 4657.31 69.00
2700 31.0100 4703.00 4627.88 69.00
2701 31.0200 4694.00 4606.05 69.00
2702 31.0300 4638.00 4588.24 68.00
2703 31.0400 4689.00 4570.92 68.00
2704 31.0500 4644.00 4551.58 68.00
2705 31.0600 4596.00 4528.55 68.00
2706 31.0700 4484.00 4501.20 67.00
2707 31.0800 4508.00 4470.33 67.00
2708 31.0900 4400.00 4436.85 66.00
2709 31.1000 4362.00 4402.06 66.00
2710 31.1100 4341.00 4367.24 66.00
2711 31.1200 4314.00 4333.45 66.00
2712 31.1300 4240.00 4301.53 65.00
2713 31.1400 4272.00 4272.00 65.00
2714 31.1500 4219.00 4245.29 65.00
2715 31.1600 4227.00 4221.61 65.00
2716 31.1700 4224.00 4201.05 65.00
2717 31.1800 4195.00 4183.46 65.00
2718 31.1900 4176.00 4169.05 65.00
2719 31.2000 4203.00 4157.77 65.00
2720 31.2100 4170.00 4149.88 65.00
2721 31.2200 4194.00 4145.94 65.00
2722 31.2300 4198.00 4146.61 65.00
2723 31.2400 4182.00 4152.45 65.00
2724 31.2500 4182.00 4163.63 65.00
2725 31.2600 4194.00 4179.65 65.00
2726 31.2700 4269.00 4199.08 65.00
2727 31.2800 4302.00 4219.43 66.00
2728 31.2900 4327.00 4237.66 66.00
2729 31.3000 4336.00 4251.08 66.00
2730 31.3100 4319.00 4258.87 66.00
2731 31.3200 4364.00 4262.65 66.00
2732 31.3300 4321.00 4265.84 66.00
2733 31.3400 4356.00 4272.15 66.00
2734 31.3500 4386.00 4284.36 66.00
2735 31.3600 4388.00 4303.83 66.00
2736 31.3700 4380.00 4330.64 66.00
2737 31.3800 4465.00 4364.04 67.00
2738 31.3900 4450.00 4403.02 67.00
2739 31.4000 4489.00 4446.60 67.00
2740 31.4100 4584.00 4493.48 68.00
2741 31.4200 4627.00 4541.20 68.00
2742 31.4300 4621.00 4585.69 68.00
2743 31.4400 4699.00 4621.41 69.00
2744 31.4500 4686.00 4642.55 68.00
2745 31.4600 4704.00 4645.23 69.00
2746 31.4700 4699.00 4629.29 69.00
2747 31.4800 4639.00 4598.68 68.00
2748 31.4900 4571.00 4560.10 68.00
2749 31.5000 4566.00 4520.83 68.00
2750 31.5100 4480.00 4487.16 67.00
2751 31.5200 4461.00 4463.71 67.00
2752 31.5300 4443.00 4453.16 67.00
2753 31.5400 4481.00 4456.60 67.00
2754 31.5500 4423.00 4472.94 67.00
2755 31.5600 4518.00 4499.07 67.00
2756 31.5700 4505.00 4530.00 67.00
2757 31.5800 4574.00 4560.33 68.00
2758 31.5900 4588.00 4586.47 68.00
2759 31.6000 4596.00 4607.99 68.00
2760 31.6100 4571.00 4626.33 68.00
2761 31.6200 4636.00 4641.67 68.00
2762 31.6300 4614.00 4650.42 68.00
2763 31.6400 4668.00 4645.37 68.00
2764 31.6500 4685.00 4619.29 68.00
2765 31.6600 4612.00 4570.28 68.00
2766 31.6700 4517.00 4503.49 67.00
2767 31.6800 4459.00 4427.82 67.00
2768 31.6900 4379.00 4351.64 66.00
2769 31.7000 4310.00 4281.04 66.00
2770 31.7100 4264.00 4219.65 65.00
2771 31.7200 4198.00 4169.32 65.00
2772 31.7300 4171.00 4130.68 65.00
2773 31.7400 4147.00 4103.48 64.00
2774 31.7500 4129.00 4086.86 64.00
2775 31.7600 4147.00 4079.35 64.00
2776 31.7700 4185.00 4078.85 65.00
2777 31.7800 4145.00 4082.45 64.00
2778 31.7900 4121.00 4086.49 64.00
2779 31.8000 4166.00 4087.11 65.00
2780 31.8100 4166.00 4081.12 65.00
2781 31.8200 4155.00 4067.32 64.00
2782 31.8300 4120.00 4046.83 64.00
2783 31.8400 4069.00 4022.36 64.00
2784 31.8500 4030.00 3997.00 63.00
2785 31.8600 4044.00 3973.20 64.00
2786 31.8700 3987.00 3952.59 63.00
2787 31.8800 4003.00 3935.85 63.00
2788 31.8900 4005.00 3922.98 63.00
2789 31.9000 3993.00 3913.40 63.00
2790 31.9100 3945.00 3906.01 63.00
2791 31.9200 4003.00 3899.38 63.00
2792 31.9300 3979.00 3892.02 63.00
2793 31.9400 3985.00 3882.71 63.00
2794 31.9500 4015.00 3870.92 63.00
2795 31.9600 3965.00 3856.82 63.00
2796 31.9700 3914.00 3841.16 63.00
2797 31.9800 3946.00 3824.90 63.00
2798 31.9900 3909.00 3808.92 63.00
2799 32.0000 3880.00 3793.92 62.00
2800 32.0100 3875.00 3780.35 62.00
2801 32.0200 3869.00 3768.50 62.00
2802 32.0300 3841.00 3758.54 62.00
2803 32.0400 3874.00 3750.55 62.00
2804 32.0500 3823.00 3744.54 62.00
2805 32.0600 3836.00 3740.52 62.00
2806 32.0700 3888.00 3738.44 62.00
2807 32.0800 3832.00 3738.29 62.00
2808 32.0900 3829.00 3740.05 62.00
2809 32.1000 3821.00 3743.69 62.00
2810 32.1100 3814.00 3749.23 62.00
2811 32.1200 3828.00 3756.73 62.00
2812 32.1300 3868.00 3766.23 62.00
2813 32.1400 3864.00 3777.78 62.00
2814 32.1500 3855.00 3791.48 62.00
2815 32.1600 3890.00 3807.42 62.00
2816 32.1700 3924.00 3825.67 63.00
2817 32.1800 3917.00 3846.25 63.00
2818 32.1900 3995.00 3869.35 63.00
2819 32.2000 3983.00 3894.90 63.00
2820 32.2100 3994.00 3922.81 63.00
2821 32.2200 4056.00 3952.96 64.00
2822 32.2300 4077.00 3985.04 64.00
2823 32.2400 4109.00 4018.52 64.00
2824 32.2500 4149.00 4053.25 64.00
2825 32.2600 4192.00 4088.69 65.00
2826 32.2700 4209.00 4124.48 65.00
2827 32.2800 4280.00 4160.35 65.00
2828 32.2900 4282.00 4196.06 65.00
2829 32.3000 4272.00 4231.27 65.00
2830 32.3100 4341.00 4265.27 66.00
2831 32.3200 4368.00 4296.80 66.00
2832 32.3300 4398.00 4323.89 66.00
2833 32.3400 4425.00 4343.80 67.00
2834 32.3500 4404.00 4353.32 66.00
2835 32.3600 4404.00 4349.49 66.00
2836 32.3700 4408.00 4330.61 66.00
2837 32.3800 4391.00 4297.23 66.00
2838 32.3900 4283.00 4251.98 65.00
2839 32.4000 4289.00 4198.80 65.00
2840 32.4100 4189.00 4141.89 65.00
2841 32.4200 4129.00 4084.72 64.00
2842 32.4300 4118.00 4029.88 64.00
2843 32.4400 4046.00 3979.07 64.00
2844 32.4500 4008.00 3933.19 63.00
2845 32.4600 3983.00 3892.70 63.00
2846 32.4700 3877.00 3857.62 62.00
2847 32.4800 3872.00 3827.81 62.00
2848 32.4900 3880.00 3802.87 62.00
2849 32.5000 3880.00 3782.36 62.00
2850 32.5100 3863.00 3765.79 62.00
2851 32.5200 3842.00 3752.66 62.00
2852 32.5300 3822.00 3742.54 62.00
2853 32.5400 3843.00 3735.01 62.00
2854 32.5500 3839.00 3729.75 62.00
2855 32.5600 3805.00 3726.50 62.00
2856 32.5700 3771.00 3725.05 61.00
2857 32.5800 3814.00 3725.85 62.00
2858 32.5900 3772.00 3727.53 61.00
2859 32.6000 3785.00 3730.76 62.00
2860 32.6100 3818.00 3735.35 62.00
2861 32.6200 3785.00 3741.19 62.00
2862 32.6300 3800.00 3748.10 62.00
2863 32.6400 3826.00 3755.82 62.00
2864 32.6500 3810.00 3763.98 62.00
2865 32.6600 3834.00 3772.02 62.00
2866 32.6700 3876.00 3779.28 62.00
2867 32.6800 3851.00 3785.07 62.00
2868 32.6900 3843.00 3788.77 62.00
2869 32.7000 3844.00 3790.14 62.00
2870 32.7100 3821.00 3789.34 62.00
2871 32.7200 3862.00 3786.90 62.00
2872 32.7300 3891.00 3783.53 62.00
2873 32.7400 3867.00 3779.90 62.00
2874 32.7500 3837.00 3776.63 62.00
2875 32.7600 3858.00 3774.10 62.00
2876 32.7700 3796.00 3772.57 62.00
2877 32.7800 3820.00 3772.21 62.00
2878 32.7900 3844.00 3773.07 62.00
2879 32.8000 3823.00 3775.18 62.00
2880 32.8100 3797.00 3778.52 62.00
2881 32.8200 3839.00 3783.04 62.00
2882 32.8300 3848.00 3788.69 62.00
2883 32.8400 3848.00 3795.39 62.00
2884 32.8500 3879.00 3803.06 62.00
2885 32.8600 3857.00 3811.62 62.00
2886 32.8700 3848.00 3820.93 62.00
2887 32.8800 3899.00 3830.85 62.00
2888 32.8900 3898.00 3841.10 62.00
2889 32.9000 3928.00 3851.29 63.00
2890 32.9100 3965.00 3860.78 63.00
2891 32.9200 3924.00 3868.65 63.00
2892 32.9300 3918.00 3873.87 63.00
2893 32.9400 3940.00 3875.70 63.00
2894 32.9500 3929.00 3874.15 63.00
2895 32.9600 3933.00 3870.74 63.00
2896 32.9700 3904.00 3864.98 62.00
2897 32.9800 3887.00 3858.51 62.00
2898 32.9900 3886.00 3851.95 62.00
2899 33.0000 3929.00 3845.67 63.00
2900 33.0100 3895.00 3839.90 62.00
2901 33.0200 3884.00 3834.79 62.00
2902 33.0300 3854.00 3830.41 62.00
2903 33.0400 3867.00 3826.73 62.00
2904 33.0500 3841.00 3824.04 62.00
2905 33.0600 3862.00 3822.30 62.00
2906 33.0700 3866.00 3821.58 62.00
2907 33.0800 3895.00 3822.00 62.00
2908 33.0900 3932.00 3823.73 63.00
2909 33.1000 3909.00 3826.99 63.00
2910 33.1100 3910.00 3832.07 63.00
2911 33.1200 3944.00 3839.25 63.00
2912 33.1300 3901.00 3849.09 62.00
2913 33.1400 3927.00 3862.01 63.00
2914 33.1500 3951.00 3878.54 63.00
2915 33.1600 3949.00 3899.16 63.00
2916 33.1700 3923.00 3924.36 63.00
2917 33.1800 4005.00 3954.49 63.00
2918 33.1900 4025.00 3989.68 63.00
2919 33.2000 4048.00 4029.79 64.00
2920 33.2100 4136.00 4074.19 64.00
2921 33.2200 4173.00 4121.54 65.00
2922 33.2300 4209.00 4169.54 65.00
2923 33.2400 4275.00 4214.87 65.00
2924 33.2500 4297.00 4253.57 66.00
2925 33.2600 4338.00 4282.15 66.00
2926 33.2700 4371.00 4299.26 66.00
2927 33.2800 4371.00 4306.70 66.00
2928 33.2900 4301.00 4309.69 66.00
2929 33.3000 4391.00 4312.47 66.00
2930 33.3100 4343.00 4321.09 66.00
2931 33.3200 4361.00 4339.81 66.00
2932 33.3300 4416.00 4371.57 66.00
2933 33.3400 4452.00 4417.56 67.00
2934 33.3500 4448.00 4476.40 67.00
2935 33.3600 4573.00 4541.82 68.00
2936 33.3700 4591.00 4599.93 68.00
2937 33.3800 4627.00 4630.70 68.00
2938 33.3900 4620.00 4619.15 68.00
2939 33.4000 4558.00 4568.21 68.00
2940 33.4100 4494.00 4496.67 67.00
2941 33.4200 4461.00 4424.36 67.00
2942 33.4300 4396.00 4363.49 66.00
2943 33.4400 4365.00 4318.81 66.00
2944 33.4500 4345.00 4290.57 66.00
2945 33.4600 4323.00 4276.66 66.00
2946 33.4700 4275.00 4273.45 65.00
2947 33.4800 4345.00 4276.22 66.00
2948 33.4900 4332.00 4280.42 66.00
2949 33.5000 4313.00 4281.52 66.00
2950 33.5100 4339.00 4276.93 66.00
2951 33.5200 4303.00 4266.48 66.00
2952 33.5300 4257.00 4252.26 65.00
2953 33.5400 4292.00 4237.42 66.00
2954 33.5500 4246.00 4225.19 65.00
2955 33.5600 4233.00 4218.27 65.00
2956 33.5700 4284.00 4218.65 65.00
2957 33.5800 4213.00 4227.77 65.00
2958 33.5900 4248.00 4246.65 65.00
2959 33.6000 4283.00 4275.95 65.00
2960 33.6100 4262.00 4315.97 65.00
2961 33.6200 4359.00 4366.45 66.00
2962 33.6300 4418.00 4426.35 66.00
2963 33.6400 4460.00 4493.01 67.00
2964 33.6500 4494.00 4561.51 67.00
2965 33.6600 4591.00 4623.77 68.00
2966 33.6700 4668.00 4669.41 68.00
2967 33.6800 4700.00 4688.35 69.00
2968 33.6900 4737.00 4675.59 69.00
2969 33.7000 4652.00 4633.97 68.00
2970 33.7100 4571.00 4572.47 68.00
2971 33.7200 4536.00 4501.54 67.00
2972 33.7300 4445.00 4429.77 67.00
2973 33.7400 4388.00 4362.61 66.00
2974 33.7500 4326.00 4303.24 66.00
2975 33.7600 4300.00 4253.05 66.00
2976 33.7700 4190.00 4212.48 65.00
2977 33.7800 4181.00 4181.42 65.00
2978 33.7900 4161.00 4159.45 65.00
2979 33.8000 4167.00 4146.10 65.00
2980 33.8100 4174.00 4140.86 65.00
2981 33.8200 4172.00 4143.30 65.00
2982 33.8300 4183.00 4153.11 65.00
2983 33.8400 4203.00 4170.03 65.00
2984 33.8500 4212.00 4193.87 65.00
2985 33.8600 4242.00 4224.44 65.00
2986 33.8700 4311.00 4261.41 66.00
2987 33.8800 4310.00 4304.21 66.00
2988 33.8900 4340.00 4351.76 66.00
2989 33.9000 4449.00 4402.59 67.00
2990 33.9100 4454.00 4454.02 67.00
2991 33.9200 4534.00 4503.16 67.00
2992 33.9300 4617.00 4546.26 68.00
2993 33.9400 4664.00 4579.66 68.00
2994 33.9500 4638.00 4600.31 68.00
2995 33.9600 4679.00 4606.18 68.00
2996 33.9700 4661.00 4596.68 68.00
2997 33.9800 4648.00 4573.10 68.00
2998 33.9900 4617.00 4537.98 68.00
2999 34.0000 4538.00 4494.80 67.00
3000 34.0100 4456.00 4447.17 67.00
3001 34.0200 4410.00 4398.59 66.00
3002 34.0300 4374.00 4352.41 66.00
3003 34.0400 4315.00 4311.46 66.00
3004 34.0500 4332.00 4278.28 66.00
3005 34.0600 4271.00 4254.80 65.00
3006 34.0700 4205.00 4242.29 65.00
3007 34.0800 4282.00 4240.81 65.00
3008 34.0900 4265.00 4249.19 65.00
3009 34.1000 4292.00 4263.38 66.00
3010 34.1100 4313.00 4276.37 66.00
3011 34.1200 4281.00 4279.42 65.00
3012 34.1300 4242.00 4266.47 65.00
3013 34.1400 4279.00 4238.47 65.00
3014 34.1500 4227.00 4202.38 65.00
3015 34.1600 4234.00 4166.35 65.00
3016 34.1700 4187.00 4136.10 65.00
3017 34.1800 4184.00 4114.48 65.00
3018 34.1900 4111.00 4101.44 64.00
3019 34.2000 4166.00 4095.96 65.00
3020 34.2100 4139.00 4095.84 64.00
3021 34.2200 4149.00 4098.05 64.00
3022 34.2300 4191.00 4100.38 65.00
3023 34.2400 4172.00 4100.96 65.00
3024 34.2500 4124.00 4099.61 64.00
3025 34.2600 4132.00 4097.14 64.00
3026 34.2700 4105.00 4095.55 64.00
3027 34.2800 4113.00 4095.82 64.00
3028 34.2900 4150.00 4098.59 64.00
3029 34.3000 4159.00 4103.85 64.00
3030 34.3100 4112.00 4111.15 64.00
3031 34.3200 4126.00 4119.81 64.00
3032 34.3300 4158.00 4129.12 64.00
3033 34.3400 4165.00 4138.51 65.00
3034 34.3500 4186.00 4147.46 65.00
3035 34.3600 4194.00 4155.45 65.00
3036 34.3700 4202.00 4161.86 65.00
3037 34.3800 4215.00 4166.00 65.00
3038 34.3900 4174.00 4167.33 65.00
3039 34.4000 4184.00 4165.59 65.00
3040 34.4100 4159.00 4161.00 64.00
3041 34.4200 4176.00 4154.26 65.00
3042 34.4300 4115.00 4146.34 64.00
3043 34.4400 4123.00 4138.36 64.00
3044 34.4500 4118.00 4131.29 64.00
3045 34.4600 4145.00 4125.84 64.00
3046 34.4700 4147.00 4122.25 64.00
3047 34.4800 4095.00 4120.25 64.00
3048 34.4900 4106.00 4118.90 64.00
3049 34.5000 4143.00 4116.69 64.00
3050 34.5100 4116.00 4111.84 64.00
3051 34.5200 4082.00 4102.96 64.00
3052 34.5300 4078.00 4089.76 64.00
3053 34.5400 4053.00 4073.11 64.00
3054 34.5500 4022.00 4054.71 63.00
3055 34.5600 4038.00 4036.29 64.00
3056 34.5700 4010.00 4019.21 63.00
3057 34.5800 3986.00 4004.28 63.00
3058 34.5900 3986.00 3991.89 63.00
3059 34.6000 3960.00 3982.14 63.00
3060 34.6100 3937.00 3975.01 63.00
3061 34.6200 3989.00 3970.49 63.00
3062 34.6300 3986.00 3968.56 63.00
3063 34.6400 3956.00 3969.24 63.00
3064 34.6500 3965.00 3972.58 63.00
3065 34.6600 3981.00 3978.52 63.00
3066 34.6700 3964.00 3986.91 63.00
3067 34.6800 3971.00 3997.46 63.00
3068 34.6900 3983.00 4009.61 63.00
3069 34.7000 4040.00 4022.47 64.00
3070 34.7100 4058.00 4034.93 64.00
3071 34.7200 4036.00 4045.45 64.00
3072 34.7300 4034.00 4052.47 64.00
3073 34.7400 4051.00 4054.75 64.00
3074 34.7500 4021.00 4051.82 63.00
3075 34.7600 4019.00 4044.20 63.00
3076 34.7700 4029.00 4033.22 63.00
3077 34.7800 4005.00 4020.59 63.00
3078 34.7900 3943.00 4007.99 63.00
3079 34.8000 3990.00 3996.86 63.00
3080 34.8100 3925.00 3988.27 63.00
3081 34.8200 3980.00 3983.06 63.00
3082 34.8300 3982.00 3981.78 63.00
3083 34.8400 3961.00 3984.82 63.00
3084 34.8500 3943.00 3992.37 63.00
3085 34.8600 4021.00 4004.44 63.00
3086 34.8700 4006.00 4020.81 63.00
3087 34.8800 4048.00 4040.96 64.00
3088 34.8900 4074.00 4063.93 64.00
3089 34.9000 4128.00 4088.44 64.00
3090 34.9100 4090.00 4112.88 64.00
3091 34.9200 4188.00 4135.83 65.00
3092 34.9300 4156.00 4156.37 64.00
3093 34.9400 4199.00 4174.08 65.00
3094 34.9500 4246.00 4189.49 65.00
3095 34.9600 4234.00 4202.47 65.00
3096 34.9700 4210.00 4212.41 65.00
3097 34.9800 4245.00 4218.19 65.00
3098 34.9900 4198.00 4218.79 65.00
3099 35.0000 4197.00 4214.27 65.00
3100 35.0100 4184.00 4206.12 65.00
3101 35.0200 4174.00 4196.83 65.00
3102 35.0300 4135.00 4189.12 64.00
3103 35.0400 4161.00 4185.16 65.00
3104 35.0500 4131.00 4186.36 64.00
3105 35.0600 4135.00 4193.31 64.00
3106 35.0700 4179.00 4205.86 65.00
3107 35.0800 4169.00 4223.08 65.00
3108 35.0900 4182.00 4243.19 65.00
3109 35.1000 4235.00 4263.52 65.00
3110 35.1100 4246.00 4280.60 65.00
3111 35.1200 4249.00 4290.60 65.00
3112 35.1300 4335.00 4290.67 66.00
3113 35.1400 4300.00 4279.54 66.00
3114 35.1500 4255.00 4258.23 65.00
3115 35.1600 4208.00 4229.49 65.00
3116 35.1700 4200.00 4196.63 65.00
3117 35.1800 4114.00 4162.60 64.00
3118 35.1900 4103.00 4129.63 64.00
3119 35.2000 4053.00 4099.15 64.00
3120 35.2100 4030.00 4072.00 63.00
3121 35.2200 4027.00 4048.54 63.00
3122 35.2300 3998.00 4028.96 63.00
3123 35.2400 4003.00 4013.16 63.00
3124 35.2500 3997.00 4001.20 63.00
3125 35.2600 3983.00 3992.84 63.00
3126 35.2700 3936.00 3987.80 63.00
3127 35.2800 3983.00 3985.83 63.00
3128 35.2900 3996.00 3986.40 63.00
3129 35.3000 3981.00 3988.51 63.00
3130 35.3100 3984.00 3991.19 63.00
3131 35.3200 3973.00 3993.52 63.00
3132 35.3300 3937.00 3995.22 63.00
3133 35.3400 3985.00 3996.57 63.00
3134 35.3500 3968.00 3998.10 63.00
3135 35.3600 3970.00 4000.47 63.00
3136 35.3700 3986.00 4004.29 63.00
3137 35.3800 3982.00 4010.06 63.00
3138 35.3900 3990.00 4018.29 63.00
3139 35.4000 4025.00 4028.86 63.00
3140 35.4100 4024.00 4042.04 63.00
3141 35.4200 4041.00 4057.83 64.00
3142 35.4300 4075.00 4076.08 64.00
3143 35.4400 4064.00 4096.53 64.00
3144 35.4500 4072.00 4118.90 64.00
3145 35.4600 4160.00 4142.81 64.00
3146 35.4700 4178.00 4167.89 65.00
3147 35.4800 4206.00 4193.69 65.00
3148 35.4900 4216.00 4219.73 65.00
3149 35.5000 4240.00 4245.30 65.00
3150 35.5100 4241.00 4269.45 65.00
3151 35.5200 4288.00 4291.01 65.00
3152 35.5300 4264.00 4308.52 65.00
3153 35.5400 4311.00 4320.65 66.00
3154 35.5500 4347.00 4326.34 66.00
3155 35.5600 4344.00 4325.13 66.00
3156 35.5700 4302.00 4317.22 66.00
3157 35.5800 4309.00 4303.31 66.00
3158 35.5900 4278.00 4284.51 65.00
3159 35.6000 4260.00 4262.04 65.00
3160 35.6100 4255.00 4237.14 65.00
3161 35.6200 4216.00 4210.99 65.00
3162 35.6300 4145.00 4184.54 64.00
3163 35.6400 4151.00 4158.65 64.00
3164 35.6500 4106.00 4133.97 64.00
3165 35.6600 4059.00 4111.12 64.00
3166 35.6700 4055.00 4090.96 64.00
3167 35.6800 4014.00 4073.15 63.00
3168 35.6900 3993.00 4058.30 63.00
3169 35.7000 4010.00 4046.56 63.00
3170 35.7100 3961.00 4037.95 63.00
3171 35.7200 3981.00 4032.43 63.00
3172 35.7300 3979.00 4029.87 63.00
3173 35.7400 4005.00 4030.18 63.00
3174 35.7500 3987.00 4033.14 63.00
3175 35.7600 4018.00 4038.53 63.00
3176 35.7700 4027.00 4046.07 63.00
3177 35.7800 4039.00 4055.51 64.00
3178 35.7900 4071.00 4066.44 64.00
3179 35.8000 4088.00 4078.37 64.00
3180 35.8100 4083.00 4090.78 64.00
3181 35.8200 4097.00 4102.91 64.00
3182 35.8300 4106.00 4113.99 64.00
3183 35.8400 4135.00 4123.26 64.00
3184 35.8500 4121.00 4130.30 64.00
3185 35.8600 4128.00 4135.20 64.00
3186 35.8700 4114.00 4138.64 64.00
3187 35.8800 4125.00 4141.62 64.00
3188 35.8900 4080.00 4145.02 64.00
3189 35.9000 4124.00 4150.18 64.00
3190 35.9100 4136.00 4157.51 64.00
3191 35.9200 4132.00 4167.20 64.00
3192 35.9300 4135.00 4179.03 64.00
3193 35.9400 4179.00 4192.87 65.00
3194 35.9500 4195.00 4209.46 65.00
3195 35.9600 4208.00 4230.45 65.00
3196 35.9700 4248.00 4257.41 65.00
3197 35.9800 4270.00 4290.63 65.00
3198 35.9900 4286.00 4328.17 65.00
3199 36.0000 4356.00 4365.40 66.00
3200 36.0100 4350.00 4395.42 66.00
3201 36.0200 4377.00 4411.17 66.00
3202 36.0300 4415.00 4408.08 66.00
3203 36.0400 4378.00 4385.89 66.00
3204 36.0500 4323.00 4348.53 66.00
3205 36.0600 4309.00 4302.42 66.00
3206 36.0700 4255.00 4254.42 65.00
3207 36.0800 4208.00 4209.74 65.00
3208 36.0900 4193.00 4171.67 65.00
3209 36.1000 4123.00 4141.67 64.00
3210 36.1100 4079.00 4120.23 64.00
3211 36.1200 4084.00 4107.25 64.00
3212 36.1300 4054.00 4102.30 64.00
3213 36.1400 4071.00 4104.87 64.00
3214 36.1500 4075.00 4114.45 64.00
3215 36.1600 4093.00 4130.64 64.00
3216 36.1700 4087.00 4153.31 64.00
3217 36.1800 4142.00 4182.46 64.00
3218 36.1900 4181.00 4218.40 65.00
3219 36.2000 4206.00 4261.07 65.00
3220 36.2100 4251.00 4309.97 65.00
3221 36.2200 4276.00 4363.38 65.00
3222 36.2300 4337.00 4418.39 66.00
3223 36.2400 4388.00 4469.76 66.00
3224 36.2500 4393.00 4510.79 66.00
3225 36.2600 4442.00 4534.79 67.00
3226 36.2700 4499.00 4537.72 67.00
3227 36.2800 4492.00 4520.12 67.00
3228 36.2900 4425.00 4486.55 67.00
3229 36.3000 4422.00 4443.34 66.00
3230 36.3100 4358.00 4396.19 66.00
3231 36.3200 4309.00 4349.29 66.00
3232 36.3300 4254.00 4305.20 65.00
3233 36.3400 4198.00 4265.51 65.00
3234 36.3500 4122.00 4231.06 64.00
3235 36.3600 4152.00 4202.24 64.00
3236 36.3700 4117.00 4179.19 64.00
3237 36.3800 4092.00 4161.83 64.00
3238 36.3900 4093.00 4149.92 64.00
3239 36.4000 4068.00 4143.13 64.00
3240 36.4100 4059.00 4141.04 64.00
3241 36.4200 4064.00 4143.16 64.00
3242 36.4300 4050.00 4148.91 64.00
3243 36.4400 4085.00 4157.63 64.00
3244 36.4500 4101.00 4168.60 64.00
3245 36.4600 4077.00 4181.11 64.00
3246 36.4700 4075.00 4194.55 64.00
3247 36.4800 4130.00 4208.42 64.00
3248 36.4900 4130.00 4222.47 64.00
3249 36.5000 4149.00 4236.50 64.00
3250 36.5100 4162.00 4250.46 65.00
3251 36.5200 4133.00 4264.27 64.00
3252 36.5300 4140.00 4277.93 64.00
3253 36.5400 4231.00 4290.93 65.00
3254 36.5500 4191.00 4303.14 65.00
3255 36.5600 4242.00 4314.05 65.00
3256 36.5700 4248.00 4323.08 65.00
3257 36.5800 4287.00 4329.59 65.00
3258 36.5900 4256.00 4333.02 65.00
3259 36.6000 4229.00 4332.97 65.00
3260 36.6100 4219.00 4329.43 65.00
3261 36.6200 4224.00 4322.56 65.00
3262 36.6300 4238.00 4312.82 65.00
3263 36.6400 4219.00 4300.86 65.00
3264 36.6500 4160.00 4287.46 64.00
3265 36.6600 4171.00 4273.27 65.00
3266 36.6700 4146.00 4258.62 64.00
3267 36.6800 4161.00 4243.58 65.00
3268 36.6900 4129.00 4228.31 64.00
3269 36.7000 4145.00 4213.31 64.00
3270 36.7100 4085.00 4199.65 64.00
3271 36.7200 4091.00 4188.80 64.00
3272 36.7300 4043.00 4182.32 64.00
3273 36.7400 4067.00 4181.57 64.00
3274 36.7500 4092.00 4187.61 64.00
3275 36.7600 4117.00 4201.15 64.00
3276 36.7700 4088.00 4222.51 64.00
3277 36.7800 4180.00 4251.62 65.00
3278 36.7900 4168.00 4287.95 65.00
3279 36.8000 4227.00 4330.31 65.00
3280 36.8100 4279.00 4376.80 65.00
3281 36.8200 4352.00 4424.72 66.00
3282 36.8300 4349.00 4470.67 66.00
3283 36.8400 4440.00 4511.04 67.00
3284 36.8500 4463.00 4542.75 67.00
3285 36.8600 4479.00 4564.10 67.00
3286 36.8700 4520.00 4574.83 67.00
3287 36.8800 4517.00 4575.87 67.00
3288 36.8900 4490.00 4568.50 67.00
3289 36.9000 4491.00 4553.57 67.00
3290 36.9100 4492.00 4531.38 67.00
3291 36.9200 4476.00 4501.94 67.00
3292 36.9300 4419.00 4465.44 66.00
3293 36.9400 4334.00 4422.66 66.00
3294 36.9500 4300.00 4374.97 66.00
3295 36.9600 4280.00 4324.30 65.00
3296 36.9700 4175.00 4272.53 65.00
3297 36.9800 4126.00 4221.55 64.00
3298 36.9900 4084.00 4172.67 64.00
3299 37.0000 4063.00 4127.16 64.00
3300 37.0100 4024.00 4085.56 63.00
3301 37.0200 4002.00 4048.22 63.00
3302 37.0300 3937.00 4015.34 63.00
3303 37.0400 3901.00 3986.85 62.00
3304 37.0500 3927.00 3962.64 63.00
3305 37.0600 3888.00 3942.50 62.00
3306 37.0700 3877.00 3926.17 62.00
3307 37.0800 3880.00 3913.31 62.00
3308 37.0900 3859.00 3903.61 62.00
3309 37.1000 3847.00 3896.68 62.00
3310 37.1100 3871.00 3892.08 62.00
3311 37.1200 3854.00 3889.47 62.00
3312 37.1300 3838.00 3888.32 62.00
3313 37.1400 3857.00 3888.14 62.00
3314 37.1500 3850.00 3888.36 62.00
3315 37.1600 3889.00 3888.45 62.00
3316 37.1700 3883.00 3887.89 62.00
3317 37.1800 3845.00 3886.31 62.00
3318 37.1900 3828.00 3883.45 62.00
3319 37.2000 3864.00 3879.27 62.00
3320 37.2100 3822.00 3873.94 62.00
3321 37.2200 3839.00 3867.67 62.00
3322 37.2300 3832.00 3861.01 62.00
3323 37.2400 3818.00 3854.33 62.00
3324 37.2500 3756.00 3848.04 61.00
3325 37.2600 3802.00 3842.55 62.00
3326 37.2700 3772.00 3838.16 61.00
3327 37.2800 3820.00 3835.18 62.00
3328 37.2900 3796.00 3833.81 62.00
3329 37.3000 3792.00 3834.24 62.00
3330 37.3100 3756.00 3836.63 61.00
3331 37.3200 3794.00 3841.00 62.00
3332 37.3300 3778.00 3847.57 61.00
3333 37.3400 3813.00 3856.29 62.00
3334 37.3500 3865.00 3867.10 62.00
3335 37.3600 3833.00 3879.88 62.00
3336 37.3700 3843.00 3894.37 62.00
3337 37.3800 3890.00 3910.24 62.00
3338 37.3900 3883.00 3926.92 62.00
3339 37.4000 3912.00 3943.69 63.00
3340 37.4100 3951.00 3959.54 63.00
3341 37.4200 3954.00 3973.33 63.00
3342 37.4300 3921.00 3983.77 63.00
3343 37.4400 3977.00 3989.73 63.00
3344 37.4500 3944.00 3990.54 63.00
3345 37.4600 3955.00 3986.22 63.00
3346 37.4700 3976.00 3977.52 63.00
3347 37.4800 3952.00 3965.50 63.00
3348 37.4900 3910.00 3951.62 63.00
3349 37.5000 3931.00 3936.81 63.00
3350 37.5100 3892.00 3922.08 62.00
3351 37.5200 3888.00 3907.28 62.00
3352 37.5300 3886.00 3892.99 62.00
3353 37.5400 3865.00 3879.41 62.00
3354 37.5500 3809.00 3866.82 62.00
3355 37.5600 3851.00 3855.49 62.00
3356 37.5700 3798.00 3845.75 62.00
3357 37.5800 3825.00 3837.87 62.00
3358 37.5900 3834.00 3832.10 62.00
3359 37.6000 3830.00 3828.57 62.00
3360 37.6100 3801.00 3827.36 62.00
3361 37.6200 3858.00 3828.45 62.00
3362 37.6300 3812.00 3831.71 62.00
3363 37.6400 3865.00 3836.96 62.00
3364 37.6500 3875.00 3843.91 62.00
3365 37.6600 3910.00 3852.26 63.00
3366 37.6700 3852.00 3861.55 62.00
3367 37.6800 3926.00 3871.33 63.00
3368 37.6900 3908.00 3881.08 63.00
3369 37.7000 3948.00 3890.28 63.00
3370 37.7100 3986.00 3898.39 63.00
3371 37.7200 3954.00 3904.89 63.00
3372 37.7300 3917.00 3909.18 63.00
3373 37.7400 3949.00 3910.58 63.00
3374 37.7500 3926.00 3908.26 63.00
3375 37.7600 3931.00 3901.28 63.00
3376 37.7700 3950.00 3889.17 63.00
3377 37.7800 3872.00 3872.11 62.00
3378 37.7900 3856.00 3851.27 62.00
3379 37.8000 3849.00 3828.40 62.00
3380 37.8100 3820.00 3805.15 62.00
3381 37.8200 3785.00 3782.77 62.00
3382 37.8300 3786.00 3762.25 62.00
3383 37.8400 3793.00 3743.60 62.00
3384 37.8500 3739.00 3727.24 61.00
3385 37.8600 3741.00 3713.19 61.00
3386 37.8700 3737.00 3701.46 61.00
3387 37.8800 3754.00 3691.92 61.00
3388 37.8900 3775.00 3684.44 61.00
3389 37.9000 3772.00 3678.88 61.00
3390 37.9100 3735.00 3675.06 61.00
3391 37.9200 3747.00 3672.79 61.00
3392 37.9300 3733.00 3671.89 61.00
3393 37.9400 3732.00 3672.17 61.00
3394 37.9500 3739.00 3673.43 61.00
3395 37.9600 3742.00 3675.48 61.00
3396 37.9700 3687.00 3678.13 61.00
3397 37.9800 3753.00 3681.18 61.00
3398 37.9900 3749.00 3684.45 61.00
3399 38.0000 3747.00 3687.83 61.00
3400 38.0100 3767.00 3691.16 61.00
3401 38.0200 3799.00 3694.27 62.00
3402 38.0300 3751.00 3696.95 61.00
3403 38.0400 3807.00 3698.92 62.00
3404 38.0500 3778.00 3699.76 61.00
3405 38.0600 3784.00 3699.00 62.00
3406 38.0700 3800.00 3696.18 62.00
3407 38.0800 3791.00 3691.17 62.00
3408 38.0900 3763.00 3683.45 61.00
3409 38.1000 3771.00 3673.45 61.00
3410 38.1100 3740.00 3661.61 61.00
3411 38.1200 3754.00 3648.43 61.00
3412 38.1300 3727.00 3634.42 61.00
3413 38.1400 3691.00 3619.99 61.00
3414 38.1500 3696.00 3605.49 61.00
3415 38.1600 3706.00 3591.25 61.00
3416 38.1700 3696.00 3577.49 61.00
3417 38.1800 3695.00 3564.41 61.00
3418 38.1900 3665.00 3552.17 61.00
3419 38.2000 3642.00 3540.85 60.00
3420 38.2100 3640.00 3530.48 60.00
3421 38.2200 3642.00 3521.10 60.00
3422 38.2300 3630.00 3512.68 60.00
3423 38.2400 3639.00 3505.13 60.00
3424 38.2500 3653.00 3498.38 60.00
3425 38.2600 3644.00 3492.51 60.00
3426 38.2700 3633.00 3487.24 60.00
3427 38.2800 3655.00 3482.46 60.00
loop_
_pd_proc_info_excluded_regions
'from 0.01 to 4.010'
'from 38.29 to 78.048'
loop_
_refln_index_h
_refln_index_k
_refln_index_l
_refln_F_squared_calc
_refln_F_squared_meas
_refln_F_squared_sigma
_refln_observed_status
_refln_d_spacing
2 0 0 346.99 324.52 7.13 o 5.772734
1 0 1 668.01 689.84 10.46 o 4.131121
2 0 1 6214.88 6096.89 25.15 o 3.511443
2 1 0 2179.18 2219.54 18.19 o 3.383603
0 1 1 9967.51 9948.23 35.53 o 3.036848
1 1 1 28975.00 29110.59 41.85 o 2.936948
3 0 1 461.35 464.02 0.97 o 2.903599
4 0 0 59469.30 59273.54 119.04 o 2.886367
2 1 1 21.48 28.02 2.05 o 2.687637
4 0 1 331.64 304.66 5.45 o 2.417367
3 1 1 16295.00 16295.88 38.40 o 2.384001
4 1 0 4603.85 4621.76 11.44 o 2.374435
0 0 2 19644.24 19210.77 111.74 o 2.212011
1 0 2 10070.12 10078.72 57.86 o 2.172497
4 1 1 6803.80 6767.63 18.85 o 2.092146
0 2 0 49953.61 49517.71 132.08 o 2.088094
2 0 2 469.73 454.98 2.20 o 2.065561
5 0 1 4849.83 4864.18 43.65 o 2.047035
2 2 0 179.78 226.78 9.80 o 1.963585
1 1 2 5205.97 5304.21 24.44 o 1.927310
6 0 0 1221.61 1239.92 6.53 o 1.924244
3 0 2 9794.25 9940.65 44.81 o 1.917794
1 2 1 318.62 354.46 4.71 o 1.863564
2 1 2 1838.50 1853.01 6.67 o 1.851472
5 1 1 20394.82 20221.53 59.30 o 1.838095
2 2 1 3324.62 3301.22 31.15 o 1.794745
6 0 1 3184.06 3163.09 23.81 o 1.764557
4 0 2 12668.78 12810.29 64.10 o 1.755721
6 1 0 2404.65 2468.35 14.65 o 1.747649
3 1 2 2467.48 2513.35 15.98 o 1.742812
3 2 1 319.03 312.60 1.22 o 1.695251
4 2 0 33911.93 33144.84 124.37 o 1.691801
6 1 1 105.82 96.33 2.51 o 1.625419
4 1 2 1573.76 1436.83 31.05 o 1.618505
5 0 2 5275.84 5079.77 79.41 o 1.597346
4 2 1 195.37 138.15 10.83 o 1.580199
7 0 1 1108.28 824.53 44.83 o 1.545443
0 2 2 12127.30 11872.73 94.22 o 1.518424
1 2 2 6036.03 6054.85 46.51 o 1.505460
5 1 2 5514.18 5557.63 48.18 o 1.491937
2 2 2 302.17 296.31 3.73 o 1.468474
1 0 3 3986.37 3935.80 29.42 o 1.462790
5 2 1 2866.61 2792.35 27.48 o 1.461773
6 0 2 2245.94 2268.94 15.36 o 1.451800
7 1 1 3787.57 3852.65 28.06 o 1.449383
8 0 0 17821.72 18384.63 150.88 o 1.443183
2 0 3 4728.07 4576.55 47.12 o 1.428791
6 2 0 838.99 829.86 7.32 o 1.415031
3 2 2 5994.72 5946.01 52.88 o 1.412460
0 1 3 12860.22 12972.63 110.50 o 1.390527
1 1 3 1443.64 1462.50 12.14 o 1.380551
3 0 3 5536.06 5488.60 45.70 o 1.377040
8 0 1 561.97 564.15 8.09 o 1.372026
6 1 2 371.47 371.40 4.13 o 1.371300
8 1 0 7338.58 7449.83 91.14 o 1.364032
2 3 0 544.18 560.90 4.57 o 1.353272
2 1 3 0.62 0.64 0.00 o 1.351861
6 2 1 1950.11 2009.16 14.53 o 1.347768
4 2 2 8224.54 8475.64 60.23 o 1.343818
0 3 1 3482.72 3587.46 26.44 o 1.327877
7 0 2 5339.47 5455.99 33.17 o 1.322247
1 3 1 10700.69 10922.86 65.77 o 1.319180
4 0 3 415.32 423.42 2.53 o 1.313208
3 1 3 32.63 33.44 0.30 o 1.307780
8 1 1 2713.44 2861.15 48.54 o 1.303482
2 3 1 7.13 8.30 0.26 o 1.294082
5 2 2 3388.74 3750.03 54.64 o 1.268698
7 1 2 567.20 573.41 4.37 o 1.260573
3 3 1 6265.18 6256.71 37.16 o 1.255257
4 3 0 1865.81 1862.57 10.97 o 1.253855
4 1 3 9759.49 9756.87 56.83 o 1.252733
5 0 3 907.38 910.76 8.28 o 1.242844
7 2 1 826.79 852.81 14.17 o 1.242220
9 0 1 6379.87 6950.52 117.50 o 1.232077
8 0 2 3695.81 4119.08 60.95 o 1.208684
4 3 1 2651.63 2969.75 39.26 o 1.206340
1 2 3 2687.23 2859.84 30.84 o 1.198061
6 2 2 1552.59 1607.03 14.13 o 1.192001
5 1 3 2569.31 2655.26 18.83 o 1.191212
8 2 0 11736.58 12001.79 79.35 o 1.187218
9 1 1 7659.77 7858.89 55.44 o 1.181722
2 2 3 2987.34 3065.16 20.33 o 1.179167
1 3 2 1999.48 2070.88 28.83 o 1.172087
6 0 3 3157.54 3288.29 38.97 o 1.170481
8 1 2 2724.73 2974.04 46.20 o 1.161034
10 0 0 928.79 960.18 9.21 o 1.154547
2 3 2 946.77 973.24 7.85 o 1.154377
5 3 1 8854.70 8908.95 67.98 o 1.151113
3 2 3 3804.91 3821.50 29.30 o 1.149570
8 2 1 372.56 370.80 3.31 o 1.146647
6 3 0 812.30 700.33 27.94 o 1.127868
6 1 3 4.27 3.68 0.13 o 1.127051
3 3 2 957.63 830.12 34.69 o 1.126564
10 0 1 1177.68 1102.51 19.84 o 1.117131
7 2 2 3512.76 3297.39 56.28 o 1.117111
10 1 0 2282.27 2175.52 40.83 o 1.112804
4 2 3 281.18 265.29 4.41 o 1.111644
9 0 2 1622.44 1499.59 36.46 o 1.109717
0 0 4 4.67 4.30 0.09 o 1.106005
1 0 4 2498.71 2193.47 53.59 o 1.100965
7 0 3 3277.98 2770.07 88.30 o 1.099340
6 3 1 41.05 33.23 1.38 o 1.092910
4 3 2 742.41 569.15 33.29 o 1.090801
2 0 4 327.84 249.87 12.36 o 1.086249
10 1 1 114.41 93.26 6.24 o 1.079187
9 1 2 3585.71 3499.19 72.49 o 1.072499
5 2 3 615.51 590.56 9.22 o 1.067982
1 1 4 252.85 239.16 2.87 o 1.064592
7 1 3 528.69 492.38 7.06 o 1.063122
3 0 4 1735.84 1627.13 18.71 o 1.062980
9 2 1 4323.05 4035.01 60.01 o 1.061128
2 1 4 9313.82 8590.00 71.66 o 1.051269
5 3 2 2351.84 2173.99 20.38 o 1.049460
8 2 2 2550.86 2325.42 24.02 o 1.046073
0 4 0 13952.80 12718.04 126.29 o 1.044047
7 3 1 1623.65 1367.70 46.40 o 1.034325
4 0 4 41.28 34.75 0.96 o 1.032780
8 0 3 835.77 699.49 25.12 o 1.031438
3 1 4 53.71 46.18 1.19 o 1.030134
2 4 0 64.04 56.06 1.50 o 1.027380
10 0 2 2050.93 1802.82 53.86 o 1.023517
11 0 1 483.30 427.02 12.96 o 1.021240
6 2 3 2105.41 1830.15 51.68 o 1.021012
0 3 3 5802.18 5388.05 130.59 o 1.012283
1 4 1 43.55 39.96 0.91 o 1.012221
10 2 0 685.74 639.04 14.82 o 1.010384
1 3 3 743.03 687.88 14.77 o 1.008414
6 3 2 216.47 201.77 3.29 o 1.004792
4 1 4 162.34 150.08 2.14 o 1.002577
8 3 0 3512.61 3253.52 49.36 o 1.001922
8 1 3 4518.99 4186.71 63.40 o 1.001349
2 4 1 883.29 818.94 12.30 o 1.000749
5 0 4 2111.20 1966.09 29.42 o 0.997487
2 3 3 0.12 0.11 0.00 o 0.997069
10 1 2 30.98 29.33 1.09 o 0.994097
11 1 1 303.15 306.46 15.63 o 0.992010
10 2 1 801.59 808.71 15.65 o 0.985021
3 4 1 171.90 169.74 2.67 o 0.982465
4 4 0 10227.40 10088.67 152.37 o 0.981792
9 2 2 1124.63 1106.06 17.56 o 0.979928
3 3 3 22.27 21.88 0.35 o 0.978983
0 2 4 0.83 0.81 0.02 o 0.977369
8 3 1 1237.85 1221.70 18.37 o 0.977176
1 2 4 1739.47 1704.20 27.16 o 0.973886
7 2 3 2333.71 2295.36 46.26 o 0.972760
5 1 4 531.30 524.34 10.10 o 0.970196
9 0 3 0.72 0.72 0.02 o 0.967866
2 2 4 231.69 228.50 6.24 o 0.963655
12 0 0 3019.92 3097.68 122.79 o 0.962122
6 0 4 1810.77 1785.80 34.55 o 0.958897
7 3 2 244.71 242.14 5.10 o 0.958702
4 4 1 59.18 58.32 1.16 o 0.958474
4 3 3 4561.89 4474.06 93.12 o 0.955239
11 0 2 2000.76 2019.09 50.79 o 0.948255
3 2 4 1210.55 1225.07 20.57 o 0.947298
0 4 2 3992.70 4086.16 70.30 o 0.944163
9 1 3 1608.34 1631.86 26.18 o 0.942876
1 4 2 1838.47 1871.29 28.08 o 0.941021
12 0 1 408.68 414.10 7.37 o 0.940146
12 1 0 4633.03 4758.13 82.74 o 0.937563
6 1 4 4750.30 4861.88 71.12 o 0.934577
2 4 2 106.15 110.60 2.09 o 0.931782
5 4 1 831.58 875.34 16.47 o 0.930063
5 3 3 1321.27 1411.80 30.32 o 0.927107
4 2 4 23.04 24.05 0.43 o 0.925736
8 2 3 590.26 623.84 11.96 o 0.924769
11 1 2 63.49 67.64 1.39 o 0.924716
9 3 1 3796.36 3932.97 68.55 o 0.922612
10 2 2 1477.91 1504.52 27.31 o 0.919048
7 0 4 715.57 742.10 11.64 o 0.918594
6 4 0 325.86 335.55 5.68 o 0.917673
11 2 1 357.87 363.40 7.27 o 0.917398
12 1 1 751.92 762.84 16.29 o 0.917192
3 4 2 1858.04 1898.86 36.07 o 0.916970
8 3 2 1386.87 1513.07 42.77 o 0.912665
10 0 3 1617.28 1942.00 79.88 o 0.909075
5 2 4 1499.75 1711.18 47.88 o 0.900063
6 4 1 598.72 681.39 19.15 o 0.898546
4 4 2 2816.05 3192.63 91.10 o 0.897372
7 1 4 4.62 5.28 0.15 o 0.897147
6 3 3 1.31 1.47 0.05 o 0.895879
10 3 0 1069.67 1427.65 103.80 o 0.888673
10 1 3 9.83 12.99 0.95 o 0.888274
12 0 2 392.52 477.93 30.69 o 0.882278
1 0 5 3161.00 3686.61 136.40 o 0.882217
9 2 3 0.31 0.35 0.02 o 0.878121
8 0 4 219.30 238.48 6.94 o 0.877861
2 0 5 275.35 289.95 5.77 o 0.874591
5 4 2 1126.92 1176.34 27.37 o 0.873929
12 2 0 2139.61 2222.28 54.91 o 0.873825
6 2 4 1302.34 1357.68 27.53 o 0.871406
10 3 1 54.05 56.26 1.20 o 0.871269
13 0 1 4305.89 4452.83 104.79 o 0.870741
9 3 2 1756.75 1777.51 36.43 o 0.867738
0 1 5 606.22 618.70 9.61 o 0.865590
7 4 1 344.20 350.23 6.77 o 0.865130
1 3 4 117.43 119.45 2.43 o 0.863535
11 2 2 1417.17 1429.95 32.05 o 0.863396
12 1 2 1675.69 1688.93 38.90 o 0.863225
1 1 5 20.30 20.84 0.32 o 0.863168
7 3 3 262.67 265.56 5.79 o 0.862749
3 0 5 3516.96 3616.04 55.28 o 0.862308
8 1 4 259.00 265.31 4.62 o 0.859086
12 2 1 292.07 304.43 6.89 o 0.857262
2 3 4 4715.23 4913.61 101.60 o 0.856378
2 1 5 37.62 39.11 0.65 o 0.856021
11 0 3 832.81 871.74 18.61 o 0.855112
13 1 1 1496.49 1571.33 45.20 o 0.852410
1 4 3 961.58 1016.87 30.89 o 0.849797
6 4 2 576.26 604.60 18.21 o 0.847626
4 0 5 26.09 26.85 0.66 o 0.845950
8 4 0 4053.83 4191.81 126.27 o 0.845901
3 3 4 23.11 23.65 0.76 o 0.844837
3 1 5 480.36 493.54 13.01 o 0.844493
2 4 3 967.72 965.58 35.97 o 0.842974
7 2 4 511.65 500.55 17.36 o 0.840828
11 1 3 1084.74 1052.55 46.64 o 0.837731
9 0 4 1093.69 1077.86 36.83 o 0.837662
10 2 3 1155.50 1113.59 38.91 o 0.833509
3 4 3 1398.74 1363.53 44.54 o 0.831959
8 4 1 130.11 126.01 3.81 o 0.830849
4 3 4 88.09 85.26 2.62 o 0.829435
4 1 5 460.46 442.92 12.23 o 0.829110
8 3 3 2288.65 2194.58 71.98 o 0.828740
2 5 0 73.19 69.65 2.10 o 0.826630
5 0 5 1520.06 1470.24 37.03 o 0.826224
14 0 0 236.55 220.70 12.05 o 0.824676
10 3 2 13.84 13.33 0.52 o 0.824614
13 0 2 299.20 281.98 13.47 o 0.824166
11 3 1 143.09 136.82 5.15 o 0.823422
9 1 4 617.04 594.58 18.47 o 0.821303
0 5 1 805.47 772.13 23.95 o 0.820739
7 4 2 1215.86 1167.38 37.85 o 0.819404
1 5 1 2627.49 2519.24 76.79 o 0.818673
4 4 3 101.34 97.86 3.24 o 0.817239
12 2 2 283.62 266.59 9.82 o 0.812709
1 2 5 2291.18 2197.93 54.97 o 0.812662
2 5 1 1.51 1.44 0.04 o 0.812567
5 3 4 268.50 257.44 7.68 o 0.810818
14 0 1 364.59 351.71 12.01 o 0.810711
5 1 5 47.22 43.96 1.08 o 0.810514
8 2 4 155.72 147.55 4.03 o 0.809253
14 1 0 1688.63 1617.98 53.83 o 0.809053
13 1 2 1702.59 1621.82 51.93 o 0.808571
2 2 5 202.03 187.31 4.14 o 0.806689
12 0 3 675.57 627.73 16.05 o 0.805789
6 0 5 99.62 89.91 1.90 o 0.803892
13 2 1 3130.92 2811.29 81.76 o 0.803665
3 5 1 1536.12 1361.87 33.23 o 0.802688
4 5 0 480.91 425.74 10.26 o 0.802321
5 4 3 223.26 193.49 5.48 o 0.799414
10 0 4 1977.80 1699.01 41.75 o 0.798673
3 2 5 2563.46 2205.73 47.19 o 0.797020
9 4 1 1567.15 1307.93 35.22 o 0.796526
14 1 1 77.49 64.58 2.08 o 0.795854
9 3 3 855.81 729.45 18.91 o 0.794667
12 3 0 2442.15 2137.74 50.56 o 0.791478
11 2 3 611.11 536.30 12.96 o 0.791328
12 1 3 1416.84 1244.95 30.29 o 0.791196
8 4 2 948.18 835.37 20.53 o 0.790099
6 3 4 2488.44 2191.63 53.99 o 0.789680
4 5 1 648.28 570.19 13.65 o 0.789444
6 1 5 221.95 193.89 4.35 o 0.789399
10 1 4 1186.02 1021.78 40.30 o 0.784457
4 2 5 19.27 17.13 0.54 o 0.784050
11 3 2 31.94 27.01 1.53 o 0.783704
7 0 5 2095.29 1953.63 72.74 o 0.779697
1 5 2 481.14 436.10 19.22 o 0.779606
6 4 3 752.63 687.16 32.10 o 0.779133
12 3 1 392.34 356.14 16.60 o 0.779108
9 2 4 800.64 773.22 30.21 o 0.777438
10 4 0 276.51 284.18 11.03 o 0.774379
2 5 2 280.95 290.28 11.42 o 0.774328
5 5 1 2340.53 2461.19 95.06 o 0.773341
14 0 2 794.41 866.30 41.07 o 0.772721
5 2 5 1112.35 1338.77 53.08 o 0.768268
14 2 0 175.85 235.27 13.14 o 0.767023
7 3 4 2.00 2.68 0.15 o 0.766710
13 2 2 219.48 294.61 16.49 o 0.766613
7 1 5 1182.81 1475.99 68.11 o 0.766453
6 5 0 176.63 234.34 11.88 o 0.766174
3 5 2 233.03 316.37 16.96 o 0.765765
