#------------------------------------------------------------------------------
#$Date: 2016-06-17 04:50:27 +0300 (Fri, 17 Jun 2016) $
#$Revision: 183633 $
#$URL: file:///home/coder/svn-repositories/cod/cif/2/10/75/2107512.cif $
#------------------------------------------------------------------------------
#
# This file is available in the Crystallography Open Database (COD),
# http://www.crystallography.net/. The original data for this entry
# were provided by IUCr Journals, http://journals.iucr.org/.
#
# The file may be used within the scientific community so long as
# proper attribution is given to the journal article from which the
# data were obtained.
#
data_2107512
loop_
_publ_author_name
'Sist, Mattia'
'Zhang, Jiawei'
'Brummerstedt Iversen, Bo'
_publ_section_title
;
 Crystal structure and phase transition of thermoelectric SnSe
;
_journal_coeditor_code           GW5043
_journal_issue                   3
_journal_name_full               'Acta Crystallographica Section B'
_journal_page_first              310
_journal_page_last               316
_journal_paper_doi               10.1107/S2052520616003334
_journal_volume                  72
_journal_year                    2016
_chemical_formula_moiety         'Se1 Sn0.9816'
_chemical_formula_sum            'Se Sn0.9816'
_chemical_formula_weight         195.50
_chemical_name_common            'Tin Selenide'
_space_group_IT_number           62
_symmetry_cell_setting           orthorhombic
_symmetry_Int_Tables_number      62
_symmetry_space_group_name_Hall  '-P 2ac 2n'
_symmetry_space_group_name_H-M   'P n m a'
_cell_angle_alpha                90
_cell_angle_beta                 90
_cell_angle_gamma                90
_cell_formula_units_Z            4
_cell_length_a                   11.51746(14)
_cell_length_b                   4.16192(6)
_cell_length_c                   4.43267(8)
_cell_measurement_temperature    370(5)
_cell_volume                     212.479(6)
_computing_structure_refinement  'Jana2006, (Petricek,2014)'
_diffrn_ambient_temperature      370(5)
_diffrn_detector_type            'Image plate'
_diffrn_measurement_device_type  BL44B2
_diffrn_radiation_probe          x-ray
_diffrn_radiation_type           Synchrotron,monochromatic
_diffrn_radiation_wavelength     0.50023
_diffrn_source_type              'Spring8, BL44B2 beamline'
_exptl_absorpt_coefficient_mu    11.188
_exptl_absorpt_correction_type   none
_exptl_crystal_density_diffrn    6.111
_exptl_crystal_F_000             332.3
_pd_char_colour                  metallic_grey
_pd_meas_2theta_range_inc        0.01
_pd_meas_2theta_range_max        78.010
_pd_meas_2theta_range_min        0.010
_pd_meas_number_of_points        7801
_pd_proc_2theta_range_inc        0.01
_pd_proc_2theta_range_max        38.28
_pd_proc_2theta_range_min        3.89
_pd_proc_ls_background_function  '8 Chebyshev polynoms'
_pd_proc_ls_pref_orient_corr     none
_pd_proc_ls_profile_function     Pseudo-Voigt
_pd_proc_ls_prof_R_factor        0.0176
_pd_proc_ls_prof_wR_expected     0.0088
_pd_proc_ls_prof_wR_factor       0.0242
_pd_spec_mounting                capillary
_pd_spec_mount_mode              transmission
_refine_ls_goodness_of_fit_all   2.76
_refine_ls_number_constraints    0
_refine_ls_number_parameters     32
_refine_ls_number_restraints     0
_refine_ls_R_factor_all          0.0154
_refine_ls_R_factor_gt           0.0154
_refine_ls_shift/su_max          0.0166
_refine_ls_shift/su_mean         0.0041
_refine_ls_weighting_scheme      sigma
_refine_ls_wR_factor_all         0.0120
_refine_ls_wR_factor_gt          0.0120
_cod_data_source_file            gw5043sup1.cif
_cod_data_source_block           370
_cod_depositor_comments
;
The following automatic conversions were performed:

'_diffrn_radiation_probe' value 'X-ray' changed to 'x-ray' according
to
/usr/data/users/saulius/crontab/automatic-downloads/rss-feeds/IUCr/lib/dictionaries/cif_core.dic
dictionary named 'cif_core.dic' version 2.4.2 from 2011-04-26.

Automatic conversion script
Id: cif_fix_values 4268 2015-11-12 08:31:59Z antanas 

 Adding full bibliography for 2107508--2107520.cif.
;
_cod_original_formula_sum        'Se1 Sn0.9816'
_cod_database_code               2107512
_cod_database_fobs_code          2107512
loop_
_space_group_symop_id
_space_group_symop_operation_xyz
1 x,y,z
2 -x+1/2,-y,z+1/2
3 -x,y+1/2,-z
4 x+1/2,-y+1/2,-z+1/2
5 -x,-y,-z
6 x+1/2,y,-z+1/2
7 x,-y+1/2,z
8 -x+1/2,y+1/2,z+1/2
loop_
_atom_site_label
_atom_site_type_symbol
_atom_site_fract_x
_atom_site_fract_y
_atom_site_fract_z
_atom_site_adp_type
_atom_site_U_iso_or_equiv
_atom_site_site_symmetry_multiplicity
_atom_site_occupancy
_atom_site_calc_flag
Sn Sn 0.11879(4) 0.25 0.10015(10) Uani 0.0201(2) 4 0.9816 d
Se Se 0.85505(5) 0.25 0.48222(13) Uani 0.0165(3) 4 1 d
loop_
_atom_site_aniso_label
_atom_site_aniso_type_symbol
_atom_site_aniso_U_11
_atom_site_aniso_U_22
_atom_site_aniso_U_33
_atom_site_aniso_U_12
_atom_site_aniso_U_13
_atom_site_aniso_U_23
Sn Sn 0.0197(4) 0.0189(4) 0.0218(4) 0 -0.0055(4) 0
Se Se 0.0172(5) 0.0160(5) 0.0162(5) 0 -0.0023(4) 0
loop_
_atom_type_symbol
_atom_type_scat_dispersion_real
_atom_type_scat_dispersion_imag
_atom_type_scat_source
Se 0.2899 1.2209 'International Tables Vol C tables 4.2.6.8 and 6.1.1.1'
Sn -1.5316 0.7679 'International Tables Vol C tables 4.2.6.8 and 6.1.1.1'
loop_
_geom_angle_atom_site_label_1
_geom_angle_atom_site_label_2
_geom_angle_atom_site_label_3
_geom_angle_site_symmetry_1
_geom_angle_site_symmetry_2
_geom_angle_site_symmetry_3
_geom_angle
Se Sn Se 4_455 1_555 3_656 88.928
Se Sn Se 4_455 1_555 3_655 78.884
Se Sn Se 3_645 1_555 3_655 77.368
Se Sn Se 3_646 1_555 3_656 95.943
Se Sn Se 3_656 1_555 3_655 92.198
Se Sn Se 4_455 1_555 1_455 158.501
Se Sn Sn 4_455 1_555 3_545 136.936
loop_
_geom_bond_atom_site_label_1
_geom_bond_atom_site_label_2
_geom_bond_site_symmetry_1
_geom_bond_site_symmetry_2
_geom_bond_distance
Sn Se 1_555 4_455 2.745
Sn Se 1_555 3_656 2.801
Sn Se 1_555 3_655 3.329
Sn Se 1_555 1_455 3.478
Sn Sn 1_555 3_545 3.551
Sn Se 1_555 1_454 4.090
loop_
_pd_proc_point_id
_pd_proc_2theta_corrected
_pd_proc_intensity_net
_pd_calc_intensity_net
_pd_proc_ls_weight
1 3.9000 7293.00 7295.60 85.00
2 3.9100 7371.00 7296.62 86.00
3 3.9200 7358.00 7297.65 86.00
4 3.9300 7364.00 7298.70 86.00
5 3.9400 7382.00 7299.75 86.00
6 3.9500 7411.00 7300.81 86.00
7 3.9600 7327.00 7301.89 86.00
8 3.9700 7359.00 7302.97 86.00
9 3.9800 7336.00 7304.06 86.00
10 3.9900 7353.00 7305.16 86.00
11 4.0000 7375.00 7306.27 86.00
12 4.0100 7448.00 7307.39 86.00
13 4.0200 7365.00 7308.52 86.00
14 4.0300 7403.00 7309.66 86.00
15 4.0400 7364.00 7310.81 86.00
16 4.0500 7339.00 7311.96 86.00
17 4.0600 7392.00 7313.13 86.00
18 4.0700 7431.00 7314.30 86.00
19 4.0800 7368.00 7315.48 86.00
20 4.0900 7404.00 7316.67 86.00
21 4.1000 7390.00 7317.87 86.00
22 4.1100 7401.00 7319.08 86.00
23 4.1200 7439.00 7320.29 86.00
24 4.1300 7412.00 7321.52 86.00
25 4.1400 7378.00 7322.75 86.00
26 4.1500 7378.00 7323.99 86.00
27 4.1600 7336.00 7325.24 86.00
28 4.1700 7382.00 7326.50 86.00
29 4.1800 7424.00 7327.77 86.00
30 4.1900 7412.00 7329.04 86.00
31 4.2000 7354.00 7330.32 86.00
32 4.2100 7363.00 7331.61 86.00
33 4.2200 7363.00 7332.91 86.00
34 4.2300 7359.00 7334.21 86.00
35 4.2400 7458.00 7335.53 86.00
36 4.2500 7363.00 7336.85 86.00
37 4.2600 7339.00 7338.18 86.00
38 4.2700 7406.00 7339.52 86.00
39 4.2800 7382.00 7340.86 86.00
40 4.2900 7379.00 7342.22 86.00
41 4.3000 7420.00 7343.58 86.00
42 4.3100 7397.00 7344.95 86.00
43 4.3200 7338.00 7346.32 86.00
44 4.3300 7379.00 7347.71 86.00
45 4.3400 7373.00 7349.10 86.00
46 4.3500 7361.00 7350.50 86.00
47 4.3600 7434.00 7351.91 86.00
48 4.3700 7401.00 7353.33 86.00
49 4.3800 7383.00 7354.76 86.00
50 4.3900 7391.00 7356.19 86.00
51 4.4000 7411.00 7357.64 86.00
52 4.4100 7395.00 7359.09 86.00
53 4.4200 7383.00 7360.55 86.00
54 4.4300 7395.00 7362.02 86.00
55 4.4400 7351.00 7363.50 86.00
56 4.4500 7412.00 7364.99 86.00
57 4.4600 7374.00 7366.49 86.00
58 4.4700 7407.00 7368.00 86.00
59 4.4800 7398.00 7369.52 86.00
60 4.4900 7427.00 7371.05 86.00
61 4.5000 7352.00 7372.59 86.00
62 4.5100 7428.00 7374.15 86.00
63 4.5200 7457.00 7375.71 86.00
64 4.5300 7393.00 7377.29 86.00
65 4.5400 7409.00 7378.89 86.00
66 4.5500 7463.00 7380.49 86.00
67 4.5600 7389.00 7382.12 86.00
68 4.5700 7401.00 7383.76 86.00
69 4.5800 7420.00 7385.41 86.00
70 4.5900 7445.00 7387.09 86.00
71 4.6000 7443.00 7388.79 86.00
72 4.6100 7478.00 7390.50 86.00
73 4.6200 7439.00 7392.25 86.00
74 4.6300 7471.00 7394.02 86.00
75 4.6400 7480.00 7395.82 86.00
76 4.6500 7560.00 7397.65 87.00
77 4.6600 7583.00 7399.51 87.00
78 4.6700 7586.00 7401.42 87.00
79 4.6800 7510.00 7403.37 87.00
80 4.6900 7507.00 7405.37 87.00
81 4.7000 7514.00 7407.43 87.00
82 4.7100 7466.00 7409.55 86.00
83 4.7200 7533.00 7411.75 87.00
84 4.7300 7444.00 7414.04 86.00
85 4.7400 7448.00 7416.42 86.00
86 4.7500 7438.00 7418.92 86.00
87 4.7600 7443.00 7421.56 86.00
88 4.7700 7437.00 7424.37 86.00
89 4.7800 7460.00 7427.37 86.00
90 4.7900 7468.00 7430.61 86.00
91 4.8000 7445.00 7434.14 86.00
92 4.8100 7436.00 7438.03 86.00
93 4.8200 7438.00 7442.37 86.00
94 4.8300 7448.00 7447.29 86.00
95 4.8400 7468.00 7452.94 86.00
96 4.8500 7519.00 7459.55 87.00
97 4.8600 7459.00 7467.44 86.00
98 4.8700 7551.00 7477.09 87.00
99 4.8800 7526.00 7489.18 87.00
100 4.8900 7578.00 7505.64 87.00
101 4.9000 7646.00 7526.71 87.00
102 4.9100 7736.00 7557.96 88.00
103 4.9200 7874.00 7617.25 89.00
104 4.9300 8159.00 7773.06 90.00
105 4.9400 8643.00 8218.90 93.00
106 4.9500 9556.00 9280.01 98.00
107 4.9600 11074.00 11107.90 105.00
108 4.9700 12642.00 13116.70 112.00
109 4.9800 13104.00 13874.20 114.00
110 4.9900 12033.00 12622.50 110.00
111 5.0000 10132.00 10550.60 101.00
112 5.0100 8676.00 8919.17 93.00
113 5.0200 8027.00 8062.78 90.00
114 5.0300 7704.00 7728.84 88.00
115 5.0400 7549.00 7615.28 87.00
116 5.0500 7490.00 7570.44 87.00
117 5.0600 7449.00 7546.03 86.00
118 5.0700 7418.00 7529.91 86.00
119 5.0800 7454.00 7518.57 86.00
120 5.0900 7443.00 7510.40 86.00
121 5.1000 7403.00 7504.45 86.00
122 5.1100 7419.00 7500.11 86.00
123 5.1200 7411.00 7496.95 86.00
124 5.1300 7382.00 7494.68 86.00
125 5.1400 7415.00 7493.10 86.00
126 5.1500 7398.00 7492.04 86.00
127 5.1600 7405.00 7491.41 86.00
128 5.1700 7425.00 7491.12 86.00
129 5.1800 7422.00 7491.09 86.00
130 5.1900 7416.00 7491.30 86.00
131 5.2000 7384.00 7491.69 86.00
132 5.2100 7381.00 7492.23 86.00
133 5.2200 7357.00 7492.90 86.00
134 5.2300 7360.00 7493.68 86.00
135 5.2400 7374.00 7494.56 86.00
136 5.2500 7365.00 7495.51 86.00
137 5.2600 7404.00 7496.54 86.00
138 5.2700 7422.00 7497.62 86.00
139 5.2800 7398.00 7498.76 86.00
140 5.2900 7381.00 7499.94 86.00
141 5.3000 7413.00 7501.16 86.00
142 5.3100 7417.00 7502.42 86.00
143 5.3200 7421.00 7503.70 86.00
144 5.3300 7394.00 7505.02 86.00
145 5.3400 7382.00 7506.36 86.00
146 5.3500 7358.00 7507.72 86.00
147 5.3600 7372.00 7509.10 86.00
148 5.3700 7405.00 7510.50 86.00
149 5.3800 7464.00 7511.92 86.00
150 5.3900 7438.00 7513.35 86.00
151 5.4000 7392.00 7514.79 86.00
152 5.4100 7446.00 7516.24 86.00
153 5.4200 7380.00 7517.71 86.00
154 5.4300 7427.00 7519.18 86.00
155 5.4400 7411.00 7520.67 86.00
156 5.4500 7431.00 7522.16 86.00
157 5.4600 7372.00 7523.66 86.00
158 5.4700 7395.00 7525.16 86.00
159 5.4800 7390.00 7526.67 86.00
160 5.4900 7414.00 7528.19 86.00
161 5.5000 7428.00 7529.71 86.00
162 5.5100 7461.00 7531.24 86.00
163 5.5200 7471.00 7532.77 86.00
164 5.5300 7459.00 7534.31 86.00
165 5.5400 7410.00 7535.84 86.00
166 5.5500 7443.00 7537.38 86.00
167 5.5600 7443.00 7538.93 86.00
168 5.5700 7461.00 7540.48 86.00
169 5.5800 7450.00 7542.02 86.00
170 5.5900 7438.00 7543.58 86.00
171 5.6000 7454.00 7545.13 86.00
172 5.6100 7417.00 7546.68 86.00
173 5.6200 7477.00 7548.24 86.00
174 5.6300 7462.00 7549.80 86.00
175 5.6400 7454.00 7551.36 86.00
176 5.6500 7464.00 7552.92 86.00
177 5.6600 7487.00 7554.48 87.00
178 5.6700 7452.00 7556.04 86.00
179 5.6800 7475.00 7557.60 86.00
180 5.6900 7493.00 7559.17 87.00
181 5.7000 7446.00 7560.73 86.00
182 5.7100 7453.00 7562.30 86.00
183 5.7200 7426.00 7563.86 86.00
184 5.7300 7418.00 7565.43 86.00
185 5.7400 7419.00 7566.99 86.00
186 5.7500 7441.00 7568.56 86.00
187 5.7600 7421.00 7570.13 86.00
188 5.7700 7503.00 7571.69 87.00
189 5.7800 7457.00 7573.26 86.00
190 5.7900 7475.00 7574.83 86.00
191 5.8000 7490.00 7576.39 87.00
192 5.8100 7484.00 7577.96 87.00
193 5.8200 7472.00 7579.53 86.00
194 5.8300 7515.00 7581.09 87.00
195 5.8400 7511.00 7582.66 87.00
196 5.8500 7463.00 7584.22 86.00
197 5.8600 7440.00 7585.79 86.00
198 5.8700 7493.00 7587.35 87.00
199 5.8800 7460.00 7588.92 86.00
200 5.8900 7522.00 7590.49 87.00
201 5.9000 7527.00 7592.05 87.00
202 5.9100 7519.00 7593.62 87.00
203 5.9200 7583.00 7595.18 87.00
204 5.9300 7508.00 7596.75 87.00
205 5.9400 7436.00 7598.31 86.00
206 5.9500 7467.00 7599.87 86.00
207 5.9600 7481.00 7601.44 86.00
208 5.9700 7482.00 7603.00 86.00
209 5.9800 7492.00 7604.57 87.00
210 5.9900 7499.00 7606.13 87.00
211 6.0000 7493.00 7607.70 87.00
212 6.0100 7502.00 7609.27 87.00
213 6.0200 7482.00 7610.83 86.00
214 6.0300 7479.00 7612.40 86.00
215 6.0400 7541.00 7613.97 87.00
216 6.0500 7503.00 7615.53 87.00
217 6.0600 7470.00 7617.10 86.00
218 6.0700 7514.00 7618.67 87.00
219 6.0800 7520.00 7620.24 87.00
220 6.0900 7513.00 7621.81 87.00
221 6.1000 7526.00 7623.39 87.00
222 6.1100 7534.00 7624.96 87.00
223 6.1200 7496.00 7626.54 87.00
224 6.1300 7574.00 7628.12 87.00
225 6.1400 7561.00 7629.70 87.00
226 6.1500 7519.00 7631.28 87.00
227 6.1600 7577.00 7632.87 87.00
228 6.1700 7557.00 7634.45 87.00
229 6.1800 7530.00 7636.04 87.00
230 6.1900 7552.00 7637.64 87.00
231 6.2000 7554.00 7639.24 87.00
232 6.2100 7533.00 7647.85 87.00
233 6.2200 7567.00 7649.53 87.00
234 6.2300 7611.00 7650.82 87.00
235 6.2400 7560.00 7652.51 87.00
236 6.2500 7583.00 7654.22 87.00
237 6.2600 7592.00 7655.93 87.00
238 6.2700 7574.00 7657.65 87.00
239 6.2800 7573.00 7659.38 87.00
240 6.2900 7551.00 7661.12 87.00
241 6.3000 7530.00 7662.87 87.00
242 6.3100 7581.00 7664.62 87.00
243 6.3200 7584.00 7666.39 87.00
244 6.3300 7590.00 7668.18 87.00
245 6.3400 7586.00 7669.97 87.00
246 6.3500 7619.00 7671.78 87.00
247 6.3600 7545.00 7673.61 87.00
248 6.3700 7581.00 7675.46 87.00
249 6.3800 7637.00 7677.32 87.00
250 6.3900 7615.00 7679.20 87.00
251 6.4000 7622.00 7681.11 87.00
252 6.4100 7623.00 7683.03 87.00
253 6.4200 7576.00 7684.99 87.00
254 6.4300 7610.00 7686.97 87.00
255 6.4400 7621.00 7688.98 87.00
256 6.4500 7577.00 7691.03 87.00
257 6.4600 7628.00 7693.11 87.00
258 6.4700 7633.00 7695.23 87.00
259 6.4800 7607.00 7697.40 87.00
260 6.4900 7657.00 7699.61 88.00
261 6.5000 7605.00 7701.87 87.00
262 6.5100 7639.00 7704.19 87.00
263 6.5200 7636.00 7706.58 87.00
264 6.5300 7662.00 7709.03 88.00
265 6.5400 7614.00 7711.56 87.00
266 6.5500 7679.00 7714.18 88.00
267 6.5600 7642.00 7716.89 87.00
268 6.5700 7630.00 7719.70 87.00
269 6.5800 7678.00 7722.63 88.00
270 6.5900 7687.00 7725.69 88.00
271 6.6000 7670.00 7728.90 88.00
272 6.6100 7718.00 7732.27 88.00
273 6.6200 7644.00 7735.83 87.00
274 6.6300 7681.00 7739.61 88.00
275 6.6400 7711.00 7743.62 88.00
276 6.6500 7658.00 7747.90 88.00
277 6.6600 7658.00 7752.50 88.00
278 6.6700 7668.00 7757.47 88.00
279 6.6800 7683.00 7762.85 88.00
280 6.6900 7704.00 7768.72 88.00
281 6.7000 7749.00 7775.16 88.00
282 6.7100 7750.00 7784.68 88.00
283 6.7200 7726.00 7792.62 88.00
284 6.7300 7775.00 7801.51 88.00
285 6.7400 7799.00 7811.55 88.00
286 6.7500 7770.00 7822.97 88.00
287 6.7600 7783.00 7836.10 88.00
288 6.7700 7845.00 7851.33 89.00
289 6.7800 7791.00 7869.20 88.00
290 6.7900 7858.00 7890.40 89.00
291 6.8000 7847.00 7915.96 89.00
292 6.8100 7883.00 7947.41 89.00
293 6.8200 7950.00 7987.47 89.00
294 6.8300 8048.00 8041.60 90.00
295 6.8400 8103.00 8121.36 90.00
296 6.8500 8318.00 8250.30 91.00
297 6.8600 8550.00 8471.41 92.00
298 6.8700 8933.00 8851.35 95.00
299 6.8800 9534.00 9471.75 98.00
300 6.8900 10394.00 10399.50 102.00
301 6.9000 11433.00 11636.20 107.00
302 6.9100 12954.00 13060.50 114.00
303 6.9200 14269.00 14370.60 119.00
304 6.9300 15163.00 15088.50 123.00
305 6.9400 14982.00 14840.70 122.00
306 6.9500 13992.00 13767.50 118.00
307 6.9600 12489.00 12353.00 112.00
308 6.9700 11241.00 10999.30 106.00
309 6.9800 10216.00 9912.61 101.00
310 6.9900 9475.00 9145.77 97.00
311 7.0000 9002.00 8657.78 95.00
312 7.0100 8687.00 8369.20 93.00
313 7.0200 8432.00 8203.57 92.00
314 7.0300 8281.00 8105.94 91.00
315 7.0400 8228.00 8043.85 91.00
316 7.0500 8074.00 8000.59 90.00
317 7.0600 8042.00 7968.20 90.00
318 7.0700 8013.00 7942.87 90.00
319 7.0800 7937.00 7922.58 89.00
320 7.0900 7974.00 7906.10 89.00
321 7.1000 7934.00 7892.59 89.00
322 7.1100 7905.00 7881.44 89.00
323 7.1200 7888.00 7872.19 89.00
324 7.1300 7903.00 7864.49 89.00
325 7.1400 7878.00 7858.06 89.00
326 7.1500 7876.00 7852.69 89.00
327 7.1600 7933.00 7848.20 89.00
328 7.1700 7874.00 7844.45 89.00
329 7.1800 7932.00 7841.34 89.00
330 7.1900 7888.00 7838.77 89.00
331 7.2000 7906.00 7836.67 89.00
332 7.2100 7917.00 7834.97 89.00
333 7.2200 7882.00 7833.63 89.00
334 7.2300 7865.00 7832.60 89.00
335 7.2400 7870.00 7831.85 89.00
336 7.2500 7863.00 7831.34 89.00
337 7.2600 7851.00 7831.05 89.00
338 7.2700 7896.00 7830.96 89.00
339 7.2800 7860.00 7831.05 89.00
340 7.2900 7876.00 7831.30 89.00
341 7.3000 7908.00 7831.70 89.00
342 7.3100 7928.00 7832.24 89.00
343 7.3200 7856.00 7832.91 89.00
344 7.3300 7888.00 7833.69 89.00
345 7.3400 7848.00 7834.59 89.00
346 7.3500 7898.00 7835.60 89.00
347 7.3600 7907.00 7836.71 89.00
348 7.3700 7892.00 7837.92 89.00
349 7.3800 7856.00 7839.21 89.00
350 7.3900 7950.00 7840.61 89.00
351 7.4000 7896.00 7842.09 89.00
352 7.4100 7919.00 7843.65 89.00
353 7.4200 7972.00 7845.31 89.00
354 7.4300 8024.00 7847.05 90.00
355 7.4400 7918.00 7848.88 89.00
356 7.4500 7968.00 7850.80 89.00
357 7.4600 7963.00 7852.80 89.00
358 7.4700 7973.00 7854.89 89.00
359 7.4800 7978.00 7857.08 89.00
360 7.4900 7979.00 7859.36 89.00
361 7.5000 8016.00 7861.74 90.00
362 7.5100 8085.00 7864.22 90.00
363 7.5200 8119.00 7866.80 90.00
364 7.5300 8160.00 7869.49 90.00
365 7.5400 8223.00 7872.30 91.00
366 7.5500 8154.00 7875.22 90.00
367 7.5600 8102.00 7878.27 90.00
368 7.5700 8098.00 7881.46 90.00
369 7.5800 8103.00 7884.78 90.00
370 7.5900 8008.00 7888.25 89.00
371 7.6000 8056.00 7891.88 90.00
372 7.6100 7996.00 7895.67 89.00
373 7.6200 7967.00 7899.64 89.00
374 7.6300 7995.00 7903.81 89.00
375 7.6400 7977.00 7908.17 89.00
376 7.6500 8003.00 7912.76 89.00
377 7.6600 8049.00 7917.58 90.00
378 7.6700 8056.00 7922.65 90.00
379 7.6800 8042.00 7928.00 90.00
380 7.6900 8060.00 7933.64 90.00
381 7.7000 8040.00 7939.60 90.00
382 7.7100 8059.00 7945.91 90.00
383 7.7200 8103.00 7952.60 90.00
384 7.7300 8115.00 7959.69 90.00
385 7.7400 8121.00 7967.24 90.00
386 7.7500 8077.00 7975.28 90.00
387 7.7600 8103.00 7993.88 90.00
388 7.7700 8092.00 8003.17 90.00
389 7.7800 8108.00 8013.11 90.00
390 7.7900 8119.00 8023.78 90.00
391 7.8000 8116.00 8035.25 90.00
392 7.8100 8140.00 8047.61 90.00
393 7.8200 8185.00 8060.96 90.00
394 7.8300 8214.00 8075.41 91.00
395 7.8400 8243.00 8091.12 91.00
396 7.8500 8243.00 8108.22 91.00
397 7.8600 8247.00 8126.89 91.00
398 7.8700 8286.00 8147.36 91.00
399 7.8800 8293.00 8169.86 91.00
400 7.8900 8329.00 8194.68 91.00
401 7.9000 8333.00 8222.18 91.00
402 7.9100 8426.00 8252.75 92.00
403 7.9200 8378.00 8286.89 92.00
404 7.9300 8415.00 8325.21 92.00
405 7.9400 8462.00 8368.41 92.00
406 7.9500 8528.00 8417.39 92.00
407 7.9600 8634.00 8473.24 93.00
408 7.9700 8696.00 8537.33 93.00
409 7.9800 8730.00 8611.37 93.00
410 7.9900 8829.00 8697.56 94.00
411 8.0000 8949.00 8798.71 95.00
412 8.0100 9109.00 8918.50 95.00
413 8.0200 9293.00 9061.80 96.00
414 8.0300 9517.00 9235.21 98.00
415 8.0400 9747.00 9448.15 99.00
416 8.0500 10171.00 9766.78 101.00
417 8.0600 10699.00 10115.20 103.00
418 8.0700 11423.00 10598.20 107.00
419 8.0800 12592.00 11331.80 112.00
420 8.0900 14111.00 12552.20 119.00
421 8.1000 16390.00 14683.00 128.00
422 8.1100 20026.00 18351.10 142.00
423 8.1200 25607.00 24254.00 160.00
424 8.1300 33281.00 32820.40 182.00
425 8.1400 43704.00 43696.40 209.00
426 8.1500 54751.00 55170.40 234.00
427 8.1600 62590.00 63692.70 250.00
428 8.1700 63158.00 65007.90 251.00
429 8.1800 56004.00 58307.40 237.00
430 8.1900 44525.00 47283.70 211.00
431 8.2000 33571.00 35977.20 183.00
432 8.2100 25091.00 26629.30 158.00
433 8.2200 19293.00 19945.30 139.00
434 8.2300 15741.00 15678.00 125.00
435 8.2400 13405.00 13165.80 116.00
436 8.2500 11985.00 11736.30 109.00
437 8.2600 11036.00 10901.40 105.00
438 8.2700 10367.00 10374.20 102.00
439 8.2800 9882.00 10009.60 99.00
440 8.2900 9604.00 9739.65 98.00
441 8.3000 9396.00 9532.22 97.00
442 8.3100 9243.00 9370.48 96.00
443 8.3200 9157.00 9244.31 96.00
444 8.3300 9068.00 9147.08 95.00
445 8.3400 8970.00 9074.34 95.00
446 8.3500 8975.00 9023.25 95.00
447 8.3600 8981.00 8992.29 95.00
448 8.3700 8987.00 8981.18 95.00
449 8.3800 9045.00 8990.96 95.00
450 8.3900 9156.00 9024.39 96.00
451 8.4000 9263.00 9087.27 96.00
452 8.4100 9486.00 9192.15 97.00
453 8.4200 9757.00 9368.31 99.00
454 8.4300 10210.00 9683.22 101.00
455 8.4400 11015.00 10276.10 105.00
456 8.4500 12214.00 11384.10 111.00
457 8.4600 14027.00 13312.80 118.00
458 8.4700 16742.00 16296.10 129.00
459 8.4800 20496.00 20250.20 143.00
460 8.4900 24427.00 24473.80 156.00
461 8.5000 27479.00 27401.20 166.00
462 8.5100 27335.00 27260.10 165.00
463 8.5200 24221.00 24143.00 156.00
464 8.5300 19876.00 19872.80 141.00
465 8.5400 15953.00 15980.90 126.00
466 8.5500 13207.00 13055.30 115.00
467 8.5600 11492.00 11172.80 107.00
468 8.5700 10374.00 10086.20 102.00
469 8.5800 9695.00 9491.75 98.00
470 8.5900 9317.00 9158.82 97.00
471 8.6000 9031.00 8954.33 95.00
472 8.6100 8855.00 8814.06 94.00
473 8.6200 8812.00 8709.75 94.00
474 8.6300 8670.00 8628.61 93.00
475 8.6400 8564.00 8563.94 93.00
476 8.6500 8529.00 8511.62 92.00
477 8.6600 8494.00 8468.82 92.00
478 8.6700 8463.00 8433.50 92.00
479 8.6800 8496.00 8404.16 92.00
480 8.6900 8488.00 8379.65 92.00
481 8.7000 8437.00 8359.10 92.00
482 8.7100 8474.00 8341.84 92.00
483 8.7200 8429.00 8327.35 92.00
484 8.7300 8391.00 8315.20 92.00
485 8.7400 8387.00 8305.06 92.00
486 8.7500 8386.00 8296.67 92.00
487 8.7600 8338.00 8289.80 91.00
488 8.7700 8417.00 8284.27 92.00
489 8.7800 8394.00 8279.94 92.00
490 8.7900 8380.00 8276.69 92.00
491 8.8000 8405.00 8274.42 92.00
492 8.8100 8354.00 8273.04 91.00
493 8.8200 8361.00 8272.50 91.00
494 8.8300 8412.00 8272.73 92.00
495 8.8400 8414.00 8273.68 92.00
496 8.8500 8416.00 8275.32 92.00
497 8.8600 8416.00 8277.62 92.00
498 8.8700 8459.00 8280.56 92.00
499 8.8800 8400.00 8284.11 92.00
500 8.8900 8487.00 8288.31 92.00
501 8.9000 8484.00 8293.07 92.00
502 8.9100 8465.00 8298.43 92.00
503 8.9200 8478.00 8304.38 92.00
504 8.9300 8431.00 8310.93 92.00
505 8.9400 8394.00 8318.09 92.00
506 8.9500 8446.00 8325.88 92.00
507 8.9600 8475.00 8334.30 92.00
508 8.9700 8457.00 8343.38 92.00
509 8.9800 8512.00 8352.31 92.00
510 8.9900 8516.00 8362.79 92.00
511 9.0000 8446.00 8374.02 92.00
512 9.0100 8552.00 8386.04 92.00
513 9.0200 8538.00 8398.88 92.00
514 9.0300 8457.00 8412.59 92.00
515 9.0400 8573.00 8427.24 93.00
516 9.0500 8557.00 8442.88 93.00
517 9.0600 8558.00 8459.59 93.00
518 9.0700 8589.00 8477.44 93.00
519 9.0800 8606.00 8496.53 93.00
520 9.0900 8657.00 8516.95 93.00
521 9.1000 8674.00 8538.83 93.00
522 9.1100 8712.00 8562.30 93.00
523 9.1200 8715.00 8587.50 93.00
524 9.1300 8734.00 8614.60 93.00
525 9.1400 8728.00 8643.81 93.00
526 9.1500 8751.00 8675.35 94.00
527 9.1600 8784.00 8709.48 94.00
528 9.1700 8842.00 8746.51 94.00
529 9.1800 8844.00 8786.79 94.00
530 9.1900 8898.00 8830.74 94.00
531 9.2000 8873.00 8878.85 94.00
532 9.2100 8926.00 8931.71 94.00
533 9.2200 9054.00 8990.04 95.00
534 9.2300 9091.00 9054.66 95.00
535 9.2400 9076.00 9126.62 95.00
536 9.2500 9165.00 9207.20 96.00
537 9.2600 9276.00 9297.97 96.00
538 9.2700 9320.00 9400.91 97.00
539 9.2800 9398.00 9518.53 97.00
540 9.2900 9468.00 9654.03 97.00
541 9.3000 9543.00 9811.63 98.00
542 9.3100 9816.00 9996.85 99.00
543 9.3200 9946.00 10217.10 100.00
544 9.3300 10265.00 10482.60 101.00
545 9.3400 10597.00 10807.80 103.00
546 9.3500 11065.00 11214.10 105.00
547 9.3600 11547.00 11738.40 107.00
548 9.3700 12527.00 12455.30 112.00
549 9.3800 13889.00 13539.10 118.00
550 9.3900 16166.00 15391.00 127.00
551 9.4000 19929.00 18815.70 141.00
552 9.4100 25923.00 25084.80 161.00
553 9.4200 35534.00 35581.80 189.00
554 9.4300 49656.00 50806.60 223.00
555 9.4400 67394.00 68918.70 260.00
556 9.4500 82635.00 84082.30 287.00
557 9.4600 86605.00 87376.80 294.00
558 9.4700 75702.00 76314.50 275.00
559 9.4800 57399.00 58641.10 240.00
560 9.4900 40825.00 42008.10 202.00
561 9.5000 29407.00 29723.50 171.00
562 9.5100 22459.00 22066.50 150.00
563 9.5200 18454.00 17869.70 136.00
564 9.5300 15994.00 15739.50 126.00
565 9.5400 14404.00 14672.00 120.00
566 9.5500 13510.00 14123.90 116.00
567 9.5600 13055.00 13851.90 114.00
568 9.5700 12825.00 13756.90 113.00
569 9.5800 12798.00 13798.40 113.00
570 9.5900 12847.00 13959.60 113.00
571 9.6000 13013.00 14235.50 114.00
572 9.6100 13394.00 14629.90 116.00
573 9.6200 13859.00 15154.00 118.00
574 9.6300 14514.00 15827.90 120.00
575 9.6400 15361.00 16681.70 124.00
576 9.6500 16486.00 17759.30 128.00
577 9.6600 17808.00 19124.40 133.00
578 9.6700 19844.00 20873.10 141.00
579 9.6800 22585.00 23164.90 150.00
580 9.6900 26748.00 26312.30 164.00
581 9.7000 33090.00 31020.40 182.00
582 9.7100 43177.00 38909.00 208.00
583 9.7200 58614.00 53304.20 242.00
584 9.7300 84501.00 79760.20 291.00
585 9.7400 126228.00 125016.00 355.00
586 9.7500 190438.00 193232.00 436.00
587 9.7600 276928.00 279750.00 526.00
588 9.7700 365319.00 363356.00 604.00
589 9.7800 406606.00 403130.00 638.00
590 9.7900 378324.00 370365.00 615.00
591 9.8000 290467.00 289416.00 539.00
592 9.8100 198495.00 202298.00 446.00
593 9.8200 130175.00 132329.00 361.00
594 9.8300 87012.00 85493.20 295.00
595 9.8400 60757.00 58261.50 246.00
596 9.8500 46333.00 43999.90 215.00
597 9.8600 37839.00 36993.70 195.00
598 9.8700 33505.00 33698.20 183.00
599 9.8800 32053.00 32286.90 179.00
600 9.8900 32461.00 31947.70 180.00
601 9.9000 34619.00 32834.60 186.00
602 9.9100 40280.00 36705.60 201.00
603 9.9200 52192.00 47859.40 228.00
604 9.9300 75817.00 73392.80 275.00
605 9.9400 118838.00 119728.00 345.00
606 9.9500 183246.00 183787.00 428.00
607 9.9600 243816.00 242156.00 494.00
608 9.9700 255927.00 252269.00 506.00
609 9.9800 208911.00 203800.00 457.00
610 9.9900 136171.00 136555.00 369.00
611 10.0000 78704.00 81939.20 281.00
612 10.0100 46737.00 48436.50 216.00
613 10.0200 30598.00 31516.40 175.00
614 10.0300 22505.00 23690.90 150.00
615 10.0400 18132.00 19814.50 135.00
616 10.0500 15497.00 17514.30 124.00
617 10.0600 13978.00 15923.30 118.00
618 10.0700 12867.00 14733.10 113.00
619 10.0800 12072.00 13808.90 110.00
620 10.0900 11508.00 13073.60 107.00
621 10.1000 11087.00 12477.50 105.00
622 10.1100 10738.00 11986.40 104.00
623 10.1200 10584.00 11576.20 103.00
624 10.1300 10389.00 11222.20 102.00
625 10.1400 10146.00 10925.60 101.00
626 10.1500 9934.00 10669.70 100.00
627 10.1600 9814.00 10465.80 99.00
628 10.1700 9696.00 10270.60 98.00
629 10.1800 9635.00 10108.40 98.00
630 10.1900 9523.00 9955.39 98.00
631 10.2000 9388.00 9818.76 97.00
632 10.2100 9307.00 9696.10 96.00
633 10.2200 9235.00 9585.50 96.00
634 10.2300 9193.00 9485.35 96.00
635 10.2400 9179.00 9394.31 96.00
636 10.2500 9079.00 9311.26 95.00
637 10.2600 9005.00 9235.25 95.00
638 10.2700 9013.00 9165.47 95.00
639 10.2800 8928.00 9101.23 94.00
640 10.2900 8936.00 9041.94 95.00
641 10.3000 8845.00 8987.08 94.00
642 10.3100 8820.00 8933.82 94.00
643 10.3200 8782.00 8886.56 94.00
644 10.3300 8862.00 8842.55 94.00
645 10.3400 8785.00 8801.49 94.00
646 10.3500 8808.00 8763.12 94.00
647 10.3600 8767.00 8727.20 94.00
648 10.3700 8712.00 8693.52 93.00
649 10.3800 8672.00 8661.89 93.00
650 10.3900 8720.00 8632.15 93.00
651 10.4000 8675.00 8604.16 93.00
652 10.4100 8647.00 8577.77 93.00
653 10.4200 8638.00 8552.86 93.00
654 10.4300 8603.00 8529.34 93.00
655 10.4400 8550.00 8507.10 92.00
656 10.4500 8566.00 8486.05 93.00
657 10.4600 8546.00 8466.12 92.00
658 10.4700 8583.00 8447.23 93.00
659 10.4800 8583.00 8429.32 93.00
660 10.4900 8535.00 8412.33 92.00
661 10.5000 8476.00 8396.22 92.00
662 10.5100 8510.00 8380.94 92.00
663 10.5200 8483.00 8366.45 92.00
664 10.5300 8431.00 8352.72 92.00
665 10.5400 8472.00 8339.74 92.00
666 10.5500 8435.00 8327.49 92.00
667 10.5600 8441.00 8315.97 92.00
668 10.5700 8430.00 8305.21 92.00
669 10.5800 8391.00 8295.24 92.00
670 10.5900 8388.00 8286.16 92.00
671 10.6000 8382.00 8278.20 92.00
672 10.6100 8402.00 8271.84 92.00
673 10.6200 8382.00 8268.21 92.00
674 10.6300 8378.00 8269.53 92.00
675 10.6400 8415.00 8279.36 92.00
676 10.6500 8425.00 8302.00 92.00
677 10.6600 8507.00 8340.31 92.00
678 10.6700 8488.00 8392.11 92.00
679 10.6800 8496.00 8445.43 92.00
680 10.6900 8553.00 8474.97 92.00
681 10.7000 8500.00 8456.69 92.00
682 10.7100 8452.00 8398.78 92.00
683 10.7200 8435.00 8329.74 92.00
684 10.7300 8389.00 8269.01 92.00
685 10.7400 8307.00 8223.54 91.00
686 10.7500 8303.00 8192.73 91.00
687 10.7600 8280.00 8172.70 91.00
688 10.7700 8250.00 8159.27 91.00
689 10.7800 8287.00 8149.44 91.00
690 10.7900 8293.00 8141.51 91.00
691 10.8000 8224.00 8134.66 91.00
692 10.8100 8299.00 8128.51 91.00
693 10.8200 8274.00 8122.88 91.00
694 10.8300 8302.00 8117.67 91.00
695 10.8400 8337.00 8112.80 91.00
696 10.8500 8359.00 8108.23 91.00
697 10.8600 8332.00 8103.93 91.00
698 10.8700 8342.00 8099.87 91.00
699 10.8800 8290.00 8096.01 91.00
700 10.8900 8249.00 8092.36 91.00
701 10.9000 8272.00 8088.89 91.00
702 10.9100 8274.00 8085.59 91.00
703 10.9200 8209.00 8082.46 91.00
704 10.9300 8208.00 8079.47 91.00
705 10.9400 8275.00 8076.64 91.00
706 10.9500 8232.00 8073.94 91.00
707 10.9600 8241.00 8071.39 91.00
708 10.9700 8238.00 8068.96 91.00
709 10.9800 8232.00 8066.67 91.00
710 10.9900 8168.00 8064.50 90.00
711 11.0000 8207.00 8062.45 91.00
712 11.0100 8111.00 8060.52 90.00
713 11.0200 8193.00 8058.71 91.00
714 11.0300 8180.00 8057.01 90.00
715 11.0400 8140.00 8055.43 90.00
716 11.0500 8143.00 8053.97 90.00
717 11.0600 8174.00 8052.61 90.00
718 11.0700 8105.00 8051.37 90.00
719 11.0800 8208.00 8050.24 91.00
720 11.0900 8175.00 8049.22 90.00
721 11.1000 8143.00 8048.31 90.00
722 11.1100 8165.00 8047.52 90.00
723 11.1200 8121.00 8046.83 90.00
724 11.1300 8108.00 8046.26 90.00
725 11.1400 8116.00 8045.81 90.00
726 11.1500 8120.00 8045.46 90.00
727 11.1600 8062.00 8045.24 90.00
728 11.1700 8094.00 8035.29 90.00
729 11.1800 8105.00 8035.41 90.00
730 11.1900 8083.00 8035.66 90.00
731 11.2000 8118.00 8036.03 90.00
732 11.2100 8094.00 8036.52 90.00
733 11.2200 8068.00 8037.14 90.00
734 11.2300 8060.00 8037.89 90.00
735 11.2400 8083.00 8038.77 90.00
736 11.2500 8036.00 8039.80 90.00
737 11.2600 8028.00 8040.96 90.00
738 11.2700 8051.00 8042.28 90.00
739 11.2800 8010.00 8043.74 89.00
740 11.2900 8061.00 8045.36 90.00
741 11.3000 8033.00 8047.15 90.00
742 11.3100 8067.00 8049.10 90.00
743 11.3200 8059.00 8051.23 90.00
744 11.3300 8079.00 8053.55 90.00
745 11.3400 8006.00 8056.06 89.00
746 11.3500 8022.00 8058.76 90.00
747 11.3600 8028.00 8061.68 90.00
748 11.3700 8066.00 8064.81 90.00
749 11.3800 8077.00 8068.18 90.00
750 11.3900 8107.00 8071.78 90.00
751 11.4000 8122.00 8048.53 90.00
752 11.4100 8189.00 8053.03 90.00
753 11.4200 8173.00 8057.81 90.00
754 11.4300 8106.00 8062.88 90.00
755 11.4400 8095.00 8068.26 90.00
756 11.4500 8098.00 8073.96 90.00
757 11.4600 8057.00 8080.02 90.00
758 11.4700 8029.00 8086.44 90.00
759 11.4800 8080.00 8093.26 90.00
760 11.4900 8048.00 8100.50 90.00
761 11.5000 8077.00 8108.20 90.00
762 11.5100 8031.00 8116.37 90.00
763 11.5200 8017.00 8074.62 90.00
764 11.5300 8055.00 8084.44 90.00
765 11.5400 8030.00 8094.85 90.00
766 11.5500 8065.00 8105.90 90.00
767 11.5600 8076.00 8117.64 90.00
768 11.5700 8095.00 8130.11 90.00
769 11.5800 8020.00 8143.40 90.00
770 11.5900 8049.00 8157.55 90.00
771 11.6000 8073.00 8172.66 90.00
772 11.6100 8088.00 8188.81 90.00
773 11.6200 8127.00 8206.09 90.00
774 11.6300 8165.00 8224.61 90.00
775 11.6400 8107.00 8244.50 90.00
776 11.6500 8176.00 8265.89 90.00
777 11.6600 8185.00 8288.94 90.00
778 11.6700 8207.00 8313.83 91.00
779 11.6800 8237.00 8340.75 91.00
780 11.6900 8300.00 8369.95 91.00
781 11.7000 8226.00 8401.68 91.00
782 11.7100 8294.00 8436.27 91.00
783 11.7200 8316.00 8474.09 91.00
784 11.7300 8359.00 8515.56 91.00
785 11.7400 8383.00 8561.20 92.00
786 11.7500 8427.00 8632.28 92.00
787 11.7600 8405.00 8688.46 92.00
788 11.7700 8492.00 8751.15 92.00
789 11.7800 8541.00 8821.59 92.00
790 11.7900 8608.00 8901.61 93.00
791 11.8000 8720.00 8994.18 93.00
792 11.8100 8825.00 9104.17 94.00
793 11.8200 8876.00 9241.89 94.00
794 11.8300 9108.00 9422.20 95.00
795 11.8400 9287.00 9665.87 96.00
796 11.8500 9539.00 9993.63 98.00
797 11.8600 9948.00 10415.00 100.00
798 11.8700 10430.00 10912.10 102.00
799 11.8800 10934.00 11417.70 105.00
800 11.8900 11321.00 11809.10 106.00
801 11.9000 11547.00 12001.00 107.00
802 11.9100 11632.00 12068.10 108.00
803 11.9200 11715.00 12159.20 108.00
804 11.9300 11896.00 12380.00 109.00
805 11.9400 12266.00 12789.50 111.00
806 11.9500 13003.00 13428.60 114.00
807 11.9600 14142.00 14354.80 119.00
808 11.9700 15727.00 15694.70 125.00
809 11.9800 18074.00 17737.30 134.00
810 11.9900 21494.00 21078.00 147.00
811 12.0000 26661.00 26772.50 163.00
812 12.0100 34743.00 36341.30 186.00
813 12.0200 47164.00 51394.30 217.00
814 12.0300 65734.00 72753.10 256.00
815 12.0400 91082.00 99113.20 302.00
816 12.0500 119500.00 125241.00 346.00
817 12.0600 139278.00 140794.00 373.00
818 12.0700 140866.00 136710.00 375.00
819 12.0800 122957.00 116792.00 351.00
820 12.0900 96161.00 92610.00 310.00
821 12.1000 73688.00 72098.00 271.00
822 12.1100 58741.00 57833.00 242.00
823 12.1200 49634.00 48706.80 223.00
824 12.1300 43577.00 41850.40 209.00
825 12.1400 37119.00 35299.00 193.00
826 12.1500 30431.00 29071.00 174.00
827 12.1600 24547.00 23748.40 157.00
828 12.1700 20035.00 19604.50 142.00
829 12.1800 16697.00 16613.80 129.00
830 12.1900 14548.00 14572.40 121.00
831 12.2000 13052.00 13211.50 114.00
832 12.2100 11986.00 12288.50 109.00
833 12.2200 11288.00 11631.00 106.00
834 12.2300 10709.00 11134.50 103.00
835 12.2400 10240.00 10741.30 101.00
836 12.2500 9963.00 10419.90 100.00
837 12.2600 9687.00 10152.00 98.00
838 12.2700 9544.00 9925.99 98.00
839 12.2800 9345.00 9733.35 97.00
840 12.2900 9255.00 9567.87 96.00
841 12.3000 9082.00 9424.72 95.00
842 12.3100 8992.00 9300.13 95.00
843 12.3200 8893.00 9191.10 94.00
844 12.3300 8817.00 9095.26 94.00
845 12.3400 8764.00 9010.63 94.00
846 12.3500 8705.00 8935.62 93.00
847 12.3600 8623.00 8868.95 93.00
848 12.3700 8580.00 8809.52 93.00
849 12.3800 8483.00 8756.42 92.00
850 12.3900 8510.00 8708.90 92.00
851 12.4000 8530.00 8666.32 92.00
852 12.4100 8493.00 8628.13 92.00
853 12.4200 8474.00 8593.87 92.00
854 12.4300 8477.00 8563.16 92.00
855 12.4400 8415.00 8535.65 92.00
856 12.4500 8373.00 8511.07 92.00
857 12.4600 8450.00 8489.15 92.00
858 12.4700 8390.00 8469.70 92.00
859 12.4800 8373.00 8452.54 92.00
860 12.4900 8379.00 8437.51 92.00
861 12.5000 8326.00 8424.49 91.00
862 12.5100 8309.00 8413.32 91.00
863 12.5200 8345.00 8404.01 91.00
864 12.5300 8294.00 8396.44 91.00
865 12.5400 8299.00 8390.56 91.00
866 12.5500 8327.00 8386.33 91.00
867 12.5600 8357.00 8383.74 91.00
868 12.5700 8389.00 8382.78 92.00
869 12.5800 8389.00 8383.45 92.00
870 12.5900 8381.00 8385.78 92.00
871 12.6000 8350.00 8389.82 91.00
872 12.6100 8373.00 8395.62 92.00
873 12.6200 8393.00 8403.25 92.00
874 12.6300 8416.00 8412.83 92.00
875 12.6400 8432.00 8424.47 92.00
876 12.6500 8447.00 8438.31 92.00
877 12.6600 8418.00 8454.54 92.00
878 12.6700 8457.00 8473.37 92.00
879 12.6800 8469.00 8495.06 92.00
880 12.6900 8475.00 8519.91 92.00
881 12.7000 8514.00 8548.29 92.00
882 12.7100 8582.00 8580.66 93.00
883 12.7200 8561.00 8617.56 93.00
884 12.7300 8652.00 8659.69 93.00
885 12.7400 8745.00 8707.96 94.00
886 12.7500 8800.00 8763.62 94.00
887 12.7600 8922.00 8828.43 94.00
888 12.7700 9028.00 8905.01 95.00
889 12.7800 9062.00 8997.24 95.00
890 12.7900 9255.00 9110.98 96.00
891 12.8000 9368.00 9254.97 97.00
892 12.8100 9568.00 9441.76 98.00
893 12.8200 9765.00 9688.84 99.00
894 12.8300 10100.00 10019.30 100.00
895 12.8400 10413.00 10462.10 102.00
896 12.8500 10901.00 11050.40 104.00
897 12.8600 11465.00 11819.60 107.00
898 12.8700 12243.00 12802.00 111.00
899 12.8800 13241.00 14021.50 115.00
900 12.8900 14437.00 15485.30 120.00
901 12.9000 15875.00 17176.40 126.00
902 12.9100 17642.00 19044.60 133.00
903 12.9200 19726.00 20997.10 140.00
904 12.9300 21840.00 22886.60 148.00
905 12.9400 24134.00 24507.70 155.00
906 12.9500 25745.00 25619.90 160.00
907 12.9600 26427.00 26017.40 163.00
908 12.9700 26102.00 25623.30 162.00
909 12.9800 24822.00 24533.10 158.00
910 12.9900 22979.00 22963.20 152.00
911 13.0000 21080.00 21154.90 145.00
912 13.0100 19180.00 19311.20 138.00
913 13.0200 17448.00 17577.50 132.00
914 13.0300 16163.00 16048.80 127.00
915 13.0400 15203.00 14781.00 123.00
916 13.0500 14456.00 13801.90 120.00
917 13.0600 14013.00 13121.60 118.00
918 13.0700 13798.00 12741.00 117.00
919 13.0800 13657.00 12659.00 117.00
920 13.0900 13905.00 12877.50 118.00
921 13.1000 14159.00 13402.60 119.00
922 13.1100 14790.00 14242.00 122.00
923 13.1200 15797.00 15398.60 126.00
924 13.1300 16965.00 16863.20 130.00
925 13.1400 18404.00 18603.00 136.00
926 13.1500 20393.00 20551.40 143.00
927 13.1600 22429.00 22595.10 150.00
928 13.1700 24708.00 24561.40 157.00
929 13.1800 26762.00 26213.00 164.00
930 13.1900 28177.00 27278.40 168.00
931 13.2000 28386.00 27536.20 168.00
932 13.2100 27584.00 26920.70 166.00
933 13.2200 25788.00 25558.90 161.00
934 13.2300 23444.00 23700.10 153.00
935 13.2400 21101.00 21608.40 145.00
936 13.2500 18913.00 19496.50 138.00
937 13.2600 16893.00 17511.40 130.00
938 13.2700 15369.00 15742.20 124.00
939 13.2800 13978.00 14232.70 118.00
940 13.2900 12959.00 12993.00 114.00
941 13.3000 12141.00 12008.20 110.00
942 13.3100 11584.00 11248.30 108.00
943 13.3200 11036.00 10675.80 105.00
944 13.3300 10702.00 10251.80 103.00
945 13.3400 10375.00 9952.44 102.00
946 13.3500 10101.00 9724.84 101.00
947 13.3600 9903.00 9557.25 100.00
948 13.3700 9720.00 9432.47 99.00
949 13.3800 9536.00 9338.40 98.00
950 13.3900 9503.00 9266.85 97.00
951 13.4000 9391.00 9212.43 97.00
952 13.4100 9308.00 9171.66 96.00
953 13.4200 9309.00 9142.27 96.00
954 13.4300 9289.00 9122.86 96.00
955 13.4400 9237.00 9112.50 96.00
956 13.4500 9243.00 9110.64 96.00
957 13.4600 9240.00 9116.97 96.00
958 13.4700 9174.00 9131.42 96.00
959 13.4800 9278.00 9154.05 96.00
960 13.4900 9329.00 9185.14 97.00
961 13.5000 9249.00 9225.12 96.00
962 13.5100 9323.00 9274.63 97.00
963 13.5200 9386.00 9334.49 97.00
964 13.5300 9422.00 9405.81 97.00
965 13.5400 9522.00 9489.96 98.00
966 13.5500 9650.00 9602.51 98.00
967 13.5600 9703.00 9718.18 99.00
968 13.5700 9846.00 9853.40 99.00
969 13.5800 10038.00 10011.60 100.00
970 13.5900 10276.00 10197.40 101.00
971 13.6000 10562.00 10418.20 103.00
972 13.6100 10858.00 10677.70 104.00
973 13.6200 11072.00 10987.50 105.00
974 13.6300 11536.00 11361.30 107.00
975 13.6400 12095.00 11819.30 110.00
976 13.6500 12899.00 12394.80 114.00
977 13.6600 13877.00 13148.30 118.00
978 13.6700 15171.00 14195.10 123.00
979 13.6800 16732.00 15747.00 129.00
980 13.6900 19249.00 18158.20 139.00
981 13.7000 22653.00 21934.30 151.00
982 13.7100 27725.00 27659.10 167.00
983 13.7200 35040.00 35791.00 187.00
984 13.7300 44921.00 46338.80 212.00
985 13.7400 56403.00 58366.10 237.00
986 13.7500 68211.00 69442.30 261.00
987 13.7600 75853.00 76470.00 275.00
988 13.7700 79029.00 78865.20 281.00
989 13.7800 79347.00 78887.40 282.00
990 13.7900 78949.00 78194.40 281.00
991 13.8000 77771.00 76483.00 279.00
992 13.8100 74665.00 72562.30 273.00
993 13.8200 68036.00 65973.50 261.00
994 13.8300 58903.00 57554.80 243.00
995 13.8400 49061.00 48642.30 221.00
996 13.8500 40243.00 40283.10 201.00
997 13.8600 32837.00 33064.40 181.00
998 13.8700 27098.00 27217.10 165.00
999 13.8800 22912.00 22723.00 151.00
1000 13.8900 19779.00 19411.30 141.00
1001 13.9000 17523.00 17038.60 132.00
1002 13.9100 15867.00 15359.30 126.00
1003 13.9200 14451.00 14166.40 120.00
1004 13.9300 13409.00 13307.10 116.00
1005 13.9400 12695.00 12678.70 113.00
1006 13.9500 12119.00 12219.70 110.00
1007 13.9600 11765.00 11900.60 108.00
1008 13.9700 11625.00 11701.90 108.00
1009 13.9800 11524.00 11694.10 107.00
1010 13.9900 11739.00 11935.40 108.00
1011 14.0000 12237.00 12552.40 111.00
1012 14.0100 13201.00 13701.10 115.00
1013 14.0200 14784.00 15503.50 122.00
1014 14.0300 17140.00 17939.50 131.00
1015 14.0400 19903.00 20684.50 141.00
1016 14.0500 22660.00 22897.50 151.00
1017 14.0600 23608.00 23375.50 154.00
1018 14.0700 22388.00 21730.90 150.00
1019 14.0800 19624.00 18923.50 140.00
1020 14.0900 16503.00 16055.30 128.00
1021 14.1000 13842.00 13694.40 118.00
1022 14.1100 12204.00 11984.10 110.00
1023 14.1200 11020.00 10853.20 105.00
1024 14.1300 10368.00 10144.70 102.00
1025 14.1400 9819.00 9703.68 99.00
1026 14.1500 9596.00 9416.45 98.00
1027 14.1600 9284.00 9214.71 96.00
1028 14.1700 9120.00 9062.23 95.00
1029 14.1800 9019.00 8940.88 95.00
1030 14.1900 8887.00 8841.18 94.00
1031 14.2000 8810.00 8757.66 94.00
1032 14.2100 8853.00 8686.71 94.00
1033 14.2200 8713.00 8625.81 93.00
1034 14.2300 8667.00 8573.07 93.00
1035 14.2400 8632.00 8527.06 93.00
1036 14.2500 8634.00 8486.67 93.00
1037 14.2600 8671.00 8451.03 93.00
1038 14.2700 8655.00 8419.46 93.00
1039 14.2800 8591.00 8391.40 93.00
1040 14.2900 8606.00 8366.42 93.00
1041 14.3000 8550.00 8344.13 92.00
1042 14.3100 8561.00 8331.10 93.00
1043 14.3200 8600.00 8313.43 93.00
1044 14.3300 8568.00 8297.71 93.00
1045 14.3400 8551.00 8283.76 92.00
1046 14.3500 8529.00 8274.33 92.00
1047 14.3600 8543.00 8263.55 92.00
1048 14.3700 8524.00 8254.18 92.00
1049 14.3800 8553.00 8246.13 92.00
1050 14.3900 8508.00 8239.34 92.00
1051 14.4000 8457.00 8233.77 92.00
1052 14.4100 8435.00 8229.36 92.00
1053 14.4200 8448.00 8226.08 92.00
1054 14.4300 8445.00 8223.92 92.00
1055 14.4400 8513.00 8222.87 92.00
1056 14.4500 8454.00 8222.93 92.00
1057 14.4600 8433.00 8233.13 92.00
1058 14.4700 8487.00 8235.52 92.00
1059 14.4800 8472.00 8239.08 92.00
1060 14.4900 8512.00 8243.86 92.00
1061 14.5000 8524.00 8249.91 92.00
1062 14.5100 8580.00 8257.32 93.00
1063 14.5200 8484.00 8266.17 92.00
1064 14.5300 8558.00 8276.61 93.00
1065 14.5400 8513.00 8288.79 92.00
1066 14.5500 8543.00 8302.97 92.00
1067 14.5600 8588.00 8319.51 93.00
1068 14.5700 8625.00 8338.95 93.00
1069 14.5800 8620.00 8362.06 93.00
1070 14.5900 8647.00 8389.92 93.00
1071 14.6000 8678.00 8423.88 93.00
1072 14.6100 8708.00 8465.52 93.00
1073 14.6200 8724.00 8516.35 93.00
1074 14.6300 8847.00 8577.50 94.00
1075 14.6400 8851.00 8649.22 94.00
1076 14.6500 8973.00 8730.28 95.00
1077 14.6600 9085.00 8817.25 95.00
1078 14.6700 9186.00 8903.66 96.00
1079 14.6800 9236.00 8980.62 96.00
1080 14.6900 9322.00 9041.31 97.00
1081 14.7000 9295.00 9086.94 96.00
1082 14.7100 9362.00 9126.97 97.00
1083 14.7200 9405.00 9173.15 97.00
1084 14.7300 9525.00 9235.59 98.00
1085 14.7400 9643.00 9322.66 98.00
1086 14.7500 9791.00 9442.76 99.00
1087 14.7600 9963.00 9606.49 100.00
1088 14.7700 10315.00 9828.97 102.00
1089 14.7800 10613.00 10132.80 103.00
1090 14.7900 11053.00 10550.10 105.00
1091 14.8000 11704.00 11124.20 108.00
1092 14.8100 12501.00 11908.70 112.00
1093 14.8200 13372.00 12963.00 116.00
1094 14.8300 14701.00 14344.50 121.00
1095 14.8400 16413.00 16097.70 128.00
1096 14.8500 18332.00 18238.40 135.00
1097 14.8600 20942.00 20737.90 145.00
1098 14.8700 23810.00 23497.20 154.00
1099 14.8800 26889.00 26320.30 164.00
1100 14.8900 29975.00 28899.80 173.00
1101 14.9000 32016.00 30880.90 179.00
1102 14.9100 32940.00 32041.10 181.00
1103 14.9200 33008.00 32447.30 182.00
1104 14.9300 32215.00 32399.10 179.00
1105 14.9400 31503.00 32208.10 177.00
1106 14.9500 31344.00 32016.00 177.00
1107 14.9600 31303.00 31723.90 177.00
1108 14.9700 30862.00 31006.80 176.00
1109 14.9800 29678.00 29517.00 172.00
1110 14.9900 27561.00 27293.00 166.00
1111 15.0000 24551.00 24701.40 157.00
1112 15.0100 21670.00 22083.00 147.00
1113 15.0200 19084.00 19650.30 138.00
1114 15.0300 16995.00 17502.40 130.00
1115 15.0400 15223.00 15670.60 123.00
1116 15.0500 13917.00 14150.60 118.00
1117 15.0600 12778.00 12921.70 113.00
1118 15.0700 12065.00 11953.30 110.00
1119 15.0800 11511.00 11207.30 107.00
1120 15.0900 11051.00 10642.60 105.00
1121 15.1000 10657.00 10219.40 103.00
1122 15.1100 10323.00 9902.89 102.00
1123 15.1200 10013.00 9664.24 100.00
1124 15.1300 9804.00 9481.48 99.00
1125 15.1400 9693.00 9338.72 98.00
1126 15.1500 9457.00 9224.81 97.00
1127 15.1600 9457.00 9132.28 97.00
1128 15.1700 9314.00 9056.14 97.00
1129 15.1800 9215.00 8993.06 96.00
1130 15.1900 9172.00 8940.79 96.00
1131 15.2000 9145.00 8897.76 96.00
1132 15.2100 9184.00 8862.82 96.00
1133 15.2200 9212.00 8835.15 96.00
1134 15.2300 9071.00 8814.12 95.00
1135 15.2400 9027.00 8799.30 95.00
1136 15.2500 9031.00 8790.36 95.00
1137 15.2600 9002.00 8787.10 95.00
1138 15.2700 8988.00 8789.46 95.00
1139 15.2800 9055.00 8797.47 95.00
1140 15.2900 9082.00 8811.28 95.00
1141 15.3000 9048.00 8831.18 95.00
1142 15.3100 9168.00 8857.60 96.00
1143 15.3200 9250.00 8891.18 96.00
1144 15.3300 9250.00 8932.82 96.00
1145 15.3400 9358.00 8983.90 97.00
1146 15.3500 9396.00 9046.56 97.00
1147 15.3600 9502.00 9124.24 97.00
1148 15.3700 9617.00 9222.48 98.00
1149 15.3800 9811.00 9349.95 99.00
1150 15.3900 9921.00 9519.26 100.00
1151 15.4000 10252.00 9747.48 101.00
1152 15.4100 10533.00 10055.00 103.00
1153 15.4200 10862.00 10463.40 104.00
1154 15.4300 11427.00 10990.40 107.00
1155 15.4400 12063.00 11642.70 110.00
1156 15.4500 12796.00 12404.90 113.00
1157 15.4600 13573.00 13233.00 117.00
1158 15.4700 14382.00 14076.30 120.00
1159 15.4800 15179.00 14916.00 123.00
1160 15.4900 16118.00 15753.20 127.00
1161 15.5000 16965.00 16550.50 130.00
1162 15.5100 17662.00 17210.60 133.00
1163 15.5200 17974.00 17607.50 134.00
1164 15.5300 17891.00 17685.90 134.00
1165 15.5400 17487.00 17510.90 132.00
1166 15.5500 17199.00 17239.80 131.00
1167 15.5600 16947.00 17056.20 130.00
1168 15.5700 17243.00 17145.00 131.00
1169 15.5800 18066.00 17725.20 134.00
1170 15.5900 19643.00 19113.90 140.00
1171 15.6000 22209.00 21789.90 149.00
1172 15.6100 26416.00 26407.60 163.00
1173 15.6200 32665.00 33700.30 181.00
1174 15.6300 41928.00 44221.70 205.00
1175 15.6400 54740.00 57910.90 234.00
1176 15.6500 70509.00 73454.80 266.00
1177 15.6600 84928.00 87335.70 291.00
1178 15.6700 93963.00 93838.00 307.00
1179 15.6800 90731.00 89191.40 301.00
1180 15.6900 77655.00 76107.90 279.00
1181 15.7000 60978.00 60394.50 247.00
1182 15.7100 45743.00 46043.10 214.00
1183 15.7200 34143.00 34682.80 185.00
1184 15.7300 26448.00 26529.80 163.00
1185 15.7400 21282.00 21085.40 146.00
1186 15.7500 17708.00 17607.10 133.00
1187 15.7600 15441.00 15403.60 124.00
1188 15.7700 13895.00 13957.90 118.00
1189 15.7800 12628.00 12963.20 112.00
1190 15.7900 11839.00 12232.90 109.00
1191 15.8000 11246.00 11670.90 106.00
1192 15.8100 10768.00 11225.40 104.00
1193 15.8200 10483.00 10866.00 102.00
1194 15.8300 10177.00 10573.30 101.00
1195 15.8400 9946.00 10333.50 100.00
1196 15.8500 9748.00 10137.10 99.00
1197 15.8600 9659.00 9976.78 98.00
1198 15.8700 9503.00 9847.21 97.00
1199 15.8800 9500.00 9744.56 97.00
1200 15.8900 9405.00 9666.20 97.00
1201 15.9000 9362.00 9610.60 97.00
1202 15.9100 9389.00 9577.27 97.00
1203 15.9200 9407.00 9567.06 97.00
1204 15.9300 9435.00 9582.73 97.00
1205 15.9400 9545.00 9630.28 98.00
1206 15.9500 9723.00 9721.23 99.00
1207 15.9600 9852.00 9876.21 99.00
1208 15.9700 10270.00 10129.30 101.00
1209 15.9800 10719.00 10530.80 104.00
1210 15.9900 11308.00 11146.70 106.00
1211 16.0000 12165.00 12049.30 110.00
1212 16.0100 13348.00 13297.20 116.00
1213 16.0200 14700.00 14904.70 121.00
1214 16.0300 16567.00 16809.80 129.00
1215 16.0400 18456.00 18801.20 136.00
1216 16.0500 20257.00 20463.40 142.00
1217 16.0600 21092.00 21232.20 145.00
1218 16.0700 20692.00 20763.80 144.00
1219 16.0800 19067.00 19276.20 138.00
1220 16.0900 17102.00 17323.10 131.00
1221 16.1000 15114.00 15374.60 123.00
1222 16.1100 13519.00 13685.60 116.00
1223 16.1200 12315.00 12353.00 111.00
1224 16.1300 11427.00 11376.70 107.00
1225 16.1400 10697.00 10706.20 103.00
1226 16.1500 10346.00 10270.60 102.00
1227 16.1600 10024.00 10002.30 100.00
1228 16.1700 9972.00 9847.44 100.00
1229 16.1800 9823.00 9769.73 99.00
1230 16.1900 9838.00 9747.70 99.00
1231 16.2000 9785.00 9771.26 99.00
1232 16.2100 9891.00 9838.67 99.00
1233 16.2200 9996.00 9955.41 100.00
1234 16.2300 10146.00 10135.70 101.00
1235 16.2400 10410.00 10406.40 102.00
1236 16.2500 10830.00 10813.20 104.00
1237 16.2600 11337.00 11427.50 106.00
1238 16.2700 12185.00 12345.60 110.00
1239 16.2800 13334.00 13675.50 115.00
1240 16.2900 14950.00 15501.50 122.00
1241 16.3000 17173.00 17830.00 131.00
1242 16.3100 19686.00 20497.90 140.00
1243 16.3200 22235.00 23069.80 149.00
1244 16.3300 24272.00 24956.30 156.00
1245 16.3400 25613.00 25977.80 160.00
1246 16.3500 26402.00 26456.70 162.00
1247 16.3600 26946.00 26635.20 164.00
1248 16.3700 27053.00 26465.60 164.00
1249 16.3800 26432.00 25808.10 163.00
1250 16.3900 25228.00 24646.60 159.00
1251 16.4000 23464.00 23141.20 153.00
1252 16.4100 21555.00 21540.50 147.00
1253 16.4200 19893.00 20081.60 141.00
1254 16.4300 18671.00 18948.10 137.00
1255 16.4400 17932.00 18269.10 134.00
1256 16.4500 17985.00 18117.00 134.00
1257 16.4600 18552.00 18496.90 136.00
1258 16.4700 19483.00 19321.20 140.00
1259 16.4800 20840.00 20368.60 144.00
1260 16.4900 22010.00 21238.20 148.00
1261 16.5000 22178.00 21417.20 149.00
1262 16.5100 21534.00 20629.80 147.00
1263 16.5200 19712.00 19099.70 140.00
1264 16.5300 17592.00 17274.60 133.00
1265 16.5400 15569.00 15488.40 125.00
1266 16.5500 13909.00 13933.40 118.00
1267 16.5600 12554.00 12664.10 112.00
1268 16.5700 11670.00 11680.70 108.00
1269 16.5800 10945.00 10934.10 105.00
1270 16.5900 10406.00 10381.70 102.00
1271 16.6000 9969.00 9977.01 100.00
1272 16.6100 9738.00 9681.40 99.00
1273 16.6200 9493.00 9464.12 97.00
1274 16.6300 9334.00 9303.08 97.00
1275 16.6400 9204.00 9181.68 96.00
1276 16.6500 9116.00 9088.61 95.00
1277 16.6600 9026.00 9016.26 95.00
1278 16.6700 8984.00 8959.62 95.00
1279 16.6800 8888.00 8915.42 94.00
1280 16.6900 8896.00 8881.52 94.00
1281 16.7000 8866.00 8856.48 94.00
1282 16.7100 8808.00 8839.34 94.00
1283 16.7200 8856.00 8829.47 94.00
1284 16.7300 8840.00 8826.43 94.00
1285 16.7400 8796.00 8829.98 94.00
1286 16.7500 8853.00 8840.06 94.00
1287 16.7600 8822.00 8856.70 94.00
1288 16.7700 8830.00 8880.13 94.00
1289 16.7800 8917.00 8908.17 94.00
1290 16.7900 8952.00 8946.34 95.00
1291 16.8000 8923.00 8992.80 94.00
1292 16.8100 9067.00 9048.42 95.00
1293 16.8200 9144.00 9114.29 96.00
1294 16.8300 9198.00 9191.83 96.00
1295 16.8400 9345.00 9282.76 97.00
1296 16.8500 9461.00 9389.29 97.00
1297 16.8600 9546.00 9514.20 98.00
1298 16.8700 9782.00 9661.20 99.00
1299 16.8800 9977.00 9835.23 100.00
1300 16.8900 10253.00 10043.40 101.00
1301 16.9000 10636.00 10296.60 103.00
1302 16.9100 11076.00 10611.70 105.00
1303 16.9200 11547.00 11015.70 107.00
1304 16.9300 12168.00 11551.30 110.00
1305 16.9400 13014.00 12285.00 114.00
1306 16.9500 14144.00 13308.10 119.00
1307 16.9600 15638.00 14748.50 125.00
1308 16.9700 17562.00 16755.40 133.00
1309 16.9800 19786.00 19492.50 141.00
1310 16.9900 23021.00 23094.30 152.00
1311 17.0000 27077.00 27623.30 165.00
1312 17.0100 32069.00 33014.00 179.00
1313 17.0200 38016.00 39033.40 195.00
1314 17.0300 44296.00 45191.90 210.00
1315 17.0400 49812.00 50619.20 223.00
1316 17.0500 54158.00 54073.50 233.00
1317 17.0600 54581.00 54449.30 234.00
1318 17.0700 51697.00 51569.60 227.00
1319 17.0800 45966.00 46346.30 214.00
1320 17.0900 39100.00 40088.10 198.00
1321 17.1000 32363.00 33835.60 180.00
1322 17.1100 26932.00 28207.40 164.00
1323 17.1200 22416.00 23486.10 150.00
1324 17.1300 19130.00 19739.40 138.00
1325 17.1400 16693.00 16897.50 129.00
1326 17.1500 14844.00 14816.10 122.00
1327 17.1600 13352.00 13327.80 116.00
1328 17.1700 12347.00 12272.30 111.00
1329 17.1800 11522.00 11517.80 107.00
1330 17.1900 10858.00 10965.40 104.00
1331 17.2000 10424.00 10547.30 102.00
1332 17.2100 10005.00 10219.10 100.00
1333 17.2200 9635.00 9953.26 98.00
1334 17.2300 9380.00 9732.34 97.00
1335 17.2400 9192.00 9545.54 96.00
1336 17.2500 8999.00 9385.52 95.00
1337 17.2600 8885.00 9247.25 94.00
1338 17.2700 8805.00 9126.87 94.00
1339 17.2800 8668.00 9021.51 93.00
1340 17.2900 8547.00 8928.78 92.00
1341 17.3000 8485.00 8846.86 92.00
1342 17.3100 8408.00 8774.18 92.00
1343 17.3200 8384.00 8709.43 92.00
1344 17.3300 8323.00 8651.60 91.00
1345 17.3400 8242.00 8599.79 91.00
1346 17.3500 8244.00 8553.26 91.00
1347 17.3600 8194.00 8511.38 91.00
1348 17.3700 8159.00 8473.64 90.00
1349 17.3800 8184.00 8439.56 90.00
1350 17.3900 8163.00 8408.67 90.00
1351 17.4000 8077.00 8380.85 90.00
1352 17.4100 8093.00 8355.71 90.00
1353 17.4200 8059.00 8333.02 90.00
1354 17.4300 8060.00 8312.57 90.00
1355 17.4400 8057.00 8294.18 90.00
1356 17.4500 8095.00 8277.73 90.00
1357 17.4600 8000.00 8263.02 89.00
1358 17.4700 8044.00 8250.08 90.00
1359 17.4800 7988.00 8238.76 89.00
1360 17.4900 7969.00 8229.02 89.00
1361 17.5000 8015.00 8220.82 90.00
1362 17.5100 8049.00 8214.15 90.00
1363 17.5200 7965.00 8209.00 89.00
1364 17.5300 7994.00 8205.42 89.00
1365 17.5400 7991.00 8203.46 89.00
1366 17.5500 7988.00 8203.19 89.00
1367 17.5600 7971.00 8204.75 89.00
1368 17.5700 7999.00 8209.94 89.00
1369 17.5800 7975.00 8215.70 89.00
1370 17.5900 8019.00 8223.97 90.00
1371 17.6000 8028.00 8235.16 90.00
1372 17.6100 8044.00 8249.87 90.00
1373 17.6200 8046.00 8268.99 90.00
1374 17.6300 8066.00 8293.97 90.00
1375 17.6400 8086.00 8327.12 90.00
1376 17.6500 8166.00 8372.21 90.00
1377 17.6600 8225.00 8435.03 91.00
1378 17.6700 8285.00 8524.03 91.00
1379 17.6800 8457.00 8650.35 92.00
1380 17.6900 8594.00 8827.14 93.00
1381 17.7000 8750.00 9067.35 94.00
1382 17.7100 9030.00 9380.36 95.00
1383 17.7200 9366.00 9766.26 97.00
1384 17.7300 9721.00 10208.60 99.00
1385 17.7400 10236.00 10673.70 101.00
1386 17.7500 10835.00 11126.00 104.00
1387 17.7600 11199.00 11535.20 106.00
1388 17.7700 11597.00 11852.90 108.00
1389 17.7800 11891.00 12006.60 109.00
1390 17.7900 11781.00 11940.40 109.00
1391 17.8000 11524.00 11648.90 107.00
1392 17.8100 11029.00 11229.90 105.00
1393 17.8200 10469.00 10755.00 102.00
1394 17.8300 9961.00 10291.00 100.00
1395 17.8400 9602.00 9877.73 98.00
1396 17.8500 9218.00 9535.35 96.00
1397 17.8600 9093.00 9270.21 95.00
1398 17.8700 8941.00 9081.50 95.00
1399 17.8800 8769.00 8963.82 94.00
1400 17.8900 8764.00 8911.71 94.00
1401 17.9000 8779.00 8922.09 94.00
1402 17.9100 8830.00 8996.13 94.00
1403 17.9200 9010.00 9139.59 95.00
1404 17.9300 9223.00 9362.04 96.00
1405 17.9400 9427.00 9674.46 97.00
1406 17.9500 9808.00 10086.20 99.00
1407 17.9600 10284.00 10600.20 101.00
1408 17.9700 10961.00 11208.80 105.00
1409 17.9800 11682.00 11886.80 108.00
1410 17.9900 12531.00 12584.10 112.00
1411 18.0000 13300.00 13216.40 115.00
1412 18.0100 13962.00 13669.10 118.00
1413 18.0200 14087.00 13830.40 119.00
1414 18.0300 13884.00 13649.70 118.00
1415 18.0400 13200.00 13180.80 115.00
1416 18.0500 12309.00 12532.60 111.00
1417 18.0600 11416.00 11819.80 107.00
1418 18.0700 10647.00 11125.20 103.00
1419 18.0800 10021.00 10498.70 100.00
1420 18.0900 9525.00 9964.58 98.00
1421 18.1000 9170.00 9529.33 96.00
1422 18.1100 8851.00 9188.33 94.00
1423 18.1200 8640.00 8929.83 93.00
1424 18.1300 8498.00 8739.25 92.00
1425 18.1400 8364.00 8601.86 91.00
1426 18.1500 8239.00 8519.14 91.00
1427 18.1600 8192.00 8453.10 91.00
1428 18.1700 8162.00 8411.38 90.00
1429 18.1800 8098.00 8390.42 90.00
1430 18.1900 8119.00 8388.85 90.00
1431 18.2000 8169.00 8406.37 90.00
1432 18.2100 8153.00 8442.57 90.00
1433 18.2200 8255.00 8495.51 91.00
1434 18.2300 8258.00 8559.94 91.00
1435 18.2400 8346.00 8624.92 91.00
1436 18.2500 8401.00 8672.31 92.00
1437 18.2600 8456.00 8681.70 92.00
1438 18.2700 8446.00 8644.22 92.00
1439 18.2800 8422.00 8570.59 92.00
1440 18.2900 8321.00 8481.09 91.00
1441 18.3000 8173.00 8392.47 90.00
1442 18.3100 8132.00 8314.08 90.00
1443 18.3200 8051.00 8249.73 90.00
1444 18.3300 8035.00 8199.84 90.00
1445 18.3400 8005.00 8162.90 89.00
1446 18.3500 7964.00 8135.32 89.00
1447 18.3600 7884.00 8116.87 89.00
1448 18.3700 7869.00 8102.00 89.00
1449 18.3800 7896.00 8093.29 89.00
1450 18.3900 7874.00 8087.36 89.00
1451 18.4000 7887.00 8083.47 89.00
1452 18.4100 7902.00 8081.14 89.00
1453 18.4200 7878.00 8080.09 89.00
1454 18.4300 7918.00 8080.17 89.00
1455 18.4400 7909.00 8081.30 89.00
1456 18.4500 7831.00 8083.42 88.00
1457 18.4600 7878.00 8086.54 89.00
1458 18.4700 7902.00 8090.68 89.00
1459 18.4800 7885.00 8095.90 89.00
1460 18.4900 7932.00 8102.30 89.00
1461 18.5000 7924.00 8110.01 89.00
1462 18.5100 7939.00 8119.21 89.00
1463 18.5200 7950.00 8130.18 89.00
1464 18.5300 7949.00 8141.29 89.00
1465 18.5400 7999.00 8157.07 89.00
1466 18.5500 8014.00 8176.36 90.00
1467 18.5600 7977.00 8200.64 89.00
1468 18.5700 8018.00 8232.58 90.00
1469 18.5800 8103.00 8277.03 90.00
1470 18.5900 8136.00 8342.13 90.00
1471 18.6000 8205.00 8440.11 91.00
1472 18.6100 8359.00 8586.08 91.00
1473 18.6200 8513.00 8794.27 92.00
1474 18.6300 8759.00 9069.38 94.00
1475 18.6400 9090.00 9398.01 95.00
1476 18.6500 9413.00 9721.45 97.00
1477 18.6600 9636.00 9922.96 98.00
1478 18.6700 9651.00 9896.43 98.00
1479 18.6800 9464.00 9667.18 97.00
1480 18.6900 9152.00 9360.71 96.00
1481 18.7000 8882.00 9075.29 94.00
1482 18.7100 8615.00 8851.96 93.00
1483 18.7200 8482.00 8697.57 92.00
1484 18.7300 8381.00 8602.73 92.00
1485 18.7400 8357.00 8552.77 91.00
1486 18.7500 8293.00 8533.67 91.00
1487 18.7600 8353.00 8535.12 91.00
1488 18.7700 8325.00 8550.83 91.00
1489 18.7800 8323.00 8577.58 91.00
1490 18.7900 8416.00 8614.13 92.00
1491 18.8000 8443.00 8660.44 92.00
1492 18.8100 8466.00 8717.32 92.00
1493 18.8200 8559.00 8786.34 93.00
1494 18.8300 8644.00 8870.01 93.00
1495 18.8400 8661.00 8972.41 93.00
1496 18.8500 8877.00 9100.16 94.00
1497 18.8600 9037.00 9274.55 95.00
1498 18.8700 9290.00 9493.47 96.00
1499 18.8800 9596.00 9795.65 98.00
1500 18.8900 10080.00 10222.60 100.00
1501 18.9000 10537.00 10829.70 103.00
1502 18.9100 11367.00 11680.60 107.00
1503 18.9200 12407.00 12836.50 111.00
1504 18.9300 13929.00 14335.80 118.00
1505 18.9400 15831.00 16168.60 126.00
1506 18.9500 18133.00 18234.30 135.00
1507 18.9600 20354.00 20283.20 143.00
1508 18.9700 22384.00 21868.60 150.00
1509 18.9800 22965.00 22471.90 152.00
1510 18.9900 22090.00 21869.30 149.00
1511 19.0000 20263.00 20352.20 142.00
1512 19.0100 18066.00 18455.20 134.00
1513 19.0200 16026.00 16610.40 127.00
1514 19.0300 14678.00 15059.90 121.00
1515 19.0400 13639.00 13914.50 117.00
1516 19.0500 13103.00 13213.00 114.00
1517 19.0600 12970.00 12963.70 114.00
1518 19.0700 13264.00 13167.70 115.00
1519 19.0800 13828.00 13828.70 118.00
1520 19.0900 14963.00 14948.60 122.00
1521 19.1000 16623.00 16506.50 129.00
1522 19.1100 18737.00 18426.60 137.00
1523 19.1200 21238.00 20521.00 146.00
1524 19.1300 23517.00 22424.20 153.00
1525 19.1400 24849.00 23595.10 158.00
1526 19.1500 24499.00 23577.70 157.00
1527 19.1600 22851.00 22383.60 151.00
1528 19.1700 20331.00 20483.30 143.00
1529 19.1800 18012.00 18415.00 134.00
1530 19.1900 16037.00 16540.90 127.00
1531 19.2000 14563.00 15043.30 121.00
1532 19.2100 13677.00 13994.50 117.00
1533 19.2200 13192.00 13404.30 115.00
1534 19.2300 13108.00 13252.30 114.00
1535 19.2400 13367.00 13505.10 116.00
1536 19.2500 14025.00 14124.40 118.00
1537 19.2600 14910.00 15065.20 122.00
1538 19.2700 16209.00 16263.90 127.00
1539 19.2800 17866.00 17619.10 134.00
1540 19.2900 19408.00 18962.40 139.00
1541 19.3000 20842.00 20043.50 144.00
1542 19.3100 21458.00 20572.90 146.00
1543 19.3200 20966.00 20363.70 145.00
1544 19.3300 19799.00 19461.70 141.00
1545 19.3400 18022.00 18107.70 134.00
1546 19.3500 16173.00 16580.10 127.00
1547 19.3600 14556.00 15085.80 121.00
1548 19.3700 13254.00 13745.40 115.00
1549 19.3800 12147.00 12613.80 110.00
1550 19.3900 11378.00 11703.60 107.00
1551 19.4000 10805.00 11000.90 104.00
1552 19.4100 10325.00 10476.70 102.00
1553 19.4200 10037.00 10096.60 100.00
1554 19.4300 9863.00 9826.89 99.00
1555 19.4400 9628.00 9639.05 98.00
1556 19.4500 9535.00 9510.95 98.00
1557 19.4600 9433.00 9427.19 97.00
1558 19.4700 9413.00 9377.76 97.00
1559 19.4800 9357.00 9356.83 97.00
1560 19.4900 9444.00 9361.44 97.00
1561 19.5000 9378.00 9390.55 97.00
1562 19.5100 9497.00 9444.36 97.00
1563 19.5200 9552.00 9523.86 98.00
1564 19.5300 9663.00 9630.66 98.00
1565 19.5400 9830.00 9766.74 99.00
1566 19.5500 9986.00 9934.32 100.00
1567 19.5600 10099.00 10135.30 100.00
1568 19.5700 10345.00 10370.90 102.00
1569 19.5800 10624.00 10639.40 103.00
1570 19.5900 10955.00 10939.30 105.00
1571 19.6000 11307.00 11261.00 106.00
1572 19.6100 11748.00 11588.90 108.00
1573 19.6200 11972.00 11898.40 109.00
1574 19.6300 12344.00 12158.70 111.00
1575 19.6400 12529.00 12349.00 112.00
1576 19.6500 12582.00 12476.70 112.00
1577 19.6600 12680.00 12576.10 113.00
1578 19.6700 12655.00 12690.80 112.00
1579 19.6800 12771.00 12870.80 113.00
1580 19.6900 12930.00 13154.00 114.00
1581 19.7000 13210.00 13568.80 115.00
1582 19.7100 13736.00 14123.70 117.00
1583 19.7200 14469.00 14791.20 120.00
1584 19.7300 15126.00 15495.20 123.00
1585 19.7400 15711.00 16088.40 125.00
1586 19.7500 16013.00 16379.50 127.00
1587 19.7600 15862.00 16241.00 126.00
1588 19.7700 15235.00 15721.20 123.00
1589 19.7800 14618.00 15008.00 121.00
1590 19.7900 13902.00 14293.30 118.00
1591 19.8000 13304.00 13711.10 115.00
1592 19.8100 13100.00 13314.90 114.00
1593 19.8200 13031.00 13129.90 114.00
1594 19.8300 13204.00 13150.20 115.00
1595 19.8400 13572.00 13356.20 116.00
1596 19.8500 14023.00 13732.40 118.00
1597 19.8600 14471.00 14287.80 120.00
1598 19.8700 15088.00 15061.50 123.00
1599 19.8800 16168.00 16088.60 127.00
1600 19.8900 17580.00 17333.90 133.00
1601 19.9000 19012.00 18605.40 138.00
1602 19.9100 20026.00 19499.30 142.00
1603 19.9200 20197.00 19577.80 142.00
1604 19.9300 19555.00 18809.60 140.00
1605 19.9400 18317.00 17653.80 135.00
1606 19.9500 17290.00 16693.20 131.00
1607 19.9600 17078.00 16337.60 131.00
1608 19.9700 17724.00 16843.40 133.00
1609 19.9800 19143.00 18296.10 138.00
1610 19.9900 21316.00 20499.50 146.00
1611 20.0000 23115.00 22724.90 152.00
1612 20.0100 23483.00 23617.30 153.00
1613 20.0200 22126.00 22350.90 149.00
1614 20.0300 19520.00 19768.80 140.00
1615 20.0400 16694.00 17123.60 129.00
1616 20.0500 14663.00 15028.40 121.00
1617 20.0600 13261.00 13602.30 115.00
1618 20.0700 12512.00 12744.00 112.00
1619 20.0800 12119.00 12281.60 110.00
1620 20.0900 11956.00 12055.00 109.00
1621 20.1000 11840.00 11948.20 109.00
1622 20.1100 11885.00 11888.10 109.00
1623 20.1200 11795.00 11831.10 109.00
1624 20.1300 11725.00 11752.70 108.00
1625 20.1400 11672.00 11640.90 108.00
1626 20.1500 11413.00 11493.80 107.00
1627 20.1600 11154.00 11316.70 106.00
1628 20.1700 10918.00 11119.00 104.00
1629 20.1800 10682.00 10911.40 103.00
1630 20.1900 10471.00 10703.50 102.00
1631 20.2000 10311.00 10503.80 102.00
1632 20.2100 10137.00 10318.60 101.00
1633 20.2200 9978.00 10153.00 100.00
1634 20.2300 9909.00 10010.30 100.00
1635 20.2400 9842.00 9893.53 99.00
1636 20.2500 9777.00 9804.12 99.00
1637 20.2600 9799.00 9744.05 99.00
1638 20.2700 9817.00 9715.30 99.00
1639 20.2800 9782.00 9721.04 99.00
1640 20.2900 9835.00 9766.73 99.00
1641 20.3000 9990.00 9861.95 100.00
1642 20.3100 10175.00 10022.50 101.00
1643 20.3200 10511.00 10273.00 103.00
1644 20.3300 10896.00 10647.70 104.00
1645 20.3400 11275.00 11190.70 106.00
1646 20.3500 12085.00 11950.40 110.00
1647 20.3600 13055.00 12971.60 114.00
1648 20.3700 14394.00 14280.60 120.00
1649 20.3800 16020.00 15866.70 127.00
1650 20.3900 17992.00 17651.60 134.00
1651 20.4000 19849.00 19449.40 141.00
1652 20.4100 21593.00 20924.00 147.00
1653 20.4200 22167.00 21653.20 149.00
1654 20.4300 21608.00 21370.40 147.00
1655 20.4400 20037.00 20191.20 142.00
1656 20.4500 18106.00 18510.70 135.00
1657 20.4600 15988.00 16719.60 126.00
1658 20.4700 14485.00 15068.30 120.00
1659 20.4800 13138.00 13675.30 115.00
1660 20.4900 12344.00 12577.30 111.00
1661 20.5000 11649.00 11763.20 108.00
1662 20.5100 11276.00 11196.40 106.00
1663 20.5200 10857.00 10831.60 104.00
1664 20.5300 10716.00 10625.20 104.00
1665 20.5400 10601.00 10542.30 103.00
1666 20.5500 10660.00 10558.20 103.00
1667 20.5600 10757.00 10657.50 104.00
1668 20.5700 10928.00 10832.00 105.00
1669 20.5800 10995.00 11077.30 105.00
1670 20.5900 11370.00 11391.20 107.00
1671 20.6000 11796.00 11771.10 109.00
1672 20.6100 12116.00 12213.00 110.00
1673 20.6200 12627.00 12709.80 112.00
1674 20.6300 13224.00 13250.40 115.00
1675 20.6400 13876.00 13818.20 118.00
1676 20.6500 14599.00 14390.40 121.00
1677 20.6600 15315.00 14936.50 124.00
1678 20.6700 15980.00 15419.10 126.00
1679 20.6800 16539.00 15797.50 129.00
1680 20.6900 16751.00 16034.90 129.00
1681 20.7000 16690.00 16108.90 129.00
1682 20.7100 16412.00 16018.60 128.00
1683 20.7200 15998.00 15785.90 126.00
1684 20.7300 15419.00 15449.10 124.00
1685 20.7400 14846.00 15052.50 122.00
1686 20.7500 14286.00 14638.10 120.00
1687 20.7600 13729.00 14240.80 117.00
1688 20.7700 13412.00 13886.60 116.00
1689 20.7800 13184.00 13593.50 115.00
1690 20.7900 12993.00 13371.50 114.00
1691 20.8000 12987.00 13223.50 114.00
1692 20.8100 12958.00 13146.20 114.00
1693 20.8200 13020.00 13130.20 114.00
1694 20.8300 13253.00 13161.20 115.00
1695 20.8400 13400.00 13221.50 116.00
1696 20.8500 13578.00 13291.40 117.00
1697 20.8600 13773.00 13353.30 117.00
1698 20.8700 13825.00 13389.80 118.00
1699 20.8800 13719.00 13385.90 117.00
1700 20.8900 13696.00 13329.10 117.00
1701 20.9000 13559.00 13211.80 116.00
1702 20.9100 13269.00 13033.40 115.00
1703 20.9200 12971.00 12801.50 114.00
1704 20.9300 12637.00 12530.80 112.00
1705 20.9400 12180.00 12240.10 110.00
1706 20.9500 11891.00 11949.40 109.00
1707 20.9600 11605.00 11677.00 108.00
1708 20.9700 11327.00 11438.70 106.00
1709 20.9800 11169.00 11247.60 106.00
1710 20.9900 11116.00 11113.70 105.00
1711 21.0000 11049.00 11042.40 105.00
1712 21.0100 11146.00 11031.90 106.00
1713 21.0200 11202.00 11068.20 106.00
1714 21.0300 11256.00 11121.70 106.00
1715 21.0400 11315.00 11144.60 106.00
1716 21.0500 11288.00 11084.80 106.00
1717 21.0600 11063.00 10927.20 105.00
1718 21.0700 10917.00 10720.50 104.00
1719 21.0800 10683.00 10535.50 103.00
1720 21.0900 10619.00 10425.90 103.00
1721 21.1000 10689.00 10429.60 103.00
1722 21.1100 10915.00 10581.80 104.00
1723 21.1200 11248.00 10921.30 106.00
1724 21.1300 11842.00 11488.40 109.00
1725 21.1400 12595.00 12313.70 112.00
1726 21.1500 13624.00 13397.50 117.00
1727 21.1600 14906.00 14672.30 122.00
1728 21.1700 16061.00 15938.80 127.00
1729 21.1800 16884.00 16827.10 130.00
1730 21.1900 17062.00 16922.60 131.00
1731 21.2000 16266.00 16179.70 128.00
1732 21.2100 15083.00 14954.40 123.00
1733 21.2200 13774.00 13650.80 117.00
1734 21.2300 12630.00 12502.00 112.00
1735 21.2400 11718.00 11593.60 108.00
1736 21.2500 11167.00 10932.10 106.00
1737 21.2600 10710.00 10483.80 103.00
1738 21.2700 10448.00 10202.10 102.00
1739 21.2800 10289.00 10042.60 101.00
1740 21.2900 10201.00 9970.21 101.00
1741 21.3000 10133.00 9961.81 101.00
1742 21.3100 10227.00 10004.50 101.00
1743 21.3200 10347.00 10093.60 102.00
1744 21.3300 10511.00 10230.70 103.00
1745 21.3400 10714.00 10422.70 104.00
1746 21.3500 11055.00 10682.60 105.00
1747 21.3600 11391.00 11029.20 107.00
1748 21.3700 11910.00 11489.70 109.00
1749 21.3800 12469.00 12099.10 112.00
1750 21.3900 13228.00 12899.70 115.00
1751 21.4000 14252.00 13933.80 119.00
1752 21.4100 15547.00 15228.80 125.00
1753 21.4200 16982.00 16777.30 130.00
1754 21.4300 18757.00 18512.70 137.00
1755 21.4400 20679.00 20307.30 144.00
1756 21.4500 22472.00 21996.00 150.00
1757 21.4600 24208.00 23389.30 156.00
1758 21.4700 25203.00 24232.10 159.00
1759 21.4800 24958.00 24237.80 158.00
1760 21.4900 23767.00 23290.50 154.00
1761 21.5000 21714.00 21598.00 147.00
1762 21.5100 19356.00 19556.90 139.00
1763 21.5200 17225.00 17515.60 131.00
1764 21.5300 15379.00 15682.80 124.00
1765 21.5400 13898.00 14147.80 118.00
1766 21.5500 12905.00 12927.90 114.00
1767 21.5600 12065.00 11998.60 110.00
1768 21.5700 11480.00 11314.90 107.00
1769 21.5800 11022.00 10825.50 105.00
1770 21.5900 10736.00 10482.00 104.00
1771 21.6000 10498.00 10242.10 102.00
1772 21.6100 10328.00 10080.40 102.00
1773 21.6200 10248.00 9974.04 101.00
1774 21.6300 10131.00 9910.53 101.00
1775 21.6400 10191.00 9883.27 101.00
1776 21.6500 10220.00 9890.03 101.00
1777 21.6600 10197.00 9931.83 101.00
1778 21.6700 10344.00 10012.20 102.00
1779 21.6800 10433.00 10136.60 102.00
1780 21.6900 10636.00 10312.00 103.00
1781 21.7000 10891.00 10546.40 104.00
1782 21.7100 11229.00 10848.20 106.00
1783 21.7200 11549.00 11225.40 107.00
1784 21.7300 12014.00 11684.00 110.00
1785 21.7400 12555.00 12225.30 112.00
1786 21.7500 13234.00 12842.30 115.00
1787 21.7600 13965.00 13516.20 118.00
1788 21.7700 14682.00 14217.80 121.00
1789 21.7800 15301.00 14917.10 124.00
1790 21.7900 16112.00 15594.40 127.00
1791 21.8000 16884.00 16248.70 130.00
1792 21.8100 17591.00 16864.90 133.00
1793 21.8200 18149.00 17411.70 135.00
1794 21.8300 18583.00 17863.50 136.00
1795 21.8400 18697.00 18249.30 137.00
1796 21.8500 19067.00 18661.20 138.00
1797 21.8600 19333.00 19206.60 139.00
1798 21.8700 19936.00 19953.50 141.00
1799 21.8800 20995.00 20902.90 145.00
1800 21.8900 22184.00 21988.70 149.00
1801 21.9000 23265.00 23064.70 153.00
1802 21.9100 24236.00 23904.00 156.00
1803 21.9200 24602.00 24272.70 157.00
1804 21.9300 23969.00 24009.80 155.00
1805 21.9400 22992.00 23117.30 152.00
1806 21.9500 21383.00 21751.60 146.00
1807 21.9600 19437.00 20131.10 139.00
1808 21.9700 17676.00 18451.30 133.00
1809 21.9800 16092.00 16847.80 127.00
1810 21.9900 14749.00 15401.20 121.00
1811 22.0000 13764.00 14152.10 117.00
1812 22.0100 12917.00 13111.40 114.00
1813 22.0200 12155.00 12272.30 110.00
1814 22.0300 11679.00 11615.50 108.00
1815 22.0400 11253.00 11116.50 106.00
1816 22.0500 10958.00 10749.70 105.00
1817 22.0600 10686.00 10493.00 103.00
1818 22.0700 10567.00 10330.80 103.00
1819 22.0800 10455.00 10256.10 102.00
1820 22.0900 10534.00 10272.30 103.00
1821 22.1000 10625.00 10392.80 103.00
1822 22.1100 10832.00 10637.90 104.00
1823 22.1200 11242.00 11029.40 106.00
1824 22.1300 11749.00 11580.10 108.00
1825 22.1400 12399.00 12278.50 111.00
1826 22.1500 13195.00 13062.60 115.00
1827 22.1600 13849.00 13780.60 118.00
1828 22.1700 14327.00 14186.60 120.00
1829 22.1800 14250.00 14076.20 119.00
1830 22.1900 13668.00 13484.30 117.00
1831 22.2000 12694.00 12645.90 113.00
1832 22.2100 11797.00 11787.10 109.00
1833 22.2200 10993.00 11031.30 105.00
1834 22.2300 10443.00 10421.80 102.00
1835 22.2400 10052.00 9958.62 100.00
1836 22.2500 9761.00 9621.42 99.00
1837 22.2600 9493.00 9381.99 97.00
1838 22.2700 9413.00 9211.32 97.00
1839 22.2800 9276.00 9090.23 96.00
1840 22.2900 9128.00 9000.87 96.00
1841 22.3000 9081.00 8932.52 95.00
1842 22.3100 9022.00 8878.54 95.00
1843 22.3200 8948.00 8834.78 95.00
1844 22.3300 8943.00 8798.52 95.00
1845 22.3400 8899.00 8768.20 94.00
1846 22.3500 8930.00 8742.40 94.00
1847 22.3600 8916.00 8720.18 94.00
1848 22.3700 8865.00 8700.93 94.00
1849 22.3800 8797.00 8682.41 94.00
1850 22.3900 8815.00 8668.22 94.00
1851 22.4000 8810.00 8656.31 94.00
1852 22.4100 8806.00 8646.58 94.00
1853 22.4200 8842.00 8638.90 94.00
1854 22.4300 8838.00 8633.16 94.00
1855 22.4400 8764.00 8629.28 94.00
1856 22.4500 8842.00 8627.18 94.00
1857 22.4600 8817.00 8626.80 94.00
1858 22.4700 8779.00 8628.09 94.00
1859 22.4800 8862.00 8631.04 94.00
1860 22.4900 8836.00 8635.65 94.00
1861 22.5000 8847.00 8641.94 94.00
1862 22.5100 8857.00 8650.00 94.00
1863 22.5200 8820.00 8659.91 94.00
1864 22.5300 8829.00 8671.79 94.00
1865 22.5400 8882.00 8685.82 94.00
1866 22.5500 8833.00 8701.16 94.00
1867 22.5600 8879.00 8720.20 94.00
1868 22.5700 8844.00 8742.20 94.00
1869 22.5800 8873.00 8767.64 94.00
1870 22.5900 8891.00 8797.06 94.00
1871 22.6000 8943.00 8831.26 95.00
1872 22.6100 9015.00 8871.33 95.00
1873 22.6200 9037.00 8918.90 95.00
1874 22.6300 9120.00 8976.41 95.00
1875 22.6400 9203.00 9047.62 96.00
1876 22.6500 9228.00 9138.10 96.00
1877 22.6600 9461.00 9255.93 97.00
1878 22.6700 9677.00 9411.96 98.00
1879 22.6800 9777.00 9619.93 99.00
1880 22.6900 10119.00 9895.35 101.00
1881 22.7000 10465.00 10253.80 102.00
1882 22.7100 10962.00 10707.20 105.00
1883 22.7200 11504.00 11260.00 107.00
1884 22.7300 12260.00 11902.50 111.00
1885 22.7400 12945.00 12600.40 114.00
1886 22.7500 13773.00 13281.90 117.00
1887 22.7600 14276.00 13829.80 119.00
1888 22.7700 14666.00 14110.20 121.00
1889 22.7800 14519.00 14048.70 120.00
1890 22.7900 14082.00 13690.30 119.00
1891 22.8000 13341.00 13164.90 116.00
1892 22.8100 12742.00 12604.90 113.00
1893 22.8200 12100.00 12101.90 110.00
1894 22.8300 11830.00 11706.80 109.00
1895 22.8400 11617.00 11443.20 108.00
1896 22.8500 11552.00 11318.40 107.00
1897 22.8600 11602.00 11330.60 108.00
1898 22.8700 11737.00 11472.60 108.00
1899 22.8800 12007.00 11734.40 110.00
1900 22.8900 12330.00 12103.40 111.00
1901 22.9000 12857.00 12564.70 113.00
1902 22.9100 13348.00 13102.60 116.00
1903 22.9200 13837.00 13709.60 118.00
1904 22.9300 14483.00 14393.40 120.00
1905 22.9400 15220.00 15175.20 123.00
1906 22.9500 16022.00 16075.90 127.00
1907 22.9600 17067.00 17106.00 131.00
1908 22.9700 18281.00 18258.80 135.00
1909 22.9800 19539.00 19517.10 140.00
1910 22.9900 20940.00 20816.10 145.00
1911 23.0000 22343.00 22095.30 149.00
1912 23.0100 23489.00 23269.00 153.00
1913 23.0200 24598.00 24244.30 157.00
1914 23.0300 25111.00 24927.30 158.00
1915 23.0400 25139.00 25231.90 159.00
1916 23.0500 24783.00 25090.50 157.00
1917 23.0600 23966.00 24483.70 155.00
1918 23.0700 22704.00 23463.90 151.00
1919 23.0800 21238.00 22145.70 146.00
1920 23.0900 19691.00 20665.40 140.00
1921 23.1000 18121.00 19145.20 135.00
1922 23.1100 16821.00 17677.40 130.00
1923 23.1200 15641.00 16325.80 125.00
1924 23.1300 14605.00 15127.60 121.00
1925 23.1400 13829.00 14100.50 118.00
1926 23.1500 13156.00 13244.50 115.00
1927 23.1600 12558.00 12549.60 112.00
1928 23.1700 12126.00 11997.80 110.00
1929 23.1800 11762.00 11568.60 108.00
1930 23.1900 11482.00 11240.80 107.00
1931 23.2000 11281.00 10993.50 106.00
1932 23.2100 11065.00 10815.90 105.00
1933 23.2200 10892.00 10695.10 104.00
1934 23.2300 10800.00 10623.30 104.00
1935 23.2400 10728.00 10594.60 104.00
1936 23.2500 10660.00 10601.40 103.00
1937 23.2600 10697.00 10631.70 103.00
1938 23.2700 10766.00 10665.20 104.00
1939 23.2800 10674.00 10672.50 103.00
1940 23.2900 10683.00 10624.70 103.00
1941 23.3000 10651.00 10510.90 103.00
1942 23.3100 10447.00 10346.40 102.00
1943 23.3200 10269.00 10160.80 101.00
1944 23.3300 10078.00 9981.40 100.00
1945 23.3400 9919.00 9826.01 100.00
1946 23.3500 9864.00 9704.72 99.00
1947 23.3600 9744.00 9623.18 99.00
1948 23.3700 9705.00 9586.17 99.00
1949 23.3800 9825.00 9600.66 99.00
1950 23.3900 9934.00 9679.13 100.00
1951 23.4000 10042.00 9842.36 100.00
1952 23.4100 10311.00 10119.80 102.00
1953 23.4200 10721.00 10546.60 104.00
1954 23.4300 11254.00 11153.60 106.00
1955 23.4400 12094.00 11951.30 110.00
1956 23.4500 12948.00 12896.80 114.00
1957 23.4600 13827.00 13838.00 118.00
1958 23.4700 14405.00 14467.80 120.00
1959 23.4800 14513.00 14467.30 120.00
1960 23.4900 13911.00 13827.50 118.00
1961 23.5000 13038.00 12861.20 114.00
1962 23.5100 11998.00 11879.30 110.00
1963 23.5200 11124.00 11039.50 105.00
1964 23.5300 10524.00 10388.40 103.00
1965 23.5400 10074.00 9911.20 100.00
1966 23.5500 9759.00 9577.04 99.00
1967 23.5600 9542.00 9346.66 98.00
1968 23.5700 9381.00 9189.47 97.00
1969 23.5800 9220.00 9079.03 96.00
1970 23.5900 9175.00 8998.63 96.00
1971 23.6000 9084.00 8938.03 95.00
1972 23.6100 9064.00 8891.15 95.00
1973 23.6200 9047.00 8854.38 95.00
1974 23.6300 9049.00 8825.45 95.00
1975 23.6400 8921.00 8802.88 94.00
1976 23.6500 8978.00 8785.59 95.00
1977 23.6600 8966.00 8772.86 95.00
1978 23.6700 8968.00 8764.14 95.00
1979 23.6800 8943.00 8759.05 95.00
1980 23.6900 8958.00 8757.36 95.00
1981 23.7000 8912.00 8758.92 94.00
1982 23.7100 8952.00 8763.70 95.00
1983 23.7200 8979.00 8771.75 95.00
1984 23.7300 8959.00 8783.27 95.00
1985 23.7400 9018.00 8798.57 95.00
1986 23.7500 9033.00 8818.16 95.00
1987 23.7600 9027.00 8842.89 95.00
1988 23.7700 9060.00 8873.97 95.00
1989 23.7800 9109.00 8913.28 95.00
1990 23.7900 9149.00 8963.49 96.00
1991 23.8000 9273.00 9028.31 96.00
1992 23.8100 9312.00 9112.57 96.00
1993 23.8200 9400.00 9222.24 97.00
1994 23.8300 9553.00 9364.03 98.00
1995 23.8400 9724.00 9544.67 99.00
1996 23.8500 9919.00 9770.10 100.00
1997 23.8600 10229.00 10043.70 101.00
1998 23.8700 10583.00 10364.70 103.00
1999 23.8800 10934.00 10723.70 105.00
2000 23.8900 11406.00 11099.10 107.00
2001 23.9000 11853.00 11454.00 109.00
2002 23.9100 12149.00 11744.80 110.00
2003 23.9200 12429.00 11945.80 111.00
2004 23.9300 12487.00 12070.30 112.00
2005 23.9400 12424.00 12161.90 111.00
2006 23.9500 12492.00 12266.30 112.00
2007 23.9600 12621.00 12410.20 112.00
2008 23.9700 12747.00 12596.20 113.00
2009 23.9800 12992.00 12804.30 114.00
2010 23.9900 13221.00 12998.60 115.00
2011 24.0000 13270.00 13140.20 115.00
2012 24.0100 13378.00 13206.10 116.00
2013 24.0200 13407.00 13201.60 116.00
2014 24.0300 13418.00 13154.90 116.00
2015 24.0400 13279.00 13100.20 115.00
2016 24.0500 13315.00 13062.40 115.00
2017 24.0600 13251.00 13050.60 115.00
2018 24.0700 13354.00 13057.70 116.00
2019 24.0800 13466.00 13063.60 116.00
2020 24.0900 13487.00 13042.50 116.00
2021 24.1000 13391.00 12973.30 116.00
2022 24.1100 13178.00 12850.50 115.00
2023 24.1200 12808.00 12686.60 113.00
2024 24.1300 12613.00 12507.00 112.00
2025 24.1400 12267.00 12339.50 111.00
2026 24.1500 12073.00 12213.70 110.00
2027 24.1600 11988.00 12135.30 109.00
2028 24.1700 11947.00 12121.10 109.00
2029 24.1800 11884.00 12176.10 109.00
2030 24.1900 12083.00 12299.60 110.00
2031 24.2000 12284.00 12484.40 111.00
2032 24.2100 12614.00 12716.60 112.00
2033 24.2200 12907.00 12975.00 114.00
2034 24.2300 13268.00 13232.40 115.00
2035 24.2400 13526.00 13454.50 116.00
2036 24.2500 13708.00 13602.00 117.00
2037 24.2600 13723.00 13641.10 117.00
2038 24.2700 13694.00 13566.70 117.00
2039 24.2800 13545.00 13417.80 116.00
2040 24.2900 13362.00 13263.40 116.00
2041 24.3000 13140.00 13174.50 115.00
2042 24.3100 13202.00 13206.80 115.00
2043 24.3200 13352.00 13398.10 116.00
2044 24.3300 13715.00 13769.50 117.00
2045 24.3400 14357.00 14326.40 120.00
2046 24.3500 15120.00 15048.50 123.00
2047 24.3600 15911.00 15889.30 126.00
2048 24.3700 16905.00 16757.80 130.00
2049 24.3800 17832.00 17529.10 134.00
2050 24.3900 18476.00 18064.30 136.00
2051 24.4000 18760.00 18301.80 137.00
2052 24.4100 18693.00 18312.20 137.00
2053 24.4200 18525.00 18269.90 136.00
2054 24.4300 18547.00 18366.60 136.00
2055 24.4400 18733.00 18747.40 137.00
2056 24.4500 19419.00 19484.60 139.00
2057 24.4600 20628.00 20561.80 144.00
2058 24.4700 21973.00 21835.00 148.00
2059 24.4800 23159.00 22981.40 152.00
2060 24.4900 23905.00 23522.10 155.00
2061 24.5000 23723.00 23088.10 154.00
2062 24.5100 22367.00 21746.80 150.00
2063 24.5200 20426.00 19921.30 143.00
2064 24.5300 18363.00 18034.60 136.00
2065 24.5400 16377.00 16334.70 128.00
2066 24.5500 14973.00 14924.20 122.00
2067 24.5600 13808.00 13821.50 118.00
2068 24.5700 13033.00 13003.60 114.00
2069 24.5800 12533.00 12430.90 112.00
2070 24.5900 12193.00 12060.10 110.00
2071 24.6000 11925.00 11853.40 109.00
2072 24.6100 11838.00 11781.00 109.00
2073 24.6200 11932.00 11820.10 109.00
2074 24.6300 12070.00 11951.70 110.00
2075 24.6400 12373.00 12156.40 111.00
2076 24.6500 12690.00 12409.30 113.00
2077 24.6600 12871.00 12678.60 113.00
2078 24.6700 13188.00 12915.60 115.00
2079 24.6800 13362.00 13058.00 116.00
2080 24.6900 13282.00 13045.60 115.00
2081 24.7000 13040.00 12853.30 114.00
2082 24.7100 12652.00 12511.00 112.00
2083 24.7200 12098.00 12084.30 110.00
2084 24.7300 11652.00 11637.40 108.00
2085 24.7400 11233.00 11215.20 106.00
2086 24.7500 10861.00 10842.30 104.00
2087 24.7600 10550.00 10529.90 103.00
2088 24.7700 10303.00 10280.90 102.00
2089 24.7800 10131.00 10094.10 101.00
2090 24.7900 10012.00 9966.28 100.00
2091 24.8000 10023.00 9894.66 100.00
2092 24.8100 9933.00 9877.95 100.00
2093 24.8200 10007.00 9916.96 100.00
2094 24.8300 10088.00 10014.40 100.00
2095 24.8400 10238.00 10174.00 101.00
2096 24.8500 10429.00 10398.50 102.00
2097 24.8600 10657.00 10687.60 103.00
2098 24.8700 11047.00 11034.20 105.00
2099 24.8800 11518.00 11419.80 107.00
2100 24.8900 11951.00 11806.70 109.00
2101 24.9000 12301.00 12134.30 111.00
2102 24.9100 12650.00 12329.70 112.00
2103 24.9200 12740.00 12341.50 113.00
2104 24.9300 12562.00 12176.90 112.00
2105 24.9400 12318.00 11896.50 111.00
2106 24.9500 11860.00 11576.70 109.00
2107 24.9600 11516.00 11277.80 107.00
2108 24.9700 11330.00 11038.10 106.00
2109 24.9800 11143.00 10879.30 106.00
2110 24.9900 11161.00 10815.40 106.00
2111 25.0000 11291.00 10853.80 106.00
2112 25.0100 11400.00 11000.30 107.00
2113 25.0200 11623.00 11260.00 108.00
2114 25.0300 12088.00 11637.60 110.00
2115 25.0400 12530.00 12135.40 112.00
2116 25.0500 13097.00 12749.90 114.00
2117 25.0600 13903.00 13465.50 118.00
2118 25.0700 14586.00 14252.90 121.00
2119 25.0800 15301.00 15072.10 124.00
2120 25.0900 16203.00 15893.10 127.00
2121 25.1000 16983.00 16718.30 130.00
2122 25.1100 17908.00 17562.40 134.00
2123 25.1200 18605.00 18414.80 136.00
2124 25.1300 19495.00 19227.00 140.00
2125 25.1400 20041.00 19923.40 142.00
2126 25.1500 20554.00 20416.10 143.00
2127 25.1600 20654.00 20616.40 144.00
2128 25.1700 20336.00 20457.30 143.00
2129 25.1800 19727.00 19925.70 140.00
2130 25.1900 18682.00 19080.00 137.00
2131 25.2000 17430.00 18029.90 132.00
2132 25.2100 16247.00 16896.20 127.00
2133 25.2200 15115.00 15776.50 123.00
2134 25.2300 14114.00 14734.50 119.00
2135 25.2400 13282.00 13801.50 115.00
2136 25.2500 12581.00 12985.10 112.00
2137 25.2600 11962.00 12276.80 109.00
2138 25.2700 11438.00 11664.70 107.00
2139 25.2800 10997.00 11139.90 105.00
2140 25.2900 10583.00 10697.20 103.00
2141 25.3000 10292.00 10330.70 101.00
2142 25.3100 9957.00 10032.00 100.00
2143 25.3200 9704.00 9790.34 99.00
2144 25.3300 9541.00 9595.83 98.00
2145 25.3400 9312.00 9439.63 96.00
2146 25.3500 9189.00 9313.26 96.00
2147 25.3600 9174.00 9210.23 96.00
2148 25.3700 9145.00 9125.31 96.00
2149 25.3800 8912.00 9054.48 94.00
2150 25.3900 8891.00 8994.67 94.00
2151 25.4000 8912.00 8943.60 94.00
2152 25.4100 8850.00 8899.58 94.00
2153 25.4200 8823.00 8861.39 94.00
2154 25.4300 8774.00 8828.15 94.00
2155 25.4400 8679.00 8799.17 93.00
2156 25.4500 8702.00 8773.96 93.00
2157 25.4600 8630.00 8752.13 93.00
2158 25.4700 8638.00 8733.43 93.00
2159 25.4800 8670.00 8717.63 93.00
2160 25.4900 8690.00 8702.24 93.00
2161 25.5000 8631.00 8691.96 93.00
2162 25.5100 8661.00 8684.41 93.00
2163 25.5200 8604.00 8679.72 93.00
2164 25.5300 8622.00 8678.12 93.00
2165 25.5400 8664.00 8679.96 93.00
2166 25.5500 8658.00 8685.85 93.00
2167 25.5600 8687.00 8696.63 93.00
2168 25.5700 8689.00 8713.45 93.00
2169 25.5800 8688.00 8737.92 93.00
2170 25.5900 8682.00 8771.00 93.00
2171 25.6000 8754.00 8817.16 94.00
2172 25.6100 8812.00 8878.06 94.00
2173 25.6200 8874.00 8956.49 94.00
2174 25.6300 8987.00 9054.81 95.00
2175 25.6400 9087.00 9174.52 95.00
2176 25.6500 9191.00 9315.45 96.00
2177 25.6600 9405.00 9474.68 97.00
2178 25.6700 9570.00 9644.84 98.00
2179 25.6800 9754.00 9812.17 99.00
2180 25.6900 9921.00 9955.02 100.00
2181 25.7000 9957.00 10047.30 100.00
2182 25.7100 9952.00 10068.70 100.00
2183 25.7200 9893.00 10017.40 99.00
2184 25.7300 9739.00 9911.23 99.00
2185 25.7400 9545.00 9777.75 98.00
2186 25.7500 9408.00 9641.00 97.00
2187 25.7600 9320.00 9518.06 97.00
2188 25.7700 9214.00 9418.66 96.00
2189 25.7800 9176.00 9350.21 96.00
2190 25.7900 9134.00 9318.98 96.00
2191 25.8000 9117.00 9328.39 95.00
2192 25.8100 9179.00 9383.72 96.00
2193 25.8200 9342.00 9491.61 97.00
2194 25.8300 9475.00 9660.19 97.00
2195 25.8400 9721.00 9898.40 99.00
2196 25.8500 9948.00 10215.10 100.00
2197 25.8600 10260.00 10616.40 101.00
2198 25.8700 10743.00 11103.00 104.00
2199 25.8800 11357.00 11663.40 107.00
2200 25.8900 11980.00 12268.80 109.00
2201 25.9000 12674.00 12850.30 113.00
2202 25.9100 13227.00 13315.80 115.00
2203 25.9200 13413.00 13559.90 116.00
2204 25.9300 13419.00 13513.50 116.00
2205 25.9400 13049.00 13191.80 114.00
2206 25.9500 12474.00 12698.80 112.00
2207 25.9600 11918.00 12165.80 109.00
2208 25.9700 11426.00 11690.60 107.00
2209 25.9800 10985.00 11325.20 105.00
2210 25.9900 10883.00 11091.20 104.00
2211 26.0000 10790.00 10989.80 104.00
2212 26.0100 10805.00 11008.70 104.00
2213 26.0200 11002.00 11117.80 105.00
2214 26.0300 11143.00 11263.60 106.00
2215 26.0400 11179.00 11370.00 106.00
2216 26.0500 11250.00 11372.10 106.00
2217 26.0600 11142.00 11262.10 106.00
2218 26.0700 10980.00 11081.60 105.00
2219 26.0800 10816.00 10870.40 104.00
2220 26.0900 10482.00 10646.40 102.00
2221 26.1000 10253.00 10419.20 101.00
2222 26.1100 10079.00 10202.20 100.00
2223 26.1200 9855.00 10010.10 99.00
2224 26.1300 9656.00 9852.18 98.00
2225 26.1400 9563.00 9731.33 98.00
2226 26.1500 9507.00 9645.93 98.00
2227 26.1600 9365.00 9592.41 97.00
2228 26.1700 9380.00 9566.50 97.00
2229 26.1800 9427.00 9563.91 97.00
2230 26.1900 9414.00 9580.60 97.00
2231 26.2000 9439.00 9612.88 97.00
2232 26.2100 9539.00 9657.54 98.00
2233 26.2200 9598.00 9711.77 98.00
2234 26.2300 9632.00 9773.08 98.00
2235 26.2400 9702.00 9838.82 98.00
2236 26.2500 9767.00 9905.76 99.00
2237 26.2600 9904.00 9969.57 100.00
2238 26.2700 10019.00 10024.30 100.00
2239 26.2800 9991.00 10062.50 100.00
2240 26.2900 10088.00 10076.40 100.00
2241 26.3000 10039.00 10059.30 100.00
2242 26.3100 9947.00 10008.50 100.00
2243 26.3200 9888.00 9926.12 99.00
2244 26.3300 9696.00 9818.61 98.00
2245 26.3400 9499.00 9694.69 97.00
2246 26.3500 9400.00 9562.99 97.00
2247 26.3600 9225.00 9431.32 96.00
2248 26.3700 9094.00 9305.12 95.00
2249 26.3800 9042.00 9188.24 95.00
2250 26.3900 8894.00 9083.25 94.00
2251 26.4000 8761.00 8991.57 94.00
2252 26.4100 8727.00 8913.98 93.00
2253 26.4200 8697.00 8850.74 93.00
2254 26.4300 8652.00 8804.84 93.00
2255 26.4400 8642.00 8770.26 93.00
2256 26.4500 8609.00 8749.92 93.00
2257 26.4600 8580.00 8743.92 93.00
2258 26.4700 8607.00 8752.48 93.00
2259 26.4800 8624.00 8775.86 93.00
2260 26.4900 8701.00 8814.15 93.00
2261 26.5000 8732.00 8866.93 93.00
2262 26.5100 8828.00 8932.86 94.00
2263 26.5200 8859.00 9009.02 94.00
2264 26.5300 8957.00 9090.18 95.00
2265 26.5400 9074.00 9167.70 95.00
2266 26.5500 9152.00 9229.30 96.00
2267 26.5600 9184.00 9261.10 96.00
2268 26.5700 9143.00 9253.41 96.00
2269 26.5800 9044.00 9206.65 95.00
2270 26.5900 8941.00 9131.18 95.00
2271 26.6000 8866.00 9041.17 94.00
2272 26.6100 8775.00 8948.66 94.00
2273 26.6200 8689.00 8861.56 93.00
2274 26.6300 8631.00 8784.08 93.00
2275 26.6400 8565.00 8718.03 93.00
2276 26.6500 8500.00 8663.58 92.00
2277 26.6600 8469.00 8620.01 92.00
2278 26.6700 8441.00 8586.09 92.00
2279 26.6800 8465.00 8560.36 92.00
2280 26.6900 8441.00 8541.41 92.00
2281 26.7000 8401.00 8527.97 92.00
2282 26.7100 8446.00 8519.04 92.00
2283 26.7200 8432.00 8512.62 92.00
2284 26.7300 8398.00 8510.73 92.00
2285 26.7400 8365.00 8511.89 91.00
2286 26.7500 8398.00 8516.05 92.00
2287 26.7600 8411.00 8523.41 92.00
2288 26.7700 8388.00 8534.35 92.00
2289 26.7800 8436.00 8549.50 92.00
2290 26.7900 8470.00 8569.62 92.00
2291 26.8000 8540.00 8595.60 92.00
2292 26.8100 8549.00 8628.24 92.00
2293 26.8200 8534.00 8668.13 92.00
2294 26.8300 8596.00 8715.19 93.00
2295 26.8400 8625.00 8767.92 93.00
2296 26.8500 8715.00 8822.73 93.00
2297 26.8600 8802.00 8874.42 94.00
2298 26.8700 8840.00 8920.38 94.00
2299 26.8800 8800.00 8965.09 94.00
2300 26.8900 8942.00 9019.35 95.00
2301 26.9000 8976.00 9095.48 95.00
2302 26.9100 9109.00 9204.92 95.00
2303 26.9200 9293.00 9358.23 96.00
2304 26.9300 9492.00 9565.34 97.00
2305 26.9400 9707.00 9834.98 99.00
2306 26.9500 10108.00 10173.20 101.00
2307 26.9600 10471.00 10580.70 102.00
2308 26.9700 10963.00 11049.10 105.00
2309 26.9800 11577.00 11555.00 108.00
2310 26.9900 12215.00 12050.50 111.00
2311 27.0000 12647.00 12460.90 112.00
2312 27.0100 12957.00 12700.90 114.00
2313 27.0200 12955.00 12718.10 114.00
2314 27.0300 12689.00 12529.20 113.00
2315 27.0400 12312.00 12207.70 111.00
2316 27.0500 11810.00 11837.40 109.00
2317 27.0600 11379.00 11479.10 107.00
2318 27.0700 11025.00 11165.00 105.00
2319 27.0800 10730.00 10906.40 104.00
2320 27.0900 10627.00 10699.20 103.00
2321 27.1000 10487.00 10539.20 102.00
2322 27.1100 10323.00 10415.20 102.00
2323 27.1200 10218.00 10319.90 101.00
2324 27.1300 10161.00 10249.00 101.00
2325 27.1400 10106.00 10199.70 101.00
2326 27.1500 10028.00 10170.00 100.00
2327 27.1600 10083.00 10158.40 100.00
2328 27.1700 10062.00 10163.30 100.00
2329 27.1800 10055.00 10183.30 100.00
2330 27.1900 10158.00 10217.80 101.00
2331 27.2000 10209.00 10266.40 101.00
2332 27.2100 10258.00 10330.50 101.00
2333 27.2200 10457.00 10413.90 102.00
2334 27.2300 10544.00 10523.90 103.00
2335 27.2400 10554.00 10671.40 103.00
2336 27.2500 10804.00 10869.90 104.00
2337 27.2600 10996.00 11133.10 105.00
2338 27.2700 11328.00 11472.30 106.00
2339 27.2800 11778.00 11892.60 109.00
2340 27.2900 12300.00 12389.80 111.00
2341 27.3000 12804.00 12943.20 113.00
2342 27.3100 13341.00 13508.50 116.00
2343 27.3200 13768.00 14012.80 117.00
2344 27.3300 14175.00 14368.10 119.00
2345 27.3400 14315.00 14510.60 120.00
2346 27.3500 14192.00 14442.30 119.00
2347 27.3600 13875.00 14229.70 118.00
2348 27.3700 13642.00 13960.30 117.00
2349 27.3800 13341.00 13704.70 116.00
2350 27.3900 13120.00 13504.20 115.00
2351 27.4000 13058.00 13377.40 114.00
2352 27.4100 13084.00 13325.90 114.00
2353 27.4200 13126.00 13341.50 115.00
2354 27.4300 13381.00 13409.60 116.00
2355 27.4400 13570.00 13511.60 116.00
2356 27.4500 13767.00 13627.10 117.00
2357 27.4600 13992.00 13736.20 118.00
2358 27.4700 14095.00 13820.80 119.00
2359 27.4800 14060.00 13867.20 119.00
2360 27.4900 14043.00 13867.00 119.00
2361 27.5000 13881.00 13818.50 118.00
2362 27.5100 13717.00 13726.10 117.00
2363 27.5200 13503.00 13599.80 116.00
2364 27.5300 13200.00 13453.10 115.00
2365 27.5400 12797.00 13301.50 113.00
2366 27.5500 12617.00 13160.00 112.00
2367 27.5600 12471.00 13042.40 112.00
2368 27.5700 12286.00 12959.40 111.00
2369 27.5800 12348.00 12917.90 111.00
2370 27.5900 12458.00 12918.70 112.00
2371 27.6000 12531.00 12954.80 112.00
2372 27.6100 12647.00 13008.10 112.00
2373 27.6200 12765.00 13050.20 113.00
2374 27.6300 12817.00 13050.80 113.00
2375 27.6400 12809.00 12992.80 113.00
2376 27.6500 12703.00 12889.30 113.00
2377 27.6600 12487.00 12770.90 112.00
2378 27.6700 12457.00 12671.90 112.00
2379 27.6800 12488.00 12612.40 112.00
2380 27.6900 12452.00 12590.70 112.00
2381 27.7000 12597.00 12583.00 112.00
2382 27.7100 12627.00 12551.70 112.00
2383 27.7200 12456.00 12466.00 112.00
2384 27.7300 12371.00 12321.00 111.00
2385 27.7400 12158.00 12138.80 110.00
2386 27.7500 11893.00 11954.40 109.00
2387 27.7600 11782.00 11793.00 109.00
2388 27.7700 11661.00 11665.40 108.00
2389 27.7800 11528.00 11570.50 107.00
2390 27.7900 11492.00 11498.50 107.00
2391 27.8000 11382.00 11434.80 107.00
2392 27.8100 11384.00 11363.30 107.00
2393 27.8200 11320.00 11270.40 106.00
2394 27.8300 11154.00 11147.80 106.00
2395 27.8400 10900.00 10999.40 104.00
2396 27.8500 10699.00 10822.30 103.00
2397 27.8600 10409.00 10629.10 102.00
2398 27.8700 10247.00 10429.50 101.00
2399 27.8800 10008.00 10232.10 100.00
2400 27.8900 9827.00 10044.30 99.00
2401 27.9000 9633.00 9871.25 98.00
2402 27.9100 9563.00 9717.24 98.00
2403 27.9200 9379.00 9585.23 97.00
2404 27.9300 9357.00 9477.45 97.00
2405 27.9400 9299.00 9395.55 96.00
2406 27.9500 9245.00 9340.67 96.00
2407 27.9600 9128.00 9313.53 96.00
2408 27.9700 9162.00 9314.34 96.00
2409 27.9800 9182.00 9342.74 96.00
2410 27.9900 9320.00 9397.63 97.00
2411 28.0000 9402.00 9476.84 97.00
2412 28.0100 9491.00 9576.74 97.00
2413 28.0200 9541.00 9691.49 98.00
2414 28.0300 9709.00 9812.30 99.00
2415 28.0400 9893.00 9926.50 99.00
2416 28.0500 9991.00 10018.10 100.00
2417 28.0600 10076.00 10070.30 100.00
2418 28.0700 10002.00 10070.90 100.00
2419 28.0800 9902.00 10017.10 100.00
2420 28.0900 9801.00 9916.26 99.00
2421 28.1000 9669.00 9784.16 98.00
2422 28.1100 9447.00 9635.90 97.00
2423 28.1200 9318.00 9484.81 97.00
2424 28.1300 9156.00 9340.38 96.00
2425 28.1400 9044.00 9208.71 95.00
2426 28.1500 8955.00 9093.29 95.00
2427 28.1600 8868.00 8995.81 94.00
2428 28.1700 8796.00 8916.78 94.00
2429 28.1800 8732.00 8855.97 93.00
2430 28.1900 8734.00 8812.90 93.00
2431 28.2000 8676.00 8787.14 93.00
2432 28.2100 8637.00 8778.64 93.00
2433 28.2200 8659.00 8787.98 93.00
2434 28.2300 8699.00 8816.44 93.00
2435 28.2400 8838.00 8865.56 94.00
2436 28.2500 8854.00 8938.83 94.00
2437 28.2600 8868.00 9038.48 94.00
2438 28.2700 9014.00 9170.45 95.00
2439 28.2800 9153.00 9328.67 96.00
2440 28.2900 9318.00 9515.47 97.00
2441 28.3000 9525.00 9725.57 98.00
2442 28.3100 9806.00 9946.98 99.00
2443 28.3200 9976.00 10160.20 100.00
2444 28.3300 10231.00 10341.30 101.00
2445 28.3400 10379.00 10471.50 102.00
2446 28.3500 10454.00 10545.30 102.00
2447 28.3600 10538.00 10568.30 103.00
2448 28.3700 10545.00 10546.90 103.00
2449 28.3800 10360.00 10486.20 102.00
2450 28.3900 10289.00 10391.00 101.00
2451 28.4000 10056.00 10267.10 100.00
2452 28.4100 9933.00 10117.80 100.00
2453 28.4200 9759.00 9944.58 99.00
2454 28.4300 9522.00 9754.61 98.00
2455 28.4400 9311.00 9563.93 96.00
2456 28.4500 9189.00 9388.54 96.00
2457 28.4600 9069.00 9238.38 95.00
2458 28.4700 8948.00 9117.10 95.00
2459 28.4800 8905.00 9025.21 94.00
2460 28.4900 8841.00 8962.07 94.00
2461 28.5000 8787.00 8926.77 94.00
2462 28.5100 8828.00 8918.85 94.00
2463 28.5200 8865.00 8938.59 94.00
2464 28.5300 8866.00 8987.05 94.00
2465 28.5400 8988.00 9065.94 95.00
2466 28.5500 9112.00 9177.12 95.00
2467 28.5600 9208.00 9322.08 96.00
2468 28.5700 9398.00 9501.09 97.00
2469 28.5800 9635.00 9712.16 98.00
2470 28.5900 9867.00 9949.30 99.00
2471 28.6000 10251.00 10200.60 101.00
2472 28.6100 10556.00 10445.20 103.00
2473 28.6200 10785.00 10653.30 104.00
2474 28.6300 10957.00 10791.10 105.00
2475 28.6400 10987.00 10833.40 105.00
2476 28.6500 10774.00 10779.00 104.00
2477 28.6600 10608.00 10650.00 103.00
2478 28.6700 10311.00 10480.90 102.00
2479 28.6800 10060.00 10305.30 100.00
2480 28.6900 9925.00 10146.00 100.00
2481 28.7000 9817.00 10015.40 99.00
2482 28.7100 9729.00 9917.35 99.00
2483 28.7200 9745.00 9848.24 99.00
2484 28.7300 9708.00 9798.54 99.00
2485 28.7400 9695.00 9757.76 98.00
2486 28.7500 9702.00 9711.00 98.00
2487 28.7600 9571.00 9656.87 98.00
2488 28.7700 9571.00 9600.39 98.00
2489 28.7800 9483.00 9551.47 97.00
2490 28.7900 9464.00 9520.46 97.00
2491 28.8000 9342.00 9515.74 97.00
2492 28.8100 9425.00 9543.38 97.00
2493 28.8200 9540.00 9607.69 98.00
2494 28.8300 9618.00 9711.53 98.00
2495 28.8400 9772.00 9856.60 99.00
2496 28.8500 9882.00 10043.20 99.00
2497 28.8600 10011.00 10269.90 100.00
2498 28.8700 10357.00 10533.00 102.00
2499 28.8800 10639.00 10826.30 103.00
2500 28.8900 11017.00 11141.10 105.00
2501 28.9000 11386.00 11467.20 107.00
2502 28.9100 11763.00 11791.00 108.00
2503 28.9200 12000.00 12094.70 110.00
2504 28.9300 12306.00 12357.90 111.00
2505 28.9400 12519.00 12560.10 112.00
2506 28.9500 12558.00 12688.00 112.00
2507 28.9600 12607.00 12738.40 112.00
2508 28.9700 12490.00 12716.70 112.00
2509 28.9800 12353.00 12631.90 111.00
2510 28.9900 12173.00 12491.80 110.00
2511 29.0000 12023.00 12301.70 110.00
2512 29.0100 11708.00 12066.70 108.00
2513 29.0200 11455.00 11798.30 107.00
2514 29.0300 11167.00 11506.30 106.00
2515 29.0400 10846.00 11202.60 104.00
2516 29.0500 10592.00 10898.20 103.00
2517 29.0600 10308.00 10602.00 102.00
2518 29.0700 10037.00 10321.60 100.00
2519 29.0800 9835.00 10062.30 99.00
2520 29.0900 9650.00 9827.43 98.00
2521 29.1000 9400.00 9618.54 97.00
2522 29.1100 9314.00 9435.73 97.00
2523 29.1200 9137.00 9277.84 96.00
2524 29.1300 9061.00 9143.14 95.00
2525 29.1400 8981.00 9029.62 95.00
2526 29.1500 8957.00 8935.14 95.00
2527 29.1600 8814.00 8857.70 94.00
2528 29.1700 8774.00 8794.81 94.00
2529 29.1800 8703.00 8746.39 93.00
2530 29.1900 8703.00 8710.58 93.00
2531 29.2000 8733.00 8686.76 93.00
2532 29.2100 8744.00 8674.95 94.00
2533 29.2200 8664.00 8675.39 93.00
2534 29.2300 8716.00 8687.98 93.00
2535 29.2400 8776.00 8711.39 94.00
2536 29.2500 8760.00 8741.73 94.00
2537 29.2600 8826.00 8771.08 94.00
2538 29.2700 8883.00 8787.84 94.00
2539 29.2800 8831.00 8781.95 94.00
2540 29.2900 8834.00 8752.64 94.00
2541 29.3000 8787.00 8710.23 94.00
2542 29.3100 8718.00 8665.40 93.00
2543 29.3200 8659.00 8626.02 93.00
2544 29.3300 8722.00 8595.92 93.00
2545 29.3400 8651.00 8576.53 93.00
2546 29.3500 8658.00 8568.10 93.00
2547 29.3600 8704.00 8570.54 93.00
2548 29.3700 8682.00 8583.88 93.00
2549 29.3800 8759.00 8608.45 94.00
2550 29.3900 8793.00 8645.11 94.00
2551 29.4000 8812.00 8695.25 94.00
2552 29.4100 8932.00 8760.58 95.00
2553 29.4200 8980.00 8843.03 95.00
2554 29.4300 9104.00 8944.40 95.00
2555 29.4400 9301.00 9065.92 96.00
2556 29.4500 9389.00 9207.41 97.00
2557 29.4600 9540.00 9366.27 98.00
2558 29.4700 9708.00 9536.93 99.00
2559 29.4800 9900.00 9709.48 99.00
2560 29.4900 10008.00 9873.36 100.00
2561 29.5000 10270.00 10023.20 101.00
2562 29.5100 10322.00 10163.50 102.00
2563 29.5200 10401.00 10307.10 102.00
2564 29.5300 10591.00 10468.10 103.00
2565 29.5400 10747.00 10656.90 104.00
2566 29.5500 10982.00 10877.90 105.00
2567 29.5600 11303.00 11130.20 106.00
2568 29.5700 11627.00 11407.10 108.00
2569 29.5800 11876.00 11697.20 109.00
2570 29.5900 12234.00 11983.30 111.00
2571 29.6000 12509.00 12243.80 112.00
2572 29.6100 12646.00 12453.50 112.00
2573 29.6200 12809.00 12588.70 113.00
2574 29.6300 12807.00 12633.00 113.00
2575 29.6400 12544.00 12587.50 112.00
2576 29.6500 12431.00 12469.60 111.00
2577 29.6600 12164.00 12309.30 110.00
2578 29.6700 11909.00 12135.90 109.00
2579 29.6800 11740.00 11972.90 108.00
2580 29.6900 11654.00 11834.70 108.00
2581 29.7000 11504.00 11727.90 107.00
2582 29.7100 11560.00 11652.40 108.00
2583 29.7200 11490.00 11602.10 107.00
2584 29.7300 11538.00 11567.10 107.00
2585 29.7400 11539.00 11536.60 107.00
2586 29.7500 11494.00 11502.50 107.00
2587 29.7600 11451.00 11462.00 107.00
2588 29.7700 11498.00 11416.40 107.00
2589 29.7800 11431.00 11367.90 107.00
2590 29.7900 11408.00 11314.90 107.00
2591 29.8000 11401.00 11250.80 107.00
2592 29.8100 11377.00 11164.80 107.00
2593 29.8200 11242.00 11046.00 106.00
2594 29.8300 11006.00 10888.80 105.00
2595 29.8400 10795.00 10696.30 104.00
2596 29.8500 10496.00 10479.00 102.00
2597 29.8600 10228.00 10250.10 101.00
2598 29.8700 9921.00 10022.30 100.00
2599 29.8800 9624.00 9804.85 98.00
2600 29.8900 9529.00 9604.18 98.00
2601 29.9000 9358.00 9423.40 97.00
2602 29.9100 9246.00 9264.15 96.00
2603 29.9200 9130.00 9126.45 96.00
2604 29.9300 8976.00 9009.43 95.00
2605 29.9400 8878.00 8911.60 94.00
2606 29.9500 8855.00 8831.17 94.00
2607 29.9600 8783.00 8766.12 94.00
2608 29.9700 8755.00 8714.45 94.00
2609 29.9800 8740.00 8674.14 93.00
2610 29.9900 8665.00 8643.79 93.00
2611 30.0000 8598.00 8621.81 93.00
2612 30.0100 8604.00 8606.95 93.00
2613 30.0200 8623.00 8598.15 93.00
2614 30.0300 8658.00 8594.51 93.00
2615 30.0400 8675.00 8595.24 93.00
2616 30.0500 8696.00 8599.71 93.00
2617 30.0600 8612.00 8607.50 93.00
2618 30.0700 8666.00 8618.40 93.00
2619 30.0800 8661.00 8632.47 93.00
2620 30.0900 8695.00 8650.13 93.00
2621 30.1000 8725.00 8672.14 93.00
2622 30.1100 8746.00 8699.74 94.00
2623 30.1200 8714.00 8734.76 93.00
2624 30.1300 8818.00 8779.84 94.00
2625 30.1400 8885.00 8838.47 94.00
2626 30.1500 8952.00 8914.89 95.00
2627 30.1600 9093.00 9013.43 95.00
2628 30.1700 9274.00 9137.19 96.00
2629 30.1800 9332.00 9285.34 97.00
2630 30.1900 9471.00 9447.04 97.00
2631 30.2000 9593.00 9593.20 98.00
2632 30.2100 9650.00 9677.85 98.00
2633 30.2200 9683.00 9672.38 98.00
2634 30.2300 9613.00 9599.05 98.00
2635 30.2400 9444.00 9507.05 97.00
2636 30.2500 9417.00 9432.68 97.00
2637 30.2600 9394.00 9394.71 97.00
2638 30.2700 9422.00 9398.25 97.00
2639 30.2800 9482.00 9444.15 97.00
2640 30.2900 9564.00 9530.96 98.00
2641 30.3000 9609.00 9656.38 98.00
2642 30.3100 9759.00 9818.02 99.00
2643 30.3200 9981.00 10013.80 100.00
2644 30.3300 10170.00 10241.50 101.00
2645 30.3400 10542.00 10496.40 103.00
2646 30.3500 10841.00 10768.50 104.00
2647 30.3600 11134.00 11038.30 106.00
2648 30.3700 11433.00 11275.90 107.00
2649 30.3800 11616.00 11443.20 108.00
2650 30.3900 11614.00 11504.50 108.00
2651 30.4000 11500.00 11442.40 107.00
2652 30.4100 11253.00 11267.00 106.00
2653 30.4200 10898.00 11010.60 104.00
2654 30.4300 10551.00 10712.80 103.00
2655 30.4400 10193.00 10407.70 101.00
2656 30.4500 9925.00 10119.00 100.00
2657 30.4600 9708.00 9861.01 99.00
2658 30.4700 9542.00 9640.77 98.00
2659 30.4800 9340.00 9460.65 97.00
2660 30.4900 9219.00 9320.13 96.00
2661 30.5000 9149.00 9216.83 96.00
2662 30.5100 9209.00 9147.43 96.00
2663 30.5200 9200.00 9108.40 96.00
2664 30.5300 9125.00 9096.24 96.00
2665 30.5400 9151.00 9107.95 96.00
2666 30.5500 9163.00 9141.03 96.00
2667 30.5600 9263.00 9193.37 96.00
2668 30.5700 9306.00 9263.01 96.00
2669 30.5800 9477.00 9347.86 97.00
2670 30.5900 9530.00 9445.01 98.00
2671 30.6000 9661.00 9550.07 98.00
2672 30.6100 9783.00 9655.50 99.00
2673 30.6200 9825.00 9749.14 99.00
2674 30.6300 9893.00 9814.71 99.00
2675 30.6400 9913.00 9838.29 100.00
2676 30.6500 9854.00 9816.83 99.00
2677 30.6600 9757.00 9765.08 99.00
2678 30.6700 9716.00 9706.89 99.00
2679 30.6800 9628.00 9655.64 98.00
2680 30.6900 9661.00 9628.42 98.00
2681 30.7000 9654.00 9633.11 98.00
2682 30.7100 9787.00 9673.30 99.00
2683 30.7200 9764.00 9749.48 99.00
2684 30.7300 9946.00 9859.63 100.00
2685 30.7400 10116.00 9999.23 101.00
2686 30.7500 10368.00 10160.90 102.00
2687 30.7600 10575.00 10333.80 103.00
2688 30.7700 10762.00 10503.70 104.00
2689 30.7800 10832.00 10654.20 104.00
2690 30.7900 10946.00 10769.60 105.00
2691 30.8000 11014.00 10840.20 105.00
2692 30.8100 11038.00 10865.90 105.00
2693 30.8200 10957.00 10857.20 105.00
2694 30.8300 10932.00 10831.10 105.00
2695 30.8400 10801.00 10805.40 104.00
2696 30.8500 10774.00 10794.70 104.00
2697 30.8600 10858.00 10808.00 104.00
2698 30.8700 10834.00 10848.00 104.00
2699 30.8800 10951.00 10911.60 105.00
2700 30.8900 11076.00 10991.00 105.00
2701 30.9000 11150.00 11075.70 106.00
2702 30.9100 11217.00 11155.80 106.00
2703 30.9200 11320.00 11224.20 106.00
2704 30.9300 11353.00 11279.90 107.00
2705 30.9400 11456.00 11332.60 107.00
2706 30.9500 11561.00 11401.40 108.00
2707 30.9600 11566.00 11506.60 108.00
2708 30.9700 11778.00 11660.80 109.00
2709 30.9800 11963.00 11866.60 109.00
2710 30.9900 12346.00 12113.00 111.00
2711 31.0000 12666.00 12370.30 113.00
2712 31.0100 12883.00 12583.10 114.00
2713 31.0200 12839.00 12678.20 113.00
2714 31.0300 12764.00 12600.80 113.00
2715 31.0400 12428.00 12357.60 111.00
2716 31.0500 12017.00 12008.30 110.00
2717 31.0600 11628.00 11619.90 108.00
2718 31.0700 11187.00 11237.80 106.00
2719 31.0800 10817.00 10886.90 104.00
2720 31.0900 10479.00 10571.90 102.00
2721 31.1000 10169.00 10296.20 101.00
2722 31.1100 9918.00 10058.60 100.00
2723 31.1200 9741.00 9854.92 99.00
2724 31.1300 9621.00 9681.23 98.00
2725 31.1400 9447.00 9534.16 97.00
2726 31.1500 9381.00 9410.69 97.00
2727 31.1600 9298.00 9308.89 96.00
2728 31.1700 9257.00 9227.23 96.00
2729 31.1800 9215.00 9164.58 96.00
2730 31.1900 9220.00 9119.60 96.00
2731 31.2000 9157.00 9092.24 96.00
2732 31.2100 9159.00 9081.19 96.00
2733 31.2200 9184.00 9085.67 96.00
2734 31.2300 9204.00 9105.06 96.00
2735 31.2400 9269.00 9138.84 96.00
2736 31.2500 9268.00 9186.36 96.00
2737 31.2600 9350.00 9246.36 97.00
2738 31.2700 9462.00 9316.75 97.00
2739 31.2800 9505.00 9394.43 97.00
2740 31.2900 9599.00 9475.36 98.00
2741 31.3000 9700.00 9554.71 98.00
2742 31.3100 9801.00 9626.68 99.00
2743 31.3200 9812.00 9685.10 99.00
2744 31.3300 9901.00 9723.23 100.00
2745 31.3400 9892.00 9736.36 99.00
2746 31.3500 9803.00 9724.29 99.00
2747 31.3600 9818.00 9692.27 99.00
2748 31.3700 9797.00 9649.20 99.00
2749 31.3800 9733.00 9604.08 99.00
2750 31.3900 9733.00 9563.54 99.00
2751 31.4000 9678.00 9531.36 98.00
2752 31.4100 9686.00 9509.40 98.00
2753 31.4200 9669.00 9499.17 98.00
2754 31.4300 9680.00 9502.99 98.00
2755 31.4400 9635.00 9524.30 98.00
2756 31.4500 9714.00 9567.12 99.00
2757 31.4600 9767.00 9635.31 99.00
2758 31.4700 9814.00 9731.35 99.00
2759 31.4800 9961.00 9855.81 100.00
2760 31.4900 10136.00 10006.30 101.00
2761 31.5000 10239.00 10176.60 101.00
2762 31.5100 10494.00 10356.30 102.00
2763 31.5200 10703.00 10530.20 103.00
2764 31.5300 10787.00 10679.20 104.00
2765 31.5400 10851.00 10784.40 104.00
2766 31.5500 10929.00 10833.90 105.00
2767 31.5600 10792.00 10827.80 104.00
2768 31.5700 10740.00 10778.80 104.00
2769 31.5800 10671.00 10707.20 103.00
2770 31.5900 10570.00 10633.30 103.00
2771 31.6000 10539.00 10572.80 103.00
2772 31.6100 10549.00 10534.40 103.00
2773 31.6200 10420.00 10518.50 102.00
2774 31.6300 10475.00 10518.60 102.00
2775 31.6400 10504.00 10524.40 102.00
2776 31.6500 10492.00 10528.40 102.00
2777 31.6600 10525.00 10531.40 103.00
2778 31.6700 10507.00 10542.90 103.00
2779 31.6800 10512.00 10573.50 103.00
2780 31.6900 10564.00 10627.50 103.00
2781 31.7000 10657.00 10697.00 103.00
2782 31.7100 10709.00 10760.20 103.00
2783 31.7200 10764.00 10785.40 104.00
2784 31.7300 10726.00 10745.20 104.00
2785 31.7400 10577.00 10633.40 103.00
2786 31.7500 10423.00 10466.10 102.00
2787 31.7600 10194.00 10269.70 101.00
2788 31.7700 9985.00 10068.80 100.00
2789 31.7800 9823.00 9881.26 99.00
2790 31.7900 9671.00 9718.65 98.00
2791 31.8000 9512.00 9587.44 98.00
2792 31.8100 9465.00 9490.08 97.00
2793 31.8200 9440.00 9425.97 97.00
2794 31.8300 9387.00 9392.29 97.00
2795 31.8400 9484.00 9383.86 97.00
2796 31.8500 9523.00 9392.87 98.00
2797 31.8600 9489.00 9408.95 97.00
2798 31.8700 9500.00 9420.22 97.00
2799 31.8800 9477.00 9416.16 97.00
2800 31.8900 9487.00 9391.26 97.00
2801 31.9000 9437.00 9346.79 97.00
2802 31.9100 9384.00 9289.00 97.00
2803 31.9200 9255.00 9225.29 96.00
2804 31.9300 9228.00 9161.03 96.00
2805 31.9400 9154.00 9098.55 96.00
2806 31.9500 9128.00 9037.41 96.00
2807 31.9600 9057.00 8975.74 95.00
2808 31.9700 9056.00 8911.82 95.00
2809 31.9800 8877.00 8845.22 94.00
2810 31.9900 8817.00 8777.08 94.00
2811 32.0000 8775.00 8709.64 94.00
2812 32.0100 8704.00 8645.25 93.00
2813 32.0200 8665.00 8585.84 93.00
2814 32.0300 8629.00 8532.73 93.00
2815 32.0400 8539.00 8486.59 92.00
2816 32.0500 8490.00 8447.75 92.00
2817 32.0600 8473.00 8416.26 92.00
2818 32.0700 8429.00 8392.00 92.00
2819 32.0800 8453.00 8374.78 92.00
2820 32.0900 8400.00 8364.35 92.00
2821 32.1000 8393.00 8360.46 92.00
2822 32.1100 8447.00 8362.80 92.00
2823 32.1200 8431.00 8370.88 92.00
2824 32.1300 8408.00 8384.75 92.00
2825 32.1400 8479.00 8404.04 92.00
2826 32.1500 8464.00 8428.30 92.00
2827 32.1600 8439.00 8457.16 92.00
2828 32.1700 8525.00 8490.10 92.00
2829 32.1800 8551.00 8526.53 92.00
2830 32.1900 8632.00 8565.70 93.00
2831 32.2000 8727.00 8606.57 93.00
2832 32.2100 8751.00 8647.92 94.00
2833 32.2200 8792.00 8688.17 94.00
2834 32.2300 8850.00 8725.76 94.00
2835 32.2400 8861.00 8758.94 94.00
2836 32.2500 8888.00 8786.41 94.00
2837 32.2600 8925.00 8807.46 94.00
2838 32.2700 8988.00 8822.49 95.00
2839 32.2800 8934.00 8832.92 95.00
2840 32.2900 8992.00 8841.19 95.00
2841 32.3000 8923.00 8850.38 94.00
2842 32.3100 8923.00 8863.81 94.00
2843 32.3200 9026.00 8884.78 95.00
2844 32.3300 9028.00 8915.77 95.00
2845 32.3400 9040.00 8960.06 95.00
2846 32.3500 9113.00 9018.96 95.00
2847 32.3600 9202.00 9093.36 96.00
2848 32.3700 9263.00 9183.13 96.00
2849 32.3800 9397.00 9286.66 97.00
2850 32.3900 9547.00 9400.85 98.00
2851 32.4000 9595.00 9520.21 98.00
2852 32.4100 9753.00 9636.96 99.00
2853 32.4200 9862.00 9740.54 99.00
2854 32.4300 9963.00 9818.82 100.00
2855 32.4400 9930.00 9859.71 100.00
2856 32.4500 9902.00 9854.57 100.00
2857 32.4600 9773.00 9801.31 99.00
2858 32.4700 9691.00 9705.77 98.00
2859 32.4800 9490.00 9579.03 97.00
2860 32.4900 9315.00 9434.35 97.00
2861 32.5000 9164.00 9283.40 96.00
2862 32.5100 9042.00 9135.37 95.00
2863 32.5200 8920.00 8996.34 94.00
2864 32.5300 8810.00 8869.97 94.00
2865 32.5400 8742.00 8758.17 93.00
2866 32.5500 8637.00 8661.54 93.00
2867 32.5600 8624.00 8579.97 93.00
2868 32.5700 8556.00 8512.51 92.00
2869 32.5800 8474.00 8458.09 92.00
2870 32.5900 8468.00 8415.12 92.00
2871 32.6000 8474.00 8382.69 92.00
2872 32.6100 8443.00 8359.24 92.00
2873 32.6200 8424.00 8343.64 92.00
2874 32.6300 8437.00 8334.70 92.00
2875 32.6400 8384.00 8332.21 92.00
2876 32.6500 8366.00 8335.36 91.00
2877 32.6600 8389.00 8343.83 92.00
2878 32.6700 8385.00 8357.39 92.00
2879 32.6800 8485.00 8375.93 92.00
2880 32.6900 8462.00 8399.35 92.00
2881 32.7000 8481.00 8427.49 92.00
2882 32.7100 8489.00 8460.11 92.00
2883 32.7200 8570.00 8496.69 93.00
2884 32.7300 8595.00 8536.70 93.00
2885 32.7400 8633.00 8581.07 93.00
2886 32.7500 8705.00 8624.12 93.00
2887 32.7600 8673.00 8665.77 93.00
2888 32.7700 8742.00 8703.47 93.00
2889 32.7800 8802.00 8734.45 94.00
2890 32.7900 8800.00 8756.47 94.00
2891 32.8000 8835.00 8768.63 94.00
2892 32.8100 8900.00 8771.48 94.00
2893 32.8200 8812.00 8766.78 94.00
2894 32.8300 8796.00 8756.71 94.00
2895 32.8400 8759.00 8743.23 94.00
2896 32.8500 8767.00 8727.84 94.00
2897 32.8600 8810.00 8711.49 94.00
2898 32.8700 8749.00 8694.81 94.00
2899 32.8800 8687.00 8678.21 93.00
2900 32.8900 8676.00 8662.03 93.00
2901 32.9000 8696.00 8646.63 93.00
2902 32.9100 8647.00 8631.98 93.00
2903 32.9200 8618.00 8619.16 93.00
2904 32.9300 8702.00 8608.17 93.00
2905 32.9400 8573.00 8599.26 93.00
2906 32.9500 8660.00 8592.36 93.00
2907 32.9600 8642.00 8587.45 93.00
2908 32.9700 8605.00 8583.53 93.00
2909 32.9800 8664.00 8579.01 93.00
2910 32.9900 8634.00 8571.81 93.00
2911 33.0000 8553.00 8560.25 92.00
2912 33.0100 8595.00 8544.22 93.00
2913 33.0200 8542.00 8525.27 92.00
2914 33.0300 8532.00 8505.62 92.00
2915 33.0400 8531.00 8487.21 92.00
2916 33.0500 8541.00 8471.17 92.00
2917 33.0600 8456.00 8458.06 92.00
2918 33.0700 8531.00 8447.94 92.00
2919 33.0800 8468.00 8440.67 92.00
2920 33.0900 8471.00 8438.50 92.00
2921 33.1000 8544.00 8436.28 92.00
2922 33.1100 8530.00 8436.29 92.00
2923 33.1200 8463.00 8438.48 92.00
2924 33.1300 8556.00 8442.91 92.00
2925 33.1400 8576.00 8449.81 93.00
2926 33.1500 8539.00 8459.39 92.00
2927 33.1600 8607.00 8472.51 93.00
2928 33.1700 8602.00 8489.67 93.00
2929 33.1800 8621.00 8511.68 93.00
2930 33.1900 8656.00 8539.50 93.00
2931 33.2000 8673.00 8574.19 93.00
2932 33.2100 8745.00 8616.94 94.00
2933 33.2200 8754.00 8669.24 94.00
2934 33.2300 8812.00 8732.50 94.00
2935 33.2400 8849.00 8808.12 94.00
2936 33.2500 8973.00 8897.48 95.00
2937 33.2600 9062.00 9001.73 95.00
2938 33.2700 9187.00 9121.49 96.00
2939 33.2800 9337.00 9256.74 97.00
2940 33.2900 9534.00 9406.05 98.00
2941 33.3000 9609.00 9566.65 98.00
2942 33.3100 9830.00 9732.76 99.00
2943 33.3200 9968.00 9896.40 100.00
2944 33.3300 10165.00 10045.40 101.00
2945 33.3400 10289.00 10166.10 101.00
2946 33.3500 10352.00 10246.20 102.00
2947 33.3600 10288.00 10281.00 101.00
2948 33.3700 10305.00 10277.10 102.00
2949 33.3800 10247.00 10251.20 101.00
2950 33.3900 10202.00 10225.00 101.00
2951 33.4000 10231.00 10219.30 101.00
2952 33.4100 10278.00 10250.80 101.00
2953 33.4200 10292.00 10329.90 101.00
2954 33.4300 10424.00 10457.80 102.00
2955 33.4400 10552.00 10619.80 103.00
2956 33.4500 10670.00 10779.00 103.00
2957 33.4600 10775.00 10871.10 104.00
2958 33.4700 10717.00 10848.60 104.00
2959 33.4800 10540.00 10715.70 103.00
2960 33.4900 10421.00 10527.40 102.00
2961 33.5000 10272.00 10342.10 101.00
2962 33.5100 10147.00 10195.60 101.00
2963 33.5200 10148.00 10100.70 101.00
2964 33.5300 10073.00 10056.30 100.00
2965 33.5400 10101.00 10054.10 101.00
2966 33.5500 10198.00 10080.70 101.00
2967 33.5600 10254.00 10120.00 101.00
2968 33.5700 10251.00 10155.40 101.00
2969 33.5800 10272.00 10173.40 101.00
2970 33.5900 10211.00 10167.60 101.00
2971 33.6000 10169.00 10140.20 101.00
2972 33.6100 10106.00 10100.40 101.00
2973 33.6200 10113.00 10059.40 101.00
2974 33.6300 10062.00 10028.10 100.00
2975 33.6400 10076.00 10015.00 100.00
2976 33.6500 10104.00 10026.30 101.00
2977 33.6600 10082.00 10066.40 100.00
2978 33.6700 10172.00 10137.90 101.00
2979 33.6800 10314.00 10241.60 102.00
2980 33.6900 10413.00 10376.10 102.00
2981 33.7000 10648.00 10536.50 103.00
2982 33.7100 10830.00 10712.80 104.00
2983 33.7200 10935.00 10887.10 105.00
2984 33.7300 11147.00 11032.80 106.00
2985 33.7400 11215.00 11117.50 106.00
2986 33.7500 11164.00 11115.40 106.00
2987 33.7600 11039.00 11020.60 105.00
2988 33.7700 10827.00 10851.40 104.00
2989 33.7800 10564.00 10640.60 103.00
2990 33.7900 10362.00 10420.30 102.00
2991 33.8000 10123.00 10214.10 101.00
2992 33.8100 9989.00 10036.30 100.00
2993 33.8200 9864.00 9894.13 99.00
2994 33.8300 9744.00 9790.49 99.00
2995 33.8400 9657.00 9725.48 98.00
2996 33.8500 9676.00 9697.78 98.00
2997 33.8600 9743.00 9704.98 99.00
2998 33.8700 9803.00 9744.25 99.00
2999 33.8800 9944.00 9812.34 100.00
3000 33.8900 10053.00 9905.66 100.00
3001 33.9000 10125.00 10020.00 101.00
3002 33.9100 10297.00 10149.70 101.00
3003 33.9200 10538.00 10289.30 103.00
3004 33.9300 10740.00 10430.20 104.00
3005 33.9400 10916.00 10562.30 104.00
3006 33.9500 10971.00 10674.00 105.00
3007 33.9600 11006.00 10754.70 105.00
3008 33.9700 11022.00 10795.30 105.00
3009 33.9800 10883.00 10791.50 104.00
3010 33.9900 10806.00 10743.80 104.00
3011 34.0000 10685.00 10656.40 103.00
3012 34.0100 10497.00 10536.20 102.00
3013 34.0200 10303.00 10391.20 102.00
3014 34.0300 10158.00 10230.10 101.00
3015 34.0400 9954.00 10061.40 100.00
3016 34.0500 9764.00 9892.48 99.00
3017 34.0600 9681.00 9729.57 98.00
3018 34.0700 9515.00 9577.62 98.00
3019 34.0800 9371.00 9440.80 97.00
3020 34.0900 9312.00 9322.29 96.00
3021 34.1000 9239.00 9224.83 96.00
3022 34.1100 9211.00 9150.56 96.00
3023 34.1200 9212.00 9100.93 96.00
3024 34.1300 9229.00 9078.00 96.00
3025 34.1400 9172.00 9082.76 96.00
3026 34.1500 9352.00 9115.88 97.00
3027 34.1600 9322.00 9176.18 97.00
3028 34.1700 9412.00 9262.01 97.00
3029 34.1800 9559.00 9364.78 98.00
3030 34.1900 9694.00 9468.96 98.00
3031 34.2000 9706.00 9551.72 99.00
3032 34.2100 9773.00 9592.01 99.00
3033 34.2200 9692.00 9583.96 98.00
3034 34.2300 9671.00 9541.39 98.00
3035 34.2400 9634.00 9486.44 98.00
3036 34.2500 9601.00 9436.30 98.00
3037 34.2600 9514.00 9399.56 98.00
3038 34.2700 9523.00 9373.64 98.00
3039 34.2800 9468.00 9353.87 97.00
3040 34.2900 9487.00 9333.30 97.00
3041 34.3000 9391.00 9306.42 97.00
3042 34.3100 9386.00 9273.71 97.00
3043 34.3200 9280.00 9237.78 96.00
3044 34.3300 9307.00 9203.67 96.00
3045 34.3400 9227.00 9175.96 96.00
3046 34.3500 9260.00 9157.84 96.00
3047 34.3600 9292.00 9150.83 96.00
3048 34.3700 9212.00 9155.07 96.00
3049 34.3800 9220.00 9169.57 96.00
3050 34.3900 9258.00 9192.48 96.00
3051 34.4000 9312.00 9221.54 96.00
3052 34.4100 9282.00 9254.59 96.00
3053 34.4200 9382.00 9290.08 97.00
3054 34.4300 9407.00 9327.45 97.00
3055 34.4400 9364.00 9366.88 97.00
3056 34.4500 9398.00 9408.63 97.00
3057 34.4600 9449.00 9452.51 97.00
3058 34.4700 9503.00 9497.44 97.00
3059 34.4800 9595.00 9541.39 98.00
3060 34.4900 9578.00 9581.72 98.00
3061 34.5000 9603.00 9615.77 98.00
3062 34.5100 9634.00 9641.70 98.00
3063 34.5200 9696.00 9658.81 98.00
3064 34.5300 9689.00 9667.44 98.00
3065 34.5400 9674.00 9668.26 98.00
3066 34.5500 9631.00 9661.13 98.00
3067 34.5600 9563.00 9644.38 98.00
3068 34.5700 9480.00 9615.10 97.00
3069 34.5800 9498.00 9570.76 97.00
3070 34.5900 9371.00 9511.03 97.00
3071 34.6000 9353.00 9438.96 97.00
3072 34.6100 9288.00 9359.98 96.00
3073 34.6200 9162.00 9280.02 96.00
3074 34.6300 9127.00 9204.35 96.00
3075 34.6400 9040.00 9136.76 95.00
3076 34.6500 9031.00 9079.90 95.00
3077 34.6600 8973.00 9035.24 95.00
3078 34.6700 9034.00 9003.61 95.00
3079 34.6800 8969.00 8985.08 95.00
3080 34.6900 9014.00 8979.21 95.00
3081 34.7000 8975.00 8985.01 95.00
3082 34.7100 9030.00 9001.04 95.00
3083 34.7200 9079.00 9025.18 95.00
3084 34.7300 9119.00 9055.17 95.00
3085 34.7400 9056.00 9087.65 95.00
3086 34.7500 9154.00 9118.65 96.00
3087 34.7600 9158.00 9143.62 96.00
3088 34.7700 9171.00 9157.70 96.00
3089 34.7800 9182.00 9157.40 96.00
3090 34.7900 9156.00 9141.46 96.00
3091 34.8000 9004.00 9111.58 95.00
3092 34.8100 8975.00 9071.91 95.00
3093 34.8200 8931.00 9027.23 95.00
3094 34.8300 8868.00 8983.61 94.00
3095 34.8400 8883.00 8944.78 94.00
3096 34.8500 8842.00 8913.93 94.00
3097 34.8600 8819.00 8893.23 94.00
3098 34.8700 8857.00 8884.20 94.00
3099 34.8800 8818.00 8887.74 94.00
3100 34.8900 8875.00 8904.29 94.00
3101 34.9000 8976.00 8933.79 95.00
3102 34.9100 8988.00 8975.66 95.00
3103 34.9200 9087.00 9028.55 95.00
3104 34.9300 9165.00 9090.30 96.00
3105 34.9400 9277.00 9157.70 96.00
3106 34.9500 9370.00 9226.53 97.00
3107 34.9600 9448.00 9292.57 97.00
3108 34.9700 9521.00 9352.71 98.00
3109 34.9800 9490.00 9406.13 97.00
3110 34.9900 9562.00 9454.35 98.00
3111 35.0000 9561.00 9500.29 98.00
3112 35.0100 9575.00 9546.13 98.00
3113 35.0200 9679.00 9591.88 98.00
3114 35.0300 9715.00 9634.64 99.00
3115 35.0400 9675.00 9669.27 98.00
3116 35.0500 9658.00 9690.53 98.00
3117 35.0600 9655.00 9696.02 98.00
3118 35.0700 9645.00 9687.87 98.00
3119 35.0800 9594.00 9672.87 98.00
3120 35.0900 9588.00 9658.71 98.00
3121 35.1000 9548.00 9652.25 98.00
3122 35.1100 9568.00 9657.92 98.00
3123 35.1200 9565.00 9677.37 98.00
3124 35.1300 9640.00 9709.60 98.00
3125 35.1400 9724.00 9750.95 99.00
3126 35.1500 9808.00 9795.01 99.00
3127 35.1600 9806.00 9832.90 99.00
3128 35.1700 9889.00 9854.10 99.00
3129 35.1800 9846.00 9849.08 99.00
3130 35.1900 9770.00 9812.07 99.00
3131 35.2000 9684.00 9744.17 98.00
3132 35.2100 9539.00 9651.43 98.00
3133 35.2200 9363.00 9543.25 97.00
3134 35.2300 9284.00 9428.72 96.00
3135 35.2400 9197.00 9315.39 96.00
3136 35.2500 9058.00 9208.32 95.00
3137 35.2600 8976.00 9110.83 95.00
3138 35.2700 8900.00 9024.57 94.00
3139 35.2800 8892.00 8950.34 94.00
3140 35.2900 8797.00 8888.32 94.00
3141 35.3000 8757.00 8838.22 94.00
3142 35.3100 8716.00 8799.24 93.00
3143 35.3200 8769.00 8771.02 94.00
3144 35.3300 8719.00 8752.92 93.00
3145 35.3400 8741.00 8743.98 93.00
3146 35.3500 8739.00 8743.39 93.00
3147 35.3600 8741.00 8750.06 93.00
3148 35.3700 8778.00 8762.93 94.00
3149 35.3800 8832.00 8779.86 94.00
3150 35.3900 8880.00 8798.11 94.00
3151 35.4000 8881.00 8814.71 94.00
3152 35.4100 8916.00 8828.01 94.00
3153 35.4200 8866.00 8838.46 94.00
3154 35.4300 8904.00 8847.67 94.00
3155 35.4400 8969.00 8856.97 95.00
3156 35.4500 8975.00 8866.90 95.00
3157 35.4600 8958.00 8877.58 95.00
3158 35.4700 9014.00 8889.22 95.00
3159 35.4800 8993.00 8902.57 95.00
3160 35.4900 9004.00 8918.89 95.00
3161 35.5000 9095.00 8939.85 95.00
3162 35.5100 9093.00 8967.15 95.00
3163 35.5200 9007.00 9002.34 95.00
3164 35.5300 9095.00 9047.39 95.00
3165 35.5400 9107.00 9101.84 95.00
3166 35.5500 9167.00 9166.81 96.00
3167 35.5600 9281.00 9242.18 96.00
3168 35.5700 9421.00 9327.35 97.00
3169 35.5800 9465.00 9420.86 97.00
3170 35.5900 9601.00 9520.51 98.00
3171 35.6000 9647.00 9623.03 98.00
3172 35.6100 9759.00 9724.45 99.00
3173 35.6200 9810.00 9820.10 99.00
3174 35.6300 9930.00 9905.39 100.00
3175 35.6400 9964.00 9976.79 100.00
3176 35.6500 9938.00 10032.30 100.00
3177 35.6600 9964.00 10071.70 100.00
3178 35.6700 10017.00 10095.40 100.00
3179 35.6800 10037.00 10104.20 100.00
3180 35.6900 10038.00 10098.70 100.00
3181 35.7000 9932.00 10079.20 100.00
3182 35.7100 9920.00 10046.90 100.00
3183 35.7200 9889.00 10003.60 99.00
3184 35.7300 9853.00 9951.72 99.00
3185 35.7400 9850.00 9894.08 99.00
3186 35.7500 9776.00 9833.65 99.00
3187 35.7600 9645.00 9772.60 98.00
3188 35.7700 9597.00 9712.38 98.00
3189 35.7800 9550.00 9654.05 98.00
3190 35.7900 9509.00 9598.06 98.00
3191 35.8000 9515.00 9544.50 98.00
3192 35.8100 9478.00 9493.52 97.00
3193 35.8200 9374.00 9445.21 97.00
3194 35.8300 9327.00 9399.86 97.00
3195 35.8400 9317.00 9357.43 97.00
3196 35.8500 9284.00 9320.13 96.00
3197 35.8600 9238.00 9286.14 96.00
3198 35.8700 9180.00 9256.74 96.00
3199 35.8800 9114.00 9231.97 95.00
3200 35.8900 9095.00 9211.48 95.00
3201 35.9000 9154.00 9194.18 96.00
3202 35.9100 9123.00 9179.09 96.00
3203 35.9200 9165.00 9164.72 96.00
3204 35.9300 9186.00 9150.43 96.00
3205 35.9400 9132.00 9136.80 96.00
3206 35.9500 9101.00 9125.58 95.00
3207 35.9600 9107.00 9119.17 95.00
3208 35.9700 9124.00 9120.21 96.00
3209 35.9800 9168.00 9131.11 96.00
3210 35.9900 9211.00 9153.93 96.00
3211 36.0000 9180.00 9189.83 96.00
3212 36.0100 9279.00 9238.58 96.00
3213 36.0200 9317.00 9298.76 97.00
3214 36.0300 9431.00 9369.76 97.00
3215 36.0400 9451.00 9454.00 97.00
3216 36.0500 9640.00 9556.39 98.00
3217 36.0600 9655.00 9680.13 98.00
3218 36.0700 9831.00 9823.11 99.00
3219 36.0800 9966.00 9974.16 100.00
3220 36.0900 10104.00 10111.60 101.00
3221 36.1000 10210.00 10205.00 101.00
3222 36.1100 10242.00 10227.00 101.00
3223 36.1200 10132.00 10168.80 101.00
3224 36.1300 10011.00 10046.60 100.00
3225 36.1400 9816.00 9890.09 99.00
3226 36.1500 9646.00 9727.58 98.00
3227 36.1600 9440.00 9577.17 97.00
3228 36.1700 9357.00 9448.18 97.00
3229 36.1800 9249.00 9343.48 96.00
3230 36.1900 9228.00 9262.60 96.00
3231 36.2000 9144.00 9203.51 96.00
3232 36.2100 9065.00 9163.85 95.00
3233 36.2200 9090.00 9142.03 95.00
3234 36.2300 9135.00 9137.64 96.00
3235 36.2400 9140.00 9151.44 96.00
3236 36.2500 9155.00 9185.05 96.00
3237 36.2600 9169.00 9240.11 96.00
3238 36.2700 9256.00 9319.42 96.00
3239 36.2800 9414.00 9424.27 97.00
3240 36.2900 9520.00 9555.32 98.00
3241 36.3000 9621.00 9712.00 98.00
3242 36.3100 9770.00 9890.80 99.00
3243 36.3200 9971.00 10084.30 100.00
3244 36.3300 10188.00 10279.00 101.00
3245 36.3400 10342.00 10455.40 102.00
3246 36.3500 10428.00 10590.80 102.00
3247 36.3600 10512.00 10667.30 103.00
3248 36.3700 10533.00 10680.20 103.00
3249 36.3800 10413.00 10640.40 102.00
3250 36.3900 10334.00 10567.40 102.00
3251 36.4000 10201.00 10480.90 101.00
3252 36.4100 10185.00 10394.90 101.00
3253 36.4200 10053.00 10317.20 100.00
3254 36.4300 10110.00 10251.00 101.00
3255 36.4400 10008.00 10196.70 100.00
3256 36.4500 9992.00 10153.10 100.00
3257 36.4600 10009.00 10118.50 100.00
3258 36.4700 10001.00 10090.70 100.00
3259 36.4800 9872.00 10067.30 99.00
3260 36.4900 9905.00 10045.80 100.00
3261 36.5000 9926.00 10023.40 100.00
3262 36.5100 9882.00 9997.73 99.00
3263 36.5200 9863.00 9966.50 99.00
3264 36.5300 9835.00 9928.45 99.00
3265 36.5400 9729.00 9883.50 99.00
3266 36.5500 9693.00 9832.69 98.00
3267 36.5600 9581.00 9778.36 98.00
3268 36.5700 9544.00 9723.03 98.00
3269 36.5800 9524.00 9669.64 98.00
3270 36.5900 9445.00 9620.64 97.00
3271 36.6000 9332.00 9578.22 97.00
3272 36.6100 9328.00 9544.11 97.00
3273 36.6200 9268.00 9519.64 96.00
3274 36.6300 9267.00 9506.43 96.00
3275 36.6400 9340.00 9503.28 97.00
3276 36.6500 9288.00 9510.71 96.00
3277 36.6600 9340.00 9527.73 97.00
3278 36.6700 9355.00 9552.53 97.00
3279 36.6800 9378.00 9582.45 97.00
3280 36.6900 9413.00 9613.90 97.00
3281 36.7000 9522.00 9642.53 98.00
3282 36.7100 9543.00 9663.71 98.00
3283 36.7200 9528.00 9673.24 98.00
3284 36.7300 9583.00 9668.59 98.00
3285 36.7400 9570.00 9649.91 98.00
3286 36.7500 9448.00 9619.99 97.00
3287 36.7600 9461.00 9583.69 97.00
3288 36.7700 9446.00 9547.01 97.00
3289 36.7800 9339.00 9516.22 97.00
3290 36.7900 9317.00 9497.20 97.00
3291 36.8000 9315.00 9494.71 97.00
3292 36.8100 9387.00 9512.51 97.00
3293 36.8200 9443.00 9552.98 97.00
3294 36.8300 9487.00 9617.32 97.00
3295 36.8400 9530.00 9705.58 98.00
3296 36.8500 9776.00 9816.25 99.00
3297 36.8600 9861.00 9946.06 99.00
3298 36.8700 10070.00 10089.80 100.00
3299 36.8800 10205.00 10239.60 101.00
3300 36.8900 10439.00 10386.00 102.00
3301 36.9000 10539.00 10518.90 103.00
3302 36.9100 10690.00 10629.40 103.00
3303 36.9200 10685.00 10710.70 103.00
3304 36.9300 10812.00 10758.50 104.00
3305 36.9400 10842.00 10770.30 104.00
3306 36.9500 10761.00 10745.90 104.00
3307 36.9600 10628.00 10686.90 103.00
3308 36.9700 10504.00 10597.70 102.00
3309 36.9800 10304.00 10484.50 102.00
3310 36.9900 10186.00 10354.60 101.00
3311 37.0000 10033.00 10214.50 100.00
3312 37.0100 9839.00 10070.00 99.00
3313 37.0200 9616.00 9925.59 98.00
3314 37.0300 9517.00 9785.29 98.00
3315 37.0400 9437.00 9652.33 97.00
3316 37.0500 9282.00 9528.79 96.00
3317 37.0600 9229.00 9416.17 96.00
3318 37.0700 9161.00 9315.11 96.00
3319 37.0800 9061.00 9225.76 95.00
3320 37.0900 9031.00 9148.10 95.00
3321 37.1000 8977.00 9081.71 95.00
3322 37.1100 8914.00 9026.00 94.00
3323 37.1200 8922.00 8980.16 94.00
3324 37.1300 8936.00 8943.13 95.00
3325 37.1400 8901.00 8913.60 94.00
3326 37.1500 8902.00 8890.02 94.00
3327 37.1600 8826.00 8870.60 94.00
3328 37.1700 8885.00 8853.46 94.00
3329 37.1800 8883.00 8836.76 94.00
3330 37.1900 8869.00 8818.92 94.00
3331 37.2000 8790.00 8798.87 94.00
3332 37.2100 8766.00 8776.10 94.00
3333 37.2200 8763.00 8750.80 94.00
3334 37.2300 8715.00 8723.60 93.00
3335 37.2400 8689.00 8695.48 93.00
3336 37.2500 8611.00 8667.43 93.00
3337 37.2600 8564.00 8640.39 93.00
3338 37.2700 8524.00 8614.91 92.00
3339 37.2800 8546.00 8591.87 92.00
3340 37.2900 8480.00 8571.37 92.00
3341 37.3000 8541.00 8553.57 92.00
3342 37.3100 8508.00 8538.46 92.00
3343 37.3200 8460.00 8526.12 92.00
3344 37.3300 8456.00 8516.57 92.00
3345 37.3400 8460.00 8509.64 92.00
3346 37.3500 8472.00 8505.80 92.00
3347 37.3600 8489.00 8504.94 92.00
3348 37.3700 8511.00 8507.22 92.00
3349 37.3800 8487.00 8512.85 92.00
3350 37.3900 8521.00 8522.13 92.00
3351 37.4000 8524.00 8535.46 92.00
3352 37.4100 8517.00 8553.27 92.00
3353 37.4200 8577.00 8575.68 93.00
3354 37.4300 8591.00 8603.74 93.00
3355 37.4400 8587.00 8637.37 93.00
3356 37.4500 8608.00 8676.47 93.00
3357 37.4600 8699.00 8720.55 93.00
3358 37.4700 8691.00 8768.50 93.00
3359 37.4800 8747.00 8818.35 94.00
3360 37.4900 8816.00 8867.08 94.00
3361 37.5000 8836.00 8910.79 94.00
3362 37.5100 8917.00 8945.00 94.00
3363 37.5200 8913.00 8965.46 94.00
3364 37.5300 8917.00 8969.13 94.00
3365 37.5400 8934.00 8954.74 95.00
3366 37.5500 8844.00 8922.78 94.00
3367 37.5600 8748.00 8875.94 94.00
3368 37.5700 8734.00 8817.63 93.00
3369 37.5800 8743.00 8751.99 94.00
3370 37.5900 8574.00 8683.02 93.00
3371 37.6000 8564.00 8614.38 93.00
3372 37.6100 8521.00 8548.94 92.00
3373 37.6200 8411.00 8488.71 92.00
3374 37.6300 8386.00 8435.19 92.00
3375 37.6400 8355.00 8389.26 91.00
3376 37.6500 8349.00 8351.47 91.00
3377 37.6600 8368.00 8322.10 91.00
3378 37.6700 8333.00 8301.25 91.00
3379 37.6800 8274.00 8288.92 91.00
3380 37.6900 8324.00 8285.03 91.00
3381 37.7000 8367.00 8289.86 91.00
3382 37.7100 8379.00 8302.47 92.00
3383 37.7200 8430.00 8323.10 92.00
3384 37.7300 8441.00 8351.54 92.00
3385 37.7400 8442.00 8387.52 92.00
3386 37.7500 8493.00 8430.64 92.00
3387 37.7600 8518.00 8480.19 92.00
3388 37.7700 8555.00 8535.76 92.00
3389 37.7800 8705.00 8596.18 93.00
3390 37.7900 8714.00 8660.05 93.00
3391 37.8000 8785.00 8725.63 94.00
3392 37.8100 8854.00 8790.61 94.00
3393 37.8200 8938.00 8851.79 95.00
3394 37.8300 8956.00 8904.92 95.00
3395 37.8400 8984.00 8945.25 95.00
3396 37.8500 9064.00 8968.85 95.00
3397 37.8600 8971.00 8974.26 95.00
3398 37.8700 9004.00 8962.95 95.00
3399 37.8800 8975.00 8938.30 95.00
3400 37.8900 8921.00 8904.10 94.00
3401 37.9000 8910.00 8863.76 94.00
3402 37.9100 8914.00 8819.99 94.00
3403 37.9200 8790.00 8774.86 94.00
3404 37.9300 8734.00 8729.82 93.00
3405 37.9400 8721.00 8685.76 93.00
3406 37.9500 8690.00 8643.11 93.00
3407 37.9600 8631.00 8602.19 93.00
3408 37.9700 8583.00 8562.92 93.00
3409 37.9800 8552.00 8525.15 92.00
3410 37.9900 8545.00 8489.42 92.00
3411 38.0000 8463.00 8454.24 92.00
3412 38.0100 8459.00 8420.20 92.00
3413 38.0200 8491.00 8387.17 92.00
3414 38.0300 8499.00 8355.13 92.00
3415 38.0400 8404.00 8323.99 92.00
3416 38.0500 8371.00 8293.71 91.00
3417 38.0600 8392.00 8264.34 92.00
3418 38.0700 8305.00 8235.98 91.00
3419 38.0800 8360.00 8208.80 91.00
3420 38.0900 8335.00 8183.00 91.00
3421 38.1000 8303.00 8158.81 91.00
3422 38.1100 8254.00 8136.38 91.00
3423 38.1200 8263.00 8115.66 91.00
3424 38.1300 8239.00 8096.38 91.00
3425 38.1400 8263.00 8077.82 91.00
3426 38.1500 8219.00 8058.94 91.00
3427 38.1600 8146.00 8038.56 90.00
3428 38.1700 8188.00 8015.85 90.00
3429 38.1800 8180.00 7990.73 90.00
3430 38.1900 8100.00 7963.72 90.00
3431 38.2000 8153.00 7936.04 90.00
3432 38.2100 8131.00 7908.44 90.00
3433 38.2200 8058.00 7881.52 90.00
3434 38.2300 8062.00 7855.49 90.00
3435 38.2400 8069.00 7830.49 90.00
3436 38.2500 8058.00 7806.60 90.00
3437 38.2600 8021.00 7784.78 90.00
3438 38.2700 8028.00 7763.77 90.00
3439 38.2800 8017.00 7744.60 90.00
3440 38.2900 8036.00 7727.59 90.00
loop_
_pd_proc_info_excluded_regions
'from 0.01 to 3.880'
'from 38.29 to 78.088'
loop_
_refln_index_h
_refln_index_k
_refln_index_l
_refln_F_squared_calc
_refln_F_squared_meas
_refln_F_squared_sigma
_refln_observed_status
_refln_d_spacing
2 0 0 321.30 291.99 4.23 o 5.758729
1 0 1 629.44 638.20 6.22 o 4.136868
2 0 1 6622.53 6450.52 15.96 o 3.512593
2 1 0 2239.31 2273.18 11.27 o 3.373191
0 1 1 10575.91 10429.55 22.58 o 3.034125
1 1 1 28915.24 29091.01 26.32 o 2.934024
3 0 1 535.05 543.22 0.89 o 2.902014
4 0 0 59959.15 60381.15 76.62 o 2.879364
2 1 1 26.74 31.31 2.03 o 2.684335
4 0 1 384.75 343.85 3.69 o 2.414651
3 1 1 16410.13 16192.51 24.05 o 2.380463
4 1 0 4937.12 5077.67 8.82 o 2.367913
0 0 2 18778.78 18444.46 67.10 o 2.216336
1 0 2 10501.21 10644.03 36.50 o 2.176406
4 1 1 7313.85 7348.76 12.82 o 2.088587
0 2 0 51420.23 51579.95 84.02 o 2.080958
2 0 2 488.96 495.74 0.95 o 2.068434
5 0 1 5081.30 5033.93 26.91 o 2.043979
2 2 0 169.54 203.37 4.00 o 1.957100
1 1 2 5533.91 5587.37 15.28 o 1.928623
6 0 0 1095.95 1083.57 3.68 o 1.919576
3 0 2 10413.27 10445.04 27.94 o 1.919446
1 2 1 319.00 332.24 2.03 o 1.859009
2 1 2 2234.78 2229.87 8.25 o 1.852288
5 1 1 20440.34 20180.79 37.12 o 1.834664
2 2 1 3669.00 3618.46 19.43 o 1.790360
6 0 1 3513.87 3480.47 13.46 o 1.761499
4 0 2 12111.54 12051.58 38.29 o 1.756296
6 1 0 2640.09 2689.52 12.16 o 1.743106
3 1 2 2573.90 2622.54 10.25 o 1.743009
3 2 1 362.99 359.06 0.86 o 1.691113
4 2 0 35237.74 34651.03 78.52 o 1.686596
6 1 1 138.58 126.13 1.66 o 1.622187
4 1 2 1641.75 1483.91 18.05 o 1.618121
5 0 2 5502.27 5277.71 47.77 o 1.597109
4 2 1 233.76 155.53 8.60 o 1.576344
7 0 1 1189.32 979.35 27.36 o 1.542515
0 2 2 11920.12 11775.77 56.84 o 1.517063
1 2 2 6497.58 6606.14 29.10 o 1.504071
5 1 2 6118.51 6111.71 29.29 o 1.491090
2 2 2 321.91 316.52 2.52 o 1.467012
1 0 3 4650.06 4518.36 24.81 o 1.465547
5 2 1 3116.61 3015.85 17.50 o 1.458210
6 0 2 2344.05 2375.82 10.53 o 1.451007
7 1 1 3999.34 4173.00 18.24 o 1.446371
8 0 0 18523.75 18841.12 91.80 o 1.439682
2 0 3 4734.82 4782.73 21.18 o 1.431199
6 2 0 771.59 773.71 3.89 o 1.410953
3 2 2 6585.38 6600.12 33.30 o 1.410902
0 1 3 13284.35 13441.36 66.44 o 1.392412
1 1 3 1267.99 1286.99 6.33 o 1.382347
3 0 3 6268.65 6278.71 34.37 o 1.378956
6 1 2 477.53 493.68 4.39 o 1.370126
8 0 1 679.00 710.01 8.41 o 1.369272
8 1 0 8062.56 8327.51 59.54 o 1.360579
2 1 3 0.92 0.96 0.00 o 1.353412
2 3 0 634.81 657.47 2.80 o 1.348721
6 2 1 2231.11 2293.94 9.69 o 1.344485
4 2 2 8092.13 8309.25 35.00 o 1.342167
0 3 1 3945.77 4107.39 17.97 o 1.323977
7 0 2 5970.30 6125.30 23.05 o 1.321101
1 3 1 11322.62 11366.78 40.81 o 1.315315
4 0 3 475.81 480.16 1.65 o 1.314578
3 1 3 3.77 3.75 0.02 o 1.308978
8 1 1 3038.21 3135.76 29.48 o 1.300686
2 3 1 9.65 10.50 0.25 o 1.290315
5 2 2 3648.45 3903.26 31.26 o 1.266974
7 1 2 594.43 605.10 2.75 o 1.259186
4 1 3 10195.55 10028.46 34.12 o 1.253534
3 3 1 6713.40 6577.21 22.99 o 1.251639
4 3 0 2110.46 2068.96 7.27 o 1.249804
5 0 3 1178.52 1145.95 4.73 o 1.243689
7 2 1 895.02 948.50 11.41 o 1.239196
9 0 1 7019.45 7197.14 69.97 o 1.229504
8 0 2 3534.19 3761.88 33.00 o 1.207325
4 3 1 3045.44 3217.43 21.49 o 1.202905
1 2 3 3213.27 3287.78 19.84 o 1.198217
5 1 3 2472.28 2514.14 12.10 o 1.191622
6 2 2 1659.62 1658.87 10.03 o 1.190231
8 2 0 12585.09 12846.03 49.16 o 1.183957
2 2 3 3103.38 3172.81 11.60 o 1.179225
9 1 1 7744.66 7919.46 31.85 o 1.179128
6 0 3 3316.23 3420.47 16.91 o 1.170864
1 3 2 2284.28 2358.18 19.51 o 1.169851
8 1 2 2870.13 3090.16 29.13 o 1.159523
2 3 2 1168.14 1186.79 5.53 o 1.152157
10 0 0 772.58 793.59 4.26 o 1.151746
3 2 3 4413.31 4393.90 18.97 o 1.149485
5 3 1 9399.02 9326.56 40.62 o 1.147878
8 2 1 464.47 448.79 2.45 o 1.143857
6 1 3 7.53 6.83 0.14 o 1.127111
6 3 0 991.75 891.03 16.44 o 1.124397
3 3 2 1077.27 974.12 20.30 o 1.124371
7 2 2 4064.68 3829.67 34.24 o 1.115325
10 0 1 1390.45 1312.90 12.33 o 1.114731
4 2 3 331.68 313.12 2.59 o 1.111392
10 1 0 2670.10 2519.40 27.32 o 1.110026
9 0 2 1702.41 1590.31 18.54 o 1.108243
0 0 4 31.44 29.66 0.24 o 1.108168
1 0 4 2443.22 2273.45 22.82 o 1.103074
7 0 3 3675.77 3348.90 54.85 o 1.099342
6 3 1 58.61 48.66 1.53 o 1.089880
4 3 2 814.09 679.94 23.49 o 1.088644
2 0 4 370.55 314.27 7.38 o 1.088203
10 1 1 165.68 153.61 3.79 o 1.076777
9 1 2 4248.64 4241.22 42.22 o 1.070926
5 2 3 823.15 817.72 7.21 o 1.067559
1 1 4 190.05 185.37 1.15 o 1.066259
3 0 4 1654.75 1607.62 9.30 o 1.064701
7 1 3 759.82 729.81 5.12 o 1.062887
9 2 1 4911.50 4776.76 30.38 o 1.058547
2 1 4 10748.15 10352.80 47.38 o 1.052810
5 3 2 2800.54 2676.23 16.80 o 1.047351
8 2 2 2512.79 2425.86 17.26 o 1.044294
0 4 0 15733.55 15279.96 115.08 o 1.040479
4 0 4 102.07 97.81 0.95 o 1.034217
7 3 1 1840.75 1698.92 29.11 o 1.031495
3 1 4 25.14 23.36 0.28 o 1.031484
8 0 3 987.45 908.70 14.99 o 1.031139
2 4 0 64.72 59.43 0.84 o 1.023901
10 0 2 2151.14 1988.95 31.14 o 1.021989
6 2 3 2295.19 2114.87 31.60 o 1.020429
11 0 1 510.19 474.93 7.80 o 1.019000
0 3 3 6393.40 6199.89 83.91 o 1.011375
1 4 1 54.95 52.78 0.61 o 1.009053
10 2 0 584.04 562.63 7.04 o 1.007698
1 3 3 687.78 662.47 8.00 o 1.007498
4 1 4 161.96 153.60 1.14 o 1.003692
6 3 2 277.38 263.98 2.31 o 1.002737
8 1 3 4894.03 4610.70 37.93 o 1.000878
8 3 0 4072.52 3837.53 32.13 o 0.998977
5 0 4 2130.47 2011.32 16.15 o 0.998617
2 4 1 1088.74 1026.46 8.63 o 0.997632
2 3 3 0.26 0.24 0.00 o 0.996129
10 1 2 26.46 24.79 0.54 o 0.992504
11 1 1 398.10 423.37 14.44 o 0.989765
10 2 1 981.35 1039.92 10.97 o 0.982627
3 4 1 191.46 194.03 1.45 o 0.979430
4 4 0 11649.63 11838.28 83.11 o 0.978550
9 2 2 1218.02 1228.41 9.42 o 0.978174
0 2 4 16.14 16.41 0.12 o 0.978122
3 3 3 4.37 4.41 0.03 o 0.978008
1 2 4 1754.57 1768.88 12.13 o 0.974614
8 3 1 1482.82 1488.34 10.93 o 0.974535
7 2 3 2681.34 2654.86 23.08 o 0.972037
5 1 4 492.43 491.73 3.76 o 0.971056
9 0 3 14.42 14.71 0.21 o 0.967338
2 2 4 269.00 269.76 4.00 o 0.964311
12 0 0 3365.41 3387.17 68.79 o 0.959788
6 0 4 2079.35 2083.11 22.23 o 0.959723
7 3 2 278.54 278.10 3.09 o 0.956708
4 4 1 77.86 77.58 0.82 o 0.955543
4 3 3 5085.99 5055.09 56.70 o 0.954223
3 2 4 1191.71 1214.69 11.66 o 0.947843
11 0 2 2457.14 2564.19 37.33 o 0.946714
9 1 3 1607.75 1659.96 15.05 o 0.942223
0 4 2 4275.44 4411.26 39.53 o 0.941854
1 4 2 2184.63 2255.51 16.71 o 0.938721
12 0 1 530.23 546.15 4.69 o 0.938051
12 1 0 5325.45 5427.19 46.26 o 0.935241
6 1 4 5626.01 5750.84 41.14 o 0.935181
2 4 2 121.60 123.67 1.49 o 0.929505
5 4 1 1013.59 1060.18 13.59 o 0.927254
4 2 4 66.68 69.68 0.77 o 0.926144
5 3 3 1335.99 1434.42 20.26 o 0.926047
8 2 3 718.49 755.06 8.71 o 0.923932
11 1 2 66.88 70.09 0.85 o 0.923132
9 3 1 4062.13 4117.35 41.58 o 0.920146
7 0 4 675.51 681.64 5.91 o 0.919136
10 2 2 1588.04 1579.27 15.76 o 0.917332
11 2 1 383.30 378.62 4.20 o 0.915168
12 1 1 905.28 892.85 10.50 o 0.915095
6 4 0 320.48 319.24 3.06 o 0.914744
3 4 2 2258.66 2238.52 23.47 o 0.914729
8 3 2 1536.34 1550.74 22.80 o 0.910738
10 0 3 1847.77 1922.64 37.19 o 0.908377
5 2 4 1560.01 1652.69 29.27 o 0.900317
7 1 4 0.42 0.43 0.01 o 0.897510
6 4 1 765.16 791.70 13.63 o 0.895867
4 4 2 3019.82 3112.00 55.20 o 0.895180
6 3 3 3.04 3.12 0.06 o 0.894778
10 1 3 20.65 22.11 0.69 o 0.887485
10 3 0 1356.49 1449.28 44.51 o 0.886158
1 0 5 3579.73 3863.24 94.52 o 0.883920
12 0 2 371.00 396.58 14.81 o 0.880750
8 0 4 356.21 380.01 7.72 o 0.878148
9 2 3 9.93 10.72 0.29 o 0.877194
2 0 5 494.41 498.66 6.01 o 0.876212
5 4 2 1337.19 1337.95 15.89 o 0.871795
12 2 0 2467.83 2462.15 30.41 o 0.871553
6 2 4 1537.04 1548.57 16.97 o 0.871504
10 3 1 85.14 85.45 0.90 o 0.868964
13 0 1 4988.84 4957.05 61.00 o 0.868775
0 1 5 488.80 492.03 3.95 o 0.867081
9 3 2 2231.15 2244.70 22.41 o 0.865880
1 1 5 25.90 26.23 0.20 o 0.864635
3 0 5 3986.41 4052.54 30.30 o 0.863803
1 3 4 95.66 96.49 0.93 o 0.863408
7 4 1 386.52 393.22 3.86 o 0.862586
11 2 2 1804.39 1828.79 19.97 o 0.861728
12 1 2 1795.65 1817.90 20.46 o 0.861667
7 3 3 402.66 409.94 4.29 o 0.861614
8 1 4 243.90 249.01 2.21 o 0.859230
2 1 5 47.80 49.15 0.41 o 0.857417
2 3 4 5769.86 5908.42 63.75 o 0.856220
12 2 1 391.45 407.55 5.04 o 0.855179
11 0 3 923.07 967.43 11.46 o 0.854292
13 1 1 1508.95 1636.52 31.62 o 0.850444
1 4 3 1245.58 1347.04 23.50 o 0.848405
4 0 5 27.32 27.76 0.33 o 0.847283
3 1 5 573.95 591.52 7.60 o 0.845778
6 4 2 662.54 679.26 10.60 o 0.845556
3 3 4 11.72 11.86 0.18 o 0.844630
8 4 0 4781.36 4792.83 75.77 o 0.843298
2 4 3 1128.12 1111.05 19.63 o 0.841583
7 2 4 499.92 491.75 7.91 o 0.840775
9 0 4 1143.87 1126.60 18.81 o 0.837729
11 1 3 1407.20 1384.53 30.15 o 0.836844
10 2 3 1369.64 1359.92 23.65 o 0.832516
3 4 3 1751.95 1742.39 28.02 o 0.830569
4 1 5 363.74 355.99 4.96 o 0.830253
4 3 4 91.18 89.49 1.38 o 0.829167
8 4 1 178.66 174.93 2.72 o 0.828439
8 3 3 2649.00 2550.44 43.06 o 0.827578
5 0 5 1769.75 1757.09 24.84 o 0.827374
2 5 0 117.62 115.56 1.96 o 0.823822
10 3 2 13.41 13.25 0.33 o 0.822825
14 0 0 146.51 153.88 5.60 o 0.822676
13 0 2 306.72 308.92 8.98 o 0.822665
11 3 1 209.23 215.00 4.61 o 0.821263
9 1 4 650.51 642.07 10.68 o 0.821257
0 5 1 1044.74 1027.31 14.75 o 0.818084
7 4 2 1562.70 1531.12 22.72 o 0.817404
1 5 1 3131.91 3052.38 42.55 o 0.816028
4 4 3 130.76 126.63 1.88 o 0.815852
1 2 5 2675.44 2622.33 31.41 o 0.813567
5 1 5 48.36 47.02 0.55 o 0.811494
12 2 2 277.25 270.68 4.99 o 0.811093
5 3 4 267.86 261.62 3.81 o 0.810479
2 5 1 2.43 2.37 0.03 o 0.809952
8 2 4 265.56 259.74 3.83 o 0.809060
14 0 1 470.64 468.94 8.59 o 0.808863
2 2 5 370.64 357.79 4.23 o 0.807546
14 1 0 2067.97 2038.53 35.93 o 0.807060
13 1 2 2200.00 2165.93 37.06 o 0.807050
12 0 3 844.88 811.43 10.71 o 0.804884
6 0 5 202.91 193.11 2.02 o 0.804845
13 2 1 3740.39 3489.57 45.69 o 0.801712
3 5 1 1868.64 1721.51 19.59 o 0.800120
4 5 0 607.01 557.94 6.27 o 0.799641
10 0 4 2354.15 2161.27 23.87 o 0.798555
5 4 3 327.74 298.54 3.73 o 0.798032
3 2 5 2991.99 2744.88 28.33 o 0.797800
9 4 1 1962.56 1825.67 22.59 o 0.794246
14 1 1 128.21 115.53 1.96 o 0.794007
9 3 3 898.95 839.16 10.98 o 0.793487
11 2 3 694.00 657.62 7.69 o 0.790289
12 1 3 1643.78 1557.60 18.18 o 0.790241
6 1 5 285.75 267.83 2.78 o 0.790205
12 3 0 2970.49 2818.88 33.44 o 0.789304
6 3 4 3131.48 2970.05 34.35 o 0.789268
8 4 2 1020.61 975.63 11.78 o 0.788172
4 5 1 852.92 815.68 9.66 o 0.786938
4 2 5 20.55 19.67 0.24 o 0.784730
10 1 4 1508.37 1398.96 22.49 o 0.784249
11 3 2 36.98 35.77 0.95 o 0.781985
7 0 5 2410.66 2293.32 43.16 o 0.780454
6 4 3 919.88 877.87 22.11 o 0.777759
1 5 2 638.20 615.04 14.59 o 0.777462
9 2 4 862.86 837.10 19.26 o 0.777121
12 3 1 506.46 488.46 12.16 o 0.777081
2 5 2 368.24 379.45 7.48 o 0.772202
10 4 0 248.66 256.72 5.03 o 0.772078
14 0 2 833.74 869.36 18.81 o 0.771258
5 5 1 2788.36 2928.24 55.68 o 0.770910
5 2 5 1339.31 1443.06 26.45 o 0.768834
7 1 5 1449.76 1564.10 29.46 o 0.767083
7 3 4 0.22 0.25 0.01 o 0.766226
14 2 0 109.89 131.29 4.46 o 0.765060
13 2 2 232.15 277.38 9.29 o 0.765051
6 5 0 267.75 313.93 9.89 o 0.763676
3 5 2 306.79 371.53 12.78 o 0.763668
