#------------------------------------------------------------------------------
#$Date: 2016-06-17 04:50:27 +0300 (Fri, 17 Jun 2016) $
#$Revision: 183633 $
#$URL: file:///home/coder/svn-repositories/cod/cif/2/10/75/2107509.cif $
#------------------------------------------------------------------------------
#
# This file is available in the Crystallography Open Database (COD),
# http://www.crystallography.net/. The original data for this entry
# were provided by IUCr Journals, http://journals.iucr.org/.
#
# The file may be used within the scientific community so long as
# proper attribution is given to the journal article from which the
# data were obtained.
#
data_2107509
loop_
_publ_author_name
'Sist, Mattia'
'Zhang, Jiawei'
'Brummerstedt Iversen, Bo'
_publ_section_title
;
 Crystal structure and phase transition of thermoelectric SnSe
;
_journal_coeditor_code           GW5043
_journal_issue                   3
_journal_name_full               'Acta Crystallographica Section B'
_journal_page_first              310
_journal_page_last               316
_journal_paper_doi               10.1107/S2052520616003334
_journal_volume                  72
_journal_year                    2016
_chemical_formula_moiety         'Se1 Sn0.9816'
_chemical_formula_sum            'Se Sn0.9816'
_chemical_formula_weight         195.50
_chemical_name_common            'Tin Selenide'
_space_group_IT_number           62
_symmetry_cell_setting           orthorhombic
_symmetry_Int_Tables_number      62
_symmetry_space_group_name_Hall  '-P 2ac 2n'
_symmetry_space_group_name_H-M   'P n m a'
_cell_angle_alpha                90
_cell_angle_beta                 90
_cell_angle_gamma                90
_cell_formula_units_Z            4
_cell_length_a                   11.46438(10)
_cell_length_b                   4.13865(4)
_cell_length_c                   4.44651(6)
_cell_measurement_temperature    200(5)
_cell_volume                     210.974(4)
_computing_structure_refinement  'Jana2006, (Petricek,2014)'
_diffrn_ambient_temperature      200(5)
_diffrn_detector_type            'Image plate'
_diffrn_measurement_device_type  BL44B2
_diffrn_radiation_probe          x-ray
_diffrn_radiation_type           Synchrotron,monochromatic
_diffrn_radiation_wavelength     0.50023
_diffrn_source_type              'Spring8, BL44B2 beamline'
_exptl_absorpt_coefficient_mu    11.268
_exptl_absorpt_correction_type   none
_exptl_crystal_density_diffrn    6.155
_exptl_crystal_F_000             332.3
_pd_char_colour                  metallic_grey
_pd_meas_2theta_range_inc        0.01
_pd_meas_2theta_range_max        78.000
_pd_meas_2theta_range_min        0.010
_pd_meas_number_of_points        7800
_pd_proc_2theta_range_inc        0.01
_pd_proc_2theta_range_max        54.73
_pd_proc_2theta_range_min        3.41
_pd_proc_ls_background_function
'Manual background combined with 8 Chebyshev polynoms'
_pd_proc_ls_pref_orient_corr     none
_pd_proc_ls_profile_function     Pseudo-Voigt
_pd_proc_ls_prof_R_factor        0.0158
_pd_proc_ls_prof_wR_expected     0.0095
_pd_proc_ls_prof_wR_factor       0.0229
_pd_spec_mounting                capillary
_pd_spec_mount_mode              transmission
_refine_ls_goodness_of_fit_all   2.41
_refine_ls_number_constraints    0
_refine_ls_number_parameters     32
_refine_ls_number_restraints     0
_refine_ls_R_factor_all          0.0132
_refine_ls_R_factor_gt           0.0132
_refine_ls_shift/su_max          0.0126
_refine_ls_shift/su_mean         0.0037
_refine_ls_weighting_scheme      sigma
_refine_ls_wR_factor_all         0.0124
_refine_ls_wR_factor_gt          0.0124
_cod_data_source_file            gw5043sup1.cif
_cod_data_source_block           200
_cod_depositor_comments
;
The following automatic conversions were performed:

'_diffrn_radiation_probe' value 'X-ray' changed to 'x-ray' according
to
/usr/data/users/saulius/crontab/automatic-downloads/rss-feeds/IUCr/lib/dictionaries/cif_core.dic
dictionary named 'cif_core.dic' version 2.4.2 from 2011-04-26.

Automatic conversion script
Id: cif_fix_values 4268 2015-11-12 08:31:59Z antanas 

 Adding full bibliography for 2107508--2107520.cif.
;
_cod_original_formula_sum        'Se1 Sn0.9816'
_cod_database_code               2107509
_cod_database_fobs_code          2107509
loop_
_space_group_symop_id
_space_group_symop_operation_xyz
1 x,y,z
2 -x+1/2,-y,z+1/2
3 -x,y+1/2,-z
4 x+1/2,-y+1/2,-z+1/2
5 -x,-y,-z
6 x+1/2,y,-z+1/2
7 x,-y+1/2,z
8 -x+1/2,y+1/2,z+1/2
loop_
_atom_site_label
_atom_site_type_symbol
_atom_site_fract_x
_atom_site_fract_y
_atom_site_fract_z
_atom_site_adp_type
_atom_site_U_iso_or_equiv
_atom_site_site_symmetry_multiplicity
_atom_site_occupancy
_atom_site_calc_flag
Sn Sn 0.11818(3) 0.25 0.10454(8) Uani 0.00911(14) 4 0.9816 d
Se Se 0.85513(4) 0.25 0.48226(10) Uani 0.00852(19) 4 1 d
loop_
_atom_site_aniso_label
_atom_site_aniso_type_symbol
_atom_site_aniso_U_11
_atom_site_aniso_U_22
_atom_site_aniso_U_33
_atom_site_aniso_U_12
_atom_site_aniso_U_13
_atom_site_aniso_U_23
Sn Sn 0.0084(2) 0.0087(3) 0.0102(3) 0 -0.0025(2) 0
Se Se 0.0091(3) 0.0080(3) 0.0084(3) 0 -0.0008(3) 0
loop_
_atom_type_symbol
_atom_type_scat_dispersion_real
_atom_type_scat_dispersion_imag
_atom_type_scat_source
Se 0.2899 1.2209 'International Tables Vol C tables 4.2.6.8 and 6.1.1.1'
Sn -1.5316 0.7679 'International Tables Vol C tables 4.2.6.8 and 6.1.1.1'
loop_
_geom_angle_atom_site_label_1
_geom_angle_atom_site_label_2
_geom_angle_atom_site_label_3
_geom_angle_site_symmetry_1
_geom_angle_site_symmetry_2
_geom_angle_site_symmetry_3
_geom_angle
Se Sn Se 4_455 1_555 3_656 89.086
Se Sn Se 4_455 1_555 3_655 78.444
Se Sn Se 3_645 1_555 3_655 76.454
Se Sn Se 3_646 1_555 3_656 96.020
Se Sn Se 3_656 1_555 3_655 92.574
Se Sn Se 4_455 1_555 1_455 158.972
Se Sn Sn 4_455 1_555 3_545 136.232
loop_
_geom_bond_atom_site_label_1
_geom_bond_atom_site_label_2
_geom_bond_site_symmetry_1
_geom_bond_site_symmetry_2
_geom_bond_distance
Sn Se 1_555 4_455 2.744
Sn Se 1_555 3_656 2.784
Sn Se 1_555 3_655 3.344
Sn Se 1_555 1_455 3.452
Sn Sn 1_555 3_545 3.534
Sn Se 1_555 1_454 4.093
loop_
_pd_proc_point_id
_pd_proc_2theta_corrected
_pd_proc_intensity_net
_pd_calc_intensity_net
_pd_proc_ls_weight
1 3.4200 7430.00 7169.58 86.00
2 3.4300 7401.00 7173.14 86.00
3 3.4400 7400.00 7176.68 86.00
4 3.4500 7457.00 7180.20 86.00
5 3.4600 7435.00 7183.71 86.00
6 3.4700 7387.00 7187.19 86.00
7 3.4800 7401.00 7190.66 86.00
8 3.4900 7399.00 7194.11 86.00
9 3.5000 7400.00 7197.54 86.00
10 3.5100 7434.00 7200.96 86.00
11 3.5200 7452.00 7204.36 86.00
12 3.5300 7367.00 7207.74 86.00
13 3.5400 7343.00 7211.10 86.00
14 3.5500 7402.00 7214.44 86.00
15 3.5600 7438.00 7217.77 86.00
16 3.5700 7434.00 7221.08 86.00
17 3.5800 7407.00 7224.38 86.00
18 3.5900 7355.00 7227.65 86.00
19 3.6000 7392.00 7230.91 86.00
20 3.6100 7382.00 7234.15 86.00
21 3.6200 7374.00 7237.38 86.00
22 3.6300 7454.00 7240.58 86.00
23 3.6400 7414.00 7243.78 86.00
24 3.6500 7406.00 7246.95 86.00
25 3.6600 7387.00 7250.11 86.00
26 3.6700 7392.00 7253.25 86.00
27 3.6800 7361.00 7256.37 86.00
28 3.6900 7432.00 7259.48 86.00
29 3.7000 7425.00 7262.56 86.00
30 3.7100 7398.00 7265.64 86.00
31 3.7200 7435.00 7269.01 86.00
32 3.7300 7409.00 7272.06 86.00
33 3.7400 7407.00 7275.09 86.00
34 3.7500 7426.00 7278.10 86.00
35 3.7600 7431.00 7281.09 86.00
36 3.7700 7383.00 7284.07 86.00
37 3.7800 7396.00 7287.04 86.00
38 3.7900 7424.00 7289.99 86.00
39 3.8000 7426.00 7292.92 86.00
40 3.8100 7410.00 7295.83 86.00
41 3.8200 7407.00 7298.73 86.00
42 3.8300 7331.00 7301.62 86.00
43 3.8400 7386.00 7304.48 86.00
44 3.8500 7357.00 7307.34 86.00
45 3.8600 7402.00 7310.17 86.00
46 3.8700 7403.00 7312.99 86.00
47 3.8800 7415.00 7315.80 86.00
48 3.8900 7364.00 7318.59 86.00
49 3.9000 7365.00 7321.36 86.00
50 3.9100 7383.00 7324.12 86.00
51 3.9200 7400.00 7326.86 86.00
52 3.9300 7391.00 7329.59 86.00
53 3.9400 7424.00 7332.30 86.00
54 3.9500 7330.00 7335.00 86.00
55 3.9600 7373.00 7337.68 86.00
56 3.9700 7388.00 7340.35 86.00
57 3.9800 7397.00 7343.00 86.00
58 3.9900 7457.00 7345.64 86.00
59 4.0000 7425.00 7348.26 86.00
60 4.0100 7385.00 7350.86 86.00
61 4.0200 7385.00 7353.46 86.00
62 4.0300 7326.00 7356.03 86.00
63 4.0400 7366.00 7358.60 86.00
64 4.0500 7422.00 7361.14 86.00
65 4.0600 7382.00 7363.68 86.00
66 4.0700 7380.00 7366.20 86.00
67 4.0800 7338.00 7368.70 86.00
68 4.0900 7385.00 7371.19 86.00
69 4.1000 7402.00 7373.67 86.00
70 4.1100 7448.00 7376.13 86.00
71 4.1200 7392.00 7378.57 86.00
72 4.1300 7385.00 7381.01 86.00
73 4.1400 7393.00 7383.43 86.00
74 4.1500 7359.00 7385.83 86.00
75 4.1600 7395.00 7388.22 86.00
76 4.1700 7384.00 7390.60 86.00
77 4.1800 7441.00 7392.96 86.00
78 4.1900 7358.00 7395.31 86.00
79 4.2000 7392.00 7397.65 86.00
80 4.2100 7397.00 7399.97 86.00
81 4.2200 7373.00 7402.28 86.00
82 4.2300 7425.00 7404.58 86.00
83 4.2400 7446.00 7406.86 86.00
84 4.2500 7325.00 7409.13 86.00
85 4.2600 7337.00 7411.38 86.00
86 4.2700 7381.00 7413.63 86.00
87 4.2800 7418.00 7415.86 86.00
88 4.2900 7403.00 7418.07 86.00
89 4.3000 7435.00 7420.28 86.00
90 4.3100 7392.00 7422.47 86.00
91 4.3200 7385.00 7424.65 86.00
92 4.3300 7396.00 7426.82 86.00
93 4.3400 7389.00 7428.98 86.00
94 4.3500 7386.00 7431.12 86.00
95 4.3600 7417.00 7433.25 86.00
96 4.3700 7353.00 7435.37 86.00
97 4.3800 7351.00 7437.48 86.00
98 4.3900 7353.00 7439.58 86.00
99 4.4000 7401.00 7441.66 86.00
100 4.4100 7395.00 7443.74 86.00
101 4.4200 7396.00 7445.80 86.00
102 4.4300 7397.00 7447.85 86.00
103 4.4400 7393.00 7449.90 86.00
104 4.4500 7365.00 7451.93 86.00
105 4.4600 7402.00 7453.96 86.00
106 4.4700 7428.00 7455.97 86.00
107 4.4800 7394.00 7457.97 86.00
108 4.4900 7342.00 7459.97 86.00
109 4.5000 7389.00 7461.96 86.00
110 4.5100 7400.00 7463.94 86.00
111 4.5200 7385.00 7465.91 86.00
112 4.5300 7469.00 7467.88 86.00
113 4.5400 7430.00 7469.84 86.00
114 4.5500 7413.00 7471.79 86.00
115 4.5600 7421.00 7473.74 86.00
116 4.5700 7365.00 7475.68 86.00
117 4.5800 7405.00 7477.62 86.00
118 4.5900 7443.00 7479.56 86.00
119 4.6000 7432.00 7481.50 86.00
120 4.6100 7410.00 7483.44 86.00
121 4.6200 7424.00 7485.38 86.00
122 4.6300 7445.00 7487.32 86.00
123 4.6400 7425.00 7489.26 86.00
124 4.6500 7491.00 7491.22 87.00
125 4.6600 7564.00 7493.18 87.00
126 4.6700 7510.00 7495.15 87.00
127 4.6800 7497.00 7497.14 87.00
128 4.6900 7486.00 7499.14 87.00
129 4.7000 7485.00 7501.17 87.00
130 4.7100 7501.00 7503.23 87.00
131 4.7200 7451.00 7505.32 86.00
132 4.7300 7463.00 7507.44 86.00
133 4.7400 7455.00 7509.62 86.00
134 4.7500 7365.00 7511.86 86.00
135 4.7600 7408.00 7514.16 86.00
136 4.7700 7433.00 7516.55 86.00
137 4.7800 7481.00 7519.04 86.00
138 4.7900 7369.00 7521.66 86.00
139 4.8000 7401.00 7524.43 86.00
140 4.8100 7384.00 7527.39 86.00
141 4.8200 7405.00 7530.58 86.00
142 4.8300 7469.00 7534.06 86.00
143 4.8400 7480.00 7537.92 86.00
144 4.8500 7421.00 7542.25 86.00
145 4.8600 7474.00 7547.19 86.00
146 4.8700 7508.00 7552.95 87.00
147 4.8800 7465.00 7560.56 86.00
148 4.8900 7540.00 7568.91 87.00
149 4.9000 7531.00 7579.37 87.00
150 4.9100 7548.00 7592.90 87.00
151 4.9200 7604.00 7611.39 87.00
152 4.9300 7673.00 7640.42 88.00
153 4.9400 7796.00 7701.62 88.00
154 4.9500 8085.00 7869.41 90.00
155 4.9600 8533.00 8322.78 92.00
156 4.9700 9383.00 9302.46 97.00
157 4.9800 10612.00 10822.80 103.00
158 4.9900 11806.00 12293.30 109.00
159 5.0000 12075.00 12621.20 110.00
160 5.0100 11002.00 11488.30 105.00
161 5.0200 9458.00 9878.84 97.00
162 5.0300 8281.00 8655.99 91.00
163 5.0400 7804.00 8016.67 88.00
164 5.0500 7580.00 7763.58 87.00
165 5.0600 7535.00 7675.55 87.00
166 5.0700 7512.00 7640.48 87.00
167 5.0800 7454.00 7621.44 86.00
168 5.0900 7407.00 7608.85 86.00
169 5.1000 7369.00 7599.92 86.00
170 5.1100 7360.00 7593.43 86.00
171 5.1200 7361.00 7588.65 86.00
172 5.1300 7418.00 7585.11 86.00
173 5.1400 7401.00 7582.49 86.00
174 5.1500 7364.00 7580.56 86.00
175 5.1600 7391.00 7579.15 86.00
176 5.1700 7429.00 7578.16 86.00
177 5.1800 7384.00 7577.49 86.00
178 5.1900 7429.00 7577.07 86.00
179 5.2000 7437.00 7576.87 86.00
180 5.2100 7354.00 7576.83 86.00
181 5.2200 7362.00 7576.93 86.00
182 5.2300 7394.00 7577.14 86.00
183 5.2400 7397.00 7577.44 86.00
184 5.2500 7419.00 7577.83 86.00
185 5.2600 7406.00 7578.27 86.00
186 5.2700 7323.00 7578.77 86.00
187 5.2800 7400.00 7579.32 86.00
188 5.2900 7376.00 7579.91 86.00
189 5.3000 7446.00 7580.52 86.00
190 5.3100 7436.00 7581.17 86.00
191 5.3200 7428.00 7581.84 86.00
192 5.3300 7379.00 7582.52 86.00
193 5.3400 7394.00 7583.22 86.00
194 5.3500 7381.00 7583.94 86.00
195 5.3600 7379.00 7584.66 86.00
196 5.3700 7374.00 7585.39 86.00
197 5.3800 7399.00 7586.13 86.00
198 5.3900 7384.00 7586.88 86.00
199 5.4000 7383.00 7587.63 86.00
200 5.4100 7390.00 7588.38 86.00
201 5.4200 7387.00 7589.13 86.00
202 5.4300 7436.00 7589.88 86.00
203 5.4400 7459.00 7590.64 86.00
204 5.4500 7422.00 7591.39 86.00
205 5.4600 7405.00 7592.14 86.00
206 5.4700 7387.00 7592.89 86.00
207 5.4800 7389.00 7593.63 86.00
208 5.4900 7490.00 7594.38 87.00
209 5.5000 7426.00 7595.12 86.00
210 5.5100 7402.00 7595.85 86.00
211 5.5200 7391.00 7596.58 86.00
212 5.5300 7355.00 7597.31 86.00
213 5.5400 7354.00 7598.03 86.00
214 5.5500 7456.00 7598.75 86.00
215 5.5600 7447.00 7599.46 86.00
216 5.5700 7426.00 7600.16 86.00
217 5.5800 7416.00 7600.86 86.00
218 5.5900 7435.00 7601.56 86.00
219 5.6000 7377.00 7602.25 86.00
220 5.6100 7485.00 7602.93 87.00
221 5.6200 7473.00 7603.61 86.00
222 5.6300 7414.00 7604.28 86.00
223 5.6400 7433.00 7604.95 86.00
224 5.6500 7455.00 7605.61 86.00
225 5.6600 7474.00 7606.26 86.00
226 5.6700 7464.00 7606.91 86.00
227 5.6800 7469.00 7607.55 86.00
228 5.6900 7426.00 7608.18 86.00
229 5.7000 7482.00 7608.81 86.00
230 5.7100 7462.00 7609.43 86.00
231 5.7200 7466.00 7610.04 86.00
232 5.7300 7449.00 7610.65 86.00
233 5.7400 7456.00 7611.25 86.00
234 5.7500 7411.00 7611.85 86.00
235 5.7600 7419.00 7612.44 86.00
236 5.7700 7402.00 7613.02 86.00
237 5.7800 7404.00 7613.60 86.00
238 5.7900 7446.00 7614.17 86.00
239 5.8000 7440.00 7614.73 86.00
240 5.8100 7372.00 7615.29 86.00
241 5.8200 7483.00 7615.84 87.00
242 5.8300 7427.00 7616.39 86.00
243 5.8400 7451.00 7616.93 86.00
244 5.8500 7473.00 7617.46 86.00
245 5.8600 7472.00 7617.99 86.00
246 5.8700 7418.00 7618.51 86.00
247 5.8800 7436.00 7619.02 86.00
248 5.8900 7478.00 7619.53 86.00
249 5.9000 7466.00 7620.04 86.00
250 5.9100 7503.00 7620.54 87.00
251 5.9200 7538.00 7621.03 87.00
252 5.9300 7428.00 7620.96 86.00
253 5.9400 7400.00 7620.89 86.00
254 5.9500 7440.00 7620.81 86.00
255 5.9600 7438.00 7620.73 86.00
256 5.9700 7484.00 7620.64 87.00
257 5.9800 7482.00 7620.54 86.00
258 5.9900 7433.00 7620.45 86.00
259 6.0000 7449.00 7620.34 86.00
260 6.0100 7450.00 7620.24 86.00
261 6.0200 7410.00 7620.12 86.00
262 6.0300 7498.00 7620.01 87.00
263 6.0400 7519.00 7619.89 87.00
264 6.0500 7455.00 7619.76 86.00
265 6.0600 7455.00 7619.63 86.00
266 6.0700 7466.00 7619.50 86.00
267 6.0800 7445.00 7619.37 86.00
268 6.0900 7530.00 7619.23 87.00
269 6.1000 7497.00 7619.09 87.00
270 6.1100 7483.00 7618.94 87.00
271 6.1200 7455.00 7618.80 86.00
272 6.1300 7531.00 7618.65 87.00
273 6.1400 7488.00 7618.50 87.00
274 6.1500 7538.00 7618.34 87.00
275 6.1600 7521.00 7618.19 87.00
276 6.1700 7507.00 7618.04 87.00
277 6.1800 7513.00 7617.88 87.00
278 6.1900 7500.00 7617.72 87.00
279 6.2000 7502.00 7625.20 87.00
280 6.2100 7547.00 7625.13 87.00
281 6.2200 7486.00 7625.05 87.00
282 6.2300 7504.00 7624.98 87.00
283 6.2400 7517.00 7624.91 87.00
284 6.2500 7485.00 7624.84 87.00
285 6.2600 7539.00 7624.78 87.00
286 6.2700 7549.00 7624.73 87.00
287 6.2800 7568.00 7624.67 87.00
288 6.2900 7485.00 7624.32 87.00
289 6.3000 7537.00 7624.28 87.00
290 6.3100 7477.00 7624.26 86.00
291 6.3200 7482.00 7624.24 86.00
292 6.3300 7487.00 7624.24 87.00
293 6.3400 7535.00 7624.24 87.00
294 6.3500 7485.00 7624.26 87.00
295 6.3600 7532.00 7624.29 87.00
296 6.3700 7534.00 7624.34 87.00
297 6.3800 7539.00 7624.40 87.00
298 6.3900 7559.00 7624.48 87.00
299 6.4000 7585.00 7624.58 87.00
300 6.4100 7476.00 7624.71 86.00
301 6.4200 7484.00 7624.86 87.00
302 6.4300 7542.00 7625.03 87.00
303 6.4400 7570.00 7625.24 87.00
304 6.4500 7547.00 7625.48 87.00
305 6.4600 7560.00 7625.75 87.00
306 6.4700 7486.00 7626.06 87.00
307 6.4800 7511.00 7626.42 87.00
308 6.4900 7515.00 7626.83 87.00
309 6.5000 7541.00 7627.29 87.00
310 6.5100 7594.00 7627.81 87.00
311 6.5200 7568.00 7628.39 87.00
312 6.5300 7524.00 7629.05 87.00
313 6.5400 7532.00 7629.79 87.00
314 6.5500 7543.00 7630.63 87.00
315 6.5600 7519.00 7631.56 87.00
316 6.5700 7568.00 7632.61 87.00
317 6.5800 7616.00 7633.79 87.00
318 6.5900 7555.00 7635.11 87.00
319 6.6000 7551.00 7636.60 87.00
320 6.6100 7586.00 7638.27 87.00
321 6.6200 7555.00 7640.16 87.00
322 6.6300 7638.00 7642.28 87.00
323 6.6400 7616.00 7644.69 87.00
324 6.6500 7568.00 7647.41 87.00
325 6.6600 7600.00 7650.51 87.00
326 6.6700 7582.00 7654.04 87.00
327 6.6800 7634.00 7658.07 87.00
328 6.6900 7695.00 7662.70 88.00
329 6.7000 7647.00 7668.03 87.00
330 6.7100 7593.00 7674.20 87.00
331 6.7200 7657.00 7683.76 88.00
332 6.7300 7602.00 7692.20 87.00
333 6.7400 7662.00 7702.14 88.00
334 6.7500 7699.00 7713.94 88.00
335 6.7600 7749.00 7728.06 88.00
336 6.7700 7673.00 7745.13 88.00
337 6.7800 7774.00 7766.02 88.00
338 6.7900 7711.00 7792.08 88.00
339 6.8000 7822.00 7825.64 88.00
340 6.8100 7871.00 7871.41 89.00
341 6.8200 7963.00 7939.35 89.00
342 6.8300 8052.00 8049.98 90.00
343 6.8400 8282.00 8241.23 91.00
344 6.8500 8631.00 8572.79 93.00
345 6.8600 9162.00 9119.38 96.00
346 6.8700 10003.00 9944.74 100.00
347 6.8800 11065.00 11056.10 105.00
348 6.8900 12268.00 12351.30 111.00
349 6.9000 13601.00 13566.40 117.00
350 6.9100 14319.00 14272.90 120.00
351 6.9200 14286.00 14109.40 120.00
352 6.9300 13408.00 13167.80 116.00
353 6.9400 12153.00 11881.60 110.00
354 6.9500 10808.00 10630.00 104.00
355 6.9600 9947.00 9614.25 100.00
356 6.9700 9290.00 8891.72 96.00
357 6.9800 8840.00 8429.18 94.00
358 6.9900 8613.00 8154.64 93.00
359 7.0000 8349.00 7996.86 91.00
360 7.0100 8164.00 7903.85 90.00
361 7.0200 8060.00 7844.63 90.00
362 7.0300 8015.00 7803.18 90.00
363 7.0400 7910.00 7771.87 89.00
364 7.0500 7906.00 7747.07 89.00
365 7.0600 7861.00 7726.89 89.00
366 7.0700 7803.00 7710.19 88.00
367 7.0800 7779.00 7696.20 88.00
368 7.0900 7798.00 7684.37 88.00
369 7.1000 7763.00 7674.26 88.00
370 7.1100 7779.00 7665.57 88.00
371 7.1200 7758.00 7658.03 88.00
372 7.1300 7737.00 7651.46 88.00
373 7.1400 7750.00 7645.68 88.00
374 7.1500 7732.00 7640.59 88.00
375 7.1600 7699.00 7636.07 88.00
376 7.1700 7762.00 7632.04 88.00
377 7.1800 7758.00 7628.45 88.00
378 7.1900 7694.00 7625.22 88.00
379 7.2000 7704.00 7622.31 88.00
380 7.2100 7677.00 7619.69 88.00
381 7.2200 7710.00 7617.33 88.00
382 7.2300 7696.00 7615.18 88.00
383 7.2400 7748.00 7613.24 88.00
384 7.2500 7675.00 7611.48 88.00
385 7.2600 7712.00 7609.89 88.00
386 7.2700 7743.00 7608.45 88.00
387 7.2800 7739.00 7607.14 88.00
388 7.2900 7740.00 7605.97 88.00
389 7.3000 7760.00 7604.91 88.00
390 7.3100 7708.00 7603.96 88.00
391 7.3200 7762.00 7603.13 88.00
392 7.3300 7745.00 7602.39 88.00
393 7.3400 7803.00 7601.75 88.00
394 7.3500 7832.00 7601.20 88.00
395 7.3600 7817.00 7600.74 88.00
396 7.3700 7763.00 7600.37 88.00
397 7.3800 7807.00 7600.09 88.00
398 7.3900 7778.00 7599.89 88.00
399 7.4000 7754.00 7599.77 88.00
400 7.4100 7772.00 7599.74 88.00
401 7.4200 7793.00 7599.79 88.00
402 7.4300 7728.00 7599.93 88.00
403 7.4400 7676.00 7600.16 88.00
404 7.4500 7728.00 7600.47 88.00
405 7.4600 7774.00 7600.88 88.00
406 7.4700 7840.00 7601.38 89.00
407 7.4800 7781.00 7601.97 88.00
408 7.4900 7740.00 7602.67 88.00
409 7.5000 7752.00 7603.47 88.00
410 7.5100 7779.00 7604.37 88.00
411 7.5200 7740.00 7605.39 88.00
412 7.5300 7804.00 7606.53 88.00
413 7.5400 7809.00 7607.79 88.00
414 7.5500 7775.00 7609.19 88.00
415 7.5600 7769.00 7610.72 88.00
416 7.5700 7784.00 7612.40 88.00
417 7.5800 7825.00 7614.24 88.00
418 7.5900 7866.00 7616.24 89.00
419 7.6000 7915.00 7618.41 89.00
420 7.6100 7877.00 7620.78 89.00
421 7.6200 7975.00 7623.34 89.00
422 7.6300 7985.00 7626.12 89.00
423 7.6400 7996.00 7629.13 89.00
424 7.6500 8027.00 7632.39 90.00
425 7.6600 7969.00 7635.92 89.00
426 7.6700 7902.00 7639.73 89.00
427 7.6800 7848.00 7643.86 89.00
428 7.6900 7843.00 7648.32 89.00
429 7.7000 7851.00 7653.15 89.00
430 7.7100 7873.00 7658.38 89.00
431 7.7200 7884.00 7664.04 89.00
432 7.7300 7853.00 7670.17 89.00
433 7.7400 7887.00 7687.31 89.00
434 7.7500 7890.00 7694.65 89.00
435 7.7600 7966.00 7702.61 89.00
436 7.7700 7945.00 7711.27 89.00
437 7.7800 7991.00 7720.68 89.00
438 7.7900 8041.00 7730.93 90.00
439 7.8000 8069.00 7742.12 90.00
440 7.8100 8127.00 7754.35 90.00
441 7.8200 8111.00 7767.73 90.00
442 7.8300 8147.00 7782.42 90.00
443 7.8400 8135.00 7798.56 90.00
444 7.8500 7999.00 7816.35 89.00
445 7.8600 8068.00 7836.00 90.00
446 7.8700 8059.00 7857.77 90.00
447 7.8800 8143.00 7881.95 90.00
448 7.8900 8161.00 7908.90 90.00
449 7.9000 8183.00 7939.04 90.00
450 7.9100 8113.00 7972.88 90.00
451 7.9200 8200.00 8011.01 91.00
452 7.9300 8286.00 8054.18 91.00
453 7.9400 8333.00 8103.28 91.00
454 7.9500 8494.00 8159.43 92.00
455 7.9600 8487.00 8224.00 92.00
456 7.9700 8543.00 8298.72 92.00
457 7.9800 8579.00 8385.79 93.00
458 7.9900 8747.00 8488.02 94.00
459 8.0000 8864.00 8609.04 94.00
460 8.0100 9081.00 8753.69 95.00
461 8.0200 9309.00 8928.43 96.00
462 8.0300 9536.00 9142.27 98.00
463 8.0400 9910.00 9458.28 100.00
464 8.0500 10446.00 9801.20 102.00
465 8.0600 11161.00 10265.80 106.00
466 8.0700 12188.00 10950.60 110.00
467 8.0800 13634.00 12062.70 117.00
468 8.0900 15785.00 13995.30 126.00
469 8.1000 19187.00 17376.70 139.00
470 8.1100 24269.00 22994.20 156.00
471 8.1200 32094.00 31489.70 179.00
472 8.1300 42972.00 42844.30 207.00
473 8.1400 55446.00 55744.70 235.00
474 8.1500 65796.00 66962.50 257.00
475 8.1600 69989.00 71651.40 265.00
476 8.1700 64557.00 67040.30 254.00
477 8.1800 52775.00 55860.90 230.00
478 8.1900 40157.00 42963.30 200.00
479 8.2000 29870.00 31594.20 173.00
480 8.2100 22395.00 23077.40 150.00
481 8.2200 17741.00 17443.90 133.00
482 8.2300 14713.00 14053.40 121.00
483 8.2400 12765.00 12118.20 113.00
484 8.2500 11531.00 11007.90 107.00
485 8.2600 10643.00 10327.90 103.00
486 8.2700 10006.00 9869.83 100.00
487 8.2800 9614.00 9534.76 98.00
488 8.2900 9332.00 9276.70 97.00
489 8.3000 9182.00 9072.43 96.00
490 8.3100 9020.00 8908.57 95.00
491 8.3200 8869.00 8776.30 94.00
492 8.3300 8739.00 8669.41 93.00
493 8.3400 8683.00 8583.42 93.00
494 8.3500 8601.00 8515.10 93.00
495 8.3600 8576.00 8462.16 93.00
496 8.3700 8604.00 8423.10 93.00
497 8.3800 8552.00 8397.06 92.00
498 8.3900 8514.00 8383.81 92.00
499 8.4000 8549.00 8383.79 92.00
500 8.4100 8636.00 8398.16 93.00
501 8.4200 8629.00 8429.08 93.00
502 8.4300 8812.00 8480.24 94.00
503 8.4400 8898.00 8558.29 94.00
504 8.4500 9125.00 8676.91 96.00
505 8.4600 9412.00 8867.30 97.00
506 8.4700 9916.00 9199.79 100.00
507 8.4800 10750.00 9816.29 104.00
508 8.4900 11951.00 10953.10 109.00
509 8.5000 13778.00 12908.10 117.00
510 8.5100 16400.00 15901.40 128.00
511 8.5200 19974.00 19840.50 141.00
512 8.5300 24009.00 24039.60 155.00
513 8.5400 27056.00 27018.40 164.00
514 8.5500 27398.00 27002.70 166.00
515 8.5600 24338.00 24022.80 156.00
516 8.5700 19888.00 19804.10 141.00
517 8.5800 15931.00 15849.90 126.00
518 8.5900 13021.00 12841.90 114.00
519 8.6000 11194.00 10871.00 106.00
520 8.6100 10107.00 9716.00 101.00
521 8.6200 9418.00 9079.26 97.00
522 8.6300 8905.00 8724.25 94.00
523 8.6400 8625.00 8509.23 93.00
524 8.6500 8430.00 8363.77 92.00
525 8.6600 8380.00 8256.44 92.00
526 8.6700 8283.00 8173.12 91.00
527 8.6800 8240.00 8106.67 91.00
528 8.6900 8133.00 8052.80 90.00
529 8.7000 8099.00 8008.62 90.00
530 8.7100 8066.00 7972.04 90.00
531 8.7200 8082.00 7941.53 90.00
532 8.7300 8120.00 7915.92 90.00
533 8.7400 8090.00 7894.33 90.00
534 8.7500 7993.00 7876.08 89.00
535 8.7600 7996.00 7860.63 89.00
536 8.7700 7977.00 7847.57 89.00
537 8.7800 7997.00 7836.55 89.00
538 8.7900 8018.00 7827.30 90.00
539 8.8000 7964.00 7819.61 89.00
540 8.8100 7947.00 7813.29 89.00
541 8.8200 7979.00 7808.21 89.00
542 8.8300 7965.00 7804.24 89.00
543 8.8400 7973.00 7801.28 89.00
544 8.8500 7996.00 7799.26 89.00
545 8.8600 8006.00 7798.10 89.00
546 8.8700 7945.00 7797.76 89.00
547 8.8800 7928.00 7798.19 89.00
548 8.8900 7977.00 7799.40 89.00
549 8.9000 7956.00 7801.29 89.00
550 8.9100 7983.00 7803.86 89.00
551 8.9200 7972.00 7807.12 89.00
552 8.9300 7948.00 7811.05 89.00
553 8.9400 7915.00 7815.65 89.00
554 8.9500 7952.00 7820.93 89.00
555 8.9600 7965.00 7826.15 89.00
556 8.9700 8038.00 7832.81 90.00
557 8.9800 7992.00 7840.19 89.00
558 8.9900 7976.00 7848.31 89.00
559 9.0000 8002.00 7857.18 89.00
560 9.0100 8012.00 7866.86 90.00
561 9.0200 8032.00 7877.36 90.00
562 9.0300 8049.00 7888.74 90.00
563 9.0400 7994.00 7901.05 89.00
564 9.0500 8017.00 7914.34 90.00
565 9.0600 8026.00 7928.68 90.00
566 9.0700 8106.00 7944.14 90.00
567 9.0800 8048.00 7960.80 90.00
568 9.0900 8131.00 7978.76 90.00
569 9.1000 8129.00 7998.13 90.00
570 9.1100 8070.00 8019.02 90.00
571 9.1200 8095.00 8041.58 90.00
572 9.1300 8114.00 8065.97 90.00
573 9.1400 8164.00 8092.36 90.00
574 9.1500 8178.00 8120.97 90.00
575 9.1600 8199.00 8152.02 91.00
576 9.1700 8216.00 8185.82 91.00
577 9.1800 8305.00 8222.67 91.00
578 9.1900 8274.00 8262.95 91.00
579 9.2000 8306.00 8307.11 91.00
580 9.2100 8373.00 8355.69 92.00
581 9.2200 8458.00 8409.30 92.00
582 9.2300 8422.00 8468.70 92.00
583 9.2400 8451.00 8534.79 92.00
584 9.2500 8505.00 8608.71 92.00
585 9.2600 8624.00 8691.81 93.00
586 9.2700 8701.00 8785.77 93.00
587 9.2800 8705.00 8892.73 93.00
588 9.2900 8780.00 9015.38 94.00
589 9.3000 8922.00 9157.20 94.00
590 9.3100 9077.00 9322.67 95.00
591 9.3200 9270.00 9517.78 96.00
592 9.3300 9590.00 9750.49 98.00
593 9.3400 9738.00 10031.80 99.00
594 9.3500 10053.00 10377.40 100.00
595 9.3600 10534.00 10810.70 103.00
596 9.3700 11217.00 11373.10 106.00
597 9.3800 12189.00 12150.70 110.00
598 9.3900 13809.00 13344.80 118.00
599 9.4000 16224.00 15411.40 127.00
600 9.4100 20208.00 19239.70 142.00
601 9.4200 26876.00 26193.30 164.00
602 9.4300 37515.00 37683.90 194.00
603 9.4400 52844.00 54115.50 230.00
604 9.4500 72271.00 73389.10 269.00
605 9.4600 88330.00 89297.50 297.00
606 9.4700 91740.00 92649.00 303.00
607 9.4800 80086.00 80976.00 283.00
608 9.4900 60757.00 62231.30 246.00
609 9.5000 42886.00 44390.50 207.00
610 9.5100 30563.00 31043.60 175.00
611 9.5200 22669.00 22605.50 151.00
612 9.5300 18065.00 17914.80 134.00
613 9.5400 15487.00 15505.30 124.00
614 9.5500 14051.00 14285.20 119.00
615 9.5600 13302.00 13647.10 115.00
616 9.5700 12990.00 13312.60 114.00
617 9.5800 12876.00 13166.80 113.00
618 9.5900 12658.00 13162.20 113.00
619 9.6000 12710.00 13278.90 113.00
620 9.6100 12699.00 13509.70 113.00
621 9.6200 12937.00 13856.00 114.00
622 9.6300 13312.00 14327.10 115.00
623 9.6400 13758.00 14940.20 117.00
624 9.6500 14416.00 15721.90 120.00
625 9.6600 15484.00 16711.60 124.00
626 9.6700 16732.00 17966.30 129.00
627 9.6800 18688.00 19571.40 137.00
628 9.6900 21366.00 21666.80 146.00
629 9.7000 25180.00 24521.80 159.00
630 9.7100 30723.00 28737.80 175.00
631 9.7200 39618.00 35695.50 199.00
632 9.7300 53736.00 48278.90 232.00
633 9.7400 76959.00 71458.00 277.00
634 9.7500 114985.00 111646.00 339.00
635 9.7600 172949.00 173605.00 416.00
636 9.7700 250837.00 254981.00 501.00
637 9.7800 339432.00 339454.00 583.00
638 9.7900 396082.00 391592.00 629.00
639 9.8000 384230.00 376795.00 620.00
640 9.8100 310711.00 306144.00 557.00
641 9.8200 218458.00 220059.00 467.00
642 9.8300 143432.00 146129.00 379.00
643 9.8400 94984.00 93987.40 308.00
644 9.8500 65281.00 62321.40 256.00
645 9.8600 48069.00 45181.80 219.00
646 9.8700 38317.00 36544.50 196.00
647 9.8800 32729.00 32241.80 181.00
648 9.8900 29295.00 29890.60 171.00
649 9.9000 27347.00 28218.80 165.00
650 9.9100 26069.00 26775.90 161.00
651 9.9200 25528.00 25737.40 160.00
652 9.9300 26472.00 25514.10 163.00
653 9.9400 29267.00 26780.10 171.00
654 9.9500 35283.00 31159.10 188.00
655 9.9600 47076.00 42404.20 217.00
656 9.9700 69494.00 66886.90 264.00
657 9.9800 109363.00 110690.00 331.00
658 9.9900 171165.00 171977.00 414.00
659 10.0000 233961.00 231507.00 484.00
660 10.0100 255167.00 250889.00 505.00
661 10.0200 219588.00 212217.00 469.00
662 10.0300 148576.00 147773.00 385.00
663 10.0400 86174.00 90791.30 294.00
664 10.0500 50159.00 53344.80 224.00
665 10.0600 32148.00 33351.70 179.00
666 10.0700 22667.00 23903.70 151.00
667 10.0800 17783.00 19378.20 133.00
668 10.0900 14876.00 16857.10 122.00
669 10.1000 13168.00 15189.30 115.00
670 10.1100 12127.00 13966.80 110.00
671 10.1200 11342.00 13026.70 106.00
672 10.1300 10716.00 12276.20 104.00
673 10.1400 10301.00 11677.50 101.00
674 10.1500 9896.00 11186.80 99.00
675 10.1600 9657.00 10778.80 98.00
676 10.1700 9488.00 10454.20 97.00
677 10.1800 9318.00 10161.70 97.00
678 10.1900 9118.00 9910.04 95.00
679 10.2000 9026.00 9702.38 95.00
680 10.2100 8880.00 9511.44 94.00
681 10.2200 8809.00 9343.25 94.00
682 10.2300 8756.00 9194.12 94.00
683 10.2400 8670.00 9061.13 93.00
684 10.2500 8519.00 8941.88 92.00
685 10.2600 8463.00 8834.45 92.00
686 10.2700 8419.00 8737.23 92.00
687 10.2800 8366.00 8648.89 91.00
688 10.2900 8332.00 8568.32 91.00
689 10.3000 8253.00 8494.58 91.00
690 10.3100 8191.00 8426.87 91.00
691 10.3200 8191.00 8364.51 91.00
692 10.3300 8131.00 8306.93 90.00
693 10.3400 8072.00 8253.61 90.00
694 10.3500 8112.00 8204.12 90.00
695 10.3600 8105.00 8158.08 90.00
696 10.3700 8048.00 8115.16 90.00
697 10.3800 7988.00 8072.72 89.00
698 10.3900 8013.00 8035.23 90.00
699 10.4000 7972.00 8000.07 89.00
700 10.4100 7978.00 7967.07 89.00
701 10.4200 7967.00 7936.03 89.00
702 10.4300 7896.00 7906.79 89.00
703 10.4400 7876.00 7879.22 89.00
704 10.4500 7870.00 7853.18 89.00
705 10.4600 7859.00 7828.57 89.00
706 10.4700 7892.00 7805.28 89.00
707 10.4800 7866.00 7783.21 89.00
708 10.4900 7834.00 7762.30 89.00
709 10.5000 7812.00 7742.46 88.00
710 10.5100 7817.00 7723.63 88.00
711 10.5200 7767.00 7705.75 88.00
712 10.5300 7788.00 7688.77 88.00
713 10.5400 7785.00 7672.66 88.00
714 10.5500 7712.00 7657.38 88.00
715 10.5600 7774.00 7642.90 88.00
716 10.5700 7751.00 7629.22 88.00
717 10.5800 7750.00 7616.34 88.00
718 10.5900 7769.00 7604.27 88.00
719 10.6000 7757.00 7593.08 88.00
720 10.6100 7653.00 7582.88 87.00
721 10.6200 7657.00 7573.94 88.00
722 10.6300 7681.00 7566.90 88.00
723 10.6400 7697.00 7563.13 88.00
724 10.6500 7743.00 7565.26 88.00
725 10.6600 7751.00 7577.38 88.00
726 10.6700 7720.00 7604.07 88.00
727 10.6800 7751.00 7647.88 88.00
728 10.6900 7822.00 7705.32 88.00
729 10.7000 7923.00 7761.85 89.00
730 10.7100 7965.00 7789.22 89.00
731 10.7200 7911.00 7763.92 89.00
732 10.7300 7816.00 7698.06 88.00
733 10.7400 7813.00 7622.10 88.00
734 10.7500 7730.00 7555.85 88.00
735 10.7600 7658.00 7506.27 88.00
736 10.7700 7660.00 7472.51 88.00
737 10.7800 7636.00 7450.33 87.00
738 10.7900 7535.00 7435.22 87.00
739 10.8000 7535.00 7423.99 87.00
740 10.8100 7544.00 7414.79 87.00
741 10.8200 7577.00 7406.75 87.00
742 10.8300 7609.00 7399.46 87.00
743 10.8400 7619.00 7392.73 87.00
744 10.8500 7605.00 7386.43 87.00
745 10.8600 7602.00 7380.51 87.00
746 10.8700 7591.00 7374.91 87.00
747 10.8800 7595.00 7369.58 87.00
748 10.8900 7662.00 7364.51 88.00
749 10.9000 7598.00 7359.66 87.00
750 10.9100 7568.00 7355.02 87.00
751 10.9200 7594.00 7350.58 87.00
752 10.9300 7572.00 7346.31 87.00
753 10.9400 7593.00 7342.22 87.00
754 10.9500 7558.00 7338.29 87.00
755 10.9600 7548.00 7334.51 87.00
756 10.9700 7506.00 7330.88 87.00
757 10.9800 7502.00 7327.40 87.00
758 10.9900 7482.00 7324.05 86.00
759 11.0000 7443.00 7320.83 86.00
760 11.0100 7557.00 7317.75 87.00
761 11.0200 7534.00 7314.80 87.00
762 11.0300 7452.00 7311.97 86.00
763 11.0400 7470.00 7309.26 86.00
764 11.0500 7454.00 7306.67 86.00
765 11.0600 7473.00 7304.20 86.00
766 11.0700 7489.00 7301.85 87.00
767 11.0800 7482.00 7299.62 86.00
768 11.0900 7463.00 7297.50 86.00
769 11.1000 7445.00 7295.50 86.00
770 11.1100 7473.00 7293.62 86.00
771 11.1200 7476.00 7291.85 86.00
772 11.1300 7462.00 7290.19 86.00
773 11.1400 7472.00 7288.65 86.00
774 11.1500 7397.00 7287.22 86.00
775 11.1600 7361.00 7285.92 86.00
776 11.1700 7379.00 7284.73 86.00
777 11.1800 7442.00 7283.66 86.00
778 11.1900 7450.00 7282.96 86.00
779 11.2000 7458.00 7271.98 86.00
780 11.2100 7322.00 7271.65 86.00
781 11.2200 7390.00 7271.45 86.00
782 11.2300 7382.00 7271.37 86.00
783 11.2400 7435.00 7271.43 86.00
784 11.2500 7424.00 7271.61 86.00
785 11.2600 7389.00 7271.94 86.00
786 11.2700 7348.00 7272.40 86.00
787 11.2800 7360.00 7273.00 86.00
788 11.2900 7362.00 7273.76 86.00
789 11.3000 7334.00 7274.67 86.00
790 11.3100 7370.00 7275.73 86.00
791 11.3200 7402.00 7276.96 86.00
792 11.3300 7298.00 7278.36 85.00
793 11.3400 7344.00 7279.94 86.00
794 11.3500 7335.00 7281.70 86.00
795 11.3600 7372.00 7283.65 86.00
796 11.3700 7392.00 7285.80 86.00
797 11.3800 7348.00 7288.16 86.00
798 11.3900 7373.00 7290.74 86.00
799 11.4000 7354.00 7293.54 86.00
800 11.4100 7446.00 7296.59 86.00
801 11.4200 7450.00 7299.88 86.00
802 11.4300 7428.00 7303.45 86.00
803 11.4400 7429.00 7307.29 86.00
804 11.4500 7342.00 7311.42 86.00
805 11.4600 7353.00 7315.87 86.00
806 11.4700 7329.00 7320.64 86.00
807 11.4800 7302.00 7299.63 85.00
808 11.4900 7343.00 7305.47 86.00
809 11.5000 7326.00 7311.71 86.00
810 11.5100 7320.00 7318.35 86.00
811 11.5200 7311.00 7325.43 86.00
812 11.5300 7339.00 7332.99 86.00
813 11.5400 7374.00 7341.04 86.00
814 11.5500 7398.00 7300.90 86.00
815 11.5600 7375.00 7310.62 86.00
816 11.5700 7326.00 7320.97 86.00
817 11.5800 7354.00 7331.97 86.00
818 11.5900 7294.00 7343.69 85.00
819 11.6000 7339.00 7356.19 86.00
820 11.6100 7406.00 7369.52 86.00
821 11.6200 7438.00 7383.78 86.00
822 11.6300 7362.00 7399.03 86.00
823 11.6400 7405.00 7415.36 86.00
824 11.6500 7401.00 7432.89 86.00
825 11.6600 7453.00 7451.72 86.00
826 11.6700 7508.00 7471.98 87.00
827 11.6800 7489.00 7493.82 87.00
828 11.6900 7428.00 7517.41 86.00
829 11.7000 7477.00 7542.94 86.00
830 11.7100 7459.00 7570.62 86.00
831 11.7200 7540.00 7600.71 87.00
832 11.7300 7578.00 7633.50 87.00
833 11.7400 7590.00 7669.34 87.00
834 11.7500 7595.00 7708.62 87.00
835 11.7600 7635.00 7751.85 87.00
836 11.7700 7641.00 7820.80 87.00
837 11.7800 7706.00 7873.96 88.00
838 11.7900 7734.00 7933.23 88.00
839 11.8000 7815.00 7999.78 88.00
840 11.8100 7893.00 8075.26 89.00
841 11.8200 7957.00 8161.83 89.00
842 11.8300 8066.00 8265.33 90.00
843 11.8400 8139.00 8394.17 90.00
844 11.8500 8306.00 8563.53 91.00
845 11.8600 8508.00 8795.54 92.00
846 11.8700 8724.00 9115.07 93.00
847 11.8800 9098.00 9538.60 95.00
848 11.8900 9536.00 10056.80 98.00
849 11.9000 10070.00 10611.30 100.00
850 11.9100 10679.00 11074.60 103.00
851 11.9200 10951.00 11310.40 105.00
852 11.9300 10940.00 11339.80 105.00
853 11.9400 10931.00 11324.60 105.00
854 11.9500 10950.00 11404.80 105.00
855 11.9600 11177.00 11656.40 106.00
856 11.9700 11884.00 12118.10 109.00
857 11.9800 12623.00 12821.90 112.00
858 11.9900 13800.00 13831.10 117.00
859 12.0000 15536.00 15300.50 125.00
860 12.0100 18089.00 17578.90 134.00
861 12.0200 21984.00 21362.20 148.00
862 12.0300 28011.00 27830.20 167.00
863 12.0400 37020.00 38584.30 192.00
864 12.0500 50447.00 55167.70 225.00
865 12.0600 70542.00 78070.70 266.00
866 12.0700 96434.00 105328.00 311.00
867 12.0800 124278.00 130663.00 353.00
868 12.0900 142480.00 143048.00 377.00
869 12.1000 139707.00 134809.00 374.00
870 12.1100 117128.00 111689.00 342.00
871 12.1200 89693.00 85258.10 299.00
872 12.1300 65458.00 63001.80 256.00
873 12.1400 49531.00 47757.10 223.00
874 12.1500 40733.00 39420.60 202.00
875 12.1600 37106.00 36310.60 193.00
876 12.1700 36035.00 35959.30 190.00
877 12.1800 35758.00 35592.80 189.00
878 12.1900 33864.00 33188.70 184.00
879 12.2000 29649.00 28858.50 172.00
880 12.2100 24638.00 23992.40 157.00
881 12.2200 19864.00 19654.90 141.00
882 12.2300 16154.00 16280.90 127.00
883 12.2400 13815.00 13894.30 118.00
884 12.2500 12153.00 12307.90 110.00
885 12.2600 11056.00 11275.40 105.00
886 12.2700 10328.00 10586.00 102.00
887 12.2800 9777.00 10097.40 99.00
888 12.2900 9318.00 9727.29 97.00
889 12.3000 9015.00 9432.28 95.00
890 12.3100 8731.00 9189.43 93.00
891 12.3200 8582.00 8985.66 93.00
892 12.3300 8461.00 8812.56 92.00
893 12.3400 8254.00 8664.17 91.00
894 12.3500 8121.00 8536.01 90.00
895 12.3600 8025.00 8424.65 90.00
896 12.3700 7962.00 8327.38 89.00
897 12.3800 7912.00 8242.03 89.00
898 12.3900 7869.00 8166.85 89.00
899 12.4000 7832.00 8100.43 88.00
900 12.4100 7692.00 8041.63 88.00
901 12.4200 7705.00 7989.47 88.00
902 12.4300 7659.00 7943.18 88.00
903 12.4400 7714.00 7902.09 88.00
904 12.4500 7668.00 7865.66 88.00
905 12.4600 7669.00 7833.41 88.00
906 12.4700 7554.00 7804.96 87.00
907 12.4800 7567.00 7779.98 87.00
908 12.4900 7556.00 7758.21 87.00
909 12.5000 7563.00 7739.41 87.00
910 12.5100 7590.00 7723.40 87.00
911 12.5200 7616.00 7710.03 87.00
912 12.5300 7520.00 7699.19 87.00
913 12.5400 7522.00 7690.74 87.00
914 12.5500 7527.00 7684.71 87.00
915 12.5600 7538.00 7681.03 87.00
916 12.5700 7575.00 7679.69 87.00
917 12.5800 7558.00 7680.72 87.00
918 12.5900 7502.00 7684.17 87.00
919 12.6000 7537.00 7690.11 87.00
920 12.6100 7590.00 7698.65 87.00
921 12.6200 7639.00 7709.96 87.00
922 12.6300 7631.00 7724.21 87.00
923 12.6400 7682.00 7741.64 88.00
924 12.6500 7616.00 7762.55 87.00
925 12.6600 7692.00 7787.28 88.00
926 12.6700 7707.00 7816.30 88.00
927 12.6800 7742.00 7850.15 88.00
928 12.6900 7832.00 7889.56 88.00
929 12.7000 7909.00 7935.48 89.00
930 12.7100 7894.00 7989.25 89.00
931 12.7200 7968.00 8052.80 89.00
932 12.7300 8120.00 8129.00 90.00
933 12.7400 8244.00 8222.20 91.00
934 12.7500 8446.00 8338.96 92.00
935 12.7600 8628.00 8489.05 93.00
936 12.7700 8776.00 8686.48 94.00
937 12.7800 9009.00 8950.54 95.00
938 12.7900 9310.00 9306.36 96.00
939 12.8000 9690.00 9784.71 98.00
940 12.8100 10287.00 10420.20 101.00
941 12.8200 10887.00 11247.80 104.00
942 12.8300 11694.00 12297.50 108.00
943 12.8400 12702.00 13587.70 113.00
944 12.8500 13981.00 15116.70 118.00
945 12.8600 15604.00 16854.50 125.00
946 12.8700 17554.00 18733.20 132.00
947 12.8800 19609.00 20636.20 140.00
948 12.8900 21662.00 22388.50 147.00
949 12.9000 23520.00 23761.60 153.00
950 12.9100 24630.00 24519.70 157.00
951 12.9200 24601.00 24510.60 157.00
952 12.9300 23892.00 23747.00 155.00
953 12.9400 22219.00 22399.40 149.00
954 12.9500 20303.00 20709.70 142.00
955 12.9600 18498.00 18902.50 136.00
956 12.9700 16896.00 17149.00 130.00
957 12.9800 15505.00 15564.10 125.00
958 12.9900 14465.00 14217.60 120.00
959 13.0000 13635.00 13146.60 117.00
960 13.0100 13028.00 12365.90 114.00
961 13.0200 12729.00 11878.20 113.00
962 13.0300 12570.00 11682.70 112.00
963 13.0400 12698.00 11781.80 113.00
964 13.0500 13105.00 12185.00 114.00
965 13.0600 13631.00 12907.80 117.00
966 13.0700 14311.00 13967.20 120.00
967 13.0800 15449.00 15372.90 124.00
968 13.0900 16836.00 17117.20 130.00
969 13.1000 18776.00 19161.70 137.00
970 13.1100 21074.00 21425.10 145.00
971 13.1200 23529.00 23766.60 153.00
972 13.1300 25811.00 25973.50 161.00
973 13.1400 28036.00 27757.70 167.00
974 13.1500 29208.00 28804.40 171.00
975 13.1600 29377.00 28883.70 171.00
976 13.1700 28288.00 27969.50 168.00
977 13.1800 26132.00 26254.00 162.00
978 13.1900 23362.00 24043.30 153.00
979 13.2000 20823.00 21635.40 144.00
980 13.2100 18433.00 19258.00 136.00
981 13.2200 16383.00 17062.20 128.00
982 13.2300 14822.00 15135.00 122.00
983 13.2400 13436.00 13514.30 116.00
984 13.2500 12320.00 12200.90 111.00
985 13.2600 11451.00 11170.50 107.00
986 13.2700 10805.00 10383.80 104.00
987 13.2800 10233.00 9795.47 101.00
988 13.2900 9867.00 9361.04 99.00
989 13.3000 9475.00 9041.33 97.00
990 13.3100 9132.00 8804.57 96.00
991 13.3200 8924.00 8626.56 94.00
992 13.3300 8785.00 8489.89 94.00
993 13.3400 8601.00 8382.47 93.00
994 13.3500 8521.00 8296.29 92.00
995 13.3600 8408.00 8226.06 92.00
996 13.3700 8279.00 8171.52 91.00
997 13.3800 8208.00 8124.01 91.00
998 13.3900 8101.00 8085.14 90.00
999 13.4000 8113.00 8053.79 90.00
1000 13.4100 8142.00 8029.16 90.00
1001 13.4200 8072.00 8010.65 90.00
1002 13.4300 8011.00 7997.81 90.00
1003 13.4400 7980.00 7990.32 89.00
1004 13.4500 7964.00 7987.95 89.00
1005 13.4600 7947.00 7990.57 89.00
1006 13.4700 7965.00 7998.13 89.00
1007 13.4800 8055.00 8010.65 90.00
1008 13.4900 7956.00 8028.24 89.00
1009 13.5000 8013.00 8051.09 90.00
1010 13.5100 8021.00 8079.46 90.00
1011 13.5200 8067.00 8113.72 90.00
1012 13.5300 8125.00 8154.35 90.00
1013 13.5400 8152.00 8201.92 90.00
1014 13.5500 8116.00 8257.19 90.00
1015 13.5600 8221.00 8321.05 91.00
1016 13.5700 8286.00 8394.61 91.00
1017 13.5800 8424.00 8479.23 92.00
1018 13.5900 8515.00 8590.59 92.00
1019 13.6000 8639.00 8702.93 93.00
1020 13.6100 8682.00 8832.70 93.00
1021 13.6200 8890.00 8983.14 94.00
1022 13.6300 9085.00 9158.43 95.00
1023 13.6400 9306.00 9363.86 96.00
1024 13.6500 9602.00 9611.92 98.00
1025 13.6600 9898.00 9900.80 99.00
1026 13.6700 10253.00 10249.00 101.00
1027 13.6800 10794.00 10676.30 104.00
1028 13.6900 11435.00 11216.10 107.00
1029 13.7000 12243.00 11930.50 111.00
1030 13.7100 13567.00 12940.10 116.00
1031 13.7200 15170.00 14464.90 123.00
1032 13.7300 17324.00 16862.90 132.00
1033 13.7400 20752.00 20621.80 144.00
1034 13.7500 25726.00 26252.10 160.00
1035 13.7600 32783.00 34053.00 181.00
1036 13.7700 42242.00 43766.50 206.00
1037 13.7800 52716.00 54075.30 230.00
1038 13.7900 61722.00 62136.70 248.00
1039 13.8000 66134.00 64866.30 257.00
1040 13.8100 64628.00 62512.80 254.00
1041 13.8200 59664.00 58604.10 244.00
1042 13.8300 56297.00 56250.90 237.00
1043 13.8400 55652.00 56750.60 236.00
1044 13.8500 58442.00 59934.20 242.00
1045 13.8600 63611.00 64520.00 252.00
1046 13.8700 68604.00 68401.30 262.00
1047 13.8800 70440.00 69322.40 265.00
1048 13.8900 68366.00 66121.70 261.00
1049 13.9000 61104.00 59457.50 247.00
1050 13.9100 51420.00 51030.00 227.00
1051 13.9200 42167.00 42406.80 205.00
1052 13.9300 33864.00 34582.20 184.00
1053 13.9400 27487.00 28041.10 166.00
1054 13.9500 22764.00 22916.90 151.00
1055 13.9600 19246.00 19115.70 139.00
1056 13.9700 16580.00 16421.60 129.00
1057 13.9800 14818.00 14579.60 122.00
1058 13.9900 13473.00 13355.90 116.00
1059 14.0000 12597.00 12572.20 112.00
1060 14.0100 12058.00 12121.50 110.00
1061 14.0200 11847.00 11955.30 109.00
1062 14.0300 11837.00 12163.30 109.00
1063 14.0400 12380.00 12849.80 111.00
1064 14.0500 13397.00 14170.20 116.00
1065 14.0600 15138.00 16224.60 123.00
1066 14.0700 17755.00 18924.40 133.00
1067 14.0800 20816.00 21801.50 144.00
1068 14.0900 22957.00 23804.80 152.00
1069 14.1000 23496.00 23711.20 153.00
1070 14.1100 21774.00 21489.70 148.00
1071 14.1200 18610.00 18340.40 136.00
1072 14.1300 15413.00 15326.90 124.00
1073 14.1400 12959.00 12927.70 114.00
1074 14.1500 11180.00 11230.60 106.00
1075 14.1600 10126.00 10125.80 101.00
1076 14.1700 9387.00 9433.87 97.00
1077 14.1800 8958.00 9000.66 95.00
1078 14.1900 8621.00 8712.41 93.00
1079 14.2000 8396.00 8504.95 92.00
1080 14.2100 8183.00 8345.03 90.00
1081 14.2200 8030.00 8216.02 90.00
1082 14.2300 7941.00 8109.08 89.00
1083 14.2400 7876.00 8018.93 89.00
1084 14.2500 7787.00 7941.99 88.00
1085 14.2600 7702.00 7875.72 88.00
1086 14.2700 7675.00 7818.19 88.00
1087 14.2800 7669.00 7767.95 88.00
1088 14.2900 7612.00 7723.85 87.00
1089 14.3000 7571.00 7684.98 87.00
1090 14.3100 7631.00 7650.63 87.00
1091 14.3200 7605.00 7620.22 87.00
1092 14.3300 7521.00 7593.28 87.00
1093 14.3400 7530.00 7569.42 87.00
1094 14.3500 7484.00 7548.33 87.00
1095 14.3600 7486.00 7529.74 87.00
1096 14.3700 7529.00 7517.34 87.00
1097 14.3800 7489.00 7503.20 87.00
1098 14.3900 7481.00 7491.02 86.00
1099 14.4000 7479.00 7481.59 86.00
1100 14.4100 7514.00 7473.02 87.00
1101 14.4200 7537.00 7466.13 87.00
1102 14.4300 7583.00 7460.85 87.00
1103 14.4400 7624.00 7457.16 87.00
1104 14.4500 7586.00 7455.01 87.00
1105 14.4600 7627.00 7454.41 87.00
1106 14.4700 7587.00 7455.36 87.00
1107 14.4800 7636.00 7457.87 87.00
1108 14.4900 7618.00 7461.99 87.00
1109 14.5000 7646.00 7467.76 87.00
1110 14.5100 7514.00 7484.90 87.00
1111 14.5200 7524.00 7494.27 87.00
1112 14.5300 7524.00 7505.54 87.00
1113 14.5400 7582.00 7518.84 87.00
1114 14.5500 7609.00 7534.34 87.00
1115 14.5600 7634.00 7552.20 87.00
1116 14.5700 7555.00 7572.64 87.00
1117 14.5800 7628.00 7595.91 87.00
1118 14.5900 7674.00 7622.33 88.00
1119 14.6000 7670.00 7652.23 88.00
1120 14.6100 7665.00 7686.08 88.00
1121 14.6200 7746.00 7724.40 88.00
1122 14.6300 7772.00 7767.89 88.00
1123 14.6400 7770.00 7817.44 88.00
1124 14.6500 7859.00 7874.21 89.00
1125 14.6600 7951.00 7939.73 89.00
1126 14.6700 8060.00 8015.98 90.00
1127 14.6800 8167.00 8105.38 90.00
1128 14.6900 8246.00 8210.89 91.00
1129 14.7000 8392.00 8335.79 92.00
1130 14.7100 8567.00 8483.92 93.00
1131 14.7200 8750.00 8659.57 94.00
1132 14.7300 9061.00 8868.22 95.00
1133 14.7400 9329.00 9117.15 97.00
1134 14.7500 9595.00 9417.36 98.00
1135 14.7600 10052.00 9787.64 100.00
1136 14.7700 10578.00 10262.50 103.00
1137 14.7800 11222.00 10895.70 106.00
1138 14.7900 12168.00 11760.50 110.00
1139 14.8000 13179.00 12938.00 115.00
1140 14.8100 14520.00 14505.60 120.00
1141 14.8200 16400.00 16522.40 128.00
1142 14.8300 18783.00 19014.00 137.00
1143 14.8400 21723.00 21950.80 147.00
1144 14.8500 25534.00 25217.90 160.00
1145 14.8600 29197.00 28582.70 171.00
1146 14.8700 32414.00 31671.30 180.00
1147 14.8800 34921.00 34044.20 187.00
1148 14.8900 36071.00 35407.00 190.00
1149 14.9000 35847.00 35805.80 189.00
1150 14.9100 35130.00 35561.80 187.00
1151 14.9200 34323.00 35007.40 185.00
1152 14.9300 33556.00 34291.70 183.00
1153 14.9400 33072.00 33349.40 182.00
1154 14.9500 32128.00 31995.40 179.00
1155 14.9600 30311.00 30097.10 174.00
1156 14.9700 27908.00 27709.10 167.00
1157 14.9800 24952.00 25053.70 158.00
1158 14.9900 21977.00 22402.00 148.00
1159 15.0000 19556.00 19973.20 140.00
1160 15.0100 17416.00 17900.90 132.00
1161 15.0200 15766.00 16224.80 126.00
1162 15.0300 14692.00 14871.00 121.00
1163 15.0400 13657.00 13657.40 117.00
1164 15.0500 12570.00 12462.20 112.00
1165 15.0600 11593.00 11368.50 108.00
1166 15.0700 10749.00 10480.40 104.00
1167 15.0800 10149.00 9817.13 101.00
1168 15.0900 9711.00 9345.71 99.00
1169 15.1000 9346.00 9014.94 97.00
1170 15.1100 9063.00 8777.45 95.00
1171 15.1200 8868.00 8599.07 94.00
1172 15.1300 8639.00 8458.91 93.00
1173 15.1400 8428.00 8345.12 92.00
1174 15.1500 8400.00 8250.80 92.00
1175 15.1600 8265.00 8171.76 91.00
1176 15.1700 8149.00 8105.20 90.00
1177 15.1800 8092.00 8049.14 90.00
1178 15.1900 8031.00 8002.17 90.00
1179 15.2000 7968.00 7963.19 89.00
1180 15.2100 8027.00 7931.38 90.00
1181 15.2200 7971.00 7906.11 89.00
1182 15.2300 7918.00 7886.88 89.00
1183 15.2400 7888.00 7873.37 89.00
1184 15.2500 7910.00 7865.35 89.00
1185 15.2600 7925.00 7862.69 89.00
1186 15.2700 7941.00 7865.40 89.00
1187 15.2800 7956.00 7873.58 89.00
1188 15.2900 7945.00 7887.43 89.00
1189 15.3000 8018.00 7907.32 90.00
1190 15.3100 8062.00 7933.76 90.00
1191 15.3200 8084.00 7967.51 90.00
1192 15.3300 8181.00 8009.65 90.00
1193 15.3400 8237.00 8061.82 91.00
1194 15.3500 8279.00 8126.56 91.00
1195 15.3600 8383.00 8207.81 92.00
1196 15.3700 8533.00 8311.82 92.00
1197 15.3800 8664.00 8448.22 93.00
1198 15.3900 8918.00 8631.12 94.00
1199 15.4000 9170.00 8880.30 96.00
1200 15.4100 9450.00 9221.22 97.00
1201 15.4200 9937.00 9684.13 100.00
1202 15.4300 10488.00 10300.90 102.00
1203 15.4400 11329.00 11099.30 106.00
1204 15.4500 12335.00 12095.90 111.00
1205 15.4600 13468.00 13285.60 116.00
1206 15.4700 14729.00 14629.20 121.00
1207 15.4800 16253.00 16034.10 127.00
1208 15.4900 17650.00 17338.90 133.00
1209 15.5000 18713.00 18318.50 137.00
1210 15.5100 19076.00 18753.60 138.00
1211 15.5200 18601.00 18546.50 136.00
1212 15.5300 17461.00 17785.70 132.00
1213 15.5400 16222.00 16698.30 127.00
1214 15.5500 14870.00 15532.60 122.00
1215 15.5600 13879.00 14475.30 118.00
1216 15.5700 13237.00 13630.40 115.00
1217 15.5800 12831.00 13052.90 113.00
1218 15.5900 12614.00 12762.00 112.00
1219 15.6000 12934.00 12763.30 114.00
1220 15.6100 13441.00 13069.90 116.00
1221 15.6200 14392.00 13732.10 120.00
1222 15.6300 15803.00 14879.90 126.00
1223 15.6400 17860.00 16780.10 134.00
1224 15.6500 20719.00 19892.10 144.00
1225 15.6600 25102.00 24875.40 158.00
1226 15.6700 31609.00 32485.70 178.00
1227 15.6800 41142.00 43302.70 203.00
1228 15.6900 54408.00 57309.80 233.00
1229 15.7000 70085.00 73240.90 265.00
1230 15.7100 84927.00 87669.90 291.00
1231 15.7200 94534.00 94902.80 307.00
1232 15.7300 92972.00 90874.00 305.00
1233 15.7400 79996.00 77939.40 283.00
1234 15.7500 63187.00 61930.20 251.00
1235 15.7600 47241.00 47078.00 217.00
1236 15.7700 35045.00 35191.30 187.00
1237 15.7800 26687.00 26587.50 163.00
1238 15.7900 21086.00 20807.70 145.00
1239 15.8000 17372.00 17106.30 132.00
1240 15.8100 14966.00 14767.10 122.00
1241 15.8200 13243.00 13249.20 115.00
1242 15.8300 11884.00 12202.30 109.00
1243 15.8400 11031.00 11444.60 105.00
1244 15.8500 10342.00 10864.80 102.00
1245 15.8600 9824.00 10406.80 99.00
1246 15.8700 9519.00 10038.20 98.00
1247 15.8800 9265.00 9738.44 96.00
1248 15.8900 8945.00 9493.47 95.00
1249 15.9000 8785.00 9293.16 94.00
1250 15.9100 8606.00 9129.94 93.00
1251 15.9200 8584.00 8998.26 93.00
1252 15.9300 8554.00 8894.11 92.00
1253 15.9400 8493.00 8814.63 92.00
1254 15.9500 8424.00 8758.05 92.00
1255 15.9600 8442.00 8723.54 92.00
1256 15.9700 8452.00 8711.32 92.00
1257 15.9800 8522.00 8722.93 92.00
1258 15.9900 8627.00 8761.97 93.00
1259 16.0000 8752.00 8835.57 94.00
1260 16.0100 8870.00 8956.96 94.00
1261 16.0200 9148.00 9149.61 96.00
1262 16.0300 9489.00 9452.16 97.00
1263 16.0400 10086.00 9922.19 100.00
1264 16.0500 10817.00 10636.10 104.00
1265 16.0600 11767.00 11676.40 108.00
1266 16.0700 12934.00 13121.50 114.00
1267 16.0800 14739.00 14996.30 121.00
1268 16.0900 16792.00 17239.80 130.00
1269 16.1000 19237.00 19636.10 139.00
1270 16.1100 21497.00 21738.70 147.00
1271 16.1200 22720.00 22896.60 151.00
1272 16.1300 22338.00 22623.10 149.00
1273 16.1400 20881.00 21055.50 145.00
1274 16.1500 18596.00 18811.10 136.00
1275 16.1600 16194.00 16483.80 127.00
1276 16.1700 14198.00 14422.20 119.00
1277 16.1800 12620.00 12774.30 112.00
1278 16.1900 11455.00 11562.30 107.00
1279 16.2000 10651.00 10739.90 103.00
1280 16.2100 10191.00 10231.40 101.00
1281 16.2200 9895.00 9962.10 99.00
1282 16.2300 9881.00 9875.33 99.00
1283 16.2400 9916.00 9940.12 100.00
1284 16.2500 10002.00 10150.50 100.00
1285 16.2600 10294.00 10521.70 101.00
1286 16.2700 10776.00 11084.80 104.00
1287 16.2800 11446.00 11882.40 107.00
1288 16.2900 12429.00 12963.20 111.00
1289 16.3000 13684.00 14380.60 117.00
1290 16.3100 15246.00 16186.20 123.00
1291 16.3200 17446.00 18422.60 132.00
1292 16.3300 20064.00 21090.70 142.00
1293 16.3400 23269.00 24099.30 153.00
1294 16.3500 26844.00 27191.00 164.00
1295 16.3600 30037.00 29885.70 173.00
1296 16.3700 31632.00 31466.50 178.00
1297 16.3800 31580.00 31221.40 178.00
1298 16.3900 29394.00 29132.70 171.00
1299 16.4000 26123.00 26057.50 162.00
1300 16.4100 22917.00 22927.00 151.00
1301 16.4200 20125.00 20284.80 142.00
1302 16.4300 18049.00 18350.50 134.00
1303 16.4400 17038.00 17152.00 131.00
1304 16.4500 16623.00 16605.40 129.00
1305 16.4600 16824.00 16566.40 130.00
1306 16.4700 17297.00 16851.10 132.00
1307 16.4800 17939.00 17237.10 134.00
1308 16.4900 18147.00 17491.60 135.00
1309 16.5000 18178.00 17432.90 135.00
1310 16.5100 17492.00 17042.10 132.00
1311 16.5200 16713.00 16470.30 129.00
1312 16.5300 15975.00 15932.20 126.00
1313 16.5400 15485.00 15590.60 124.00
1314 16.5500 15240.00 15493.30 123.00
1315 16.5600 15428.00 15530.90 124.00
1316 16.5700 15526.00 15412.70 125.00
1317 16.5800 15174.00 14819.30 123.00
1318 16.5900 14168.00 13737.60 119.00
1319 16.6000 12844.00 12459.50 113.00
1320 16.6100 11448.00 11254.30 107.00
1321 16.6200 10420.00 10270.30 102.00
1322 16.6300 9639.00 9527.14 98.00
1323 16.6400 9072.00 9009.92 95.00
1324 16.6500 8740.00 8648.30 93.00
1325 16.6600 8404.00 8402.92 92.00
1326 16.6700 8178.00 8233.02 90.00
1327 16.6800 8075.00 8110.43 90.00
1328 16.6900 8030.00 8015.17 90.00
1329 16.7000 7898.00 7943.02 89.00
1330 16.7100 7896.00 7885.67 89.00
1331 16.7200 7797.00 7839.67 88.00
1332 16.7300 7750.00 7803.34 88.00
1333 16.7400 7732.00 7775.07 88.00
1334 16.7500 7723.00 7753.85 88.00
1335 16.7600 7679.00 7738.93 88.00
1336 16.7700 7722.00 7729.77 88.00
1337 16.7800 7718.00 7726.00 88.00
1338 16.7900 7633.00 7727.37 87.00
1339 16.8000 7691.00 7733.76 88.00
1340 16.8100 7709.00 7745.14 88.00
1341 16.8200 7703.00 7761.60 88.00
1342 16.8300 7771.00 7783.30 88.00
1343 16.8400 7824.00 7810.52 88.00
1344 16.8500 7808.00 7843.63 88.00
1345 16.8600 7891.00 7883.13 89.00
1346 16.8700 7917.00 7929.65 89.00
1347 16.8800 7999.00 7983.95 89.00
1348 16.8900 8080.00 8047.01 90.00
1349 16.9000 8186.00 8120.03 90.00
1350 16.9100 8275.00 8204.48 91.00
1351 16.9200 8386.00 8302.16 92.00
1352 16.9300 8543.00 8415.38 92.00
1353 16.9400 8753.00 8547.06 94.00
1354 16.9500 8912.00 8701.10 94.00
1355 16.9600 9160.00 8882.78 96.00
1356 16.9700 9350.00 9099.66 97.00
1357 16.9800 9787.00 9363.17 99.00
1358 16.9900 10203.00 9689.80 101.00
1359 17.0000 10775.00 10105.40 104.00
1360 17.0100 11480.00 10648.10 107.00
1361 17.0200 12321.00 11375.00 111.00
1362 17.0300 13270.00 12367.80 115.00
1363 17.0400 14733.00 13732.40 121.00
1364 17.0500 16492.00 15604.40 128.00
1365 17.0600 18831.00 18131.00 137.00
1366 17.0700 21822.00 21446.00 148.00
1367 17.0800 25467.00 25649.30 160.00
1368 17.0900 29709.00 30787.70 172.00
1369 17.1000 35128.00 36804.20 187.00
1370 17.1100 41670.00 43406.40 204.00
1371 17.1200 48517.00 49919.80 220.00
1372 17.1300 54853.00 55187.60 234.00
1373 17.1400 58222.00 57800.30 241.00
1374 17.1500 57403.00 56844.30 240.00
1375 17.1600 53111.00 52614.00 230.00
1376 17.1700 46173.00 46364.50 215.00
1377 17.1800 38685.00 39457.80 197.00
1378 17.1900 31753.00 32847.40 178.00
1379 17.2000 26026.00 27057.60 161.00
1380 17.2100 21451.00 22298.90 146.00
1381 17.2200 18180.00 18585.10 135.00
1382 17.2300 15599.00 15804.00 125.00
1383 17.2400 13747.00 13787.40 117.00
1384 17.2500 12424.00 12351.70 111.00
1385 17.2600 11346.00 11332.80 107.00
1386 17.2700 10496.00 10599.50 102.00
1387 17.2800 9918.00 10057.10 100.00
1388 17.2900 9437.00 9641.36 97.00
1389 17.3000 9013.00 9311.38 95.00
1390 17.3100 8760.00 9041.46 94.00
1391 17.3200 8466.00 8815.76 92.00
1392 17.3300 8253.00 8624.03 91.00
1393 17.3400 8109.00 8459.29 90.00
1394 17.3500 7932.00 8316.62 89.00
1395 17.3600 7825.00 8192.24 88.00
1396 17.3700 7782.00 8083.27 88.00
1397 17.3800 7696.00 7987.34 88.00
1398 17.3900 7562.00 7902.59 87.00
1399 17.4000 7501.00 7827.43 87.00
1400 17.4100 7446.00 7760.60 86.00
1401 17.4200 7401.00 7701.01 86.00
1402 17.4300 7376.00 7647.81 86.00
1403 17.4400 7379.00 7600.23 86.00
1404 17.4500 7286.00 7557.66 85.00
1405 17.4600 7251.00 7519.56 85.00
1406 17.4700 7234.00 7485.51 85.00
1407 17.4800 7228.00 7455.13 85.00
1408 17.4900 7259.00 7428.11 85.00
1409 17.5000 7239.00 7404.22 85.00
1410 17.5100 7172.00 7383.24 85.00
1411 17.5200 7133.00 7365.03 84.00
1412 17.5300 7120.00 7349.46 84.00
1413 17.5400 7167.00 7336.43 85.00
1414 17.5500 7206.00 7325.98 85.00
1415 17.5600 7190.00 7318.09 85.00
1416 17.5700 7125.00 7312.82 84.00
1417 17.5800 7160.00 7310.28 85.00
1418 17.5900 7203.00 7310.66 85.00
1419 17.6000 7169.00 7314.23 85.00
1420 17.6100 7259.00 7321.38 85.00
1421 17.6200 7260.00 7332.71 85.00
1422 17.6300 7225.00 7349.12 85.00
1423 17.6400 7301.00 7375.85 85.00
1424 17.6500 7329.00 7407.57 86.00
1425 17.6600 7311.00 7451.60 86.00
1426 17.6700 7468.00 7513.34 86.00
1427 17.6800 7502.00 7600.62 87.00
1428 17.6900 7642.00 7724.08 87.00
1429 17.7000 7786.00 7897.01 88.00
1430 17.7100 7997.00 8134.58 89.00
1431 17.7200 8281.00 8451.77 91.00
1432 17.7300 8702.00 8860.37 93.00
1433 17.7400 9168.00 9364.69 96.00
1434 17.7500 9703.00 9955.19 99.00
1435 17.7600 10324.00 10600.30 102.00
1436 17.7700 11054.00 11234.50 105.00
1437 17.7800 11668.00 11752.30 108.00
1438 17.7900 12058.00 12026.90 110.00
1439 17.8000 11933.00 11969.70 109.00
1440 17.8100 11510.00 11594.50 107.00
1441 17.8200 10870.00 11014.30 104.00
1442 17.8300 10142.00 10366.00 101.00
1443 17.8400 9541.00 9747.77 98.00
1444 17.8500 9100.00 9213.06 95.00
1445 17.8600 8716.00 8769.78 93.00
1446 17.8700 8381.00 8448.87 92.00
1447 17.8800 8247.00 8228.65 91.00
1448 17.8900 8134.00 8098.02 90.00
1449 17.9000 8106.00 8047.15 90.00
1450 17.9100 8135.00 8071.21 90.00
1451 17.9200 8255.00 8171.84 91.00
1452 17.9300 8368.00 8357.08 91.00
1453 17.9400 8616.00 8639.28 93.00
1454 17.9500 8908.00 9032.81 94.00
1455 17.9600 9394.00 9547.92 97.00
1456 17.9700 10065.00 10183.40 100.00
1457 17.9800 10870.00 10931.50 104.00
1458 17.9900 11585.00 11751.80 108.00
1459 18.0000 12638.00 12571.60 112.00
1460 18.0100 13509.00 13274.90 116.00
1461 18.0200 14041.00 13714.60 118.00
1462 18.0300 14135.00 13769.90 119.00
1463 18.0400 13704.00 13420.80 117.00
1464 18.0500 12750.00 12763.20 113.00
1465 18.0600 11787.00 11943.80 109.00
1466 18.0700 10801.00 11090.90 104.00
1467 18.0800 9988.00 10289.60 100.00
1468 18.0900 9389.00 9586.75 97.00
1469 18.1000 8808.00 9001.24 94.00
1470 18.1100 8441.00 8534.15 92.00
1471 18.1200 8150.00 8174.55 90.00
1472 18.1300 7867.00 7905.56 89.00
1473 18.1400 7678.00 7708.16 88.00
1474 18.1500 7595.00 7564.54 87.00
1475 18.1600 7470.00 7459.73 86.00
1476 18.1700 7307.00 7382.26 85.00
1477 18.1800 7251.00 7323.92 85.00
1478 18.1900 7199.00 7279.22 85.00
1479 18.2000 7183.00 7259.12 85.00
1480 18.2100 7200.00 7233.13 85.00
1481 18.2200 7212.00 7214.81 85.00
1482 18.2300 7115.00 7204.49 84.00
1483 18.2400 7113.00 7203.46 84.00
1484 18.2500 7166.00 7213.84 85.00
1485 18.2600 7178.00 7238.32 85.00
1486 18.2700 7259.00 7279.58 85.00
1487 18.2800 7299.00 7339.36 85.00
1488 18.2900 7317.00 7417.33 86.00
1489 18.3000 7435.00 7506.77 86.00
1490 18.3100 7523.00 7602.14 87.00
1491 18.3200 7639.00 7681.59 87.00
1492 18.3300 7736.00 7719.72 88.00
1493 18.3400 7722.00 7699.43 88.00
1494 18.3500 7618.00 7626.74 87.00
1495 18.3600 7478.00 7525.11 86.00
1496 18.3700 7394.00 7417.79 86.00
1497 18.3800 7307.00 7319.48 85.00
1498 18.3900 7247.00 7236.99 85.00
1499 18.4000 7162.00 7170.76 85.00
1500 18.4100 7118.00 7122.51 84.00
1501 18.4200 7133.00 7088.17 84.00
1502 18.4300 7051.00 7064.60 84.00
1503 18.4400 7054.00 7048.86 84.00
1504 18.4500 7017.00 7038.61 84.00
1505 18.4600 7058.00 7032.15 84.00
1506 18.4700 7031.00 7028.38 84.00
1507 18.4800 7021.00 7026.62 84.00
1508 18.4900 7015.00 7026.48 84.00
1509 18.5000 7018.00 7027.74 84.00
1510 18.5100 7048.00 7030.29 84.00
1511 18.5200 7056.00 7034.09 84.00
1512 18.5300 6995.00 7039.14 84.00
1513 18.5400 7010.00 7045.52 84.00
1514 18.5500 6980.00 7053.31 84.00
1515 18.5600 7015.00 7062.66 84.00
1516 18.5700 7053.00 7073.79 84.00
1517 18.5800 7077.00 7085.65 84.00
1518 18.5900 7053.00 7101.31 84.00
1519 18.6000 7055.00 7120.00 84.00
1520 18.6100 7126.00 7140.21 84.00
1521 18.6200 7142.00 7168.13 85.00
1522 18.6300 7207.00 7203.89 85.00
1523 18.6400 7286.00 7252.16 85.00
1524 18.6500 7305.00 7321.23 85.00
1525 18.6600 7376.00 7424.26 86.00
1526 18.6700 7517.00 7579.42 87.00
1527 18.6800 7727.00 7806.60 88.00
1528 18.6900 8085.00 8120.22 90.00
1529 18.7000 8463.00 8516.33 92.00
1530 18.7100 8811.00 8951.71 94.00
1531 18.7200 9154.00 9313.32 96.00
1532 18.7300 9324.00 9437.68 97.00
1533 18.7400 9227.00 9259.81 96.00
1534 18.7500 8930.00 8898.50 94.00
1535 18.7600 8493.00 8510.48 92.00
1536 18.7700 8080.00 8184.89 90.00
1537 18.7800 7897.00 7948.50 89.00
1538 18.7900 7702.00 7797.89 88.00
1539 18.8000 7647.00 7716.57 87.00
1540 18.8100 7622.00 7685.53 87.00
1541 18.8200 7634.00 7689.25 87.00
1542 18.8300 7595.00 7717.73 87.00
1543 18.8400 7649.00 7765.94 87.00
1544 18.8500 7706.00 7832.52 88.00
1545 18.8600 7833.00 7919.04 89.00
1546 18.8700 7927.00 8029.83 89.00
1547 18.8800 8079.00 8173.23 90.00
1548 18.8900 8246.00 8363.47 91.00
1549 18.9000 8508.00 8624.10 92.00
1550 18.9100 8882.00 8990.73 94.00
1551 18.9200 9417.00 9513.35 97.00
1552 18.9300 10141.00 10253.70 101.00
1553 18.9400 11067.00 11289.50 105.00
1554 18.9500 12221.00 12650.10 111.00
1555 18.9600 13944.00 14365.00 118.00
1556 18.9700 16012.00 16381.60 127.00
1557 18.9800 18427.00 18528.50 136.00
1558 18.9900 20814.00 20449.30 144.00
1559 19.0000 22159.00 21618.70 149.00
1560 19.0100 22123.00 21611.70 149.00
1561 19.0200 20700.00 20474.30 144.00
1562 19.0300 18564.00 18682.10 136.00
1563 19.0400 16420.00 16754.10 128.00
1564 19.0500 14820.00 15029.50 122.00
1565 19.0600 13538.00 13681.40 116.00
1566 19.0700 12660.00 12782.60 113.00
1567 19.0800 12443.00 12360.00 112.00
1568 19.0900 12497.00 12424.80 112.00
1569 19.1000 13054.00 12990.50 114.00
1570 19.1100 14214.00 14074.60 119.00
1571 19.1200 15748.00 15682.00 125.00
1572 19.1300 17848.00 17776.20 134.00
1573 19.1400 20517.00 20227.20 143.00
1574 19.1500 23549.00 22742.40 153.00
1575 19.1600 25973.00 24792.40 161.00
1576 19.1700 27218.00 25717.40 165.00
1577 19.1800 26242.00 25146.50 162.00
1578 19.1900 23854.00 23344.60 154.00
1579 19.2000 20962.00 20963.50 145.00
1580 19.2100 18308.00 18586.20 135.00
1581 19.2200 16180.00 16561.20 127.00
1582 19.2300 14903.00 15056.20 122.00
1583 19.2400 14133.00 14132.40 119.00
1584 19.2500 13706.00 13792.30 117.00
1585 19.2600 13923.00 14007.40 118.00
1586 19.2700 14602.00 14732.40 121.00
1587 19.2800 15766.00 15907.40 126.00
1588 19.2900 17492.00 17445.90 132.00
1589 19.3000 19397.00 19211.50 139.00
1590 19.3100 21241.00 20979.20 146.00
1591 19.3200 23000.00 22413.80 152.00
1592 19.3300 23728.00 23123.70 154.00
1593 19.3400 23378.00 22853.90 153.00
1594 19.3500 22011.00 21667.60 148.00
1595 19.3600 19861.00 19891.80 141.00
1596 19.3700 17467.00 17901.10 132.00
1597 19.3800 15491.00 15970.10 124.00
1598 19.3900 13736.00 14256.00 117.00
1599 19.4000 12427.00 12829.50 111.00
1600 19.4100 11560.00 11705.10 108.00
1601 19.4200 10829.00 10863.50 104.00
1602 19.4300 10220.00 10265.80 101.00
1603 19.4400 9906.00 9867.09 100.00
1604 19.4500 9659.00 9624.13 98.00
1605 19.4600 9532.00 9500.66 98.00
1606 19.4700 9560.00 9468.82 98.00
1607 19.4800 9562.00 9508.49 98.00
1608 19.4900 9539.00 9605.48 98.00
1609 19.5000 9748.00 9749.21 99.00
1610 19.5100 9874.00 9930.98 99.00
1611 19.5200 10132.00 10142.10 101.00
1612 19.5300 10415.00 10373.20 102.00
1613 19.5400 10772.00 10611.40 104.00
1614 19.5500 10929.00 10845.60 105.00
1615 19.5600 11180.00 11058.50 106.00
1616 19.5700 11349.00 11233.90 107.00
1617 19.5800 11531.00 11356.80 107.00
1618 19.5900 11583.00 11417.90 108.00
1619 19.6000 11473.00 11416.10 107.00
1620 19.6100 11265.00 11356.50 106.00
1621 19.6200 11046.00 11256.80 105.00
1622 19.6300 10807.00 11128.60 104.00
1623 19.6400 10681.00 10980.70 103.00
1624 19.6500 10560.00 10811.20 103.00
1625 19.6600 10293.00 10608.60 101.00
1626 19.6700 10052.00 10366.80 100.00
1627 19.6800 9853.00 10098.70 99.00
1628 19.6900 9613.00 9834.18 98.00
1629 19.7000 9446.00 9602.98 97.00
1630 19.7100 9378.00 9427.49 97.00
1631 19.7200 9363.00 9324.64 97.00
1632 19.7300 9375.00 9310.53 97.00
1633 19.7400 9545.00 9403.86 98.00
1634 19.7500 9832.00 9627.42 99.00
1635 19.7600 10145.00 10007.10 101.00
1636 19.7700 10739.00 10568.10 104.00
1637 19.7800 11400.00 11327.90 107.00
1638 19.7900 12312.00 12287.10 111.00
1639 19.8000 13379.00 13408.40 116.00
1640 19.8100 14532.00 14602.10 121.00
1641 19.8200 15654.00 15696.70 125.00
1642 19.8300 16505.00 16460.20 128.00
1643 19.8400 16825.00 16713.80 130.00
1644 19.8500 16451.00 16459.40 128.00
1645 19.8600 15834.00 15858.50 126.00
1646 19.8700 15032.00 15088.00 123.00
1647 19.8800 14314.00 14275.60 120.00
1648 19.8900 13592.00 13521.90 117.00
1649 19.9000 13052.00 12930.50 114.00
1650 19.9100 12611.00 12580.10 112.00
1651 19.9200 12571.00 12556.60 112.00
1652 19.9300 12932.00 12928.00 114.00
1653 19.9400 13675.00 13745.50 117.00
1654 19.9500 15029.00 15025.50 123.00
1655 19.9600 16657.00 16713.70 129.00
1656 19.9700 18563.00 18616.80 136.00
1657 19.9800 20358.00 20317.50 143.00
1658 19.9900 21439.00 21220.50 146.00
1659 20.0000 21370.00 20980.70 146.00
1660 20.0100 20448.00 19883.30 143.00
1661 20.0200 19091.00 18545.50 138.00
1662 20.0300 17915.00 17472.30 134.00
1663 20.0400 17612.00 16971.60 133.00
1664 20.0500 17986.00 17266.30 134.00
1665 20.0600 19262.00 18472.20 139.00
1666 20.0700 21455.00 20571.50 146.00
1667 20.0800 23979.00 23253.20 155.00
1668 20.0900 25728.00 25625.60 160.00
1669 20.1000 26008.00 26221.10 161.00
1670 20.1100 24110.00 24352.20 155.00
1671 20.1200 20797.00 21078.50 144.00
1672 20.1300 17398.00 17745.20 132.00
1673 20.1400 14557.00 15003.00 121.00
1674 20.1500 12567.00 12989.50 112.00
1675 20.1600 11305.00 11609.90 106.00
1676 20.1700 10455.00 10689.80 102.00
1677 20.1800 9911.00 10066.70 100.00
1678 20.1900 9459.00 9625.10 97.00
1679 20.2000 9198.00 9296.83 96.00
1680 20.2100 8914.00 9045.02 94.00
1681 20.2200 8751.00 8850.06 94.00
1682 20.2300 8604.00 8700.23 93.00
1683 20.2400 8514.00 8587.90 92.00
1684 20.2500 8511.00 8507.46 92.00
1685 20.2600 8482.00 8454.82 92.00
1686 20.2700 8376.00 8427.05 92.00
1687 20.2800 8416.00 8422.32 92.00
1688 20.2900 8461.00 8439.96 92.00
1689 20.3000 8520.00 8480.60 92.00
1690 20.3100 8668.00 8546.58 93.00
1691 20.3200 8810.00 8642.93 94.00
1692 20.3300 8909.00 8778.90 94.00
1693 20.3400 9144.00 8969.18 96.00
1694 20.3500 9404.00 9237.96 97.00
1695 20.3600 9853.00 9620.67 99.00
1696 20.3700 10391.00 10164.80 102.00
1697 20.3800 11121.00 10928.10 105.00
1698 20.3900 12045.00 11970.40 110.00
1699 20.4000 13406.00 13342.20 116.00
1700 20.4100 15121.00 15063.30 123.00
1701 20.4200 17297.00 17098.00 132.00
1702 20.4300 19882.00 19311.90 141.00
1703 20.4400 22182.00 21417.50 149.00
1704 20.4500 23727.00 22955.50 154.00
1705 20.4600 24247.00 23458.40 156.00
1706 20.4700 23275.00 22787.30 153.00
1707 20.4800 21277.00 21261.00 146.00
1708 20.4900 19157.00 19385.70 138.00
1709 20.5000 17211.00 17560.50 131.00
1710 20.5100 15601.00 16001.60 125.00
1711 20.5200 14463.00 14793.00 120.00
1712 20.5300 13722.00 13943.60 117.00
1713 20.5400 13282.00 13428.90 115.00
1714 20.5500 13123.00 13208.70 115.00
1715 20.5600 13105.00 13236.20 114.00
1716 20.5700 13270.00 13461.90 115.00
1717 20.5800 13709.00 13837.50 117.00
1718 20.5900 14298.00 14317.00 120.00
1719 20.6000 15015.00 14853.80 123.00
1720 20.6100 15811.00 15398.30 126.00
1721 20.6200 16596.00 15895.50 129.00
1722 20.6300 17017.00 16288.20 130.00
1723 20.6400 17289.00 16524.60 131.00
1724 20.6500 17262.00 16570.30 131.00
1725 20.6600 16921.00 16419.10 130.00
1726 20.6700 16446.00 16094.20 128.00
1727 20.6800 15710.00 15641.10 125.00
1728 20.6900 14914.00 15114.20 122.00
1729 20.7000 14229.00 14565.60 119.00
1730 20.7100 13693.00 14039.00 117.00
1731 20.7200 13212.00 13567.60 115.00
1732 20.7300 12893.00 13174.20 114.00
1733 20.7400 12622.00 12872.60 112.00
1734 20.7500 12454.00 12668.80 112.00
1735 20.7600 12464.00 12560.70 112.00
1736 20.7700 12501.00 12539.60 112.00
1737 20.7800 12685.00 12590.40 113.00
1738 20.7900 12933.00 12693.10 114.00
1739 20.8000 13177.00 12824.00 115.00
1740 20.8100 13325.00 12957.80 115.00
1741 20.8200 13606.00 13067.80 117.00
1742 20.8300 13637.00 13129.80 117.00
1743 20.8400 13713.00 13121.00 117.00
1744 20.8500 13561.00 13024.30 116.00
1745 20.8600 13238.00 12833.40 115.00
1746 20.8700 12713.00 12554.20 113.00
1747 20.8800 12296.00 12203.60 111.00
1748 20.8900 11763.00 11804.50 108.00
1749 20.9000 11272.00 11381.10 106.00
1750 20.9100 10863.00 10954.30 104.00
1751 20.9200 10476.00 10541.30 102.00
1752 20.9300 10036.00 10154.80 100.00
1753 20.9400 9733.00 9803.89 99.00
1754 20.9500 9477.00 9495.00 97.00
1755 20.9600 9288.00 9232.74 96.00
1756 20.9700 9184.00 9020.40 96.00
1757 20.9800 9044.00 8860.48 95.00
1758 20.9900 8974.00 8754.80 95.00
1759 21.0000 8919.00 8704.29 94.00
1760 21.0100 8965.00 8708.42 95.00
1761 21.0200 9022.00 8764.38 95.00
1762 21.0300 9275.00 8865.77 96.00
1763 21.0400 9389.00 9001.01 97.00
1764 21.0500 9458.00 9150.15 97.00
1765 21.0600 9709.00 9285.00 99.00
1766 21.0700 9753.00 9377.89 99.00
1767 21.0800 9788.00 9419.58 99.00
1768 21.0900 9723.00 9428.34 99.00
1769 21.1000 9657.00 9434.05 98.00
1770 21.1100 9576.00 9449.82 98.00
1771 21.1200 9595.00 9450.78 98.00
1772 21.1300 9603.00 9383.93 98.00
1773 21.1400 9428.00 9229.83 97.00
1774 21.1500 9296.00 9037.56 96.00
1775 21.1600 9141.00 8872.48 96.00
1776 21.1700 8983.00 8775.25 95.00
1777 21.1800 9031.00 8767.17 95.00
1778 21.1900 9147.00 8864.89 96.00
1779 21.2000 9416.00 9095.26 97.00
1780 21.2100 9849.00 9494.29 99.00
1781 21.2200 10417.00 10110.30 102.00
1782 21.2300 11089.00 10993.30 105.00
1783 21.2400 12333.00 12174.40 111.00
1784 21.2500 13753.00 13635.60 117.00
1785 21.2600 15363.00 15254.30 124.00
1786 21.2700 16971.00 16726.80 130.00
1787 21.2800 17903.00 17570.20 134.00
1788 21.2900 17766.00 17380.80 133.00
1789 21.3000 16740.00 16279.00 129.00
1790 21.3100 15036.00 14750.60 123.00
1791 21.3200 13451.00 13226.50 116.00
1792 21.3300 12158.00 11929.30 110.00
1793 21.3400 11221.00 10931.90 106.00
1794 21.3500 10468.00 10227.60 102.00
1795 21.3600 9982.00 9773.61 100.00
1796 21.3700 9776.00 9516.90 99.00
1797 21.3800 9670.00 9411.07 98.00
1798 21.3900 9758.00 9425.00 99.00
1799 21.4000 9917.00 9546.18 100.00
1800 21.4100 10084.00 9780.63 100.00
1801 21.4200 10521.00 10152.20 103.00
1802 21.4300 11047.00 10700.90 105.00
1803 21.4400 11822.00 11479.80 109.00
1804 21.4500 12871.00 12548.20 113.00
1805 21.4600 14199.00 13960.50 119.00
1806 21.4700 15902.00 15748.30 126.00
1807 21.4800 17944.00 17900.70 134.00
1808 21.4900 20569.00 20328.80 143.00
1809 21.5000 23266.00 22821.60 153.00
1810 21.5100 25870.00 24991.90 161.00
1811 21.5200 27239.00 26313.80 165.00
1812 21.5300 26933.00 26356.20 164.00
1813 21.5400 25439.00 25096.00 159.00
1814 21.5500 22888.00 22935.00 151.00
1815 21.5600 20018.00 20405.00 141.00
1816 21.5700 17574.00 17916.20 133.00
1817 21.5800 15422.00 15700.70 124.00
1818 21.5900 13688.00 13857.10 117.00
1819 21.6000 12371.00 12399.10 111.00
1820 21.6100 11365.00 11292.90 107.00
1821 21.6200 10659.00 10481.40 103.00
1822 21.6300 10189.00 9897.76 101.00
1823 21.6400 9803.00 9487.45 99.00
1824 21.6500 9430.00 9199.17 97.00
1825 21.6600 9249.00 8996.87 96.00
1826 21.6700 9019.00 8855.51 95.00
1827 21.6800 8925.00 8759.11 94.00
1828 21.6900 8966.00 8698.03 95.00
1829 21.7000 8966.00 8667.27 95.00
1830 21.7100 8897.00 8665.13 94.00
1831 21.7200 8976.00 8692.85 95.00
1832 21.7300 8957.00 8754.64 95.00
1833 21.7400 9114.00 8858.08 95.00
1834 21.7500 9313.00 9014.80 97.00
1835 21.7600 9592.00 9240.62 98.00
1836 21.7700 9757.00 9555.46 99.00
1837 21.7800 10208.00 9981.63 101.00
1838 21.7900 10750.00 10541.50 104.00
1839 21.8000 11495.00 11252.70 107.00
1840 21.8100 12368.00 12119.90 111.00
1841 21.8200 13395.00 13139.80 116.00
1842 21.8300 14628.00 14270.90 121.00
1843 21.8400 15889.00 15432.90 126.00
1844 21.8500 17137.00 16490.20 131.00
1845 21.8600 18020.00 17270.50 134.00
1846 21.8700 18612.00 17632.40 136.00
1847 21.8800 18438.00 17549.20 136.00
1848 21.8900 17762.00 17123.10 133.00
1849 21.9000 17047.00 16524.90 131.00
1850 21.9100 16483.00 15929.20 128.00
1851 21.9200 15913.00 15479.20 126.00
1852 21.9300 15721.00 15279.00 125.00
1853 21.9400 15866.00 15395.70 126.00
1854 21.9500 16217.00 15864.90 127.00
1855 21.9600 16947.00 16692.70 130.00
1856 21.9700 18034.00 17853.80 134.00
1857 21.9800 19367.00 19287.40 139.00
1858 21.9900 21101.00 20884.40 145.00
1859 22.0000 22692.00 22478.90 151.00
1860 22.0100 23937.00 23814.10 155.00
1861 22.0200 24858.00 24625.30 158.00
1862 22.0300 24823.00 24693.90 158.00
1863 22.0400 23863.00 23974.30 154.00
1864 22.0500 22249.00 22614.30 149.00
1865 22.0600 20239.00 20868.60 142.00
1866 22.0700 18120.00 18983.10 135.00
1867 22.0800 16290.00 17141.40 128.00
1868 22.0900 14736.00 15456.20 121.00
1869 22.1000 13387.00 13987.90 116.00
1870 22.1100 12408.00 12758.70 111.00
1871 22.1200 11603.00 11767.20 108.00
1872 22.1300 10892.00 10995.60 104.00
1873 22.1400 10478.00 10419.60 102.00
1874 22.1500 10119.00 10013.40 101.00
1875 22.1600 9937.00 9756.87 100.00
1876 22.1700 9871.00 9640.28 99.00
1877 22.1800 9920.00 9666.46 100.00
1878 22.1900 9973.00 9850.95 100.00
1879 22.2000 10320.00 10217.40 102.00
1880 22.2100 10811.00 10787.90 104.00
1881 22.2200 11564.00 11568.30 108.00
1882 22.2300 12572.00 12523.70 112.00
1883 22.2400 13628.00 13538.70 117.00
1884 22.2500 14408.00 14369.50 120.00
1885 22.2600 14772.00 14688.00 122.00
1886 22.2700 14401.00 14314.30 120.00
1887 22.2800 13462.00 13403.90 116.00
1888 22.2900 12391.00 12282.60 111.00
1889 22.3000 11247.00 11200.30 106.00
1890 22.3100 10241.00 10277.80 101.00
1891 22.3200 9550.00 9548.83 98.00
1892 22.3300 9071.00 9003.47 95.00
1893 22.3400 8690.00 8610.59 93.00
1894 22.3500 8458.00 8333.19 92.00
1895 22.3600 8273.00 8132.89 91.00
1896 22.3700 8099.00 7992.03 90.00
1897 22.3800 7977.00 7887.45 89.00
1898 22.3900 7859.00 7807.10 89.00
1899 22.4000 7819.00 7743.56 88.00
1900 22.4100 7797.00 7692.31 88.00
1901 22.4200 7793.00 7650.47 88.00
1902 22.4300 7664.00 7616.05 88.00
1903 22.4400 7679.00 7587.56 88.00
1904 22.4500 7690.00 7563.79 88.00
1905 22.4600 7638.00 7543.84 87.00
1906 22.4700 7676.00 7527.05 88.00
1907 22.4800 7686.00 7513.10 88.00
1908 22.4900 7597.00 7501.90 87.00
1909 22.5000 7626.00 7493.43 87.00
1910 22.5100 7609.00 7487.70 87.00
1911 22.5200 7577.00 7484.70 87.00
1912 22.5300 7636.00 7484.42 87.00
1913 22.5400 7658.00 7486.86 88.00
1914 22.5500 7585.00 7492.05 87.00
1915 22.5600 7601.00 7500.01 87.00
1916 22.5700 7620.00 7510.84 87.00
1917 22.5800 7602.00 7524.64 87.00
1918 22.5900 7638.00 7541.60 87.00
1919 22.6000 7690.00 7561.95 88.00
1920 22.6100 7578.00 7585.99 87.00
1921 22.6200 7638.00 7614.15 87.00
1922 22.6300 7711.00 7646.94 88.00
1923 22.6400 7821.00 7685.06 88.00
1924 22.6500 7835.00 7728.23 89.00
1925 22.6600 8002.00 7780.18 89.00
1926 22.6700 7944.00 7841.56 89.00
1927 22.6800 8034.00 7915.19 90.00
1928 22.6900 8099.00 8005.33 90.00
1929 22.7000 8265.00 8118.45 91.00
1930 22.7100 8401.00 8263.89 92.00
1931 22.7200 8627.00 8454.62 93.00
1932 22.7300 8759.00 8707.53 94.00
1933 22.7400 9127.00 9042.29 96.00
1934 22.7500 9549.00 9479.75 98.00
1935 22.7600 10121.00 10037.80 101.00
1936 22.7700 10919.00 10727.00 104.00
1937 22.7800 11761.00 11542.20 108.00
1938 22.7900 12731.00 12452.70 113.00
1939 22.8000 13769.00 13384.70 117.00
1940 22.8100 14622.00 14208.20 121.00
1941 22.8200 15317.00 14756.50 124.00
1942 22.8300 15497.00 14911.30 124.00
1943 22.8400 15085.00 14697.20 123.00
1944 22.8500 14406.00 14269.30 120.00
1945 22.8600 13760.00 13810.80 117.00
1946 22.8700 13253.00 13458.90 115.00
1947 22.8800 13016.00 13294.10 114.00
1948 22.8900 13047.00 13354.20 114.00
1949 22.9000 13332.00 13648.90 115.00
1950 22.9100 13786.00 14167.50 117.00
1951 22.9200 14499.00 14883.20 120.00
1952 22.9300 15478.00 15753.60 124.00
1953 22.9400 16545.00 16720.30 129.00
1954 22.9500 17832.00 17705.50 134.00
1955 22.9600 18899.00 18617.90 137.00
1956 22.9700 19780.00 19365.40 141.00
1957 22.9800 20489.00 19874.30 143.00
1958 22.9900 20641.00 20096.00 144.00
1959 23.0000 20416.00 20015.70 143.00
1960 23.0100 19957.00 19656.40 141.00
1961 23.0200 19101.00 19079.90 138.00
1962 23.0300 18122.00 18372.80 135.00
1963 23.0400 17227.00 17627.30 131.00
1964 23.0500 16424.00 16927.60 128.00
1965 23.0600 15996.00 16349.80 126.00
1966 23.0700 15748.00 15932.10 125.00
1967 23.0800 15502.00 15719.20 125.00
1968 23.0900 15381.00 15733.10 124.00
1969 23.1000 15722.00 15978.90 125.00
1970 23.1100 16153.00 16441.80 127.00
1971 23.1200 16961.00 17081.60 130.00
1972 23.1300 17828.00 17825.70 134.00
1973 23.1400 18694.00 18561.50 137.00
1974 23.1500 19224.00 19143.60 139.00
1975 23.1600 19557.00 19424.20 140.00
1976 23.1700 19397.00 19311.40 139.00
1977 23.1800 18871.00 18809.10 137.00
1978 23.1900 18011.00 18003.00 134.00
1979 23.2000 16925.00 17008.70 130.00
1980 23.2100 15729.00 15927.70 125.00
1981 23.2200 14669.00 14836.50 121.00
1982 23.2300 13597.00 13786.30 117.00
1983 23.2400 12684.00 12822.40 113.00
1984 23.2500 11965.00 11967.40 109.00
1985 23.2600 11217.00 11234.50 106.00
1986 23.2700 10645.00 10625.30 103.00
1987 23.2800 10208.00 10135.10 101.00
1988 23.2900 9854.00 9754.85 99.00
1989 23.3000 9596.00 9474.71 98.00
1990 23.3100 9485.00 9285.34 97.00
1991 23.3200 9334.00 9177.74 97.00
1992 23.3300 9210.00 9143.84 96.00
1993 23.3400 9269.00 9173.83 96.00
1994 23.3500 9275.00 9254.59 96.00
1995 23.3600 9502.00 9366.07 97.00
1996 23.3700 9671.00 9477.23 98.00
1997 23.3800 9706.00 9546.87 99.00
1998 23.3900 9699.00 9537.28 98.00
1999 23.4000 9603.00 9437.02 98.00
2000 23.4100 9463.00 9268.91 97.00
2001 23.4200 9251.00 9072.26 96.00
2002 23.4300 9138.00 8882.13 96.00
2003 23.4400 8929.00 8721.55 94.00
2004 23.4500 8779.00 8604.51 94.00
2005 23.4600 8737.00 8540.74 93.00
2006 23.4700 8753.00 8540.71 94.00
2007 23.4800 8871.00 8620.21 94.00
2008 23.4900 9113.00 8804.42 95.00
2009 23.5000 9418.00 9129.37 97.00
2010 23.5100 9757.00 9638.99 99.00
2011 23.5200 10465.00 10374.10 102.00
2012 23.5300 11278.00 11353.20 106.00
2013 23.5400 12413.00 12535.00 111.00
2014 23.5500 13640.00 13753.20 117.00
2015 23.5600 14471.00 14646.70 120.00
2016 23.5700 14589.00 14787.90 121.00
2017 23.5800 14164.00 14087.00 119.00
2018 23.5900 13160.00 12900.50 115.00
2019 23.6000 11875.00 11644.90 109.00
2020 23.6100 10843.00 10549.30 104.00
2021 23.6200 9971.00 9687.74 100.00
2022 23.6300 9257.00 9054.70 96.00
2023 23.6400 8796.00 8614.39 94.00
2024 23.6500 8553.00 8312.06 92.00
2025 23.6600 8285.00 8106.70 91.00
2026 23.6700 8171.00 7964.68 90.00
2027 23.6800 8042.00 7863.22 90.00
2028 23.6900 7899.00 7786.54 89.00
2029 23.7000 7865.00 7729.94 89.00
2030 23.7100 7842.00 7686.74 89.00
2031 23.7200 7789.00 7653.96 88.00
2032 23.7300 7826.00 7629.66 88.00
2033 23.7400 7834.00 7612.53 89.00
2034 23.7500 7766.00 7601.68 88.00
2035 23.7600 7764.00 7596.50 88.00
2036 23.7700 7799.00 7596.62 88.00
2037 23.7800 7789.00 7601.88 88.00
2038 23.7900 7840.00 7612.32 89.00
2039 23.8000 7833.00 7628.23 89.00
2040 23.8100 7816.00 7650.20 88.00
2041 23.8200 7845.00 7679.24 89.00
2042 23.8300 7928.00 7716.98 89.00
2043 23.8400 7963.00 7765.85 89.00
2044 23.8500 8051.00 7829.39 90.00
2045 23.8600 8119.00 7912.32 90.00
2046 23.8700 8166.00 8020.66 90.00
2047 23.8800 8299.00 8161.31 91.00
2048 23.8900 8505.00 8341.56 92.00
2049 23.9000 8706.00 8567.87 93.00
2050 23.9100 8982.00 8844.52 95.00
2051 23.9200 9329.00 9171.16 97.00
2052 23.9300 9670.00 9539.87 98.00
2053 23.9400 10138.00 9929.68 101.00
2054 23.9500 10578.00 10302.90 103.00
2055 23.9600 10956.00 10610.90 105.00
2056 23.9700 11284.00 10819.80 106.00
2057 23.9800 11387.00 10939.90 107.00
2058 23.9900 11351.00 11025.30 107.00
2059 24.0000 11419.00 11142.80 107.00
2060 24.0100 11526.00 11345.50 107.00
2061 24.0200 11812.00 11664.80 109.00
2062 24.0300 12270.00 12113.40 111.00
2063 24.0400 12900.00 12686.80 114.00
2064 24.0500 13467.00 13363.40 116.00
2065 24.0600 14317.00 14102.80 120.00
2066 24.0700 15115.00 14845.10 123.00
2067 24.0800 15824.00 15513.80 126.00
2068 24.0900 16371.00 16026.50 128.00
2069 24.1000 16575.00 16312.20 129.00
2070 24.1100 16315.00 16329.00 128.00
2071 24.1200 16025.00 16079.00 127.00
2072 24.1300 15406.00 15609.90 124.00
2073 24.1400 14672.00 15001.50 121.00
2074 24.1500 14051.00 14339.30 119.00
2075 24.1600 13376.00 13692.70 116.00
2076 24.1700 12708.00 13107.10 113.00
2077 24.1800 12316.00 12604.30 111.00
2078 24.1900 12005.00 12188.80 110.00
2079 24.2000 11812.00 11851.90 109.00
2080 24.2100 11673.00 11578.10 108.00
2081 24.2200 11520.00 11351.50 107.00
2082 24.2300 11245.00 11161.40 106.00
2083 24.2400 11139.00 11005.90 106.00
2084 24.2500 10986.00 10899.60 105.00
2085 24.2600 10876.00 10833.40 104.00
2086 24.2700 10892.00 10824.00 104.00
2087 24.2800 10930.00 10873.30 105.00
2088 24.2900 11021.00 10973.60 105.00
2089 24.3000 11133.00 11102.50 106.00
2090 24.3100 11343.00 11220.00 107.00
2091 24.3200 11458.00 11275.50 107.00
2092 24.3300 11548.00 11234.60 107.00
2093 24.3400 11340.00 11105.20 106.00
2094 24.3500 11104.00 10935.10 105.00
2095 24.3600 10965.00 10783.40 105.00
2096 24.3700 10870.00 10698.10 104.00
2097 24.3800 10852.00 10713.40 104.00
2098 24.3900 11037.00 10853.80 105.00
2099 24.4000 11275.00 11136.30 106.00
2100 24.4100 11622.00 11582.80 108.00
2101 24.4200 12220.00 12205.80 111.00
2102 24.4300 12944.00 13015.60 114.00
2103 24.4400 13883.00 14017.40 118.00
2104 24.4500 15149.00 15194.90 123.00
2105 24.4600 16515.00 16518.70 129.00
2106 24.4700 17892.00 17925.90 134.00
2107 24.4800 19464.00 19322.10 140.00
2108 24.4900 20842.00 20571.20 144.00
2109 24.5000 21959.00 21519.00 148.00
2110 24.5100 22626.00 22048.70 150.00
2111 24.5200 22797.00 22170.00 151.00
2112 24.5300 22286.00 22053.70 149.00
2113 24.5400 21949.00 21956.50 148.00
2114 24.5500 21789.00 22100.00 148.00
2115 24.5600 22204.00 22583.30 149.00
2116 24.5700 23008.00 23324.10 152.00
2117 24.5800 23771.00 24002.70 154.00
2118 24.5900 23918.00 24115.00 155.00
2119 24.6000 23583.00 23293.00 154.00
2120 24.6100 22119.00 21649.80 149.00
2121 24.6200 20179.00 19644.30 142.00
2122 24.6300 18263.00 17690.60 135.00
2123 24.6400 16464.00 16004.90 128.00
2124 24.6500 14934.00 14650.60 122.00
2125 24.6600 13945.00 13616.20 118.00
2126 24.6700 13186.00 12859.30 115.00
2127 24.6800 12615.00 12332.30 112.00
2128 24.6900 12223.00 11994.20 111.00
2129 24.7000 11960.00 11814.00 109.00
2130 24.7100 11727.00 11768.60 108.00
2131 24.7200 11824.00 11836.60 109.00
2132 24.7300 11929.00 11990.90 109.00
2133 24.7400 12142.00 12186.40 110.00
2134 24.7500 12424.00 12356.70 111.00
2135 24.7600 12540.00 12413.90 112.00
2136 24.7700 12316.00 12286.20 111.00
2137 24.7800 11981.00 11963.60 109.00
2138 24.7900 11493.00 11503.80 107.00
2139 24.8000 10984.00 10989.90 105.00
2140 24.8100 10525.00 10490.40 103.00
2141 24.8200 10044.00 10046.60 100.00
2142 24.8300 9573.00 9678.76 98.00
2143 24.8400 9339.00 9394.08 97.00
2144 24.8500 9162.00 9193.10 96.00
2145 24.8600 9074.00 9073.52 95.00
2146 24.8700 9069.00 9033.27 95.00
2147 24.8800 9101.00 9072.07 95.00
2148 24.8900 9139.00 9192.08 96.00
2149 24.9000 9312.00 9397.35 96.00
2150 24.9100 9561.00 9691.57 98.00
2151 24.9200 9931.00 10075.40 100.00
2152 24.9300 10461.00 10541.80 102.00
2153 24.9400 11047.00 11069.10 105.00
2154 24.9500 11610.00 11611.50 108.00
2155 24.9600 12181.00 12090.10 110.00
2156 24.9700 12635.00 12407.20 112.00
2157 24.9800 12801.00 12485.90 113.00
2158 24.9900 12741.00 12329.10 113.00
2159 25.0000 12356.00 12019.70 111.00
2160 25.0100 11848.00 11667.20 109.00
2161 25.0200 11564.00 11360.90 108.00
2162 25.0300 11245.00 11157.20 106.00
2163 25.0400 11224.00 11087.00 106.00
2164 25.0500 11368.00 11164.40 107.00
2165 25.0600 11570.00 11392.00 108.00
2166 25.0700 11876.00 11764.10 109.00
2167 25.0800 12433.00 12266.30 112.00
2168 25.0900 13130.00 12875.60 115.00
2169 25.1000 13928.00 13556.80 118.00
2170 25.1100 14767.00 14259.90 122.00
2171 25.1200 15608.00 14918.40 125.00
2172 25.1300 16100.00 15455.80 127.00
2173 25.1400 16454.00 15800.80 128.00
2174 25.1500 16450.00 15912.90 128.00
2175 25.1600 16262.00 15804.60 128.00
2176 25.1700 15871.00 15546.20 126.00
2177 25.1800 15371.00 15239.90 124.00
2178 25.1900 14794.00 14977.00 122.00
2179 25.2000 14558.00 14817.80 121.00
2180 25.2100 14475.00 14803.80 120.00
2181 25.2200 14608.00 14971.30 121.00
2182 25.2300 15002.00 15337.50 122.00
2183 25.2400 15456.00 15886.80 124.00
2184 25.2500 16124.00 16568.00 127.00
2185 25.2600 16935.00 17292.30 130.00
2186 25.2700 17670.00 17934.70 133.00
2187 25.2800 18226.00 18351.70 135.00
2188 25.2900 18406.00 18422.50 136.00
2189 25.3000 18099.00 18101.10 135.00
2190 25.3100 17333.00 17435.90 132.00
2191 25.3200 16263.00 16539.50 128.00
2192 25.3300 15105.00 15536.20 123.00
2193 25.3400 14060.00 14524.30 119.00
2194 25.3500 13152.00 13563.40 115.00
2195 25.3600 12308.00 12679.80 111.00
2196 25.3700 11495.00 11878.00 107.00
2197 25.3800 10933.00 11156.90 105.00
2198 25.3900 10351.00 10519.00 102.00
2199 25.4000 9889.00 9968.77 99.00
2200 25.4100 9418.00 9506.73 97.00
2201 25.4200 9117.00 9127.52 95.00
2202 25.4300 8722.00 8820.62 93.00
2203 25.4400 8567.00 8575.65 93.00
2204 25.4500 8309.00 8380.58 91.00
2205 25.4600 8161.00 8224.03 90.00
2206 25.4700 8048.00 8099.69 90.00
2207 25.4800 7980.00 7999.30 89.00
2208 25.4900 7818.00 7917.35 88.00
2209 25.5000 7758.00 7849.66 88.00
2210 25.5100 7716.00 7793.16 88.00
2211 25.5200 7694.00 7745.63 88.00
2212 25.5300 7655.00 7705.49 87.00
2213 25.5400 7642.00 7671.61 87.00
2214 25.5500 7546.00 7643.18 87.00
2215 25.5600 7552.00 7619.63 87.00
2216 25.5700 7461.00 7600.52 86.00
2217 25.5800 7537.00 7585.55 87.00
2218 25.5900 7516.00 7571.77 87.00
2219 25.6000 7496.00 7564.36 87.00
2220 25.6100 7491.00 7560.84 87.00
2221 25.6200 7517.00 7561.15 87.00
2222 25.6300 7504.00 7565.58 87.00
2223 25.6400 7551.00 7574.72 87.00
2224 25.6500 7568.00 7589.65 87.00
2225 25.6600 7580.00 7612.11 87.00
2226 25.6700 7612.00 7644.50 87.00
2227 25.6800 7663.00 7690.02 88.00
2228 25.6900 7728.00 7752.45 88.00
2229 25.7000 7826.00 7835.98 88.00
2230 25.7100 7955.00 7944.74 89.00
2231 25.7200 8101.00 8082.08 90.00
2232 25.7300 8178.00 8249.90 90.00
2233 25.7400 8404.00 8447.10 92.00
2234 25.7500 8601.00 8667.96 93.00
2235 25.7600 8775.00 8899.13 94.00
2236 25.7700 9124.00 9117.55 96.00
2237 25.7800 9242.00 9292.07 96.00
2238 25.7900 9261.00 9394.71 96.00
2239 25.8000 9324.00 9416.20 97.00
2240 25.8100 9262.00 9369.94 96.00
2241 25.8200 9165.00 9284.58 96.00
2242 25.8300 9087.00 9182.92 95.00
2243 25.8400 8915.00 9081.64 94.00
2244 25.8500 8826.00 8992.95 94.00
2245 25.8600 8784.00 8928.08 94.00
2246 25.8700 8774.00 8899.86 94.00
2247 25.8800 8816.00 8924.59 94.00
2248 25.8900 8908.00 9015.33 94.00
2249 25.9000 9074.00 9186.81 95.00
2250 25.9100 9205.00 9453.14 96.00
2251 25.9200 9607.00 9826.85 98.00
2252 25.9300 9974.00 10316.20 100.00
2253 25.9400 10589.00 10922.10 103.00
2254 25.9500 11367.00 11632.00 107.00
2255 25.9600 12222.00 12410.80 111.00
2256 25.9700 12931.00 13189.10 114.00
2257 25.9800 13789.00 13859.60 117.00
2258 25.9900 14300.00 14302.60 120.00
2259 26.0000 14432.00 14448.40 120.00
2260 26.0100 14261.00 14323.40 119.00
2261 26.0200 13837.00 13997.50 118.00
2262 26.0300 13217.00 13535.00 115.00
2263 26.0400 12698.00 12955.90 113.00
2264 26.0500 12056.00 12301.20 110.00
2265 26.0600 11496.00 11659.20 107.00
2266 26.0700 11061.00 11116.80 105.00
2267 26.0800 10662.00 10722.40 103.00
2268 26.0900 10416.00 10491.10 102.00
2269 26.1000 10425.00 10420.50 102.00
2270 26.1100 10489.00 10497.70 102.00
2271 26.1200 10685.00 10700.80 103.00
2272 26.1300 11022.00 10995.00 105.00
2273 26.1400 11397.00 11322.10 107.00
2274 26.1500 11623.00 11593.00 108.00
2275 26.1600 11692.00 11700.10 108.00
2276 26.1700 11481.00 11574.80 107.00
2277 26.1800 11178.00 11246.20 106.00
2278 26.1900 10768.00 10818.30 104.00
2279 26.2000 10294.00 10392.70 101.00
2280 26.2100 9847.00 10029.50 99.00
2281 26.2200 9572.00 9753.49 98.00
2282 26.2300 9372.00 9567.52 97.00
2283 26.2400 9284.00 9463.21 96.00
2284 26.2500 9371.00 9425.84 97.00
2285 26.2600 9432.00 9437.14 97.00
2286 26.2700 9413.00 9476.98 97.00
2287 26.2800 9582.00 9524.21 98.00
2288 26.2900 9642.00 9557.81 98.00
2289 26.3000 9693.00 9559.30 98.00
2290 26.3100 9663.00 9516.17 98.00
2291 26.3200 9528.00 9424.79 98.00
2292 26.3300 9315.00 9290.63 97.00
2293 26.3400 9089.00 9125.30 95.00
2294 26.3500 8824.00 8942.54 94.00
2295 26.3600 8597.00 8754.67 93.00
2296 26.3700 8433.00 8571.41 92.00
2297 26.3800 8283.00 8399.35 91.00
2298 26.3900 8045.00 8242.76 90.00
2299 26.4000 7965.00 8103.82 89.00
2300 26.4100 7851.00 7983.40 89.00
2301 26.4200 7808.00 7881.19 88.00
2302 26.4300 7774.00 7796.17 88.00
2303 26.4400 7670.00 7726.77 88.00
2304 26.4500 7582.00 7671.07 87.00
2305 26.4600 7575.00 7626.82 87.00
2306 26.4700 7550.00 7592.64 87.00
2307 26.4800 7544.00 7566.54 87.00
2308 26.4900 7576.00 7547.16 87.00
2309 26.5000 7487.00 7533.63 87.00
2310 26.5100 7501.00 7525.59 87.00
2311 26.5200 7533.00 7523.29 87.00
2312 26.5300 7510.00 7527.56 87.00
2313 26.5400 7502.00 7539.77 87.00
2314 26.5500 7555.00 7566.35 87.00
2315 26.5600 7573.00 7600.18 87.00
2316 26.5700 7542.00 7647.90 87.00
2317 26.5800 7618.00 7711.13 87.00
2318 26.5900 7734.00 7790.66 88.00
2319 26.6000 7787.00 7885.72 88.00
2320 26.6100 7994.00 7993.07 89.00
2321 26.6200 8079.00 8105.56 90.00
2322 26.6300 8154.00 8210.66 90.00
2323 26.6400 8234.00 8290.49 91.00
2324 26.6500 8269.00 8326.51 91.00
2325 26.6600 8243.00 8308.38 91.00
2326 26.6700 8262.00 8240.55 91.00
2327 26.6800 8122.00 8139.18 90.00
2328 26.6900 7924.00 8023.22 89.00
2329 26.7000 7848.00 7907.52 89.00
2330 26.7100 7747.00 7801.40 88.00
2331 26.7200 7637.00 7709.62 87.00
2332 26.7300 7570.00 7633.94 87.00
2333 26.7400 7549.00 7574.25 87.00
2334 26.7500 7464.00 7529.35 86.00
2335 26.7600 7417.00 7497.42 86.00
2336 26.7700 7472.00 7476.48 86.00
2337 26.7800 7457.00 7464.62 86.00
2338 26.7900 7494.00 7460.21 87.00
2339 26.8000 7479.00 7461.92 86.00
2340 26.8100 7480.00 7468.94 86.00
2341 26.8200 7498.00 7480.67 87.00
2342 26.8300 7510.00 7495.35 87.00
2343 26.8400 7506.00 7516.04 87.00
2344 26.8500 7550.00 7541.50 87.00
2345 26.8600 7565.00 7572.26 87.00
2346 26.8700 7581.00 7609.17 87.00
2347 26.8800 7634.00 7653.40 87.00
2348 26.8900 7658.00 7706.52 88.00
2349 26.9000 7709.00 7770.49 88.00
2350 26.9100 7848.00 7847.59 89.00
2351 26.9200 7912.00 7940.36 89.00
2352 26.9300 7967.00 8051.46 89.00
2353 26.9400 8110.00 8183.22 90.00
2354 26.9500 8278.00 8337.04 91.00
2355 26.9600 8467.00 8512.22 92.00
2356 26.9700 8688.00 8706.75 93.00
2357 26.9800 8938.00 8923.02 95.00
2358 26.9900 9059.00 9175.09 95.00
2359 27.0000 9386.00 9488.00 97.00
2360 27.0100 9760.00 9888.06 99.00
2361 27.0200 10176.00 10395.70 101.00
2362 27.0300 10867.00 11021.30 104.00
2363 27.0400 11609.00 11762.00 108.00
2364 27.0500 12505.00 12594.00 112.00
2365 27.0600 13518.00 13460.30 116.00
2366 27.0700 14414.00 14259.70 120.00
2367 27.0800 15106.00 14849.90 123.00
2368 27.0900 15510.00 15099.00 125.00
2369 27.1000 15292.00 14962.90 124.00
2370 27.1100 14710.00 14512.70 121.00
2371 27.1200 14008.00 13879.30 118.00
2372 27.1300 13245.00 13184.80 115.00
2373 27.1400 12449.00 12513.70 112.00
2374 27.1500 11816.00 11916.60 109.00
2375 27.1600 11313.00 11419.80 106.00
2376 27.1700 10900.00 11033.10 104.00
2377 27.1800 10674.00 10754.00 103.00
2378 27.1900 10531.00 10572.70 103.00
2379 27.2000 10424.00 10473.40 102.00
2380 27.2100 10500.00 10444.60 102.00
2381 27.2200 10521.00 10468.30 103.00
2382 27.2300 10517.00 10530.80 103.00
2383 27.2400 10647.00 10622.90 103.00
2384 27.2500 10661.00 10741.00 103.00
2385 27.2600 10755.00 10886.90 104.00
2386 27.2700 10950.00 11065.80 105.00
2387 27.2800 11088.00 11284.10 105.00
2388 27.2900 11235.00 11547.20 106.00
2389 27.3000 11564.00 11859.30 108.00
2390 27.3100 11894.00 12223.10 109.00
2391 27.3200 12338.00 12640.50 111.00
2392 27.3300 12928.00 13112.90 114.00
2393 27.3400 13617.00 13640.80 117.00
2394 27.3500 14077.00 14224.60 119.00
2395 27.3600 14801.00 14863.00 122.00
2396 27.3700 15610.00 15553.10 125.00
2397 27.3800 16468.00 16287.60 128.00
2398 27.3900 17314.00 17054.70 132.00
2399 27.4000 18242.00 17836.00 135.00
2400 27.4100 18728.00 18602.80 137.00
2401 27.4200 19382.00 19311.40 139.00
2402 27.4300 19782.00 19892.40 141.00
2403 27.4400 19946.00 20249.10 141.00
2404 27.4500 19959.00 20272.50 141.00
2405 27.4600 19435.00 19896.80 139.00
2406 27.4700 18375.00 19150.10 136.00
2407 27.4800 17265.00 18144.50 131.00
2408 27.4900 16021.00 17017.50 127.00
2409 27.5000 14872.00 15879.70 122.00
2410 27.5100 13834.00 14802.20 118.00
2411 27.5200 12865.00 13822.90 113.00
2412 27.5300 12060.00 12958.50 110.00
2413 27.5400 11419.00 12212.00 107.00
2414 27.5500 10893.00 11578.70 104.00
2415 27.5600 10445.00 11049.60 102.00
2416 27.5700 10174.00 10613.60 101.00
2417 27.5800 9877.00 10260.90 99.00
2418 27.5900 9676.00 9983.04 98.00
2419 27.6000 9537.00 9774.40 98.00
2420 27.6100 9436.00 9631.78 97.00
2421 27.6200 9453.00 9554.56 97.00
2422 27.6300 9510.00 9542.24 98.00
2423 27.6400 9549.00 9600.45 98.00
2424 27.6500 9605.00 9729.82 98.00
2425 27.6600 9910.00 9931.36 100.00
2426 27.6700 10174.00 10203.30 101.00
2427 27.6800 10555.00 10538.40 103.00
2428 27.6900 10984.00 10920.60 105.00
2429 27.7000 11421.00 11320.00 107.00
2430 27.7100 11731.00 11691.30 108.00
2431 27.7200 12062.00 11980.70 110.00
2432 27.7300 12193.00 12148.70 110.00
2433 27.7400 12165.00 12192.00 110.00
2434 27.7500 12094.00 12145.80 110.00
2435 27.7600 11970.00 12058.70 109.00
2436 27.7700 11784.00 11965.10 109.00
2437 27.7800 11769.00 11867.80 108.00
2438 27.7900 11661.00 11746.10 108.00
2439 27.8000 11559.00 11564.30 108.00
2440 27.8100 11358.00 11306.70 107.00
2441 27.8200 11004.00 10991.60 105.00
2442 27.8300 10543.00 10660.80 103.00
2443 27.8400 10262.00 10356.10 101.00
2444 27.8500 9992.00 10106.20 100.00
2445 27.8600 9820.00 9924.34 99.00
2446 27.8700 9723.00 9816.08 99.00
2447 27.8800 9673.00 9778.26 98.00
2448 27.8900 9642.00 9804.48 98.00
2449 27.9000 9764.00 9885.60 99.00
2450 27.9100 9849.00 10010.30 99.00
2451 27.9200 10035.00 10164.70 100.00
2452 27.9300 10321.00 10334.70 102.00
2453 27.9400 10491.00 10502.30 102.00
2454 27.9500 10603.00 10655.50 103.00
2455 27.9600 10732.00 10761.30 104.00
2456 27.9700 10763.00 10811.10 104.00
2457 27.9800 10745.00 10796.80 104.00
2458 27.9900 10626.00 10719.10 103.00
2459 28.0000 10487.00 10587.90 102.00
2460 28.0100 10146.00 10418.70 101.00
2461 28.0200 9953.00 10228.70 100.00
2462 28.0300 9720.00 10033.50 99.00
2463 28.0400 9455.00 9845.83 97.00
2464 28.0500 9378.00 9674.47 97.00
2465 28.0600 9282.00 9525.17 96.00
2466 28.0700 9121.00 9400.55 96.00
2467 28.0800 9100.00 9301.20 95.00
2468 28.0900 9048.00 9226.44 95.00
2469 28.1000 9036.00 9174.93 95.00
2470 28.1100 9051.00 9148.61 95.00
2471 28.1200 9022.00 9148.14 95.00
2472 28.1300 8912.00 9174.87 94.00
2473 28.1400 8962.00 9228.50 95.00
2474 28.1500 9036.00 9305.48 95.00
2475 28.1600 9155.00 9397.62 96.00
2476 28.1700 9248.00 9490.31 96.00
2477 28.1800 9350.00 9565.88 97.00
2478 28.1900 9389.00 9602.42 97.00
2479 28.2000 9354.00 9583.49 97.00
2480 28.2100 9227.00 9504.47 96.00
2481 28.2200 9177.00 9374.82 96.00
2482 28.2300 8974.00 9213.38 95.00
2483 28.2400 8836.00 9041.08 94.00
2484 28.2500 8584.00 8875.85 93.00
2485 28.2600 8507.00 8730.90 92.00
2486 28.2700 8387.00 8615.48 92.00
2487 28.2800 8320.00 8535.96 91.00
2488 28.2900 8323.00 8496.94 91.00
2489 28.3000 8306.00 8501.80 91.00
2490 28.3100 8336.00 8553.08 91.00
2491 28.3200 8472.00 8652.55 92.00
2492 28.3300 8586.00 8800.98 93.00
2493 28.3400 8781.00 8997.45 94.00
2494 28.3500 9095.00 9238.56 95.00
2495 28.3600 9396.00 9516.32 97.00
2496 28.3700 9684.00 9817.54 98.00
2497 28.3800 10035.00 10118.90 100.00
2498 28.3900 10326.00 10386.50 102.00
2499 28.4000 10544.00 10577.70 103.00
2500 28.4100 10613.00 10654.20 103.00
2501 28.4200 10561.00 10588.70 103.00
2502 28.4300 10222.00 10397.40 101.00
2503 28.4400 9922.00 10121.60 100.00
2504 28.4500 9561.00 9809.69 98.00
2505 28.4600 9194.00 9501.58 96.00
2506 28.4700 8966.00 9223.07 95.00
2507 28.4800 8715.00 8989.17 93.00
2508 28.4900 8503.00 8807.43 92.00
2509 28.5000 8399.00 8679.26 92.00
2510 28.5100 8351.00 8600.11 91.00
2511 28.5200 8369.00 8557.33 91.00
2512 28.5300 8435.00 8529.89 92.00
2513 28.5400 8317.00 8497.81 91.00
2514 28.5500 8313.00 8459.47 91.00
2515 28.5600 8290.00 8432.79 91.00
2516 28.5700 8295.00 8438.00 91.00
2517 28.5800 8351.00 8490.35 91.00
2518 28.5900 8478.00 8596.10 92.00
2519 28.6000 8634.00 8757.94 93.00
2520 28.6100 8788.00 8975.20 94.00
2521 28.6200 9087.00 9243.53 95.00
2522 28.6300 9418.00 9553.13 97.00
2523 28.6400 9822.00 9886.09 99.00
2524 28.6500 10303.00 10212.80 102.00
2525 28.6600 10677.00 10490.80 103.00
2526 28.6700 10816.00 10671.10 104.00
2527 28.6800 10854.00 10716.80 104.00
2528 28.6900 10560.00 10622.00 103.00
2529 28.7000 10266.00 10416.10 101.00
2530 28.7100 9961.00 10147.20 100.00
2531 28.7200 9627.00 9861.68 98.00
2532 28.7300 9266.00 9593.02 96.00
2533 28.7400 9066.00 9361.02 95.00
2534 28.7500 8934.00 9174.60 95.00
2535 28.7600 8814.00 9034.67 94.00
2536 28.7700 8808.00 8936.48 94.00
2537 28.7800 8811.00 8871.45 94.00
2538 28.7900 8745.00 8830.31 94.00
2539 28.8000 8686.00 8807.97 93.00
2540 28.8100 8655.00 8803.49 93.00
2541 28.8200 8600.00 8821.83 93.00
2542 28.8300 8706.00 8868.27 93.00
2543 28.8400 8760.00 8947.90 94.00
2544 28.8500 8830.00 9064.16 94.00
2545 28.8600 8960.00 9218.58 95.00
2546 28.8700 9118.00 9414.45 95.00
2547 28.8800 9367.00 9643.08 97.00
2548 28.8900 9670.00 9906.52 98.00
2549 28.9000 9969.00 10203.50 100.00
2550 28.9100 10280.00 10531.60 101.00
2551 28.9200 10661.00 10883.90 103.00
2552 28.9300 11053.00 11246.50 105.00
2553 28.9400 11427.00 11596.60 107.00
2554 28.9500 11927.00 11903.30 109.00
2555 28.9600 12170.00 12130.30 110.00
2556 28.9700 12252.00 12244.80 111.00
2557 28.9800 12180.00 12227.60 110.00
2558 28.9900 11942.00 12081.30 109.00
2559 29.0000 11647.00 11830.00 108.00
2560 29.0100 11336.00 11511.40 106.00
2561 29.0200 10863.00 11165.30 104.00
2562 29.0300 10467.00 10826.20 102.00
2563 29.0400 10094.00 10519.50 100.00
2564 29.0500 9895.00 10262.10 99.00
2565 29.0600 9711.00 10064.20 99.00
2566 29.0700 9681.00 9930.29 98.00
2567 29.0800 9640.00 9860.20 98.00
2568 29.0900 9637.00 9849.36 98.00
2569 29.1000 9704.00 9889.69 99.00
2570 29.1100 9838.00 9967.58 99.00
2571 29.1200 9970.00 10064.90 100.00
2572 29.1300 10124.00 10157.50 101.00
2573 29.1400 10200.00 10225.50 101.00
2574 29.1500 10196.00 10247.50 101.00
2575 29.1600 10216.00 10212.60 101.00
2576 29.1700 10080.00 10120.30 100.00
2577 29.1800 9896.00 9978.02 99.00
2578 29.1900 9709.00 9796.86 99.00
2579 29.2000 9518.00 9589.06 98.00
2580 29.2100 9197.00 9366.95 96.00
2581 29.2200 8994.00 9141.83 95.00
2582 29.2300 8762.00 8921.13 94.00
2583 29.2400 8558.00 8716.31 93.00
2584 29.2500 8393.00 8530.25 92.00
2585 29.2600 8243.00 8365.75 91.00
2586 29.2700 8096.00 8223.92 90.00
2587 29.2800 7986.00 8104.76 89.00
2588 29.2900 7904.00 8008.22 89.00
2589 29.3000 7813.00 7933.60 88.00
2590 29.3100 7817.00 7880.62 88.00
2591 29.3200 7838.00 7849.30 89.00
2592 29.3300 7763.00 7839.88 88.00
2593 29.3400 7745.00 7852.60 88.00
2594 29.3500 7801.00 7886.88 88.00
2595 29.3600 7798.00 7941.37 88.00
2596 29.3700 7943.00 8010.64 89.00
2597 29.3800 7977.00 8083.37 89.00
2598 29.3900 7995.00 8140.61 89.00
2599 29.4000 8055.00 8161.33 90.00
2600 29.4100 8021.00 8136.29 90.00
2601 29.4200 7973.00 8076.12 89.00
2602 29.4300 7919.00 8001.80 89.00
2603 29.4400 7872.00 7931.02 89.00
2604 29.4500 7754.00 7873.85 88.00
2605 29.4600 7771.00 7834.45 88.00
2606 29.4700 7742.00 7813.94 88.00
2607 29.4800 7801.00 7812.15 88.00
2608 29.4900 7864.00 7828.60 89.00
2609 29.5000 7883.00 7863.14 89.00
2610 29.5100 7874.00 7916.26 89.00
2611 29.5200 7979.00 7989.29 89.00
2612 29.5300 8071.00 8084.27 90.00
2613 29.5400 8171.00 8203.79 90.00
2614 29.5500 8396.00 8350.43 92.00
2615 29.5600 8603.00 8526.50 93.00
2616 29.5700 8708.00 8733.18 93.00
2617 29.5800 8955.00 8969.51 95.00
2618 29.5900 9198.00 9230.78 96.00
2619 29.6000 9567.00 9506.69 98.00
2620 29.6100 9873.00 9781.08 99.00
2621 29.6200 10155.00 10036.10 101.00
2622 29.6300 10312.00 10262.60 102.00
2623 29.6400 10485.00 10467.70 102.00
2624 29.6500 10624.00 10672.30 103.00
2625 29.6600 10874.00 10900.00 104.00
2626 29.6700 11174.00 11167.90 106.00
2627 29.6800 11548.00 11483.00 107.00
2628 29.6900 11828.00 11842.60 109.00
2629 29.7000 12249.00 12234.90 111.00
2630 29.7100 12649.00 12638.60 112.00
2631 29.7200 13051.00 13026.30 114.00
2632 29.7300 13510.00 13372.90 116.00
2633 29.7400 13783.00 13663.80 117.00
2634 29.7500 13852.00 13898.00 118.00
2635 29.7600 14090.00 14080.20 119.00
2636 29.7700 14241.00 14214.00 119.00
2637 29.7800 14302.00 14300.30 120.00
2638 29.7900 14392.00 14343.50 120.00
2639 29.8000 14336.00 14348.20 120.00
2640 29.8100 14199.00 14326.50 119.00
2641 29.8200 14133.00 14288.00 119.00
2642 29.8300 14095.00 14234.80 119.00
2643 29.8400 14012.00 14158.00 118.00
2644 29.8500 13990.00 14037.20 118.00
2645 29.8600 13815.00 13846.90 118.00
2646 29.8700 13377.00 13566.30 116.00
2647 29.8800 13001.00 13189.30 114.00
2648 29.8900 12529.00 12729.00 112.00
2649 29.9000 11959.00 12212.00 109.00
2650 29.9100 11445.00 11672.10 107.00
2651 29.9200 10843.00 11140.00 104.00
2652 29.9300 10311.00 10639.60 102.00
2653 29.9400 9922.00 10185.70 100.00
2654 29.9500 9512.00 9786.39 98.00
2655 29.9600 9202.00 9443.46 96.00
2656 29.9700 9083.00 9155.52 95.00
2657 29.9800 8828.00 8918.33 94.00
2658 29.9900 8636.00 8726.25 93.00
2659 30.0000 8556.00 8572.90 92.00
2660 30.0100 8414.00 8451.77 92.00
2661 30.0200 8333.00 8356.97 91.00
2662 30.0300 8274.00 8283.23 91.00
2663 30.0400 8217.00 8226.35 91.00
2664 30.0500 8102.00 8183.04 90.00
2665 30.0600 8102.00 8150.91 90.00
2666 30.0700 8046.00 8127.92 90.00
2667 30.0800 8069.00 8113.08 90.00
2668 30.0900 8064.00 8105.04 90.00
2669 30.1000 8062.00 8102.69 90.00
2670 30.1100 7983.00 8104.86 89.00
2671 30.1200 8061.00 8110.26 90.00
2672 30.1300 8008.00 8117.44 89.00
2673 30.1400 8058.00 8124.76 90.00
2674 30.1500 8071.00 8130.79 90.00
2675 30.1600 8088.00 8134.04 90.00
2676 30.1700 8069.00 8133.54 90.00
2677 30.1800 8070.00 8128.87 90.00
2678 30.1900 8031.00 8120.38 90.00
2679 30.2000 8062.00 8109.09 90.00
2680 30.2100 8051.00 8096.67 90.00
2681 30.2200 8029.00 8085.23 90.00
2682 30.2300 7981.00 8077.28 89.00
2683 30.2400 8019.00 8075.78 90.00
2684 30.2500 8046.00 8084.41 90.00
2685 30.2600 8060.00 8107.94 90.00
2686 30.2700 8227.00 8152.68 91.00
2687 30.2800 8248.00 8225.63 91.00
2688 30.2900 8377.00 8338.72 92.00
2689 30.3000 8486.00 8501.19 92.00
2690 30.3100 8714.00 8721.96 93.00
2691 30.3200 8964.00 9003.93 95.00
2692 30.3300 9292.00 9334.82 96.00
2693 30.3400 9549.00 9674.98 98.00
2694 30.3500 9746.00 9964.89 99.00
2695 30.3600 9952.00 10175.80 100.00
2696 30.3700 10195.00 10347.40 101.00
2697 30.3800 10415.00 10544.50 102.00
2698 30.3900 10782.00 10805.10 104.00
2699 30.4000 11137.00 11131.20 106.00
2700 30.4100 11478.00 11497.30 107.00
2701 30.4200 11973.00 11856.50 109.00
2702 30.4300 12345.00 12147.80 111.00
2703 30.4400 12510.00 12309.00 112.00
2704 30.4500 12379.00 12298.10 111.00
2705 30.4600 12121.00 12112.80 110.00
2706 30.4700 11586.00 11789.30 108.00
2707 30.4800 11121.00 11383.90 105.00
2708 30.4900 10574.00 10950.30 103.00
2709 30.5000 10153.00 10527.90 101.00
2710 30.5100 9843.00 10140.70 99.00
2711 30.5200 9573.00 9800.96 98.00
2712 30.5300 9261.00 9512.07 96.00
2713 30.5400 9133.00 9272.22 96.00
2714 30.5500 9021.00 9076.20 95.00
2715 30.5600 8892.00 8917.06 94.00
2716 30.5700 8811.00 8787.56 94.00
2717 30.5800 8692.00 8681.25 93.00
2718 30.5900 8568.00 8593.44 93.00
2719 30.6000 8576.00 8521.28 93.00
2720 30.6100 8428.00 8463.90 92.00
2721 30.6200 8401.00 8422.06 92.00
2722 30.6300 8433.00 8397.88 92.00
2723 30.6400 8407.00 8394.39 92.00
2724 30.6500 8374.00 8415.28 92.00
2725 30.6600 8405.00 8464.35 92.00
2726 30.6700 8544.00 8544.98 92.00
2727 30.6800 8646.00 8659.31 93.00
2728 30.6900 8817.00 8806.67 94.00
2729 30.7000 8974.00 8981.59 95.00
2730 30.7100 9167.00 9170.33 96.00
2731 30.7200 9321.00 9348.47 97.00
2732 30.7300 9524.00 9484.82 98.00
2733 30.7400 9555.00 9556.02 98.00
2734 30.7500 9649.00 9563.15 98.00
2735 30.7600 9621.00 9531.69 98.00
2736 30.7700 9430.00 9494.91 97.00
2737 30.7800 9469.00 9477.57 97.00
2738 30.7900 9541.00 9495.89 98.00
2739 30.8000 9604.00 9552.92 98.00
2740 30.8100 9844.00 9646.08 99.00
2741 30.8200 9896.00 9769.08 99.00
2742 30.8300 9958.00 9920.02 100.00
2743 30.8400 10098.00 10084.50 100.00
2744 30.8500 10357.00 10267.20 102.00
2745 30.8600 10489.00 10471.10 102.00
2746 30.8700 10736.00 10700.10 104.00
2747 30.8800 10971.00 10955.90 105.00
2748 30.8900 11222.00 11235.30 106.00
2749 30.9000 11536.00 11529.80 107.00
2750 30.9100 11862.00 11826.10 109.00
2751 30.9200 12129.00 12110.60 110.00
2752 30.9300 12494.00 12371.70 112.00
2753 30.9400 12742.00 12605.30 113.00
2754 30.9500 12842.00 12813.10 113.00
2755 30.9600 13094.00 12998.70 114.00
2756 30.9700 13232.00 13163.20 115.00
2757 30.9800 13437.00 13303.40 116.00
2758 30.9900 13627.00 13411.70 117.00
2759 31.0000 13622.00 13477.20 117.00
2760 31.0100 13460.00 13487.60 116.00
2761 31.0200 13380.00 13431.80 116.00
2762 31.0300 13183.00 13302.70 115.00
2763 31.0400 12793.00 13100.30 113.00
2764 31.0500 12579.00 12830.80 112.00
2765 31.0600 12151.00 12506.10 110.00
2766 31.0700 11682.00 12149.40 108.00
2767 31.0800 11400.00 11797.90 107.00
2768 31.0900 11101.00 11491.90 105.00
2769 31.1000 10945.00 11263.50 105.00
2770 31.1100 10913.00 11133.30 104.00
2771 31.1200 10925.00 11110.40 105.00
2772 31.1300 11022.00 11190.40 105.00
2773 31.1400 11156.00 11347.20 106.00
2774 31.1500 11354.00 11521.20 107.00
2775 31.1600 11481.00 11615.90 107.00
2776 31.1700 11492.00 11532.10 107.00
2777 31.1800 11221.00 11238.00 106.00
2778 31.1900 10749.00 10791.60 104.00
2779 31.2000 10286.00 10291.00 101.00
2780 31.2100 9831.00 9813.13 99.00
2781 31.2200 9415.00 9398.05 97.00
2782 31.2300 9142.00 9062.44 96.00
2783 31.2400 8885.00 8798.40 94.00
2784 31.2500 8641.00 8601.81 93.00
2785 31.2600 8529.00 8462.70 92.00
2786 31.2700 8456.00 8371.39 92.00
2787 31.2800 8381.00 8318.33 92.00
2788 31.2900 8372.00 8297.89 91.00
2789 31.3000 8390.00 8304.47 92.00
2790 31.3100 8319.00 8334.72 91.00
2791 31.3200 8456.00 8386.53 92.00
2792 31.3300 8456.00 8458.37 92.00
2793 31.3400 8554.00 8548.94 92.00
2794 31.3500 8685.00 8656.57 93.00
2795 31.3600 8822.00 8778.61 94.00
2796 31.3700 8875.00 8910.27 94.00
2797 31.3800 9031.00 9044.23 95.00
2798 31.3900 9219.00 9170.76 96.00
2799 31.4000 9298.00 9280.15 96.00
2800 31.4100 9424.00 9365.93 97.00
2801 31.4200 9507.00 9426.50 98.00
2802 31.4300 9484.00 9463.20 97.00
2803 31.4400 9462.00 9476.96 97.00
2804 31.4500 9417.00 9466.27 97.00
2805 31.4600 9425.00 9428.24 97.00
2806 31.4700 9395.00 9361.69 97.00
2807 31.4800 9346.00 9269.70 97.00
2808 31.4900 9144.00 9159.96 96.00
2809 31.5000 9054.00 9042.81 95.00
2810 31.5100 8896.00 8928.16 94.00
2811 31.5200 8820.00 8823.77 94.00
2812 31.5300 8767.00 8734.69 94.00
2813 31.5400 8734.00 8663.99 93.00
2814 31.5500 8604.00 8614.04 93.00
2815 31.5600 8633.00 8587.79 93.00
2816 31.5700 8625.00 8589.09 93.00
2817 31.5800 8637.00 8622.05 93.00
2818 31.5900 8760.00 8690.12 94.00
2819 31.6000 8855.00 8796.44 94.00
2820 31.6100 8992.00 8942.54 95.00
2821 31.6200 9187.00 9128.83 96.00
2822 31.6300 9424.00 9353.91 97.00
2823 31.6400 9681.00 9613.38 98.00
2824 31.6500 10002.00 9899.32 100.00
2825 31.6600 10311.00 10198.10 102.00
2826 31.6700 10553.00 10489.30 103.00
2827 31.6800 10841.00 10748.40 104.00
2828 31.6900 10999.00 10950.80 105.00
2829 31.7000 11150.00 11081.10 106.00
2830 31.7100 11225.00 11138.70 106.00
2831 31.7200 11181.00 11135.60 106.00
2832 31.7300 11039.00 11088.40 105.00
2833 31.7400 10971.00 11008.90 105.00
2834 31.7500 10884.00 10902.70 104.00
2835 31.7600 10738.00 10776.00 104.00
2836 31.7700 10690.00 10643.40 103.00
2837 31.7800 10492.00 10528.60 102.00
2838 31.7900 10311.00 10456.60 102.00
2839 31.8000 10354.00 10446.30 102.00
2840 31.8100 10406.00 10506.20 102.00
2841 31.8200 10587.00 10633.30 103.00
2842 31.8300 10793.00 10811.00 104.00
2843 31.8400 11047.00 11005.80 105.00
2844 31.8500 11163.00 11167.40 106.00
2845 31.8600 11232.00 11239.40 106.00
2846 31.8700 11144.00 11186.30 106.00
2847 31.8800 10992.00 11015.50 105.00
2848 31.8900 10769.00 10769.10 104.00
2849 31.9000 10436.00 10496.60 102.00
2850 31.9100 10095.00 10237.50 100.00
2851 31.9200 9885.00 10016.60 99.00
2852 31.9300 9699.00 9847.06 98.00
2853 31.9400 9660.00 9733.03 98.00
2854 31.9500 9650.00 9671.79 98.00
2855 31.9600 9641.00 9654.64 98.00
2856 31.9700 9656.00 9666.78 98.00
2857 31.9800 9755.00 9687.81 99.00
2858 31.9900 9747.00 9693.97 99.00
2859 32.0000 9734.00 9663.48 99.00
2860 32.0100 9705.00 9583.26 99.00
2861 32.0200 9569.00 9452.74 98.00
2862 32.0300 9315.00 9282.26 97.00
2863 32.0400 9074.00 9087.69 95.00
2864 32.0500 8853.00 8885.10 94.00
2865 32.0600 8606.00 8687.85 93.00
2866 32.0700 8490.00 8505.18 92.00
2867 32.0800 8330.00 8342.80 91.00
2868 32.0900 8108.00 8203.59 90.00
2869 32.1000 8018.00 8088.52 90.00
2870 32.1100 7971.00 7997.12 89.00
2871 32.1200 7940.00 7927.99 89.00
2872 32.1300 7927.00 7879.16 89.00
2873 32.1400 7859.00 7848.42 89.00
2874 32.1500 7781.00 7833.35 88.00
2875 32.1600 7828.00 7831.45 88.00
2876 32.1700 7829.00 7840.20 88.00
2877 32.1800 7865.00 7856.99 89.00
2878 32.1900 7938.00 7879.13 89.00
2879 32.2000 7973.00 7903.68 89.00
2880 32.2100 7926.00 7927.55 89.00
2881 32.2200 7985.00 7947.49 89.00
2882 32.2300 8003.00 7960.47 89.00
2883 32.2400 8015.00 7963.95 90.00
2884 32.2500 8052.00 7956.42 90.00
2885 32.2600 8050.00 7937.23 90.00
2886 32.2700 7990.00 7908.31 89.00
2887 32.2800 7904.00 7871.22 89.00
2888 32.2900 7858.00 7828.53 89.00
2889 32.3000 7814.00 7782.78 88.00
2890 32.3100 7812.00 7736.33 88.00
2891 32.3200 7737.00 7691.08 88.00
2892 32.3300 7700.00 7648.63 88.00
2893 32.3400 7672.00 7610.16 88.00
2894 32.3500 7626.00 7576.04 87.00
2895 32.3600 7630.00 7548.22 87.00
2896 32.3700 7601.00 7526.81 87.00
2897 32.3800 7613.00 7512.46 87.00
2898 32.3900 7584.00 7505.97 87.00
2899 32.4000 7631.00 7508.14 87.00
2900 32.4100 7615.00 7519.99 87.00
2901 32.4200 7705.00 7542.73 88.00
2902 32.4300 7787.00 7577.80 88.00
2903 32.4400 7773.00 7626.88 88.00
2904 32.4500 7819.00 7691.71 88.00
2905 32.4600 7915.00 7774.25 89.00
2906 32.4700 7983.00 7876.19 89.00
2907 32.4800 8125.00 7999.01 90.00
2908 32.4900 8243.00 8143.68 91.00
2909 32.5000 8496.00 8310.40 92.00
2910 32.5100 8630.00 8497.85 93.00
2911 32.5200 8810.00 8703.12 94.00
2912 32.5300 9034.00 8920.77 95.00
2913 32.5400 9261.00 9142.00 96.00
2914 32.5500 9598.00 9353.97 98.00
2915 32.5600 9715.00 9539.60 99.00
2916 32.5700 9791.00 9680.21 99.00
2917 32.5800 9844.00 9758.71 99.00
2918 32.5900 9800.00 9767.19 99.00
2919 32.6000 9644.00 9707.83 98.00
2920 32.6100 9545.00 9593.23 98.00
2921 32.6200 9404.00 9441.36 97.00
2922 32.6300 9129.00 9270.49 96.00
2923 32.6400 8975.00 9095.50 95.00
2924 32.6500 8817.00 8927.38 94.00
2925 32.6600 8695.00 8772.98 93.00
2926 32.6700 8611.00 8636.31 93.00
2927 32.6800 8496.00 8519.00 92.00
2928 32.6900 8401.00 8420.92 92.00
2929 32.7000 8382.00 8341.16 92.00
2930 32.7100 8338.00 8277.66 91.00
2931 32.7200 8281.00 8228.01 91.00
2932 32.7300 8270.00 8189.43 91.00
2933 32.7400 8276.00 8159.23 91.00
2934 32.7500 8158.00 8134.79 90.00
2935 32.7600 8216.00 8113.58 91.00
2936 32.7700 8215.00 8094.19 91.00
2937 32.7800 8175.00 8074.95 90.00
2938 32.7900 8144.00 8054.95 90.00
2939 32.8000 8172.00 8033.86 90.00
2940 32.8100 8057.00 8012.02 90.00
2941 32.8200 8077.00 7990.24 90.00
2942 32.8300 7932.00 7969.75 89.00
2943 32.8400 7982.00 7951.86 89.00
2944 32.8500 7951.00 7937.85 89.00
2945 32.8600 7966.00 7928.79 89.00
2946 32.8700 7900.00 7925.51 89.00
2947 32.8800 7956.00 7932.14 89.00
2948 32.8900 7937.00 7941.24 89.00
2949 32.9000 8015.00 7955.86 90.00
2950 32.9100 8052.00 7974.54 90.00
2951 32.9200 8083.00 7994.88 90.00
2952 32.9300 8023.00 8013.41 90.00
2953 32.9400 8067.00 8026.05 90.00
2954 32.9500 8075.00 8028.92 90.00
2955 32.9600 8006.00 8019.68 89.00
2956 32.9700 8068.00 7998.44 90.00
2957 32.9800 8054.00 7967.70 90.00
2958 32.9900 7999.00 7931.33 89.00
2959 33.0000 7889.00 7893.26 89.00
2960 33.0100 7910.00 7857.02 89.00
2961 33.0200 7870.00 7824.82 89.00
2962 33.0300 7910.00 7797.53 89.00
2963 33.0400 7894.00 7776.69 89.00
2964 33.0500 7827.00 7761.78 88.00
2965 33.0600 7845.00 7752.21 89.00
2966 33.0700 7803.00 7746.88 88.00
2967 33.0800 7819.00 7744.07 88.00
2968 33.0900 7853.00 7741.09 89.00
2969 33.1000 7837.00 7735.51 89.00
2970 33.1100 7782.00 7724.77 88.00
2971 33.1200 7748.00 7708.52 88.00
2972 33.1300 7714.00 7688.76 88.00
2973 33.1400 7711.00 7668.60 88.00
2974 33.1500 7714.00 7650.94 88.00
2975 33.1600 7711.00 7637.71 88.00
2976 33.1700 7673.00 7630.01 88.00
2977 33.1800 7761.00 7628.33 88.00
2978 33.1900 7737.00 7632.82 88.00
2979 33.2000 7740.00 7643.51 88.00
2980 33.2100 7801.00 7660.54 88.00
2981 33.2200 7808.00 7684.20 88.00
2982 33.2300 7774.00 7714.69 88.00
2983 33.2400 7840.00 7752.86 89.00
2984 33.2500 7836.00 7798.79 89.00
2985 33.2600 7891.00 7856.66 89.00
2986 33.2700 8005.00 7918.08 89.00
2987 33.2800 8092.00 7986.61 90.00
2988 33.2900 8132.00 8061.34 90.00
2989 33.3000 8257.00 8141.07 91.00
2990 33.3100 8331.00 8224.03 91.00
2991 33.3200 8414.00 8308.17 92.00
2992 33.3300 8605.00 8391.26 93.00
2993 33.3400 8660.00 8471.43 93.00
2994 33.3500 8665.00 8547.49 93.00
2995 33.3600 8718.00 8619.70 93.00
2996 33.3700 8758.00 8689.99 94.00
2997 33.3800 8849.00 8761.65 94.00
2998 33.3900 8892.00 8839.09 94.00
2999 33.4000 8914.00 8926.88 94.00
3000 33.4100 8971.00 9028.69 95.00
3001 33.4200 9100.00 9149.01 95.00
3002 33.4300 9297.00 9288.82 96.00
3003 33.4400 9483.00 9447.62 97.00
3004 33.4500 9654.00 9622.28 98.00
3005 33.4600 9877.00 9806.47 99.00
3006 33.4700 10037.00 9991.93 100.00
3007 33.4800 10254.00 10167.80 101.00
3008 33.4900 10452.00 10322.80 102.00
3009 33.5000 10570.00 10446.80 103.00
3010 33.5100 10761.00 10533.60 104.00
3011 33.5200 10753.00 10585.50 104.00
3012 33.5300 10736.00 10617.60 104.00
3013 33.5400 10808.00 10655.60 104.00
3014 33.5500 10861.00 10729.00 104.00
3015 33.5600 10941.00 10862.60 105.00
3016 33.5700 11201.00 11069.60 106.00
3017 33.5800 11392.00 11342.50 107.00
3018 33.5900 11561.00 11640.40 108.00
3019 33.6000 11726.00 11880.70 108.00
3020 33.6100 11728.00 11970.10 108.00
3021 33.6200 11592.00 11859.60 108.00
3022 33.6300 11425.00 11608.90 107.00
3023 33.6400 11210.00 11317.00 106.00
3024 33.6500 10851.00 11060.10 104.00
3025 33.6600 10824.00 10872.00 104.00
3026 33.6700 10692.00 10755.40 103.00
3027 33.6800 10631.00 10694.50 103.00
3028 33.6900 10697.00 10663.30 103.00
3029 33.7000 10681.00 10633.40 103.00
3030 33.7100 10609.00 10582.00 103.00
3031 33.7200 10554.00 10499.80 103.00
3032 33.7300 10377.00 10393.90 102.00
3033 33.7400 10302.00 10282.70 101.00
3034 33.7500 10214.00 10188.00 101.00
3035 33.7600 10152.00 10130.40 101.00
3036 33.7700 10046.00 10125.80 100.00
3037 33.7800 10179.00 10185.70 101.00
3038 33.7900 10328.00 10317.40 102.00
3039 33.8000 10620.00 10523.50 103.00
3040 33.8100 10996.00 10801.10 105.00
3041 33.8200 11307.00 11140.90 106.00
3042 33.8300 11648.00 11524.40 108.00
3043 33.8400 12111.00 11920.60 110.00
3044 33.8500 12422.00 12284.20 111.00
3045 33.8600 12733.00 12562.00 113.00
3046 33.8700 12933.00 12712.50 114.00
3047 33.8800 12836.00 12729.00 113.00
3048 33.8900 12641.00 12644.30 112.00
3049 33.9000 12443.00 12510.80 112.00
3050 33.9100 12380.00 12375.40 111.00
3051 33.9200 12276.00 12267.40 111.00
3052 33.9300 12379.00 12196.90 111.00
3053 33.9400 12434.00 12159.10 112.00
3054 33.9500 12410.00 12138.30 111.00
3055 33.9600 12443.00 12110.90 112.00
3056 33.9700 12362.00 12055.60 111.00
3057 33.9800 12194.00 11951.50 110.00
3058 33.9900 12066.00 11789.40 110.00
3059 34.0000 11723.00 11570.50 108.00
3060 34.0100 11226.00 11306.40 106.00
3061 34.0200 10853.00 11013.60 104.00
3062 34.0300 10457.00 10709.70 102.00
3063 34.0400 10084.00 10410.10 100.00
3064 34.0500 9881.00 10126.70 99.00
3065 34.0600 9651.00 9867.45 98.00
3066 34.0700 9436.00 9637.24 97.00
3067 34.0800 9320.00 9437.01 97.00
3068 34.0900 9164.00 9266.38 96.00
3069 34.1000 9110.00 9122.67 95.00
3070 34.1100 9069.00 9000.96 95.00
3071 34.1200 9001.00 8896.63 95.00
3072 34.1300 8815.00 8805.54 94.00
3073 34.1400 8791.00 8723.92 94.00
3074 34.1500 8698.00 8647.78 93.00
3075 34.1600 8665.00 8572.75 93.00
3076 34.1700 8623.00 8495.60 93.00
3077 34.1800 8570.00 8416.16 93.00
3078 34.1900 8411.00 8337.71 92.00
3079 34.2000 8361.00 8265.33 91.00
3080 34.2100 8366.00 8203.74 91.00
3081 34.2200 8310.00 8156.55 91.00
3082 34.2300 8374.00 8126.24 92.00
3083 34.2400 8309.00 8114.76 91.00
3084 34.2500 8308.00 8123.99 91.00
3085 34.2600 8391.00 8156.11 92.00
3086 34.2700 8421.00 8213.64 92.00
3087 34.2800 8532.00 8299.41 92.00
3088 34.2900 8695.00 8416.19 93.00
3089 34.3000 8858.00 8566.00 94.00
3090 34.3100 9031.00 8748.76 95.00
3091 34.3200 9235.00 8960.74 96.00
3092 34.3300 9447.00 9189.30 97.00
3093 34.3400 9644.00 9412.73 98.00
3094 34.3500 9878.00 9594.31 99.00
3095 34.3600 9935.00 9697.21 100.00
3096 34.3700 9867.00 9702.14 99.00
3097 34.3800 9840.00 9616.57 99.00
3098 34.3900 9633.00 9464.68 98.00
3099 34.4000 9429.00 9273.48 97.00
3100 34.4100 9190.00 9066.62 96.00
3101 34.4200 8931.00 8863.05 95.00
3102 34.4300 8698.00 8676.18 93.00
3103 34.4400 8551.00 8513.86 92.00
3104 34.4500 8494.00 8380.08 92.00
3105 34.4600 8360.00 8275.61 91.00
3106 34.4700 8356.00 8201.10 91.00
3107 34.4800 8303.00 8151.85 91.00
3108 34.4900 8272.00 8127.28 91.00
3109 34.5000 8273.00 8125.08 91.00
3110 34.5100 8284.00 8142.87 91.00
3111 34.5200 8318.00 8178.07 91.00
3112 34.5300 8427.00 8227.97 92.00
3113 34.5400 8481.00 8289.77 92.00
3114 34.5500 8538.00 8361.33 92.00
3115 34.5600 8628.00 8441.41 93.00
3116 34.5700 8666.00 8530.31 93.00
3117 34.5800 8792.00 8629.36 94.00
3118 34.5900 8924.00 8740.62 94.00
3119 34.6000 9064.00 8865.33 95.00
3120 34.6100 9108.00 9003.51 95.00
3121 34.6200 9295.00 9153.41 96.00
3122 34.6300 9468.00 9310.50 97.00
3123 34.6400 9640.00 9467.36 98.00
3124 34.6500 9823.00 9612.81 99.00
3125 34.6600 9914.00 9733.03 100.00
3126 34.6700 9947.00 9813.54 100.00
3127 34.6800 10017.00 9843.93 100.00
3128 34.6900 9876.00 9821.35 99.00
3129 34.7000 9836.00 9751.34 99.00
3130 34.7100 9739.00 9645.16 99.00
3131 34.7200 9626.00 9516.41 98.00
3132 34.7300 9352.00 9377.98 97.00
3133 34.7400 9240.00 9240.79 96.00
3134 34.7500 9057.00 9113.26 95.00
3135 34.7600 8955.00 9001.59 95.00
3136 34.7700 8967.00 8909.89 95.00
3137 34.7800 8840.00 8840.33 94.00
3138 34.7900 8815.00 8793.55 94.00
3139 34.8000 8829.00 8768.20 94.00
3140 34.8100 8862.00 8760.95 94.00
3141 34.8200 8814.00 8766.04 94.00
3142 34.8300 8964.00 8775.27 95.00
3143 34.8400 8864.00 8778.75 94.00
3144 34.8500 8840.00 8766.89 94.00
3145 34.8600 8891.00 8733.09 94.00
3146 34.8700 8782.00 8676.95 94.00
3147 34.8800 8717.00 8603.21 93.00
3148 34.8900 8630.00 8520.21 93.00
3149 34.9000 8518.00 8437.16 92.00
3150 34.9100 8387.00 8361.85 92.00
3151 34.9200 8345.00 8300.23 91.00
3152 34.9300 8307.00 8256.19 91.00
3153 34.9400 8314.00 8232.27 91.00
3154 34.9500 8370.00 8229.25 91.00
3155 34.9600 8364.00 8249.36 91.00
3156 34.9700 8373.00 8291.09 92.00
3157 34.9800 8471.00 8353.88 92.00
3158 34.9900 8558.00 8435.88 93.00
3159 35.0000 8690.00 8534.22 93.00
3160 35.0100 8883.00 8644.23 94.00
3161 35.0200 9038.00 8759.54 95.00
3162 35.0300 9097.00 8872.14 95.00
3163 35.0400 9226.00 8973.92 96.00
3164 35.0500 9276.00 9059.19 96.00
3165 35.0600 9394.00 9126.90 97.00
3166 35.0700 9453.00 9181.27 97.00
3167 35.0800 9480.00 9229.72 97.00
3168 35.0900 9470.00 9279.78 97.00
3169 35.1000 9524.00 9336.24 98.00
3170 35.1100 9574.00 9399.57 98.00
3171 35.1200 9680.00 9465.33 98.00
3172 35.1300 9772.00 9524.35 99.00
3173 35.1400 9823.00 9565.07 99.00
3174 35.1500 9728.00 9577.83 99.00
3175 35.1600 9686.00 9559.80 98.00
3176 35.1700 9563.00 9517.20 98.00
3177 35.1800 9446.00 9462.98 97.00
3178 35.1900 9415.00 9411.67 97.00
3179 35.2000 9404.00 9375.00 97.00
3180 35.2100 9297.00 9360.55 96.00
3181 35.2200 9351.00 9369.70 97.00
3182 35.2300 9433.00 9398.62 97.00
3183 35.2400 9508.00 9437.93 98.00
3184 35.2500 9639.00 9473.29 98.00
3185 35.2600 9643.00 9487.30 98.00
3186 35.2700 9547.00 9464.62 98.00
3187 35.2800 9453.00 9396.31 97.00
3188 35.2900 9352.00 9283.87 97.00
3189 35.3000 9174.00 9137.51 96.00
3190 35.3100 9009.00 8971.50 95.00
3191 35.3200 8866.00 8799.13 94.00
3192 35.3300 8644.00 8631.75 93.00
3193 35.3400 8447.00 8476.11 92.00
3194 35.3500 8327.00 8336.58 91.00
3195 35.3600 8193.00 8215.46 91.00
3196 35.3700 8225.00 8113.59 91.00
3197 35.3800 8156.00 8030.85 90.00
3198 35.3900 8035.00 7965.81 90.00
3199 35.4000 8044.00 7917.83 90.00
3200 35.4100 8066.00 7884.67 90.00
3201 35.4200 8044.00 7864.30 90.00
3202 35.4300 8083.00 7854.60 90.00
3203 35.4400 8104.00 7853.48 90.00
3204 35.4500 8063.00 7858.93 90.00
3205 35.4600 8092.00 7869.13 90.00
3206 35.4700 8135.00 7882.84 90.00
3207 35.4800 8199.00 7898.99 91.00
3208 35.4900 8237.00 7916.93 91.00
3209 35.5000 8279.00 7936.09 91.00
3210 35.5100 8186.00 7955.56 90.00
3211 35.5200 8223.00 7974.43 91.00
3212 35.5300 8243.00 7992.07 91.00
3213 35.5400 8228.00 8009.20 91.00
3214 35.5500 8239.00 8027.92 91.00
3215 35.5600 8232.00 8050.63 91.00
3216 35.5700 8205.00 8079.34 91.00
3217 35.5800 8315.00 8115.57 91.00
3218 35.5900 8322.00 8160.29 91.00
3219 35.6000 8415.00 8214.07 92.00
3220 35.6100 8497.00 8276.39 92.00
3221 35.6200 8579.00 8346.31 93.00
3222 35.6300 8629.00 8422.91 93.00
3223 35.6400 8700.00 8505.94 93.00
3224 35.6500 8829.00 8595.95 94.00
3225 35.6600 8889.00 8694.13 94.00
3226 35.6700 9095.00 8801.79 95.00
3227 35.6800 9253.00 8919.88 96.00
3228 35.6900 9306.00 9048.89 96.00
3229 35.7000 9454.00 9188.21 97.00
3230 35.7100 9601.00 9337.70 98.00
3231 35.7200 9803.00 9492.86 99.00
3232 35.7300 10015.00 9651.83 100.00
3233 35.7400 10162.00 9810.19 101.00
3234 35.7500 10258.00 9962.32 101.00
3235 35.7600 10347.00 10101.50 102.00
3236 35.7700 10461.00 10220.10 102.00
3237 35.7800 10541.00 10311.00 103.00
3238 35.7900 10631.00 10369.40 103.00
3239 35.8000 10548.00 10394.50 103.00
3240 35.8100 10475.00 10389.40 102.00
3241 35.8200 10387.00 10360.40 102.00
3242 35.8300 10391.00 10314.60 102.00
3243 35.8400 10293.00 10258.20 101.00
3244 35.8500 10282.00 10195.20 101.00
3245 35.8600 10202.00 10127.30 101.00
3246 35.8700 10088.00 10053.90 100.00
3247 35.8800 10022.00 9973.79 100.00
3248 35.8900 9941.00 9885.47 100.00
3249 35.9000 9870.00 9788.74 99.00
3250 35.9100 9888.00 9684.63 99.00
3251 35.9200 9710.00 9575.61 99.00
3252 35.9300 9565.00 9464.83 98.00
3253 35.9400 9439.00 9355.52 97.00
3254 35.9500 9326.00 9250.40 97.00
3255 35.9600 9246.00 9151.35 96.00
3256 35.9700 9202.00 9059.56 96.00
3257 35.9800 9147.00 8975.43 96.00
3258 35.9900 8972.00 8898.95 95.00
3259 36.0000 8981.00 8829.23 95.00
3260 36.0100 8875.00 8766.44 94.00
3261 36.0200 8850.00 8711.89 94.00
3262 36.0300 8828.00 8659.09 94.00
3263 36.0400 8815.00 8608.75 94.00
3264 36.0500 8720.00 8559.35 93.00
3265 36.0600 8627.00 8510.40 93.00
3266 36.0700 8601.00 8462.99 93.00
3267 36.0800 8573.00 8420.17 93.00
3268 36.0900 8590.00 8386.11 93.00
3269 36.1000 8550.00 8365.48 92.00
3270 36.1100 8494.00 8362.89 92.00
3271 36.1200 8545.00 8382.91 92.00
3272 36.1300 8582.00 8430.01 93.00
3273 36.1400 8630.00 8508.47 93.00
3274 36.1500 8801.00 8621.70 94.00
3275 36.1600 8957.00 8770.91 95.00
3276 36.1700 9078.00 8953.45 95.00
3277 36.1800 9305.00 9163.42 96.00
3278 36.1900 9551.00 9394.93 98.00
3279 36.2000 9822.00 9644.95 99.00
3280 36.2100 10138.00 9909.08 101.00
3281 36.2200 10369.00 10171.90 102.00
3282 36.2300 10546.00 10404.20 103.00
3283 36.2400 10687.00 10572.20 103.00
3284 36.2500 10731.00 10653.40 104.00
3285 36.2600 10712.00 10644.20 103.00
3286 36.2700 10627.00 10552.00 103.00
3287 36.2800 10487.00 10388.00 102.00
3288 36.2900 10172.00 10169.20 101.00
3289 36.3000 9928.00 9922.13 100.00
3290 36.3100 9717.00 9677.13 99.00
3291 36.3200 9492.00 9457.68 97.00
3292 36.3300 9399.00 9277.63 97.00
3293 36.3400 9270.00 9142.41 96.00
3294 36.3500 9083.00 9052.83 95.00
3295 36.3600 9059.00 9006.97 95.00
3296 36.3700 9117.00 9001.99 95.00
3297 36.3800 9179.00 9035.08 96.00
3298 36.3900 9254.00 9104.05 96.00
3299 36.4000 9381.00 9206.78 97.00
3300 36.4100 9479.00 9344.06 97.00
3301 36.4200 9696.00 9515.21 98.00
3302 36.4300 9910.00 9720.40 100.00
3303 36.4400 10114.00 9959.94 101.00
3304 36.4500 10478.00 10232.80 102.00
3305 36.4600 10754.00 10536.60 104.00
3306 36.4700 10985.00 10865.20 105.00
3307 36.4800 11377.00 11208.20 107.00
3308 36.4900 11693.00 11546.20 108.00
3309 36.5000 11996.00 11851.10 110.00
3310 36.5100 12189.00 12084.90 110.00
3311 36.5200 12295.00 12211.10 111.00
3312 36.5300 12183.00 12208.80 110.00
3313 36.5400 12043.00 12084.40 110.00
3314 36.5500 11848.00 11868.90 109.00
3315 36.5600 11500.00 11602.40 107.00
3316 36.5700 11247.00 11319.80 106.00
3317 36.5800 10935.00 11045.30 105.00
3318 36.5900 10613.00 10791.30 103.00
3319 36.6000 10450.00 10562.00 102.00
3320 36.6100 10276.00 10355.90 101.00
3321 36.6200 10165.00 10167.90 101.00
3322 36.6300 10046.00 9992.43 100.00
3323 36.6400 9870.00 9823.87 99.00
3324 36.6500 9605.00 9659.31 98.00
3325 36.6600 9470.00 9498.27 97.00
3326 36.6700 9357.00 9342.76 97.00
3327 36.6800 9177.00 9195.60 96.00
3328 36.6900 9138.00 9060.01 96.00
3329 36.7000 8948.00 8939.03 95.00
3330 36.7100 8845.00 8834.88 94.00
3331 36.7200 8752.00 8749.66 94.00
3332 36.7300 8718.00 8684.85 93.00
3333 36.7400 8726.00 8641.79 93.00
3334 36.7500 8725.00 8621.43 93.00
3335 36.7600 8723.00 8624.60 93.00
3336 36.7700 8685.00 8651.85 93.00
3337 36.7800 8791.00 8703.47 94.00
3338 36.7900 8872.00 8779.32 94.00
3339 36.8000 9026.00 8878.78 95.00
3340 36.8100 9167.00 9000.26 96.00
3341 36.8200 9348.00 9141.23 97.00
3342 36.8300 9403.00 9298.10 97.00
3343 36.8400 9565.00 9466.53 98.00
3344 36.8500 9689.00 9642.91 98.00
3345 36.8600 9885.00 9821.04 99.00
3346 36.8700 10073.00 9998.07 100.00
3347 36.8800 10234.00 10169.90 101.00
3348 36.8900 10324.00 10333.90 102.00
3349 36.9000 10469.00 10490.50 102.00
3350 36.9100 10603.00 10643.30 103.00
3351 36.9200 10838.00 10797.10 104.00
3352 36.9300 11080.00 10955.20 105.00
3353 36.9400 11223.00 11116.70 106.00
3354 36.9500 11444.00 11275.50 107.00
3355 36.9600 11652.00 11419.50 108.00
3356 36.9700 11781.00 11531.60 109.00
3357 36.9800 11865.00 11593.10 109.00
3358 36.9900 11796.00 11588.50 109.00
3359 37.0000 11710.00 11511.90 108.00
3360 37.0100 11425.00 11369.60 107.00
3361 37.0200 11168.00 11178.70 106.00
3362 37.0300 10862.00 10962.00 104.00
3363 37.0400 10589.00 10742.30 103.00
3364 37.0500 10392.00 10537.70 102.00
3365 37.0600 10222.00 10361.20 101.00
3366 37.0700 10001.00 10220.40 100.00
3367 37.0800 9948.00 10118.20 100.00
3368 37.0900 9880.00 10054.10 99.00
3369 37.1000 9845.00 10023.20 99.00
3370 37.1100 9959.00 10017.60 100.00
3371 37.1200 10036.00 10026.90 100.00
3372 37.1300 10010.00 10040.10 100.00
3373 37.1400 10038.00 10047.80 100.00
3374 37.1500 10076.00 10043.30 100.00
3375 37.1600 10072.00 10024.30 100.00
3376 37.1700 10055.00 9991.36 100.00
3377 37.1800 10000.00 9946.69 100.00
3378 37.1900 9863.00 9892.78 99.00
3379 37.2000 9856.00 9831.38 99.00
3380 37.2100 9768.00 9762.89 99.00
3381 37.2200 9735.00 9687.08 99.00
3382 37.2300 9661.00 9603.25 98.00
3383 37.2400 9557.00 9511.27 98.00
3384 37.2500 9410.00 9410.84 97.00
3385 37.2600 9220.00 9304.09 96.00
3386 37.2700 9090.00 9192.51 95.00
3387 37.2800 9019.00 9077.62 95.00
3388 37.2900 8904.00 8961.46 94.00
3389 37.3000 8796.00 8845.71 94.00
3390 37.3100 8694.00 8732.02 93.00
3391 37.3200 8559.00 8621.45 93.00
3392 37.3300 8462.00 8515.08 92.00
3393 37.3400 8346.00 8413.27 91.00
3394 37.3500 8330.00 8317.38 91.00
3395 37.3600 8265.00 8227.50 91.00
3396 37.3700 8098.00 8144.05 90.00
3397 37.3800 8084.00 8067.47 90.00
3398 37.3900 7979.00 7998.01 89.00
3399 37.4000 7927.00 7935.86 89.00
3400 37.4100 7912.00 7881.10 89.00
3401 37.4200 7851.00 7833.80 89.00
3402 37.4300 7735.00 7793.79 88.00
3403 37.4400 7746.00 7760.94 88.00
3404 37.4500 7707.00 7735.12 88.00
3405 37.4600 7724.00 7716.26 88.00
3406 37.4700 7772.00 7704.45 88.00
3407 37.4800 7750.00 7699.91 88.00
3408 37.4900 7696.00 7703.24 88.00
3409 37.5000 7719.00 7714.54 88.00
3410 37.5100 7789.00 7734.68 88.00
3411 37.5200 7803.00 7763.61 88.00
3412 37.5300 7827.00 7801.26 88.00
3413 37.5400 7907.00 7847.24 89.00
3414 37.5500 7970.00 7900.84 89.00
3415 37.5600 7978.00 7960.89 89.00
3416 37.5700 8083.00 8025.87 90.00
3417 37.5800 8163.00 8093.74 90.00
3418 37.5900 8249.00 8162.17 91.00
3419 37.6000 8328.00 8228.06 91.00
3420 37.6100 8309.00 8287.80 91.00
3421 37.6200 8347.00 8337.55 91.00
3422 37.6300 8331.00 8374.04 91.00
3423 37.6400 8383.00 8395.57 92.00
3424 37.6500 8401.00 8403.88 92.00
3425 37.6600 8376.00 8401.76 92.00
3426 37.6700 8309.00 8392.93 91.00
3427 37.6800 8278.00 8380.30 91.00
3428 37.6900 8255.00 8365.21 91.00
3429 37.7000 8311.00 8347.31 91.00
3430 37.7100 8325.00 8325.52 91.00
3431 37.7200 8328.00 8298.23 91.00
3432 37.7300 8187.00 8264.64 90.00
3433 37.7400 8204.00 8225.30 91.00
3434 37.7500 8083.00 8182.34 90.00
3435 37.7600 8063.00 8139.02 90.00
3436 37.7700 8050.00 8098.92 90.00
3437 37.7800 8062.00 8065.18 90.00
3438 37.7900 7974.00 8040.24 89.00
3439 37.8000 7968.00 8025.71 89.00
3440 37.8100 7953.00 8022.51 89.00
3441 37.8200 7996.00 8031.07 89.00
3442 37.8300 8070.00 8051.45 90.00
3443 37.8400 8081.00 8083.44 90.00
3444 37.8500 8052.00 8126.62 90.00
3445 37.8600 8168.00 8180.78 90.00
3446 37.8700 8225.00 8244.53 91.00
3447 37.8800 8373.00 8316.96 92.00
3448 37.8900 8449.00 8397.96 92.00
3449 37.9000 8521.00 8486.06 92.00
3450 37.9100 8562.00 8580.21 93.00
3451 37.9200 8694.00 8679.25 93.00
3452 37.9300 8818.00 8781.83 94.00
3453 37.9400 8869.00 8886.18 94.00
3454 37.9500 8996.00 8989.70 95.00
3455 37.9600 9070.00 9088.83 95.00
3456 37.9700 9116.00 9178.32 95.00
3457 37.9800 9181.00 9252.15 96.00
3458 37.9900 9230.00 9305.17 96.00
3459 38.0000 9292.00 9335.52 96.00
3460 38.0100 9300.00 9344.92 96.00
3461 38.0200 9284.00 9336.78 96.00
3462 38.0300 9296.00 9313.80 96.00
3463 38.0400 9189.00 9277.01 96.00
3464 38.0500 9091.00 9226.04 95.00
3465 38.0600 9027.00 9160.05 95.00
3466 38.0700 9051.00 9079.04 95.00
3467 38.0800 8881.00 8983.57 94.00
3468 38.0900 8708.00 8875.34 93.00
3469 38.1000 8549.00 8757.67 92.00
3470 38.1100 8435.00 8633.85 92.00
3471 38.1200 8366.00 8507.26 91.00
3472 38.1300 8217.00 8381.22 91.00
3473 38.1400 8117.00 8258.36 90.00
3474 38.1500 7945.00 8140.93 89.00
3475 38.1600 7840.00 8030.36 89.00
3476 38.1700 7785.00 7927.94 88.00
3477 38.1800 7663.00 7835.88 88.00
3478 38.1900 7643.00 7751.76 87.00
3479 38.2000 7641.00 7677.36 87.00
3480 38.2100 7512.00 7612.76 87.00
3481 38.2200 7492.00 7557.97 87.00
3482 38.2300 7449.00 7512.75 86.00
3483 38.2400 7417.00 7476.85 86.00
3484 38.2500 7413.00 7449.81 86.00
3485 38.2600 7388.00 7431.05 86.00
3486 38.2700 7389.00 7419.66 86.00
3487 38.2800 7367.00 7414.43 86.00
3488 38.2900 7321.00 7413.69 86.00
3489 38.3000 7385.00 7415.42 86.00
3490 38.3100 7394.00 7417.61 86.00
3491 38.3200 7385.00 7418.88 86.00
3492 38.3300 7378.00 7418.83 86.00
3493 38.3400 7392.00 7417.96 86.00
3494 38.3500 7350.00 7417.19 86.00
3495 38.3600 7359.00 7417.25 86.00
3496 38.3700 7375.00 7418.51 86.00
3497 38.3800 7426.00 7420.87 86.00
3498 38.3900 7353.00 7423.89 86.00
3499 38.4000 7365.00 7426.92 86.00
3500 38.4100 7374.00 7429.35 86.00
3501 38.4200 7329.00 7430.79 86.00
3502 38.4300 7425.00 7431.25 86.00
3503 38.4400 7364.00 7431.12 86.00
3504 38.4500 7289.00 7432.87 85.00
3505 38.4600 7336.00 7433.99 86.00
3506 38.4700 7342.00 7437.21 86.00
3507 38.4800 7340.00 7443.31 86.00
3508 38.4900 7411.00 7453.58 86.00
3509 38.5000 7399.00 7468.55 86.00
3510 38.5100 7372.00 7488.73 86.00
3511 38.5200 7447.00 7514.37 86.00
3512 38.5300 7426.00 7545.57 86.00
3513 38.5400 7486.00 7582.08 87.00
3514 38.5500 7580.00 7623.55 87.00
3515 38.5600 7618.00 7669.43 87.00
3516 38.5700 7611.00 7719.16 87.00
3517 38.5800 7693.00 7772.09 88.00
3518 38.5900 7773.00 7827.55 88.00
3519 38.6000 7816.00 7884.99 88.00
3520 38.6100 7930.00 7943.42 89.00
3521 38.6200 7949.00 8001.26 89.00
3522 38.6300 8015.00 8055.71 90.00
3523 38.6400 8068.00 8103.06 90.00
3524 38.6500 8054.00 8138.37 90.00
3525 38.6600 8076.00 8158.13 90.00
3526 38.6700 8126.00 8161.32 90.00
3527 38.6800 8107.00 8150.70 90.00
3528 38.6900 8030.00 8131.80 90.00
3529 38.7000 8055.00 8111.00 90.00
3530 38.7100 7950.00 8093.62 89.00
3531 38.7200 8013.00 8083.00 90.00
3532 38.7300 8076.00 8080.21 90.00
3533 38.7400 8097.00 8083.98 90.00
3534 38.7500 7999.00 8090.91 89.00
3535 38.7600 8065.00 8095.85 90.00
3536 38.7700 8095.00 8092.90 90.00
3537 38.7800 8080.00 8077.13 90.00
3538 38.7900 8034.00 8046.53 90.00
3539 38.8000 8008.00 8002.92 89.00
3540 38.8100 7879.00 7951.01 89.00
3541 38.8200 7818.00 7896.99 88.00
3542 38.8300 7749.00 7846.04 88.00
3543 38.8400 7728.00 7802.01 88.00
3544 38.8500 7733.00 7767.50 88.00
3545 38.8600 7740.00 7743.81 88.00
3546 38.8700 7661.00 7731.25 88.00
3547 38.8800 7644.00 7729.26 87.00
3548 38.8900 7684.00 7736.27 88.00
3549 38.9000 7724.00 7749.68 88.00
3550 38.9100 7748.00 7765.91 88.00
3551 38.9200 7726.00 7780.91 88.00
3552 38.9300 7676.00 7791.35 88.00
3553 38.9400 7673.00 7795.97 88.00
3554 38.9500 7661.00 7796.08 88.00
3555 38.9600 7664.00 7794.75 88.00
3556 38.9700 7763.00 7795.05 88.00
3557 38.9800 7748.00 7798.87 88.00
3558 38.9900 7720.00 7806.30 88.00
3559 39.0000 7710.00 7815.64 88.00
3560 39.0100 7744.00 7823.73 88.00
3561 39.0200 7729.00 7826.76 88.00
3562 39.0300 7800.00 7821.39 88.00
3563 39.0400 7738.00 7805.98 88.00
3564 39.0500 7688.00 7781.34 88.00
3565 39.0600 7651.00 7750.48 87.00
3566 39.0700 7609.00 7717.44 87.00
3567 39.0800 7603.00 7686.35 87.00
3568 39.0900 7575.00 7660.62 87.00
3569 39.1000 7521.00 7642.73 87.00
3570 39.1100 7463.00 7634.43 86.00
3571 39.1200 7495.00 7636.61 87.00
3572 39.1300 7518.00 7649.84 87.00
3573 39.1400 7514.00 7673.98 87.00
3574 39.1500 7607.00 7708.29 87.00
3575 39.1600 7634.00 7751.89 87.00
3576 39.1700 7657.00 7802.72 88.00
3577 39.1800 7762.00 7857.60 88.00
3578 39.1900 7811.00 7914.63 88.00
3579 39.2000 7886.00 7969.54 89.00
3580 39.2100 7987.00 8018.89 89.00
3581 39.2200 8011.00 8059.72 90.00
3582 39.2300 8051.00 8089.70 90.00
3583 39.2400 8071.00 8107.23 90.00
3584 39.2500 8045.00 8111.51 90.00
3585 39.2600 8080.00 8104.18 90.00
3586 39.2700 8056.00 8083.90 90.00
3587 39.2800 8028.00 8054.43 90.00
3588 39.2900 7873.00 8018.85 89.00
3589 39.3000 7833.00 7979.99 89.00
3590 39.3100 7775.00 7940.20 88.00
3591 39.3200 7756.00 7900.79 88.00
3592 39.3300 7736.00 7862.97 88.00
3593 39.3400 7696.00 7827.05 88.00
3594 39.3500 7616.00 7793.62 87.00
3595 39.3600 7586.00 7763.74 87.00
3596 39.3700 7566.00 7738.65 87.00
3597 39.3800 7595.00 7720.60 87.00
3598 39.3900 7606.00 7710.77 87.00
3599 39.4000 7592.00 7709.95 87.00
3600 39.4100 7594.00 7718.02 87.00
3601 39.4200 7638.00 7733.62 87.00
3602 39.4300 7689.00 7754.03 88.00
3603 39.4400 7731.00 7775.14 88.00
3604 39.4500 7800.00 7791.76 88.00
3605 39.4600 7743.00 7798.65 88.00
3606 39.4700 7725.00 7791.54 88.00
3607 39.4800 7709.00 7767.96 88.00
3608 39.4900 7634.00 7729.33 87.00
3609 39.5000 7635.00 7678.44 87.00
3610 39.5100 7569.00 7619.93 87.00
3611 39.5200 7552.00 7558.44 87.00
3612 39.5300 7417.00 7497.84 86.00
3613 39.5400 7418.00 7440.94 86.00
3614 39.5500 7311.00 7389.48 86.00
3615 39.5600 7249.00 7344.42 85.00
3616 39.5700 7259.00 7306.17 85.00
3617 39.5800 7239.00 7274.88 85.00
3618 39.5900 7163.00 7250.40 85.00
3619 39.6000 7134.00 7232.53 84.00
3620 39.6100 7163.00 7220.96 85.00
3621 39.6200 7209.00 7215.41 85.00
3622 39.6300 7231.00 7215.59 85.00
3623 39.6400 7188.00 7220.96 85.00
3624 39.6500 7203.00 7231.96 85.00
3625 39.6600 7218.00 7249.20 85.00
3626 39.6700 7226.00 7270.44 85.00
3627 39.6800 7244.00 7296.71 85.00
3628 39.6900 7265.00 7327.92 85.00
3629 39.7000 7322.00 7363.98 86.00
3630 39.7100 7311.00 7404.77 86.00
3631 39.7200 7376.00 7450.04 86.00
3632 39.7300 7408.00 7499.40 86.00
3633 39.7400 7489.00 7552.23 87.00
3634 39.7500 7628.00 7607.70 87.00
3635 39.7600 7635.00 7664.65 87.00
3636 39.7700 7691.00 7721.70 88.00
3637 39.7800 7737.00 7777.47 88.00
3638 39.7900 7858.00 7830.72 89.00
3639 39.8000 7852.00 7880.73 89.00
3640 39.8100 7946.00 7927.39 89.00
3641 39.8200 7963.00 7970.95 89.00
3642 39.8300 7958.00 8013.31 89.00
3643 39.8400 8047.00 8055.22 90.00
3644 39.8500 8001.00 8097.49 89.00
3645 39.8600 8049.00 8140.38 90.00
3646 39.8700 8131.00 8183.26 90.00
3647 39.8800 8149.00 8224.61 90.00
3648 39.8900 8148.00 8262.35 90.00
3649 39.9000 8170.00 8294.27 90.00
3650 39.9100 8232.00 8318.83 91.00
3651 39.9200 8240.00 8335.73 91.00
3652 39.9300 8301.00 8346.03 91.00
3653 39.9400 8294.00 8351.70 91.00
3654 39.9500 8235.00 8354.91 91.00
3655 39.9600 8235.00 8357.55 91.00
3656 39.9700 8248.00 8360.86 91.00
3657 39.9800 8257.00 8365.51 91.00
3658 39.9900 8311.00 8371.59 91.00
3659 40.0000 8308.00 8378.79 91.00
3660 40.0100 8258.00 8386.61 91.00
3661 40.0200 8267.00 8394.37 91.00
3662 40.0300 8265.00 8401.30 91.00
3663 40.0400 8266.00 8406.46 91.00
3664 40.0500 8265.00 8408.87 91.00
3665 40.0600 8282.00 8407.58 91.00
3666 40.0700 8199.00 8401.97 91.00
3667 40.0800 8194.00 8392.00 91.00
3668 40.0900 8164.00 8378.17 90.00
3669 40.1000 8213.00 8361.35 91.00
3670 40.1100 8248.00 8342.50 91.00
3671 40.1200 8217.00 8322.41 91.00
3672 40.1300 8105.00 8301.70 90.00
3673 40.1400 8134.00 8280.89 90.00
3674 40.1500 8090.00 8260.65 90.00
3675 40.1600 8068.00 8241.57 90.00
3676 40.1700 8119.00 8225.09 90.00
3677 40.1800 8073.00 8212.26 90.00
3678 40.1900 8035.00 8204.28 90.00
3679 40.2000 8014.00 8202.35 90.00
3680 40.2100 8016.00 8207.60 90.00
3681 40.2200 8046.00 8220.90 90.00
3682 40.2300 8096.00 8242.85 90.00
3683 40.2400 8080.00 8273.71 90.00
3684 40.2500 8101.00 8313.33 90.00
3685 40.2600 8147.00 8361.00 90.00
3686 40.2700 8233.00 8415.49 91.00
3687 40.2800 8303.00 8475.00 91.00
3688 40.2900 8409.00 8537.11 92.00
3689 40.3000 8461.00 8599.13 92.00
3690 40.3100 8485.00 8658.05 92.00
3691 40.3200 8565.00 8710.87 93.00
3692 40.3300 8592.00 8754.59 93.00
3693 40.3400 8692.00 8786.84 93.00
3694 40.3500 8707.00 8806.50 93.00
3695 40.3600 8742.00 8814.28 93.00
3696 40.3700 8660.00 8812.62 93.00
3697 40.3800 8649.00 8805.10 93.00
3698 40.3900 8650.00 8795.57 93.00
3699 40.4000 8695.00 8787.65 93.00
3700 40.4100 8759.00 8783.63 94.00
3701 40.4200 8753.00 8786.85 94.00
3702 40.4300 8685.00 8797.75 93.00
3703 40.4400 8709.00 8816.03 93.00
3704 40.4500 8696.00 8839.46 93.00
3705 40.4600 8766.00 8863.27 94.00
3706 40.4700 8789.00 8880.00 94.00
3707 40.4800 8783.00 8880.51 94.00
3708 40.4900 8665.00 8857.10 93.00
3709 40.5000 8667.00 8807.25 93.00
3710 40.5100 8572.00 8735.03 93.00
3711 40.5200 8500.00 8648.90 92.00
3712 40.5300 8471.00 8558.07 92.00
3713 40.5400 8333.00 8470.17 91.00
3714 40.5500 8208.00 8390.24 91.00
3715 40.5600 8191.00 8321.37 91.00
3716 40.5700 8125.00 8264.82 90.00
3717 40.5800 8122.00 8220.66 90.00
3718 40.5900 8128.00 8187.75 90.00
3719 40.6000 8140.00 8164.00 90.00
3720 40.6100 8019.00 8146.28 90.00
3721 40.6200 8056.00 8130.83 90.00
3722 40.6300 8049.00 8114.33 90.00
3723 40.6400 8032.00 8094.94 90.00
3724 40.6500 8069.00 8072.74 90.00
3725 40.6600 8052.00 8049.68 90.00
3726 40.6700 7990.00 8027.39 89.00
3727 40.6800 7994.00 8009.03 89.00
3728 40.6900 7983.00 7990.57 89.00
3729 40.7000 7922.00 7973.79 89.00
3730 40.7100 7999.00 7958.46 89.00
3731 40.7200 8003.00 7944.95 89.00
3732 40.7300 7920.00 7934.17 89.00
3733 40.7400 7908.00 7927.38 89.00
3734 40.7500 7880.00 7925.86 89.00
3735 40.7600 7886.00 7930.54 89.00
3736 40.7700 7945.00 7941.92 89.00
3737 40.7800 7972.00 7959.85 89.00
3738 40.7900 7954.00 7983.69 89.00
3739 40.8000 7986.00 8011.93 89.00
3740 40.8100 8075.00 8042.19 90.00
3741 40.8200 8095.00 8071.23 90.00
3742 40.8300 8189.00 8094.90 90.00
3743 40.8400 8214.00 8108.57 91.00
3744 40.8500 8093.00 8107.86 90.00
3745 40.8600 8075.00 8090.07 90.00
3746 40.8700 8035.00 8055.67 90.00
3747 40.8800 7945.00 8008.10 89.00
3748 40.8900 7924.00 7951.79 89.00
3749 40.9000 7866.00 7890.64 89.00
3750 40.9100 7742.00 7828.57 88.00
3751 40.9200 7730.00 7765.42 88.00
3752 40.9300 7685.00 7703.86 88.00
3753 40.9400 7632.00 7645.03 87.00
3754 40.9500 7612.00 7589.80 87.00
3755 40.9600 7544.00 7538.55 87.00
3756 40.9700 7434.00 7491.51 86.00
3757 40.9800 7455.00 7448.58 86.00
3758 40.9900 7366.00 7409.54 86.00
3759 41.0000 7371.00 7373.96 86.00
3760 41.0100 7322.00 7341.41 86.00
3761 41.0200 7309.00 7311.43 85.00
3762 41.0300 7231.00 7283.63 85.00
3763 41.0400 7219.00 7257.75 85.00
3764 41.0500 7228.00 7233.64 85.00
3765 41.0600 7205.00 7211.32 85.00
3766 41.0700 7223.00 7190.83 85.00
3767 41.0800 7195.00 7172.27 85.00
3768 41.0900 7113.00 7155.66 84.00
3769 41.1000 7115.00 7141.00 84.00
3770 41.1100 7119.00 7128.35 84.00
3771 41.1200 7125.00 7117.58 84.00
3772 41.1300 7129.00 7108.59 84.00
3773 41.1400 7122.00 7101.27 84.00
3774 41.1500 7121.00 7095.55 84.00
3775 41.1600 7113.00 7091.40 84.00
3776 41.1700 7113.00 7088.85 84.00
3777 41.1800 7094.00 7087.96 84.00
3778 41.1900 7117.00 7088.79 84.00
3779 41.2000 7167.00 7091.43 85.00
3780 41.2100 7082.00 7095.95 84.00
3781 41.2200 7144.00 7102.39 85.00
3782 41.2300 7118.00 7110.83 84.00
3783 41.2400 7158.00 7121.33 85.00
3784 41.2500 7179.00 7134.01 85.00
3785 41.2600 7173.00 7148.97 85.00
3786 41.2700 7178.00 7166.40 85.00
3787 41.2800 7163.00 7186.45 85.00
3788 41.2900 7200.00 7209.41 85.00
3789 41.3000 7229.00 7235.56 85.00
3790 41.3100 7311.00 7265.20 86.00
3791 41.3200 7331.00 7298.69 86.00
3792 41.3300 7368.00 7336.35 86.00
3793 41.3400 7411.00 7378.55 86.00
3794 41.3500 7436.00 7425.52 86.00
3795 41.3600 7540.00 7477.36 87.00
3796 41.3700 7610.00 7534.11 87.00
3797 41.3800 7653.00 7595.27 87.00
3798 41.3900 7655.00 7659.82 87.00
3799 41.4000 7769.00 7726.39 88.00
3800 41.4100 7801.00 7794.45 88.00
3801 41.4200 7892.00 7865.80 89.00
3802 41.4300 7969.00 7944.71 89.00
3803 41.4400 8108.00 8036.30 90.00
3804 41.4500 8130.00 8142.97 90.00
3805 41.4600 8226.00 8262.91 91.00
3806 41.4700 8309.00 8388.12 91.00
3807 41.4800 8413.00 8505.08 92.00
3808 41.4900 8541.00 8598.27 92.00
3809 41.5000 8601.00 8658.47 93.00
3810 41.5100 8545.00 8688.58 92.00
3811 41.5200 8585.00 8700.98 93.00
3812 41.5300 8616.00 8708.69 93.00
3813 41.5400 8587.00 8719.51 93.00
3814 41.5500 8703.00 8734.05 93.00
3815 41.5600 8713.00 8747.71 93.00
3816 41.5700 8753.00 8753.53 94.00
3817 41.5800 8750.00 8744.98 94.00
3818 41.5900 8732.00 8717.92 93.00
3819 41.6000 8681.00 8671.34 93.00
3820 41.6100 8689.00 8606.99 93.00
3821 41.6200 8546.00 8528.74 92.00
3822 41.6300 8333.00 8441.89 91.00
3823 41.6400 8263.00 8352.24 91.00
3824 41.6500 8187.00 8265.34 90.00
3825 41.6600 8056.00 8185.92 90.00
3826 41.6700 8075.00 8117.49 90.00
3827 41.6800 8050.00 8062.25 90.00
3828 41.6900 7972.00 8021.23 89.00
3829 41.7000 7922.00 7995.33 89.00
3830 41.7100 7903.00 7982.25 89.00
3831 41.7200 7925.00 7981.40 89.00
3832 41.7300 8030.00 7990.97 90.00
3833 41.7400 8068.00 8008.84 90.00
3834 41.7500 8019.00 8032.75 90.00
3835 41.7600 8069.00 8060.30 90.00
3836 41.7700 8064.00 8088.90 90.00
3837 41.7800 8134.00 8115.59 90.00
3838 41.7900 8156.00 8136.85 90.00
3839 41.8000 8204.00 8148.92 91.00
3840 41.8100 8092.00 8148.15 90.00
3841 41.8200 8125.00 8131.99 90.00
3842 41.8300 8061.00 8099.92 90.00
3843 41.8400 7973.00 8053.46 89.00
3844 41.8500 7895.00 7996.13 89.00
3845 41.8600 7897.00 7932.38 89.00
3846 41.8700 7752.00 7866.70 88.00
3847 41.8800 7695.00 7803.13 88.00
3848 41.8900 7643.00 7744.76 87.00
3849 41.9000 7593.00 7693.95 87.00
3850 41.9100 7613.00 7652.05 87.00
3851 41.9200 7621.00 7620.51 87.00
3852 41.9300 7545.00 7599.77 87.00
3853 41.9400 7584.00 7590.06 87.00
3854 41.9500 7575.00 7591.47 87.00
3855 41.9600 7583.00 7603.68 87.00
3856 41.9700 7569.00 7626.04 87.00
3857 41.9800 7664.00 7657.47 88.00
3858 41.9900 7617.00 7696.21 87.00
3859 42.0000 7709.00 7739.63 88.00
3860 42.0100 7703.00 7783.81 88.00
3861 42.0200 7748.00 7823.67 88.00
3862 42.0300 7837.00 7853.61 89.00
3863 42.0400 7825.00 7868.94 88.00
3864 42.0500 7830.00 7868.84 88.00
3865 42.0600 7783.00 7855.57 88.00
3866 42.0700 7794.00 7833.25 88.00
3867 42.0800 7725.00 7806.96 88.00
3868 42.0900 7798.00 7780.67 88.00
3869 42.1000 7738.00 7757.24 88.00
3870 42.1100 7708.00 7738.43 88.00
3871 42.1200 7680.00 7725.24 88.00
3872 42.1300 7672.00 7717.99 88.00
3873 42.1400 7663.00 7716.98 88.00
3874 42.1500 7689.00 7721.99 88.00
3875 42.1600 7685.00 7732.87 88.00
3876 42.1700 7699.00 7749.29 88.00
3877 42.1800 7741.00 7771.09 88.00
3878 42.1900 7790.00 7797.46 88.00
3879 42.2000 7790.00 7827.13 88.00
3880 42.2100 7877.00 7858.06 89.00
3881 42.2200 7879.00 7887.50 89.00
3882 42.2300 7871.00 7912.13 89.00
3883 42.2400 7880.00 7929.10 89.00
3884 42.2500 7857.00 7936.28 89.00
3885 42.2600 7849.00 7933.32 89.00
3886 42.2700 7869.00 7921.59 89.00
3887 42.2800 7837.00 7903.67 89.00
3888 42.2900 7773.00 7882.62 88.00
3889 42.3000 7725.00 7861.35 88.00
3890 42.3100 7779.00 7842.29 88.00
3891 42.3200 7754.00 7827.38 88.00
3892 42.3300 7798.00 7817.84 88.00
3893 42.3400 7821.00 7814.70 88.00
3894 42.3500 7731.00 7819.08 88.00
3895 42.3600 7797.00 7830.90 88.00
3896 42.3700 7788.00 7850.00 88.00
3897 42.3800 7848.00 7875.91 89.00
3898 42.3900 7912.00 7907.69 89.00
3899 42.4000 7949.00 7943.80 89.00
3900 42.4100 7974.00 7982.23 89.00
3901 42.4200 8073.00 8020.42 90.00
3902 42.4300 8104.00 8055.53 90.00
3903 42.4400 8090.00 8084.75 90.00
3904 42.4500 8163.00 8105.99 90.00
3905 42.4600 8123.00 8117.98 90.00
3906 42.4700 8075.00 8120.68 90.00
3907 42.4800 8097.00 8115.09 90.00
3908 42.4900 8050.00 8102.81 90.00
3909 42.5000 8077.00 8085.54 90.00
3910 42.5100 8074.00 8064.81 90.00
3911 42.5200 8022.00 8041.69 90.00
3912 42.5300 7978.00 8016.91 89.00
3913 42.5400 7919.00 7991.02 89.00
3914 42.5500 7913.00 7964.46 89.00
3915 42.5600 7825.00 7937.84 88.00
3916 42.5700 7873.00 7911.92 89.00
3917 42.5800 7841.00 7887.63 89.00
3918 42.5900 7857.00 7865.84 89.00
3919 42.6000 7815.00 7847.26 88.00
3920 42.6100 7785.00 7832.28 88.00
3921 42.6200 7813.00 7820.99 88.00
3922 42.6300 7831.00 7813.11 88.00
3923 42.6400 7790.00 7808.35 88.00
3924 42.6500 7792.00 7806.04 88.00
3925 42.6600 7785.00 7805.58 88.00
3926 42.6700 7807.00 7806.59 88.00
3927 42.6800 7803.00 7808.81 88.00
3928 42.6900 7838.00 7812.25 89.00
3929 42.7000 7863.00 7817.03 89.00
3930 42.7100 7817.00 7823.30 88.00
3931 42.7200 7840.00 7830.99 89.00
3932 42.7300 7809.00 7839.83 88.00
3933 42.7400 7881.00 7849.25 89.00
3934 42.7500 7953.00 7858.50 89.00
3935 42.7600 7978.00 7866.79 89.00
3936 42.7700 7870.00 7873.44 89.00
3937 42.7800 7893.00 7878.10 89.00
3938 42.7900 7884.00 7880.87 89.00
3939 42.8000 7882.00 7882.34 89.00
3940 42.8100 7912.00 7883.49 89.00
3941 42.8200 7874.00 7885.60 89.00
3942 42.8300 7832.00 7889.98 88.00
3943 42.8400 7906.00 7897.74 89.00
3944 42.8500 7847.00 7910.20 89.00
3945 42.8600 7914.00 7927.97 89.00
3946 42.8700 7992.00 7951.51 89.00
3947 42.8800 8021.00 7981.00 90.00
3948 42.8900 7993.00 8016.57 89.00
3949 42.9000 8017.00 8058.32 90.00
3950 42.9100 8039.00 8106.52 90.00
3951 42.9200 8114.00 8162.99 90.00
3952 42.9300 8170.00 8225.48 90.00
3953 42.9400 8219.00 8295.68 91.00
3954 42.9500 8299.00 8373.08 91.00
3955 42.9600 8385.00 8456.02 92.00
3956 42.9700 8459.00 8540.94 92.00
3957 42.9800 8603.00 8622.74 93.00
3958 42.9900 8678.00 8694.42 93.00
3959 43.0000 8748.00 8749.08 94.00
3960 43.0100 8742.00 8781.44 93.00
3961 43.0200 8792.00 8789.56 94.00
3962 43.0300 8764.00 8774.80 94.00
3963 43.0400 8700.00 8740.86 93.00
3964 43.0500 8736.00 8692.32 93.00
3965 43.0600 8620.00 8633.79 93.00
3966 43.0700 8502.00 8569.27 92.00
3967 43.0800 8413.00 8502.11 92.00
3968 43.0900 8332.00 8434.78 91.00
3969 43.1000 8290.00 8369.21 91.00
3970 43.1100 8313.00 8306.53 91.00
3971 43.1200 8211.00 8247.41 91.00
3972 43.1300 8129.00 8191.97 90.00
3973 43.1400 8109.00 8139.98 90.00
3974 43.1500 8007.00 8091.15 89.00
3975 43.1600 7993.00 8045.14 89.00
3976 43.1700 7955.00 8001.73 89.00
3977 43.1800 7948.00 7960.97 89.00
3978 43.1900 7858.00 7924.45 89.00
3979 43.2000 7863.00 7889.94 89.00
3980 43.2100 7819.00 7859.42 88.00
3981 43.2200 7812.00 7833.66 88.00
3982 43.2300 7792.00 7813.49 88.00
3983 43.2400 7817.00 7799.51 88.00
3984 43.2500 7721.00 7792.62 88.00
3985 43.2600 7793.00 7792.99 88.00
3986 43.2700 7797.00 7800.56 88.00
3987 43.2800 7849.00 7814.88 89.00
3988 43.2900 7908.00 7834.80 89.00
3989 43.3000 7930.00 7858.49 89.00
3990 43.3100 7892.00 7883.22 89.00
3991 43.3200 7952.00 7905.50 89.00
3992 43.3300 7932.00 7921.39 89.00
3993 43.3400 7962.00 7927.34 89.00
3994 43.3500 8019.00 7921.36 90.00
3995 43.3600 7998.00 7903.30 89.00
3996 43.3700 7887.00 7874.98 89.00
3997 43.3800 7837.00 7839.66 89.00
3998 43.3900 7781.00 7801.61 88.00
3999 43.4000 7742.00 7762.07 88.00
4000 43.4100 7792.00 7724.29 88.00
4001 43.4200 7771.00 7689.96 88.00
4002 43.4300 7678.00 7660.22 88.00
4003 43.4400 7672.00 7635.87 88.00
4004 43.4500 7667.00 7617.45 88.00
4005 43.4600 7678.00 7605.34 88.00
4006 43.4700 7601.00 7599.81 87.00
4007 43.4800 7620.00 7601.04 87.00
4008 43.4900 7622.00 7609.18 87.00
4009 43.5000 7715.00 7624.34 88.00
4010 43.5100 7702.00 7646.58 88.00
4011 43.5200 7735.00 7675.94 88.00
4012 43.5300 7855.00 7712.65 89.00
4013 43.5400 7850.00 7756.30 89.00
4014 43.5500 7899.00 7806.76 89.00
4015 43.5600 7980.00 7863.61 89.00
4016 43.5700 8096.00 7925.75 90.00
4017 43.5800 8136.00 7991.67 90.00
4018 43.5900 8264.00 8059.34 91.00
4019 43.6000 8277.00 8125.77 91.00
4020 43.6100 8344.00 8187.01 91.00
4021 43.6200 8349.00 8238.44 91.00
4022 43.6300 8375.00 8275.47 92.00
4023 43.6400 8379.00 8295.46 92.00
4024 43.6500 8401.00 8299.36 92.00
4025 43.6600 8387.00 8292.02 92.00
4026 43.6700 8276.00 8279.99 91.00
4027 43.6800 8277.00 8269.66 91.00
4028 43.6900 8253.00 8265.87 91.00
4029 43.7000 8267.00 8271.62 91.00
4030 43.7100 8327.00 8288.26 91.00
4031 43.7200 8360.00 8315.97 91.00
4032 43.7300 8340.00 8354.04 91.00
4033 43.7400 8457.00 8401.07 92.00
4034 43.7500 8503.00 8455.25 92.00
4035 43.7600 8583.00 8514.23 93.00
4036 43.7700 8633.00 8575.24 93.00
4037 43.7800 8778.00 8634.87 94.00
4038 43.7900 8774.00 8688.75 94.00
4039 43.8000 8859.00 8732.27 94.00
4040 43.8100 8821.00 8761.28 94.00
4041 43.8200 8805.00 8773.37 94.00
4042 43.8300 8839.00 8768.64 94.00
4043 43.8400 8751.00 8749.17 94.00
4044 43.8500 8652.00 8718.30 93.00
4045 43.8600 8642.00 8679.05 93.00
4046 43.8700 8552.00 8633.86 92.00
4047 43.8800 8473.00 8584.77 92.00
4048 43.8900 8488.00 8533.80 92.00
4049 43.9000 8434.00 8483.55 92.00
4050 43.9100 8358.00 8436.77 91.00
4051 43.9200 8359.00 8396.11 91.00
4052 43.9300 8345.00 8363.58 91.00
4053 43.9400 8309.00 8340.59 91.00
4054 43.9500 8382.00 8328.01 92.00
4055 43.9600 8385.00 8326.36 92.00
4056 43.9700 8409.00 8336.07 92.00
4057 43.9800 8381.00 8357.55 92.00
4058 43.9900 8461.00 8391.31 92.00
4059 44.0000 8523.00 8437.85 92.00
4060 44.0100 8611.00 8497.04 93.00
4061 44.0200 8686.00 8567.25 93.00
4062 44.0300 8661.00 8643.38 93.00
4063 44.0400 8693.00 8714.84 93.00
4064 44.0500 8696.00 8765.38 93.00
4065 44.0600 8725.00 8778.11 93.00
4066 44.0700 8740.00 8745.58 93.00
4067 44.0800 8653.00 8675.53 93.00
4068 44.0900 8517.00 8585.98 92.00
4069 44.1000 8469.00 8495.31 92.00
4070 44.1100 8405.00 8416.17 92.00
4071 44.1200 8387.00 8354.99 92.00
4072 44.1300 8343.00 8314.12 91.00
4073 44.1400 8378.00 8293.56 92.00
4074 44.1500 8346.00 8292.38 91.00
4075 44.1600 8384.00 8309.34 92.00
4076 44.1700 8388.00 8341.16 92.00
4077 44.1800 8493.00 8385.94 92.00
4078 44.1900 8564.00 8440.95 93.00
4079 44.2000 8615.00 8502.90 93.00
4080 44.2100 8629.00 8568.18 93.00
4081 44.2200 8746.00 8632.62 94.00
4082 44.2300 8772.00 8692.07 94.00
4083 44.2400 8834.00 8742.31 94.00
4084 44.2500 8945.00 8779.61 95.00
4085 44.2600 8907.00 8801.60 94.00
4086 44.2700 8825.00 8806.57 94.00
4087 44.2800 8816.00 8794.30 94.00
4088 44.2900 8735.00 8765.94 93.00
4089 44.3000 8739.00 8723.60 93.00
4090 44.3100 8687.00 8670.31 93.00
4091 44.3200 8590.00 8609.02 93.00
4092 44.3300 8492.00 8542.58 92.00
4093 44.3400 8414.00 8473.26 92.00
4094 44.3500 8376.00 8403.07 92.00
4095 44.3600 8312.00 8333.68 91.00
4096 44.3700 8310.00 8266.79 91.00
4097 44.3800 8241.00 8204.11 91.00
4098 44.3900 8086.00 8147.22 90.00
4099 44.4000 8068.00 8098.27 90.00
4100 44.4100 8028.00 8058.55 90.00
4101 44.4200 8026.00 8029.32 90.00
4102 44.4300 8123.00 8011.45 90.00
4103 44.4400 8108.00 8005.56 90.00
4104 44.4500 8037.00 8012.07 90.00
4105 44.4600 8067.00 8031.30 90.00
4106 44.4700 8099.00 8063.43 90.00
4107 44.4800 8198.00 8108.55 91.00
4108 44.4900 8271.00 8167.34 91.00
4109 44.5000 8383.00 8237.13 92.00
4110 44.5100 8403.00 8317.18 92.00
4111 44.5200 8528.00 8404.65 92.00
4112 44.5300 8612.00 8495.39 93.00
4113 44.5400 8832.00 8583.50 94.00
4114 44.5500 8899.00 8662.06 94.00
4115 44.5600 8991.00 8723.66 95.00
4116 44.5700 8913.00 8762.22 94.00
4117 44.5800 8918.00 8774.13 94.00
4118 44.5900 8840.00 8759.42 94.00
4119 44.6000 8736.00 8721.40 93.00
4120 44.6100 8711.00 8665.37 93.00
4121 44.6200 8583.00 8597.20 93.00
4122 44.6300 8428.00 8522.04 92.00
4123 44.6400 8408.00 8443.52 92.00
4124 44.6500 8307.00 8363.86 91.00
4125 44.6600 8220.00 8283.91 91.00
4126 44.6700 8225.00 8204.11 91.00
4127 44.6800 8123.00 8124.66 90.00
4128 44.6900 8013.00 8046.00 90.00
4129 44.7000 7945.00 7968.87 89.00
4130 44.7100 7869.00 7894.07 89.00
4131 44.7200 7852.00 7822.49 89.00
4132 44.7300 7789.00 7754.92 88.00
4133 44.7400 7703.00 7692.06 88.00
4134 44.7500 7649.00 7634.39 87.00
4135 44.7600 7593.00 7582.10 87.00
4136 44.7700 7560.00 7535.40 87.00
4137 44.7800 7503.00 7494.13 87.00
4138 44.7900 7524.00 7458.11 87.00
4139 44.8000 7509.00 7426.98 87.00
4140 44.8100 7456.00 7400.39 86.00
4141 44.8200 7392.00 7377.82 86.00
4142 44.8300 7350.00 7358.85 86.00
4143 44.8400 7375.00 7342.85 86.00
4144 44.8500 7438.00 7329.23 86.00
4145 44.8600 7417.00 7317.56 86.00
4146 44.8700 7378.00 7307.34 86.00
4147 44.8800 7386.00 7298.28 86.00
4148 44.8900 7398.00 7290.20 86.00
4149 44.9000 7373.00 7283.12 86.00
4150 44.9100 7370.00 7277.11 86.00
4151 44.9200 7350.00 7272.31 86.00
4152 44.9300 7331.00 7268.85 86.00
4153 44.9400 7300.00 7266.81 85.00
4154 44.9500 7316.00 7266.27 86.00
4155 44.9600 7311.00 7267.23 86.00
4156 44.9700 7345.00 7269.64 86.00
4157 44.9800 7336.00 7273.48 86.00
4158 44.9900 7292.00 7278.66 85.00
4159 45.0000 7393.00 7285.02 86.00
4160 45.0100 7345.00 7292.88 86.00
4161 45.0200 7361.00 7302.06 86.00
4162 45.0300 7403.00 7312.65 86.00
4163 45.0400 7429.00 7324.75 86.00
4164 45.0500 7392.00 7338.48 86.00
4165 45.0600 7473.00 7353.80 86.00
4166 45.0700 7455.00 7371.12 86.00
4167 45.0800 7483.00 7390.34 87.00
4168 45.0900 7524.00 7411.41 87.00
4169 45.1000 7511.00 7434.25 87.00
4170 45.1100 7507.00 7458.61 87.00
4171 45.1200 7538.00 7484.19 87.00
4172 45.1300 7602.00 7510.45 87.00
4173 45.1400 7654.00 7536.78 87.00
4174 45.1500 7676.00 7562.36 88.00
4175 45.1600 7701.00 7586.21 88.00
4176 45.1700 7649.00 7607.69 87.00
4177 45.1800 7675.00 7626.11 88.00
4178 45.1900 7639.00 7641.22 87.00
4179 45.2000 7679.00 7653.27 88.00
4180 45.2100 7726.00 7662.90 88.00
4181 45.2200 7704.00 7670.98 88.00
4182 45.2300 7662.00 7678.43 88.00
4183 45.2400 7721.00 7686.02 88.00
4184 45.2500 7732.00 7694.26 88.00
4185 45.2600 7723.00 7703.33 88.00
4186 45.2700 7777.00 7713.16 88.00
4187 45.2800 7820.00 7723.39 88.00
4188 45.2900 7789.00 7733.52 88.00
4189 45.3000 7798.00 7742.94 88.00
4190 45.3100 7797.00 7751.05 88.00
4191 45.3200 7825.00 7757.35 88.00
4192 45.3300 7871.00 7761.53 89.00
4193 45.3400 7882.00 7763.48 89.00
4194 45.3500 7785.00 7763.29 88.00
4195 45.3600 7842.00 7761.25 89.00
4196 45.3700 7783.00 7757.78 88.00
4197 45.3800 7753.00 7753.39 88.00
4198 45.3900 7850.00 7748.59 89.00
4199 45.4000 7843.00 7743.89 89.00
4200 45.4100 7818.00 7739.69 88.00
4201 45.4200 7847.00 7736.26 89.00
4202 45.4300 7735.00 7733.68 88.00
4203 45.4400 7801.00 7732.03 88.00
4204 45.4500 7823.00 7731.07 88.00
4205 45.4600 7802.00 7730.60 88.00
4206 45.4700 7748.00 7730.41 88.00
4207 45.4800 7806.00 7730.49 88.00
4208 45.4900 7772.00 7731.04 88.00
4209 45.5000 7822.00 7732.56 88.00
4210 45.5100 7753.00 7735.77 88.00
4211 45.5200 7825.00 7741.44 88.00
4212 45.5300 7727.00 7750.20 88.00
4213 45.5400 7814.00 7762.60 88.00
4214 45.5500 7778.00 7778.55 88.00
4215 45.5600 7873.00 7797.44 89.00
4216 45.5700 7918.00 7818.04 89.00
4217 45.5800 7936.00 7838.44 89.00
4218 45.5900 7900.00 7856.29 89.00
4219 45.6000 7938.00 7869.10 89.00
4220 45.6100 7959.00 7874.79 89.00
4221 45.6200 7901.00 7872.02 89.00
4222 45.6300 7962.00 7861.17 89.00
4223 45.6400 7915.00 7843.80 89.00
4224 45.6500 7849.00 7822.19 89.00
4225 45.6600 7850.00 7798.97 89.00
4226 45.6700 7818.00 7776.53 88.00
4227 45.6800 7816.00 7756.58 88.00
4228 45.6900 7866.00 7740.47 89.00
4229 45.7000 7858.00 7728.70 89.00
4230 45.7100 7773.00 7721.37 88.00
4231 45.7200 7803.00 7718.24 88.00
4232 45.7300 7799.00 7719.45 88.00
4233 45.7400 7818.00 7723.00 88.00
4234 45.7500 7862.00 7728.72 89.00
4235 45.7600 7899.00 7735.70 89.00
4236 45.7700 7815.00 7743.02 88.00
4237 45.7800 7818.00 7749.76 88.00
4238 45.7900 7824.00 7755.00 88.00
4239 45.8000 7829.00 7757.93 88.00
4240 45.8100 7873.00 7757.81 89.00
4241 45.8200 7821.00 7753.99 88.00
4242 45.8300 7792.00 7745.93 88.00
4243 45.8400 7811.00 7733.42 88.00
4244 45.8500 7736.00 7716.29 88.00
4245 45.8600 7712.00 7694.65 88.00
4246 45.8700 7733.00 7668.81 88.00
4247 45.8800 7673.00 7639.30 88.00
4248 45.8900 7584.00 7606.78 87.00
4249 45.9000 7578.00 7572.72 87.00
4250 45.9100 7463.00 7536.57 86.00
4251 45.9200 7502.00 7499.87 87.00
4252 45.9300 7495.00 7463.43 87.00
4253 45.9400 7451.00 7427.94 86.00
4254 45.9500 7399.00 7394.08 86.00
4255 45.9600 7344.00 7362.39 86.00
4256 45.9700 7323.00 7333.36 86.00
4257 45.9800 7316.00 7307.34 86.00
4258 45.9900 7348.00 7284.72 86.00
4259 46.0000 7298.00 7265.81 85.00
4260 46.0100 7263.00 7250.95 85.00
4261 46.0200 7297.00 7240.49 85.00
4262 46.0300 7276.00 7234.83 85.00
4263 46.0400 7298.00 7234.49 85.00
4264 46.0500 7351.00 7239.94 86.00
4265 46.0600 7339.00 7252.01 86.00
4266 46.0700 7305.00 7271.37 85.00
4267 46.0800 7362.00 7298.77 86.00
4268 46.0900 7418.00 7335.11 86.00
4269 46.1000 7444.00 7381.11 86.00
4270 46.1100 7572.00 7437.36 87.00
4271 46.1200 7606.00 7504.10 87.00
4272 46.1300 7629.00 7580.88 87.00
4273 46.1400 7694.00 7666.09 88.00
4274 46.1500 7781.00 7756.15 88.00
4275 46.1600 7850.00 7845.31 89.00
4276 46.1700 7996.00 7925.22 89.00
4277 46.1800 8027.00 7986.90 90.00
4278 46.1900 8008.00 8023.48 89.00
4279 46.2000 7994.00 8033.26 89.00
4280 46.2100 7988.00 8020.45 89.00
4281 46.2200 7957.00 7993.17 89.00
4282 46.2300 7952.00 7960.33 89.00
4283 46.2400 7877.00 7929.41 89.00
4284 46.2500 7821.00 7905.68 88.00
4285 46.2600 7871.00 7892.31 89.00
4286 46.2700 7888.00 7890.69 89.00
4287 46.2800 7951.00 7900.86 89.00
4288 46.2900 8069.00 7921.82 90.00
4289 46.3000 8050.00 7951.87 90.00
4290 46.3100 8032.00 7989.07 90.00
4291 46.3200 8048.00 8031.83 90.00
4292 46.3300 8128.00 8079.12 90.00
4293 46.3400 8198.00 8130.84 91.00
4294 46.3500 8266.00 8187.29 91.00
4295 46.3600 8285.00 8248.73 91.00
4296 46.3700 8323.00 8314.31 91.00
4297 46.3800 8378.00 8381.08 92.00
4298 46.3900 8442.00 8443.64 92.00
4299 46.4000 8454.00 8493.77 92.00
4300 46.4100 8473.00 8522.91 92.00
4301 46.4200 8530.00 8523.87 92.00
4302 46.4300 8389.00 8494.25 92.00
4303 46.4400 8351.00 8437.42 91.00
4304 46.4500 8225.00 8361.09 91.00
4305 46.4600 8153.00 8274.37 90.00
4306 46.4700 8166.00 8185.59 90.00
4307 46.4800 8025.00 8100.76 90.00
4308 46.4900 7913.00 8023.83 89.00
4309 46.5000 7891.00 7956.81 89.00
4310 46.5100 7838.00 7900.46 89.00
4311 46.5200 7786.00 7854.65 88.00
4312 46.5300 7824.00 7818.78 88.00
4313 46.5400 7793.00 7791.96 88.00
4314 46.5500 7722.00 7773.05 88.00
4315 46.5600 7796.00 7760.93 88.00
4316 46.5700 7707.00 7754.25 88.00
4317 46.5800 7801.00 7751.59 88.00
4318 46.5900 7838.00 7751.30 89.00
4319 46.6000 7823.00 7751.66 88.00
4320 46.6100 7720.00 7750.94 88.00
4321 46.6200 7741.00 7747.62 88.00
4322 46.6300 7709.00 7740.70 88.00
4323 46.6400 7733.00 7730.04 88.00
4324 46.6500 7717.00 7716.82 88.00
4325 46.6600 7712.00 7701.08 88.00
4326 46.6700 7564.00 7685.16 87.00
4327 46.6800 7614.00 7670.90 87.00
4328 46.6900 7629.00 7660.01 87.00
4329 46.7000 7698.00 7653.94 88.00
4330 46.7100 7664.00 7653.66 88.00
4331 46.7200 7661.00 7659.65 88.00
4332 46.7300 7641.00 7671.81 87.00
4333 46.7400 7699.00 7689.83 88.00
4334 46.7500 7707.00 7713.68 88.00
4335 46.7600 7736.00 7743.92 88.00
4336 46.7700 7818.00 7781.22 88.00
4337 46.7800 7851.00 7825.35 89.00
4338 46.7900 7829.00 7874.30 88.00
4339 46.8000 7878.00 7923.97 89.00
4340 46.8100 7905.00 7968.87 89.00
4341 46.8200 7939.00 8004.19 89.00
4342 46.8300 7990.00 8028.13 89.00
4343 46.8400 8021.00 8042.79 90.00
4344 46.8500 7988.00 8052.71 89.00
4345 46.8600 7982.00 8062.56 89.00
4346 46.8700 8062.00 8075.27 90.00
4347 46.8800 8106.00 8091.87 90.00
4348 46.8900 8171.00 8111.91 90.00
4349 46.9000 8193.00 8133.95 91.00
4350 46.9100 8144.00 8156.27 90.00
4351 46.9200 8176.00 8177.27 90.00
4352 46.9300 8188.00 8195.79 90.00
4353 46.9400 8193.00 8211.27 91.00
4354 46.9500 8242.00 8223.84 91.00
4355 46.9600 8212.00 8232.38 91.00
4356 46.9700 8165.00 8236.80 90.00
4357 46.9800 8214.00 8236.13 91.00
4358 46.9900 8158.00 8228.97 90.00
4359 47.0000 8177.00 8213.98 90.00
4360 47.0100 8156.00 8190.39 90.00
4361 47.0200 8153.00 8158.36 90.00
4362 47.0300 8046.00 8119.12 90.00
4363 47.0400 8021.00 8074.75 90.00
4364 47.0500 7940.00 8027.63 89.00
4365 47.0600 7835.00 7980.07 89.00
4366 47.0700 7860.00 7933.89 89.00
4367 47.0800 7816.00 7890.37 88.00
4368 47.0900 7745.00 7850.26 88.00
4369 47.1000 7686.00 7813.98 88.00
4370 47.1100 7694.00 7781.58 88.00
4371 47.1200 7727.00 7753.04 88.00
4372 47.1300 7713.00 7728.29 88.00
4373 47.1400 7670.00 7707.23 88.00
4374 47.1500 7601.00 7689.82 87.00
4375 47.1600 7632.00 7675.99 87.00
4376 47.1700 7616.00 7665.55 87.00
4377 47.1800 7598.00 7658.63 87.00
4378 47.1900 7657.00 7654.82 88.00
4379 47.2000 7706.00 7653.77 88.00
4380 47.2100 7657.00 7654.92 88.00
4381 47.2200 7665.00 7657.96 88.00
4382 47.2300 7663.00 7662.31 88.00
4383 47.2400 7702.00 7667.45 88.00
4384 47.2500 7698.00 7672.86 88.00
4385 47.2600 7740.00 7677.97 88.00
4386 47.2700 7624.00 7682.12 87.00
4387 47.2800 7677.00 7684.52 88.00
4388 47.2900 7629.00 7684.27 87.00
4389 47.3000 7688.00 7680.42 88.00
4390 47.3100 7666.00 7672.25 88.00
4391 47.3200 7676.00 7659.60 88.00
4392 47.3300 7616.00 7643.22 87.00
4393 47.3400 7627.00 7624.46 87.00
4394 47.3500 7579.00 7604.95 87.00
4395 47.3600 7572.00 7585.98 87.00
4396 47.3700 7550.00 7568.38 87.00
4397 47.3800 7540.00 7552.38 87.00
4398 47.3900 7484.00 7538.14 87.00
4399 47.4000 7533.00 7525.26 87.00
4400 47.4100 7486.00 7513.14 87.00
4401 47.4200 7482.00 7501.17 86.00
4402 47.4300 7523.00 7488.68 87.00
4403 47.4400 7466.00 7475.09 86.00
4404 47.4500 7399.00 7460.02 86.00
4405 47.4600 7404.00 7443.12 86.00
4406 47.4700 7388.00 7424.90 86.00
4407 47.4800 7374.00 7405.50 86.00
4408 47.4900 7421.00 7385.43 86.00
4409 47.5000 7396.00 7365.24 86.00
4410 47.5100 7352.00 7345.56 86.00
4411 47.5200 7303.00 7326.93 85.00
4412 47.5300 7278.00 7309.71 85.00
4413 47.5400 7271.00 7294.50 85.00
4414 47.5500 7269.00 7281.48 85.00
4415 47.5600 7263.00 7270.86 85.00
4416 47.5700 7207.00 7262.77 85.00
4417 47.5800 7256.00 7257.20 85.00
4418 47.5900 7212.00 7254.22 85.00
4419 47.6000 7251.00 7253.76 85.00
4420 47.6100 7273.00 7255.75 85.00
4421 47.6200 7315.00 7259.95 86.00
4422 47.6300 7275.00 7266.72 85.00
4423 47.6400 7278.00 7275.92 85.00
4424 47.6500 7309.00 7287.56 85.00
4425 47.6600 7327.00 7301.71 86.00
4426 47.6700 7364.00 7318.34 86.00
4427 47.6800 7382.00 7337.52 86.00
4428 47.6900 7355.00 7359.04 86.00
4429 47.7000 7412.00 7382.67 86.00
4430 47.7100 7459.00 7407.96 86.00
4431 47.7200 7492.00 7434.33 87.00
4432 47.7300 7567.00 7461.07 87.00
4433 47.7400 7633.00 7487.28 87.00
4434 47.7500 7545.00 7512.04 87.00
4435 47.7600 7579.00 7534.43 87.00
4436 47.7700 7568.00 7553.69 87.00
4437 47.7800 7623.00 7569.22 87.00
4438 47.7900 7654.00 7580.63 87.00
4439 47.8000 7620.00 7587.77 87.00
4440 47.8100 7565.00 7590.66 87.00
4441 47.8200 7594.00 7589.54 87.00
4442 47.8300 7556.00 7584.80 87.00
4443 47.8400 7559.00 7577.04 87.00
4444 47.8500 7590.00 7566.96 87.00
4445 47.8600 7554.00 7555.20 87.00
4446 47.8700 7523.00 7542.24 87.00
4447 47.8800 7508.00 7528.18 87.00
4448 47.8900 7482.00 7512.69 86.00
4449 47.9000 7462.00 7495.07 86.00
4450 47.9100 7508.00 7474.41 87.00
4451 47.9200 7450.00 7450.02 86.00
4452 47.9300 7369.00 7421.74 86.00
4453 47.9400 7331.00 7390.04 86.00
4454 47.9500 7318.00 7355.95 86.00
4455 47.9600 7328.00 7320.73 86.00
4456 47.9700 7244.00 7285.68 85.00
4457 47.9800 7242.00 7251.79 85.00
4458 47.9900 7211.00 7219.78 85.00
4459 48.0000 7198.00 7190.20 85.00
4460 48.0100 7197.00 7163.31 85.00
4461 48.0200 7165.00 7139.23 85.00
4462 48.0300 7131.00 7118.03 84.00
4463 48.0400 7128.00 7099.66 84.00
4464 48.0500 7070.00 7084.04 84.00
4465 48.0600 7086.00 7071.32 84.00
4466 48.0700 7071.00 7060.81 84.00
4467 48.0800 7060.00 7052.66 84.00
4468 48.0900 7116.00 7046.75 84.00
4469 48.1000 7116.00 7043.02 84.00
4470 48.1100 7036.00 7041.46 84.00
4471 48.1200 7053.00 7041.98 84.00
4472 48.1300 7049.00 7044.88 84.00
4473 48.1400 7054.00 7050.08 84.00
4474 48.1500 7082.00 7057.60 84.00
4475 48.1600 7115.00 7067.42 84.00
4476 48.1700 7149.00 7079.42 85.00
4477 48.1800 7109.00 7093.45 84.00
4478 48.1900 7119.00 7109.17 84.00
4479 48.2000 7146.00 7126.33 85.00
4480 48.2100 7208.00 7144.44 85.00
4481 48.2200 7181.00 7163.05 85.00
4482 48.2300 7189.00 7181.88 85.00
4483 48.2400 7203.00 7200.66 85.00
4484 48.2500 7206.00 7219.24 85.00
4485 48.2600 7244.00 7237.08 85.00
4486 48.2700 7306.00 7253.39 85.00
4487 48.2800 7333.00 7267.24 86.00
4488 48.2900 7281.00 7278.32 85.00
4489 48.3000 7289.00 7284.80 85.00
4490 48.3100 7334.00 7287.21 86.00
4491 48.3200 7245.00 7286.22 85.00
4492 48.3300 7306.00 7282.78 85.00
4493 48.3400 7284.00 7278.13 85.00
4494 48.3500 7290.00 7273.54 85.00
4495 48.3600 7261.00 7270.10 85.00
4496 48.3700 7242.00 7268.69 85.00
4497 48.3800 7221.00 7269.89 85.00
4498 48.3900 7246.00 7273.99 85.00
4499 48.4000 7294.00 7280.92 85.00
4500 48.4100 7260.00 7290.26 85.00
4501 48.4200 7259.00 7301.16 85.00
4502 48.4300 7312.00 7312.47 86.00
4503 48.4400 7369.00 7323.42 86.00
4504 48.4500 7345.00 7331.43 86.00
4505 48.4600 7387.00 7336.16 86.00
4506 48.4700 7292.00 7337.31 85.00
4507 48.4800 7322.00 7335.33 86.00
4508 48.4900 7271.00 7331.27 85.00
4509 48.5000 7299.00 7326.46 85.00
4510 48.5100 7341.00 7322.21 86.00
4511 48.5200 7394.00 7319.60 86.00
4512 48.5300 7263.00 7319.41 85.00
4513 48.5400 7319.00 7321.98 86.00
4514 48.5500 7278.00 7327.69 85.00
4515 48.5600 7324.00 7336.29 86.00
4516 48.5700 7352.00 7347.42 86.00
4517 48.5800 7375.00 7360.47 86.00
4518 48.5900 7353.00 7374.65 86.00
4519 48.6000 7359.00 7389.06 86.00
4520 48.6100 7395.00 7402.79 86.00
4521 48.6200 7421.00 7414.97 86.00
4522 48.6300 7461.00 7424.95 86.00
4523 48.6400 7435.00 7432.34 86.00
4524 48.6500 7375.00 7437.11 86.00
4525 48.6600 7400.00 7439.59 86.00
4526 48.6700 7427.00 7440.36 86.00
4527 48.6800 7412.00 7440.21 86.00
4528 48.6900 7412.00 7439.98 86.00
4529 48.7000 7440.00 7440.40 86.00
4530 48.7100 7390.00 7442.10 86.00
4531 48.7200 7353.00 7445.41 86.00
4532 48.7300 7365.00 7450.36 86.00
4533 48.7400 7442.00 7456.49 86.00
4534 48.7500 7486.00 7462.84 87.00
4535 48.7600 7476.00 7467.98 86.00
4536 48.7700 7441.00 7470.34 86.00
4537 48.7800 7430.00 7468.82 86.00
4538 48.7900 7418.00 7463.27 86.00
4539 48.8000 7433.00 7454.77 86.00
4540 48.8100 7453.00 7444.90 86.00
4541 48.8200 7436.00 7435.32 86.00
4542 48.8300 7355.00 7427.34 86.00
4543 48.8400 7372.00 7421.73 86.00
4544 48.8500 7396.00 7418.90 86.00
4545 48.8600 7446.00 7418.98 86.00
4546 48.8700 7442.00 7421.89 86.00
4547 48.8800 7450.00 7427.49 86.00
4548 48.8900 7419.00 7435.54 86.00
4549 48.9000 7497.00 7445.82 87.00
4550 48.9100 7480.00 7458.06 86.00
4551 48.9200 7503.00 7471.99 87.00
4552 48.9300 7491.00 7487.30 87.00
4553 48.9400 7528.00 7503.67 87.00
4554 48.9500 7484.00 7520.70 87.00
4555 48.9600 7506.00 7537.89 87.00
4556 48.9700 7467.00 7554.60 86.00
4557 48.9800 7520.00 7570.13 87.00
4558 48.9900 7551.00 7583.68 87.00
4559 49.0000 7559.00 7594.65 87.00
4560 49.0100 7504.00 7602.65 87.00
4561 49.0200 7560.00 7607.60 87.00
4562 49.0300 7542.00 7609.58 87.00
4563 49.0400 7548.00 7608.71 87.00
4564 49.0500 7622.00 7604.89 87.00
4565 49.0600 7599.00 7598.09 87.00
4566 49.0700 7531.00 7588.14 87.00
4567 49.0800 7500.00 7575.05 87.00
4568 49.0900 7456.00 7559.02 86.00
4569 49.1000 7476.00 7540.51 86.00
4570 49.1100 7464.00 7520.16 86.00
4571 49.1200 7463.00 7498.60 86.00
4572 49.1300 7401.00 7476.47 86.00
4573 49.1400 7356.00 7454.26 86.00
4574 49.1500 7336.00 7432.35 86.00
4575 49.1600 7301.00 7410.91 85.00
4576 49.1700 7316.00 7390.56 86.00
4577 49.1800 7301.00 7370.45 85.00
4578 49.1900 7262.00 7351.11 85.00
4579 49.2000 7197.00 7332.59 85.00
4580 49.2100 7220.00 7315.00 85.00
4581 49.2200 7187.00 7298.49 85.00
4582 49.2300 7249.00 7283.17 85.00
4583 49.2400 7204.00 7269.20 85.00
4584 49.2500 7182.00 7256.67 85.00
4585 49.2600 7191.00 7245.81 85.00
4586 49.2700 7190.00 7236.70 85.00
4587 49.2800 7192.00 7229.38 85.00
4588 49.2900 7225.00 7223.88 85.00
4589 49.3000 7209.00 7220.15 85.00
4590 49.3100 7161.00 7218.08 85.00
4591 49.3200 7167.00 7217.51 85.00
4592 49.3300 7176.00 7218.25 85.00
4593 49.3400 7182.00 7220.05 85.00
4594 49.3500 7229.00 7222.65 85.00
4595 49.3600 7206.00 7225.72 85.00
4596 49.3700 7187.00 7228.86 85.00
4597 49.3800 7168.00 7231.74 85.00
4598 49.3900 7203.00 7233.94 85.00
4599 49.4000 7221.00 7235.08 85.00
4600 49.4100 7227.00 7234.90 85.00
4601 49.4200 7199.00 7233.26 85.00
4602 49.4300 7191.00 7230.18 85.00
4603 49.4400 7243.00 7226.42 85.00
4604 49.4500 7152.00 7221.15 85.00
4605 49.4600 7171.00 7215.29 85.00
4606 49.4700 7224.00 7209.32 85.00
4607 49.4800 7167.00 7203.56 85.00
4608 49.4900 7152.00 7198.59 85.00
4609 49.5000 7138.00 7194.65 84.00
4610 49.5100 7128.00 7191.99 84.00
4611 49.5200 7184.00 7190.80 85.00
4612 49.5300 7255.00 7191.17 85.00
4613 49.5400 7237.00 7193.08 85.00
4614 49.5500 7189.00 7196.46 85.00
4615 49.5600 7227.00 7201.09 85.00
4616 49.5700 7240.00 7206.72 85.00
4617 49.5800 7208.00 7213.03 85.00
4618 49.5900 7273.00 7219.65 85.00
4619 49.6000 7243.00 7226.21 85.00
4620 49.6100 7231.00 7232.42 85.00
4621 49.6200 7205.00 7238.09 85.00
4622 49.6300 7237.00 7243.17 85.00
4623 49.6400 7216.00 7247.74 85.00
4624 49.6500 7318.00 7251.99 86.00
4625 49.6600 7287.00 7256.19 85.00
4626 49.6700 7218.00 7260.56 85.00
4627 49.6800 7235.00 7265.28 85.00
4628 49.6900 7220.00 7270.42 85.00
4629 49.7000 7254.00 7275.92 85.00
4630 49.7100 7303.00 7281.64 85.00
4631 49.7200 7265.00 7287.34 85.00
4632 49.7300 7215.00 7292.82 85.00
4633 49.7400 7280.00 7297.84 85.00
4634 49.7500 7224.00 7302.21 85.00
4635 49.7600 7244.00 7305.75 85.00
4636 49.7700 7291.00 7308.26 85.00
4637 49.7800 7271.00 7309.53 85.00
4638 49.7900 7181.00 7309.29 85.00
4639 49.8000 7247.00 7307.30 85.00
4640 49.8100 7217.00 7303.30 85.00
4641 49.8200 7251.00 7297.13 85.00
4642 49.8300 7249.00 7288.50 85.00
4643 49.8400 7251.00 7277.91 85.00
4644 49.8500 7166.00 7265.38 85.00
4645 49.8600 7206.00 7251.23 85.00
4646 49.8700 7173.00 7235.88 85.00
4647 49.8800 7203.00 7219.70 85.00
4648 49.8900 7194.00 7202.92 85.00
4649 49.9000 7151.00 7185.62 85.00
4650 49.9100 7098.00 7167.69 84.00
4651 49.9200 7069.00 7148.94 84.00
4652 49.9300 7091.00 7129.15 84.00
4653 49.9400 7055.00 7108.25 84.00
4654 49.9500 7094.00 7086.38 84.00
4655 49.9600 7068.00 7063.81 84.00
4656 49.9700 6970.00 7041.01 83.00
4657 49.9800 6955.00 7018.41 83.00
4658 49.9900 6941.00 6996.47 83.00
4659 50.0000 6934.00 6975.52 83.00
4660 50.0100 6997.00 6955.85 84.00
4661 50.0200 6956.00 6937.76 83.00
4662 50.0300 6913.00 6921.48 83.00
4663 50.0400 6896.00 6907.17 83.00
4664 50.0500 6883.00 6895.15 83.00
4665 50.0600 6870.00 6885.45 83.00
4666 50.0700 6919.00 6878.10 83.00
4667 50.0800 6904.00 6873.09 83.00
4668 50.0900 6870.00 6870.43 83.00
4669 50.1000 6899.00 6870.10 83.00
4670 50.1100 6882.00 6872.05 83.00
4671 50.1200 6879.00 6876.22 83.00
4672 50.1300 6949.00 6882.54 83.00
4673 50.1400 6978.00 6890.88 84.00
4674 50.1500 6942.00 6901.14 83.00
4675 50.1600 6962.00 6913.11 83.00
4676 50.1700 7010.00 6926.49 84.00
4677 50.1800 6987.00 6940.89 84.00
4678 50.1900 7022.00 6955.79 84.00
4679 50.2000 7030.00 6970.53 84.00
4680 50.2100 7007.00 6984.37 84.00
4681 50.2200 7071.00 6996.59 84.00
4682 50.2300 7057.00 7006.44 84.00
4683 50.2400 7063.00 7013.40 84.00
4684 50.2500 7106.00 7017.18 84.00
4685 50.2600 7090.00 7017.72 84.00
4686 50.2700 7063.00 7015.70 84.00
4687 50.2800 7086.00 7011.43 84.00
4688 50.2900 7065.00 7005.53 84.00
4689 50.3000 7033.00 6998.72 84.00
4690 50.3100 7051.00 6991.71 84.00
4691 50.3200 7024.00 6985.02 84.00
4692 50.3300 6988.00 6979.56 84.00
4693 50.3400 6994.00 6975.70 84.00
4694 50.3500 6991.00 6973.84 84.00
4695 50.3600 6996.00 6974.25 84.00
4696 50.3700 7057.00 6977.15 84.00
4697 50.3800 7037.00 6982.56 84.00
4698 50.3900 6982.00 6990.42 84.00
4699 50.4000 7019.00 7000.55 84.00
4700 50.4100 7067.00 7012.73 84.00
4701 50.4200 7071.00 7026.71 84.00
4702 50.4300 7134.00 7042.36 84.00
4703 50.4400 7118.00 7059.69 84.00
4704 50.4500 7123.00 7078.86 84.00
4705 50.4600 7131.00 7100.13 84.00
4706 50.4700 7180.00 7123.79 85.00
4707 50.4800 7206.00 7150.05 85.00
4708 50.4900 7249.00 7179.03 85.00
4709 50.5000 7292.00 7210.79 85.00
4710 50.5100 7304.00 7245.26 85.00
4711 50.5200 7296.00 7282.30 85.00
4712 50.5300 7400.00 7321.73 86.00
4713 50.5400 7434.00 7363.18 86.00
4714 50.5500 7499.00 7406.16 87.00
4715 50.5600 7492.00 7450.08 87.00
4716 50.5700 7513.00 7494.13 87.00
4717 50.5800 7561.00 7537.26 87.00
4718 50.5900 7581.00 7578.41 87.00
4719 50.6000 7616.00 7616.40 87.00
4720 50.6100 7627.00 7650.25 87.00
4721 50.6200 7671.00 7679.17 88.00
4722 50.6300 7652.00 7702.25 87.00
4723 50.6400 7649.00 7718.65 87.00
4724 50.6500 7636.00 7727.32 87.00
4725 50.6600 7705.00 7727.26 88.00
4726 50.6700 7718.00 7718.11 88.00
4727 50.6800 7674.00 7700.00 88.00
4728 50.6900 7608.00 7673.96 87.00
4729 50.7000 7579.00 7641.77 87.00
4730 50.7100 7528.00 7605.54 87.00
4731 50.7200 7498.00 7567.43 87.00
4732 50.7300 7524.00 7529.59 87.00
4733 50.7400 7436.00 7493.77 86.00
4734 50.7500 7365.00 7461.26 86.00
4735 50.7600 7386.00 7433.01 86.00
4736 50.7700 7332.00 7409.65 86.00
4737 50.7800 7406.00 7391.37 86.00
4738 50.7900 7401.00 7378.39 86.00
4739 50.8000 7366.00 7370.32 86.00
4740 50.8100 7337.00 7366.63 86.00
4741 50.8200 7324.00 7366.50 86.00
4742 50.8300 7320.00 7368.70 86.00
4743 50.8400 7356.00 7371.78 86.00
4744 50.8500 7364.00 7373.83 86.00
4745 50.8600 7369.00 7372.97 86.00
4746 50.8700 7340.00 7368.35 86.00
4747 50.8800 7351.00 7358.03 86.00
4748 50.8900 7322.00 7343.15 86.00
4749 50.9000 7256.00 7325.12 85.00
4750 50.9100 7313.00 7305.60 86.00
4751 50.9200 7307.00 7286.15 85.00
4752 50.9300 7269.00 7267.95 85.00
4753 50.9400 7242.00 7251.59 85.00
4754 50.9500 7201.00 7237.98 85.00
4755 50.9600 7247.00 7227.25 85.00
4756 50.9700 7257.00 7219.50 85.00
4757 50.9800 7232.00 7214.77 85.00
4758 50.9900 7218.00 7213.06 85.00
4759 51.0000 7225.00 7215.15 85.00
4760 51.0100 7194.00 7219.28 85.00
4761 51.0200 7266.00 7226.21 85.00
4762 51.0300 7259.00 7235.80 85.00
4763 51.0400 7313.00 7247.90 86.00
4764 51.0500 7254.00 7262.40 85.00
4765 51.0600 7299.00 7279.08 85.00
4766 51.0700 7330.00 7297.67 86.00
4767 51.0800 7351.00 7317.86 86.00
4768 51.0900 7367.00 7339.26 86.00
4769 51.1000 7354.00 7361.40 86.00
4770 51.1100 7355.00 7383.71 86.00
4771 51.1200 7432.00 7405.57 86.00
4772 51.1300 7403.00 7426.32 86.00
4773 51.1400 7453.00 7445.40 86.00
4774 51.1500 7473.00 7462.40 86.00
4775 51.1600 7554.00 7477.19 87.00
4776 51.1700 7443.00 7489.92 86.00
4777 51.1800 7424.00 7500.78 86.00
4778 51.1900 7480.00 7509.94 86.00
4779 51.2000 7481.00 7517.45 86.00
4780 51.2100 7536.00 7523.00 87.00
4781 51.2200 7565.00 7526.03 87.00
4782 51.2300 7525.00 7525.72 87.00
4783 51.2400 7466.00 7521.19 86.00
4784 51.2500 7503.00 7511.75 87.00
4785 51.2600 7457.00 7497.14 86.00
4786 51.2700 7453.00 7477.67 86.00
4787 51.2800 7398.00 7454.17 86.00
4788 51.2900 7390.00 7427.82 86.00
4789 51.3000 7314.00 7399.97 86.00
4790 51.3100 7290.00 7371.88 85.00
4791 51.3200 7287.00 7344.64 85.00
4792 51.3300 7302.00 7319.04 85.00
4793 51.3400 7254.00 7295.67 85.00
4794 51.3500 7197.00 7274.94 85.00
4795 51.3600 7199.00 7257.04 85.00
4796 51.3700 7182.00 7242.03 85.00
4797 51.3800 7184.00 7229.83 85.00
4798 51.3900 7227.00 7220.26 85.00
4799 51.4000 7210.00 7213.01 85.00
4800 51.4100 7132.00 7207.76 84.00
4801 51.4200 7164.00 7204.16 85.00
4802 51.4300 7177.00 7201.98 85.00
4803 51.4400 7168.00 7201.05 85.00
4804 51.4500 7207.00 7201.44 85.00
4805 51.4600 7206.00 7203.32 85.00
4806 51.4700 7185.00 7207.00 85.00
4807 51.4800 7191.00 7212.85 85.00
4808 51.4900 7191.00 7221.19 85.00
4809 51.5000 7209.00 7232.33 85.00
4810 51.5100 7233.00 7246.41 85.00
4811 51.5200 7266.00 7263.42 85.00
4812 51.5300 7239.00 7283.38 85.00
4813 51.5400 7291.00 7305.89 85.00
4814 51.5500 7299.00 7330.51 85.00
4815 51.5600 7320.00 7356.49 86.00
4816 51.5700 7437.00 7382.96 86.00
4817 51.5800 7470.00 7408.76 86.00
4818 51.5900 7412.00 7432.70 86.00
4819 51.6000 7420.00 7453.45 86.00
4820 51.6100 7465.00 7469.84 86.00
4821 51.6200 7486.00 7480.84 87.00
4822 51.6300 7515.00 7485.97 87.00
4823 51.6400 7539.00 7484.88 87.00
4824 51.6500 7443.00 7477.62 86.00
4825 51.6600 7419.00 7464.56 86.00
4826 51.6700 7422.00 7446.26 86.00
4827 51.6800 7406.00 7423.34 86.00
4828 51.6900 7387.00 7396.74 86.00
4829 51.7000 7337.00 7367.18 86.00
4830 51.7100 7253.00 7335.39 85.00
4831 51.7200 7233.00 7302.33 85.00
4832 51.7300 7183.00 7268.36 85.00
4833 51.7400 7196.00 7234.36 85.00
4834 51.7500 7181.00 7200.94 85.00
4835 51.7600 7158.00 7168.76 85.00
4836 51.7700 7035.00 7138.28 84.00
4837 51.7800 7084.00 7110.16 84.00
4838 51.7900 7023.00 7084.68 84.00
4839 51.8000 7046.00 7062.04 84.00
4840 51.8100 7068.00 7042.52 84.00
4841 51.8200 7074.00 7026.12 84.00
4842 51.8300 6978.00 7012.86 84.00
4843 51.8400 6966.00 7002.68 83.00
4844 51.8500 6984.00 6995.45 84.00
4845 51.8600 6991.00 6990.99 84.00
4846 51.8700 7010.00 6989.00 84.00
4847 51.8800 7020.00 6989.19 84.00
4848 51.8900 6984.00 6991.13 84.00
4849 51.9000 7001.00 6994.32 84.00
4850 51.9100 7047.00 6998.21 84.00
4851 51.9200 7046.00 7002.18 84.00
4852 51.9300 7073.00 7005.62 84.00
4853 51.9400 7089.00 7008.03 84.00
4854 51.9500 7035.00 7009.05 84.00
4855 51.9600 7055.00 7008.51 84.00
4856 51.9700 7033.00 7007.05 84.00
4857 51.9800 7030.00 7003.85 84.00
4858 51.9900 7060.00 6999.87 84.00
4859 52.0000 6994.00 6995.59 84.00
4860 52.0100 7008.00 6991.48 84.00
4861 52.0200 7029.00 6987.99 84.00
4862 52.0300 6995.00 6985.50 84.00
4863 52.0400 7031.00 6984.39 84.00
4864 52.0500 7077.00 6984.89 84.00
4865 52.0600 7019.00 6987.39 84.00
4866 52.0700 7032.00 6992.07 84.00
4867 52.0800 7047.00 6999.13 84.00
4868 52.0900 6991.00 7008.73 84.00
4869 52.1000 7041.00 7021.11 84.00
4870 52.1100 7088.00 7036.33 84.00
4871 52.1200 7124.00 7054.55 84.00
4872 52.1300 7104.00 7075.79 84.00
4873 52.1400 7095.00 7100.07 84.00
4874 52.1500 7153.00 7127.22 85.00
4875 52.1600 7167.00 7156.97 85.00
4876 52.1700 7239.00 7188.72 85.00
4877 52.1800 7292.00 7221.59 85.00
4878 52.1900 7331.00 7254.49 86.00
4879 52.2000 7316.00 7286.30 86.00
4880 52.2100 7379.00 7316.17 86.00
4881 52.2200 7399.00 7343.43 86.00
4882 52.2300 7411.00 7367.41 86.00
4883 52.2400 7432.00 7387.04 86.00
4884 52.2500 7348.00 7400.64 86.00
4885 52.2600 7407.00 7406.27 86.00
4886 52.2700 7376.00 7402.50 86.00
4887 52.2800 7368.00 7389.19 86.00
4888 52.2900 7394.00 7367.77 86.00
4889 52.3000 7368.00 7340.73 86.00
4890 52.3100 7264.00 7310.79 85.00
4891 52.3200 7283.00 7280.11 85.00
4892 52.3300 7205.00 7250.28 85.00
4893 52.3400 7209.00 7222.19 85.00
4894 52.3500 7206.00 7196.30 85.00
4895 52.3600 7226.00 7172.79 85.00
4896 52.3700 7144.00 7151.60 85.00
4897 52.3800 7110.00 7132.55 84.00
4898 52.3900 7119.00 7115.34 84.00
4899 52.4000 7111.00 7099.65 84.00
4900 52.4100 7142.00 7085.11 85.00
4901 52.4200 7111.00 7071.42 84.00
4902 52.4300 7074.00 7058.19 84.00
4903 52.4400 7072.00 7045.39 84.00
4904 52.4500 6999.00 7032.82 84.00
4905 52.4600 7005.00 7020.44 84.00
4906 52.4700 7053.00 7008.26 84.00
4907 52.4800 7101.00 6996.27 84.00
4908 52.4900 6957.00 6984.62 83.00
4909 52.5000 7003.00 6973.32 84.00
4910 52.5100 6965.00 6962.45 83.00
4911 52.5200 6945.00 6952.05 83.00
4912 52.5300 7015.00 6942.21 84.00
4913 52.5400 6991.00 6933.04 84.00
4914 52.5500 6915.00 6924.63 83.00
4915 52.5600 6937.00 6917.12 83.00
4916 52.5700 6954.00 6910.65 83.00
4917 52.5800 6924.00 6905.36 83.00
4918 52.5900 6975.00 6901.38 84.00
4919 52.6000 6996.00 6898.86 84.00
4920 52.6100 6894.00 6897.92 83.00
4921 52.6200 6894.00 6898.65 83.00
4922 52.6300 6929.00 6901.12 83.00
4923 52.6400 6921.00 6905.38 83.00
4924 52.6500 6945.00 6911.39 83.00
4925 52.6600 6999.00 6919.08 84.00
4926 52.6700 6901.00 6928.24 83.00
4927 52.6800 6988.00 6938.51 84.00
4928 52.6900 6963.00 6949.25 83.00
4929 52.7000 6955.00 6959.91 83.00
4930 52.7100 7029.00 6969.35 84.00
4931 52.7200 7042.00 6976.53 84.00
4932 52.7300 6976.00 6980.53 84.00
4933 52.7400 6956.00 6980.89 83.00
4934 52.7500 6960.00 6977.73 83.00
4935 52.7600 6982.00 6971.72 84.00
4936 52.7700 6971.00 6963.88 83.00
4937 52.7800 6963.00 6955.33 83.00
4938 52.7900 6918.00 6947.16 83.00
4939 52.8000 6909.00 6940.26 83.00
4940 52.8100 6929.00 6935.35 83.00
4941 52.8200 6914.00 6932.95 83.00
4942 52.8300 6963.00 6933.47 83.00
4943 52.8400 6960.00 6937.21 83.00
4944 52.8500 6918.00 6944.37 83.00
4945 52.8600 6964.00 6955.17 83.00
4946 52.8700 7003.00 6969.72 84.00
4947 52.8800 7009.00 6988.10 84.00
4948 52.8900 7013.00 7010.35 84.00
4949 52.9000 7069.00 7036.42 84.00
4950 52.9100 7070.00 7066.14 84.00
4951 52.9200 7119.00 7099.22 84.00
4952 52.9300 7162.00 7135.04 85.00
4953 52.9400 7190.00 7173.01 85.00
4954 52.9500 7275.00 7211.80 85.00
4955 52.9600 7276.00 7249.92 85.00
4956 52.9700 7313.00 7285.35 86.00
4957 52.9800 7288.00 7315.87 85.00
4958 52.9900 7352.00 7339.38 86.00
4959 53.0000 7337.00 7354.25 86.00
4960 53.0100 7394.00 7359.71 86.00
4961 53.0200 7344.00 7356.03 86.00
4962 53.0300 7294.00 7344.31 85.00
4963 53.0400 7305.00 7326.11 85.00
4964 53.0500 7333.00 7303.25 86.00
4965 53.0600 7281.00 7277.24 85.00
4966 53.0700 7271.00 7249.24 85.00
4967 53.0800 7219.00 7220.21 85.00
4968 53.0900 7132.00 7190.81 84.00
4969 53.1000 7142.00 7161.52 85.00
4970 53.1100 7079.00 7132.76 84.00
4971 53.1200 7081.00 7104.91 84.00
4972 53.1300 7082.00 7078.34 84.00
4973 53.1400 7085.00 7053.34 84.00
4974 53.1500 7016.00 7030.14 84.00
4975 53.1600 6990.00 7008.81 84.00
4976 53.1700 6939.00 6989.57 83.00
4977 53.1800 6953.00 6972.41 83.00
4978 53.1900 6973.00 6957.33 84.00
4979 53.2000 6947.00 6944.36 83.00
4980 53.2100 6901.00 6933.48 83.00
4981 53.2200 6952.00 6924.67 83.00
4982 53.2300 6928.00 6917.84 83.00
4983 53.2400 6943.00 6912.98 83.00
4984 53.2500 6928.00 6910.01 83.00
4985 53.2600 6925.00 6908.87 83.00
4986 53.2700 6869.00 6909.53 83.00
4987 53.2800 6916.00 6911.91 83.00
4988 53.2900 6916.00 6916.41 83.00
4989 53.3000 6906.00 6922.10 83.00
4990 53.3100 6979.00 6929.27 84.00
4991 53.3200 6974.00 6937.89 84.00
4992 53.3300 6959.00 6947.77 83.00
4993 53.3400 6919.00 6958.77 83.00
4994 53.3500 6959.00 6970.68 83.00
4995 53.3600 6959.00 6983.33 83.00
4996 53.3700 7074.00 6996.53 84.00
4997 53.3800 7052.00 7010.08 84.00
4998 53.3900 7042.00 7023.77 84.00
4999 53.4000 7041.00 7037.34 84.00
5000 53.4100 7063.00 7050.51 84.00
5001 53.4200 7054.00 7062.89 84.00
5002 53.4300 7156.00 7074.03 85.00
5003 53.4400 7131.00 7083.43 84.00
5004 53.4500 7073.00 7090.66 84.00
5005 53.4600 7054.00 7095.34 84.00
5006 53.4700 7053.00 7097.35 84.00
5007 53.4800 7089.00 7096.79 84.00
5008 53.4900 7104.00 7094.44 84.00
5009 53.5000 7139.00 7089.99 84.00
5010 53.5100 7048.00 7084.48 84.00
5011 53.5200 7035.00 7078.53 84.00
5012 53.5300 7063.00 7072.66 84.00
5013 53.5400 7021.00 7067.33 84.00
5014 53.5500 7070.00 7062.88 84.00
5015 53.5600 7072.00 7059.57 84.00
5016 53.5700 7046.00 7057.63 84.00
5017 53.5800 7048.00 7057.29 84.00
5018 53.5900 7048.00 7058.75 84.00
5019 53.6000 7062.00 7062.57 84.00
5020 53.6100 7088.00 7068.06 84.00
5021 53.6200 7095.00 7075.57 84.00
5022 53.6300 7082.00 7084.92 84.00
5023 53.6400 7102.00 7095.73 84.00
5024 53.6500 7113.00 7107.32 84.00
5025 53.6600 7154.00 7118.92 85.00
5026 53.6700 7165.00 7129.38 85.00
5027 53.6800 7162.00 7137.62 85.00
5028 53.6900 7153.00 7142.73 85.00
5029 53.7000 7177.00 7144.34 85.00
5030 53.7100 7109.00 7142.75 84.00
5031 53.7200 7152.00 7138.80 85.00
5032 53.7300 7206.00 7133.58 85.00
5033 53.7400 7171.00 7128.22 85.00
5034 53.7500 7127.00 7123.56 84.00
5035 53.7600 7135.00 7120.18 84.00
5036 53.7700 7170.00 7118.36 85.00
5037 53.7800 7134.00 7118.01 84.00
5038 53.7900 7205.00 7118.90 85.00
5039 53.8000 7171.00 7120.63 85.00
5040 53.8100 7148.00 7122.81 85.00
5041 53.8200 7128.00 7125.07 84.00
5042 53.8300 7149.00 7127.12 85.00
5043 53.8400 7149.00 7128.78 85.00
5044 53.8500 7190.00 7130.09 85.00
5045 53.8600 7181.00 7131.04 85.00
5046 53.8700 7126.00 7131.69 84.00
5047 53.8800 7127.00 7132.08 84.00
5048 53.8900 7150.00 7132.24 85.00
5049 53.9000 7152.00 7132.19 85.00
5050 53.9100 7164.00 7131.99 85.00
5051 53.9200 7134.00 7131.69 84.00
5052 53.9300 7120.00 7131.32 84.00
5053 53.9400 7142.00 7131.17 85.00
5054 53.9500 7114.00 7131.34 84.00
5055 53.9600 7138.00 7132.07 84.00
5056 53.9700 7122.00 7133.58 84.00
5057 53.9800 7146.00 7136.10 85.00
5058 53.9900 7081.00 7139.85 84.00
5059 54.0000 7123.00 7144.94 84.00
5060 54.0100 7130.00 7151.58 84.00
5061 54.0200 7174.00 7159.81 85.00
5062 54.0300 7183.00 7169.52 85.00
5063 54.0400 7201.00 7180.49 85.00
5064 54.0500 7156.00 7192.31 85.00
5065 54.0600 7183.00 7204.42 85.00
5066 54.0700 7203.00 7216.14 85.00
5067 54.0800 7212.00 7226.79 85.00
5068 54.0900 7276.00 7235.94 85.00
5069 54.1000 7280.00 7243.36 85.00
5070 54.1100 7232.00 7249.05 85.00
5071 54.1200 7234.00 7253.11 85.00
5072 54.1300 7220.00 7255.65 85.00
5073 54.1400 7235.00 7256.64 85.00
5074 54.1500 7326.00 7256.07 86.00
5075 54.1600 7269.00 7253.92 85.00
5076 54.1700 7222.00 7250.18 85.00
5077 54.1800 7181.00 7244.94 85.00
5078 54.1900 7198.00 7238.32 85.00
5079 54.2000 7209.00 7230.56 85.00
5080 54.2100 7214.00 7221.93 85.00
5081 54.2200 7185.00 7212.74 85.00
5082 54.2300 7188.00 7203.25 85.00
5083 54.2400 7231.00 7193.78 85.00
5084 54.2500 7145.00 7184.44 85.00
5085 54.2600 7161.00 7175.32 85.00
5086 54.2700 7199.00 7166.33 85.00
5087 54.2800 7143.00 7157.36 85.00
5088 54.2900 7097.00 7148.34 84.00
5089 54.3000 7076.00 7139.41 84.00
5090 54.3100 7112.00 7130.48 84.00
5091 54.3200 7076.00 7121.84 84.00
5092 54.3300 7142.00 7113.73 85.00
5093 54.3400 7099.00 7106.17 84.00
5094 54.3500 7070.00 7099.15 84.00
5095 54.3600 7080.00 7092.52 84.00
5096 54.3700 7060.00 7086.12 84.00
5097 54.3800 7061.00 7079.86 84.00
5098 54.3900 7081.00 7073.67 84.00
5099 54.4000 7058.00 7067.55 84.00
5100 54.4100 7033.00 7061.58 84.00
5101 54.4200 7057.00 7055.84 84.00
5102 54.4300 7080.00 7050.39 84.00
5103 54.4400 7018.00 7045.20 84.00
5104 54.4500 7061.00 7040.34 84.00
5105 54.4600 7065.00 7035.69 84.00
5106 54.4700 6988.00 7031.33 84.00
5107 54.4800 7029.00 7027.19 84.00
5108 54.4900 7023.00 7023.27 84.00
5109 54.5000 7002.00 7019.65 84.00
5110 54.5100 7042.00 7016.42 84.00
5111 54.5200 7040.00 7013.68 84.00
5112 54.5300 6975.00 7012.09 84.00
5113 54.5400 7019.00 7010.74 84.00
5114 54.5500 7013.00 7010.26 84.00
5115 54.5600 6939.00 7010.74 83.00
5116 54.5700 7031.00 7012.24 84.00
5117 54.5800 7027.00 7014.77 84.00
5118 54.5900 7006.00 7018.33 84.00
5119 54.6000 7020.00 7022.86 84.00
5120 54.6100 6984.00 7028.26 84.00
5121 54.6200 7021.00 7034.38 84.00
5122 54.6300 7025.00 7041.00 84.00
5123 54.6400 7069.00 7047.81 84.00
5124 54.6500 7034.00 7054.46 84.00
5125 54.6600 7056.00 7060.50 84.00
5126 54.6700 7065.00 7065.49 84.00
5127 54.6800 7045.00 7068.99 84.00
5128 54.6900 7070.00 7070.67 84.00
5129 54.7000 7062.00 7070.36 84.00
5130 54.7100 7032.00 7068.13 84.00
5131 54.7200 7016.00 7064.25 84.00
5132 54.7300 7000.00 7059.19 84.00
5133 54.7400 6959.00 7053.46 83.00
loop_
_pd_proc_info_excluded_regions
'from 0.01 to 3.400'
'from 54.74 to 78.078'
loop_
_refln_index_h
_refln_index_k
_refln_index_l
_refln_F_squared_calc
_refln_F_squared_meas
_refln_F_squared_sigma
_refln_observed_status
_refln_d_spacing
2 0 0 272.14 243.20 4.24 o 5.732192
1 0 1 582.55 598.24 6.22 o 4.145615
2 0 1 7505.86 7324.62 16.90 o 3.513382
2 1 0 2353.71 2406.98 11.65 o 3.355470
0 1 1 11789.14 11621.19 23.95 o 3.029462
1 1 1 29366.31 29629.57 26.92 o 2.928927
3 0 1 676.63 692.41 1.43 o 2.898192
4 0 0 62576.94 63068.36 80.03 o 2.866096
2 1 1 30.54 38.70 2.24 o 2.678411
4 0 1 459.12 414.71 4.44 o 2.409017
3 1 1 17423.01 17196.90 25.44 o 2.373985
4 1 0 5531.36 5743.47 12.40 o 2.356248
0 0 2 18163.72 17683.33 64.97 o 2.223255
1 0 2 11822.36 11792.63 37.55 o 2.182592
4 1 1 8530.84 8486.48 15.97 o 2.081995
2 0 2 478.09 478.24 0.73 o 2.072807
0 2 0 55694.67 55896.80 89.92 o 2.069326
5 0 1 5594.16 5368.81 26.47 o 2.037889
2 2 0 151.43 153.71 0.81 o 1.946381
1 1 2 6584.77 6601.56 16.41 o 1.930578
3 0 2 12085.71 12072.86 29.29 o 1.921697
6 0 0 950.47 936.76 5.38 o 1.910730
2 1 2 3099.59 3107.13 14.61 o 1.853351
1 2 1 342.40 341.06 1.67 o 1.851483
5 1 1 21636.32 21458.80 38.58 o 1.828264
2 2 1 4558.91 4472.10 20.50 o 1.783039
4 0 2 12061.70 11893.33 36.78 o 1.756691
6 0 1 4454.82 4382.97 14.55 o 1.755511
3 1 2 3068.92 3115.73 11.17 o 1.742968
6 1 0 3078.70 3162.47 17.15 o 1.734773
3 2 1 459.23 457.10 1.08 o 1.684103
4 2 0 39927.89 39367.91 83.17 o 1.677735
4 1 2 1957.98 1887.90 18.24 o 1.617051
6 1 1 180.67 174.30 1.73 o 1.616131
5 0 2 6485.04 6473.07 48.77 o 1.596124
4 2 1 303.65 289.68 10.93 o 1.569714
7 0 1 1567.05 1506.04 28.62 o 1.536836
0 2 2 12438.20 12397.85 56.40 o 1.514731
1 2 2 7966.38 8144.47 30.13 o 1.501680
5 1 2 7993.39 7989.94 30.67 o 1.489212
1 0 3 6458.38 6373.57 40.04 o 1.469936
2 2 2 337.52 331.04 2.77 o 1.464464
5 2 1 3770.03 3786.76 19.87 o 1.451992
6 0 2 2459.83 2467.02 10.65 o 1.449096
7 1 1 4996.16 5144.18 20.25 o 1.440712
2 0 3 5618.17 5673.68 17.69 o 1.434976
8 0 0 22169.79 22381.80 92.17 o 1.433048
3 2 2 8339.48 8447.57 34.01 o 1.408146
6 2 0 712.67 725.07 2.65 o 1.403814
0 1 3 15752.51 15847.45 55.19 o 1.395385
1 1 3 1006.42 1027.22 4.40 o 1.385163
3 0 3 8637.45 8736.56 41.63 o 1.381872
6 1 2 852.03 940.29 10.71 o 1.367683
8 0 1 925.37 1027.24 12.67 o 1.363961
2 1 3 3.00 3.14 0.02 o 1.355793
8 1 0 10307.26 10711.87 63.37 o 1.354166
2 3 0 889.62 907.99 3.30 o 1.341254
4 2 2 8710.74 8869.06 32.89 o 1.339206
6 2 1 3106.35 3162.76 11.72 o 1.338683
7 0 2 7857.27 8259.82 35.46 o 1.318614
0 3 1 5237.82 5454.91 20.51 o 1.317593
4 0 3 720.99 734.33 2.24 o 1.316544
3 1 3 15.04 15.19 0.05 o 1.310738
1 3 1 13491.14 13478.18 44.60 o 1.308976
8 1 1 4075.12 4140.40 29.88 o 1.295424
2 3 1 13.47 14.47 0.29 o 1.284107
5 2 2 4681.66 4702.03 25.07 o 1.263846
7 1 2 798.44 795.37 2.95 o 1.256386
4 1 3 12513.63 12494.41 38.07 o 1.254595
3 3 1 8430.34 8329.61 30.50 o 1.245632
5 0 3 1996.98 1983.02 6.78 o 1.244746
4 3 0 2752.28 2732.32 10.90 o 1.243049
7 2 1 1227.75 1300.52 13.83 o 1.233793
9 0 1 9106.86 9232.33 71.86 o 1.224562
8 0 2 3822.31 4008.56 28.39 o 1.204509
1 2 3 4806.96 4856.03 22.67 o 1.198365
4 3 1 4234.93 4268.38 19.98 o 1.197149
5 1 3 2373.07 2387.94 10.89 o 1.192000
6 2 2 1869.70 1906.21 12.51 o 1.186993
2 2 3 4057.15 4102.15 12.58 o 1.179195
8 2 0 16395.99 16553.06 51.82 o 1.178124
9 1 1 9198.19 9329.54 31.04 o 1.174239
6 0 3 4398.88 4453.74 13.60 o 1.171127
1 3 2 3279.85 3341.69 20.63 o 1.166136
8 1 2 3866.90 3975.04 26.50 o 1.156523
3 2 3 6532.31 6602.99 26.04 o 1.149191
2 3 2 1784.61 1797.60 7.69 o 1.148449
10 0 0 687.11 688.31 3.23 o 1.146438
5 3 1 11643.89 11437.45 45.46 o 1.142404
8 2 1 689.78 669.19 3.45 o 1.138829
6 1 3 28.06 26.90 0.44 o 1.126879
3 3 2 1562.03 1485.56 19.33 o 1.120677
6 3 0 1469.15 1416.06 11.04 o 1.118490
7 2 2 5854.50 5682.17 35.60 o 1.112033
0 0 4 252.11 244.99 1.27 o 1.111627
4 2 3 544.54 531.08 3.02 o 1.110790
10 0 1 2196.90 2145.08 13.86 o 1.110133
1 0 4 2742.23 2678.04 13.75 o 1.106438
9 0 2 2217.87 2168.92 15.64 o 1.105259
10 1 0 3713.32 3652.88 30.15 o 1.104833
7 0 3 5697.66 5604.24 48.36 o 1.098956
2 0 4 485.33 474.75 5.80 o 1.091296
4 3 2 1116.73 1068.20 25.54 o 1.084978
6 3 1 93.62 89.73 2.09 o 1.084700
10 1 1 279.78 277.64 2.55 o 1.072230
1 1 4 169.35 168.69 0.89 o 1.068899
9 1 2 6645.56 6673.90 39.99 o 1.067836
3 0 4 1894.73 1878.07 9.07 o 1.067385
5 2 3 1516.94 1518.07 8.37 o 1.066644
7 1 3 1337.69 1340.13 5.83 o 1.062148
2 1 4 16577.23 15901.66 56.35 o 1.055228
9 2 1 6941.71 6645.55 25.83 o 1.053861
5 3 2 4399.05 4337.84 29.70 o 1.043726
8 2 2 2945.07 2911.41 20.12 o 1.040998
4 0 4 425.78 413.37 2.35 o 1.036404
0 4 0 21813.53 20923.01 145.75 o 1.034663
3 1 4 1.65 1.58 0.01 o 1.033564
8 0 3 1675.58 1567.54 12.97 o 1.030246
7 3 1 2774.27 2508.95 26.97 o 1.026607
6 2 3 3353.50 3114.34 31.74 o 1.019222
10 0 2 2599.14 2430.42 26.39 o 1.018945
2 4 0 69.63 64.67 0.61 o 1.018209
11 0 1 847.64 777.16 10.44 o 1.014716
0 3 3 8999.53 8609.40 86.65 o 1.009821
1 3 3 625.17 593.55 5.23 o 1.005926
4 1 4 184.79 176.66 1.13 o 1.005360
1 4 1 98.85 94.46 0.66 o 1.003870
10 2 0 548.61 523.24 4.13 o 1.002822
5 0 4 2416.62 2294.69 14.23 o 1.000270
8 1 3 6680.42 6342.46 43.93 o 0.999736
6 3 2 531.01 504.32 3.63 o 0.999171
2 3 3 1.44 1.37 0.01 o 0.994507
8 3 0 6070.62 5765.80 46.02 o 0.993864
2 4 1 1798.54 1697.64 14.44 o 0.992519
10 1 2 2.45 2.33 0.03 o 0.989399
11 1 1 754.22 700.96 16.38 o 0.985526
0 2 4 187.21 187.26 1.09 o 0.979274
10 2 1 1702.57 1712.26 12.26 o 0.978252
3 3 3 6.29 6.30 0.04 o 0.976309
1 2 4 2137.98 2121.43 9.92 o 0.975721
9 2 2 1727.07 1722.85 8.75 o 0.974912
3 4 1 252.58 250.29 1.18 o 0.974429
4 4 0 16930.61 16727.35 77.33 o 0.973190
5 1 4 661.04 653.00 2.97 o 0.972276
7 2 3 4464.63 4396.30 21.88 o 0.970577
8 3 1 2377.73 2338.44 11.97 o 0.969931
9 0 3 115.62 111.60 0.80 o 0.966064
2 2 4 380.15 367.71 2.38 o 0.965289
6 0 4 2976.41 2858.33 26.37 o 0.960849
12 0 0 5170.38 5153.43 48.40 o 0.955365
7 3 2 461.46 450.55 3.38 o 0.953216
4 3 3 7419.25 7245.48 53.93 o 0.952433
4 4 1 130.91 127.95 0.92 o 0.950687
3 2 4 1485.39 1458.47 9.93 o 0.948622
11 0 2 4116.29 4159.85 42.83 o 0.943674
9 1 3 1783.74 1807.63 11.40 o 0.940774
0 4 2 5622.30 5582.25 30.22 o 0.938055
6 1 4 9789.69 9673.00 45.94 o 0.935956
1 4 2 3480.76 3425.41 17.37 o 0.934931
12 0 1 907.78 885.96 5.30 o 0.934049
12 1 0 8549.91 8218.75 63.67 o 0.930885
4 2 4 333.79 328.57 2.42 o 0.926676
2 4 2 157.55 158.83 1.55 o 0.925741
5 3 3 1469.62 1487.55 16.68 o 0.924162
5 4 1 1636.16 1660.56 16.43 o 0.922567
8 2 3 1323.30 1338.48 14.35 o 0.922266
11 1 2 118.82 120.75 1.26 o 0.920059
7 0 4 826.68 833.40 5.95 o 0.919771
9 3 1 5637.61 5661.40 41.32 o 0.915811
10 2 2 2056.88 2059.16 14.52 o 0.914132
12 1 1 1550.09 1533.51 11.97 o 0.911133
11 2 1 670.84 665.47 4.86 o 0.911075
3 4 2 3736.78 3720.54 24.90 o 0.911010
6 4 0 352.82 350.40 2.39 o 0.909834
8 3 2 2387.68 2373.27 21.07 o 0.907331
10 0 3 3006.31 2989.25 26.27 o 0.906826
5 2 4 1918.38 1965.32 31.70 o 0.900576
7 1 4 15.28 16.18 0.23 o 0.897865
6 3 3 16.85 17.21 0.21 o 0.892804
4 4 2 4102.78 4195.72 48.90 o 0.891519
6 4 1 1415.61 1451.24 16.57 o 0.891365
1 0 5 6000.01 6159.73 61.98 o 0.886638
10 1 3 89.29 89.98 1.32 o 0.885812
10 3 0 2301.67 2410.91 45.11 o 0.881719
2 0 5 1330.01 1410.33 18.64 o 0.878789
8 0 4 946.39 1002.19 16.75 o 0.878346
12 0 2 426.28 458.77 10.85 o 0.877755
9 2 3 93.74 101.20 1.85 o 0.875370
6 2 4 2376.37 2459.46 21.79 o 0.871484
0 1 5 320.57 322.44 1.98 o 0.869456
5 4 2 2222.47 2230.73 15.72 o 0.868206
12 2 0 4152.00 4150.28 29.38 o 0.867386
1 1 5 100.95 101.74 0.56 o 0.866966
3 0 5 6515.78 6581.75 33.52 o 0.866158
13 0 1 8224.84 8202.63 58.58 o 0.865027
10 3 1 176.03 175.94 1.10 o 0.864879
1 3 4 106.99 107.75 0.58 o 0.863129
9 3 2 4184.45 4196.27 25.02 o 0.862568
2 1 5 72.13 72.52 0.32 o 0.859624
7 3 3 843.76 861.74 4.73 o 0.859562
8 1 4 292.20 293.35 1.43 o 0.859209
12 1 2 2992.36 3063.38 17.75 o 0.858656
11 2 2 3319.67 3391.44 19.15 o 0.858608
7 4 1 609.78 616.78 3.25 o 0.858278
2 3 4 10466.08 10614.89 58.99 o 0.855882
11 0 3 1873.83 1907.62 14.85 o 0.852546
12 2 1 731.49 730.86 7.63 o 0.851340
4 0 5 66.42 68.76 0.45 o 0.849355
3 1 5 1157.37 1193.34 9.27 o 0.847790
13 1 1 2103.69 2291.87 28.26 o 0.846730
1 4 3 2349.33 2566.81 29.59 o 0.846083
3 3 4 1.27 1.38 0.02 o 0.844200
6 4 2 920.64 972.69 9.36 o 0.842051
7 2 4 670.34 702.28 6.41 o 0.840486
2 4 3 1983.61 2073.61 20.80 o 0.839254
8 4 0 8051.21 8441.69 78.63 o 0.838867
9 0 4 1327.67 1390.54 12.54 o 0.837550
11 1 3 2627.79 2735.06 29.05 o 0.835013
4 1 5 208.69 218.00 1.61 o 0.832015
10 2 3 2448.46 2594.30 25.86 o 0.830575
5 0 5 3448.05 3623.94 28.32 o 0.829123
4 3 4 115.55 121.38 1.08 o 0.828621
3 4 3 3242.96 3410.46 31.47 o 0.828231
8 3 3 4314.00 4480.86 44.80 o 0.825464
8 4 1 344.19 360.74 3.54 o 0.824326
9 1 4 1101.86 1197.74 12.71 o 0.820909
13 0 2 437.91 505.03 8.29 o 0.819742
10 3 2 1.98 2.26 0.03 o 0.819616
2 5 0 312.09 343.77 3.33 o 0.819233
14 0 0 86.78 100.32 1.78 o 0.818884
11 3 1 503.37 554.91 5.51 o 0.817410
1 2 5 4873.51 5200.11 37.50 o 0.814980
7 4 2 2963.31 3137.54 24.32 o 0.813991
0 5 1 1981.12 2100.48 15.58 o 0.813751
4 4 3 274.41 289.86 2.29 o 0.813504
5 1 5 38.35 40.83 0.30 o 0.812969
1 5 1 5156.89 5460.36 40.17 o 0.811709
5 3 4 434.82 455.16 3.67 o 0.809802
2 2 5 1074.65 1123.66 7.11 o 0.808872
8 2 4 786.28 820.07 6.18 o 0.808526
12 2 2 348.05 370.20 3.78 o 0.808065
6 0 5 680.68 709.66 4.54 o 0.806254
2 5 1 5.14 5.37 0.04 o 0.805673
14 0 1 1014.60 1058.10 10.46 o 0.805341
13 1 2 4472.68 4654.96 42.07 o 0.804120
14 1 0 3667.13 3806.76 34.59 o 0.803311
12 0 3 1750.27 1825.39 14.37 o 0.803006
3 2 5 5300.42 5391.84 29.63 o 0.798989
13 2 1 6703.43 6780.66 45.62 o 0.798101
10 0 4 4048.91 4101.66 25.05 o 0.798062
3 5 1 3297.65 3347.57 20.41 o 0.795906
5 4 3 781.38 787.64 5.36 o 0.795675
4 5 0 1078.07 1091.63 6.44 o 0.795231
6 1 5 456.18 457.63 2.41 o 0.791377
9 3 3 1141.77 1169.59 8.22 o 0.791328
14 1 1 311.03 319.36 2.39 o 0.790514
9 4 1 3596.37 3634.61 23.36 o 0.790326
6 3 4 6436.26 6493.38 39.89 o 0.788454
12 1 3 2708.76 2730.57 17.33 o 0.788304
11 2 3 1515.47 1527.67 9.72 o 0.788267
4 2 5 53.05 53.24 0.31 o 0.785743
12 3 0 5590.39 5596.98 36.98 o 0.785416
8 4 2 1518.50 1516.54 10.33 o 0.784857
10 1 4 3470.64 3438.57 24.74 o 0.783626
4 5 1 1696.80 1670.57 12.95 o 0.782810
7 0 5 4267.01 4215.23 31.41 o 0.781521
11 3 2 82.27 82.23 1.23 o 0.778881
9 2 4 1084.68 1076.22 15.28 o 0.776369
6 4 3 1798.99 1782.83 27.36 o 0.775397
1 5 2 1343.09 1334.90 17.63 o 0.773943
12 3 1 1041.62 1032.36 14.36 o 0.773443
5 2 5 2851.44 2750.37 26.83 o 0.769643
2 5 2 707.41 681.49 7.31 o 0.768706
14 0 2 1225.01 1188.34 13.81 o 0.768418
10 4 0 265.93 256.13 2.79 o 0.768103
7 1 5 2910.01 2802.65 28.39 o 0.767949
5 5 1 4736.56 4558.11 49.65 o 0.766886
7 3 4 8.08 7.69 0.10 o 0.765277
13 2 2 360.73 324.30 8.67 o 0.762121
14 2 0 63.72 57.83 1.78 o 0.761432
11 0 4 272.27 250.58 5.51 o 0.760313
3 5 2 662.02 612.56 13.96 o 0.760209
6 5 0 643.59 600.47 11.88 o 0.759525
13 0 3 43.56 40.60 0.88 o 0.757872
10 3 3 65.08 60.83 1.25 o 0.757773
0 4 4 121.24 113.92 2.23 o 0.757366
10 4 1 928.29 879.05 15.64 o 0.756893
1 4 4 1140.15 1080.26 19.08 o 0.755718
8 0 5 130.80 123.19 1.92 o 0.755628
14 1 2 455.77 434.62 8.12 o 0.755506
9 4 2 927.39 880.09 15.17 o 0.755342
7 4 3 2340.47 2231.11 38.14 o 0.753321
15 0 1 129.34 124.01 2.46 o 0.753246
6 2 5 557.29 522.28 7.72 o 0.751246
2 4 4 201.19 188.94 3.43 o 0.750840
14 2 1 845.81 794.23 15.96 o 0.750508
4 5 2 459.05 424.43 7.56 o 0.748773
6 5 1 40.97 38.21 0.63 o 0.748681
12 2 3 1447.13 1326.44 26.56 o 0.748617
11 1 4 7.44 6.86 0.12 o 0.747799
0 3 5 204.88 187.88 3.06 o 0.747458
1 3 5 80.41 73.33 1.19 o 0.745874
13 1 3 599.68 544.66 10.45 o 0.745476
10 2 4 3328.41 3036.21 52.90 o 0.744606
8 1 5 43.28 39.51 0.65 o 0.743340
3 4 4 809.55 743.51 13.79 o 0.742916
2 3 5 47.91 44.05 0.80 o 0.741183
0 0 6 26.80 24.69 0.38 o 0.741085
15 1 1 87.57 78.82 1.99 o 0.741072
8 3 4 180.51 165.33 3.44 o 0.740917
12 3 2 1975.17 1786.62 41.12 o 0.740563
1 0 6 32.10 29.86 0.42 o 0.739541
2 0 6 107.04 99.53 1.22 o 0.734968
5 5 2 1937.32 1829.78 29.44 o 0.734801
3 3 5 819.74 764.28 10.40 o 0.733557
13 3 1 1405.91 1314.80 19.33 o 0.732870
4 4 4 215.25 200.75 2.78 o 0.732232
7 2 5 3523.13 3243.89 38.46 o 0.731117
8 4 3 724.65 661.68 8.79 o 0.730051
9 0 5 1378.54 1275.42 13.05 o 0.729182
7 5 1 1240.51 1138.14 12.75 o 0.728752
1 1 6 1882.97 1746.29 15.50 o 0.728010
3 0 6 416.20 385.83 3.40 o 0.727531
10 4 2 1080.14 997.85 11.32 o 0.725996
11 3 3 1782.09 1651.28 19.03 o 0.725234
12 0 4 1438.87 1333.62 14.41 o 0.724548
11 4 1 338.31 313.69 3.46 o 0.724462
2 1 6 4408.99 4115.10 37.85 o 0.723646
4 3 5 133.86 125.16 1.31 o 0.723266
15 0 2 2092.90 1971.41 24.75 o 0.722776
0 5 3 3986.04 3756.61 43.05 o 0.722674
1 5 3 247.92 235.55 2.89 o 0.721243
14 2 2 996.91 949.32 13.32 o 0.720356
5 4 4 1053.49 1012.64 14.08 o 0.719149
6 5 2 209.97 202.12 2.76 o 0.718741
9 1 5 98.83 95.05 1.20 o 0.718121
4 0 6 81.36 78.22 0.91 o 0.717488
2 5 3 0.85 0.84 0.01 o 0.716998
14 0 3 1888.31 1872.96 33.11 o 0.716765
8 5 0 2630.79 2583.74 40.27 o 0.716757
3 1 6 1897.31 1829.54 23.32 o 0.716544
16 0 0 717.42 710.90 14.86 o 0.716524
9 3 4 764.15 757.09 13.61 o 0.715935
12 1 4 89.49 89.08 1.98 o 0.713694
11 2 4 233.31 232.46 5.17 o 0.713666
15 1 2 4.65 4.63 0.19 o 0.712000
13 2 3 32.10 32.21 1.27 o 0.711646
5 3 5 18.47 18.48 0.44 o 0.710650
3 5 3 5.18 5.28 0.15 o 0.710088
8 2 5 105.30 103.10 1.78 o 0.709787
15 2 1 103.92 101.68 1.80 o 0.707812
8 5 1 1090.67 1073.33 15.05 o 0.707623
16 0 1 663.58 647.95 11.98 o 0.707398
4 1 6 106.39 104.68 1.26 o 0.706943
14 1 3 195.29 191.37 2.66 o 0.706251
9 4 3 61.04 59.80 0.82 o 0.706117
16 1 0 4585.90 4498.97 64.94 o 0.706021
5 0 6 28.00 27.39 0.32 o 0.705167
13 3 2 3136.42 3069.22 39.69 o 0.704717
14 3 0 2568.54 2514.89 31.64 o 0.704172
6 4 4 1309.71 1282.73 16.01 o 0.704073
10 0 5 138.95 135.30 1.55 o 0.702676
12 4 0 2398.79 2331.47 29.91 o 0.701907
7 5 2 226.16 220.54 2.99 o 0.701053
4 5 3 3409.38 3309.42 49.41 o 0.700742
0 2 6 27.22 26.19 0.35 o 0.697693
16 1 1 518.99 496.06 10.91 o 0.697286
11 4 2 1950.69 1866.24 32.65 o 0.697231
1 2 6 30.21 29.33 0.38 o 0.696404
6 3 5 310.11 295.71 4.65 o 0.696092
14 3 1 224.25 214.64 3.90 o 0.695504
5 1 6 1234.49 1193.53 15.02 o 0.695148
12 3 3 1919.75 1860.92 31.85 o 0.693998
12 4 1 421.80 410.35 6.44 o 0.693322
10 1 5 645.30 626.37 8.72 o 0.692762
2 2 6 88.65 86.19 1.10 o 0.692581
6 0 6 685.49 671.91 8.30 o 0.690936
13 0 4 453.23 441.84 6.70 o 0.690875
10 3 4 2440.70 2377.53 36.36 o 0.690800
0 6 0 7877.91 7743.54 105.70 o 0.689775
5 5 3 616.23 610.78 9.57 o 0.689250
9 2 5 1182.83 1170.46 15.60 o 0.687733
7 4 4 396.60 393.57 6.13 o 0.687422
3 2 6 359.30 354.28 3.78 o 0.686347
9 5 1 2531.77 2494.00 32.07 o 0.685764
2 6 0 22.06 21.69 0.25 o 0.684835
12 2 4 1225.91 1208.03 15.00 o 0.683842
15 2 2 1789.70 1747.61 23.07 o 0.682351
8 5 2 1052.86 1030.25 12.61 o 0.682182
16 0 2 4.89 4.77 0.07 o 0.681981
10 4 3 1466.40 1433.45 18.16 o 0.681967
6 1 6 2830.36 2801.66 29.76 o 0.681504
13 1 4 1121.68 1098.59 13.51 o 0.681445
1 6 1 53.33 52.57 0.61 o 0.680421
7 3 5 2076.80 2047.12 24.19 o 0.679988
15 0 3 187.83 185.58 2.65 o 0.679296
4 2 6 75.94 76.53 0.82 o 0.677896
14 2 3 1607.54 1627.00 28.45 o 0.677286
16 2 0 622.71 634.59 11.72 o 0.677083
2 6 1 707.53 722.58 9.50 o 0.676854
11 0 5 1591.85 1626.71 20.95 o 0.676498
6 5 3 10.65 11.15 0.17 o 0.675943
7 0 6 1061.88 1086.82 11.19 o 0.675179
1 4 5 2831.29 2930.19 34.87 o 0.673255
16 1 2 1285.28 1348.54 19.22 o 0.672906
14 3 2 321.60 328.53 3.86 o 0.671304
10 5 0 1169.99 1200.54 12.60 o 0.671094
3 6 1 66.23 67.69 0.70 o 0.671032
4 6 0 6370.40 6494.71 63.60 o 0.670627
15 1 3 2314.66 2350.14 27.29 o 0.670327
2 4 5 605.77 613.28 6.23 o 0.669799
8 4 4 505.37 509.83 5.38 o 0.669603
16 2 1 563.84 568.49 6.46 o 0.669367
12 4 2 206.25 207.76 2.17 o 0.669341
11 1 5 3758.96 3815.88 34.34 o 0.667638
5 2 6 20.74 21.01 0.18 o 0.667476
17 0 1 5088.77 5159.27 67.74 o 0.666751
7 1 6 1185.17 1200.34 9.96 o 0.666370
11 3 4 3.68 3.73 0.04 o 0.665880
10 2 5 116.47 117.60 1.12 o 0.665363
13 3 3 406.57 412.05 4.51 o 0.664239
3 4 5 3067.52 3123.86 31.90 o 0.664156
13 4 1 3910.90 3978.38 42.05 o 0.663645
10 5 1 91.17 93.34 0.92 o 0.663579
4 6 1 50.82 52.20 0.49 o 0.663127
1 5 4 60.94 62.92 0.71 o 0.662787
8 3 5 27.79 28.58 0.28 o 0.662726
9 5 2 2071.49 2142.25 21.67 o 0.662533
7 5 3 413.93 424.86 4.53 o 0.661168
15 3 1 79.07 81.10 0.90 o 0.661117
2 5 4 4992.25 5139.41 64.45 o 0.659489
14 0 4 3002.63 3083.09 37.27 o 0.659307
0 6 2 2076.94 2137.97 25.49 o 0.658796
8 0 6 305.28 313.46 3.34 o 0.658272
17 1 1 113.86 117.82 1.69 o 0.658263
11 4 3 850.26 882.70 11.99 o 0.657959
1 6 2 1381.38 1437.32 18.39 o 0.657711
4 4 5 28.16 29.25 0.42 o 0.656489
6 2 6 573.34 599.77 7.58 o 0.655369
13 2 4 381.90 391.64 7.55 o 0.655317
2 6 2 56.14 58.54 1.09 o 0.654488
3 5 4 2.44 2.65 0.07 o 0.654100
5 6 1 686.82 729.74 13.69 o 0.653363
1 3 6 1342.25 1435.05 23.92 o 0.651793
14 1 4 707.35 755.65 14.49 o 0.651097
9 4 4 631.95 675.07 13.09 o 0.650992
12 0 5 83.52 89.18 1.55 o 0.650935
8 1 6 201.92 214.67 3.22 o 0.650100
3 6 2 1525.72 1615.71 25.88 o 0.649220
6 6 0 111.81 118.32 1.81 o 0.648794
2 3 6 3128.59 3316.99 47.68 o 0.648656
16 2 2 3.40 3.57 0.07 o 0.647712
5 4 5 1736.40 1832.41 28.27 o 0.647011
4 5 4 46.60 49.28 0.82 o 0.646773
15 2 3 155.86 165.82 2.82 o 0.645411
17 0 2 16.52 17.52 0.32 o 0.645340
8 5 3 2169.70 2300.95 36.57 o 0.645268
16 0 3 1271.76 1351.00 23.38 o 0.645097
9 3 5 59.02 62.24 0.96 o 0.644668
3 3 6 1345.65 1420.95 20.80 o 0.643526
12 1 5 0.58 0.62 0.01 o 0.643030
11 2 5 1342.02 1414.00 22.73 o 0.643009
13 4 2 215.59 227.54 4.08 o 0.642524
10 5 2 2.56 2.71 0.05 o 0.642463
14 4 0 23.08 24.40 0.48 o 0.642111
4 6 2 1563.75 1657.72 28.01 o 0.642053
6 6 1 602.34 636.13 10.16 o 0.641996
7 2 6 911.55 952.33 13.37 o 0.641876
12 3 4 51.61 54.74 1.09 o 0.641459
11 5 1 293.89 310.60 5.40 o 0.641399
9 0 6 90.58 94.08 1.28 o 0.640566
15 3 2 3.86 4.01 0.08 o 0.640228
5 5 4 229.33 233.03 3.66 o 0.637704
17 1 2 2606.11 2668.36 47.87 o 0.637635
16 1 3 922.08 937.16 15.02 o 0.637401
18 0 0 71.76 72.99 1.29 o 0.636910
4 3 6 71.46 71.33 0.90 o 0.636544
14 3 3 151.38 150.24 2.07 o 0.636039
6 4 5 324.26 322.51 4.25 o 0.635966
16 3 0 3267.65 3241.29 44.50 o 0.635871
14 4 1 524.82 521.70 6.85 o 0.635518
17 2 1 4320.10 4269.88 61.17 o 0.634622
12 4 3 871.50 860.25 11.68 o 0.634369
1 0 7 280.58 278.93 2.96 o 0.634243
5 6 2 918.51 906.45 11.43 o 0.633179
9 1 6 586.58 579.78 6.39 o 0.633028
10 4 4 1961.04 1910.14 26.92 o 0.631923
2 0 7 3925.65 3851.33 37.63 o 0.631351
18 0 1 435.48 431.47 7.95 o 0.630475
15 0 4 99.72 98.37 1.36 o 0.629796
18 1 0 2629.86 2590.62 42.48 o 0.629499
16 3 1 384.06 378.10 5.46 o 0.629467
7 6 1 194.70 190.55 2.45 o 0.629297
9 5 3 517.32 504.01 6.98 o 0.628564
14 2 4 2546.76 2479.03 34.23 o 0.628193
5 3 6 904.28 883.91 10.82 o 0.627893
0 1 7 383.14 374.83 4.10 o 0.627863
8 2 6 269.50 263.42 3.18 o 0.627298
6 5 4 3230.28 3146.20 44.00 o 0.627121
1 1 7 186.61 182.84 2.05 o 0.626924
3 0 7 590.04 578.05 6.52 o 0.626618
13 0 5 499.80 487.71 6.31 o 0.626189
10 3 5 456.20 444.92 5.90 o 0.626133
12 5 0 2736.87 2672.08 36.50 o 0.625589
1 6 3 937.95 909.01 14.06 o 0.624442
2 1 7 76.02 74.33 0.89 o 0.624130
7 4 5 2099.05 2035.98 34.28 o 0.623615
18 1 1 295.00 290.45 6.24 o 0.623284
6 6 2 342.96 333.63 5.85 o 0.622816
15 1 4 0.46 0.45 0.01 o 0.622628
10 0 6 989.82 970.80 14.59 o 0.622373
11 5 2 48.31 47.66 0.91 o 0.622271
2 6 3 909.89 905.32 17.77 o 0.621681
8 6 0 3374.14 3364.93 59.69 o 0.621524
12 2 5 68.13 68.55 1.29 o 0.620938
4 0 7 6.78 6.74 0.10 o 0.620167
3 1 7 31.21 31.18 0.48 o 0.619557
12 5 1 550.55 552.51 10.89 o 0.619488
13 1 5 34.67 34.70 0.68 o 0.619143
6 3 6 2051.48 2063.14 39.75 o 0.617784
13 3 4 816.20 822.81 18.10 o 0.617740
3 6 3 1284.00 1298.52 28.47 o 0.617161
14 4 2 564.33 572.16 12.92 o 0.616897
17 2 2 14.05 14.25 0.35 o 0.616077
16 2 3 1090.56 1105.91 26.61 o 0.615865
8 6 1 147.16 149.83 3.22 o 0.615540
10 1 6 1179.90 1201.33 23.91 o 0.615453
7 5 4 1.61 1.63 0.05 o 0.615268
17 0 3 85.30 85.92 2.66 o 0.613826
4 1 7 435.52 439.60 7.78 o 0.613319
11 4 4 155.41 156.41 4.51 o 0.612679
18 0 2 251.12 256.19 8.92 o 0.612281
5 0 7 27.44 27.37 0.49 o 0.612158
9 2 6 73.83 73.66 1.63 o 0.611918
13 4 3 12.54 12.65 0.38 o 0.611400
16 3 2 908.62 918.69 26.53 o 0.611358
10 5 3 41.82 42.08 1.14 o 0.611348
7 6 2 1322.88 1329.72 33.14 o 0.611201
4 6 3 114.95 115.50 3.01 o 0.610995
8 4 5 57.47 57.36 1.40 o 0.610220
15 3 3 1663.30 1647.26 40.54 o 0.609421
15 4 1 56.36 55.49 1.28 o 0.608963
18 2 0 67.44 66.18 1.68 o 0.608729
11 3 5 2757.60 2709.68 54.91 o 0.607399
17 1 3 77.20 75.45 1.77 o 0.607184
7 3 6 851.85 831.65 14.66 o 0.606443
1 2 7 237.33 230.40 3.64 o 0.606399
0 5 5 91.08 88.99 1.83 o 0.605892
18 1 2 717.34 702.17 16.27 o 0.605689
5 1 7 238.05 229.00 3.60 o 0.605570
1 5 5 61.08 59.39 1.17 o 0.605048
11 0 6 1404.61 1342.48 22.56 o 0.603964
2 2 7 3369.62 3222.10 51.19 o 0.603870
5 6 3 341.12 324.02 6.22 o 0.603332
18 2 1 376.65 359.07 7.76 o 0.603104
6 0 7 2738.14 2614.98 41.40 o 0.602779
2 5 5 23.69 22.48 0.45 o 0.602536
15 2 4 89.31 84.75 1.72 o 0.602509
0 4 6 27.30 25.95 0.49 o 0.602483
14 0 5 0.02 0.01 0.00 o 0.602397
8 5 4 72.54 68.76 1.43 o 0.602393
16 0 4 1376.13 1302.55 26.71 o 0.602254
12 5 2 959.95 910.57 18.06 o 0.602202
1 4 6 25.49 24.19 0.46 o 0.601653
9 6 1 1575.42 1489.69 28.95 o 0.600990
17 3 1 81.70 76.04 1.79 o 0.600314
3 2 7 499.76 477.78 8.13 o 0.599725
13 2 5 444.75 419.05 9.13 o 0.599349
2 4 6 52.95 50.10 1.04 o 0.599183
8 6 2 633.32 597.68 13.49 o 0.598575
3 5 5 471.78 447.34 11.43 o 0.598418
13 5 1 702.80 666.89 15.94 o 0.598044
19 0 1 0.22 0.22 0.01 o 0.597909
11 1 6 403.65 380.05 7.83 o 0.597634
6 1 7 524.36 492.99 9.68 o 0.596485
14 1 5 486.63 464.61 10.87 o 0.596116
9 4 5 781.18 748.98 18.06 o 0.596035
10 2 6 841.95 802.13 17.58 o 0.596000
16 1 4 6.12 5.86 0.17 o 0.595977
3 4 6 241.18 230.13 5.36 o 0.595132
14 3 4 537.05 512.79 13.22 o 0.594864
6 6 3 858.10 819.00 20.99 o 0.594346
8 3 6 138.23 132.56 3.22 o 0.594103
4 2 7 5.28 5.10 0.12 o 0.594062
11 5 3 919.19 875.88 23.63 o 0.593873
12 4 4 792.98 752.92 20.96 o 0.593496
4 5 5 60.05 57.06 1.69 o 0.592791
15 4 2 1168.90 1107.60 33.43 o 0.592521
7 0 7 597.83 588.06 13.28 o 0.592231
19 1 1 42.14 40.46 1.66 o 0.591765
10 6 0 82.10 80.22 2.38 o 0.591042
4 4 6 61.72 64.10 1.91 o 0.589597
14 4 3 1035.70 1121.54 42.46 o 0.589196
16 4 0 422.58 456.33 16.00 o 0.589062
9 5 4 412.24 449.65 15.44 o 0.588735
12 3 5 0.52 0.56 0.02 o 0.588692
17 2 3 68.44 75.13 2.82 o 0.588481
2 7 0 179.84 183.90 4.03 o 0.588116
18 2 2 210.34 218.88 5.83 o 0.587120
5 2 7 23.50 23.53 0.43 o 0.587011
7 1 7 19.00 19.01 0.33 o 0.586259
0 6 4 88.90 88.69 1.88 o 0.586108
0 7 1 753.01 753.02 14.10 o 0.586078
10 6 1 436.34 435.55 8.31 o 0.585889
5 5 5 3.20 3.18 0.09 o 0.585785
12 0 6 595.79 594.36 10.65 o 0.585564
1 6 4 499.45 494.99 9.97 o 0.585344
1 7 1 1832.01 1823.20 33.14 o 0.585313
18 0 3 1037.60 1026.95 21.44 o 0.585170
9 6 2 414.55 410.73 7.74 o 0.585169
17 3 2 1949.34 1920.65 37.74 o 0.584545
16 3 3 699.07 688.71 13.37 o 0.584364
7 6 3 967.76 956.80 17.79 o 0.584228
16 4 1 360.85 355.74 6.68 o 0.583960
2 6 4 85.30 83.70 1.58 o 0.583068
2 7 1 2.19 2.18 0.04 o 0.583038
5 4 6 8.65 8.56 0.16 o 0.582703
13 5 2 1718.37 1683.16 30.69 o 0.582449
19 0 2 1084.67 1057.49 24.86 o 0.582323
14 5 0 1403.31 1374.03 24.36 o 0.582141
10 4 5 71.76 70.48 1.31 o 0.581295
9 3 6 448.27 436.67 7.15 o 0.580989
8 0 7 5.59 5.45 0.09 o 0.580722
12 1 6 113.35 110.69 1.94 o 0.579789
11 2 6 1215.29 1187.74 20.83 o 0.579774
15 0 5 247.36 242.21 4.60 o 0.579639
18 1 3 292.17 287.44 6.29 o 0.579407
3 6 4 367.18 360.12 7.34 o 0.579334
3 7 1 1229.56 1203.58 21.49 o 0.579304
4 7 0 377.90 369.84 6.59 o 0.579044
6 2 7 2366.58 2324.86 36.66 o 0.578726
14 2 5 0.02 0.02 0.00 o 0.578388
16 2 4 1189.39 1162.23 24.11 o 0.578262
18 3 0 1946.64 1901.37 40.35 o 0.578258
6 5 5 158.58 154.83 3.09 o 0.577551
14 5 1 128.93 126.26 2.36 o 0.577215
0 3 7 307.37 300.35 4.87 o 0.576988
19 1 2 5.38 5.21 0.12 o 0.576643
17 0 4 81.43 79.22 1.59 o 0.576572
12 5 3 1066.64 1036.65 20.03 o 0.576353
1 3 7 131.47 128.35 2.13 o 0.576259
8 1 7 547.03 534.21 8.93 o 0.575088
6 4 6 350.81 340.05 6.85 o 0.574596
13 4 4 238.46 231.20 5.22 o 0.574561
10 5 4 1333.25 1292.65 29.12 o 0.574517
19 2 1 0.19 0.18 0.00 o 0.574412
4 6 4 136.64 133.12 3.04 o 0.574224
4 7 1 663.41 645.68 12.99 o 0.574196
2 3 7 55.70 54.41 1.00 o 0.574087
15 1 5 3137.89 3063.24 66.39 o 0.574036
18 3 1 225.16 221.28 5.34 o 0.573429
20 0 0 36.21 35.48 1.00 o 0.573219
8 6 3 325.23 321.02 7.31 o 0.573170
15 3 4 0.56 0.55 0.01 o 0.572918
10 6 2 436.57 440.37 10.18 o 0.571202
17 1 4 811.35 818.84 23.44 o 0.571057
1 7 2 554.00 556.26 12.30 o 0.570669
3 3 7 21.83 21.96 0.42 o 0.570522
11 6 1 123.44 124.28 2.89 o 0.570454
13 3 5 22.57 23.00 0.58 o 0.570199
16 4 2 1.13 1.16 0.04 o 0.569414
7 2 7 511.22 516.11 10.50 o 0.569372
2 7 2 215.06 221.82 5.24 o 0.568559
20 0 1 414.19 424.50 12.03 o 0.568515
9 0 7 20.20 20.72 0.44 o 0.568456
7 5 5 1159.68 1192.96 29.65 o 0.568253
15 4 3 93.26 95.65 2.44 o 0.567849
5 6 4 468.98 481.48 12.17 o 0.567849
5 7 1 1716.54 1776.10 41.42 o 0.567822
20 1 0 1881.65 1919.47 52.89 o 0.567799
13 0 6 76.69 79.30 1.84 o 0.567354
10 3 6 885.76 914.22 21.46 o 0.567313
11 4 5 838.02 859.78 21.94 o 0.566211
4 3 7 345.56 354.47 7.90 o 0.565640
7 4 6 596.71 610.54 15.04 o 0.565437
3 7 2 284.08 289.39 7.24 o 0.565095
6 7 0 318.52 324.73 7.85 o 0.564814
12 2 6 520.46 531.03 13.14 o 0.563440
20 1 1 151.35 156.42 6.50 o 0.563225
9 1 7 113.24 114.23 2.49 o 0.563169
14 5 2 175.24 179.73 5.32 o 0.563156
18 2 3 902.67 933.88 33.36 o 0.563089
13 1 6 235.81 238.36 5.98 o 0.562097
9 6 3 36.21 36.31 0.98 o 0.561368
17 3 3 56.74 56.66 1.61 o 0.560816
19 2 2 951.04 949.21 27.68 o 0.560551
17 4 1 2745.38 2739.66 75.98 o 0.560459
4 7 2 160.32 160.43 4.17 o 0.560350
6 6 4 578.74 577.59 16.06 o 0.560339
6 7 1 18.15 18.22 0.46 o 0.560312
11 5 4 0.86 0.86 0.03 o 0.559942
18 3 2 528.32 529.00 15.32 o 0.559638
5 3 7 169.46 169.78 3.97 o 0.559544
12 6 0 1154.82 1156.32 29.41 o 0.559245
8 2 7 4.19 4.19 0.11 o 0.559122
13 5 3 205.55 206.67 5.64 o 0.558965
19 0 3 23.32 23.28 0.70 o 0.558854
15 2 5 213.09 212.43 5.56 o 0.558155
8 5 5 12.64 12.57 0.35 o 0.558063
16 0 5 17.34 17.27 0.46 o 0.557952
15 5 1 62.12 61.88 1.80 o 0.557101
11 6 2 961.42 960.95 26.52 o 0.556871
14 4 4 1613.73 1628.87 50.43 o 0.556016
0 0 8 1024.70 1032.00 20.11 o 0.555814
10 0 7 1339.59 1353.90 30.30 o 0.555627
17 2 4 70.55 71.58 2.15 o 0.555416
8 4 6 188.58 192.32 5.17 o 0.555395
1 0 8 21.45 21.58 0.43 o 0.555162
20 0 2 92.84 93.94 3.15 o 0.555067
12 6 1 200.37 204.30 5.36 o 0.554874
5 7 2 807.69 822.14 20.76 o 0.554422
19 1 3 1264.73 1288.17 38.60 o 0.553828
11 3 6 296.91 300.29 7.12 o 0.553266
2 0 8 2.34 2.35 0.05 o 0.553219
16 1 5 20.79 21.01 0.54 o 0.552950
18 0 4 1544.29 1568.33 43.15 o 0.552630
20 2 0 33.99 34.65 1.04 o 0.552416
6 3 7 389.08 390.64 8.31 o 0.552354
14 3 5 359.62 363.50 9.01 o 0.552060
16 3 4 6.82 6.93 0.20 o 0.551950
7 6 4 195.35 197.66 5.04 o 0.551835
7 7 1 524.97 527.99 11.94 o 0.551810
1 5 6 739.88 745.10 17.88 o 0.551487
12 4 5 38.97 39.08 0.98 o 0.550967
10 1 7 874.10 874.13 18.41 o 0.550686
1 1 8 988.50 986.51 19.63 o 0.550233
20 1 2 329.41 325.38 9.41 o 0.550141
3 0 8 195.88 195.64 3.88 o 0.550026
2 5 6 1710.12 1691.79 41.98 o 0.549583
14 0 6 766.50 761.49 17.79 o 0.549478
0 7 3 1611.83 1590.19 39.60 o 0.549157
10 6 3 731.87 720.44 18.51 o 0.549002
19 3 1 38.41 37.64 1.08 o 0.548599
1 7 3 74.55 73.21 1.91 o 0.548528
2 1 8 5.65 5.61 0.13 o 0.548342
20 2 1 361.73 354.96 10.66 o 0.548202
9 2 7 17.13 16.86 0.39 o 0.548150
18 1 4 54.10 53.11 1.54 o 0.547768
17 4 2 8.95 8.77 0.25 o 0.547562
6 7 2 62.69 61.48 1.61 o 0.547425
16 4 3 709.38 694.60 20.43 o 0.547414
13 2 6 65.35 63.82 1.65 o 0.547162
9 5 5 23.34 22.81 0.69 o 0.547151
2 7 3 0.57 0.56 0.02 o 0.546654
8 7 0 994.57 970.25 26.60 o 0.546547
3 5 6 734.15 711.49 21.48 o 0.546453
4 0 8 805.92 787.71 20.11 o 0.545648
3 1 8 1122.07 1094.82 29.32 o 0.545232
12 5 4 18.98 18.45 0.78 o 0.545185
14 1 6 319.41 308.51 11.44 o 0.544698
9 4 6 42.26 41.09 1.65 o 0.544637
15 5 2 2.67 2.59 0.11 o 0.544429
1 6 5 1338.35 1298.59 59.85 o 0.544426
7 3 7 14.19 13.71 0.51 o 0.544204
