#------------------------------------------------------------------------------
#$Date: 2016-06-17 04:50:27 +0300 (Fri, 17 Jun 2016) $
#$Revision: 183633 $
#$URL: file:///home/coder/svn-repositories/cod/cif/2/10/75/2107515.cif $
#------------------------------------------------------------------------------
#
# This file is available in the Crystallography Open Database (COD),
# http://www.crystallography.net/. The original data for this entry
# were provided by IUCr Journals, http://journals.iucr.org/.
#
# The file may be used within the scientific community so long as
# proper attribution is given to the journal article from which the
# data were obtained.
#
data_2107515
loop_
_publ_author_name
'Sist, Mattia'
'Zhang, Jiawei'
'Brummerstedt Iversen, Bo'
_publ_section_title
;
 Crystal structure and phase transition of thermoelectric SnSe
;
_journal_coeditor_code           GW5043
_journal_issue                   3
_journal_name_full               'Acta Crystallographica Section B'
_journal_page_first              310
_journal_page_last               316
_journal_paper_doi               10.1107/S2052520616003334
_journal_volume                  72
_journal_year                    2016
_chemical_formula_moiety         'Se1 Sn0.9816'
_chemical_formula_sum            'Se Sn0.9816'
_chemical_formula_weight         195.50
_chemical_name_common            'Tin Selenide'
_space_group_IT_number           62
_symmetry_cell_setting           orthorhombic
_symmetry_Int_Tables_number      62
_symmetry_space_group_name_Hall  '-P 2ac 2n'
_symmetry_space_group_name_H-M   'P n m a'
_cell_angle_alpha                90
_cell_angle_beta                 90
_cell_angle_gamma                90
_cell_formula_units_Z            4
_cell_length_a                   11.57949(14)
_cell_length_b                   4.19611(5)
_cell_length_c                   4.40769(8)
_cell_measurement_temperature    560(5)
_cell_volume                     214.164(5)
_computing_structure_refinement  'Jana2006, (Petricek,2014)'
_diffrn_ambient_temperature      560(5)
_diffrn_detector_type            'Image plate'
_diffrn_measurement_device_type  BL44B2
_diffrn_radiation_probe          x-ray
_diffrn_radiation_type           Synchrotron,monochromatic
_diffrn_radiation_wavelength     0.50021
_diffrn_source_type              'Spring8, BL44B2 beamline'
_exptl_absorpt_coefficient_mu    11.098
_exptl_absorpt_correction_type   none
_exptl_crystal_density_diffrn    6.063
_exptl_crystal_F_000             332.3
_pd_char_colour                  metallic_grey
_pd_meas_2theta_range_inc        0.01
_pd_meas_2theta_range_max        77.970
_pd_meas_2theta_range_min        0.010
_pd_meas_number_of_points        7797
_pd_proc_2theta_range_inc        0.01
_pd_proc_2theta_range_max        37.82
_pd_proc_2theta_range_min        4.02
_pd_proc_ls_background_function
'Manual background combined with 8 Chebyshev polynoms'
_pd_proc_ls_pref_orient_corr     none
_pd_proc_ls_profile_function     Pseudo-Voigt
_pd_proc_ls_prof_R_factor        0.0168
_pd_proc_ls_prof_wR_expected     0.0134
_pd_proc_ls_prof_wR_factor       0.0219
_pd_spec_mounting                capillary
_pd_spec_mount_mode              transmission
_refine_ls_goodness_of_fit_all   1.64
_refine_ls_number_constraints    0
_refine_ls_number_parameters     32
_refine_ls_number_restraints     0
_refine_ls_R_factor_all          0.0278
_refine_ls_R_factor_gt           0.0278
_refine_ls_shift/su_max          0.0352
_refine_ls_shift/su_mean         0.0082
_refine_ls_weighting_scheme      sigma
_refine_ls_wR_factor_all         0.0150
_refine_ls_wR_factor_gt          0.0150
_cod_data_source_file            gw5043sup1.cif
_cod_data_source_block           560
_cod_depositor_comments
;
The following automatic conversions were performed:

'_diffrn_radiation_probe' value 'X-ray' changed to 'x-ray' according
to
/usr/data/users/saulius/crontab/automatic-downloads/rss-feeds/IUCr/lib/dictionaries/cif_core.dic
dictionary named 'cif_core.dic' version 2.4.2 from 2011-04-26.

Automatic conversion script
Id: cif_fix_values 4268 2015-11-12 08:31:59Z antanas 

 Adding full bibliography for 2107508--2107520.cif.
;
_cod_original_formula_sum        'Se1 Sn0.9816'
_cod_database_code               2107515
_cod_database_fobs_code          2107515
loop_
_space_group_symop_id
_space_group_symop_operation_xyz
1 x,y,z
2 -x+1/2,-y,z+1/2
3 -x,y+1/2,-z
4 x+1/2,-y+1/2,-z+1/2
5 -x,-y,-z
6 x+1/2,y,-z+1/2
7 x,-y+1/2,z
8 -x+1/2,y+1/2,z+1/2
loop_
_atom_site_label
_atom_site_type_symbol
_atom_site_fract_x
_atom_site_fract_y
_atom_site_fract_z
_atom_site_adp_type
_atom_site_U_iso_or_equiv
_atom_site_site_symmetry_multiplicity
_atom_site_occupancy
_atom_site_calc_flag
Sn Sn 0.11982(5) 0.25 0.09182(11) Uani 0.0301(3) 4 0.9816 d
Se Se 0.85529(6) 0.25 0.48266(13) Uani 0.0233(3) 4 1 d
loop_
_atom_site_aniso_label
_atom_site_aniso_type_symbol
_atom_site_aniso_U_11
_atom_site_aniso_U_22
_atom_site_aniso_U_33
_atom_site_aniso_U_12
_atom_site_aniso_U_13
_atom_site_aniso_U_23
Sn Sn 0.0300(4) 0.0291(5) 0.0313(4) 0 -0.0079(4) 0
Se Se 0.0227(5) 0.0241(5) 0.0231(6) 0 -0.0025(4) 0
loop_
_atom_type_symbol
_atom_type_scat_dispersion_real
_atom_type_scat_dispersion_imag
_atom_type_scat_source
Se 0.2899 1.2209 'International Tables Vol C tables 4.2.6.8 and 6.1.1.1'
Sn -1.5316 0.7679 'International Tables Vol C tables 4.2.6.8 and 6.1.1.1'
loop_
_geom_angle_atom_site_label_1
_geom_angle_atom_site_label_2
_geom_angle_atom_site_label_3
_geom_angle_site_symmetry_1
_geom_angle_site_symmetry_2
_geom_angle_site_symmetry_3
_geom_angle
Se Sn Se 4_455 1_555 3_656 88.744
Se Sn Se 4_455 1_555 3_655 79.723
Se Sn Se 3_645 1_555 3_655 78.926
Se Sn Se 3_646 1_555 3_656 95.744
Se Sn Se 3_656 1_555 3_655 91.621
Se Sn Se 4_455 1_555 1_455 157.512
Se Sn Sn 4_455 1_555 3_545 138.094
loop_
_geom_bond_atom_site_label_1
_geom_bond_atom_site_label_2
_geom_bond_site_symmetry_1
_geom_bond_site_symmetry_2
_geom_bond_distance
Sn Se 1_555 4_455 2.746
Sn Se 1_555 3_656 2.829
Sn Se 1_555 3_655 3.301
Sn Se 1_555 1_455 3.514
Sn Sn 1_555 3_545 3.572
Sn Se 1_555 1_454 4.073
loop_
_pd_proc_point_id
_pd_proc_2theta_corrected
_pd_proc_intensity_net
_pd_calc_intensity_net
_pd_proc_ls_weight
1 4.0200 3123.00 3187.37 56.00
2 4.0300 3079.00 3186.93 55.00
3 4.0400 3098.00 3186.50 56.00
4 4.0500 3126.00 3186.08 56.00
5 4.0600 3125.00 3185.67 56.00
6 4.0700 3083.00 3185.27 56.00
7 4.0800 3127.00 3184.88 56.00
8 4.0900 3111.00 3184.50 56.00
9 4.1000 3117.00 3184.13 56.00
10 4.1100 3138.00 3183.77 56.00
11 4.1200 3154.00 3183.42 56.00
12 4.1300 3123.00 3183.07 56.00
13 4.1400 3131.00 3182.74 56.00
14 4.1500 3118.00 3182.42 56.00
15 4.1600 3149.00 3182.10 56.00
16 4.1700 3164.00 3181.80 56.00
17 4.1800 3160.00 3181.50 56.00
18 4.1900 3146.00 3181.22 56.00
19 4.2000 3169.00 3180.94 56.00
20 4.2100 3116.00 3180.68 56.00
21 4.2200 3151.00 3180.42 56.00
22 4.2300 3132.00 3180.17 56.00
23 4.2400 3140.00 3179.93 56.00
24 4.2500 3147.00 3179.70 56.00
25 4.2600 3143.00 3179.48 56.00
26 4.2700 3137.00 3179.26 56.00
27 4.2800 3158.00 3179.06 56.00
28 4.2900 3182.00 3178.87 56.00
29 4.3000 3144.00 3178.68 56.00
30 4.3100 3124.00 3178.50 56.00
31 4.3200 3183.00 3178.34 56.00
32 4.3300 3132.00 3178.18 56.00
33 4.3400 3167.00 3178.03 56.00
34 4.3500 3177.00 3177.89 56.00
35 4.3600 3193.00 3177.76 57.00
36 4.3700 3165.00 3177.64 56.00
37 4.3800 3196.00 3177.52 57.00
38 4.3900 3150.00 3177.42 56.00
39 4.4000 3185.00 3177.33 56.00
40 4.4100 3186.00 3177.24 56.00
41 4.4200 3206.00 3177.17 57.00
42 4.4300 3189.00 3177.10 56.00
43 4.4400 3205.00 3177.05 57.00
44 4.4500 3180.00 3177.00 56.00
45 4.4600 3206.00 3176.96 57.00
46 4.4700 3209.00 3176.94 57.00
47 4.4800 3191.00 3176.92 56.00
48 4.4900 3205.00 3176.92 57.00
49 4.5000 3215.00 3176.92 57.00
50 4.5100 3177.00 3176.94 56.00
51 4.5200 3221.00 3176.96 57.00
52 4.5300 3231.00 3177.00 57.00
53 4.5400 3236.00 3177.06 57.00
54 4.5500 3207.00 3177.12 57.00
55 4.5600 3227.00 3177.20 57.00
56 4.5700 3220.00 3177.29 57.00
57 4.5800 3251.00 3177.39 57.00
58 4.5900 3266.00 3177.52 57.00
59 4.6000 3267.00 3177.65 57.00
60 4.6100 3272.00 3177.81 57.00
61 4.6200 3319.00 3177.98 58.00
62 4.6300 3303.00 3178.18 57.00
63 4.6400 3328.00 3178.39 58.00
64 4.6500 3377.00 3178.63 58.00
65 4.6600 3351.00 3178.90 58.00
66 4.6700 3308.00 3179.20 58.00
67 4.6800 3296.00 3179.53 57.00
68 4.6900 3282.00 3179.89 57.00
69 4.7000 3288.00 3180.30 57.00
70 4.7100 3259.00 3180.75 57.00
71 4.7200 3255.00 3181.26 57.00
72 4.7300 3259.00 3181.83 57.00
73 4.7400 3285.00 3182.48 57.00
74 4.7500 3240.00 3183.22 57.00
75 4.7600 3265.00 3184.06 57.00
76 4.7700 3273.00 3185.03 57.00
77 4.7800 3277.00 3186.15 57.00
78 4.7900 3226.00 3187.47 57.00
79 4.8000 3272.00 3189.03 57.00
80 4.8100 3262.00 3190.90 57.00
81 4.8200 3271.00 3193.17 57.00
82 4.8300 3272.00 3195.97 57.00
83 4.8400 3302.00 3199.49 57.00
84 4.8500 3262.00 3204.00 57.00
85 4.8600 3288.00 3209.93 57.00
86 4.8700 3339.00 3217.98 58.00
87 4.8800 3391.00 3229.75 58.00
88 4.8900 3453.00 3250.98 59.00
89 4.9000 3532.00 3304.99 59.00
90 4.9100 3711.00 3466.01 61.00
91 4.9200 4155.00 3883.73 64.00
92 4.9300 4865.00 4686.61 70.00
93 4.9400 5761.00 5715.52 76.00
94 4.9500 6145.00 6358.07 78.00
95 4.9600 5598.00 6021.00 75.00
96 4.9700 4651.00 5037.28 68.00
97 4.9800 3851.00 4116.35 62.00
98 4.9900 3437.00 3573.20 59.00
99 5.0000 3291.00 3344.21 57.00
100 5.0100 3225.00 3266.07 57.00
101 5.0200 3225.00 3238.32 57.00
102 5.0300 3169.00 3224.81 56.00
103 5.0400 3157.00 3216.17 56.00
104 5.0500 3168.00 3210.05 56.00
105 5.0600 3186.00 3205.94 56.00
106 5.0700 3202.00 3202.54 57.00
107 5.0800 3180.00 3199.94 56.00
108 5.0900 3172.00 3197.93 56.00
109 5.1000 3192.00 3196.36 56.00
110 5.1100 3173.00 3195.13 56.00
111 5.1200 3166.00 3194.16 56.00
112 5.1300 3176.00 3193.39 56.00
113 5.1400 3171.00 3192.79 56.00
114 5.1500 3144.00 3192.32 56.00
115 5.1600 3159.00 3191.97 56.00
116 5.1700 3148.00 3191.71 56.00
117 5.1800 3186.00 3191.52 56.00
118 5.1900 3180.00 3191.40 56.00
119 5.2000 3162.00 3191.34 56.00
120 5.2100 3153.00 3191.32 56.00
121 5.2200 3187.00 3191.35 56.00
122 5.2300 3147.00 3191.41 56.00
123 5.2400 3168.00 3191.50 56.00
124 5.2500 3199.00 3191.62 57.00
125 5.2600 3170.00 3191.77 56.00
126 5.2700 3151.00 3191.93 56.00
127 5.2800 3195.00 3192.12 57.00
128 5.2900 3161.00 3192.33 56.00
129 5.3000 3193.00 3192.55 57.00
130 5.3100 3202.00 3192.79 57.00
131 5.3200 3196.00 3193.04 57.00
132 5.3300 3160.00 3193.30 56.00
133 5.3400 3196.00 3193.58 57.00
134 5.3500 3167.00 3193.86 56.00
135 5.3600 3192.00 3194.16 56.00
136 5.3700 3190.00 3194.46 56.00
137 5.3800 3206.00 3194.78 57.00
138 5.3900 3163.00 3195.10 56.00
139 5.4000 3173.00 3195.43 56.00
140 5.4100 3164.00 3195.77 56.00
141 5.4200 3201.00 3196.11 57.00
142 5.4300 3191.00 3196.46 56.00
143 5.4400 3193.00 3196.82 57.00
144 5.4500 3168.00 3197.19 56.00
145 5.4600 3180.00 3197.56 56.00
146 5.4700 3204.00 3197.93 57.00
147 5.4800 3191.00 3198.31 56.00
148 5.4900 3221.00 3198.70 57.00
149 5.5000 3218.00 3199.09 57.00
150 5.5100 3201.00 3199.48 57.00
151 5.5200 3210.00 3199.88 57.00
152 5.5300 3192.00 3200.29 56.00
153 5.5400 3173.00 3200.70 56.00
154 5.5500 3227.00 3201.11 57.00
155 5.5600 3210.00 3201.53 57.00
156 5.5700 3215.00 3201.95 57.00
157 5.5800 3224.00 3202.38 57.00
158 5.5900 3201.00 3202.81 57.00
159 5.6000 3204.00 3203.24 57.00
160 5.6100 3219.00 3203.67 57.00
161 5.6200 3209.00 3204.11 57.00
162 5.6300 3173.00 3204.56 56.00
163 5.6400 3177.00 3205.00 56.00
164 5.6500 3166.00 3205.45 56.00
165 5.6600 3217.00 3205.91 57.00
166 5.6700 3189.00 3206.37 56.00
167 5.6800 3216.00 3206.82 57.00
168 5.6900 3181.00 3207.29 56.00
169 5.7000 3209.00 3207.75 57.00
170 5.7100 3180.00 3208.22 56.00
171 5.7200 3216.00 3208.69 57.00
172 5.7300 3212.00 3209.17 57.00
173 5.7400 3207.00 3209.65 57.00
174 5.7500 3212.00 3210.13 57.00
175 5.7600 3233.00 3210.61 57.00
176 5.7700 3208.00 3211.10 57.00
177 5.7800 3206.00 3211.59 57.00
178 5.7900 3232.00 3212.08 57.00
179 5.8000 3221.00 3212.57 57.00
180 5.8100 3210.00 3213.07 57.00
181 5.8200 3212.00 3213.57 57.00
182 5.8300 3205.00 3214.07 57.00
183 5.8400 3222.00 3214.57 57.00
184 5.8500 3233.00 3215.08 57.00
185 5.8600 3214.00 3215.59 57.00
186 5.8700 3221.00 3216.10 57.00
187 5.8800 3210.00 3216.62 57.00
188 5.8900 3218.00 3217.13 57.00
189 5.9000 3234.00 3218.79 57.00
190 5.9100 3231.00 3220.45 57.00
191 5.9200 3222.00 3222.12 57.00
192 5.9300 3222.00 3223.78 57.00
193 5.9400 3243.00 3225.45 57.00
194 5.9500 3210.00 3227.12 57.00
195 5.9600 3229.00 3228.79 57.00
196 5.9700 3252.00 3230.47 57.00
197 5.9800 3217.00 3232.15 57.00
198 5.9900 3208.00 3233.83 57.00
199 6.0000 3226.00 3235.51 57.00
200 6.0100 3247.00 3237.19 57.00
201 6.0200 3242.00 3238.88 57.00
202 6.0300 3223.00 3240.57 57.00
203 6.0400 3215.00 3242.27 57.00
204 6.0500 3245.00 3243.96 57.00
205 6.0600 3245.00 3245.66 57.00
206 6.0700 3248.00 3247.36 57.00
207 6.0800 3260.00 3249.06 57.00
208 6.0900 3255.00 3250.77 57.00
209 6.1000 3253.00 3252.48 57.00
210 6.1100 3237.00 3254.19 57.00
211 6.1200 3250.00 3255.90 57.00
212 6.1300 3226.00 3257.62 57.00
213 6.1400 3222.00 3259.34 57.00
214 6.1500 3266.00 3261.06 57.00
215 6.1600 3254.00 3262.79 57.00
216 6.1700 3235.00 3264.51 57.00
217 6.1800 3266.00 3266.25 57.00
218 6.1900 3237.00 3267.98 57.00
219 6.2000 3250.00 3269.72 57.00
220 6.2100 3263.00 3271.28 57.00
221 6.2200 3267.00 3273.03 57.00
222 6.2300 3234.00 3274.78 57.00
223 6.2400 3287.00 3276.54 57.00
224 6.2500 3241.00 3278.30 57.00
225 6.2600 3253.00 3280.07 57.00
226 6.2700 3252.00 3281.83 57.00
227 6.2800 3262.00 3283.61 57.00
228 6.2900 3253.00 3285.39 57.00
229 6.3000 3262.00 3287.17 57.00
230 6.3100 3234.00 3288.96 57.00
231 6.3200 3253.00 3290.75 57.00
232 6.3300 3293.00 3292.55 57.00
233 6.3400 3278.00 3294.35 57.00
234 6.3500 3272.00 3298.50 57.00
235 6.3600 3306.00 3300.35 57.00
236 6.3700 3286.00 3302.20 57.00
237 6.3800 3297.00 3304.06 57.00
238 6.3900 3317.00 3305.93 58.00
239 6.4000 3281.00 3307.81 57.00
240 6.4100 3247.00 3309.69 57.00
241 6.4200 3279.00 3311.59 57.00
242 6.4300 3313.00 3313.50 58.00
243 6.4400 3283.00 3315.42 57.00
244 6.4500 3318.00 3317.35 58.00
245 6.4600 3307.00 3319.30 58.00
246 6.4700 3305.00 3321.26 57.00
247 6.4800 3337.00 3323.24 58.00
248 6.4900 3307.00 3325.23 58.00
249 6.5000 3309.00 3327.24 58.00
250 6.5100 3318.00 3329.28 58.00
251 6.5200 3325.00 3331.33 58.00
252 6.5300 3304.00 3333.41 57.00
253 6.5400 3338.00 3335.51 58.00
254 6.5500 3305.00 3337.64 57.00
255 6.5600 3323.00 3339.81 58.00
256 6.5700 3315.00 3342.00 58.00
257 6.5800 3324.00 3344.24 58.00
258 6.5900 3294.00 3346.51 57.00
259 6.6000 3338.00 3348.83 58.00
260 6.6100 3305.00 3351.21 57.00
261 6.6200 3346.00 3353.64 58.00
262 6.6300 3338.00 3356.13 58.00
263 6.6400 3365.00 3358.70 58.00
264 6.6500 3330.00 3361.34 58.00
265 6.6600 3356.00 3364.08 58.00
266 6.6700 3303.00 3366.92 57.00
267 6.6800 3353.00 3370.78 58.00
268 6.6900 3320.00 3373.89 58.00
269 6.7000 3359.00 3377.15 58.00
270 6.7100 3321.00 3380.59 58.00
271 6.7200 3372.00 3384.24 58.00
272 6.7300 3373.00 3388.14 58.00
273 6.7400 3352.00 3392.33 58.00
274 6.7500 3375.00 3396.87 58.00
275 6.7600 3382.00 3401.81 58.00
276 6.7700 3372.00 3407.25 58.00
277 6.7800 3416.00 3413.29 58.00
278 6.7900 3379.00 3420.07 58.00
279 6.8000 3386.00 3427.76 58.00
280 6.8100 3400.00 3436.60 58.00
281 6.8200 3409.00 3446.89 58.00
282 6.8300 3402.00 3459.07 58.00
283 6.8400 3421.00 3473.75 58.00
284 6.8500 3457.00 3491.97 59.00
285 6.8600 3482.00 3515.68 59.00
286 6.8700 3549.00 3549.22 60.00
287 6.8800 3612.00 3602.27 60.00
288 6.8900 3692.00 3694.77 61.00
289 6.9000 3876.00 3861.72 62.00
290 6.9100 4117.00 4151.88 64.00
291 6.9200 4587.00 4612.39 68.00
292 6.9300 5200.00 5256.30 72.00
293 6.9400 6010.00 6021.98 78.00
294 6.9500 6746.00 6733.96 82.00
295 6.9600 7224.00 7104.28 85.00
296 6.9700 7071.00 6918.70 84.00
297 6.9800 6437.00 6292.47 80.00
298 6.9900 5643.00 5522.41 75.00
299 7.0000 4973.00 4828.16 71.00
300 7.0100 4436.00 4306.67 67.00
301 7.0200 4092.00 3965.88 64.00
302 7.0300 3856.00 3766.03 62.00
303 7.0400 3747.00 3656.27 61.00
304 7.0500 3657.00 3596.16 60.00
305 7.0600 3605.00 3560.99 60.00
306 7.0700 3517.00 3538.16 59.00
307 7.0800 3514.00 3521.94 59.00
308 7.0900 3457.00 3509.78 59.00
309 7.1000 3492.00 3500.42 59.00
310 7.1100 3493.00 3493.13 59.00
311 7.1200 3452.00 3487.43 59.00
312 7.1300 3422.00 3482.97 58.00
313 7.1400 3430.00 3479.50 59.00
314 7.1500 3405.00 3476.83 58.00
315 7.1600 3429.00 3474.81 59.00
316 7.1700 3447.00 3473.31 59.00
317 7.1800 3449.00 3472.26 59.00
318 7.1900 3421.00 3471.58 58.00
319 7.2000 3469.00 3471.20 59.00
320 7.2100 3425.00 3471.09 59.00
321 7.2200 3436.00 3471.21 59.00
322 7.2300 3459.00 3471.52 59.00
323 7.2400 3422.00 3472.01 58.00
324 7.2500 3407.00 3472.63 58.00
325 7.2600 3466.00 3473.39 59.00
326 7.2700 3440.00 3474.27 59.00
327 7.2800 3465.00 3475.24 59.00
328 7.2900 3459.00 3476.30 59.00
329 7.3000 3463.00 3477.45 59.00
330 7.3100 3433.00 3478.67 59.00
331 7.3200 3443.00 3479.96 59.00
332 7.3300 3423.00 3481.31 59.00
333 7.3400 3416.00 3482.71 58.00
334 7.3500 3441.00 3484.17 59.00
335 7.3600 3471.00 3485.67 59.00
336 7.3700 3452.00 3487.22 59.00
337 7.3800 3463.00 3488.81 59.00
338 7.3900 3469.00 3490.45 59.00
339 7.4000 3501.00 3492.12 59.00
340 7.4100 3470.00 3493.82 59.00
341 7.4200 3470.00 3495.57 59.00
342 7.4300 3430.00 3497.35 59.00
343 7.4400 3477.00 3499.16 59.00
344 7.4500 3438.00 3501.00 59.00
345 7.4600 3442.00 3502.88 59.00
346 7.4700 3459.00 3504.79 59.00
347 7.4800 3457.00 3506.73 59.00
348 7.4900 3441.00 3508.70 59.00
349 7.5000 3492.00 3510.71 59.00
350 7.5100 3475.00 3512.75 59.00
351 7.5200 3475.00 3514.83 59.00
352 7.5300 3480.00 3516.94 59.00
353 7.5400 3498.00 3518.27 59.00
354 7.5500 3473.00 3519.64 59.00
355 7.5600 3511.00 3521.05 59.00
356 7.5700 3479.00 3522.51 59.00
357 7.5800 3504.00 3524.00 59.00
358 7.5900 3532.00 3525.54 59.00
359 7.6000 3517.00 3527.12 59.00
360 7.6100 3512.00 3528.75 59.00
361 7.6200 3538.00 3530.44 59.00
362 7.6300 3487.00 3532.18 59.00
363 7.6400 3519.00 3533.98 59.00
364 7.6500 3529.00 3535.84 59.00
365 7.6600 3564.00 3537.76 60.00
366 7.6700 3496.00 3539.76 59.00
367 7.6800 3518.00 3541.84 59.00
368 7.6900 3510.00 3543.99 59.00
369 7.7000 3529.00 3546.24 59.00
370 7.7100 3573.00 3548.58 60.00
371 7.7200 3517.00 3551.02 59.00
372 7.7300 3518.00 3553.57 59.00
373 7.7400 3538.00 3556.25 59.00
374 7.7500 3544.00 3559.06 60.00
375 7.7600 3561.00 3562.01 60.00
376 7.7700 3581.00 3565.12 60.00
377 7.7800 3529.00 3568.41 59.00
378 7.7900 3538.00 3571.89 59.00
379 7.8000 3557.00 3575.58 60.00
380 7.8100 3567.00 3579.50 60.00
381 7.8200 3579.00 3583.68 60.00
382 7.8300 3584.00 3588.14 60.00
383 7.8400 3571.00 3592.93 60.00
384 7.8500 3560.00 3598.08 60.00
385 7.8600 3572.00 3603.63 60.00
386 7.8700 3579.00 3609.64 60.00
387 7.8800 3607.00 3616.16 60.00
388 7.8900 3607.00 3626.64 60.00
389 7.9000 3618.00 3634.46 60.00
390 7.9100 3606.00 3643.04 60.00
391 7.9200 3650.00 3652.50 60.00
392 7.9300 3632.00 3662.98 60.00
393 7.9400 3671.00 3674.66 61.00
394 7.9500 3678.00 3687.72 61.00
395 7.9600 3686.00 3702.43 61.00
396 7.9700 3676.00 3719.08 61.00
397 7.9800 3729.00 3738.07 61.00
398 7.9900 3733.00 3759.86 61.00
399 8.0000 3781.00 3785.09 61.00
400 8.0100 3819.00 3814.52 62.00
401 8.0200 3830.00 3849.19 62.00
402 8.0300 3849.00 3890.44 62.00
403 8.0400 3931.00 3940.09 63.00
404 8.0500 4005.00 4000.64 63.00
405 8.0600 4108.00 4075.69 64.00
406 8.0700 4251.00 4171.02 65.00
407 8.0800 4438.00 4297.53 67.00
408 8.0900 4655.00 4479.04 68.00
409 8.1000 5095.00 4769.95 71.00
410 8.1100 5686.00 5285.08 75.00
411 8.1200 6708.00 6230.80 82.00
412 8.1300 8340.00 7897.27 91.00
413 8.1400 10708.00 10559.50 103.00
414 8.1500 14058.00 14268.80 119.00
415 8.1600 18303.00 18588.40 135.00
416 8.1700 21818.00 22331.20 148.00
417 8.1800 23186.00 23711.40 152.00
418 8.1900 21237.00 21797.60 146.00
419 8.2000 17084.00 17829.70 131.00
420 8.2100 12816.00 13566.50 113.00
421 8.2200 9670.00 10043.00 98.00
422 8.2300 7373.00 7586.61 86.00
423 8.2400 6116.00 6085.25 78.00
424 8.2500 5297.00 5248.82 73.00
425 8.2600 4813.00 4798.61 69.00
426 8.2700 4522.00 4546.75 67.00
427 8.2800 4326.00 4392.42 66.00
428 8.2900 4193.00 4289.14 65.00
429 8.3000 4114.00 4217.03 64.00
430 8.3100 4047.00 4167.32 64.00
431 8.3200 4071.00 4135.89 64.00
432 8.3300 4017.00 4121.00 63.00
433 8.3400 4116.00 4123.00 64.00
434 8.3500 4141.00 4145.51 64.00
435 8.3600 4276.00 4199.54 65.00
436 8.3700 4475.00 4312.76 67.00
437 8.3800 4728.00 4544.45 69.00
438 8.3900 5141.00 4996.89 72.00
439 8.4000 5933.00 5800.03 77.00
440 8.4100 6977.00 7045.57 84.00
441 8.4200 8578.00 8674.23 93.00
442 8.4300 10235.00 10347.50 101.00
443 8.4400 11241.00 11370.80 106.00
444 8.4500 11076.00 11082.00 105.00
445 8.4600 9859.00 9682.89 99.00
446 8.4700 8105.00 7949.16 90.00
447 8.4800 6565.00 6437.20 81.00
448 8.4900 5478.00 5357.04 74.00
449 8.5000 4828.00 4702.07 69.00
450 8.5100 4383.00 4333.44 66.00
451 8.5200 4173.00 4136.83 65.00
452 8.5300 4017.00 4026.88 63.00
453 8.5400 3944.00 3958.06 63.00
454 8.5500 3903.00 3909.84 62.00
455 8.5600 3840.00 3873.49 62.00
456 8.5700 3775.00 3845.03 61.00
457 8.5800 3810.00 3822.27 62.00
458 8.5900 3759.00 3803.84 61.00
459 8.6000 3779.00 3788.75 61.00
460 8.6100 3793.00 3776.30 62.00
461 8.6200 3743.00 3765.96 61.00
462 8.6300 3716.00 3757.34 61.00
463 8.6400 3744.00 3750.12 61.00
464 8.6500 3738.00 3744.08 61.00
465 8.6600 3770.00 3739.02 61.00
466 8.6700 3760.00 3734.79 61.00
467 8.6800 3779.00 3731.28 61.00
468 8.6900 3782.00 3728.39 61.00
469 8.7000 3755.00 3726.05 61.00
470 8.7100 3757.00 3724.17 61.00
471 8.7200 3748.00 3722.72 61.00
472 8.7300 3801.00 3721.65 62.00
473 8.7400 3785.00 3720.91 62.00
474 8.7500 3775.00 3720.49 61.00
475 8.7600 3797.00 3720.34 62.00
476 8.7700 3745.00 3720.46 61.00
477 8.7800 3781.00 3720.82 61.00
478 8.7900 3781.00 3721.41 61.00
479 8.8000 3781.00 3722.22 61.00
480 8.8100 3764.00 3723.23 61.00
481 8.8200 3784.00 3724.43 62.00
482 8.8300 3751.00 3725.82 61.00
483 8.8400 3754.00 3727.40 61.00
484 8.8500 3791.00 3729.15 62.00
485 8.8600 3803.00 3731.08 62.00
486 8.8700 3782.00 3732.79 61.00
487 8.8800 3796.00 3735.07 62.00
488 8.8900 3765.00 3737.53 61.00
489 8.9000 3792.00 3740.17 62.00
490 8.9100 3826.00 3742.98 62.00
491 8.9200 3804.00 3745.98 62.00
492 8.9300 3800.00 3749.16 62.00
493 8.9400 3836.00 3752.54 62.00
494 8.9500 3819.00 3756.11 62.00
495 8.9600 3831.00 3759.90 62.00
496 8.9700 3894.00 3763.89 62.00
497 8.9800 3866.00 3768.12 62.00
498 8.9900 3843.00 3772.58 62.00
499 9.0000 3876.00 3777.30 62.00
500 9.0100 3867.00 3782.27 62.00
501 9.0200 3891.00 3787.53 62.00
502 9.0300 3892.00 3793.09 62.00
503 9.0400 3889.00 3798.96 62.00
504 9.0500 3895.00 3805.18 62.00
505 9.0600 3929.00 3811.77 63.00
506 9.0700 3901.00 3818.76 62.00
507 9.0800 3926.00 3826.17 63.00
508 9.0900 3975.00 3834.06 63.00
509 9.1000 3937.00 3842.46 63.00
510 9.1100 3947.00 3851.42 63.00
511 9.1200 3969.00 3861.00 63.00
512 9.1300 3956.00 3871.25 63.00
513 9.1400 3985.00 3882.25 63.00
514 9.1500 4015.00 3894.10 63.00
515 9.1600 4011.00 3906.87 63.00
516 9.1700 3995.00 3920.70 63.00
517 9.1800 4031.00 3935.71 63.00
518 9.1900 4048.00 3952.06 64.00
519 9.2000 4080.00 3969.95 64.00
520 9.2100 4096.00 3989.61 64.00
521 9.2200 4137.00 4011.31 64.00
522 9.2300 4089.00 4035.39 64.00
523 9.2400 4155.00 4062.28 64.00
524 9.2500 4164.00 4092.50 65.00
525 9.2600 4197.00 4126.71 65.00
526 9.2700 4286.00 4165.75 65.00
527 9.2800 4275.00 4210.72 65.00
528 9.2900 4300.00 4263.07 66.00
529 9.3000 4385.00 4324.70 66.00
530 9.3100 4427.00 4398.25 67.00
531 9.3200 4505.00 4487.35 67.00
532 9.3300 4605.00 4597.21 68.00
533 9.3400 4737.00 4735.65 69.00
534 9.3500 4897.00 4916.04 70.00
535 9.3600 5252.00 5166.65 72.00
536 9.3700 5690.00 5559.95 75.00
537 9.3800 6572.00 6282.09 81.00
538 9.3900 8130.00 7737.85 90.00
539 9.4000 10776.00 10581.80 104.00
540 9.4100 15146.00 15455.80 123.00
541 9.4200 22010.00 22313.90 148.00
542 9.4300 29321.00 29536.40 171.00
543 9.4400 33522.00 33385.70 183.00
544 9.4500 31328.00 30781.10 177.00
545 9.4600 24223.00 23946.30 156.00
546 9.4700 16768.00 16894.60 129.00
547 9.4800 11629.00 11661.90 108.00
548 9.4900 8536.00 8534.24 92.00
549 9.5000 7004.00 6944.02 84.00
550 9.5100 6209.00 6205.60 79.00
551 9.5200 5775.00 5862.34 76.00
552 9.5300 5537.00 5694.67 74.00
553 9.5400 5499.00 5616.44 74.00
554 9.5500 5474.00 5596.06 74.00
555 9.5600 5513.00 5620.96 74.00
556 9.5700 5562.00 5685.81 75.00
557 9.5800 5644.00 5789.12 75.00
558 9.5900 5712.00 5932.29 76.00
559 9.6000 5888.00 6119.33 77.00
560 9.6100 6110.00 6357.14 78.00
561 9.6200 6395.00 6656.23 80.00
562 9.6300 6730.00 7031.76 82.00
563 9.6400 7184.00 7505.55 85.00
564 9.6500 7709.00 8109.33 88.00
565 9.6600 8582.00 8891.97 93.00
566 9.6700 9723.00 9938.29 99.00
567 9.6800 11720.00 11430.80 108.00
568 9.6900 14780.00 13828.90 122.00
569 9.7000 19947.00 18272.70 141.00
570 9.7100 28827.00 27142.80 170.00
571 9.7200 45016.00 44157.30 212.00
572 9.7300 71155.00 72837.50 267.00
573 9.7400 111213.00 112865.00 333.00
574 9.7500 155325.00 155247.00 394.00
575 9.7600 179609.00 179042.00 424.00
576 9.7700 167498.00 165780.00 409.00
577 9.7800 128610.00 126576.00 359.00
578 9.7900 84231.00 84610.90 290.00
579 9.8000 52155.00 52458.00 228.00
580 9.8100 33178.00 32554.90 182.00
581 9.8200 22898.00 22112.20 151.00
582 9.8300 17661.00 17269.10 133.00
583 9.8400 15598.00 15335.70 125.00
584 9.8500 15642.00 15216.80 125.00
585 9.8600 18191.00 17293.80 135.00
586 9.8700 24429.00 23493.90 156.00
587 9.8800 36299.00 36822.90 191.00
588 9.8900 56683.00 58899.70 238.00
589 9.9000 84482.00 85601.30 291.00
590 9.9100 102359.00 103332.00 320.00
591 9.9200 98258.00 96664.60 313.00
592 9.9300 73634.00 71524.10 271.00
593 9.9400 44782.00 45089.50 212.00
594 9.9500 25226.00 26319.80 159.00
595 9.9600 15330.00 15971.30 124.00
596 9.9700 10629.00 11140.10 103.00
597 9.9800 8279.00 8947.45 91.00
598 9.9900 7072.00 7800.94 84.00
599 10.0000 6318.00 7069.94 79.00
600 10.0100 5829.00 6541.62 76.00
601 10.0200 5567.00 6135.27 75.00
602 10.0300 5335.00 5817.12 73.00
603 10.0400 5197.00 5561.26 72.00
604 10.0500 5076.00 5351.93 71.00
605 10.0600 4941.00 5178.12 70.00
606 10.0700 4792.00 5032.03 69.00
607 10.0800 4762.00 4907.72 69.00
608 10.0900 4667.00 4800.95 68.00
609 10.1000 4618.00 4708.45 68.00
610 10.1100 4574.00 4627.70 68.00
611 10.1200 4519.00 4556.70 67.00
612 10.1300 4434.00 4493.90 67.00
613 10.1400 4437.00 4438.04 67.00
614 10.1500 4352.00 4388.10 66.00
615 10.1600 4373.00 4343.24 66.00
616 10.1700 4370.00 4302.77 66.00
617 10.1800 4308.00 4266.14 66.00
618 10.1900 4264.00 4232.85 65.00
619 10.2000 4264.00 4202.50 65.00
620 10.2100 4219.00 4173.86 65.00
621 10.2200 4227.00 4148.42 65.00
622 10.2300 4225.00 4125.04 65.00
623 10.2400 4151.00 4103.50 64.00
624 10.2500 4151.00 4083.59 64.00
625 10.2600 4143.00 4076.40 64.00
626 10.2700 4108.00 4059.44 64.00
627 10.2800 4119.00 4043.69 64.00
628 10.2900 4112.00 4029.04 64.00
629 10.3000 4080.00 4015.39 64.00
630 10.3100 4058.00 4002.66 64.00
631 10.3200 4089.00 3990.77 64.00
632 10.3300 4044.00 3979.64 64.00
633 10.3400 4058.00 3969.22 64.00
634 10.3500 4060.00 3959.46 64.00
635 10.3600 4034.00 3950.29 64.00
636 10.3700 3993.00 3941.67 63.00
637 10.3800 4030.00 3933.58 63.00
638 10.3900 4016.00 3925.95 63.00
639 10.4000 3987.00 3918.78 63.00
640 10.4100 4013.00 3912.01 63.00
641 10.4200 4040.00 3905.63 64.00
642 10.4300 3979.00 3899.61 63.00
643 10.4400 4002.00 3893.93 63.00
644 10.4500 3955.00 3888.57 63.00
645 10.4600 3973.00 3883.50 63.00
646 10.4700 3987.00 3878.72 63.00
647 10.4800 3952.00 3874.20 63.00
648 10.4900 3947.00 3869.94 63.00
649 10.5000 3954.00 3865.93 63.00
650 10.5100 3933.00 3862.14 63.00
651 10.5200 3953.00 3858.59 63.00
652 10.5300 3936.00 3855.26 63.00
653 10.5400 3928.00 3852.15 63.00
654 10.5500 3927.00 3849.27 63.00
655 10.5600 3923.00 3846.64 63.00
656 10.5700 3867.00 3844.28 62.00
657 10.5800 3930.00 3842.25 63.00
658 10.5900 3902.00 3840.75 62.00
659 10.6000 3903.00 3840.18 62.00
660 10.6100 3884.00 3841.42 62.00
661 10.6200 3912.00 3845.86 63.00
662 10.6300 3906.00 3855.02 62.00
663 10.6400 3881.00 3869.37 62.00
664 10.6500 3924.00 3886.66 63.00
665 10.6600 3939.00 3900.11 63.00
666 10.6700 3947.00 3900.04 63.00
667 10.6800 3931.00 3885.15 63.00
668 10.6900 3918.00 3864.53 63.00
669 10.7000 3916.00 3845.93 63.00
670 10.7100 3920.00 3832.33 63.00
671 10.7200 3901.00 3823.63 62.00
672 10.7300 3860.00 3818.40 62.00
673 10.7400 3866.00 3815.15 62.00
674 10.7500 3856.00 3812.91 62.00
675 10.7600 3862.00 3811.16 62.00
676 10.7700 3892.00 3809.70 62.00
677 10.7800 3882.00 3808.44 62.00
678 10.7900 3809.00 3807.32 62.00
679 10.8000 3825.00 3806.31 62.00
680 10.8100 3848.00 3805.42 62.00
681 10.8200 3853.00 3804.61 62.00
682 10.8300 3850.00 3803.88 62.00
683 10.8400 3829.00 3803.22 62.00
684 10.8500 3818.00 3802.63 62.00
685 10.8600 3815.00 3802.10 62.00
686 10.8700 3791.00 3801.63 62.00
687 10.8800 3825.00 3801.22 62.00
688 10.8900 3846.00 3800.86 62.00
689 10.9000 3858.00 3800.55 62.00
690 10.9100 3845.00 3800.28 62.00
691 10.9200 3876.00 3800.07 62.00
692 10.9300 3852.00 3799.90 62.00
693 10.9400 3840.00 3799.77 62.00
694 10.9500 3838.00 3799.69 62.00
695 10.9600 3796.00 3799.65 62.00
696 10.9700 3788.00 3799.65 62.00
697 10.9800 3797.00 3799.69 62.00
698 10.9900 3753.00 3799.78 61.00
699 11.0000 3817.00 3796.55 62.00
700 11.0100 3787.00 3796.76 62.00
701 11.0200 3786.00 3797.00 62.00
702 11.0300 3747.00 3797.28 61.00
703 11.0400 3781.00 3796.73 61.00
704 11.0500 3761.00 3796.21 61.00
705 11.0600 3761.00 3798.73 61.00
706 11.0700 3779.00 3798.31 61.00
707 11.0800 3783.00 3797.93 62.00
708 11.0900 3726.00 3797.60 61.00
709 11.1000 3781.00 3797.30 61.00
710 11.1100 3773.00 3797.04 61.00
711 11.1200 3776.00 3796.82 61.00
712 11.1300 3799.00 3796.64 62.00
713 11.1400 3796.00 3796.50 62.00
714 11.1500 3779.00 3796.41 61.00
715 11.1600 3785.00 3796.36 62.00
716 11.1700 3763.00 3796.35 61.00
717 11.1800 3788.00 3796.38 62.00
718 11.1900 3803.00 3796.46 62.00
719 11.2000 3789.00 3796.59 62.00
720 11.2100 3714.00 3796.77 61.00
721 11.2200 3775.00 3797.00 61.00
722 11.2300 3726.00 3797.27 61.00
723 11.2400 3754.00 3797.60 61.00
724 11.2500 3777.00 3797.99 61.00
725 11.2600 3753.00 3798.43 61.00
726 11.2700 3712.00 3798.93 61.00
727 11.2800 3746.00 3799.50 61.00
728 11.2900 3726.00 3800.12 61.00
729 11.3000 3764.00 3800.81 61.00
730 11.3100 3761.00 3801.58 61.00
731 11.3200 3770.00 3802.41 61.00
732 11.3300 3735.00 3793.38 61.00
733 11.3400 3756.00 3794.51 61.00
734 11.3500 3736.00 3795.72 61.00
735 11.3600 3756.00 3776.53 61.00
736 11.3700 3759.00 3778.17 61.00
737 11.3800 3778.00 3779.89 61.00
738 11.3900 3764.00 3781.72 61.00
739 11.4000 3794.00 3783.64 62.00
740 11.4100 3763.00 3785.68 61.00
741 11.4200 3781.00 3787.83 61.00
742 11.4300 3777.00 3790.10 61.00
743 11.4400 3776.00 3792.51 61.00
744 11.4500 3741.00 3795.05 61.00
745 11.4600 3760.00 3797.75 61.00
746 11.4700 3753.00 3800.61 61.00
747 11.4800 3737.00 3803.64 61.00
748 11.4900 3770.00 3806.86 61.00
749 11.5000 3767.00 3810.28 61.00
750 11.5100 3720.00 3813.91 61.00
751 11.5200 3772.00 3817.79 61.00
752 11.5300 3756.00 3821.91 61.00
753 11.5400 3781.00 3826.31 61.00
754 11.5500 3796.00 3831.00 62.00
755 11.5600 3785.00 3836.02 62.00
756 11.5700 3759.00 3841.39 61.00
757 11.5800 3810.00 3847.14 62.00
758 11.5900 3785.00 3853.32 62.00
759 11.6000 3799.00 3859.95 62.00
760 11.6100 3799.00 3867.09 62.00
761 11.6200 3809.00 3874.79 62.00
762 11.6300 3804.00 3883.10 62.00
763 11.6400 3826.00 3892.09 62.00
764 11.6500 3795.00 3901.84 62.00
765 11.6600 3837.00 3912.43 62.00
766 11.6700 3889.00 3923.97 62.00
767 11.6800 3869.00 3936.56 62.00
768 11.6900 3847.00 3950.23 62.00
769 11.7000 3894.00 3965.36 62.00
770 11.7100 3885.00 3982.02 62.00
771 11.7200 3916.00 4000.44 63.00
772 11.7300 3942.00 4020.88 63.00
773 11.7400 3958.00 4043.66 63.00
774 11.7500 3943.00 4069.19 63.00
775 11.7600 4005.00 4097.99 63.00
776 11.7700 4026.00 4130.79 63.00
777 11.7800 4079.00 4168.79 64.00
778 11.7900 4132.00 4214.14 64.00
779 11.8000 4196.00 4270.77 65.00
780 11.8100 4206.00 4345.12 65.00
781 11.8200 4307.00 4445.82 66.00
782 11.8300 4411.00 4583.06 66.00
783 11.8400 4588.00 4753.95 68.00
784 11.8500 4784.00 4948.31 69.00
785 11.8600 4920.00 5131.28 70.00
786 11.8700 5002.00 5257.24 71.00
787 11.8800 5115.00 5325.65 72.00
788 11.8900 5144.00 5389.77 72.00
789 11.9000 5281.00 5500.51 73.00
790 11.9100 5474.00 5689.21 74.00
791 11.9200 5833.00 5978.85 76.00
792 11.9300 6322.00 6401.80 80.00
793 11.9400 7173.00 7031.14 85.00
794 11.9500 8382.00 8041.13 92.00
795 11.9600 10397.00 9802.99 102.00
796 11.9700 13691.00 12975.20 117.00
797 11.9800 18779.00 18457.40 137.00
798 11.9900 26591.00 27046.30 163.00
799 12.0000 38248.00 38746.40 196.00
800 12.0100 51066.00 51807.90 226.00
801 12.0200 61777.00 61703.20 249.00
802 12.0300 63724.00 62824.40 252.00
803 12.0400 55952.00 55023.30 237.00
804 12.0500 43578.00 43311.40 209.00
805 12.0600 31991.00 31751.30 179.00
806 12.0700 22751.00 22402.80 151.00
807 12.0800 16177.00 15857.40 127.00
808 12.0900 12051.00 11706.40 110.00
809 12.1000 9386.00 9207.00 97.00
810 12.1100 7676.00 7712.74 88.00
811 12.1200 6631.00 6790.09 81.00
812 12.1300 5864.00 6185.80 77.00
813 12.1400 5393.00 5762.24 73.00
814 12.1500 5097.00 5447.16 71.00
815 12.1600 4867.00 5202.37 70.00
816 12.1700 4680.00 5006.72 68.00
817 12.1800 4582.00 4847.34 68.00
818 12.1900 4451.00 4716.58 67.00
819 12.2000 4369.00 4606.61 66.00
820 12.2100 4291.00 4513.86 66.00
821 12.2200 4238.00 4434.95 65.00
822 12.2300 4176.00 4367.29 65.00
823 12.2400 4136.00 4308.86 64.00
824 12.2500 4065.00 4258.10 64.00
825 12.2600 4072.00 4213.74 64.00
826 12.2700 4052.00 4174.77 64.00
827 12.2800 4047.00 4140.39 64.00
828 12.2900 3989.00 4109.91 63.00
829 12.3000 4021.00 4082.79 63.00
830 12.3100 3955.00 4058.58 63.00
831 12.3200 3959.00 4036.90 63.00
832 12.3300 3982.00 4017.43 63.00
833 12.3400 3975.00 3999.88 63.00
834 12.3500 3888.00 3984.06 62.00
835 12.3600 3942.00 3969.77 63.00
836 12.3700 3883.00 3956.83 62.00
837 12.3800 3903.00 3945.10 62.00
838 12.3900 3922.00 3934.46 63.00
839 12.4000 3895.00 3924.80 62.00
840 12.4100 3838.00 3916.04 62.00
841 12.4200 3867.00 3908.09 62.00
842 12.4300 3844.00 3900.88 62.00
843 12.4400 3871.00 3894.36 62.00
844 12.4500 3874.00 3888.46 62.00
845 12.4600 3862.00 3883.16 62.00
846 12.4700 3857.00 3878.39 62.00
847 12.4800 3863.00 3874.14 62.00
848 12.4900 3834.00 3870.37 62.00
849 12.5000 3876.00 3867.06 62.00
850 12.5100 3886.00 3864.18 62.00
851 12.5200 3890.00 3861.71 62.00
852 12.5300 3849.00 3859.65 62.00
853 12.5400 3873.00 3857.98 62.00
854 12.5500 3842.00 3856.68 62.00
855 12.5600 3850.00 3855.77 62.00
856 12.5700 3886.00 3855.22 62.00
857 12.5800 3859.00 3855.04 62.00
858 12.5900 3822.00 3855.23 62.00
859 12.6000 3871.00 3855.80 62.00
860 12.6100 3843.00 3856.76 62.00
861 12.6200 3887.00 3858.11 62.00
862 12.6300 3889.00 3859.86 62.00
863 12.6400 3912.00 3862.05 63.00
864 12.6500 3856.00 3864.67 62.00
865 12.6600 3916.00 3867.77 63.00
866 12.6700 3878.00 3871.37 62.00
867 12.6800 3893.00 3875.51 62.00
868 12.6900 3910.00 3880.23 63.00
869 12.7000 3917.00 3885.57 63.00
870 12.7100 3877.00 3891.59 62.00
871 12.7200 3938.00 3898.36 63.00
872 12.7300 3926.00 3905.96 63.00
873 12.7400 3983.00 3914.47 63.00
874 12.7500 3984.00 3924.00 63.00
875 12.7600 3975.00 3934.68 63.00
876 12.7700 3954.00 3946.64 63.00
877 12.7800 3982.00 3960.07 63.00
878 12.7900 3975.00 3975.18 63.00
879 12.8000 3986.00 3992.21 63.00
880 12.8100 4045.00 4011.48 64.00
881 12.8200 4067.00 4033.37 64.00
882 12.8300 4038.00 4058.38 64.00
883 12.8400 4108.00 4087.22 64.00
884 12.8500 4108.00 4120.86 64.00
885 12.8600 4149.00 4160.82 64.00
886 12.8700 4214.00 4209.45 65.00
887 12.8800 4247.00 4270.45 65.00
888 12.8900 4343.00 4349.56 66.00
889 12.9000 4502.00 4455.44 67.00
890 12.9100 4606.00 4600.49 68.00
891 12.9200 4809.00 4801.36 69.00
892 12.9300 5091.00 5078.76 71.00
893 12.9400 5389.00 5455.95 73.00
894 12.9500 5753.00 5955.95 76.00
895 12.9600 6330.00 6596.57 80.00
896 12.9700 7002.00 7384.72 84.00
897 12.9800 7927.00 8309.68 89.00
898 12.9900 9001.00 9336.21 95.00
899 13.0000 10066.00 10395.80 100.00
900 13.0100 11120.00 11378.60 105.00
901 13.0200 12003.00 12135.10 110.00
902 13.0300 12475.00 12509.20 112.00
903 13.0400 12425.00 12409.70 111.00
904 13.0500 11802.00 11867.10 109.00
905 13.0600 10849.00 11014.00 104.00
906 13.0700 9650.00 10010.90 98.00
907 13.0800 8782.00 8990.96 94.00
908 13.0900 7863.00 8044.65 89.00
909 13.1000 7224.00 7225.29 85.00
910 13.1100 6706.00 6558.12 82.00
911 13.1200 6305.00 6048.16 79.00
912 13.1300 5952.00 5688.43 77.00
913 13.1400 5849.00 5466.56 76.00
914 13.1500 5756.00 5370.93 76.00
915 13.1600 5800.00 5394.80 76.00
916 13.1700 5937.00 5538.06 77.00
917 13.1800 6140.00 5806.23 78.00
918 13.1900 6455.00 6207.02 80.00
919 13.2000 6939.00 6745.23 83.00
920 13.2100 7528.00 7416.31 87.00
921 13.2200 8322.00 8199.67 91.00
922 13.2300 9222.00 9051.35 96.00
923 13.2400 10140.00 9896.14 101.00
924 13.2500 10860.00 10621.70 104.00
925 13.2600 11428.00 11090.80 107.00
926 13.2700 11409.00 11187.80 107.00
927 13.2800 10849.00 10883.40 104.00
928 13.2900 10093.00 10254.40 100.00
929 13.3000 9051.00 9439.76 95.00
930 13.3100 8033.00 8556.42 90.00
931 13.3200 7235.00 7703.55 85.00
932 13.3300 6569.00 6938.64 81.00
933 13.3400 6035.00 6291.32 78.00
934 13.3500 5660.00 5769.98 75.00
935 13.3600 5316.00 5368.24 73.00
936 13.3700 5040.00 5070.58 71.00
937 13.3800 4869.00 4857.53 70.00
938 13.3900 4732.00 4709.50 69.00
939 13.4000 4627.00 4609.28 68.00
940 13.4100 4608.00 4543.25 68.00
941 13.4200 4545.00 4501.48 67.00
942 13.4300 4489.00 4477.21 67.00
943 13.4400 4495.00 4466.19 67.00
944 13.4500 4468.00 4465.91 67.00
945 13.4600 4499.00 4475.07 67.00
946 13.4700 4504.00 4493.17 67.00
947 13.4800 4530.00 4520.29 67.00
948 13.4900 4561.00 4556.95 68.00
949 13.5000 4603.00 4604.10 68.00
950 13.5100 4683.00 4663.13 68.00
951 13.5200 4776.00 4735.99 69.00
952 13.5300 4879.00 4825.47 70.00
953 13.5400 5047.00 4935.65 71.00
954 13.5500 5166.00 5072.84 72.00
955 13.5600 5400.00 5247.39 73.00
956 13.5700 5689.00 5476.71 75.00
957 13.5800 6115.00 5790.02 78.00
958 13.5900 6639.00 6234.44 81.00
959 13.6000 7328.00 6881.42 86.00
960 13.6100 8213.00 7831.28 91.00
961 13.6200 9583.00 9213.98 98.00
962 13.6300 11357.00 11189.20 107.00
963 13.6400 13936.00 13911.00 118.00
964 13.6500 17465.00 17530.40 132.00
965 13.6600 21840.00 22100.90 148.00
966 13.6700 26795.00 27434.70 164.00
967 13.6800 32780.00 32908.30 181.00
968 13.6900 37200.00 37340.30 193.00
969 13.7000 39476.00 39173.60 199.00
970 13.7100 37509.00 37270.70 194.00
971 13.7200 32013.00 32228.20 179.00
972 13.7300 25274.00 25995.20 159.00
973 13.7400 19414.00 20144.10 139.00
974 13.7500 14758.00 15400.60 121.00
975 13.7600 11531.00 11915.80 107.00
976 13.7700 9415.00 9529.91 97.00
977 13.7800 7915.00 7965.49 89.00
978 13.7900 6870.00 6953.91 83.00
979 13.8000 6226.00 6283.91 79.00
980 13.8100 5736.00 5835.72 76.00
981 13.8200 5372.00 5519.62 73.00
982 13.8300 5160.00 5287.72 72.00
983 13.8400 4955.00 5112.85 70.00
984 13.8500 4793.00 4979.73 69.00
985 13.8600 4679.00 4879.79 68.00
986 13.8700 4650.00 4808.14 68.00
987 13.8800 4606.00 4761.94 68.00
988 13.8900 4602.00 4739.31 68.00
989 13.9000 4616.00 4738.82 68.00
990 13.9100 4656.00 4759.32 68.00
991 13.9200 4730.00 4800.56 69.00
992 13.9300 4835.00 4865.54 70.00
993 13.9400 4958.00 4966.38 70.00
994 13.9500 5177.00 5134.70 72.00
995 13.9600 5481.00 5429.83 74.00
996 13.9700 5911.00 5935.68 77.00
997 13.9800 6694.00 6718.81 82.00
998 13.9900 7692.00 7767.89 88.00
999 14.0000 8908.00 8902.87 94.00
1000 14.0100 9754.00 9679.99 99.00
1001 14.0200 9702.00 9580.60 98.00
1002 14.0300 8750.00 8642.13 94.00
1003 14.0400 7512.00 7403.01 87.00
1004 14.0500 6330.00 6281.98 80.00
1005 14.0600 5519.00 5440.87 74.00
1006 14.0700 4994.00 4884.89 71.00
1007 14.0800 4670.00 4547.64 68.00
1008 14.0900 4413.00 4349.61 66.00
1009 14.1000 4342.00 4229.33 66.00
1010 14.1100 4213.00 4149.87 65.00
1011 14.1200 4144.00 4092.33 64.00
1012 14.1300 4148.00 4047.82 64.00
1013 14.1400 4134.00 4012.02 64.00
1014 14.1500 4020.00 3982.52 63.00
1015 14.1600 4054.00 3957.81 64.00
1016 14.1700 4041.00 3936.85 64.00
1017 14.1800 4029.00 3918.88 63.00
1018 14.1900 4031.00 3903.32 63.00
1019 14.2000 4002.00 3889.76 63.00
1020 14.2100 3948.00 3877.84 63.00
1021 14.2200 3964.00 3867.32 63.00
1022 14.2300 3959.00 3857.98 63.00
1023 14.2400 3967.00 3849.66 63.00
1024 14.2500 3990.00 3842.22 63.00
1025 14.2600 3978.00 3835.56 63.00
1026 14.2700 3935.00 3829.59 63.00
1027 14.2800 3937.00 3824.23 63.00
1028 14.2900 3915.00 3819.41 63.00
1029 14.3000 3954.00 3815.10 63.00
1030 14.3100 3949.00 3811.24 63.00
1031 14.3200 3913.00 3807.81 63.00
1032 14.3300 3908.00 3804.77 63.00
1033 14.3400 3936.00 3802.10 63.00
1034 14.3500 3934.00 3799.78 63.00
1035 14.3600 3918.00 3797.80 63.00
1036 14.3700 3958.00 3796.15 63.00
1037 14.3800 3961.00 3794.82 63.00
1038 14.3900 3947.00 3797.45 63.00
1039 14.4000 3932.00 3796.80 63.00
1040 14.4100 3948.00 3796.50 63.00
1041 14.4200 3946.00 3796.57 63.00
1042 14.4300 3984.00 3797.05 63.00
1043 14.4400 3971.00 3798.03 63.00
1044 14.4500 3928.00 3799.66 63.00
1045 14.4600 3951.00 3802.17 63.00
1046 14.4700 3932.00 3805.94 63.00
1047 14.4800 3966.00 3811.51 63.00
1048 14.4900 4011.00 3819.55 63.00
1049 14.5000 3979.00 3830.78 63.00
1050 14.5100 3950.00 3849.33 63.00
1051 14.5200 4004.00 3868.46 63.00
1052 14.5300 4003.00 3891.23 63.00
1053 14.5400 4066.00 3916.18 64.00
1054 14.5500 4094.00 3940.31 64.00
1055 14.5600 4125.00 3958.97 64.00
1056 14.5700 4105.00 3967.21 64.00
1057 14.5800 4106.00 3963.25 64.00
1058 14.5900 4069.00 3950.02 64.00
1059 14.6000 4072.00 3932.74 64.00
1060 14.6100 4072.00 3915.76 64.00
1061 14.6200 4059.00 3901.70 64.00
1062 14.6300 4056.00 3891.83 64.00
1063 14.6400 4020.00 3886.43 63.00
1064 14.6500 4018.00 3885.25 63.00
1065 14.6600 4016.00 3887.72 63.00
1066 14.6700 4063.00 3893.24 64.00
1067 14.6800 4007.00 3901.31 63.00
1068 14.6900 3998.00 3911.59 63.00
1069 14.7000 4048.00 3923.95 64.00
1070 14.7100 4072.00 3938.40 64.00
1071 14.7200 4088.00 3955.11 64.00
1072 14.7300 4127.00 3974.32 64.00
1073 14.7400 4148.00 3996.44 64.00
1074 14.7500 4137.00 4021.97 64.00
1075 14.7600 4196.00 4051.57 65.00
1076 14.7700 4200.00 4086.18 65.00
1077 14.7800 4270.00 4127.08 65.00
1078 14.7900 4331.00 4176.26 66.00
1079 14.8000 4391.00 4236.89 66.00
1080 14.8100 4454.00 4314.35 67.00
1081 14.8200 4647.00 4418.12 68.00
1082 14.8300 4768.00 4564.93 69.00
1083 14.8400 5035.00 4782.42 71.00
1084 14.8500 5374.00 5110.72 73.00
1085 14.8600 5878.00 5595.13 77.00
1086 14.8700 6436.00 6267.39 80.00
1087 14.8800 7372.00 7115.73 86.00
1088 14.8900 8211.00 8051.31 91.00
1089 14.9000 9269.00 8957.37 96.00
1090 14.9100 10249.00 9825.19 101.00
1091 14.9200 11157.00 10662.70 106.00
1092 14.9300 11767.00 11362.90 108.00
1093 14.9400 12201.00 11766.60 110.00
1094 14.9500 11973.00 11811.40 109.00
1095 14.9600 11587.00 11601.60 108.00
1096 14.9700 11180.00 11316.20 106.00
1097 14.9800 11013.00 11089.70 105.00
1098 14.9900 10995.00 10965.80 105.00
1099 15.0000 11174.00 10899.60 106.00
1100 15.0100 11216.00 10779.40 106.00
1101 15.0200 11044.00 10481.90 105.00
1102 15.0300 10449.00 9950.67 102.00
1103 15.0400 9617.00 9229.01 98.00
1104 15.0500 8610.00 8415.44 93.00
1105 15.0600 7777.00 7604.20 88.00
1106 15.0700 6980.00 6859.08 84.00
1107 15.0800 6373.00 6215.08 80.00
1108 15.0900 5858.00 5685.54 77.00
1109 15.1000 5491.00 5268.71 74.00
1110 15.1100 5160.00 4952.49 72.00
1111 15.1200 4998.00 4719.51 71.00
1112 15.1300 4755.00 4551.21 69.00
1113 15.1400 4695.00 4430.46 69.00
1114 15.1500 4600.00 4343.37 68.00
1115 15.1600 4482.00 4279.51 67.00
1116 15.1700 4406.00 4231.61 66.00
1117 15.1800 4407.00 4194.91 66.00
1118 15.1900 4308.00 4166.35 66.00
1119 15.2000 4316.00 4144.04 66.00
1120 15.2100 4330.00 4126.80 66.00
1121 15.2200 4278.00 4113.87 65.00
1122 15.2300 4216.00 4104.80 65.00
1123 15.2400 4259.00 4099.30 65.00
1124 15.2500 4204.00 4097.26 65.00
1125 15.2600 4246.00 4098.77 65.00
1126 15.2700 4260.00 4104.22 65.00
1127 15.2800 4277.00 4114.50 65.00
1128 15.2900 4237.00 4131.24 65.00
1129 15.3000 4344.00 4157.14 66.00
1130 15.3100 4340.00 4196.00 66.00
1131 15.3200 4424.00 4252.15 67.00
1132 15.3300 4472.00 4329.26 67.00
1133 15.3400 4590.00 4428.19 68.00
1134 15.3500 4681.00 4544.22 68.00
1135 15.3600 4856.00 4663.15 70.00
1136 15.3700 4878.00 4758.41 70.00
1137 15.3800 4935.00 4801.52 70.00
1138 15.3900 4946.00 4789.53 70.00
1139 15.4000 4900.00 4749.62 70.00
1140 15.4100 4824.00 4712.79 69.00
1141 15.4200 4825.00 4698.78 69.00
1142 15.4300 4827.00 4717.87 69.00
1143 15.4400 4916.00 4775.41 70.00
1144 15.4500 5040.00 4875.44 71.00
1145 15.4600 5190.00 5023.30 72.00
1146 15.4700 5376.00 5227.12 73.00
1147 15.4800 5704.00 5498.41 76.00
1148 15.4900 6101.00 5851.96 78.00
1149 15.5000 6631.00 6306.69 81.00
1150 15.5100 7322.00 6891.73 86.00
1151 15.5200 8183.00 7659.90 90.00
1152 15.5300 9322.00 8713.80 97.00
1153 15.5400 10859.00 10239.30 104.00
1154 15.5500 13015.00 12530.80 114.00
1155 15.5600 16158.00 15968.10 127.00
1156 15.5700 20885.00 20865.50 145.00
1157 15.5800 26962.00 27179.50 164.00
1158 15.5900 33667.00 34085.10 183.00
1159 15.6000 39300.00 39473.80 198.00
1160 15.6100 40223.00 40463.70 201.00
1161 15.6200 36270.00 36291.40 190.00
1162 15.6300 29184.00 29361.50 171.00
1163 15.6400 21753.00 22327.60 147.00
1164 15.6500 15814.00 16536.80 126.00
1165 15.6600 11896.00 12344.10 109.00
1166 15.6700 9291.00 9582.68 96.00
1167 15.6800 7697.00 7873.19 88.00
1168 15.6900 6696.00 6835.51 82.00
1169 15.7000 5989.00 6186.17 77.00
1170 15.7100 5503.00 5751.83 74.00
1171 15.7200 5237.00 5439.59 72.00
1172 15.7300 4954.00 5202.40 70.00
1173 15.7400 4820.00 5016.05 69.00
1174 15.7500 4757.00 4866.87 69.00
1175 15.7600 4663.00 4746.12 68.00
1176 15.7700 4524.00 4647.83 67.00
1177 15.7800 4451.00 4567.67 67.00
1178 15.7900 4403.00 4502.50 66.00
1179 15.8000 4386.00 4450.06 66.00
1180 15.8100 4333.00 4408.74 66.00
1181 15.8200 4340.00 4377.52 66.00
1182 15.8300 4311.00 4355.90 66.00
1183 15.8400 4345.00 4344.06 66.00
1184 15.8500 4313.00 4342.30 66.00
1185 15.8600 4389.00 4355.08 66.00
1186 15.8700 4482.00 4387.26 67.00
1187 15.8800 4516.00 4449.28 67.00
1188 15.8900 4606.00 4558.04 68.00
1189 15.9000 4825.00 4737.51 69.00
1190 15.9100 5051.00 5016.08 71.00
1191 15.9200 5456.00 5418.92 74.00
1192 15.9300 6000.00 5956.03 77.00
1193 15.9400 6629.00 6604.80 81.00
1194 15.9500 7251.00 7286.71 85.00
1195 15.9600 7879.00 7840.49 89.00
1196 15.9700 8046.00 8051.07 90.00
1197 15.9800 7863.00 7810.36 89.00
1198 15.9900 7300.00 7235.34 85.00
1199 16.0000 6601.00 6541.10 81.00
1200 16.0100 5881.00 5884.84 77.00
1201 16.0200 5375.00 5341.80 73.00
1202 16.0300 4952.00 4932.55 70.00
1203 16.0400 4674.00 4645.92 68.00
1204 16.0500 4535.00 4456.22 67.00
1205 16.0600 4397.00 4334.88 66.00
1206 16.0700 4257.00 4258.10 65.00
1207 16.0800 4247.00 4208.98 65.00
1208 16.0900 4188.00 4177.12 65.00
1209 16.1000 4201.00 4156.60 65.00
1210 16.1100 4182.00 4144.35 65.00
1211 16.1200 4150.00 4138.80 64.00
1212 16.1300 4115.00 4139.27 64.00
1213 16.1400 4155.00 4145.58 64.00
1214 16.1500 4176.00 4158.04 65.00
1215 16.1600 4233.00 4177.49 65.00
1216 16.1700 4258.00 4205.77 65.00
1217 16.1800 4323.00 4246.76 66.00
1218 16.1900 4347.00 4308.39 66.00
1219 16.2000 4501.00 4405.44 67.00
1220 16.2100 4640.00 4561.37 68.00
1221 16.2200 4905.00 4805.70 70.00
1222 16.2300 5271.00 5163.00 73.00
1223 16.2400 5709.00 5632.74 76.00
1224 16.2500 6180.00 6158.69 79.00
1225 16.2600 6632.00 6587.99 81.00
1226 16.2700 6791.00 6716.17 82.00
1227 16.2800 6653.00 6521.66 82.00
1228 16.2900 6307.00 6211.80 79.00
1229 16.3000 6042.00 5988.63 78.00
1230 16.3100 5934.00 5954.45 77.00
1231 16.3200 6109.00 6151.88 78.00
1232 16.3300 6469.00 6594.20 80.00
1233 16.3400 7148.00 7278.62 85.00
1234 16.3500 8046.00 8202.03 90.00
1235 16.3600 9178.00 9331.66 96.00
1236 16.3700 10516.00 10595.30 103.00
1237 16.3800 12097.00 11846.00 110.00
1238 16.3900 13176.00 12840.30 115.00
1239 16.4000 13768.00 13278.50 117.00
1240 16.4100 13456.00 12990.90 116.00
1241 16.4200 12369.00 12110.20 111.00
1242 16.4300 10993.00 10949.90 105.00
1243 16.4400 9745.00 9785.09 99.00
1244 16.4500 8667.00 8784.73 93.00
1245 16.4600 7994.00 8028.91 89.00
1246 16.4700 7611.00 7535.93 87.00
1247 16.4800 7472.00 7280.44 86.00
1248 16.4900 7364.00 7202.53 86.00
1249 16.5000 7449.00 7214.52 86.00
1250 16.5100 7367.00 7204.03 86.00
1251 16.5200 7222.00 7072.62 85.00
1252 16.5300 6913.00 6789.87 83.00
1253 16.5400 6435.00 6401.55 80.00
1254 16.5500 5922.00 5979.88 77.00
1255 16.5600 5502.00 5580.29 74.00
1256 16.5700 5139.00 5233.62 72.00
1257 16.5800 4877.00 4952.09 70.00
1258 16.5900 4718.00 4735.46 69.00
1259 16.6000 4572.00 4576.26 68.00
1260 16.6100 4455.00 4463.42 67.00
1261 16.6200 4383.00 4385.59 66.00
1262 16.6300 4296.00 4332.90 66.00
1263 16.6400 4286.00 4297.91 65.00
1264 16.6500 4260.00 4275.31 65.00
1265 16.6600 4270.00 4261.92 65.00
1266 16.6700 4220.00 4255.81 65.00
1267 16.6800 4234.00 4255.96 65.00
1268 16.6900 4194.00 4261.87 65.00
1269 16.7000 4263.00 4273.42 65.00
1270 16.7100 4279.00 4290.74 65.00
1271 16.7200 4311.00 4314.18 66.00
1272 16.7300 4332.00 4344.33 66.00
1273 16.7400 4416.00 4382.04 66.00
1274 16.7500 4422.00 4428.47 66.00
1275 16.7600 4479.00 4486.43 67.00
1276 16.7700 4617.00 4556.01 68.00
1277 16.7800 4713.00 4642.02 69.00
1278 16.7900 4825.00 4750.32 69.00
1279 16.8000 5035.00 4890.68 71.00
1280 16.8100 5231.00 5079.26 72.00
1281 16.8200 5530.00 5342.08 74.00
1282 16.8300 5970.00 5718.37 77.00
1283 16.8400 6481.00 6263.06 81.00
1284 16.8500 7169.00 7044.66 85.00
1285 16.8600 8203.00 8138.04 91.00
1286 16.8700 9403.00 9607.57 97.00
1287 16.8800 11176.00 11485.20 106.00
1288 16.8900 13369.00 13740.20 116.00
1289 16.9000 15821.00 16243.70 126.00
1290 16.9100 18226.00 18710.80 135.00
1291 16.9200 20543.00 20683.80 143.00
1292 16.9300 21544.00 21615.80 147.00
1293 16.9400 21232.00 21177.70 146.00
1294 16.9500 19614.00 19527.10 140.00
1295 16.9600 17084.00 17177.40 131.00
1296 16.9700 14274.00 14645.50 119.00
1297 16.9800 11880.00 12277.60 109.00
1298 16.9900 9814.00 10250.90 99.00
1299 17.0000 8327.00 8627.48 91.00
1300 17.0100 7184.00 7394.68 85.00
1301 17.0200 6379.00 6498.20 80.00
1302 17.0300 5754.00 5865.55 76.00
1303 17.0400 5353.00 5425.45 73.00
1304 17.0500 4982.00 5117.70 71.00
1305 17.0600 4766.00 4897.37 69.00
1306 17.0700 4583.00 4733.71 68.00
1307 17.0800 4434.00 4607.17 67.00
1308 17.0900 4257.00 4505.68 65.00
1309 17.1000 4249.00 4421.95 65.00
1310 17.1100 4103.00 4351.54 64.00
1311 17.1200 4090.00 4291.51 64.00
1312 17.1300 4056.00 4239.83 64.00
1313 17.1400 4025.00 4194.96 63.00
1314 17.1500 3925.00 4155.79 63.00
1315 17.1600 3962.00 4121.40 63.00
1316 17.1700 3904.00 4091.06 62.00
1317 17.1800 3858.00 4064.17 62.00
1318 17.1900 3874.00 4040.24 62.00
1319 17.2000 3817.00 4018.86 62.00
1320 17.2100 3789.00 3999.71 62.00
1321 17.2200 3815.00 3982.48 62.00
1322 17.2300 3797.00 3966.94 62.00
1323 17.2400 3811.00 3952.89 62.00
1324 17.2500 3792.00 3940.14 62.00
1325 17.2600 3781.00 3928.57 61.00
1326 17.2700 3748.00 3918.05 61.00
1327 17.2800 3793.00 3908.46 62.00
1328 17.2900 3750.00 3899.71 61.00
1329 17.3000 3762.00 3891.71 61.00
1330 17.3100 3788.00 3884.40 62.00
1331 17.3200 3793.00 3878.58 62.00
1332 17.3300 3739.00 3872.47 61.00
1333 17.3400 3743.00 3866.88 61.00
1334 17.3500 3736.00 3861.76 61.00
1335 17.3600 3756.00 3857.09 61.00
1336 17.3700 3763.00 3852.84 61.00
1337 17.3800 3748.00 3848.97 61.00
1338 17.3900 3705.00 3845.46 61.00
1339 17.4000 3714.00 3842.29 61.00
1340 17.4100 3714.00 3839.46 61.00
1341 17.4200 3702.00 3836.93 61.00
1342 17.4300 3766.00 3834.70 61.00
1343 17.4400 3760.00 3832.77 61.00
1344 17.4500 3718.00 3831.13 61.00
1345 17.4600 3743.00 3829.78 61.00
1346 17.4700 3706.00 3828.72 61.00
1347 17.4800 3699.00 3827.95 61.00
1348 17.4900 3752.00 3827.49 61.00
1349 17.5000 3734.00 3827.35 61.00
1350 17.5100 3700.00 3827.56 61.00
1351 17.5200 3736.00 3828.13 61.00
1352 17.5300 3703.00 3829.12 61.00
1353 17.5400 3748.00 3830.58 61.00
1354 17.5500 3731.00 3832.59 61.00
1355 17.5600 3726.00 3835.29 61.00
1356 17.5700 3728.00 3838.90 61.00
1357 17.5800 3745.00 3843.82 61.00
1358 17.5900 3755.00 3850.70 61.00
1359 17.6000 3758.00 3854.89 61.00
1360 17.6100 3772.00 3868.66 61.00
1361 17.6200 3755.00 3887.37 61.00
1362 17.6300 3764.00 3912.09 61.00
1363 17.6400 3803.00 3940.31 62.00
1364 17.6500 3824.00 3969.13 62.00
1365 17.6600 3867.00 3992.27 62.00
1366 17.6700 3896.00 4006.08 62.00
1367 17.6800 3943.00 4016.37 63.00
1368 17.6900 3918.00 4034.53 63.00
1369 17.7000 3986.00 4070.03 63.00
1370 17.7100 3999.00 4132.91 63.00
1371 17.7200 4108.00 4228.52 64.00
1372 17.7300 4277.00 4360.56 65.00
1373 17.7400 4423.00 4528.42 67.00
1374 17.7500 4584.00 4724.84 68.00
1375 17.7600 4888.00 4931.82 70.00
1376 17.7700 5074.00 5116.21 71.00
1377 17.7800 5216.00 5231.18 72.00
1378 17.7900 5230.00 5237.30 72.00
1379 17.8000 5099.00 5133.32 71.00
1380 17.8100 4886.00 4957.25 70.00
1381 17.8200 4648.00 4756.21 68.00
1382 17.8300 4428.00 4564.01 67.00
1383 17.8400 4273.00 4398.93 65.00
1384 17.8500 4167.00 4268.08 65.00
1385 17.8600 4067.00 4171.71 64.00
1386 17.8700 3987.00 4106.07 63.00
1387 17.8800 4005.00 4065.97 63.00
1388 17.8900 3949.00 4046.45 63.00
1389 17.9000 3982.00 4044.23 63.00
1390 17.9100 4010.00 4058.32 63.00
1391 17.9200 4016.00 4090.36 63.00
1392 17.9300 4061.00 4144.51 64.00
1393 17.9400 4190.00 4227.01 65.00
1394 17.9500 4231.00 4345.09 65.00
1395 17.9600 4426.00 4505.43 67.00
1396 17.9700 4641.00 4711.82 68.00
1397 17.9800 4899.00 4962.47 70.00
1398 17.9900 5124.00 5246.27 72.00
1399 18.0000 5543.00 5538.35 74.00
1400 18.0100 5845.00 5794.79 76.00
1401 18.0200 6064.00 5956.25 78.00
1402 18.0300 6138.00 5972.35 78.00
1403 18.0400 5897.00 5837.39 77.00
1404 18.0500 5520.00 5595.30 74.00
1405 18.0600 5194.00 5306.67 72.00
1406 18.0700 4846.00 5019.91 70.00
1407 18.0800 4599.00 4763.62 68.00
1408 18.0900 4414.00 4553.56 66.00
1409 18.1000 4262.00 4393.12 65.00
1410 18.1100 4117.00 4283.37 64.00
1411 18.1200 4080.00 4209.91 64.00
1412 18.1300 4039.00 4166.80 64.00
1413 18.1400 4027.00 4142.53 63.00
1414 18.1500 4060.00 4124.26 64.00
1415 18.1600 4010.00 4100.54 63.00
1416 18.1700 3969.00 4068.00 63.00
1417 18.1800 3927.00 4029.79 63.00
1418 18.1900 3878.00 3991.59 62.00
1419 18.2000 3858.00 3957.31 62.00
1420 18.2100 3828.00 3928.65 62.00
1421 18.2200 3816.00 3905.90 62.00
1422 18.2300 3738.00 3888.51 61.00
1423 18.2400 3748.00 3875.52 61.00
1424 18.2500 3737.00 3865.88 61.00
1425 18.2600 3725.00 3858.67 61.00
1426 18.2700 3744.00 3853.17 61.00
1427 18.2800 3734.00 3848.89 61.00
1428 18.2900 3705.00 3844.88 61.00
1429 18.3000 3740.00 3841.94 61.00
1430 18.3100 3715.00 3839.80 61.00
1431 18.3200 3736.00 3838.13 61.00
1432 18.3300 3718.00 3836.87 61.00
1433 18.3400 3732.00 3835.99 61.00
1434 18.3500 3693.00 3835.45 61.00
1435 18.3600 3721.00 3835.23 61.00
1436 18.3700 3698.00 3835.32 61.00
1437 18.3800 3722.00 3835.71 61.00
1438 18.3900 3739.00 3836.41 61.00
1439 18.4000 3715.00 3837.42 61.00
1440 18.4100 3697.00 3838.76 61.00
1441 18.4200 3735.00 3840.47 61.00
1442 18.4300 3706.00 3842.58 61.00
1443 18.4400 3733.00 3845.16 61.00
1444 18.4500 3755.00 3848.28 61.00
1445 18.4600 3744.00 3852.08 61.00
1446 18.4700 3730.00 3856.72 61.00
1447 18.4800 3745.00 3862.22 61.00
1448 18.4900 3754.00 3869.66 61.00
1449 18.5000 3738.00 3879.77 61.00
1450 18.5100 3793.00 3894.50 62.00
1451 18.5200 3818.00 3917.29 62.00
1452 18.5300 3803.00 3953.33 62.00
1453 18.5400 3878.00 4008.80 62.00
1454 18.5500 3946.00 4088.66 63.00
1455 18.5600 4043.00 4192.43 64.00
1456 18.5700 4145.00 4307.39 64.00
1457 18.5800 4175.00 4398.95 65.00
1458 18.5900 4191.00 4418.72 65.00
1459 18.6000 4204.00 4355.25 65.00
1460 18.6100 4120.00 4250.35 64.00
1461 18.6200 4040.00 4147.00 64.00
1462 18.6300 3971.00 4064.96 63.00
1463 18.6400 3925.00 4008.23 63.00
1464 18.6500 3843.00 3973.35 62.00
1465 18.6600 3848.00 3954.29 62.00
1466 18.6700 3836.00 3945.40 62.00
1467 18.6800 3839.00 3942.67 62.00
1468 18.6900 3855.00 3943.78 62.00
1469 18.7000 3849.00 3947.53 62.00
1470 18.7100 3818.00 3953.38 62.00
1471 18.7200 3860.00 3961.15 62.00
1472 18.7300 3861.00 3970.79 62.00
1473 18.7400 3860.00 3982.42 62.00
1474 18.7500 3915.00 3996.21 63.00
1475 18.7600 3914.00 4012.45 63.00
1476 18.7700 3897.00 4031.52 62.00
1477 18.7800 3931.00 4053.98 63.00
1478 18.7900 3918.00 4080.53 63.00
1479 18.8000 3976.00 4112.12 63.00
1480 18.8100 4004.00 4150.11 63.00
1481 18.8200 4055.00 4196.46 64.00
1482 18.8300 4072.00 4254.35 64.00
1483 18.8400 4158.00 4329.24 64.00
1484 18.8500 4247.00 4431.15 65.00
1485 18.8600 4407.00 4577.82 66.00
1486 18.8700 4620.00 4798.73 68.00
1487 18.8800 4882.00 5136.81 70.00
1488 18.8900 5321.00 5645.36 73.00
1489 18.9000 5978.00 6374.12 77.00
1490 18.9100 6885.00 7346.41 83.00
1491 18.9200 8170.00 8522.78 90.00
1492 18.9300 9556.00 9739.58 98.00
1493 18.9400 10660.00 10644.40 103.00
1494 18.9500 11011.00 10820.80 105.00
1495 18.9600 10519.00 10179.20 103.00
1496 18.9700 9241.00 9072.00 96.00
1497 18.9800 7950.00 7905.09 89.00
1498 18.9900 6891.00 6907.26 83.00
1499 19.0000 6077.00 6158.37 78.00
1500 19.0100 5583.00 5660.11 75.00
1501 19.0200 5311.00 5380.65 73.00
1502 19.0300 5142.00 5286.24 72.00
1503 19.0400 5247.00 5359.85 72.00
1504 19.0500 5455.00 5606.89 74.00
1505 19.0600 5849.00 6047.55 76.00
1506 19.0700 6411.00 6697.16 80.00
1507 19.0800 7257.00 7539.08 85.00
1508 19.0900 8253.00 8482.81 91.00
1509 19.1000 9277.00 9309.08 96.00
1510 19.1100 9841.00 9680.08 99.00
1511 19.1200 9670.00 9385.72 98.00
1512 19.1300 8752.00 8587.04 94.00
1513 19.1400 7683.00 7622.67 88.00
1514 19.1500 6660.00 6733.60 82.00
1515 19.1600 5925.00 6023.38 77.00
1516 19.1700 5406.00 5512.78 74.00
1517 19.1800 5124.00 5181.90 72.00
1518 19.1900 4876.00 4996.16 70.00
1519 19.2000 4893.00 4924.26 70.00
1520 19.2100 4848.00 4946.90 70.00
1521 19.2200 4979.00 5058.33 71.00
1522 19.2300 5159.00 5262.32 72.00
1523 19.2400 5470.00 5565.39 74.00
1524 19.2500 5779.00 5968.74 76.00
1525 19.2600 6359.00 6460.57 80.00
1526 19.2700 6933.00 7003.17 83.00
1527 19.2800 7596.00 7519.54 87.00
1528 19.2900 8069.00 7888.39 90.00
1529 19.3000 8211.00 7983.23 91.00
1530 19.3100 7962.00 7761.48 89.00
1531 19.3200 7446.00 7302.58 86.00
1532 19.3300 6755.00 6738.88 82.00
1533 19.3400 6143.00 6177.26 78.00
1534 19.3500 5622.00 5678.31 75.00
1535 19.3600 5186.00 5267.93 72.00
1536 19.3700 4850.00 4948.76 70.00
1537 19.3800 4684.00 4713.90 68.00
1538 19.3900 4506.00 4546.95 67.00
1539 19.4000 4445.00 4431.22 67.00
1540 19.4100 4356.00 4351.90 66.00
1541 19.4200 4270.00 4297.39 65.00
1542 19.4300 4193.00 4259.62 65.00
1543 19.4400 4246.00 4233.33 65.00
1544 19.4500 4193.00 4215.36 65.00
1545 19.4600 4201.00 4203.92 65.00
1546 19.4700 4161.00 4198.08 65.00
1547 19.4800 4173.00 4197.51 65.00
1548 19.4900 4191.00 4202.39 65.00
1549 19.5000 4209.00 4213.50 65.00
1550 19.5100 4229.00 4232.48 65.00
1551 19.5200 4275.00 4262.16 65.00
1552 19.5300 4372.00 4306.96 66.00
1553 19.5400 4393.00 4373.17 66.00
1554 19.5500 4467.00 4468.72 67.00
1555 19.5600 4677.00 4602.51 68.00
1556 19.5700 4802.00 4782.16 69.00
1557 19.5800 5019.00 5009.91 71.00
1558 19.5900 5284.00 5278.52 73.00
1559 19.6000 5576.00 5574.03 75.00
1560 19.6100 5783.00 5884.67 76.00
1561 19.6200 6135.00 6191.25 78.00
1562 19.6300 6359.00 6444.63 80.00
1563 19.6400 6584.00 6569.85 81.00
1564 19.6500 6570.00 6518.72 81.00
1565 19.6600 6390.00 6319.27 80.00
1566 19.6700 6073.00 6050.62 78.00
1567 19.6800 5823.00 5785.20 76.00
1568 19.6900 5546.00 5565.38 74.00
1569 19.7000 5422.00 5409.28 74.00
1570 19.7100 5363.00 5317.64 73.00
1571 19.7200 5348.00 5291.51 73.00
1572 19.7300 5336.00 5322.25 73.00
1573 19.7400 5459.00 5407.25 74.00
1574 19.7500 5580.00 5551.70 75.00
1575 19.7600 5757.00 5771.37 76.00
1576 19.7700 6070.00 6089.23 78.00
1577 19.7800 6362.00 6529.62 80.00
1578 19.7900 6869.00 7102.00 83.00
1579 19.8000 7556.00 7778.96 87.00
1580 19.8100 8266.00 8460.64 91.00
1581 19.8200 8941.00 8951.68 95.00
1582 19.8300 9248.00 9061.81 96.00
1583 19.8400 9129.00 8823.63 96.00
1584 19.8500 8721.00 8492.52 93.00
1585 19.8600 8487.00 8337.65 92.00
1586 19.8700 8531.00 8519.14 92.00
1587 19.8800 9028.00 9038.01 95.00
1588 19.8900 9624.00 9656.37 98.00
1589 19.9000 9812.00 9849.71 99.00
1590 19.9100 9373.00 9232.88 97.00
1591 19.9200 8397.00 8096.59 92.00
1592 19.9300 7160.00 6941.67 85.00
1593 19.9400 6066.00 6018.94 78.00
1594 19.9500 5384.00 5375.72 73.00
1595 19.9600 4900.00 4966.73 70.00
1596 19.9700 4618.00 4718.26 68.00
1597 19.9800 4503.00 4565.99 67.00
1598 19.9900 4374.00 4467.28 66.00
1599 20.0000 4353.00 4398.80 66.00
1600 20.0100 4275.00 4348.93 65.00
1601 20.0200 4275.00 4312.02 65.00
1602 20.0300 4176.00 4285.08 65.00
1603 20.0400 4202.00 4266.47 65.00
1604 20.0500 4184.00 4255.29 65.00
1605 20.0600 4229.00 4251.15 65.00
1606 20.0700 4236.00 4254.09 65.00
1607 20.0800 4263.00 4264.74 65.00
1608 20.0900 4221.00 4284.85 65.00
1609 20.1000 4296.00 4311.77 66.00
1610 20.1100 4279.00 4348.05 65.00
1611 20.1200 4360.00 4394.34 66.00
1612 20.1300 4377.00 4451.11 66.00
1613 20.1400 4455.00 4518.57 67.00
1614 20.1500 4483.00 4596.45 67.00
1615 20.1600 4627.00 4684.02 68.00
1616 20.1700 4686.00 4779.82 68.00
1617 20.1800 4812.00 4881.66 69.00
1618 20.1900 4955.00 4986.26 70.00
1619 20.2000 5045.00 5089.29 71.00
1620 20.2100 5104.00 5185.38 71.00
1621 20.2200 5229.00 5269.15 72.00
1622 20.2300 5303.00 5336.35 73.00
1623 20.2400 5344.00 5385.52 73.00
1624 20.2500 5338.00 5418.30 73.00
1625 20.2600 5377.00 5438.45 73.00
1626 20.2700 5357.00 5450.38 73.00
1627 20.2800 5371.00 5459.98 73.00
1628 20.2900 5374.00 5479.98 73.00
1629 20.3000 5445.00 5535.22 74.00
1630 20.3100 5577.00 5661.62 75.00
1631 20.3200 5728.00 5896.61 76.00
1632 20.3300 6021.00 6268.25 78.00
1633 20.3400 6545.00 6782.45 81.00
1634 20.3500 7144.00 7405.67 85.00
1635 20.3600 7902.00 8035.43 89.00
1636 20.3700 8449.00 8479.19 92.00
1637 20.3800 8507.00 8524.66 92.00
1638 20.3900 8081.00 8126.78 90.00
1639 20.4000 7500.00 7456.22 87.00
1640 20.4100 6650.00 6725.23 82.00
1641 20.4200 6005.00 6065.95 77.00
1642 20.4300 5499.00 5531.87 74.00
1643 20.4400 5120.00 5130.79 72.00
1644 20.4500 4823.00 4846.36 69.00
1645 20.4600 4670.00 4652.74 68.00
1646 20.4700 4534.00 4523.37 67.00
1647 20.4800 4443.00 4436.58 67.00
1648 20.4900 4405.00 4376.99 66.00
1649 20.5000 4345.00 4334.76 66.00
1650 20.5100 4291.00 4303.85 66.00
1651 20.5200 4290.00 4281.39 65.00
1652 20.5300 4273.00 4265.25 65.00
1653 20.5400 4290.00 4254.31 65.00
1654 20.5500 4301.00 4247.85 66.00
1655 20.5600 4258.00 4245.73 65.00
1656 20.5700 4250.00 4247.84 65.00
1657 20.5800 4289.00 4254.41 65.00
1658 20.5900 4282.00 4265.98 65.00
1659 20.6000 4346.00 4283.45 66.00
1660 20.6100 4389.00 4308.11 66.00
1661 20.6200 4387.00 4341.73 66.00
1662 20.6300 4456.00 4386.48 67.00
1663 20.6400 4504.00 4445.03 67.00
1664 20.6500 4590.00 4520.37 68.00
1665 20.6600 4680.00 4615.61 68.00
1666 20.6700 4772.00 4733.83 69.00
1667 20.6800 4864.00 4877.53 70.00
1668 20.6900 4976.00 5048.49 71.00
1669 20.7000 5182.00 5246.92 72.00
1670 20.7100 5386.00 5471.25 73.00
1671 20.7200 5662.00 5717.35 75.00
1672 20.7300 6003.00 5977.93 77.00
1673 20.7400 6259.00 6241.43 79.00
1674 20.7500 6563.00 6491.65 81.00
1675 20.7600 6872.00 6707.64 83.00
1676 20.7700 7068.00 6866.60 84.00
1677 20.7800 7153.00 6949.30 85.00
1678 20.7900 7187.00 6947.23 85.00
1679 20.8000 6995.00 6866.60 84.00
1680 20.8100 6712.00 6726.16 82.00
1681 20.8200 6474.00 6550.77 80.00
1682 20.8300 6211.00 6364.61 79.00
1683 20.8400 5988.00 6187.69 77.00
1684 20.8500 5863.00 6034.59 77.00
1685 20.8600 5739.00 5914.99 76.00
1686 20.8700 5651.00 5834.42 75.00
1687 20.8800 5702.00 5794.78 76.00
1688 20.8900 5657.00 5794.92 75.00
1689 20.9000 5801.00 5830.85 76.00
1690 20.9100 5942.00 5895.90 77.00
1691 20.9200 6060.00 5981.20 78.00
1692 20.9300 6121.00 6075.90 78.00
1693 20.9400 6265.00 6168.74 79.00
1694 20.9500 6311.00 6243.97 79.00
1695 20.9600 6405.00 6285.02 80.00
1696 20.9700 6440.00 6289.99 80.00
1697 20.9800 6386.00 6278.48 80.00
1698 20.9900 6336.00 6275.63 80.00
1699 21.0000 6380.00 6303.48 80.00
1700 21.0100 6372.00 6383.24 80.00
1701 21.0200 6513.00 6534.92 81.00
1702 21.0300 6705.00 6768.27 82.00
1703 21.0400 6920.00 7064.55 83.00
1704 21.0500 7199.00 7349.57 85.00
1705 21.0600 7400.00 7482.59 86.00
1706 21.0700 7309.00 7334.33 85.00
1707 21.0800 7053.00 6925.65 84.00
1708 21.0900 6603.00 6403.20 81.00
1709 21.1000 6114.00 5898.51 78.00
1710 21.1100 5608.00 5476.04 75.00
1711 21.1200 5315.00 5153.63 73.00
1712 21.1300 5034.00 4924.52 71.00
1713 21.1400 4888.00 4770.05 70.00
1714 21.1500 4758.00 4672.52 69.00
1715 21.1600 4703.00 4613.22 69.00
1716 21.1700 4640.00 4578.83 68.00
1717 21.1800 4666.00 4560.18 68.00
1718 21.1900 4637.00 4551.26 68.00
1719 21.2000 4622.00 4548.68 68.00
1720 21.2100 4677.00 4551.55 68.00
1721 21.2200 4642.00 4561.57 68.00
1722 21.2300 4623.00 4582.58 68.00
1723 21.2400 4678.00 4620.89 68.00
1724 21.2500 4706.00 4680.10 69.00
1725 21.2600 4809.00 4766.60 69.00
1726 21.2700 4932.00 4884.10 70.00
1727 21.2800 5068.00 5033.39 71.00
1728 21.2900 5177.00 5210.04 72.00
1729 21.3000 5441.00 5401.57 74.00
1730 21.3100 5599.00 5584.91 75.00
1731 21.3200 5793.00 5732.61 76.00
1732 21.3300 5968.00 5834.05 77.00
1733 21.3400 6077.00 5920.81 78.00
1734 21.3500 6076.00 6052.81 78.00
1735 21.3600 6315.00 6295.69 79.00
1736 21.3700 6604.00 6701.52 81.00
1737 21.3800 7187.00 7299.23 85.00
1738 21.3900 8028.00 8083.00 90.00
1739 21.4000 8984.00 8988.80 95.00
1740 21.4100 9825.00 9860.27 99.00
1741 21.4200 10627.00 10434.60 103.00
1742 21.4300 10649.00 10459.30 103.00
1743 21.4400 10176.00 9907.97 101.00
1744 21.4500 9270.00 9009.19 96.00
1745 21.4600 8166.00 8030.12 90.00
1746 21.4700 7116.00 7138.16 84.00
1747 21.4800 6453.00 6406.40 80.00
1748 21.4900 5846.00 5849.65 76.00
1749 21.5000 5495.00 5452.58 74.00
1750 21.5100 5254.00 5185.87 72.00
1751 21.5200 5074.00 5018.15 71.00
1752 21.5300 4962.00 4922.47 70.00
1753 21.5400 4938.00 4879.18 70.00
1754 21.5500 4897.00 4875.39 70.00
1755 21.5600 4948.00 4903.11 70.00
1756 21.5700 5044.00 4957.00 71.00
1757 21.5800 5069.00 5032.31 71.00
1758 21.5900 5177.00 5123.25 72.00
1759 21.6000 5319.00 5221.56 73.00
1760 21.6100 5389.00 5315.90 73.00
1761 21.6200 5529.00 5394.16 74.00
1762 21.6300 5618.00 5449.43 75.00
1763 21.6400 5654.00 5486.86 75.00
1764 21.6500 5652.00 5524.24 75.00
1765 21.6600 5715.00 5586.25 76.00
1766 21.6700 5795.00 5698.07 76.00
1767 21.6800 5991.00 5882.30 77.00
1768 21.6900 6266.00 6157.69 79.00
1769 21.7000 6570.00 6538.16 81.00
1770 21.7100 6961.00 7029.37 83.00
1771 21.7200 7542.00 7629.43 87.00
1772 21.7300 8153.00 8317.43 90.00
1773 21.7400 8958.00 9050.39 95.00
1774 21.7500 9803.00 9753.84 99.00
1775 21.7600 10449.00 10324.50 102.00
1776 21.7700 10826.00 10653.10 104.00
1777 21.7800 10945.00 10667.60 105.00
1778 21.7900 10506.00 10361.50 102.00
1779 21.8000 9953.00 9790.81 100.00
1780 21.8100 9084.00 9053.08 95.00
1781 21.8200 8195.00 8257.55 91.00
1782 21.8300 7348.00 7491.48 86.00
1783 21.8400 6716.00 6808.44 82.00
1784 21.8500 6131.00 6232.37 78.00
1785 21.8600 5771.00 5767.86 76.00
1786 21.8700 5454.00 5406.90 74.00
1787 21.8800 5165.00 5135.05 72.00
1788 21.8900 4972.00 4935.14 71.00
1789 21.9000 4883.00 4790.65 70.00
1790 21.9100 4766.00 4687.28 69.00
1791 21.9200 4736.00 4613.90 69.00
1792 21.9300 4691.00 4562.43 68.00
1793 21.9400 4634.00 4527.57 68.00
1794 21.9500 4593.00 4506.18 68.00
1795 21.9600 4600.00 4498.53 68.00
1796 21.9700 4560.00 4502.38 68.00
1797 21.9800 4588.00 4522.13 68.00
1798 21.9900 4635.00 4563.36 68.00
1799 22.0000 4682.00 4634.38 68.00
1800 22.0100 4758.00 4745.24 69.00
1801 22.0200 4944.00 4905.42 70.00
1802 22.0300 5132.00 5117.10 72.00
1803 22.0400 5401.00 5373.89 73.00
1804 22.0500 5648.00 5639.37 75.00
1805 22.0600 5861.00 5839.01 77.00
1806 22.0700 5929.00 5880.36 77.00
1807 22.0800 5853.00 5735.01 77.00
1808 22.0900 5585.00 5471.71 75.00
1809 22.1000 5303.00 5181.28 73.00
1810 22.1100 5049.00 4919.19 71.00
1811 22.1200 4823.00 4706.58 69.00
1812 22.1300 4647.00 4545.69 68.00
1813 22.1400 4526.00 4429.44 67.00
1814 22.1500 4468.00 4347.48 67.00
1815 22.1600 4399.00 4289.67 66.00
1816 22.1700 4404.00 4247.89 66.00
1817 22.1800 4329.00 4216.54 66.00
1818 22.1900 4287.00 4192.05 65.00
1819 22.2000 4256.00 4172.31 65.00
1820 22.2100 4220.00 4156.04 65.00
1821 22.2200 4233.00 4142.46 65.00
1822 22.2300 4234.00 4131.06 65.00
1823 22.2400 4230.00 4121.46 65.00
1824 22.2500 4181.00 4113.38 65.00
1825 22.2600 4222.00 4106.59 65.00
1826 22.2700 4185.00 4100.87 65.00
1827 22.2800 4197.00 4095.72 65.00
1828 22.2900 4229.00 4091.73 65.00
1829 22.3000 4207.00 4088.43 65.00
1830 22.3100 4180.00 4085.72 65.00
1831 22.3200 4245.00 4083.56 65.00
1832 22.3300 4198.00 4081.88 65.00
1833 22.3400 4212.00 4080.63 65.00
1834 22.3500 4224.00 4079.80 65.00
1835 22.3600 4180.00 4079.36 65.00
1836 22.3700 4164.00 4079.30 65.00
1837 22.3800 4183.00 4079.60 65.00
1838 22.3900 4160.00 4080.26 64.00
1839 22.4000 4222.00 4081.29 65.00
1840 22.4100 4238.00 4082.69 65.00
1841 22.4200 4197.00 4084.49 65.00
1842 22.4300 4200.00 4086.68 65.00
1843 22.4400 4217.00 4089.30 65.00
1844 22.4500 4230.00 4092.39 65.00
1845 22.4600 4186.00 4095.97 65.00
1846 22.4700 4252.00 4100.11 65.00
1847 22.4800 4243.00 4104.86 65.00
1848 22.4900 4212.00 4110.29 65.00
1849 22.5000 4214.00 4116.50 65.00
1850 22.5100 4224.00 4123.61 65.00
1851 22.5200 4234.00 4131.75 65.00
1852 22.5300 4284.00 4141.10 65.00
1853 22.5400 4273.00 4151.91 65.00
1854 22.5500 4271.00 4164.49 65.00
1855 22.5600 4284.00 4179.28 65.00
1856 22.5700 4290.00 4196.96 65.00
1857 22.5800 4348.00 4218.60 66.00
1858 22.5900 4400.00 4245.93 66.00
1859 22.6000 4450.00 4281.68 67.00
1860 22.6100 4448.00 4330.06 67.00
1861 22.6200 4524.00 4396.95 67.00
1862 22.6300 4591.00 4489.88 68.00
1863 22.6400 4704.00 4617.18 69.00
1864 22.6500 4910.00 4786.34 70.00
1865 22.6600 5129.00 5001.22 72.00
1866 22.6700 5361.00 5258.35 73.00
1867 22.6800 5736.00 5540.40 76.00
1868 22.6900 6020.00 5807.43 78.00
1869 22.7000 6248.00 5994.42 79.00
1870 22.7100 6339.00 6037.80 80.00
1871 22.7200 6208.00 5927.95 79.00
1872 22.7300 5919.00 5719.58 77.00
1873 22.7400 5673.00 5483.94 75.00
1874 22.7500 5363.00 5271.47 73.00
1875 22.7600 5249.00 5107.72 72.00
1876 22.7700 5141.00 5005.64 72.00
1877 22.7800 5080.00 4968.05 71.00
1878 22.7900 5095.00 4995.10 71.00
1879 22.8000 5185.00 5085.89 72.00
1880 22.8100 5326.00 5239.48 73.00
1881 22.8200 5496.00 5454.63 74.00
1882 22.8300 5748.00 5728.13 76.00
1883 22.8400 6091.00 6052.42 78.00
1884 22.8500 6394.00 6411.87 80.00
1885 22.8600 6831.00 6780.15 83.00
1886 22.8700 7159.00 7120.16 85.00
1887 22.8800 7547.00 7389.10 87.00
1888 22.8900 7744.00 7545.68 88.00
1889 22.9000 7774.00 7562.51 88.00
1890 22.9100 7568.00 7442.35 87.00
1891 22.9200 7362.00 7220.42 86.00
1892 22.9300 7048.00 6948.18 84.00
1893 22.9400 6709.00 6676.80 82.00
1894 22.9500 6463.00 6438.20 80.00
1895 22.9600 6239.00 6258.71 79.00
1896 22.9700 6118.00 6151.90 78.00
1897 22.9800 6050.00 6123.85 78.00
1898 22.9900 6068.00 6174.45 78.00
1899 23.0000 6195.00 6298.44 79.00
1900 23.0100 6433.00 6486.10 80.00
1901 23.0200 6661.00 6722.82 82.00
1902 23.0300 6911.00 6988.84 83.00
1903 23.0400 7272.00 7258.05 85.00
1904 23.0500 7492.00 7498.20 87.00
1905 23.0600 7744.00 7673.72 88.00
1906 23.0700 7841.00 7753.62 89.00
1907 23.0800 7776.00 7721.99 88.00
1908 23.0900 7534.00 7584.70 87.00
1909 23.1000 7289.00 7366.22 85.00
1910 23.1100 6902.00 7099.33 83.00
1911 23.1200 6621.00 6814.28 81.00
1912 23.1300 6322.00 6532.91 80.00
1913 23.1400 6066.00 6265.96 78.00
1914 23.1500 5812.00 6014.48 76.00
1915 23.1600 5657.00 5774.16 75.00
1916 23.1700 5430.00 5543.90 74.00
1917 23.1800 5318.00 5329.56 73.00
1918 23.1900 5205.00 5139.82 72.00
1919 23.2000 5042.00 4980.19 71.00
1920 23.2100 4929.00 4851.83 70.00
1921 23.2200 4870.00 4752.72 70.00
1922 23.2300 4786.00 4679.11 69.00
1923 23.2400 4760.00 4626.65 69.00
1924 23.2500 4731.00 4591.30 69.00
1925 23.2600 4700.00 4570.09 69.00
1926 23.2700 4675.00 4562.23 68.00
1927 23.2800 4696.00 4570.07 69.00
1928 23.2900 4725.00 4600.23 69.00
1929 23.3000 4766.00 4664.10 69.00
1930 23.3100 4942.00 4777.21 70.00
1931 23.3200 5061.00 4955.94 71.00
1932 23.3300 5272.00 5211.14 73.00
1933 23.3400 5618.00 5535.98 75.00
1934 23.3500 5901.00 5886.72 77.00
1935 23.3600 6213.00 6152.35 79.00
1936 23.3700 6278.00 6189.53 79.00
1937 23.3800 6133.00 5966.22 78.00
1938 23.3900 5766.00 5603.65 76.00
1939 23.4000 5460.00 5234.40 74.00
1940 23.4100 5105.00 4924.18 71.00
1941 23.4200 4865.00 4689.85 70.00
1942 23.4300 4717.00 4524.86 69.00
1943 23.4400 4588.00 4413.83 68.00
1944 23.4500 4473.00 4340.22 67.00
1945 23.4600 4460.00 4290.63 67.00
1946 23.4700 4389.00 4255.80 66.00
1947 23.4800 4386.00 4230.12 66.00
1948 23.4900 4371.00 4210.41 66.00
1949 23.5000 4341.00 4194.85 66.00
1950 23.5100 4303.00 4182.41 66.00
1951 23.5200 4332.00 4172.39 66.00
1952 23.5300 4303.00 4164.34 66.00
1953 23.5400 4324.00 4157.94 66.00
1954 23.5500 4356.00 4152.94 66.00
1955 23.5600 4338.00 4149.17 66.00
1956 23.5700 4289.00 4146.50 65.00
1957 23.5800 4333.00 4145.85 66.00
1958 23.5900 4309.00 4145.16 66.00
1959 23.6000 4318.00 4145.40 66.00
1960 23.6100 4321.00 4146.56 66.00
1961 23.6200 4321.00 4148.69 66.00
1962 23.6300 4296.00 4151.83 66.00
1963 23.6400 4345.00 4156.07 66.00
1964 23.6500 4302.00 4161.57 66.00
1965 23.6600 4309.00 4168.55 66.00
1966 23.6700 4365.00 4177.33 66.00
1967 23.6800 4381.00 4188.38 66.00
1968 23.6900 4364.00 4202.39 66.00
1969 23.7000 4415.00 4220.31 66.00
1970 23.7100 4392.00 4243.44 66.00
1971 23.7200 4459.00 4273.52 67.00
1972 23.7300 4503.00 4312.76 67.00
1973 23.7400 4548.00 4363.86 67.00
1974 23.7500 4598.00 4430.07 68.00
1975 23.7600 4661.00 4514.90 68.00
1976 23.7700 4718.00 4622.11 69.00
1977 23.7800 4876.00 4754.89 70.00
1978 23.7900 5027.00 4915.17 71.00
1979 23.8000 5162.00 5101.92 72.00
1980 23.8100 5334.00 5309.41 73.00
1981 23.8200 5605.00 5524.81 75.00
1982 23.8300 5844.00 5726.99 76.00
1983 23.8400 6091.00 5887.82 78.00
1984 23.8500 6221.00 5975.77 79.00
1985 23.8600 6246.00 5964.88 79.00
1986 23.8700 6092.00 5850.39 78.00
1987 23.8800 5886.00 5657.92 77.00
1988 23.8900 5595.00 5429.47 75.00
1989 23.9000 5357.00 5201.49 73.00
1990 23.9100 5185.00 4996.28 72.00
1991 23.9200 5012.00 4823.96 71.00
1992 23.9300 4831.00 4686.07 70.00
1993 23.9400 4775.00 4582.81 69.00
1994 23.9500 4688.00 4508.86 68.00
1995 23.9600 4646.00 4459.14 68.00
1996 23.9700 4633.00 4428.87 68.00
1997 23.9800 4576.00 4414.22 68.00
1998 23.9900 4579.00 4412.63 68.00
1999 24.0000 4633.00 4422.80 68.00
2000 24.0100 4605.00 4444.53 68.00
2001 24.0200 4703.00 4478.44 69.00
2002 24.0300 4745.00 4525.71 69.00
2003 24.0400 4787.00 4587.68 69.00
2004 24.0500 4822.00 4665.60 69.00
2005 24.0600 4960.00 4760.29 70.00
2006 24.0700 5064.00 4871.78 71.00
2007 24.0800 5257.00 4998.67 73.00
2008 24.0900 5390.00 5138.31 73.00
2009 24.1000 5543.00 5285.08 74.00
2010 24.1100 5664.00 5432.13 75.00
2011 24.1200 5849.00 5574.62 76.00
2012 24.1300 5894.00 5715.32 77.00
2013 24.1400 5983.00 5866.68 77.00
2014 24.1500 6152.00 6045.82 78.00
2015 24.1600 6298.00 6264.97 79.00
2016 24.1700 6475.00 6523.27 80.00
2017 24.1800 6796.00 6804.94 82.00
2018 24.1900 7030.00 7090.55 84.00
2019 24.2000 7293.00 7371.40 85.00
2020 24.2100 7635.00 7640.95 87.00
2021 24.2200 7896.00 7876.89 89.00
2022 24.2300 8048.00 8031.76 90.00
2023 24.2400 8235.00 8059.02 91.00
2024 24.2500 8097.00 7948.73 90.00
2025 24.2600 7955.00 7734.84 89.00
2026 24.2700 7673.00 7470.45 88.00
2027 24.2800 7340.00 7205.38 86.00
2028 24.2900 7031.00 6982.69 84.00
2029 24.3000 6901.00 6841.62 83.00
2030 24.3100 6832.00 6818.37 83.00
2031 24.3200 6969.00 6942.46 83.00
2032 24.3300 7228.00 7230.71 85.00
2033 24.3400 7671.00 7672.13 88.00
2034 24.3500 8170.00 8212.04 90.00
2035 24.3600 8755.00 8715.95 94.00
2036 24.3700 8953.00 8970.16 95.00
2037 24.3800 8915.00 8809.06 94.00
2038 24.3900 8454.00 8281.90 92.00
2039 24.4000 7737.00 7594.66 88.00
2040 24.4100 7012.00 6928.75 84.00
2041 24.4200 6440.00 6377.01 80.00
2042 24.4300 5983.00 5968.17 77.00
2043 24.4400 5738.00 5697.85 76.00
2044 24.4500 5558.00 5545.86 75.00
2045 24.4600 5499.00 5485.96 74.00
2046 24.4700 5490.00 5491.46 74.00
2047 24.4800 5551.00 5537.25 75.00
2048 24.4900 5594.00 5599.39 75.00
2049 24.5000 5696.00 5655.29 75.00
2050 24.5100 5762.00 5687.52 76.00
2051 24.5200 5747.00 5690.01 76.00
2052 24.5300 5623.00 5670.39 75.00
2053 24.5400 5621.00 5643.97 75.00
2054 24.5500 5589.00 5623.64 75.00
2055 24.5600 5624.00 5611.65 75.00
2056 24.5700 5607.00 5595.35 75.00
2057 24.5800 5595.00 5550.95 75.00
2058 24.5900 5473.00 5461.12 74.00
2059 24.6000 5374.00 5331.73 73.00
2060 24.6100 5198.00 5188.49 72.00
2061 24.6200 5079.00 5056.09 71.00
2062 24.6300 5003.00 4948.56 71.00
2063 24.6400 4928.00 4871.15 70.00
2064 24.6500 4833.00 4822.74 70.00
2065 24.6600 4872.00 4799.08 70.00
2066 24.6700 4843.00 4793.94 70.00
2067 24.6800 4910.00 4800.01 70.00
2068 24.6900 4988.00 4809.71 71.00
2069 24.7000 4956.00 4816.22 70.00
2070 24.7100 4928.00 4814.87 70.00
2071 24.7200 4935.00 4804.35 70.00
2072 24.7300 4854.00 4787.01 70.00
2073 24.7400 4857.00 4767.93 70.00
2074 24.7500 4852.00 4753.63 70.00
2075 24.7600 4829.00 4751.03 69.00
2076 24.7700 4823.00 4766.80 69.00
2077 24.7800 4874.00 4806.93 70.00
2078 24.7900 4925.00 4876.04 70.00
2079 24.8000 5072.00 4976.24 71.00
2080 24.8100 5213.00 5105.66 72.00
2081 24.8200 5430.00 5255.35 74.00
2082 24.8300 5540.00 5405.62 74.00
2083 24.8400 5711.00 5524.70 76.00
2084 24.8500 5784.00 5580.22 76.00
2085 24.8600 5776.00 5563.03 76.00
2086 24.8700 5691.00 5498.54 75.00
2087 24.8800 5606.00 5428.25 75.00
2088 24.8900 5554.00 5388.62 75.00
2089 24.9000 5571.00 5404.26 75.00
2090 24.9100 5623.00 5489.60 75.00
2091 24.9200 5779.00 5650.51 76.00
2092 24.9300 6015.00 5883.50 78.00
2093 24.9400 6272.00 6171.79 79.00
2094 24.9500 6540.00 6485.98 81.00
2095 24.9600 6911.00 6797.40 83.00
2096 24.9700 7179.00 7085.73 85.00
2097 24.9800 7465.00 7328.26 86.00
2098 24.9900 7701.00 7493.41 88.00
2099 25.0000 7698.00 7547.71 88.00
2100 25.0100 7528.00 7471.80 87.00
2101 25.0200 7385.00 7276.34 86.00
2102 25.0300 7064.00 6999.27 84.00
2103 25.0400 6712.00 6687.86 82.00
2104 25.0500 6405.00 6383.10 80.00
2105 25.0600 6081.00 6113.15 78.00
2106 25.0700 5842.00 5894.66 76.00
2107 25.0800 5731.00 5734.80 76.00
2108 25.0900 5611.00 5633.31 75.00
2109 25.1000 5617.00 5582.70 75.00
2110 25.1100 5648.00 5570.25 75.00
2111 25.1200 5677.00 5576.40 75.00
2112 25.1300 5687.00 5578.93 75.00
2113 25.1400 5670.00 5556.68 75.00
2114 25.1500 5580.00 5494.30 75.00
2115 25.1600 5444.00 5391.02 74.00
2116 25.1700 5252.00 5255.78 72.00
2117 25.1800 5096.00 5104.49 71.00
2118 25.1900 4884.00 4951.89 70.00
2119 25.2000 4755.00 4808.40 69.00
2120 25.2100 4601.00 4679.85 68.00
2121 25.2200 4497.00 4568.81 67.00
2122 25.2300 4457.00 4475.62 67.00
2123 25.2400 4384.00 4399.16 66.00
2124 25.2500 4284.00 4337.76 65.00
2125 25.2600 4273.00 4289.05 65.00
2126 25.2700 4229.00 4250.65 65.00
2127 25.2800 4201.00 4220.40 65.00
2128 25.2900 4199.00 4196.41 65.00
2129 25.3000 4180.00 4177.19 65.00
2130 25.3100 4122.00 4161.57 64.00
2131 25.3200 4170.00 4148.70 65.00
2132 25.3300 4121.00 4138.01 64.00
2133 25.3400 4144.00 4128.79 64.00
2134 25.3500 4146.00 4121.42 64.00
2135 25.3600 4116.00 4115.51 64.00
2136 25.3700 4120.00 4110.88 64.00
2137 25.3800 4126.00 4107.60 64.00
2138 25.3900 4074.00 4105.75 64.00
2139 25.4000 4098.00 4105.43 64.00
2140 25.4100 4119.00 4106.76 64.00
2141 25.4200 4104.00 4109.90 64.00
2142 25.4300 4079.00 4114.99 64.00
2143 25.4400 4103.00 4122.13 64.00
2144 25.4500 4110.00 4131.40 64.00
2145 25.4600 4146.00 4142.83 64.00
2146 25.4700 4173.00 4156.35 65.00
2147 25.4800 4174.00 4171.83 65.00
2148 25.4900 4168.00 4189.02 65.00
2149 25.5000 4193.00 4207.19 65.00
2150 25.5100 4186.00 4226.87 65.00
2151 25.5200 4217.00 4247.86 65.00
2152 25.5300 4267.00 4270.87 65.00
2153 25.5400 4250.00 4297.39 65.00
2154 25.5500 4274.00 4328.07 65.00
2155 25.5600 4313.00 4362.08 66.00
2156 25.5700 4363.00 4395.59 66.00
2157 25.5800 4401.00 4420.97 66.00
2158 25.5900 4389.00 4428.76 66.00
2159 25.6000 4363.00 4413.56 66.00
2160 25.6100 4294.00 4378.73 66.00
2161 25.6200 4327.00 4333.72 66.00
2162 25.6300 4235.00 4287.71 65.00
2163 25.6400 4217.00 4246.59 65.00
2164 25.6500 4169.00 4213.14 65.00
2165 25.6600 4148.00 4188.44 64.00
2166 25.6700 4060.00 4172.33 64.00
2167 25.6800 4116.00 4164.34 64.00
2168 25.6900 4078.00 4163.97 64.00
2169 25.7000 4113.00 4171.15 64.00
2170 25.7100 4136.00 4186.56 64.00
2171 25.7200 4177.00 4212.01 65.00
2172 25.7300 4139.00 4250.60 64.00
2173 25.7400 4251.00 4306.83 65.00
2174 25.7500 4289.00 4386.26 65.00
2175 25.7600 4440.00 4494.66 67.00
2176 25.7700 4552.00 4636.43 67.00
2177 25.7800 4708.00 4812.34 69.00
2178 25.7900 4831.00 5015.20 70.00
2179 25.8000 5115.00 5224.03 72.00
2180 25.8100 5274.00 5402.64 73.00
2181 25.8200 5420.00 5513.36 74.00
2182 25.8300 5482.00 5535.76 74.00
2183 25.8400 5390.00 5476.05 73.00
2184 25.8500 5220.00 5365.92 72.00
2185 25.8600 5126.00 5244.66 72.00
2186 25.8700 5024.00 5138.54 71.00
2187 25.8800 4970.00 5052.23 70.00
2188 25.8900 4926.00 4970.83 70.00
2189 25.9000 4820.00 4874.07 69.00
2190 25.9100 4672.00 4758.01 68.00
2191 25.9200 4638.00 4638.59 68.00
2192 25.9300 4491.00 4534.07 67.00
2193 25.9400 4418.00 4454.42 66.00
2194 25.9500 4374.00 4403.30 66.00
2195 25.9600 4309.00 4377.26 66.00
2196 25.9700 4309.00 4373.89 66.00
2197 25.9800 4347.00 4388.12 66.00
2198 25.9900 4360.00 4412.95 66.00
2199 26.0000 4401.00 4438.59 66.00
2200 26.0100 4458.00 4452.87 67.00
2201 26.0200 4393.00 4445.33 66.00
2202 26.0300 4348.00 4413.69 66.00
2203 26.0400 4326.00 4365.30 66.00
2204 26.0500 4239.00 4310.53 65.00
2205 26.0600 4185.00 4257.42 65.00
2206 26.0700 4141.00 4210.42 64.00
2207 26.0800 4119.00 4171.32 64.00
2208 26.0900 4063.00 4140.39 64.00
2209 26.1000 4079.00 4117.01 64.00
2210 26.1100 4011.00 4100.18 63.00
2211 26.1200 4055.00 4088.81 64.00
2212 26.1300 4048.00 4082.04 64.00
2213 26.1400 4036.00 4078.89 64.00
2214 26.1500 4005.00 4079.00 63.00
2215 26.1600 4060.00 4082.16 64.00
2216 26.1700 4069.00 4088.37 64.00
2217 26.1800 4083.00 4097.82 64.00
2218 26.1900 4124.00 4110.83 64.00
2219 26.2000 4122.00 4127.80 64.00
2220 26.2100 4097.00 4149.13 64.00
2221 26.2200 4170.00 4175.23 65.00
2222 26.2300 4155.00 4206.36 64.00
2223 26.2400 4214.00 4242.62 65.00
2224 26.2500 4282.00 4283.85 65.00
2225 26.2600 4268.00 4329.48 65.00
2226 26.2700 4287.00 4378.45 65.00
2227 26.2800 4360.00 4428.97 66.00
2228 26.2900 4405.00 4478.47 66.00
2229 26.3000 4454.00 4523.42 67.00
2230 26.3100 4531.00 4559.91 67.00
2231 26.3200 4545.00 4584.46 67.00
2232 26.3300 4530.00 4595.33 67.00
2233 26.3400 4517.00 4593.12 67.00
2234 26.3500 4493.00 4580.49 67.00
2235 26.3600 4481.00 4561.12 67.00
2236 26.3700 4509.00 4538.38 67.00
2237 26.3800 4418.00 4516.47 66.00
2238 26.3900 4392.00 4497.54 66.00
2239 26.4000 4393.00 4483.12 66.00
2240 26.4100 4347.00 4473.34 66.00
2241 26.4200 4377.00 4466.26 66.00
2242 26.4300 4363.00 4457.43 66.00
2243 26.4400 4345.00 4440.60 66.00
2244 26.4500 4304.00 4410.94 66.00
2245 26.4600 4294.00 4368.56 66.00
2246 26.4700 4220.00 4318.49 65.00
2247 26.4800 4191.00 4267.79 65.00
2248 26.4900 4149.00 4219.37 64.00
2249 26.5000 4095.00 4176.51 64.00
2250 26.5100 4042.00 4140.16 64.00
2251 26.5200 4065.00 4110.28 64.00
2252 26.5300 3994.00 4086.34 63.00
2253 26.5400 3999.00 4067.56 63.00
2254 26.5500 4000.00 4053.06 63.00
2255 26.5600 3981.00 4042.01 63.00
2256 26.5700 3928.00 4033.68 63.00
2257 26.5800 3988.00 4027.52 63.00
2258 26.5900 3931.00 4023.09 63.00
2259 26.6000 3965.00 4020.07 63.00
2260 26.6100 3982.00 4018.25 63.00
2261 26.6200 3984.00 4017.49 63.00
2262 26.6300 3929.00 4017.72 63.00
2263 26.6400 3999.00 4018.93 63.00
2264 26.6500 3965.00 4021.13 63.00
2265 26.6600 3986.00 4024.41 63.00
2266 26.6700 3998.00 4028.86 63.00
2267 26.6800 3972.00 4034.50 63.00
2268 26.6900 3965.00 4041.30 63.00
2269 26.7000 3977.00 4048.77 63.00
2270 26.7100 3953.00 4056.52 63.00
2271 26.7200 3967.00 4063.02 63.00
2272 26.7300 4013.00 4066.68 63.00
2273 26.7400 3985.00 4067.22 63.00
2274 26.7500 3952.00 4065.85 63.00
2275 26.7600 3969.00 4064.41 63.00
2276 26.7700 3979.00 4064.30 63.00
2277 26.7800 3999.00 4066.42 63.00
2278 26.7900 4026.00 4071.41 63.00
2279 26.8000 4035.00 4079.23 64.00
2280 26.8100 3985.00 4092.50 63.00
2281 26.8200 4051.00 4111.98 64.00
2282 26.8300 4096.00 4139.88 64.00
2283 26.8400 4126.00 4179.16 64.00
2284 26.8500 4188.00 4233.33 65.00
2285 26.8600 4263.00 4306.08 65.00
2286 26.8700 4308.00 4400.47 66.00
2287 26.8800 4487.00 4517.96 67.00
2288 26.8900 4570.00 4656.62 68.00
2289 26.9000 4796.00 4808.55 69.00
2290 26.9100 4985.00 4955.81 71.00
2291 26.9200 5083.00 5068.66 71.00
2292 26.9300 5091.00 5113.84 71.00
2293 26.9400 5082.00 5076.07 71.00
2294 26.9500 4917.00 4970.97 70.00
2295 26.9600 4800.00 4832.35 69.00
2296 26.9700 4646.00 4689.96 68.00
2297 26.9800 4512.00 4562.07 67.00
2298 26.9900 4352.00 4456.87 66.00
2299 27.0000 4309.00 4376.64 66.00
2300 27.0100 4227.00 4320.32 65.00
2301 27.0200 4231.00 4285.27 65.00
2302 27.0300 4260.00 4268.27 65.00
2303 27.0400 4254.00 4266.29 65.00
2304 27.0500 4222.00 4276.94 65.00
2305 27.0600 4257.00 4298.61 65.00
2306 27.0700 4293.00 4330.50 66.00
2307 27.0800 4319.00 4372.66 66.00
2308 27.0900 4392.00 4426.32 66.00
2309 27.1000 4430.00 4494.25 67.00
2310 27.1100 4487.00 4580.55 67.00
2311 27.1200 4590.00 4689.28 68.00
2312 27.1300 4677.00 4822.68 68.00
2313 27.1400 4865.00 4979.04 70.00
2314 27.1500 5033.00 5150.10 71.00
2315 27.1600 5201.00 5317.70 72.00
2316 27.1700 5316.00 5452.79 73.00
2317 27.1800 5412.00 5522.56 74.00
2318 27.1900 5399.00 5508.27 73.00
2319 27.2000 5332.00 5418.79 73.00
2320 27.2100 5255.00 5283.00 72.00
2321 27.2200 5052.00 5130.96 71.00
2322 27.2300 4880.00 4983.52 70.00
2323 27.2400 4751.00 4851.25 69.00
2324 27.2500 4580.00 4739.89 68.00
2325 27.2600 4523.00 4649.57 67.00
2326 27.2700 4501.00 4578.64 67.00
2327 27.2800 4402.00 4524.07 66.00
2328 27.2900 4396.00 4482.36 66.00
2329 27.3000 4409.00 4450.20 66.00
2330 27.3100 4358.00 4424.88 66.00
2331 27.3200 4331.00 4404.50 66.00
2332 27.3300 4298.00 4387.43 66.00
2333 27.3400 4304.00 4374.43 66.00
2334 27.3500 4251.00 4365.14 65.00
2335 27.3600 4289.00 4360.18 65.00
2336 27.3700 4252.00 4360.54 65.00
2337 27.3800 4274.00 4367.39 65.00
2338 27.3900 4344.00 4382.73 66.00
2339 27.4000 4370.00 4408.48 66.00
2340 27.4100 4375.00 4447.08 66.00
2341 27.4200 4467.00 4501.22 67.00
2342 27.4300 4511.00 4573.62 67.00
2343 27.4400 4648.00 4666.73 68.00
2344 27.4500 4726.00 4782.31 69.00
2345 27.4600 4858.00 4920.63 70.00
2346 27.4700 4982.00 5079.81 71.00
2347 27.4800 5170.00 5254.10 72.00
2348 27.4900 5293.00 5433.12 73.00
2349 27.5000 5488.00 5603.23 74.00
2350 27.5100 5672.00 5754.08 75.00
2351 27.5200 5729.00 5885.80 76.00
2352 27.5300 5836.00 6009.05 76.00
2353 27.5400 5998.00 6137.02 77.00
2354 27.5500 6152.00 6278.10 78.00
2355 27.5600 6376.00 6433.28 80.00
2356 27.5700 6574.00 6596.08 81.00
2357 27.5800 6774.00 6753.29 82.00
2358 27.5900 6852.00 6884.46 83.00
2359 27.6000 6944.00 6962.65 83.00
2360 27.6100 6887.00 6960.36 83.00
2361 27.6200 6761.00 6863.87 82.00
2362 27.6300 6562.00 6683.95 81.00
2363 27.6400 6253.00 6449.69 79.00
2364 27.6500 5918.00 6191.64 77.00
2365 27.6600 5626.00 5932.38 75.00
2366 27.6700 5312.00 5685.91 73.00
2367 27.6800 5109.00 5459.70 71.00
2368 27.6900 4950.00 5257.01 70.00
2369 27.7000 4771.00 5078.88 69.00
2370 27.7100 4628.00 4924.27 68.00
2371 27.7200 4566.00 4791.35 68.00
2372 27.7300 4451.00 4678.10 67.00
2373 27.7400 4373.00 4582.64 66.00
2374 27.7500 4373.00 4503.24 66.00
2375 27.7600 4287.00 4438.59 65.00
2376 27.7700 4235.00 4387.59 65.00
2377 27.7800 4235.00 4349.34 65.00
2378 27.7900 4183.00 4323.23 65.00
2379 27.8000 4191.00 4309.57 65.00
2380 27.8100 4188.00 4305.46 65.00
2381 27.8200 4217.00 4310.98 65.00
2382 27.8300 4188.00 4324.72 65.00
2383 27.8400 4255.00 4344.68 65.00
2384 27.8500 4279.00 4367.91 65.00
2385 27.8600 4310.00 4390.23 66.00
2386 27.8700 4342.00 4406.39 66.00
2387 27.8800 4330.00 4411.09 66.00
2388 27.8900 4314.00 4400.92 66.00
2389 27.9000 4336.00 4375.97 66.00
2390 27.9100 4243.00 4339.65 65.00
2391 27.9200 4254.00 4296.96 65.00
2392 27.9300 4156.00 4252.58 64.00
2393 27.9400 4150.00 4210.01 64.00
2394 27.9500 4083.00 4171.48 64.00
2395 27.9600 4077.00 4138.22 64.00
2396 27.9700 4007.00 4110.80 63.00
2397 27.9800 4016.00 4089.29 63.00
2398 27.9900 4029.00 4073.42 63.00
2399 28.0000 4005.00 4062.68 63.00
2400 28.0100 3988.00 4056.42 63.00
2401 28.0200 4006.00 4053.85 63.00
2402 28.0300 3972.00 4053.93 63.00
2403 28.0400 3982.00 4056.00 63.00
2404 28.0500 4023.00 4058.91 63.00
2405 28.0600 3989.00 4061.48 63.00
2406 28.0700 3964.00 4062.71 63.00
2407 28.0800 4014.00 4061.96 63.00
2408 28.0900 3978.00 4059.22 63.00
2409 28.1000 3968.00 4055.10 63.00
2410 28.1100 3993.00 4050.57 63.00
2411 28.1200 3980.00 4046.81 63.00
2412 28.1300 3951.00 4044.89 63.00
2413 28.1400 3984.00 4045.89 63.00
2414 28.1500 3984.00 4050.92 63.00
2415 28.1600 3987.00 4061.20 63.00
2416 28.1700 4037.00 4078.02 64.00
2417 28.1800 4026.00 4102.63 63.00
2418 28.1900 4038.00 4136.10 64.00
2419 28.2000 4101.00 4178.91 64.00
2420 28.2100 4122.00 4230.34 64.00
2421 28.2200 4175.00 4287.35 65.00
2422 28.2300 4260.00 4343.31 65.00
2423 28.2400 4267.00 4388.65 65.00
2424 28.2500 4250.00 4415.85 65.00
2425 28.2600 4304.00 4424.99 66.00
2426 28.2700 4277.00 4422.26 65.00
2427 28.2800 4304.00 4414.10 66.00
2428 28.2900 4307.00 4406.41 66.00
2429 28.3000 4325.00 4405.50 66.00
2430 28.3100 4301.00 4415.23 66.00
2431 28.3200 4386.00 4434.73 66.00
2432 28.3300 4392.00 4459.72 66.00
2433 28.3400 4400.00 4479.59 66.00
2434 28.3500 4448.00 4486.27 67.00
2435 28.3600 4418.00 4473.59 66.00
2436 28.3700 4381.00 4441.25 66.00
2437 28.3800 4339.00 4394.15 66.00
2438 28.3900 4261.00 4339.83 65.00
2439 28.4000 4212.00 4284.89 65.00
2440 28.4100 4150.00 4233.86 64.00
2441 28.4200 4125.00 4189.52 64.00
2442 28.4300 4050.00 4153.38 64.00
2443 28.4400 4033.00 4126.11 64.00
2444 28.4500 4035.00 4108.01 64.00
2445 28.4600 4034.00 4099.25 64.00
2446 28.4700 4067.00 4100.17 64.00
2447 28.4800 4097.00 4111.52 64.00
2448 28.4900 4018.00 4134.55 63.00
2449 28.5000 4139.00 4170.98 64.00
2450 28.5100 4140.00 4223.01 64.00
2451 28.5200 4217.00 4292.44 65.00
2452 28.5300 4304.00 4380.22 66.00
2453 28.5400 4392.00 4485.14 66.00
2454 28.5500 4506.00 4602.38 67.00
2455 28.5600 4661.00 4721.41 68.00
2456 28.5700 4753.00 4824.37 69.00
2457 28.5800 4864.00 4887.87 70.00
2458 28.5900 4875.00 4893.15 70.00
2459 28.6000 4764.00 4840.11 69.00
2460 28.6100 4617.00 4749.07 68.00
2461 28.6200 4563.00 4646.80 68.00
2462 28.6300 4437.00 4553.33 67.00
2463 28.6400 4415.00 4481.19 66.00
2464 28.6500 4385.00 4434.49 66.00
2465 28.6600 4359.00 4413.29 66.00
2466 28.6700 4336.00 4413.94 66.00
2467 28.6800 4367.00 4429.19 66.00
2468 28.6900 4368.00 4448.63 66.00
2469 28.7000 4418.00 4462.67 66.00
2470 28.7100 4442.00 4467.02 67.00
2471 28.7200 4430.00 4465.22 67.00
2472 28.7300 4378.00 4463.95 66.00
2473 28.7400 4435.00 4468.88 67.00
2474 28.7500 4404.00 4481.68 66.00
2475 28.7600 4429.00 4501.63 67.00
2476 28.7700 4504.00 4526.34 67.00
2477 28.7800 4476.00 4552.40 67.00
2478 28.7900 4507.00 4576.42 67.00
2479 28.8000 4583.00 4594.60 68.00
2480 28.8100 4572.00 4606.66 68.00
2481 28.8200 4591.00 4614.59 68.00
2482 28.8300 4592.00 4622.39 68.00
2483 28.8400 4524.00 4634.69 67.00
2484 28.8500 4520.00 4655.61 67.00
2485 28.8600 4637.00 4687.96 68.00
2486 28.8700 4627.00 4732.62 68.00
2487 28.8800 4736.00 4788.44 69.00
2488 28.8900 4826.00 4851.34 69.00
2489 28.9000 4856.00 4914.17 70.00
2490 28.9100 4870.00 4966.61 70.00
2491 28.9200 4949.00 4997.00 70.00
2492 28.9300 4933.00 4995.84 70.00
2493 28.9400 4921.00 4959.96 70.00
2494 28.9500 4828.00 4893.86 69.00
2495 28.9600 4689.00 4807.32 68.00
2496 28.9700 4580.00 4711.17 68.00
2497 28.9800 4504.00 4614.65 67.00
2498 28.9900 4380.00 4524.14 66.00
2499 29.0000 4360.00 4443.52 66.00
2500 29.0100 4342.00 4374.90 66.00
2501 29.0200 4276.00 4319.08 65.00
2502 29.0300 4175.00 4276.02 65.00
2503 29.0400 4198.00 4245.03 65.00
2504 29.0500 4185.00 4224.99 65.00
2505 29.0600 4205.00 4214.49 65.00
2506 29.0700 4191.00 4211.78 65.00
2507 29.0800 4185.00 4214.78 65.00
2508 29.0900 4177.00 4221.05 65.00
2509 29.1000 4229.00 4227.90 65.00
2510 29.1100 4240.00 4232.36 65.00
2511 29.1200 4264.00 4231.08 65.00
2512 29.1300 4248.00 4221.46 65.00
2513 29.1400 4212.00 4203.93 65.00
2514 29.1500 4175.00 4181.90 65.00
2515 29.1600 4164.00 4159.30 65.00
2516 29.1700 4091.00 4138.92 64.00
2517 29.1800 4121.00 4122.37 64.00
2518 29.1900 4093.00 4110.63 64.00
2519 29.2000 4087.00 4104.40 64.00
2520 29.2100 4080.00 4104.29 64.00
2521 29.2200 4153.00 4110.95 64.00
2522 29.2300 4117.00 4125.17 64.00
2523 29.2400 4144.00 4147.80 64.00
2524 29.2500 4206.00 4179.71 65.00
2525 29.2600 4214.00 4221.68 65.00
2526 29.2700 4210.00 4274.13 65.00
2527 29.2800 4334.00 4337.03 66.00
2528 29.2900 4389.00 4409.46 66.00
2529 29.3000 4484.00 4489.21 67.00
2530 29.3100 4588.00 4572.32 68.00
2531 29.3200 4650.00 4653.24 68.00
2532 29.3300 4716.00 4725.99 69.00
2533 29.3400 4789.00 4786.28 69.00
2534 29.3500 4843.00 4832.02 70.00
2535 29.3600 4904.00 4861.97 70.00
2536 29.3700 4943.00 4874.60 70.00
2537 29.3800 4930.00 4868.59 70.00
2538 29.3900 4816.00 4844.12 69.00
2539 29.4000 4788.00 4803.78 69.00
2540 29.4100 4741.00 4752.22 69.00
2541 29.4200 4714.00 4695.24 69.00
2542 29.4300 4634.00 4638.58 68.00
2543 29.4400 4546.00 4587.27 67.00
2544 29.4500 4466.00 4545.13 67.00
2545 29.4600 4471.00 4514.69 67.00
2546 29.4700 4452.00 4497.05 67.00
2547 29.4800 4431.00 4491.40 67.00
2548 29.4900 4482.00 4494.44 67.00
2549 29.5000 4482.00 4500.17 67.00
2550 29.5100 4445.00 4500.77 67.00
2551 29.5200 4486.00 4490.11 67.00
2552 29.5300 4440.00 4466.67 67.00
2553 29.5400 4440.00 4432.81 67.00
2554 29.5500 4434.00 4391.63 67.00
2555 29.5600 4327.00 4345.40 66.00
2556 29.5700 4257.00 4296.07 65.00
2557 29.5800 4213.00 4245.91 65.00
2558 29.5900 4183.00 4197.51 65.00
2559 29.6000 4139.00 4153.25 64.00
2560 29.6100 4098.00 4114.93 64.00
2561 29.6200 4075.00 4083.51 64.00
2562 29.6300 4048.00 4059.42 64.00
2563 29.6400 4060.00 4042.80 64.00
2564 29.6500 4036.00 4033.71 64.00
2565 29.6600 4068.00 4032.26 64.00
2566 29.6700 4037.00 4038.65 64.00
2567 29.6800 4058.00 4053.15 64.00
2568 29.6900 4024.00 4076.11 63.00
2569 29.7000 4104.00 4107.82 64.00
2570 29.7100 4136.00 4148.35 64.00
2571 29.7200 4194.00 4197.53 65.00
2572 29.7300 4246.00 4254.53 65.00
2573 29.7400 4333.00 4317.64 66.00
2574 29.7500 4350.00 4383.75 66.00
2575 29.7600 4501.00 4447.94 67.00
2576 29.7700 4541.00 4503.41 67.00
2577 29.7800 4618.00 4542.85 68.00
2578 29.7900 4613.00 4560.89 68.00
2579 29.8000 4601.00 4556.40 68.00
2580 29.8100 4534.00 4532.44 67.00
2581 29.8200 4531.00 4494.23 67.00
2582 29.8300 4418.00 4446.92 66.00
2583 29.8400 4394.00 4395.48 66.00
2584 29.8500 4350.00 4343.26 66.00
2585 29.8600 4297.00 4293.16 66.00
2586 29.8700 4200.00 4246.60 65.00
2587 29.8800 4186.00 4204.92 65.00
2588 29.8900 4152.00 4168.48 64.00
2589 29.9000 4122.00 4137.20 64.00
2590 29.9100 4131.00 4110.66 64.00
2591 29.9200 4119.00 4088.22 64.00
2592 29.9300 4061.00 4069.26 64.00
2593 29.9400 4104.00 4053.36 64.00
2594 29.9500 4079.00 4040.38 64.00
2595 29.9600 4069.00 4030.72 64.00
2596 29.9700 4076.00 4025.32 64.00
2597 29.9800 4066.00 4025.71 64.00
2598 29.9900 4036.00 4033.73 64.00
2599 30.0000 4110.00 4051.09 64.00
2600 30.0100 4084.00 4078.54 64.00
2601 30.0200 4158.00 4114.24 64.00
2602 30.0300 4203.00 4150.69 65.00
2603 30.0400 4192.00 4172.80 65.00
2604 30.0500 4160.00 4166.35 64.00
2605 30.0600 4172.00 4133.79 65.00
2606 30.0700 4096.00 4091.22 64.00
2607 30.0800 4073.00 4052.13 64.00
2608 30.0900 4075.00 4022.36 64.00
2609 30.1000 4048.00 4002.88 64.00
2610 30.1100 4014.00 3992.52 63.00
2611 30.1200 4037.00 3989.33 64.00
2612 30.1300 4001.00 3991.21 63.00
2613 30.1400 4044.00 3996.30 64.00
2614 30.1500 4054.00 4003.05 64.00
2615 30.1600 4058.00 4010.29 64.00
2616 30.1700 4040.00 4017.55 64.00
2617 30.1800 4036.00 4025.27 64.00
2618 30.1900 4052.00 4034.86 64.00
2619 30.2000 4092.00 4048.30 64.00
2620 30.2100 4119.00 4067.84 64.00
2621 30.2200 4139.00 4095.82 64.00
2622 30.2300 4127.00 4134.72 64.00
2623 30.2400 4214.00 4186.94 65.00
2624 30.2500 4223.00 4254.74 65.00
2625 30.2600 4349.00 4339.69 66.00
2626 30.2700 4444.00 4442.20 67.00
2627 30.2800 4564.00 4560.41 68.00
2628 30.2900 4669.00 4688.90 68.00
2629 30.3000 4814.00 4816.18 69.00
2630 30.3100 4919.00 4923.90 70.00
2631 30.3200 5002.00 4987.82 71.00
2632 30.3300 5037.00 4989.06 71.00
2633 30.3400 4942.00 4926.20 70.00
2634 30.3500 4780.00 4816.68 69.00
2635 30.3600 4638.00 4685.04 68.00
2636 30.3700 4482.00 4551.52 67.00
2637 30.3800 4414.00 4428.57 66.00
2638 30.3900 4318.00 4322.26 66.00
2639 30.4000 4222.00 4234.62 65.00
2640 30.4100 4145.00 4165.50 64.00
2641 30.4200 4131.00 4113.48 64.00
2642 30.4300 4088.00 4076.70 64.00
2643 30.4400 4072.00 4053.33 64.00
2644 30.4500 4088.00 4041.91 64.00
2645 30.4600 4069.00 4041.42 64.00
2646 30.4700 4088.00 4051.30 64.00
2647 30.4800 4125.00 4071.21 64.00
2648 30.4900 4144.00 4100.75 64.00
2649 30.5000 4138.00 4138.73 64.00
2650 30.5100 4257.00 4182.58 65.00
2651 30.5200 4247.00 4227.35 65.00
2652 30.5300 4267.00 4266.88 65.00
2653 30.5400 4304.00 4297.57 66.00
2654 30.5500 4322.00 4321.47 66.00
2655 30.5600 4354.00 4344.68 66.00
2656 30.5700 4395.00 4372.80 66.00
2657 30.5800 4436.00 4408.30 67.00
2658 30.5900 4455.00 4450.37 67.00
2659 30.6000 4506.00 4495.43 67.00
2660 30.6100 4491.00 4538.23 67.00
2661 30.6200 4624.00 4573.58 68.00
2662 30.6300 4622.00 4598.72 68.00
2663 30.6400 4648.00 4614.25 68.00
2664 30.6500 4592.00 4624.12 68.00
2665 30.6600 4666.00 4632.61 68.00
2666 30.6700 4644.00 4643.42 68.00
2667 30.6800 4648.00 4658.80 68.00
2668 30.6900 4660.00 4679.25 68.00
2669 30.7000 4716.00 4703.75 69.00
2670 30.7100 4655.00 4729.07 68.00
2671 30.7200 4744.00 4750.58 69.00
2672 30.7300 4709.00 4764.30 69.00
2673 30.7400 4770.00 4765.00 69.00
2674 30.7500 4755.00 4752.15 69.00
2675 30.7600 4765.00 4726.53 69.00
2676 30.7700 4648.00 4691.01 68.00
2677 30.7800 4647.00 4651.18 68.00
2678 30.7900 4591.00 4615.77 68.00
2679 30.8000 4572.00 4593.71 68.00
2680 30.8100 4611.00 4590.18 68.00
2681 30.8200 4602.00 4603.72 68.00
2682 30.8300 4569.00 4623.90 68.00
2683 30.8400 4645.00 4630.80 68.00
2684 30.8500 4609.00 4603.30 68.00
2685 30.8600 4588.00 4535.61 68.00
2686 30.8700 4524.00 4442.15 67.00
2687 30.8800 4408.00 4343.81 66.00
2688 30.8900 4305.00 4255.17 66.00
2689 30.9000 4256.00 4182.81 65.00
2690 30.9100 4180.00 4128.23 65.00
2691 30.9200 4172.00 4090.53 65.00
2692 30.9300 4166.00 4067.77 65.00
2693 30.9400 4108.00 4057.74 64.00
2694 30.9500 4084.00 4058.45 64.00
2695 30.9600 4111.00 4068.23 64.00
2696 30.9700 4115.00 4085.82 64.00
2697 30.9800 4137.00 4110.25 64.00
2698 30.9900 4189.00 4140.75 65.00
2699 31.0000 4202.00 4176.52 65.00
2700 31.0100 4248.00 4216.64 65.00
2701 31.0200 4305.00 4259.85 66.00
2702 31.0300 4343.00 4304.60 66.00
2703 31.0400 4422.00 4348.92 66.00
2704 31.0500 4476.00 4390.61 67.00
2705 31.0600 4470.00 4427.26 67.00
2706 31.0700 4464.00 4456.55 67.00
2707 31.0800 4537.00 4476.46 67.00
2708 31.0900 4521.00 4485.59 67.00
2709 31.1000 4537.00 4483.50 67.00
2710 31.1100 4520.00 4470.80 67.00
2711 31.1200 4480.00 4449.13 67.00
2712 31.1300 4419.00 4421.37 66.00
2713 31.1400 4389.00 4389.53 66.00
2714 31.1500 4334.00 4357.22 66.00
2715 31.1600 4328.00 4327.27 66.00
2716 31.1700 4301.00 4302.38 66.00
2717 31.1800 4300.00 4284.93 66.00
2718 31.1900 4256.00 4276.99 65.00
2719 31.2000 4279.00 4280.27 65.00
2720 31.2100 4271.00 4295.96 65.00
2721 31.2200 4335.00 4324.54 66.00
2722 31.2300 4376.00 4365.27 66.00
2723 31.2400 4439.00 4415.52 67.00
2724 31.2500 4468.00 4470.26 67.00
2725 31.2600 4537.00 4522.98 67.00
2726 31.2700 4598.00 4568.44 68.00
2727 31.2800 4625.00 4605.90 68.00
2728 31.2900 4697.00 4639.12 69.00
2729 31.3000 4683.00 4672.62 68.00
2730 31.3100 4697.00 4708.09 69.00
2731 31.3200 4778.00 4742.63 69.00
2732 31.3300 4805.00 4769.48 69.00
2733 31.3400 4847.00 4780.16 70.00
2734 31.3500 4822.00 4767.82 69.00
2735 31.3600 4791.00 4730.38 69.00
2736 31.3700 4743.00 4671.57 69.00
2737 31.3800 4675.00 4599.27 68.00
2738 31.3900 4590.00 4522.48 68.00
2739 31.4000 4510.00 4449.14 67.00
2740 31.4100 4462.00 4384.89 67.00
2741 31.4200 4384.00 4333.86 66.00
2742 31.4300 4317.00 4298.68 66.00
2743 31.4400 4328.00 4280.96 66.00
2744 31.4500 4292.00 4281.54 66.00
2745 31.4600 4338.00 4300.39 66.00
2746 31.4700 4374.00 4336.51 66.00
2747 31.4800 4412.00 4387.43 66.00
2748 31.4900 4454.00 4448.41 67.00
2749 31.5000 4524.00 4512.08 67.00
2750 31.5100 4525.00 4569.34 67.00
2751 31.5200 4622.00 4612.25 68.00
2752 31.5300 4647.00 4636.49 68.00
2753 31.5400 4642.00 4640.40 68.00
2754 31.5500 4562.00 4621.85 68.00
2755 31.5600 4604.00 4579.29 68.00
2756 31.5700 4501.00 4514.91 67.00
2757 31.5800 4484.00 4437.14 67.00
2758 31.5900 4397.00 4356.81 66.00
2759 31.6000 4317.00 4282.24 66.00
2760 31.6100 4234.00 4218.06 65.00
2761 31.6200 4219.00 4166.11 65.00
2762 31.6300 4147.00 4126.62 64.00
2763 31.6400 4137.00 4098.88 64.00
2764 31.6500 4142.00 4081.76 64.00
2765 31.6600 4131.00 4073.98 64.00
2766 31.6700 4121.00 4074.08 64.00
2767 31.6800 4148.00 4080.32 64.00
2768 31.6900 4130.00 4090.61 64.00
2769 31.7000 4170.00 4101.84 65.00
2770 31.7100 4183.00 4109.97 65.00
2771 31.7200 4202.00 4110.84 65.00
2772 31.7300 4141.00 4101.37 64.00
2773 31.7400 4155.00 4081.37 64.00
2774 31.7500 4111.00 4053.44 64.00
2775 31.7600 4091.00 4021.56 64.00
2776 31.7700 4099.00 3989.32 64.00
2777 31.7800 4049.00 3959.28 64.00
2778 31.7900 3982.00 3932.97 63.00
2779 31.8000 3973.00 3911.18 63.00
2780 31.8100 3963.00 3894.20 63.00
2781 31.8200 3969.00 3882.01 63.00
2782 31.8300 3976.00 3874.43 63.00
2783 31.8400 3937.00 3871.12 63.00
2784 31.8500 3914.00 3871.65 63.00
2785 31.8600 3968.00 3875.53 63.00
2786 31.8700 3944.00 3882.12 63.00
2787 31.8800 3982.00 3890.69 63.00
2788 31.8900 4010.00 3900.20 63.00
2789 31.9000 4045.00 3909.30 64.00
2790 31.9100 4009.00 3916.36 63.00
2791 31.9200 4043.00 3919.77 64.00
2792 31.9300 4032.00 3918.49 63.00
2793 31.9400 4031.00 3912.45 63.00
2794 31.9500 4039.00 3902.63 64.00
2795 31.9600 4009.00 3890.51 63.00
2796 31.9700 3979.00 3877.58 63.00
2797 31.9800 3990.00 3865.00 63.00
2798 31.9900 3961.00 3853.56 63.00
2799 32.0000 3979.00 3843.74 63.00
2800 32.0100 3943.00 3835.72 63.00
2801 32.0200 3984.00 3829.79 63.00
2802 32.0300 3890.00 3825.91 62.00
2803 32.0400 3946.00 3824.05 63.00
2804 32.0500 3891.00 3824.20 62.00
2805 32.0600 3928.00 3826.35 63.00
2806 32.0700 3944.00 3830.53 63.00
2807 32.0800 3903.00 3836.83 62.00
2808 32.0900 3888.00 3845.42 62.00
2809 32.1000 3955.00 3856.55 63.00
2810 32.1100 3943.00 3870.56 63.00
2811 32.1200 3956.00 3887.87 63.00
2812 32.1300 4000.00 3908.97 63.00
2813 32.1400 4021.00 3934.32 63.00
2814 32.1500 4035.00 3964.41 64.00
2815 32.1600 4080.00 3999.56 64.00
2816 32.1700 4094.00 4039.92 64.00
2817 32.1800 4160.00 4085.50 64.00
2818 32.1900 4238.00 4136.00 65.00
2819 32.2000 4236.00 4190.88 65.00
2820 32.2100 4269.00 4249.07 65.00
2821 32.2200 4354.00 4308.76 66.00
2822 32.2300 4379.00 4366.74 66.00
2823 32.2400 4453.00 4418.40 67.00
2824 32.2500 4538.00 4458.03 67.00
2825 32.2600 4510.00 4480.46 67.00
2826 32.2700 4491.00 4482.83 67.00
2827 32.2800 4517.00 4465.66 67.00
2828 32.2900 4459.00 4432.32 67.00
2829 32.3000 4419.00 4387.25 66.00
2830 32.3100 4396.00 4334.82 66.00
2831 32.3200 4331.00 4278.64 66.00
2832 32.3300 4236.00 4221.61 65.00
2833 32.3400 4237.00 4166.06 65.00
2834 32.3500 4113.00 4113.74 64.00
2835 32.3600 4104.00 4065.80 64.00
2836 32.3700 4056.00 4022.94 64.00
2837 32.3800 4033.00 3985.30 64.00
2838 32.3900 3985.00 3952.80 63.00
2839 32.4000 3981.00 3925.12 63.00
2840 32.4100 3934.00 3901.87 63.00
2841 32.4200 3996.00 3882.58 63.00
2842 32.4300 3955.00 3866.85 63.00
2843 32.4400 3937.00 3854.30 63.00
2844 32.4500 3902.00 3844.59 62.00
2845 32.4600 3916.00 3837.47 63.00
2846 32.4700 3859.00 3832.57 62.00
2847 32.4800 3876.00 3829.91 62.00
2848 32.4900 3896.00 3829.15 62.00
2849 32.5000 3892.00 3830.08 62.00
2850 32.5100 3878.00 3832.41 62.00
2851 32.5200 3887.00 3835.79 62.00
2852 32.5300 3877.00 3839.75 62.00
2853 32.5400 3880.00 3843.68 62.00
2854 32.5500 3920.00 3846.79 63.00
2855 32.5600 3908.00 3848.28 63.00
2856 32.5700 3900.00 3847.52 62.00
2857 32.5800 3915.00 3844.32 63.00
2858 32.5900 3880.00 3839.00 62.00
2859 32.6000 3904.00 3832.16 62.00
2860 32.6100 3877.00 3824.52 62.00
2861 32.6200 3920.00 3816.72 63.00
2862 32.6300 3843.00 3809.23 62.00
2863 32.6400 3832.00 3802.34 62.00
2864 32.6500 3796.00 3796.24 62.00
2865 32.6600 3832.00 3791.00 62.00
2866 32.6700 3858.00 3786.64 62.00
2867 32.6800 3831.00 3783.05 62.00
2868 32.6900 3821.00 3780.31 62.00
2869 32.7000 3834.00 3778.28 62.00
2870 32.7100 3813.00 3777.41 62.00
2871 32.7200 3838.00 3776.65 62.00
2872 32.7300 3869.00 3776.44 62.00
2873 32.7400 3813.00 3776.78 62.00
2874 32.7500 3800.00 3777.67 62.00
2875 32.7600 3819.00 3779.16 62.00
2876 32.7700 3797.00 3781.33 62.00
2877 32.7800 3824.00 3784.29 62.00
2878 32.7900 3847.00 3788.21 62.00
2879 32.8000 3837.00 3793.23 62.00
2880 32.8100 3844.00 3799.51 62.00
2881 32.8200 3881.00 3807.15 62.00
2882 32.8300 3813.00 3816.11 62.00
2883 32.8400 3905.00 3826.13 62.00
2884 32.8500 3912.00 3836.49 63.00
2885 32.8600 3915.00 3845.94 63.00
2886 32.8700 3882.00 3852.97 62.00
2887 32.8800 3942.00 3856.65 63.00
2888 32.8900 3878.00 3857.44 62.00
2889 32.9000 3918.00 3856.72 63.00
2890 32.9100 3906.00 3856.08 62.00
2891 32.9200 3895.00 3856.42 62.00
2892 32.9300 3873.00 3858.03 62.00
2893 32.9400 3926.00 3861.38 63.00
2894 32.9500 3891.00 3866.29 62.00
2895 32.9600 3915.00 3872.64 63.00
2896 32.9700 3948.00 3880.29 63.00
2897 32.9800 3950.00 3889.14 63.00
2898 32.9900 3904.00 3899.08 62.00
2899 33.0000 3944.00 3910.09 63.00
2900 33.0100 3950.00 3922.19 63.00
2901 33.0200 3984.00 3935.52 63.00
2902 33.0300 4020.00 3950.23 63.00
2903 33.0400 4024.00 3966.60 63.00
2904 33.0500 4012.00 3984.94 63.00
2905 33.0600 4050.00 4005.62 64.00
2906 33.0700 4045.00 4028.98 64.00
2907 33.0800 4130.00 4055.32 64.00
2908 33.0900 4126.00 4084.68 64.00
2909 33.1000 4170.00 4116.80 65.00
2910 33.1100 4171.00 4150.70 65.00
2911 33.1200 4209.00 4184.38 65.00
2912 33.1300 4218.00 4214.59 65.00
2913 33.1400 4288.00 4236.93 65.00
2914 33.1500 4327.00 4247.79 66.00
2915 33.1600 4303.00 4243.90 66.00
2916 33.1700 4263.00 4227.50 65.00
2917 33.1800 4281.00 4203.21 65.00
2918 33.1900 4212.00 4176.77 65.00
2919 33.2000 4187.00 4153.41 65.00
2920 33.2100 4196.00 4137.41 65.00
2921 33.2200 4176.00 4132.30 65.00
2922 33.2300 4153.00 4141.14 64.00
2923 33.2400 4190.00 4166.34 65.00
2924 33.2500 4194.00 4209.32 65.00
2925 33.2600 4277.00 4269.22 65.00
2926 33.2700 4375.00 4340.30 66.00
2927 33.2800 4391.00 4408.01 66.00
2928 33.2900 4396.00 4449.97 66.00
2929 33.3000 4437.00 4449.55 67.00
2930 33.3100 4397.00 4412.38 66.00
2931 33.3200 4393.00 4360.27 66.00
2932 33.3300 4357.00 4312.34 66.00
2933 33.3400 4330.00 4278.12 66.00
2934 33.3500 4278.00 4259.74 65.00
2935 33.3600 4296.00 4255.54 66.00
2936 33.3700 4239.00 4261.92 65.00
2937 33.3800 4321.00 4274.26 66.00
2938 33.3900 4329.00 4287.38 66.00
2939 33.4000 4341.00 4296.07 66.00
2940 33.4100 4302.00 4295.92 66.00
2941 33.4200 4331.00 4284.71 66.00
2942 33.4300 4280.00 4263.03 65.00
2943 33.4400 4277.00 4233.87 65.00
2944 33.4500 4244.00 4201.15 65.00
2945 33.4600 4224.00 4168.39 65.00
2946 33.4700 4174.00 4138.18 65.00
2947 33.4800 4180.00 4112.37 65.00
2948 33.4900 4132.00 4092.09 64.00
2949 33.5000 4135.00 4079.69 64.00
2950 33.5100 4123.00 4074.90 64.00
2951 33.5200 4128.00 4079.33 64.00
2952 33.5300 4110.00 4093.93 64.00
2953 33.5400 4155.00 4119.37 64.00
2954 33.5500 4162.00 4155.68 65.00
2955 33.5600 4235.00 4202.63 65.00
2956 33.5700 4264.00 4257.83 65.00
2957 33.5800 4308.00 4316.63 66.00
2958 33.5900 4324.00 4371.67 66.00
2959 33.6000 4405.00 4412.79 66.00
2960 33.6100 4407.00 4430.45 66.00
2961 33.6200 4446.00 4420.29 67.00
2962 33.6300 4442.00 4386.07 67.00
2963 33.6400 4349.00 4337.32 66.00
2964 33.6500 4262.00 4283.92 65.00
2965 33.6600 4264.00 4232.76 65.00
2966 33.6700 4207.00 4187.37 65.00
2967 33.6800 4174.00 4149.17 65.00
2968 33.6900 4143.00 4118.44 64.00
2969 33.7000 4143.00 4094.76 64.00
2970 33.7100 4090.00 4077.48 64.00
2971 33.7200 4119.00 4065.82 64.00
2972 33.7300 4039.00 4059.02 64.00
2973 33.7400 4068.00 4056.39 64.00
2974 33.7500 4092.00 4057.37 64.00
2975 33.7600 4101.00 4061.48 64.00
2976 33.7700 4063.00 4068.29 64.00
2977 33.7800 4127.00 4077.38 64.00
2978 33.7900 4132.00 4088.28 64.00
2979 33.8000 4159.00 4100.34 64.00
2980 33.8100 4154.00 4112.79 64.00
2981 33.8200 4167.00 4125.01 65.00
2982 33.8300 4123.00 4136.84 64.00
2983 33.8400 4201.00 4148.89 65.00
2984 33.8500 4197.00 4162.29 65.00
2985 33.8600 4206.00 4178.38 65.00
2986 33.8700 4250.00 4198.28 65.00
2987 33.8800 4290.00 4222.94 65.00
2988 33.8900 4295.00 4253.03 66.00
2989 33.9000 4332.00 4289.03 66.00
2990 33.9100 4349.00 4331.06 66.00
2991 33.9200 4377.00 4378.78 66.00
2992 33.9300 4477.00 4431.23 67.00
2993 33.9400 4509.00 4486.33 67.00
2994 33.9500 4546.00 4540.98 67.00
2995 33.9600 4648.00 4591.01 68.00
2996 33.9700 4657.00 4632.35 68.00
2997 33.9800 4720.00 4662.11 69.00
2998 33.9900 4740.00 4679.52 69.00
2999 34.0000 4721.00 4684.89 69.00
3000 34.0100 4661.00 4676.99 68.00
3001 34.0200 4653.00 4651.16 68.00
3002 34.0300 4588.00 4602.33 68.00
3003 34.0400 4531.00 4531.64 67.00
3004 34.0500 4469.00 4448.79 67.00
3005 34.0600 4375.00 4365.98 66.00
3006 34.0700 4271.00 4292.29 65.00
3007 34.0800 4248.00 4232.20 65.00
3008 34.0900 4201.00 4187.31 65.00
3009 34.1000 4186.00 4157.42 65.00
3010 34.1100 4188.00 4141.42 65.00
3011 34.1200 4172.00 4137.59 65.00
3012 34.1300 4144.00 4143.75 64.00
3013 34.1400 4218.00 4157.05 65.00
3014 34.1500 4215.00 4173.94 65.00
3015 34.1600 4282.00 4190.54 65.00
3016 34.1700 4265.00 4203.72 65.00
3017 34.1800 4279.00 4212.24 65.00
3018 34.1900 4226.00 4216.61 65.00
3019 34.2000 4253.00 4217.85 65.00
3020 34.2100 4234.00 4216.46 65.00
3021 34.2200 4279.00 4212.25 65.00
3022 34.2300 4276.00 4204.77 65.00
3023 34.2400 4253.00 4193.60 65.00
3024 34.2500 4185.00 4178.60 65.00
3025 34.2600 4209.00 4160.01 65.00
3026 34.2700 4163.00 4138.48 65.00
3027 34.2800 4159.00 4115.05 64.00
3028 34.2900 4162.00 4090.83 65.00
3029 34.3000 4126.00 4066.98 64.00
3030 34.3100 4058.00 4044.42 64.00
3031 34.3200 4069.00 4023.95 64.00
3032 34.3300 4012.00 4006.16 63.00
3033 34.3400 3984.00 3991.51 63.00
3034 34.3500 4016.00 3980.31 63.00
3035 34.3600 3977.00 3973.09 63.00
3036 34.3700 3963.00 3969.94 63.00
3037 34.3800 4011.00 3970.99 63.00
3038 34.3900 3998.00 3976.18 63.00
3039 34.4000 3998.00 3985.21 63.00
3040 34.4100 4012.00 3997.35 63.00
3041 34.4200 4022.00 4011.20 63.00
3042 34.4300 4018.00 4024.45 63.00
3043 34.4400 4028.00 4034.03 63.00
3044 34.4500 4012.00 4037.11 63.00
3045 34.4600 4040.00 4032.54 64.00
3046 34.4700 4039.00 4021.61 64.00
3047 34.4800 4002.00 4007.11 63.00
3048 34.4900 3942.00 3992.00 63.00
3049 34.5000 3965.00 3978.00 63.00
3050 34.5100 3945.00 3966.35 63.00
3051 34.5200 3942.00 3957.43 63.00
3052 34.5300 3935.00 3951.50 63.00
3053 34.5400 3952.00 3948.34 63.00
3054 34.5500 3896.00 3947.71 62.00
3055 34.5600 3954.00 3949.32 63.00
3056 34.5700 3897.00 3952.86 62.00
3057 34.5800 3955.00 3958.06 63.00
3058 34.5900 3947.00 3964.62 63.00
3059 34.6000 3947.00 3972.26 63.00
3060 34.6100 3936.00 3980.72 63.00
3061 34.6200 3986.00 3989.67 63.00
3062 34.6300 3937.00 3999.05 63.00
3063 34.6400 3999.00 4008.67 63.00
3064 34.6500 4010.00 4018.68 63.00
3065 34.6600 4001.00 4029.05 63.00
3066 34.6700 3984.00 4039.66 63.00
3067 34.6800 4022.00 4050.06 63.00
3068 34.6900 4007.00 4059.32 63.00
3069 34.7000 4069.00 4066.25 64.00
3070 34.7100 4068.00 4069.72 64.00
3071 34.7200 4084.00 4069.29 64.00
3072 34.7300 4021.00 4065.45 63.00
3073 34.7400 4017.00 4059.44 63.00
3074 34.7500 4000.00 4052.61 63.00
3075 34.7600 4052.00 4046.33 64.00
3076 34.7700 4053.00 4041.46 64.00
3077 34.7800 4073.00 4038.69 64.00
3078 34.7900 4009.00 4038.65 63.00
3079 34.8000 4052.00 4041.90 64.00
3080 34.8100 4021.00 4048.92 63.00
3081 34.8200 4042.00 4060.25 64.00
3082 34.8300 4102.00 4076.05 64.00
3083 34.8400 4094.00 4096.09 64.00
3084 34.8500 4130.00 4119.65 64.00
3085 34.8600 4157.00 4145.22 64.00
3086 34.8700 4197.00 4170.53 65.00
3087 34.8800 4219.00 4192.88 65.00
3088 34.8900 4279.00 4209.63 65.00
3089 34.9000 4255.00 4218.61 65.00
3090 34.9100 4218.00 4218.21 65.00
3091 34.9200 4269.00 4207.78 65.00
3092 34.9300 4194.00 4188.35 65.00
3093 34.9400 4204.00 4163.08 65.00
3094 34.9500 4159.00 4136.21 64.00
3095 34.9600 4149.00 4111.66 64.00
3096 34.9700 4037.00 4092.30 64.00
3097 34.9800 4077.00 4079.89 64.00
3098 34.9900 4018.00 4075.27 63.00
3099 35.0000 4040.00 4078.84 64.00
3100 35.0100 4061.00 4090.37 64.00
3101 35.0200 4081.00 4109.23 64.00
3102 35.0300 4068.00 4134.14 64.00
3103 35.0400 4153.00 4163.02 64.00
3104 35.0500 4116.00 4192.57 64.00
3105 35.0600 4197.00 4218.40 65.00
3106 35.0700 4214.00 4235.53 65.00
3107 35.0800 4222.00 4240.12 65.00
3108 35.0900 4167.00 4231.35 65.00
3109 35.1000 4184.00 4211.68 65.00
3110 35.1100 4122.00 4185.48 64.00
3111 35.1200 4142.00 4157.19 64.00
3112 35.1300 4115.00 4130.17 64.00
3113 35.1400 4084.00 4106.60 64.00
3114 35.1500 4029.00 4087.69 63.00
3115 35.1600 4028.00 4073.96 63.00
3116 35.1700 4042.00 4065.42 64.00
3117 35.1800 4012.00 4061.59 63.00
3118 35.1900 4022.00 4061.48 63.00
3119 35.2000 4021.00 4063.66 63.00
3120 35.2100 3991.00 4066.92 63.00
3121 35.2200 4051.00 4070.94 64.00
3122 35.2300 4029.00 4075.98 63.00
3123 35.2400 4054.00 4082.06 64.00
3124 35.2500 4057.00 4088.74 64.00
3125 35.2600 4065.00 4095.54 64.00
3126 35.2700 4022.00 4102.40 63.00
3127 35.2800 4063.00 4109.81 64.00
3128 35.2900 4071.00 4118.56 64.00
3129 35.3000 4056.00 4129.24 64.00
3130 35.3100 4109.00 4142.16 64.00
3131 35.3200 4118.00 4157.37 64.00
3132 35.3300 4093.00 4174.77 64.00
3133 35.3400 4131.00 4194.11 64.00
3134 35.3500 4139.00 4215.02 64.00
3135 35.3600 4183.00 4236.95 65.00
3136 35.3700 4229.00 4259.12 65.00
3137 35.3800 4238.00 4280.41 65.00
3138 35.3900 4262.00 4299.54 65.00
3139 35.4000 4289.00 4314.73 65.00
3140 35.4100 4267.00 4324.56 65.00
3141 35.4200 4313.00 4327.45 66.00
3142 35.4300 4330.00 4322.59 66.00
3143 35.4400 4299.00 4310.05 66.00
3144 35.4500 4233.00 4290.76 65.00
3145 35.4600 4253.00 4266.27 65.00
3146 35.4700 4167.00 4238.23 65.00
3147 35.4800 4140.00 4208.17 64.00
3148 35.4900 4119.00 4177.30 64.00
3149 35.5000 4103.00 4146.64 64.00
3150 35.5100 4038.00 4116.99 64.00
3151 35.5200 4055.00 4088.97 64.00
3152 35.5300 4013.00 4063.03 63.00
3153 35.5400 4032.00 4039.38 63.00
3154 35.5500 4003.00 4018.08 63.00
3155 35.5600 3998.00 3998.93 63.00
3156 35.5700 3909.00 3981.76 63.00
3157 35.5800 3965.00 3966.36 63.00
3158 35.5900 3912.00 3952.92 63.00
3159 35.6000 3926.00 3941.17 63.00
3160 35.6100 3916.00 3931.24 63.00
3161 35.6200 3922.00 3923.15 63.00
3162 35.6300 3874.00 3916.84 62.00
3163 35.6400 3894.00 3912.24 62.00
3164 35.6500 3864.00 3909.34 62.00
3165 35.6600 3893.00 3908.10 62.00
3166 35.6700 3910.00 3908.50 63.00
3167 35.6800 3860.00 3910.57 62.00
3168 35.6900 3855.00 3914.32 62.00
3169 35.7000 3877.00 3919.75 62.00
3170 35.7100 3896.00 3926.81 62.00
3171 35.7200 3891.00 3935.36 62.00
3172 35.7300 3928.00 3945.09 63.00
3173 35.7400 3936.00 3955.43 63.00
3174 35.7500 3923.00 3965.62 63.00
3175 35.7600 3957.00 3975.00 63.00
3176 35.7700 3955.00 3983.40 63.00
3177 35.7800 3984.00 3991.44 63.00
3178 35.7900 4004.00 4000.34 63.00
3179 35.8000 4005.00 4011.37 63.00
3180 35.8100 3949.00 4025.49 63.00
3181 35.8200 4037.00 4043.02 64.00
3182 35.8300 4021.00 4063.81 63.00
3183 35.8400 4052.00 4087.37 64.00
3184 35.8500 4104.00 4113.95 64.00
3185 35.8600 4127.00 4144.58 64.00
3186 35.8700 4115.00 4180.16 64.00
3187 35.8800 4180.00 4219.69 65.00
3188 35.8900 4210.00 4260.38 65.00
3189 35.9000 4240.00 4297.22 65.00
3190 35.9100 4311.00 4327.14 66.00
3191 35.9200 4323.00 4349.75 66.00
3192 35.9300 4277.00 4366.26 65.00
3193 35.9400 4328.00 4376.42 66.00
3194 35.9500 4339.00 4377.40 66.00
3195 35.9600 4334.00 4365.96 66.00
3196 35.9700 4307.00 4341.84 66.00
3197 35.9800 4244.00 4308.89 65.00
3198 35.9900 4184.00 4272.95 65.00
3199 36.0000 4179.00 4239.04 65.00
3200 36.0100 4123.00 4210.38 64.00
3201 36.0200 4109.00 4188.69 64.00
3202 36.0300 4109.00 4174.88 64.00
3203 36.0400 4080.00 4169.37 64.00
3204 36.0500 4067.00 4172.41 64.00
3205 36.0600 4103.00 4184.11 64.00
3206 36.0700 4119.00 4204.42 64.00
3207 36.0800 4146.00 4233.08 64.00
3208 36.0900 4193.00 4269.38 65.00
3209 36.1000 4214.00 4312.01 65.00
3210 36.1100 4254.00 4358.57 65.00
3211 36.1200 4299.00 4405.02 66.00
3212 36.1300 4347.00 4445.55 66.00
3213 36.1400 4411.00 4472.71 66.00
3214 36.1500 4451.00 4479.62 67.00
3215 36.1600 4414.00 4462.97 66.00
3216 36.1700 4326.00 4425.05 66.00
3217 36.1800 4306.00 4372.48 66.00
3218 36.1900 4223.00 4313.02 65.00
3219 36.2000 4187.00 4252.87 65.00
3220 36.2100 4148.00 4196.02 64.00
3221 36.2200 4123.00 4144.65 64.00
3222 36.2300 3998.00 4099.73 63.00
3223 36.2400 3973.00 4061.42 63.00
3224 36.2500 3952.00 4029.47 63.00
3225 36.2600 3961.00 4003.38 63.00
3226 36.2700 3974.00 3982.54 63.00
3227 36.2800 3922.00 3966.37 63.00
3228 36.2900 3895.00 3954.31 62.00
3229 36.3000 3902.00 3945.92 62.00
3230 36.3100 3870.00 3940.84 62.00
3231 36.3200 3880.00 3938.80 62.00
3232 36.3300 3907.00 3939.60 63.00
3233 36.3400 3868.00 3943.07 62.00
3234 36.3500 3860.00 3949.02 62.00
3235 36.3600 3892.00 3957.22 62.00
3236 36.3700 3875.00 3967.34 62.00
3237 36.3800 3915.00 3978.90 63.00
3238 36.3900 3914.00 3991.70 63.00
3239 36.4000 3921.00 4005.34 63.00
3240 36.4100 3930.00 4019.57 63.00
3241 36.4200 3974.00 4034.08 63.00
3242 36.4300 3980.00 4048.39 63.00
3243 36.4400 4027.00 4061.88 63.00
3244 36.4500 4045.00 4073.89 64.00
3245 36.4600 4036.00 4083.91 64.00
3246 36.4700 4015.00 4091.75 63.00
3247 36.4800 4050.00 4097.59 64.00
3248 36.4900 4030.00 4101.84 63.00
3249 36.5000 4016.00 4104.99 63.00
3250 36.5100 4036.00 4107.47 64.00
3251 36.5200 4070.00 4109.64 64.00
3252 36.5300 4018.00 4111.88 63.00
3253 36.5400 4035.00 4114.83 64.00
3254 36.5500 4029.00 4119.35 63.00
3255 36.5600 4045.00 4126.27 64.00
3256 36.5700 4070.00 4136.21 64.00
3257 36.5800 4069.00 4149.33 64.00
3258 36.5900 4045.00 4165.33 64.00
3259 36.6000 4100.00 4183.28 64.00
3260 36.6100 4090.00 4201.65 64.00
3261 36.6200 4154.00 4218.55 64.00
3262 36.6300 4177.00 4232.34 65.00
3263 36.6400 4176.00 4242.24 65.00
3264 36.6500 4156.00 4248.62 64.00
3265 36.6600 4161.00 4252.60 65.00
3266 36.6700 4134.00 4255.39 64.00
3267 36.6800 4193.00 4257.76 65.00
3268 36.6900 4187.00 4260.04 65.00
3269 36.7000 4204.00 4262.21 65.00
3270 36.7100 4193.00 4264.24 65.00
3271 36.7200 4198.00 4266.43 65.00
3272 36.7300 4183.00 4269.32 65.00
3273 36.7400 4192.00 4273.81 65.00
3274 36.7500 4206.00 4280.20 65.00
3275 36.7600 4191.00 4288.24 65.00
3276 36.7700 4187.00 4296.74 65.00
3277 36.7800 4214.00 4303.89 65.00
3278 36.7900 4229.00 4307.15 65.00
3279 36.8000 4221.00 4304.06 65.00
3280 36.8100 4242.00 4293.04 65.00
3281 36.8200 4234.00 4274.09 65.00
3282 36.8300 4164.00 4248.94 65.00
3283 36.8400 4181.00 4220.57 65.00
3284 36.8500 4150.00 4192.10 64.00
3285 36.8600 4127.00 4166.01 64.00
3286 36.8700 4119.00 4143.65 64.00
3287 36.8800 4084.00 4125.39 64.00
3288 36.8900 4044.00 4110.59 64.00
3289 36.9000 4071.00 4097.80 64.00
3290 36.9100 4033.00 4085.11 64.00
3291 36.9200 4046.00 4070.58 64.00
3292 36.9300 4040.00 4052.75 64.00
3293 36.9400 4010.00 4031.42 63.00
3294 36.9500 3953.00 4007.16 63.00
3295 36.9600 3974.00 3981.24 63.00
3296 36.9700 3944.00 3955.01 63.00
3297 36.9800 3919.00 3929.63 63.00
3298 36.9900 3906.00 3905.87 62.00
3299 37.0000 3848.00 3884.25 62.00
3300 37.0100 3840.00 3864.97 62.00
3301 37.0200 3846.00 3848.12 62.00
3302 37.0300 3807.00 3833.65 62.00
3303 37.0400 3810.00 3821.53 62.00
3304 37.0500 3790.00 3811.59 62.00
3305 37.0600 3792.00 3803.71 62.00
3306 37.0700 3756.00 3797.72 61.00
3307 37.0800 3791.00 3793.44 62.00
3308 37.0900 3773.00 3790.73 61.00
3309 37.1000 3790.00 3789.41 62.00
3310 37.1100 3798.00 3789.30 62.00
3311 37.1200 3779.00 3790.25 61.00
3312 37.1300 3765.00 3792.10 61.00
3313 37.1400 3802.00 3794.68 62.00
3314 37.1500 3811.00 3797.79 62.00
3315 37.1600 3844.00 3801.20 62.00
3316 37.1700 3856.00 3804.61 62.00
3317 37.1800 3834.00 3807.68 62.00
3318 37.1900 3792.00 3810.13 62.00
3319 37.2000 3853.00 3811.77 62.00
3320 37.2100 3809.00 3812.61 62.00
3321 37.2200 3825.00 3812.77 62.00
3322 37.2300 3816.00 3812.65 62.00
3323 37.2400 3855.00 3812.55 62.00
3324 37.2500 3806.00 3812.77 62.00
3325 37.2600 3849.00 3813.51 62.00
3326 37.2700 3811.00 3814.87 62.00
3327 37.2800 3834.00 3816.87 62.00
3328 37.2900 3869.00 3819.44 62.00
3329 37.3000 3874.00 3822.45 62.00
3330 37.3100 3828.00 3825.75 62.00
3331 37.3200 3890.00 3829.10 62.00
3332 37.3300 3872.00 3832.25 62.00
3333 37.3400 3898.00 3834.81 62.00
3334 37.3500 3896.00 3836.28 62.00
3335 37.3600 3866.00 3836.10 62.00
3336 37.3700 3851.00 3833.95 62.00
3337 37.3800 3875.00 3830.04 62.00
3338 37.3900 3843.00 3825.30 62.00
3339 37.4000 3854.00 3820.90 62.00
3340 37.4100 3871.00 3818.01 62.00
3341 37.4200 3865.00 3817.43 62.00
3342 37.4300 3858.00 3819.62 62.00
3343 37.4400 3862.00 3824.84 62.00
3344 37.4500 3853.00 3832.98 62.00
3345 37.4600 3882.00 3843.80 62.00
3346 37.4700 3920.00 3856.89 63.00
3347 37.4800 3953.00 3871.64 63.00
3348 37.4900 3925.00 3887.30 63.00
3349 37.5000 3970.00 3902.95 63.00
3350 37.5100 3971.00 3917.49 63.00
3351 37.5200 4001.00 3929.74 63.00
3352 37.5300 4027.00 3938.53 63.00
3353 37.5400 4021.00 3942.86 63.00
3354 37.5500 3986.00 3942.14 63.00
3355 37.5600 4017.00 3936.16 63.00
3356 37.5700 3964.00 3925.18 63.00
3357 37.5800 4004.00 3909.85 63.00
3358 37.5900 3990.00 3891.13 63.00
3359 37.6000 3936.00 3870.14 63.00
3360 37.6100 3881.00 3848.01 62.00
3361 37.6200 3901.00 3825.86 62.00
3362 37.6300 3864.00 3804.59 62.00
3363 37.6400 3853.00 3784.86 62.00
3364 37.6500 3868.00 3766.95 62.00
3365 37.6600 3835.00 3750.64 62.00
3366 37.6700 3798.00 3735.29 62.00
3367 37.6800 3808.00 3719.02 62.00
3368 37.6900 3759.00 3700.83 61.00
3369 37.7000 3788.00 3680.48 62.00
3370 37.7100 3799.00 3658.95 62.00
3371 37.7200 3770.00 3637.68 61.00
3372 37.7300 3701.00 3617.80 61.00
3373 37.7400 3747.00 3599.91 61.00
3374 37.7500 3708.00 3584.20 61.00
3375 37.7600 3712.00 3570.59 61.00
3376 37.7700 3698.00 3558.91 61.00
3377 37.7800 3724.00 3548.94 61.00
3378 37.7900 3669.00 3540.46 61.00
3379 37.8000 3678.00 3533.27 61.00
3380 37.8100 3667.00 3527.20 61.00
3381 37.8200 3675.00 3522.14 61.00
loop_
_pd_proc_info_excluded_regions
'from 0.01 to 4.010'
'from 37.83 to 78.048'
loop_
_refln_index_h
_refln_index_k
_refln_index_l
_refln_F_squared_calc
_refln_F_squared_meas
_refln_F_squared_sigma
_refln_observed_status
_refln_d_spacing
2 0 0 392.71 358.58 7.08 o 5.789744
1 0 1 743.94 764.52 10.43 o 4.119355
2 0 1 5414.13 5264.84 23.41 o 3.507053
2 1 0 2123.63 2133.08 17.57 o 3.397619
0 1 1 8841.07 8860.21 33.38 o 3.039145
1 1 1 29051.38 29137.52 41.71 o 2.939584
3 0 1 341.21 342.00 0.68 o 2.903806
4 0 0 58254.60 57973.94 116.88 o 2.894872
2 1 1 17.23 21.94 2.43 o 2.690943
4 0 1 286.09 254.30 4.81 o 2.419667
3 1 1 15953.96 16059.15 37.37 o 2.387804
4 1 0 4182.56 4201.27 9.84 o 2.382829
0 0 2 21073.64 20559.37 114.75 o 2.203847
1 0 2 9034.18 9040.82 55.32 o 2.164985
0 2 0 47715.27 47296.17 130.10 o 2.098054
4 1 1 5886.89 5818.15 16.52 o 2.096132
2 0 2 468.53 466.06 4.11 o 2.059677
5 0 1 4617.11 4676.52 43.32 o 2.050135
2 2 0 195.51 296.00 19.65 o 1.972536
6 0 0 1359.93 1435.98 10.69 o 1.929915
1 1 2 4507.04 4689.58 23.61 o 1.923990
3 0 2 8579.00 8917.93 45.03 o 1.913853
1 2 1 331.82 378.18 8.41 o 1.869538
2 1 2 1214.64 1212.98 3.54 o 1.848946
5 1 1 20092.36 19921.89 57.97 o 1.842034
2 2 1 2751.80 2782.76 29.68 o 1.800464
6 0 1 2634.13 2677.60 34.55 o 1.767877
4 0 2 13449.53 13673.86 71.61 o 1.753526
6 1 0 2212.83 2244.60 12.58 o 1.753356
3 1 2 2130.39 2160.39 15.99 o 1.741285
3 2 1 240.29 236.10 0.94 o 1.700609
4 2 0 31682.65 31098.17 120.15 o 1.698809
6 1 1 79.86 57.70 4.36 o 1.629186
4 1 2 1398.58 1284.22 31.80 o 1.617934
5 0 2 4646.70 4478.13 76.37 o 1.596498
4 2 1 160.71 132.29 5.13 o 1.585149
7 0 1 873.29 574.20 43.65 o 1.548734
0 2 2 12418.55 12141.66 96.43 o 1.519572
1 2 2 5161.83 5074.33 44.67 o 1.506655
5 1 2 4575.03 4585.07 47.10 o 1.492147
2 2 2 288.68 288.92 4.22 o 1.469792
5 2 1 2589.17 2598.65 33.48 o 1.466313
1 0 3 2856.78 2873.73 17.51 o 1.457546
7 1 1 3419.23 3425.73 24.39 o 1.452929
6 0 2 2160.91 2177.09 14.62 o 1.451903
8 0 0 16342.72 16714.24 130.87 o 1.447436
2 0 3 4318.74 4153.11 39.67 o 1.424093
6 2 0 890.78 855.56 8.74 o 1.420383
3 2 2 4999.97 4841.07 48.25 o 1.413944
0 1 3 11522.67 11515.67 107.79 o 1.386685
1 1 3 1826.74 1823.41 14.29 o 1.376848
8 0 1 450.51 456.16 5.48 o 1.375185
3 0 3 4117.95 4108.36 34.55 o 1.373118
6 1 2 177.34 179.59 1.70 o 1.372088
8 1 0 6233.57 6294.64 68.63 o 1.368316
2 3 0 456.21 475.11 5.92 o 1.359591
6 2 1 1530.55 1546.61 13.64 o 1.351921
2 1 3 0.11 0.11 0.00 o 1.348546
4 2 2 8322.74 8465.03 63.29 o 1.345471
0 3 1 2799.17 2834.85 27.80 o 1.333187
1 3 1 9767.56 9859.17 64.07 o 1.324437
7 0 2 4348.05 4373.85 29.28 o 1.322988
4 0 3 327.36 341.05 5.28 o 1.310151
8 1 1 2175.53 2284.73 45.18 o 1.306795
3 1 3 134.29 142.47 2.70 o 1.305022
2 3 1 5.09 5.57 0.15 o 1.299188
5 2 2 2843.85 3177.93 51.89 o 1.270495
7 1 2 467.25 482.04 4.78 o 1.261759
3 3 1 5568.93 5668.44 51.24 o 1.260136
4 3 0 1552.71 1574.25 13.09 o 1.259403
4 1 3 8568.18 8439.75 67.37 o 1.250609
7 2 1 639.76 627.78 6.66 o 1.246023
5 0 3 516.89 514.80 6.01 o 1.240630
9 0 1 5515.10 5951.70 110.00 o 1.235068
4 3 1 2077.26 2333.82 38.43 o 1.210942
8 0 2 3822.59 4278.96 71.12 o 1.209833
1 2 3 1854.31 1914.43 18.82 o 1.197033
6 2 2 1429.21 1471.57 12.86 o 1.193902
8 2 0 10251.39 10426.01 79.86 o 1.191414
5 1 3 2819.34 2869.77 18.45 o 1.189719
9 1 1 7157.75 7258.01 60.34 o 1.184811
2 2 3 2589.08 2642.04 27.25 o 1.178295
1 3 2 1558.38 1587.50 25.14 o 1.174846
6 0 3 2746.97 2934.37 42.99 o 1.169018
8 1 2 2280.15 2463.27 34.52 o 1.162479
10 0 0 997.52 1043.12 11.16 o 1.157949
2 3 2 613.13 636.98 6.17 o 1.157115
5 3 1 7940.89 8230.59 74.33 o 1.155414
8 2 1 284.57 289.34 3.30 o 1.150138
3 2 3 2725.88 2760.43 33.37 o 1.148929
6 3 0 655.48 595.68 33.73 o 1.132540
3 3 2 741.38 652.46 38.70 o 1.129267
6 1 3 0.77 0.69 0.02 o 1.126132
10 0 1 878.10 804.25 17.80 o 1.119946
7 2 2 2718.58 2494.25 52.80 o 1.119076
10 1 0 1910.88 1772.56 39.12 o 1.116227
4 2 3 211.80 192.97 6.83 o 1.111275
9 0 2 1352.03 1212.81 55.19 o 1.111120
0 0 4 37.13 32.18 1.11 o 1.101923
7 0 3 2324.34 2014.70 71.83 o 1.098506
1 0 4 2416.14 2059.91 71.91 o 1.096968
6 3 1 27.48 23.70 0.85 o 1.096909
4 3 2 607.06 507.26 22.24 o 1.093455
2 0 4 274.67 250.58 8.61 o 1.082492
10 1 1 76.21 45.66 7.59 o 1.082068
9 1 2 2722.57 2592.92 73.26 o 1.074101
5 2 3 335.89 309.36 6.12 o 1.067897
9 2 1 3557.68 3241.35 65.26 o 1.064343
7 1 3 272.93 246.81 4.79 o 1.062694
1 1 4 310.67 282.80 4.81 o 1.061301
3 0 4 1672.68 1532.15 22.00 o 1.059590
5 3 2 1759.07 1692.61 18.82 o 1.052054
0 4 0 11541.03 10681.66 105.81 o 1.049027
2 1 4 6585.88 6080.15 59.88 o 1.048175
8 2 2 2512.29 2333.22 24.15 o 1.048066
7 3 1 1319.91 1045.21 43.29 o 1.038032
2 4 0 60.75 48.36 2.33 o 1.032220
8 0 3 617.42 468.27 29.38 o 1.031111
4 0 4 2.05 1.64 0.09 o 1.029839
3 1 4 100.67 82.41 2.99 o 1.027342
10 0 2 1835.36 1515.63 62.92 o 1.025067
11 0 1 339.74 284.06 11.65 o 1.023885
6 2 3 1736.81 1452.65 52.90 o 1.021195
1 4 1 35.98 32.26 0.83 o 1.016582
10 2 0 703.81 634.74 18.11 o 1.013792
0 3 3 4712.97 4276.06 120.35 o 1.013048
1 3 3 846.36 782.94 20.04 o 1.009193
6 3 2 108.21 99.16 2.52 o 1.007315
8 3 0 2730.92 2543.84 52.18 o 1.005819
2 4 1 622.10 574.08 11.20 o 1.005029
8 1 3 3728.31 3439.90 72.19 o 1.001323
4 1 4 139.55 129.44 2.53 o 1.000157
2 3 3 0.00 0.00 0.00 o 0.997888
10 1 2 65.85 60.10 2.27 o 0.995785
5 0 4 1990.75 1874.70 40.75 o 0.995031
11 1 1 218.55 209.15 9.81 o 0.994701
10 2 1 566.81 564.78 12.99 o 0.987995
3 4 1 129.27 127.85 2.66 o 0.986620
4 4 0 8268.46 8178.44 164.19 o 0.986268
9 2 2 892.60 865.89 23.03 o 0.981920
8 3 1 896.96 870.32 23.55 o 0.980612
3 3 3 69.32 66.64 2.24 o 0.979861
0 2 4 34.42 34.52 0.95 o 0.975556
7 2 3 1591.76 1614.08 49.61 o 0.973182
1 2 4 1601.89 1633.91 47.37 o 0.972112
5 1 4 525.87 544.10 15.37 o 0.968182
9 0 3 9.63 9.92 0.34 o 0.967935
12 0 0 2464.54 2669.56 157.10 o 0.964957
4 4 1 42.06 43.59 1.46 o 0.962467
2 2 4 185.63 190.79 5.19 o 0.961995
7 3 2 179.46 184.20 6.63 o 0.961146
6 0 4 1454.44 1467.68 33.47 o 0.956926
4 3 3 3628.25 3618.27 88.84 o 0.956190
11 0 2 1431.26 1461.24 44.84 o 0.949883
0 4 2 3543.63 3549.30 75.47 o 0.947196
3 2 4 1110.28 1110.62 20.29 o 0.945814
1 4 2 1354.25 1354.37 25.53 o 0.944043
9 1 3 1613.70 1616.60 30.95 o 0.943167
12 0 1 289.15 287.14 6.41 o 0.942632
12 1 0 3506.45 3571.48 91.63 o 0.940411
2 4 2 88.85 93.78 2.56 o 0.934769
5 4 1 638.14 666.07 16.65 o 0.933872
6 1 4 3132.28 3250.02 70.02 o 0.932973
5 3 3 1318.39 1357.67 29.40 o 0.928135
11 1 2 48.56 50.51 1.12 o 0.926442
9 3 1 3229.67 3351.51 68.87 o 0.925799
8 2 3 416.17 431.27 8.85 o 0.925393
4 2 4 3.20 3.29 0.07 o 0.924473
6 4 0 302.82 313.76 6.14 o 0.921669
10 2 2 1265.89 1305.67 32.24 o 0.921017
11 2 1 244.73 251.50 6.61 o 0.920159
3 4 2 1331.58 1376.53 34.45 o 0.919902
12 1 1 528.66 538.71 15.22 o 0.919711
7 0 4 668.50 697.97 17.75 o 0.917082
8 3 2 1065.92 1202.20 50.08 o 0.915026
10 0 3 1277.78 1889.82 142.77 o 0.909447
6 4 1 399.82 433.24 13.92 o 0.902156
4 4 2 2468.97 2665.14 85.71 o 0.900232
5 2 4 1347.28 1459.73 46.49 o 0.899045
6 3 3 0.07 0.08 0.00 o 0.896981
7 1 4 22.53 24.21 0.82 o 0.895934
10 3 0 800.26 1123.52 123.01 o 0.891951
10 1 3 2.32 3.32 0.49 o 0.888811
12 0 2 414.48 535.39 67.27 o 0.883939
1 0 5 2210.10 2339.87 72.84 o 0.878995
9 2 3 7.45 8.29 0.38 o 0.878909
8 0 4 58.64 61.78 1.92 o 0.876763
5 4 2 815.42 853.84 28.95 o 0.876703
12 2 0 1658.54 1754.91 66.07 o 0.876678
10 3 1 31.98 33.37 0.99 o 0.874231
13 0 1 3282.58 3372.14 119.73 o 0.873081
2 0 5 63.79 66.49 1.56 o 0.871495
6 2 4 999.84 1040.41 29.56 o 0.870643
9 3 2 1203.24 1252.68 39.42 o 0.870013
7 4 1 245.52 252.38 6.92 o 0.868539
11 2 2 961.60 994.81 36.03 o 0.865328
12 1 2 1263.31 1297.78 49.23 o 0.864955
7 3 3 123.31 127.20 4.64 o 0.863918
1 3 4 129.92 134.51 4.60 o 0.863169
0 1 5 765.07 801.72 19.42 o 0.862706
1 1 5 1.74 1.79 0.05 o 0.860322
12 2 1 196.65 208.76 7.46 o 0.859835
3 0 5 2475.26 2554.82 54.59 o 0.859410
8 1 4 214.47 222.71 5.52 o 0.858229
2 3 4 3044.91 3158.22 79.90 o 0.856063
11 0 3 511.45 529.51 13.56 o 0.855711
13 1 1 1303.67 1340.88 36.82 o 0.854774
2 1 5 28.73 30.14 0.68 o 0.853286
1 4 3 585.39 619.48 22.37 o 0.851434
6 4 2 465.04 496.51 18.19 o 0.850305
8 4 0 3054.42 3267.86 120.87 o 0.849405
2 4 3 712.02 699.91 54.36 o 0.844612
3 3 4 39.85 39.94 2.69 o 0.844600
4 0 5 17.57 17.53 0.80 o 0.843305
3 1 5 272.90 262.65 13.42 o 0.841933
7 2 4 454.21 418.68 26.07 o 0.840312
11 1 3 674.87 633.05 39.68 o 0.838454
9 0 4 978.53 960.26 44.85 o 0.836927
10 2 3 865.59 857.71 42.12 o 0.834426
8 4 1 85.71 83.49 3.58 o 0.834059
3 4 3 885.55 876.46 43.38 o 0.833597
2 5 0 41.54 39.06 1.58 o 0.830542
8 3 3 1707.61 1565.75 76.77 o 0.829964
4 3 4 70.18 63.27 3.03 o 0.829300
14 0 0 260.36 225.27 15.12 o 0.827106
10 3 2 26.84 23.50 1.16 o 0.826802
4 1 5 586.44 527.28 17.94 o 0.826774
11 3 1 89.56 78.99 3.51 o 0.826181
13 0 2 231.17 200.16 11.00 o 0.825829
0 5 1 528.30 468.92 17.96 o 0.824411
5 0 5 990.55 882.50 31.36 o 0.823871
1 5 1 1981.51 1754.19 71.46 o 0.822330
7 4 2 805.34 716.52 30.55 o 0.821982
9 1 4 520.29 460.77 19.78 o 0.820761
4 4 3 66.33 59.07 3.54 o 0.818876
2 5 1 0.84 0.74 0.04 o 0.816179
12 2 2 284.56 252.19 16.84 o 0.814593
14 0 1 233.93 211.58 11.28 o 0.812918
14 1 0 1246.67 1114.47 48.74 o 0.811492
5 3 4 239.20 208.06 7.92 o 0.810797
1 2 5 1527.87 1332.12 40.87 o 0.810719
13 1 2 1129.70 988.41 40.27 o 0.810285
8 2 4 38.32 33.55 1.03 o 0.808967
5 1 5 66.39 57.58 1.74 o 0.808436
12 0 3 445.89 379.39 13.90 o 0.806556
3 5 1 1121.21 957.81 31.24 o 0.806227
13 2 1 2274.71 1926.38 74.76 o 0.806072
4 5 0 334.29 284.87 9.26 o 0.806035
2 2 5 45.86 38.64 1.29 o 0.804823
6 0 5 10.14 8.39 0.29 o 0.801848
5 4 3 106.06 81.32 5.45 o 0.801047
9 4 1 1110.86 885.97 42.09 o 0.799544
10 0 4 1457.18 1186.76 47.53 o 0.798249
14 1 1 43.24 35.05 1.81 o 0.798079
9 3 3 784.11 653.34 24.07 o 0.795935
3 2 5 1722.67 1462.51 43.59 o 0.795276
12 3 0 1686.79 1437.49 46.86 o 0.794276
4 5 1 414.13 357.24 11.02 o 0.792886
8 4 2 807.89 703.15 22.95 o 0.792575
11 2 3 360.51 314.42 10.75 o 0.792342
12 1 3 1051.12 918.27 31.46 o 0.792056
6 3 4 1494.50 1323.85 52.55 o 0.789780
6 1 5 162.78 147.63 5.76 o 0.787597
11 3 2 21.52 20.92 1.69 o 0.785806
10 1 4 655.48 695.33 47.07 o 0.784186
1 5 2 301.86 339.23 20.89 o 0.782490
4 2 5 12.52 14.05 0.71 o 0.782463
12 3 1 248.71 283.96 16.88 o 0.781686
6 4 3 527.30 607.49 33.99 o 0.780761
7 0 5 1406.16 1674.78 69.30 o 0.777967
10 4 0 250.98 300.81 13.15 o 0.777437
9 2 4 682.63 817.78 36.15 o 0.777360
2 5 2 162.72 195.16 8.67 o 0.777184
5 5 1 1738.69 2092.40 91.92 o 0.776669
14 0 2 642.62 799.36 50.16 o 0.774367
