#------------------------------------------------------------------------------
#$Date: 2016-06-17 04:50:27 +0300 (Fri, 17 Jun 2016) $
#$Revision: 183633 $
#$URL: file:///home/coder/svn-repositories/cod/cif/2/10/75/2107519.cif $
#------------------------------------------------------------------------------
#
# This file is available in the Crystallography Open Database (COD),
# http://www.crystallography.net/. The original data for this entry
# were provided by IUCr Journals, http://journals.iucr.org/.
#
# The file may be used within the scientific community so long as
# proper attribution is given to the journal article from which the
# data were obtained.
#
data_2107519
loop_
_publ_author_name
'Sist, Mattia'
'Zhang, Jiawei'
'Brummerstedt Iversen, Bo'
_publ_section_title
;
 Crystal structure and phase transition of thermoelectric SnSe
;
_journal_coeditor_code           GW5043
_journal_issue                   3
_journal_name_full               'Acta Crystallographica Section B'
_journal_page_first              310
_journal_page_last               316
_journal_paper_doi               10.1107/S2052520616003334
_journal_volume                  72
_journal_year                    2016
_chemical_formula_moiety         'Se1 Sn0.9816'
_chemical_formula_sum            'Se Sn0.9816'
_chemical_formula_weight         195.50
_chemical_name_common            'Tin Selenide'
_space_group_IT_number           62
_symmetry_cell_setting           orthorhombic
_symmetry_Int_Tables_number      62
_symmetry_space_group_name_Hall  '-P 2ac 2n'
_symmetry_space_group_name_H-M   'P n m a'
_cell_angle_alpha                90
_cell_angle_beta                 90
_cell_angle_gamma                90
_cell_formula_units_Z            4
_cell_length_a                   11.70577(16)
_cell_length_b                   4.30722(16)
_cell_length_c                   4.29911(16)
_cell_measurement_temperature    805(5)
_cell_volume                     216.758(12)
_computing_structure_refinement  'Jana2006, (Petricek,2014)'
_diffrn_ambient_temperature      805(5)
_diffrn_detector_type            'Image plate'
_diffrn_measurement_device_type  BL44B2
_diffrn_radiation_probe          x-ray
_diffrn_radiation_type           Synchrotron,monochromatic
_diffrn_radiation_wavelength     0.50021
_diffrn_source_type              'Spring8, BL44B2 beamline'
_exptl_absorpt_coefficient_mu    10.965
_exptl_absorpt_correction_type   none
_exptl_crystal_density_diffrn    5.991
_exptl_crystal_F_000             332.3
_pd_char_colour                  metallic_grey
_pd_meas_2theta_range_inc        0.01
_pd_meas_2theta_range_max        77.970
_pd_meas_2theta_range_min        0.010
_pd_meas_number_of_points        7797
_pd_proc_2theta_range_inc        0.01
_pd_proc_2theta_range_max        34.48
_pd_proc_2theta_range_min        4.02
_pd_proc_ls_background_function
'Manual background combined with 8 Chebyshev polynoms'
_pd_proc_ls_pref_orient_corr     none
_pd_proc_ls_profile_function     Pseudo-Voigt
_pd_proc_ls_prof_R_factor        0.0224
_pd_proc_ls_prof_wR_expected     0.0131
_pd_proc_ls_prof_wR_factor       0.0297
_pd_spec_mounting                capillary
_pd_spec_mount_mode              transmission
_refine_ls_goodness_of_fit_all   2.26
_refine_ls_number_constraints    0
_refine_ls_number_parameters     32
_refine_ls_number_restraints     0
_refine_ls_R_factor_all          0.0580
_refine_ls_R_factor_gt           0.0454
_refine_ls_shift/su_max          0.0403
_refine_ls_shift/su_mean         0.0073
_refine_ls_weighting_scheme      sigma
_refine_ls_wR_factor_all         0.0158
_refine_ls_wR_factor_gt          0.0156
_cod_data_source_file            gw5043sup1.cif
_cod_data_source_block           805
_cod_depositor_comments
;
The following automatic conversions were performed:

'_diffrn_radiation_probe' value 'X-ray' changed to 'x-ray' according
to
/usr/data/users/saulius/crontab/automatic-downloads/rss-feeds/IUCr/lib/dictionaries/cif_core.dic
dictionary named 'cif_core.dic' version 2.4.2 from 2011-04-26.

Automatic conversion script
Id: cif_fix_values 4268 2015-11-12 08:31:59Z antanas 

 Adding full bibliography for 2107508--2107520.cif.
;
_cod_original_formula_sum        'Se1 Sn0.9816'
_cod_database_code               2107519
_cod_database_fobs_code          2107519
loop_
_space_group_symop_id
_space_group_symop_operation_xyz
1 x,y,z
2 -x+1/2,-y,z+1/2
3 -x,y+1/2,-z
4 x+1/2,-y+1/2,-z+1/2
5 -x,-y,-z
6 x+1/2,y,-z+1/2
7 x,-y+1/2,z
8 -x+1/2,y+1/2,z+1/2
loop_
_atom_site_label
_atom_site_type_symbol
_atom_site_fract_x
_atom_site_fract_y
_atom_site_fract_z
_atom_site_adp_type
_atom_site_U_iso_or_equiv
_atom_site_site_symmetry_multiplicity
_atom_site_occupancy
_atom_site_calc_flag
Sn Sn 0.12399(7) 0.25 0.0192(6) Uani 0.0577(9) 4 0.9816 d
Se Se 0.85663(9) 0.25 0.4968(8) Uani 0.0396(10) 4 1 d
loop_
_atom_site_aniso_label
_atom_site_aniso_type_symbol
_atom_site_aniso_U_11
_atom_site_aniso_U_22
_atom_site_aniso_U_33
_atom_site_aniso_U_12
_atom_site_aniso_U_13
_atom_site_aniso_U_23
Sn Sn 0.0479(7) 0.062(2) 0.0627(16) 0 -0.0181(19) 0
Se Se 0.0402(10) 0.038(2) 0.0406(18) 0 0.000(2) 0
loop_
_atom_type_symbol
_atom_type_scat_dispersion_real
_atom_type_scat_dispersion_imag
_atom_type_scat_source
Se 0.2899 1.2209 'International Tables Vol C tables 4.2.6.8 and 6.1.1.1'
Sn -1.5316 0.7679 'International Tables Vol C tables 4.2.6.8 and 6.1.1.1'
loop_
_geom_angle_atom_site_label_1
_geom_angle_atom_site_label_2
_geom_angle_atom_site_label_3
_geom_angle_site_symmetry_1
_geom_angle_site_symmetry_2
_geom_angle_site_symmetry_3
_geom_angle
Se Sn Se 4_455 1_555 3_656 86.677
Se Sn Se 4_455 1_555 3_655 84.766
Se Sn Se 3_645 1_555 3_655 88.003
Se Sn Se 3_646 1_555 3_656 91.636
Se Sn Se 3_656 1_555 3_655 89.547
Se Sn Se 4_455 1_555 1_455 148.185
Se Sn Sn 4_455 1_555 3_545 143.213
loop_
_geom_bond_atom_site_label_1
_geom_bond_atom_site_label_2
_geom_bond_site_symmetry_1
_geom_bond_site_symmetry_2
_geom_bond_distance
Sn Se 1_555 4_455 2.724
Sn Se 1_555 3_656 3.003
Sn Se 1_555 3_655 3.100
Sn Se 1_555 1_455 3.743
Sn Sn 1_555 3_545 3.618
Sn Se 1_555 1_454 3.852
loop_
_pd_proc_point_id
_pd_proc_2theta_corrected
_pd_proc_intensity_net
_pd_calc_intensity_net
_pd_proc_ls_weight
1 4.0300 3118.00 3182.63 56.00
2 4.0400 3112.00 3181.93 56.00
3 4.0500 3119.00 3181.26 56.00
4 4.0600 3126.00 3180.62 56.00
5 4.0700 3139.00 3180.00 56.00
6 4.0800 3121.00 3179.41 56.00
7 4.0900 3100.00 3178.84 56.00
8 4.1000 3111.00 3178.30 56.00
9 4.1100 3136.00 3177.79 56.00
10 4.1200 3105.00 3177.30 56.00
11 4.1300 3133.00 3176.84 56.00
12 4.1400 3102.00 3176.40 56.00
13 4.1500 3094.00 3175.99 56.00
14 4.1600 3130.00 3175.60 56.00
15 4.1700 3139.00 3175.24 56.00
16 4.1800 3146.00 3174.90 56.00
17 4.1900 3136.00 3174.58 56.00
18 4.2000 3124.00 3174.30 56.00
19 4.2100 3132.00 3174.03 56.00
20 4.2200 3124.00 3173.79 56.00
21 4.2300 3111.00 3173.58 56.00
22 4.2400 3098.00 3173.39 56.00
23 4.2500 3142.00 3173.22 56.00
24 4.2600 3128.00 3173.08 56.00
25 4.2700 3143.00 3172.96 56.00
26 4.2800 3132.00 3172.87 56.00
27 4.2900 3147.00 3172.80 56.00
28 4.3000 3164.00 3172.75 56.00
29 4.3100 3176.00 3172.73 56.00
30 4.3200 3134.00 3172.73 56.00
31 4.3300 3151.00 3172.76 56.00
32 4.3400 3143.00 3172.81 56.00
33 4.3500 3153.00 3172.88 56.00
34 4.3600 3158.00 3172.98 56.00
35 4.3700 3170.00 3173.10 56.00
36 4.3800 3166.00 3173.25 56.00
37 4.3900 3174.00 3173.42 56.00
38 4.4000 3149.00 3173.61 56.00
39 4.4100 3149.00 3173.83 56.00
40 4.4200 3206.00 3174.07 57.00
41 4.4300 3175.00 3174.34 56.00
42 4.4400 3186.00 3174.63 56.00
43 4.4500 3167.00 3174.95 56.00
44 4.4600 3165.00 3175.29 56.00
45 4.4700 3197.00 3175.66 57.00
46 4.4800 3187.00 3176.05 56.00
47 4.4900 3173.00 3176.47 56.00
48 4.5000 3171.00 3176.92 56.00
49 4.5100 3191.00 3177.40 56.00
50 4.5200 3179.00 3177.91 56.00
51 4.5300 3197.00 3178.45 57.00
52 4.5400 3184.00 3179.01 56.00
53 4.5500 3181.00 3179.61 56.00
54 4.5600 3169.00 3180.25 56.00
55 4.5700 3238.00 3180.92 57.00
56 4.5800 3222.00 3181.63 57.00
57 4.5900 3224.00 3182.37 57.00
58 4.6000 3211.00 3183.16 57.00
59 4.6100 3213.00 3184.00 57.00
60 4.6200 3211.00 3184.89 57.00
61 4.6300 3192.00 3185.83 56.00
62 4.6400 3192.00 3186.83 56.00
63 4.6500 3193.00 3187.90 57.00
64 4.6600 3187.00 3189.04 56.00
65 4.6700 3221.00 3190.27 57.00
66 4.6800 3198.00 3191.59 57.00
67 4.6900 3222.00 3193.03 57.00
68 4.7000 3220.00 3194.61 57.00
69 4.7100 3245.00 3196.33 57.00
70 4.7200 3224.00 3198.25 57.00
71 4.7300 3239.00 3200.40 57.00
72 4.7400 3207.00 3202.82 57.00
73 4.7500 3247.00 3205.60 57.00
74 4.7600 3241.00 3208.83 57.00
75 4.7700 3247.00 3212.65 57.00
76 4.7800 3274.00 3217.23 57.00
77 4.7900 3287.00 3222.86 57.00
78 4.8000 3278.00 3229.95 57.00
79 4.8100 3275.00 3239.13 57.00
80 4.8200 3336.00 3251.41 58.00
81 4.8300 3387.00 3268.79 58.00
82 4.8400 3480.00 3297.74 59.00
83 4.8500 3627.00 3370.85 60.00
84 4.8600 3977.00 3628.72 63.00
85 4.8700 4789.00 4445.70 69.00
86 4.8800 6316.00 6252.12 79.00
87 4.8900 8220.00 8679.80 91.00
88 4.9000 9014.00 9979.03 95.00
89 4.9100 7852.00 8756.61 89.00
90 4.9200 5791.00 6334.08 76.00
91 4.9300 4369.00 4495.10 66.00
92 4.9400 3734.00 3652.41 61.00
93 4.9500 3477.00 3385.30 59.00
94 4.9600 3371.00 3311.27 58.00
95 4.9700 3315.00 3283.67 58.00
96 4.9800 3296.00 3268.08 57.00
97 4.9900 3284.00 3257.68 57.00
98 5.0000 3253.00 3250.44 57.00
99 5.0100 3278.00 3245.31 57.00
100 5.0200 3257.00 3241.65 57.00
101 5.0300 3270.00 3239.05 57.00
102 5.0400 3243.00 3237.22 57.00
103 5.0500 3262.00 3235.98 57.00
104 5.0600 3260.00 3235.19 57.00
105 5.0700 3267.00 3234.75 57.00
106 5.0800 3265.00 3234.59 57.00
107 5.0900 3255.00 3234.66 57.00
108 5.1000 3233.00 3234.91 57.00
109 5.1100 3258.00 3235.31 57.00
110 5.1200 3269.00 3235.85 57.00
111 5.1300 3241.00 3236.49 57.00
112 5.1400 3259.00 3237.22 57.00
113 5.1500 3257.00 3238.04 57.00
114 5.1600 3223.00 3238.92 57.00
115 5.1700 3259.00 3239.87 57.00
116 5.1800 3239.00 3240.87 57.00
117 5.1900 3259.00 3241.92 57.00
118 5.2000 3294.00 3243.01 57.00
119 5.2100 3292.00 3244.14 57.00
120 5.2200 3306.00 3245.31 57.00
121 5.2300 3312.00 3246.51 58.00
122 5.2400 3288.00 3247.74 57.00
123 5.2500 3283.00 3249.00 57.00
124 5.2600 3301.00 3250.29 57.00
125 5.2700 3279.00 3251.60 57.00
126 5.2800 3282.00 3252.93 57.00
127 5.2900 3288.00 3254.28 57.00
128 5.3000 3291.00 3255.65 57.00
129 5.3100 3287.00 3257.05 57.00
130 5.3200 3260.00 3258.46 57.00
131 5.3300 3301.00 3259.89 57.00
132 5.3400 3272.00 3261.33 57.00
133 5.3500 3295.00 3262.79 57.00
134 5.3600 3285.00 3264.27 57.00
135 5.3700 3282.00 3265.76 57.00
136 5.3800 3309.00 3267.26 58.00
137 5.3900 3308.00 3268.78 58.00
138 5.4000 3279.00 3270.31 57.00
139 5.4100 3307.00 3271.86 58.00
140 5.4200 3293.00 3273.42 57.00
141 5.4300 3299.00 3274.99 57.00
142 5.4400 3327.00 3276.57 58.00
143 5.4500 3314.00 3278.16 58.00
144 5.4600 3274.00 3279.77 57.00
145 5.4700 3304.00 3281.38 57.00
146 5.4800 3307.00 3283.01 58.00
147 5.4900 3310.00 3284.65 58.00
148 5.5000 3292.00 3286.30 57.00
149 5.5100 3319.00 3287.96 58.00
150 5.5200 3284.00 3289.62 57.00
151 5.5300 3338.00 3291.30 58.00
152 5.5400 3308.00 3292.99 58.00
153 5.5500 3322.00 3294.69 58.00
154 5.5600 3324.00 3296.39 58.00
155 5.5700 3315.00 3298.11 58.00
156 5.5800 3304.00 3299.83 57.00
157 5.5900 3321.00 3301.57 58.00
158 5.6000 3311.00 3303.31 58.00
159 5.6100 3314.00 3305.06 58.00
160 5.6200 3330.00 3306.82 58.00
161 5.6300 3320.00 3308.59 58.00
162 5.6400 3324.00 3310.36 58.00
163 5.6500 3329.00 3312.15 58.00
164 5.6600 3315.00 3313.94 58.00
165 5.6700 3330.00 3315.74 58.00
166 5.6800 3352.00 3317.54 58.00
167 5.6900 3351.00 3320.30 58.00
168 5.7000 3335.00 3322.14 58.00
169 5.7100 3321.00 3323.98 58.00
170 5.7200 3364.00 3325.83 58.00
171 5.7300 3372.00 3327.69 58.00
172 5.7400 3350.00 3329.55 58.00
173 5.7500 3346.00 3331.43 58.00
174 5.7600 3367.00 3333.31 58.00
175 5.7700 3346.00 3335.19 58.00
176 5.7800 3354.00 3337.09 58.00
177 5.7900 3359.00 3338.99 58.00
178 5.8000 3367.00 3340.90 58.00
179 5.8100 3381.00 3342.81 58.00
180 5.8200 3362.00 3344.73 58.00
181 5.8300 3370.00 3346.66 58.00
182 5.8400 3378.00 3348.60 58.00
183 5.8500 3363.00 3350.54 58.00
184 5.8600 3398.00 3352.49 58.00
185 5.8700 3397.00 3354.44 58.00
186 5.8800 3381.00 3356.40 58.00
187 5.8900 3405.00 3358.37 58.00
188 5.9000 3390.00 3360.34 58.00
189 5.9100 3390.00 3362.32 58.00
190 5.9200 3389.00 3364.30 58.00
191 5.9300 3397.00 3366.30 58.00
192 5.9400 3385.00 3368.29 58.00
193 5.9500 3400.00 3370.30 58.00
194 5.9600 3388.00 3372.30 58.00
195 5.9700 3394.00 3374.32 58.00
196 5.9800 3407.00 3376.34 58.00
197 5.9900 3397.00 3378.37 58.00
198 6.0000 3388.00 3380.40 58.00
199 6.0100 3422.00 3382.43 58.00
200 6.0200 3390.00 3384.48 58.00
201 6.0300 3374.00 3386.23 58.00
202 6.0400 3384.00 3388.28 58.00
203 6.0500 3424.00 3390.35 59.00
204 6.0600 3376.00 3392.42 58.00
205 6.0700 3413.00 3395.14 58.00
206 6.0800 3419.00 3397.87 58.00
207 6.0900 3407.00 3400.60 58.00
208 6.1000 3421.00 3403.34 58.00
209 6.1100 3423.00 3406.09 59.00
210 6.1200 3391.00 3408.84 58.00
211 6.1300 3400.00 3411.59 58.00
212 6.1400 3427.00 3414.35 59.00
213 6.1500 3430.00 3417.11 59.00
214 6.1600 3426.00 3419.88 59.00
215 6.1700 3427.00 3422.66 59.00
216 6.1800 3424.00 3425.44 59.00
217 6.1900 3418.00 3428.22 58.00
218 6.2000 3433.00 3431.01 59.00
219 6.2100 3453.00 3433.81 59.00
220 6.2200 3444.00 3436.61 59.00
221 6.2300 3447.00 3439.41 59.00
222 6.2400 3414.00 3442.23 58.00
223 6.2500 3459.00 3445.04 59.00
224 6.2600 3435.00 3447.86 59.00
225 6.2700 3450.00 3450.69 59.00
226 6.2800 3483.00 3453.52 59.00
227 6.2900 3491.00 3456.36 59.00
228 6.3000 3435.00 3459.20 59.00
229 6.3100 3475.00 3462.05 59.00
230 6.3200 3432.00 3464.90 59.00
231 6.3300 3464.00 3467.76 59.00
232 6.3400 3480.00 3470.63 59.00
233 6.3500 3499.00 3473.50 59.00
234 6.3600 3467.00 3476.38 59.00
235 6.3700 3503.00 3479.26 59.00
236 6.3800 3502.00 3482.15 59.00
237 6.3900 3498.00 3485.05 59.00
238 6.4000 3521.00 3487.96 59.00
239 6.4100 3520.00 3490.87 59.00
240 6.4200 3466.00 3493.78 59.00
241 6.4300 3508.00 3496.71 59.00
242 6.4400 3493.00 3499.64 59.00
243 6.4500 3479.00 3502.58 59.00
244 6.4600 3485.00 3505.53 59.00
245 6.4700 3525.00 3508.49 59.00
246 6.4800 3499.00 3511.45 59.00
247 6.4900 3503.00 3514.43 59.00
248 6.5000 3514.00 3517.41 59.00
249 6.5100 3498.00 3520.41 59.00
250 6.5200 3533.00 3523.41 59.00
251 6.5300 3517.00 3526.43 59.00
252 6.5400 3476.00 3529.46 59.00
253 6.5500 3476.00 3532.50 59.00
254 6.5600 3521.00 3535.56 59.00
255 6.5700 3534.00 3538.62 59.00
256 6.5800 3546.00 3541.71 60.00
257 6.5900 3536.00 3544.81 59.00
258 6.6000 3537.00 3547.93 59.00
259 6.6100 3535.00 3551.06 59.00
260 6.6200 3537.00 3554.22 59.00
261 6.6300 3535.00 3557.39 59.00
262 6.6400 3564.00 3560.59 60.00
263 6.6500 3560.00 3563.82 60.00
264 6.6600 3547.00 3567.07 60.00
265 6.6700 3557.00 3570.35 60.00
266 6.6800 3552.00 3573.66 60.00
267 6.6900 3564.00 3577.01 60.00
268 6.7000 3606.00 3580.39 60.00
269 6.7100 3587.00 3583.82 60.00
270 6.7200 3583.00 3587.29 60.00
271 6.7300 3592.00 3590.81 60.00
272 6.7400 3589.00 3594.39 60.00
273 6.7500 3593.00 3598.02 60.00
274 6.7600 3590.00 3601.73 60.00
275 6.7700 3633.00 3605.52 60.00
276 6.7800 3577.00 3609.39 60.00
277 6.7900 3607.00 3613.36 60.00
278 6.8000 3570.00 3617.44 60.00
279 6.8100 3614.00 3621.64 60.00
280 6.8200 3608.00 3625.98 60.00
281 6.8300 3626.00 3630.49 60.00
282 6.8400 3600.00 3636.03 60.00
283 6.8500 3627.00 3641.06 60.00
284 6.8600 3617.00 3646.23 60.00
285 6.8700 3618.00 3651.70 60.00
286 6.8800 3647.00 3657.50 60.00
287 6.8900 3627.00 3663.71 60.00
288 6.9000 3631.00 3670.40 60.00
289 6.9100 3682.00 3677.68 61.00
290 6.9200 3682.00 3685.66 61.00
291 6.9300 3687.00 3694.50 61.00
292 6.9400 3703.00 3704.41 61.00
293 6.9500 3680.00 3715.65 61.00
294 6.9600 3693.00 3728.58 61.00
295 6.9700 3741.00 3743.69 61.00
296 6.9800 3759.00 3761.64 61.00
297 6.9900 3792.00 3783.37 62.00
298 7.0000 3858.00 3810.23 62.00
299 7.0100 3907.00 3844.28 63.00
300 7.0200 3951.00 3888.90 63.00
301 7.0300 4075.00 3951.21 64.00
302 7.0400 4321.00 4051.32 66.00
303 7.0500 4629.00 4250.46 68.00
304 7.0600 5218.00 4706.36 72.00
305 7.0700 6177.00 5710.59 79.00
306 7.0800 7642.00 7570.04 87.00
307 7.0900 9764.00 10236.90 99.00
308 7.1000 12161.00 12860.50 110.00
309 7.1100 13339.00 13754.80 115.00
310 7.1200 12145.00 12112.90 110.00
311 7.1300 9356.00 9325.82 97.00
312 7.1400 6828.00 6880.51 83.00
313 7.1500 5402.00 5326.52 73.00
314 7.1600 4671.00 4544.40 68.00
315 7.1700 4294.00 4203.44 66.00
316 7.1800 4102.00 4053.55 64.00
317 7.1900 3992.00 3975.34 63.00
318 7.2000 3886.00 3925.80 62.00
319 7.2100 3851.00 3890.90 62.00
320 7.2200 3820.00 3865.24 62.00
321 7.2300 3825.00 3846.00 62.00
322 7.2400 3793.00 3831.39 62.00
323 7.2500 3790.00 3820.23 62.00
324 7.2600 3739.00 3811.66 61.00
325 7.2700 3736.00 3805.09 61.00
326 7.2800 3765.00 3800.08 61.00
327 7.2900 3742.00 3796.32 61.00
328 7.3000 3768.00 3793.54 61.00
329 7.3100 3752.00 3791.58 61.00
330 7.3200 3720.00 3790.27 61.00
331 7.3300 3723.00 3789.51 61.00
332 7.3400 3738.00 3789.21 61.00
333 7.3500 3735.00 3789.29 61.00
334 7.3600 3764.00 3789.70 61.00
335 7.3700 3750.00 3790.38 61.00
336 7.3800 3753.00 3791.30 61.00
337 7.3900 3751.00 3792.43 61.00
338 7.4000 3761.00 3793.73 61.00
339 7.4100 3749.00 3795.19 61.00
340 7.4200 3762.00 3796.78 61.00
341 7.4300 3767.00 3798.50 61.00
342 7.4400 3752.00 3800.32 61.00
343 7.4500 3736.00 3802.23 61.00
344 7.4600 3734.00 3804.23 61.00
345 7.4700 3743.00 3806.30 61.00
346 7.4800 3767.00 3808.44 61.00
347 7.4900 3783.00 3810.64 62.00
348 7.5000 3739.00 3812.89 61.00
349 7.5100 3773.00 3815.20 61.00
350 7.5200 3794.00 3817.55 62.00
351 7.5300 3751.00 3819.94 61.00
352 7.5400 3759.00 3822.37 61.00
353 7.5500 3788.00 3824.83 62.00
354 7.5600 3761.00 3827.33 61.00
355 7.5700 3759.00 3829.85 61.00
356 7.5800 3761.00 3832.41 61.00
357 7.5900 3753.00 3834.99 61.00
358 7.6000 3775.00 3837.59 61.00
359 7.6100 3783.00 3840.22 62.00
360 7.6200 3766.00 3842.88 61.00
361 7.6300 3794.00 3845.55 62.00
362 7.6400 3766.00 3848.24 61.00
363 7.6500 3777.00 3850.96 61.00
364 7.6600 3790.00 3853.69 62.00
365 7.6700 3813.00 3856.44 62.00
366 7.6800 3787.00 3859.21 62.00
367 7.6900 3821.00 3862.00 62.00
368 7.7000 3815.00 3864.81 62.00
369 7.7100 3776.00 3867.63 61.00
370 7.7200 3804.00 3870.48 62.00
371 7.7300 3829.00 3873.33 62.00
372 7.7400 3790.00 3876.20 62.00
373 7.7500 3822.00 3879.09 62.00
374 7.7600 3809.00 3882.01 62.00
375 7.7700 3799.00 3884.94 62.00
376 7.7800 3816.00 3887.90 62.00
377 7.7900 3797.00 3890.88 62.00
378 7.8000 3813.00 3893.89 62.00
379 7.8100 3815.00 3896.92 62.00
380 7.8200 3835.00 3899.98 62.00
381 7.8300 3825.00 3903.08 62.00
382 7.8400 3838.00 3906.20 62.00
383 7.8500 3862.00 3909.36 62.00
384 7.8600 3841.00 3912.56 62.00
385 7.8700 3858.00 3915.80 62.00
386 7.8800 3859.00 3919.09 62.00
387 7.8900 3865.00 3922.43 62.00
388 7.9000 3894.00 3925.82 62.00
389 7.9100 3893.00 3929.28 62.00
390 7.9200 3850.00 3932.81 62.00
391 7.9300 3865.00 3936.41 62.00
392 7.9400 3882.00 3940.10 62.00
393 7.9500 3893.00 3943.88 62.00
394 7.9600 3922.00 3947.78 63.00
395 7.9700 3910.00 3951.79 63.00
396 7.9800 3881.00 3955.95 62.00
397 7.9900 3901.00 3960.27 62.00
398 8.0000 3884.00 3964.77 62.00
399 8.0100 3919.00 3969.48 63.00
400 8.0200 3906.00 3974.43 62.00
401 8.0300 3962.00 3979.68 63.00
402 8.0400 3914.00 3985.26 63.00
403 8.0500 3932.00 3991.23 63.00
404 8.0600 3949.00 3997.68 63.00
405 8.0700 3951.00 4004.70 63.00
406 8.0800 4015.00 4012.39 63.00
407 8.0900 3990.00 4020.93 63.00
408 8.1000 3969.00 4030.49 63.00
409 8.1100 4037.00 4041.33 64.00
410 8.1200 4063.00 4053.79 64.00
411 8.1300 4078.00 4068.33 64.00
412 8.1400 4110.00 4085.55 64.00
413 8.1500 4174.00 4106.34 65.00
414 8.1600 4169.00 4131.93 65.00
415 8.1700 4248.00 4164.16 65.00
416 8.1800 4273.00 4205.98 65.00
417 8.1900 4395.00 4263.13 66.00
418 8.2000 4595.00 4350.38 68.00
419 8.2100 4900.00 4511.65 70.00
420 8.2200 5349.00 4862.56 73.00
421 8.2300 6093.00 5634.62 78.00
422 8.2400 7346.00 7119.54 86.00
423 8.2500 9207.00 9408.24 96.00
424 8.2600 11338.00 11989.40 106.00
425 8.2700 12524.00 13507.50 112.00
426 8.2800 11872.00 12748.40 109.00
427 8.2900 10029.00 10397.40 100.00
428 8.3000 7964.00 7921.41 89.00
429 8.3100 6475.00 6134.54 80.00
430 8.3200 5564.00 5128.29 75.00
431 8.3300 4960.00 4651.18 70.00
432 8.3400 4648.00 4438.22 68.00
433 8.3500 4448.00 4333.90 67.00
434 8.3600 4339.00 4272.45 66.00
435 8.3700 4221.00 4230.75 65.00
436 8.3800 4191.00 4200.45 65.00
437 8.3900 4149.00 4177.79 64.00
438 8.4000 4105.00 4160.57 64.00
439 8.4100 4105.00 4147.33 64.00
440 8.4200 4057.00 4137.09 64.00
441 8.4300 4062.00 4129.14 64.00
442 8.4400 4054.00 4122.96 64.00
443 8.4500 4089.00 4118.19 64.00
444 8.4600 4029.00 4114.53 63.00
445 8.4700 4043.00 4134.74 64.00
446 8.4800 4004.00 4133.08 63.00
447 8.4900 4022.00 4132.05 63.00
448 8.5000 4040.00 4131.52 64.00
449 8.5100 4045.00 4131.43 64.00
450 8.5200 4001.00 4131.71 63.00
451 8.5300 4017.00 4132.29 63.00
452 8.5400 4020.00 4132.22 63.00
453 8.5500 4008.00 4133.33 63.00
454 8.5600 4042.00 4134.63 64.00
455 8.5700 4060.00 4136.11 64.00
456 8.5800 3998.00 4147.25 63.00
457 8.5900 4007.00 4149.18 63.00
458 8.6000 4039.00 4151.24 64.00
459 8.6100 4050.00 4153.42 64.00
460 8.6200 4041.00 4155.71 64.00
461 8.6300 4037.00 4158.08 64.00
462 8.6400 4041.00 4160.55 64.00
463 8.6500 4033.00 4163.10 64.00
464 8.6600 4077.00 4165.72 64.00
465 8.6700 4048.00 4168.41 64.00
466 8.6800 4076.00 4171.17 64.00
467 8.6900 4084.00 4174.00 64.00
468 8.7000 4047.00 4176.88 64.00
469 8.7100 4037.00 4179.82 64.00
470 8.7200 4056.00 4182.81 64.00
471 8.7300 4096.00 4185.86 64.00
472 8.7400 4106.00 4188.96 64.00
473 8.7500 4085.00 4192.11 64.00
474 8.7600 4091.00 4195.31 64.00
475 8.7700 4082.00 4198.56 64.00
476 8.7800 4133.00 4201.86 64.00
477 8.7900 4131.00 4205.21 64.00
478 8.8000 4136.00 4208.60 64.00
479 8.8100 4135.00 4212.05 64.00
480 8.8200 4119.00 4215.55 64.00
481 8.8300 4125.00 4219.09 64.00
482 8.8400 4127.00 4222.69 64.00
483 8.8500 4103.00 4226.34 64.00
484 8.8600 4140.00 4227.98 64.00
485 8.8700 4143.00 4229.67 64.00
486 8.8800 4120.00 4231.41 64.00
487 8.8900 4156.00 4233.22 64.00
488 8.9000 4165.00 4235.09 65.00
489 8.9100 4131.00 4237.01 64.00
490 8.9200 4175.00 4239.01 65.00
491 8.9300 4194.00 4241.07 65.00
492 8.9400 4155.00 4243.20 64.00
493 8.9500 4175.00 4245.41 65.00
494 8.9600 4148.00 4247.69 64.00
495 8.9700 4163.00 4250.05 65.00
496 8.9800 4198.00 4252.50 65.00
497 8.9900 4192.00 4255.03 65.00
498 9.0000 4196.00 4257.66 65.00
499 9.0100 4201.00 4260.38 65.00
500 9.0200 4227.00 4263.21 65.00
501 9.0300 4237.00 4266.15 65.00
502 9.0400 4279.00 4269.20 65.00
503 9.0500 4309.00 4272.37 66.00
504 9.0600 4291.00 4275.66 66.00
505 9.0700 4303.00 4279.10 66.00
506 9.0800 4315.00 4282.67 66.00
507 9.0900 4299.00 4286.40 66.00
508 9.1000 4358.00 4290.29 66.00
509 9.1100 4356.00 4294.35 66.00
510 9.1200 4354.00 4298.60 66.00
511 9.1300 4357.00 4303.04 66.00
512 9.1400 4383.00 4307.69 66.00
513 9.1500 4356.00 4312.57 66.00
514 9.1600 4426.00 4317.69 67.00
515 9.1700 4416.00 4323.06 66.00
516 9.1800 4425.00 4328.72 67.00
517 9.1900 4440.00 4334.67 67.00
518 9.2000 4456.00 4340.96 67.00
519 9.2100 4467.00 4347.59 67.00
520 9.2200 4531.00 4354.61 67.00
521 9.2300 4521.00 4362.05 67.00
522 9.2400 4496.00 4369.95 67.00
523 9.2500 4559.00 4378.36 68.00
524 9.2600 4564.00 4387.33 68.00
525 9.2700 4596.00 4396.92 68.00
526 9.2800 4678.00 4407.22 68.00
527 9.2900 4638.00 4418.31 68.00
528 9.3000 4654.00 4430.31 68.00
529 9.3100 4697.00 4443.36 69.00
530 9.3200 4756.00 4457.67 69.00
531 9.3300 4786.00 4473.49 69.00
532 9.3400 4797.00 4491.21 69.00
533 9.3500 4879.00 4511.38 70.00
534 9.3600 4873.00 4535.06 70.00
535 9.3700 4945.00 4565.21 70.00
536 9.3800 5035.00 4612.72 71.00
537 9.3900 5169.00 4712.37 72.00
538 9.4000 5376.00 4937.26 73.00
539 9.4100 5747.00 5357.26 76.00
540 9.4200 6092.00 5906.87 78.00
541 9.4300 6336.00 6270.06 80.00
542 9.4400 6272.00 6111.42 79.00
543 9.4500 5886.00 5634.22 77.00
544 9.4600 5609.00 5216.81 75.00
545 9.4700 5507.00 4998.14 74.00
546 9.4800 5401.00 4934.36 73.00
547 9.4900 5389.00 4945.21 73.00
548 9.5000 5446.00 4985.28 74.00
549 9.5100 5462.00 5039.56 74.00
550 9.5200 5563.00 5104.97 75.00
551 9.5300 5606.00 5181.72 75.00
552 9.5400 5609.00 5271.06 75.00
553 9.5500 5750.00 5374.96 76.00
554 9.5600 5839.00 5496.09 76.00
555 9.5700 5966.00 5638.01 77.00
556 9.5800 6174.00 5805.39 79.00
557 9.5900 6327.00 6004.48 80.00
558 9.6000 6530.00 6243.61 81.00
559 9.6100 6798.00 6534.14 82.00
560 9.6200 7126.00 6891.73 84.00
561 9.6300 7474.00 7338.73 86.00
562 9.6400 8038.00 7907.44 90.00
563 9.6500 8766.00 8646.26 94.00
564 9.6600 9831.00 9631.50 99.00
565 9.6700 11617.00 11002.90 108.00
566 9.6800 14639.00 13117.40 121.00
567 9.6900 20247.00 17186.80 142.00
568 9.7000 31639.00 27054.70 178.00
569 9.7100 54294.00 51456.80 233.00
570 9.7200 97858.00 101416.00 313.00
571 9.7300 170531.00 176440.00 413.00
572 9.7400 246731.00 245761.00 497.00
573 9.7500 261578.00 252637.00 511.00
574 9.7600 200100.00 192357.00 447.00
575 9.7700 124180.00 124538.00 352.00
576 9.7800 86932.00 90601.20 295.00
577 9.7900 93975.00 96218.30 307.00
578 9.8000 116920.00 119498.00 342.00
579 9.8100 121759.00 124259.00 349.00
580 9.8200 98632.00 96193.30 314.00
581 9.8300 60856.00 58876.90 247.00
582 9.8400 31445.00 31796.40 177.00
583 9.8500 17786.00 17972.10 133.00
584 9.8600 11769.00 12299.10 108.00
585 9.8700 8989.00 9962.20 95.00
586 9.8800 7682.00 8736.54 88.00
587 9.8900 6952.00 7924.75 83.00
588 9.9000 6457.00 7330.16 80.00
589 9.9100 6166.00 6878.49 79.00
590 9.9200 5926.00 6526.89 77.00
591 9.9300 5736.00 6243.51 76.00
592 9.9400 5601.00 6003.55 75.00
593 9.9500 5516.00 5795.85 74.00
594 9.9600 5400.00 5618.57 73.00
595 9.9700 5321.00 5469.42 73.00
596 9.9800 5222.00 5344.26 72.00
597 9.9900 5175.00 5238.30 72.00
598 10.0000 5119.00 5147.33 72.00
599 10.0100 5074.00 5068.24 71.00
600 10.0200 4989.00 4998.84 71.00
601 10.0300 4968.00 4937.52 70.00
602 10.0400 4927.00 4883.04 70.00
603 10.0500 4886.00 4834.41 70.00
604 10.0600 4877.00 4790.80 70.00
605 10.0700 4818.00 4751.55 69.00
606 10.0800 4772.00 4716.08 69.00
607 10.0900 4765.00 4683.92 69.00
608 10.1000 4721.00 4654.68 69.00
609 10.1100 4725.00 4628.00 69.00
610 10.1200 4733.00 4603.59 69.00
611 10.1300 4709.00 4581.21 69.00
612 10.1400 4686.00 4560.62 68.00
613 10.1500 4691.00 4541.66 68.00
614 10.1600 4680.00 4524.14 68.00
615 10.1700 4636.00 4507.93 68.00
616 10.1800 4649.00 4492.90 68.00
617 10.1900 4630.00 4478.93 68.00
618 10.2000 4580.00 4465.93 68.00
619 10.2100 4605.00 4453.81 68.00
620 10.2200 4563.00 4442.50 68.00
621 10.2300 4537.00 4431.91 67.00
622 10.2400 4567.00 4422.01 68.00
623 10.2500 4546.00 4412.71 67.00
624 10.2600 4513.00 4403.98 67.00
625 10.2700 4490.00 4395.78 67.00
626 10.2800 4499.00 4388.05 67.00
627 10.2900 4491.00 4380.77 67.00
628 10.3000 4496.00 4373.90 67.00
629 10.3100 4470.00 4367.42 67.00
630 10.3200 4431.00 4361.28 67.00
631 10.3300 4461.00 4355.47 67.00
632 10.3400 4432.00 4349.97 67.00
633 10.3500 4432.00 4344.76 67.00
634 10.3600 4456.00 4339.80 67.00
635 10.3700 4426.00 4335.10 67.00
636 10.3800 4413.00 4331.19 66.00
637 10.3900 4386.00 4326.94 66.00
638 10.4000 4383.00 4322.90 66.00
639 10.4100 4360.00 4319.06 66.00
640 10.4200 4409.00 4315.39 66.00
641 10.4300 4404.00 4311.90 66.00
642 10.4400 4383.00 4308.57 66.00
643 10.4500 4377.00 4305.39 66.00
644 10.4600 4354.00 4302.36 66.00
645 10.4700 4349.00 4299.47 66.00
646 10.4800 4376.00 4296.72 66.00
647 10.4900 4372.00 4294.10 66.00
648 10.5000 4321.00 4291.61 66.00
649 10.5100 4362.00 4289.24 66.00
650 10.5200 4328.00 4287.01 66.00
651 10.5300 4334.00 4284.92 66.00
652 10.5400 4336.00 4291.54 66.00
653 10.5500 4326.00 4289.90 66.00
654 10.5600 4295.00 4288.51 66.00
655 10.5700 4304.00 4287.57 66.00
656 10.5800 4286.00 4287.68 65.00
657 10.5900 4299.00 4290.37 66.00
658 10.6000 4316.00 4298.23 66.00
659 10.6100 4291.00 4313.20 66.00
660 10.6200 4251.00 4332.83 65.00
661 10.6300 4269.00 4346.49 65.00
662 10.6400 4282.00 4340.80 65.00
663 10.6500 4260.00 4320.14 65.00
664 10.6600 4263.00 4298.72 65.00
665 10.6700 4251.00 4283.86 65.00
666 10.6800 4217.00 4275.60 65.00
667 10.6900 4227.00 4271.37 65.00
668 10.7000 4240.00 4268.95 65.00
669 10.7100 4222.00 4267.22 65.00
670 10.7200 4273.00 4265.78 65.00
671 10.7300 4254.00 4264.52 65.00
672 10.7400 4237.00 4263.38 65.00
673 10.7500 4222.00 4262.33 65.00
674 10.7600 4219.00 4261.36 65.00
675 10.7700 4191.00 4260.45 65.00
676 10.7800 4250.00 4259.60 65.00
677 10.7900 4231.00 4258.80 65.00
678 10.8000 4204.00 4258.04 65.00
679 10.8100 4186.00 4257.33 65.00
680 10.8200 4190.00 4256.65 65.00
681 10.8300 4199.00 4256.01 65.00
682 10.8400 4247.00 4255.41 65.00
683 10.8500 4212.00 4254.84 65.00
684 10.8600 4244.00 4254.30 65.00
685 10.8700 4229.00 4253.80 65.00
686 10.8800 4231.00 4253.32 65.00
687 10.8900 4224.00 4252.88 65.00
688 10.9000 4217.00 4252.46 65.00
689 10.9100 4205.00 4252.07 65.00
690 10.9200 4181.00 4251.71 65.00
691 10.9300 4172.00 4251.37 65.00
692 10.9400 4182.00 4251.06 65.00
693 10.9500 4171.00 4250.78 65.00
694 10.9600 4195.00 4250.52 65.00
695 10.9700 4155.00 4250.29 64.00
696 10.9800 4145.00 4250.09 64.00
697 10.9900 4182.00 4249.91 65.00
698 11.0000 4187.00 4249.76 65.00
699 11.0100 4195.00 4249.95 65.00
700 11.0200 4205.00 4250.16 65.00
701 11.0300 4231.00 4227.75 65.00
702 11.0400 4179.00 4228.37 65.00
703 11.0500 4197.00 4219.75 65.00
704 11.0600 4167.00 4220.54 65.00
705 11.0700 4150.00 4221.36 64.00
706 11.0800 4142.00 4222.19 64.00
707 11.0900 4173.00 4223.05 65.00
708 11.1000 4160.00 4223.92 64.00
709 11.1100 4161.00 4224.81 65.00
710 11.1200 4149.00 4225.72 64.00
711 11.1300 4165.00 4226.65 65.00
712 11.1400 4173.00 4227.61 65.00
713 11.1500 4180.00 4228.59 65.00
714 11.1600 4136.00 4229.60 64.00
715 11.1700 4149.00 4230.63 64.00
716 11.1800 4127.00 4231.69 64.00
717 11.1900 4152.00 4232.78 64.00
718 11.2000 4155.00 4233.90 64.00
719 11.2100 4143.00 4235.06 64.00
720 11.2200 4116.00 4236.25 64.00
721 11.2300 4140.00 4237.48 64.00
722 11.2400 4161.00 4241.83 65.00
723 11.2500 4155.00 4243.17 64.00
724 11.2600 4168.00 4244.55 65.00
725 11.2700 4181.00 4245.98 65.00
726 11.2800 4126.00 4247.46 64.00
727 11.2900 4132.00 4248.99 64.00
728 11.3000 4155.00 4250.58 64.00
729 11.3100 4163.00 4252.23 65.00
730 11.3200 4197.00 4256.96 65.00
731 11.3300 4148.00 4258.77 64.00
732 11.3400 4128.00 4260.65 64.00
733 11.3500 4137.00 4262.60 64.00
734 11.3600 4165.00 4264.64 65.00
735 11.3700 4182.00 4266.77 65.00
736 11.3800 4210.00 4268.99 65.00
737 11.3900 4223.00 4271.31 65.00
738 11.4000 4166.00 4273.74 65.00
739 11.4100 4160.00 4276.29 64.00
740 11.4200 4179.00 4278.96 65.00
741 11.4300 4189.00 4281.76 65.00
742 11.4400 4164.00 4284.72 65.00
743 11.4500 4169.00 4287.83 65.00
744 11.4600 4118.00 4291.11 64.00
745 11.4700 4164.00 4294.57 65.00
746 11.4800 4187.00 4298.23 65.00
747 11.4900 4198.00 4302.11 65.00
748 11.5000 4229.00 4306.23 65.00
749 11.5100 4230.00 4310.61 65.00
750 11.5200 4204.00 4315.27 65.00
751 11.5300 4206.00 4320.24 65.00
752 11.5400 4192.00 4325.60 65.00
753 11.5500 4246.00 4331.29 65.00
754 11.5600 4260.00 4337.39 65.00
755 11.5700 4219.00 4343.95 65.00
756 11.5800 4241.00 4351.02 65.00
757 11.5900 4270.00 4358.66 65.00
758 11.6000 4273.00 4366.94 65.00
759 11.6100 4282.00 4375.92 65.00
760 11.6200 4272.00 4385.71 65.00
761 11.6300 4298.00 4396.41 66.00
762 11.6400 4271.00 4408.13 65.00
763 11.6500 4305.00 4421.02 66.00
764 11.6600 4335.00 4435.26 66.00
765 11.6700 4329.00 4451.05 66.00
766 11.6800 4397.00 4468.64 66.00
767 11.6900 4410.00 4488.33 66.00
768 11.7000 4419.00 4510.49 66.00
769 11.7100 4445.00 4535.58 67.00
770 11.7200 4452.00 4564.19 67.00
771 11.7300 4511.00 4597.07 67.00
772 11.7400 4580.00 4635.17 68.00
773 11.7500 4621.00 4679.80 68.00
774 11.7600 4648.00 4732.72 68.00
775 11.7700 4736.00 4796.48 69.00
776 11.7800 4816.00 4875.31 69.00
777 11.7900 4944.00 4978.04 70.00
778 11.8000 5144.00 5126.66 72.00
779 11.8100 5419.00 5373.86 74.00
780 11.8200 5874.00 5820.83 77.00
781 11.8300 6583.00 6598.59 81.00
782 11.8400 7609.00 7771.85 87.00
783 11.8500 8783.00 9175.96 94.00
784 11.8600 9712.00 10260.70 99.00
785 11.8700 9909.00 10362.70 100.00
786 11.8800 9490.00 9686.76 97.00
787 11.8900 9213.00 9028.26 96.00
788 11.9000 9558.00 8978.38 98.00
789 11.9100 11118.00 10077.70 105.00
790 11.9200 14722.00 13355.90 121.00
791 11.9300 21750.00 20694.10 147.00
792 11.9400 34025.00 34076.60 184.00
793 11.9500 52744.00 53158.00 230.00
794 11.9600 71651.00 71960.60 268.00
795 11.9700 78225.00 77907.30 280.00
796 11.9800 66520.00 65315.00 258.00
797 11.9900 45040.00 45158.10 212.00
798 12.0000 26907.00 27916.80 164.00
799 12.0100 16515.00 16957.80 129.00
800 12.0200 11098.00 11287.30 105.00
801 12.0300 8346.00 8659.50 91.00
802 12.0400 6926.00 7397.00 83.00
803 12.0500 6116.00 6682.33 78.00
804 12.0600 5614.00 6206.85 75.00
805 12.0700 5297.00 5861.22 73.00
806 12.0800 5131.00 5599.36 72.00
807 12.0900 4967.00 5396.00 70.00
808 12.1000 4873.00 5235.06 70.00
809 12.1100 4796.00 5105.73 69.00
810 12.1200 4709.00 5000.17 69.00
811 12.1300 4658.00 4912.99 68.00
812 12.1400 4625.00 4840.21 68.00
813 12.1500 4579.00 4778.86 68.00
814 12.1600 4599.00 4726.69 68.00
815 12.1700 4571.00 4681.98 68.00
816 12.1800 4525.00 4643.39 67.00
817 12.1900 4479.00 4609.87 67.00
818 12.2000 4463.00 4580.60 67.00
819 12.2100 4426.00 4554.88 67.00
820 12.2200 4423.00 4532.20 67.00
821 12.2300 4418.00 4512.10 66.00
822 12.2400 4386.00 4494.22 66.00
823 12.2500 4373.00 4478.25 66.00
824 12.2600 4391.00 4463.95 66.00
825 12.2700 4387.00 4451.10 66.00
826 12.2800 4388.00 4439.53 66.00
827 12.2900 4368.00 4429.08 66.00
828 12.3000 4337.00 4419.62 66.00
829 12.3100 4339.00 4411.05 66.00
830 12.3200 4327.00 4403.26 66.00
831 12.3300 4324.00 4396.18 66.00
832 12.3400 4325.00 4389.73 66.00
833 12.3500 4361.00 4383.85 66.00
834 12.3600 4335.00 4378.48 66.00
835 12.3700 4337.00 4373.59 66.00
836 12.3800 4345.00 4369.12 66.00
837 12.3900 4350.00 4365.03 66.00
838 12.4000 4332.00 4361.31 66.00
839 12.4100 4355.00 4357.91 66.00
840 12.4200 4300.00 4355.70 66.00
841 12.4300 4307.00 4352.89 66.00
842 12.4400 4309.00 4350.34 66.00
843 12.4500 4311.00 4348.03 66.00
844 12.4600 4313.00 4345.94 66.00
845 12.4700 4331.00 4344.06 66.00
846 12.4800 4310.00 4342.38 66.00
847 12.4900 4339.00 4340.88 66.00
848 12.5000 4311.00 4339.56 66.00
849 12.5100 4297.00 4338.40 66.00
850 12.5200 4288.00 4337.40 65.00
851 12.5300 4303.00 4336.55 66.00
852 12.5400 4265.00 4335.84 65.00
853 12.5500 4296.00 4335.27 66.00
854 12.5600 4281.00 4334.83 65.00
855 12.5700 4294.00 4334.53 66.00
856 12.5800 4296.00 4334.35 66.00
857 12.5900 4300.00 4334.29 66.00
858 12.6000 4270.00 4334.35 65.00
859 12.6100 4291.00 4334.53 66.00
860 12.6200 4300.00 4334.83 66.00
861 12.6300 4291.00 4335.25 66.00
862 12.6400 4310.00 4335.78 66.00
863 12.6500 4308.00 4336.42 66.00
864 12.6600 4288.00 4337.19 65.00
865 12.6700 4275.00 4338.07 65.00
866 12.6800 4282.00 4339.21 65.00
867 12.6900 4310.00 4340.48 66.00
868 12.7000 4327.00 4341.87 66.00
869 12.7100 4322.00 4343.38 66.00
870 12.7200 4310.00 4345.03 66.00
871 12.7300 4324.00 4346.81 66.00
872 12.7400 4291.00 4348.73 66.00
873 12.7500 4315.00 4350.79 66.00
874 12.7600 4346.00 4353.01 66.00
875 12.7700 4311.00 4355.38 66.00
876 12.7800 4279.00 4357.91 65.00
877 12.7900 4343.00 4360.62 66.00
878 12.8000 4322.00 4363.52 66.00
879 12.8100 4368.00 4366.60 66.00
880 12.8200 4341.00 4369.89 66.00
881 12.8300 4356.00 4373.40 66.00
882 12.8400 4325.00 4377.15 66.00
883 12.8500 4360.00 4381.14 66.00
884 12.8600 4374.00 4385.39 66.00
885 12.8700 4380.00 4389.94 66.00
886 12.8800 4396.00 4394.79 66.00
887 12.8900 4398.00 4399.98 66.00
888 12.9000 4376.00 4405.52 66.00
889 12.9100 4379.00 4411.46 66.00
890 12.9200 4402.00 4417.82 66.00
891 12.9300 4402.00 4424.65 66.00
892 12.9400 4417.00 4431.98 66.00
893 12.9500 4419.00 4439.87 66.00
894 12.9600 4423.00 4448.36 67.00
895 12.9700 4462.00 4457.53 67.00
896 12.9800 4434.00 4467.45 67.00
897 12.9900 4458.00 4478.18 67.00
898 13.0000 4480.00 4489.84 67.00
899 13.0100 4455.00 4502.51 67.00
900 13.0200 4456.00 4516.33 67.00
901 13.0300 4481.00 4531.43 67.00
902 13.0400 4525.00 4547.97 67.00
903 13.0500 4516.00 4566.16 67.00
904 13.0600 4551.00 4586.20 67.00
905 13.0700 4589.00 4608.36 68.00
906 13.0800 4547.00 4632.96 67.00
907 13.0900 4574.00 4660.36 68.00
908 13.1000 4598.00 4691.00 68.00
909 13.1100 4616.00 4725.41 68.00
910 13.1200 4672.00 4764.24 68.00
911 13.1300 4714.00 4808.29 69.00
912 13.1400 4736.00 4858.54 69.00
913 13.1500 4787.00 4916.18 69.00
914 13.1600 4845.00 4982.74 70.00
915 13.1700 4912.00 5060.17 70.00
916 13.1800 4995.00 5150.94 71.00
917 13.1900 5107.00 5258.29 71.00
918 13.2000 5191.00 5386.56 72.00
919 13.2100 5381.00 5541.86 73.00
920 13.2200 5536.00 5733.49 74.00
921 13.2300 5810.00 5977.38 76.00
922 13.2400 6188.00 6303.49 79.00
923 13.2500 6726.00 6770.49 82.00
924 13.2600 7457.00 7488.73 86.00
925 13.2700 8630.00 8647.42 93.00
926 13.2800 10486.00 10529.60 102.00
927 13.2900 13349.00 13488.20 116.00
928 13.3000 17837.00 17858.60 134.00
929 13.3100 24270.00 23794.70 156.00
930 13.3200 32135.00 31021.70 179.00
931 13.3300 39984.00 38517.40 200.00
932 13.3400 44696.00 44490.40 211.00
933 13.3500 46208.00 47332.80 215.00
934 13.3600 45378.00 46472.50 213.00
935 13.3700 42334.00 41973.40 206.00
936 13.3800 35700.00 34894.40 189.00
937 13.3900 27667.00 27203.10 166.00
938 13.4000 19956.00 20441.60 141.00
939 13.4100 14467.00 15242.90 120.00
940 13.4200 11030.00 11638.10 105.00
941 13.4300 8907.00 9320.21 94.00
942 13.4400 7570.00 7900.63 87.00
943 13.4500 6727.00 7038.82 82.00
944 13.4600 6266.00 6495.75 79.00
945 13.4700 5887.00 6128.88 77.00
946 13.4800 5694.00 5862.36 75.00
947 13.4900 5558.00 5658.34 75.00
948 13.5000 5423.00 5497.99 74.00
949 13.5100 5333.00 5371.98 73.00
950 13.5200 5322.00 5276.24 73.00
951 13.5300 5286.00 5210.20 73.00
952 13.5400 5303.00 5175.44 73.00
953 13.5500 5246.00 5173.85 72.00
954 13.5600 5172.00 5205.94 72.00
955 13.5700 5147.00 5269.82 72.00
956 13.5800 5089.00 5359.10 71.00
957 13.5900 5126.00 5460.78 72.00
958 13.6000 5157.00 5562.45 72.00
959 13.6100 5200.00 5646.86 72.00
960 13.6200 5183.00 5648.72 72.00
961 13.6300 5241.00 5493.74 72.00
962 13.6400 5110.00 5240.56 71.00
963 13.6500 4981.00 5000.25 71.00
964 13.6600 4904.00 4824.23 70.00
965 13.6700 4839.00 4714.29 70.00
966 13.6800 4753.00 4650.82 69.00
967 13.6900 4739.00 4613.16 69.00
968 13.7000 4678.00 4588.14 68.00
969 13.7100 4685.00 4569.49 68.00
970 13.7200 4679.00 4554.61 68.00
971 13.7300 4657.00 4542.44 68.00
972 13.7400 4611.00 4532.43 68.00
973 13.7500 4616.00 4524.26 68.00
974 13.7600 4615.00 4517.72 68.00
975 13.7700 4663.00 4512.71 68.00
976 13.7800 4654.00 4509.17 68.00
977 13.7900 4649.00 4507.10 68.00
978 13.8000 4647.00 4506.57 68.00
979 13.8100 4633.00 4507.71 68.00
980 13.8200 4632.00 4510.74 68.00
981 13.8300 4641.00 4515.96 68.00
982 13.8400 4688.00 4523.83 68.00
983 13.8500 4724.00 4535.00 69.00
984 13.8600 4694.00 4550.42 69.00
985 13.8700 4769.00 4571.48 69.00
986 13.8800 4840.00 4600.41 70.00
987 13.8900 4908.00 4641.36 70.00
988 13.9000 5086.00 4710.64 71.00
989 13.9100 5272.00 4818.85 73.00
990 13.9200 5479.00 5029.50 74.00
991 13.9300 5985.00 5449.32 77.00
992 13.9400 6710.00 6217.80 82.00
993 13.9500 7774.00 7416.92 88.00
994 13.9600 9038.00 8910.71 95.00
995 13.9700 9984.00 10151.20 100.00
996 13.9800 9960.00 10275.90 100.00
997 13.9900 9081.00 9172.65 95.00
998 14.0000 7780.00 7667.15 88.00
999 14.0100 6577.00 6393.71 81.00
1000 14.0200 5872.00 5548.07 77.00
1001 14.0300 5381.00 5074.04 73.00
1002 14.0400 5118.00 4833.23 72.00
1003 14.0500 4932.00 4710.09 70.00
1004 14.0600 4846.00 4639.83 70.00
1005 14.0700 4751.00 4594.03 69.00
1006 14.0800 4734.00 4561.53 69.00
1007 14.0900 4684.00 4537.68 68.00
1008 14.1000 4668.00 4520.14 68.00
1009 14.1100 4648.00 4507.62 68.00
1010 14.1200 4624.00 4499.57 68.00
1011 14.1300 4618.00 4496.18 68.00
1012 14.1400 4643.00 4498.67 68.00
1013 14.1500 4688.00 4509.67 68.00
1014 14.1600 4640.00 4533.41 68.00
1015 14.1700 4691.00 4575.35 68.00
1016 14.1800 4769.00 4640.72 69.00
1017 14.1900 4849.00 4731.88 70.00
1018 14.2000 5014.00 4844.05 71.00
1019 14.2100 5090.00 4960.13 71.00
1020 14.2200 5136.00 5051.10 72.00
1021 14.2300 5162.00 5091.39 72.00
1022 14.2400 5146.00 5069.66 72.00
1023 14.2500 5047.00 4987.41 71.00
1024 14.2600 4967.00 4867.87 70.00
1025 14.2700 4832.00 4744.61 70.00
1026 14.2800 4689.00 4639.77 68.00
1027 14.2900 4693.00 4561.09 69.00
1028 14.3000 4605.00 4507.32 68.00
1029 14.3100 4572.00 4473.05 68.00
1030 14.3200 4562.00 4452.00 68.00
1031 14.3300 4565.00 4439.04 68.00
1032 14.3400 4561.00 4430.67 68.00
1033 14.3500 4529.00 4424.89 67.00
1034 14.3600 4525.00 4420.63 67.00
1035 14.3700 4517.00 4417.37 67.00
1036 14.3800 4561.00 4414.82 68.00
1037 14.3900 4558.00 4412.82 68.00
1038 14.4000 4516.00 4411.25 67.00
1039 14.4100 4557.00 4410.05 68.00
1040 14.4200 4542.00 4409.15 67.00
1041 14.4300 4561.00 4408.51 68.00
1042 14.4400 4573.00 4408.10 68.00
1043 14.4500 4559.00 4407.90 68.00
1044 14.4600 4537.00 4407.88 67.00
1045 14.4700 4541.00 4408.03 67.00
1046 14.4800 4536.00 4408.35 67.00
1047 14.4900 4546.00 4408.82 67.00
1048 14.5000 4569.00 4409.46 68.00
1049 14.5100 4565.00 4410.26 68.00
1050 14.5200 4537.00 4411.22 67.00
1051 14.5300 4552.00 4412.37 67.00
1052 14.5400 4578.00 4413.72 68.00
1053 14.5500 4577.00 4415.30 68.00
1054 14.5600 4569.00 4415.92 68.00
1055 14.5700 4603.00 4416.85 68.00
1056 14.5800 4592.00 4418.14 68.00
1057 14.5900 4590.00 4419.89 68.00
1058 14.6000 4598.00 4428.29 68.00
1059 14.6100 4597.00 4431.39 68.00
1060 14.6200 4618.00 4435.46 68.00
1061 14.6300 4622.00 4440.83 68.00
1062 14.6400 4617.00 4448.05 68.00
1063 14.6500 4629.00 4458.01 68.00
1064 14.6600 4656.00 4472.59 68.00
1065 14.6700 4709.00 4497.12 69.00
1066 14.6800 4783.00 4547.26 69.00
1067 14.6900 4868.00 4660.96 70.00
1068 14.7000 5081.00 4899.96 71.00
1069 14.7100 5472.00 5309.98 74.00
1070 14.7200 6011.00 5829.84 78.00
1071 14.7300 6213.00 6195.04 79.00
1072 14.7400 6173.00 6073.34 79.00
1073 14.7500 5769.00 5590.84 76.00
1074 14.7600 5231.00 5103.09 72.00
1075 14.7700 4936.00 4773.32 70.00
1076 14.7800 4776.00 4600.57 69.00
1077 14.7900 4697.00 4523.20 69.00
1078 14.8000 4695.00 4488.60 69.00
1079 14.8100 4710.00 4470.48 69.00
1080 14.8200 4648.00 4459.21 68.00
1081 14.8300 4668.00 4451.53 68.00
1082 14.8400 4689.00 4446.18 68.00
1083 14.8500 4659.00 4442.46 68.00
1084 14.8600 4698.00 4439.96 69.00
1085 14.8700 4686.00 4438.40 68.00
1086 14.8800 4678.00 4437.59 68.00
1087 14.8900 4685.00 4437.40 68.00
1088 14.9000 4719.00 4437.77 69.00
1089 14.9100 4684.00 4438.63 68.00
1090 14.9200 4758.00 4439.96 69.00
1091 14.9300 4755.00 4441.75 69.00
1092 14.9400 4718.00 4444.00 69.00
1093 14.9500 4758.00 4446.75 69.00
1094 14.9600 4787.00 4450.03 69.00
1095 14.9700 4788.00 4453.91 69.00
1096 14.9800 4809.00 4458.48 69.00
1097 14.9900 4807.00 4463.86 69.00
1098 15.0000 4784.00 4470.22 69.00
1099 15.0100 4822.00 4477.80 69.00
1100 15.0200 4843.00 4486.95 70.00
1101 15.0300 4872.00 4498.26 70.00
1102 15.0400 4927.00 4512.81 70.00
1103 15.0500 4950.00 4532.91 70.00
1104 15.0600 4982.00 4563.39 71.00
1105 15.0700 5094.00 4613.42 71.00
1106 15.0800 5171.00 4697.69 72.00
1107 15.0900 5315.00 4834.44 73.00
1108 15.1000 5556.00 5038.09 75.00
1109 15.1100 5866.00 5305.08 77.00
1110 15.1200 6110.00 5593.58 78.00
1111 15.1300 6187.00 5810.69 79.00
1112 15.1400 6028.00 5862.97 78.00
1113 15.1500 5746.00 5734.06 76.00
1114 15.1600 5548.00 5486.41 74.00
1115 15.1700 5337.00 5221.02 73.00
1116 15.1800 5232.00 5007.73 72.00
1117 15.1900 5170.00 4869.05 72.00
1118 15.2000 5157.00 4800.47 72.00
1119 15.2100 5184.00 4788.86 72.00
1120 15.2200 5207.00 4822.71 72.00
1121 15.2300 5227.00 4894.22 72.00
1122 15.2400 5199.00 4995.49 72.00
1123 15.2500 5221.00 5112.23 72.00
1124 15.2600 5206.00 5216.96 72.00
1125 15.2700 5116.00 5271.64 72.00
1126 15.2800 5174.00 5257.59 72.00
1127 15.2900 5181.00 5198.38 72.00
1128 15.3000 5147.00 5132.22 72.00
1129 15.3100 5169.00 5084.73 72.00
1130 15.3200 5236.00 5067.42 72.00
1131 15.3300 5280.00 5082.96 73.00
1132 15.3400 5333.00 5129.73 73.00
1133 15.3500 5425.00 5205.52 74.00
1134 15.3600 5463.00 5310.13 74.00
1135 15.3700 5615.00 5446.72 75.00
1136 15.3800 5760.00 5622.63 76.00
1137 15.3900 5996.00 5850.41 77.00
1138 15.4000 6333.00 6151.59 80.00
1139 15.4100 6851.00 6567.65 83.00
1140 15.4200 7587.00 7191.66 87.00
1141 15.4300 8905.00 8264.61 94.00
1142 15.4400 11031.00 10299.20 105.00
1143 15.4500 14975.00 14191.10 122.00
1144 15.4600 21576.00 21021.30 147.00
1145 15.4700 31879.00 31281.00 179.00
1146 15.4800 43946.00 43618.90 210.00
1147 15.4900 53452.00 53306.00 231.00
1148 15.5000 53500.00 53487.00 231.00
1149 15.5100 44036.00 44002.30 210.00
1150 15.5200 30909.00 31651.90 176.00
1151 15.5300 20222.00 21293.50 142.00
1152 15.5400 13493.00 14355.00 116.00
1153 15.5500 9979.00 10381.90 100.00
1154 15.5600 8009.00 8303.86 89.00
1155 15.5700 6887.00 7209.79 83.00
1156 15.5800 6273.00 6572.72 79.00
1157 15.5900 5852.00 6151.16 76.00
1158 15.6000 5569.00 5846.26 75.00
1159 15.6100 5416.00 5615.41 74.00
1160 15.6200 5292.00 5436.46 73.00
1161 15.6300 5179.00 5296.01 72.00
1162 15.6400 5152.00 5185.54 72.00
1163 15.6500 5084.00 5100.31 71.00
1164 15.6600 5022.00 5039.03 71.00
1165 15.6700 4996.00 5004.34 71.00
1166 15.6800 4987.00 5002.53 71.00
1167 15.6900 5014.00 5041.25 71.00
1168 15.7000 5075.00 5123.66 71.00
1169 15.7100 5131.00 5238.99 72.00
1170 15.7200 5183.00 5352.91 72.00
1171 15.7300 5286.00 5411.13 73.00
1172 15.7400 5377.00 5365.43 73.00
1173 15.7500 5346.00 5222.08 73.00
1174 15.7600 5223.00 5043.35 72.00
1175 15.7700 5088.00 4882.07 71.00
1176 15.7800 4911.00 4759.44 70.00
1177 15.7900 4860.00 4675.88 70.00
1178 15.8000 4837.00 4622.31 70.00
1179 15.8100 4806.00 4588.02 69.00
1180 15.8200 4795.00 4564.75 69.00
1181 15.8300 4782.00 4547.56 69.00
1182 15.8400 4721.00 4533.89 69.00
1183 15.8500 4737.00 4522.56 69.00
1184 15.8600 4729.00 4512.93 69.00
1185 15.8700 4714.00 4504.68 69.00
1186 15.8800 4711.00 4497.56 69.00
1187 15.8900 4724.00 4491.41 69.00
1188 15.9000 4653.00 4486.12 68.00
1189 15.9100 4660.00 4481.58 68.00
1190 15.9200 4674.00 4477.71 68.00
1191 15.9300 4670.00 4474.47 68.00
1192 15.9400 4663.00 4471.82 68.00
1193 15.9500 4692.00 4469.73 68.00
1194 15.9600 4614.00 4468.17 68.00
1195 15.9700 4656.00 4467.16 68.00
1196 15.9800 4621.00 4466.69 68.00
1197 15.9900 4628.00 4466.96 68.00
1198 16.0000 4647.00 4467.63 68.00
1199 16.0100 4680.00 4468.94 68.00
1200 16.0200 4650.00 4470.96 68.00
1201 16.0300 4671.00 4473.78 68.00
1202 16.0400 4664.00 4477.53 68.00
1203 16.0500 4636.00 4482.41 68.00
1204 16.0600 4688.00 4488.67 68.00
1205 16.0700 4725.00 4496.70 69.00
1206 16.0800 4719.00 4507.05 69.00
1207 16.0900 4748.00 4520.66 69.00
1208 16.1000 4772.00 4539.14 69.00
1209 16.1100 4815.00 4567.20 69.00
1210 16.1200 4914.00 4614.93 70.00
1211 16.1300 4993.00 4704.13 71.00
1212 16.1400 5162.00 4870.32 72.00
1213 16.1500 5459.00 5151.67 74.00
1214 16.1600 5834.00 5556.39 76.00
1215 16.1700 6209.00 6012.90 79.00
1216 16.1800 6470.00 6315.00 80.00
1217 16.1900 6350.00 6233.09 80.00
1218 16.2000 5999.00 5844.33 77.00
1219 16.2100 5614.00 5404.56 75.00
1220 16.2200 5321.00 5060.07 73.00
1221 16.2300 5094.00 4841.94 71.00
1222 16.2400 4954.00 4724.58 70.00
1223 16.2500 4868.00 4668.57 70.00
1224 16.2600 4748.00 4643.97 69.00
1225 16.2700 4785.00 4634.56 69.00
1226 16.2800 4751.00 4633.27 69.00
1227 16.2900 4758.00 4637.28 69.00
1228 16.3000 4769.00 4645.38 69.00
1229 16.3100 4777.00 4657.11 69.00
1230 16.3200 4748.00 4672.32 69.00
1231 16.3300 4774.00 4690.95 69.00
1232 16.3400 4769.00 4713.16 69.00
1233 16.3500 4782.00 4739.23 69.00
1234 16.3600 4800.00 4769.61 69.00
1235 16.3700 4848.00 4804.86 70.00
1236 16.3800 4876.00 4845.78 70.00
1237 16.3900 4916.00 4893.32 70.00
1238 16.4000 4950.00 4948.75 70.00
1239 16.4100 4979.00 5013.71 71.00
1240 16.4200 5080.00 5090.25 71.00
1241 16.4300 5165.00 5181.12 72.00
1242 16.4400 5212.00 5289.89 72.00
1243 16.4500 5383.00 5421.55 73.00
1244 16.4600 5517.00 5583.26 74.00
1245 16.4700 5722.00 5786.56 76.00
1246 16.4800 6075.00 6051.98 78.00
1247 16.4900 6447.00 6418.97 80.00
1248 16.5000 7065.00 6962.97 84.00
1249 16.5100 7965.00 7819.90 89.00
1250 16.5200 9323.00 9206.27 97.00
1251 16.5300 11405.00 11416.40 107.00
1252 16.5400 14768.00 14763.90 122.00
1253 16.5500 19512.00 19457.40 140.00
1254 16.5600 25527.00 25389.60 160.00
1255 16.5700 32115.00 31857.30 179.00
1256 16.5800 37211.00 37355.00 193.00
1257 16.5900 39411.00 40137.10 199.00
1258 16.6000 38709.00 39340.60 197.00
1259 16.6100 34708.00 35221.60 186.00
1260 16.6200 28532.00 29105.70 169.00
1261 16.6300 22086.00 22756.00 149.00
1262 16.6400 16603.00 17338.40 129.00
1263 16.6500 12626.00 13260.80 112.00
1264 16.6600 10090.00 10456.20 100.00
1265 16.6700 8426.00 8644.14 92.00
1266 16.6800 7307.00 7504.17 85.00
1267 16.6900 6541.00 6778.46 81.00
1268 16.7000 6084.00 6296.13 78.00
1269 16.7100 5714.00 5956.78 76.00
1270 16.7200 5460.00 5704.80 74.00
1271 16.7300 5285.00 5510.00 73.00
1272 16.7400 5104.00 5354.97 71.00
1273 16.7500 5030.00 5228.94 71.00
1274 16.7600 4891.00 5124.71 70.00
1275 16.7700 4832.00 5037.29 70.00
1276 16.7800 4815.00 4963.18 69.00
1277 16.7900 4760.00 4899.76 69.00
1278 16.8000 4706.00 4845.08 69.00
1279 16.8100 4665.00 4797.59 68.00
1280 16.8200 4650.00 4756.08 68.00
1281 16.8300 4608.00 4719.59 68.00
1282 16.8400 4571.00 4687.35 68.00
1283 16.8500 4582.00 4658.71 68.00
1284 16.8600 4524.00 4633.17 67.00
1285 16.8700 4551.00 4610.28 67.00
1286 16.8800 4501.00 4589.70 67.00
1287 16.8900 4509.00 4571.12 67.00
1288 16.9000 4485.00 4554.30 67.00
1289 16.9100 4503.00 4539.01 67.00
1290 16.9200 4467.00 4525.07 67.00
1291 16.9300 4472.00 4512.25 67.00
1292 16.9400 4421.00 4500.58 66.00
1293 16.9500 4436.00 4489.86 67.00
1294 16.9600 4433.00 4479.88 67.00
1295 16.9700 4444.00 4470.77 67.00
1296 16.9800 4382.00 4462.34 66.00
1297 16.9900 4391.00 4454.53 66.00
1298 17.0000 4386.00 4447.28 66.00
1299 17.0100 4362.00 4440.54 66.00
1300 17.0200 4386.00 4434.25 66.00
1301 17.0300 4386.00 4428.39 66.00
1302 17.0400 4355.00 4422.91 66.00
1303 17.0500 4306.00 4417.77 66.00
1304 17.0600 4320.00 4412.96 66.00
1305 17.0700 4330.00 4408.45 66.00
1306 17.0800 4325.00 4404.20 66.00
1307 17.0900 4359.00 4400.21 66.00
1308 17.1000 4323.00 4389.74 66.00
1309 17.1100 4317.00 4386.27 66.00
1310 17.1200 4283.00 4383.00 65.00
1311 17.1300 4292.00 4379.91 66.00
1312 17.1400 4334.00 4377.00 66.00
1313 17.1500 4321.00 4374.24 66.00
1314 17.1600 4289.00 4371.63 65.00
1315 17.1700 4296.00 4369.16 66.00
1316 17.1800 4266.00 4366.81 65.00
1317 17.1900 4282.00 4364.59 65.00
1318 17.2000 4315.00 4362.48 66.00
1319 17.2100 4299.00 4360.48 66.00
1320 17.2200 4252.00 4358.58 65.00
1321 17.2300 4272.00 4356.78 65.00
1322 17.2400 4277.00 4355.06 65.00
1323 17.2500 4268.00 4353.43 65.00
1324 17.2600 4301.00 4351.89 66.00
1325 17.2700 4270.00 4350.42 65.00
1326 17.2800 4249.00 4349.02 65.00
1327 17.2900 4254.00 4347.70 65.00
1328 17.3000 4255.00 4346.45 65.00
1329 17.3100 4238.00 4345.27 65.00
1330 17.3200 4236.00 4344.15 65.00
1331 17.3300 4272.00 4343.10 65.00
1332 17.3400 4206.00 4342.04 65.00
1333 17.3500 4222.00 4341.12 65.00
1334 17.3600 4200.00 4340.28 65.00
1335 17.3700 4192.00 4339.51 65.00
1336 17.3800 4201.00 4338.82 65.00
1337 17.3900 4242.00 4338.21 65.00
1338 17.4000 4194.00 4337.71 65.00
1339 17.4100 4189.00 4337.33 65.00
1340 17.4200 4174.00 4337.11 65.00
1341 17.4300 4213.00 4337.10 65.00
1342 17.4400 4229.00 4337.43 65.00
1343 17.4500 4207.00 4340.56 65.00
1344 17.4600 4183.00 4342.80 65.00
1345 17.4700 4200.00 4347.43 65.00
1346 17.4800 4159.00 4355.98 64.00
1347 17.4900 4181.00 4369.65 65.00
1348 17.5000 4165.00 4387.91 65.00
1349 17.5100 4192.00 4406.42 65.00
1350 17.5200 4196.00 4415.50 65.00
1351 17.5300 4186.00 4407.74 65.00
1352 17.5400 4175.00 4389.19 65.00
1353 17.5500 4201.00 4369.87 65.00
1354 17.5600 4205.00 4355.88 65.00
1355 17.5700 4189.00 4347.06 65.00
1356 17.5800 4178.00 4342.40 65.00
1357 17.5900 4196.00 4340.81 65.00
1358 17.6000 4201.00 4340.12 65.00
1359 17.6100 4174.00 4340.14 65.00
1360 17.6200 4217.00 4340.56 65.00
1361 17.6300 4200.00 4341.24 65.00
1362 17.6400 4167.00 4342.14 65.00
1363 17.6500 4164.00 4343.21 65.00
1364 17.6600 4180.00 4344.46 65.00
1365 17.6700 4177.00 4345.89 65.00
1366 17.6800 4193.00 4347.50 65.00
1367 17.6900 4215.00 4349.31 65.00
1368 17.7000 4167.00 4351.35 65.00
1369 17.7100 4177.00 4353.65 65.00
1370 17.7200 4191.00 4356.26 65.00
1371 17.7300 4165.00 4359.23 65.00
1372 17.7400 4188.00 4362.64 65.00
1373 17.7500 4204.00 4366.60 65.00
1374 17.7600 4160.00 4371.24 64.00
1375 17.7700 4199.00 4376.75 65.00
1376 17.7800 4186.00 4383.17 65.00
1377 17.7900 4200.00 4391.35 65.00
1378 17.8000 4241.00 4401.75 65.00
1379 17.8100 4267.00 4415.62 65.00
1380 17.8200 4307.00 4435.66 66.00
1381 17.8300 4331.00 4467.14 66.00
1382 17.8400 4417.00 4519.59 66.00
1383 17.8500 4468.00 4607.37 67.00
1384 17.8600 4657.00 4747.17 68.00
1385 17.8700 4808.00 4950.39 69.00
1386 17.8800 5060.00 5210.89 71.00
1387 17.8900 5369.00 5487.84 73.00
1388 17.9000 5627.00 5689.84 75.00
1389 17.9100 5711.00 5705.76 76.00
1390 17.9200 5515.00 5523.89 74.00
1391 17.9300 5209.00 5250.15 72.00
1392 17.9400 4861.00 4985.01 70.00
1393 17.9500 4626.00 4775.08 68.00
1394 17.9600 4471.00 4629.55 67.00
1395 17.9700 4380.00 4538.85 66.00
1396 17.9800 4286.00 4484.93 65.00
1397 17.9900 4272.00 4453.45 65.00
1398 18.0000 4244.00 4434.26 65.00
1399 18.0100 4231.00 4421.62 65.00
1400 18.0200 4209.00 4412.69 65.00
1401 18.0300 4225.00 4406.07 65.00
1402 18.0400 4240.00 4401.06 65.00
1403 18.0500 4236.00 4397.26 65.00
1404 18.0600 4178.00 4394.39 65.00
1405 18.0700 4253.00 4392.29 65.00
1406 18.0800 4221.00 4390.86 65.00
1407 18.0900 4220.00 4390.09 65.00
1408 18.1000 4251.00 4390.05 65.00
1409 18.1100 4269.00 4390.94 65.00
1410 18.1200 4261.00 4393.08 65.00
1411 18.1300 4288.00 4396.81 65.00
1412 18.1400 4266.00 4402.33 65.00
1413 18.1500 4270.00 4409.45 65.00
1414 18.1600 4309.00 4417.25 66.00
1415 18.1700 4269.00 4423.73 65.00
1416 18.1800 4238.00 4426.11 65.00
1417 18.1900 4259.00 4424.29 65.00
1418 18.2000 4243.00 4417.97 65.00
1419 18.2100 4205.00 4410.92 65.00
1420 18.2200 4226.00 4404.81 65.00
1421 18.2300 4223.00 4400.31 65.00
1422 18.2400 4194.00 4397.46 65.00
1423 18.2500 4199.00 4395.94 65.00
1424 18.2600 4224.00 4395.38 65.00
1425 18.2700 4223.00 4395.43 65.00
1426 18.2800 4191.00 4395.86 65.00
1427 18.2900 4226.00 4396.52 65.00
1428 18.3000 4199.00 4397.34 65.00
1429 18.3100 4184.00 4398.28 65.00
1430 18.3200 4195.00 4399.32 65.00
1431 18.3300 4185.00 4400.47 65.00
1432 18.3400 4224.00 4401.71 65.00
1433 18.3500 4216.00 4403.06 65.00
1434 18.3600 4188.00 4404.52 65.00
1435 18.3700 4214.00 4406.11 65.00
1436 18.3800 4216.00 4407.89 65.00
1437 18.3900 4238.00 4409.94 65.00
1438 18.4000 4233.00 4412.45 65.00
1439 18.4100 4236.00 4415.85 65.00
1440 18.4200 4232.00 4420.94 65.00
1441 18.4300 4239.00 4428.78 65.00
1442 18.4400 4246.00 4440.27 65.00
1443 18.4500 4251.00 4455.16 65.00
1444 18.4600 4292.00 4470.62 66.00
1445 18.4700 4314.00 4479.93 66.00
1446 18.4800 4291.00 4477.27 66.00
1447 18.4900 4309.00 4466.37 66.00
1448 18.5000 4257.00 4454.64 65.00
1449 18.5100 4261.00 4445.92 65.00
1450 18.5200 4281.00 4440.98 65.00
1451 18.5300 4287.00 4439.14 65.00
1452 18.5400 4247.00 4439.30 65.00
1453 18.5500 4253.00 4440.62 65.00
1454 18.5600 4269.00 4442.60 65.00
1455 18.5700 4290.00 4444.99 65.00
1456 18.5800 4294.00 4447.70 66.00
1457 18.5900 4310.00 4450.72 66.00
1458 18.6000 4303.00 4454.02 66.00
1459 18.6100 4316.00 4457.63 66.00
1460 18.6200 4333.00 4461.57 66.00
1461 18.6300 4339.00 4465.95 66.00
1462 18.6400 4366.00 4470.64 66.00
1463 18.6500 4383.00 4475.77 66.00
1464 18.6600 4375.00 4481.40 66.00
1465 18.6700 4405.00 4484.88 66.00
1466 18.6800 4365.00 4491.78 66.00
1467 18.6900 4362.00 4496.85 66.00
1468 18.7000 4382.00 4505.45 66.00
1469 18.7100 4389.00 4515.13 66.00
1470 18.7200 4354.00 4526.08 66.00
1471 18.7300 4381.00 4538.57 66.00
1472 18.7400 4406.00 4552.92 66.00
1473 18.7500 4416.00 4569.55 66.00
1474 18.7600 4478.00 4589.00 67.00
1475 18.7700 4505.00 4611.99 67.00
1476 18.7800 4459.00 4639.48 67.00
1477 18.7900 4528.00 4672.76 67.00
1478 18.8000 4563.00 4713.63 68.00
1479 18.8100 4588.00 4764.63 68.00
1480 18.8200 4654.00 4829.48 68.00
1481 18.8300 4716.00 4913.79 69.00
1482 18.8400 4793.00 5027.15 69.00
1483 18.8500 4981.00 5189.36 71.00
1484 18.8600 5208.00 5450.45 72.00
1485 18.8700 5717.00 5937.65 76.00
1486 18.8800 6554.00 6921.94 81.00
1487 18.8900 8202.00 8815.15 91.00
1488 18.9000 10940.00 11951.10 105.00
1489 18.9100 15079.00 16084.40 123.00
1490 18.9200 19190.00 19689.20 139.00
1491 18.9300 20574.00 20047.30 143.00
1492 18.9400 17899.00 16807.30 134.00
1493 18.9500 13207.00 12613.30 115.00
1494 18.9600 9110.00 9268.92 95.00
1495 18.9700 6962.00 7183.85 83.00
1496 18.9800 5825.00 6080.62 76.00
1497 18.9900 5288.00 5537.23 73.00
1498 19.0000 5026.00 5254.92 71.00
1499 19.0100 4887.00 5086.72 70.00
1500 19.0200 4775.00 4974.68 69.00
1501 19.0300 4751.00 4897.92 69.00
1502 19.0400 4732.00 4850.27 69.00
1503 19.0500 4727.00 4832.22 69.00
1504 19.0600 4774.00 4845.14 69.00
1505 19.0700 4823.00 4882.77 69.00
1506 19.0800 4812.00 4919.55 69.00
1507 19.0900 4825.00 4912.44 69.00
1508 19.1000 4784.00 4845.33 69.00
1509 19.1100 4696.00 4762.02 69.00
1510 19.1200 4658.00 4693.54 68.00
1511 19.1300 4655.00 4647.73 68.00
1512 19.1400 4617.00 4620.69 68.00
1513 19.1500 4554.00 4605.39 67.00
1514 19.1600 4544.00 4596.52 67.00
1515 19.1700 4554.00 4591.24 67.00
1516 19.1800 4562.00 4588.33 68.00
1517 19.1900 4548.00 4587.35 67.00
1518 19.2000 4521.00 4588.14 67.00
1519 19.2100 4523.00 4590.71 67.00
1520 19.2200 4557.00 4595.17 68.00
1521 19.2300 4576.00 4601.75 68.00
1522 19.2400 4586.00 4610.86 68.00
1523 19.2500 4598.00 4623.15 68.00
1524 19.2600 4609.00 4639.76 68.00
1525 19.2700 4641.00 4662.91 68.00
1526 19.2800 4702.00 4697.06 69.00
1527 19.2900 4766.00 4750.84 69.00
1528 19.3000 4846.00 4839.45 70.00
1529 19.3100 4994.00 4985.26 71.00
1530 19.3200 5131.00 5214.48 72.00
1531 19.3300 5489.00 5546.31 74.00
1532 19.3400 5859.00 5975.87 77.00
1533 19.3500 6310.00 6447.75 79.00
1534 19.3600 6702.00 6827.06 82.00
1535 19.3700 6816.00 6935.57 83.00
1536 19.3800 6555.00 6718.31 81.00
1537 19.3900 6165.00 6299.85 79.00
1538 19.4000 5724.00 5843.55 76.00
1539 19.4100 5389.00 5452.15 73.00
1540 19.4200 5163.00 5162.31 72.00
1541 19.4300 4995.00 4969.56 71.00
1542 19.4400 4820.00 4851.64 69.00
1543 19.4500 4782.00 4783.59 69.00
1544 19.4600 4681.00 4745.84 68.00
1545 19.4700 4700.00 4725.96 69.00
1546 19.4800 4732.00 4717.46 69.00
1547 19.4900 4745.00 4717.79 69.00
1548 19.5000 4703.00 4727.44 69.00
1549 19.5100 4751.00 4749.77 69.00
1550 19.5200 4725.00 4790.73 69.00
1551 19.5300 4793.00 4856.42 69.00
1552 19.5400 4858.00 4947.60 70.00
1553 19.5500 4999.00 5053.21 71.00
1554 19.5600 5025.00 5133.99 71.00
1555 19.5700 5090.00 5166.07 71.00
1556 19.5800 5101.00 5186.76 71.00
1557 19.5900 5115.00 5262.71 72.00
1558 19.6000 5283.00 5458.29 73.00
1559 19.6100 5599.00 5841.83 75.00
1560 19.6200 6164.00 6480.83 79.00
1561 19.6300 7102.00 7416.99 84.00
1562 19.6400 8307.00 8616.84 91.00
1563 19.6500 9622.00 9875.40 98.00
1564 19.6600 10838.00 10871.30 104.00
1565 19.6700 11784.00 11544.20 109.00
1566 19.6800 12094.00 11821.30 110.00
1567 19.6900 11493.00 11145.70 107.00
1568 19.7000 10116.00 9540.58 101.00
1569 19.7100 8307.00 7842.58 91.00
1570 19.7200 6687.00 6561.40 82.00
1571 19.7300 5754.00 5766.41 76.00
1572 19.7400 5224.00 5332.98 72.00
1573 19.7500 5041.00 5106.37 71.00
1574 19.7600 4857.00 4980.19 70.00
1575 19.7700 4799.00 4901.01 69.00
1576 19.7800 4760.00 4846.58 69.00
1577 19.7900 4760.00 4807.69 69.00
1578 19.8000 4702.00 4780.05 69.00
1579 19.8100 4705.00 4761.39 69.00
1580 19.8200 4705.00 4750.66 69.00
1581 19.8300 4682.00 4747.97 68.00
1582 19.8400 4722.00 4755.63 69.00
1583 19.8500 4775.00 4777.89 69.00
1584 19.8600 4776.00 4822.33 69.00
1585 19.8700 4848.00 4899.61 70.00
1586 19.8800 4983.00 5021.44 71.00
1587 19.8900 5115.00 5196.08 72.00
1588 19.9000 5389.00 5420.84 73.00
1589 19.9100 5637.00 5671.18 75.00
1590 19.9200 5769.00 5890.85 76.00
1591 19.9300 5945.00 6006.28 77.00
1592 19.9400 5886.00 5972.41 77.00
1593 19.9500 5737.00 5800.92 76.00
1594 19.9600 5538.00 5554.22 74.00
1595 19.9700 5249.00 5303.32 72.00
1596 19.9800 4998.00 5090.44 71.00
1597 19.9900 4849.00 4929.43 70.00
1598 20.0000 4756.00 4817.29 69.00
1599 20.0100 4698.00 4743.65 69.00
1600 20.0200 4700.00 4696.71 69.00
1601 20.0300 4623.00 4666.64 68.00
1602 20.0400 4631.00 4646.59 68.00
1603 20.0500 4595.00 4633.37 68.00
1604 20.0600 4563.00 4622.80 68.00
1605 20.0700 4607.00 4614.59 68.00
1606 20.0800 4598.00 4608.06 68.00
1607 20.0900 4607.00 4602.80 68.00
1608 20.1000 4568.00 4598.55 68.00
1609 20.1100 4585.00 4595.12 68.00
1610 20.1200 4576.00 4592.39 68.00
1611 20.1300 4599.00 4590.26 68.00
1612 20.1400 4587.00 4588.67 68.00
1613 20.1500 4606.00 4587.60 68.00
1614 20.1600 4575.00 4587.04 68.00
1615 20.1700 4611.00 4587.05 68.00
1616 20.1800 4593.00 4587.66 68.00
1617 20.1900 4587.00 4588.95 68.00
1618 20.2000 4582.00 4590.99 68.00
1619 20.2100 4591.00 4593.81 68.00
1620 20.2200 4559.00 4597.44 68.00
1621 20.2300 4602.00 4601.83 68.00
1622 20.2400 4618.00 4606.97 68.00
1623 20.2500 4586.00 4613.07 68.00
1624 20.2600 4639.00 4621.25 68.00
1625 20.2700 4637.00 4634.44 68.00
1626 20.2800 4589.00 4657.84 68.00
1627 20.2900 4649.00 4697.56 68.00
1628 20.3000 4669.00 4757.09 68.00
1629 20.3100 4730.00 4831.34 69.00
1630 20.3200 4776.00 4897.67 69.00
1631 20.3300 4793.00 4915.35 69.00
1632 20.3400 4752.00 4869.15 69.00
1633 20.3500 4715.00 4793.62 69.00
1634 20.3600 4691.00 4723.30 68.00
1635 20.3700 4662.00 4671.59 68.00
1636 20.3800 4679.00 4638.95 68.00
1637 20.3900 4686.00 4620.48 68.00
1638 20.4000 4623.00 4610.58 68.00
1639 20.4100 4645.00 4603.09 68.00
1640 20.4200 4652.00 4600.11 68.00
1641 20.4300 4624.00 4598.41 68.00
1642 20.4400 4671.00 4597.49 68.00
1643 20.4500 4696.00 4597.14 69.00
1644 20.4600 4674.00 4597.22 68.00
1645 20.4700 4677.00 4597.65 68.00
1646 20.4800 4672.00 4598.37 68.00
1647 20.4900 4644.00 4599.36 68.00
1648 20.5000 4705.00 4600.60 69.00
1649 20.5100 4697.00 4602.07 69.00
1650 20.5200 4674.00 4603.77 68.00
1651 20.5300 4665.00 4605.74 68.00
1652 20.5400 4704.00 4607.98 69.00
1653 20.5500 4713.00 4610.56 69.00
1654 20.5600 4737.00 4613.55 69.00
1655 20.5700 4727.00 4617.08 69.00
1656 20.5800 4686.00 4621.33 68.00
1657 20.5900 4733.00 4626.57 69.00
1658 20.6000 4732.00 4633.13 69.00
1659 20.6100 4769.00 4641.56 69.00
1660 20.6200 4778.00 4652.37 69.00
1661 20.6300 4822.00 4666.14 69.00
1662 20.6400 4782.00 4683.29 69.00
1663 20.6500 4824.00 4703.96 69.00
1664 20.6600 4794.00 4727.75 69.00
1665 20.6700 4838.00 4753.70 70.00
1666 20.6800 4872.00 4780.19 70.00
1667 20.6900 4878.00 4804.77 70.00
1668 20.7000 4831.00 4824.39 70.00
1669 20.7100 4843.00 4837.31 70.00
1670 20.7200 4864.00 4846.09 70.00
1671 20.7300 4862.00 4859.09 70.00
1672 20.7400 4932.00 4890.61 70.00
1673 20.7500 5033.00 4961.70 71.00
1674 20.7600 5142.00 5098.88 72.00
1675 20.7700 5369.00 5324.30 73.00
1676 20.7800 5625.00 5635.79 75.00
1677 20.7900 5904.00 5973.12 77.00
1678 20.8000 6179.00 6181.63 79.00
1679 20.8100 6180.00 6104.04 79.00
1680 20.8200 5954.00 5803.23 77.00
1681 20.8300 5718.00 5461.48 76.00
1682 20.8400 5469.00 5183.22 74.00
1683 20.8500 5279.00 4994.02 73.00
1684 20.8600 5153.00 4880.88 72.00
1685 20.8700 5041.00 4818.75 71.00
1686 20.8800 4968.00 4785.70 70.00
1687 20.8900 4957.00 4767.89 70.00
1688 20.9000 4920.00 4758.26 70.00
1689 20.9100 4937.00 4753.60 70.00
1690 20.9200 4953.00 4752.55 70.00
1691 20.9300 4981.00 4754.50 71.00
1692 20.9400 4938.00 4759.38 70.00
1693 20.9500 4962.00 4767.58 70.00
1694 20.9600 4952.00 4780.27 70.00
1695 20.9700 4972.00 4799.73 71.00
1696 20.9800 5018.00 4829.56 71.00
1697 20.9900 5049.00 4874.42 71.00
1698 21.0000 5072.00 4938.68 71.00
1699 21.0100 5144.00 5023.89 72.00
1700 21.0200 5229.00 5124.92 72.00
1701 21.0300 5343.00 5224.93 73.00
1702 21.0400 5449.00 5292.84 74.00
1703 21.0500 5514.00 5299.42 74.00
1704 21.0600 5432.00 5249.16 74.00
1705 21.0700 5355.00 5175.97 73.00
1706 21.0800 5324.00 5109.35 73.00
1707 21.0900 5277.00 5063.49 73.00
1708 21.1000 5312.00 5042.21 73.00
1709 21.1100 5298.00 5044.25 73.00
1710 21.1200 5280.00 5066.59 73.00
1711 21.1300 5327.00 5106.59 73.00
1712 21.1400 5353.00 5162.77 73.00
1713 21.1500 5381.00 5234.45 73.00
1714 21.1600 5452.00 5321.07 74.00
1715 21.1700 5494.00 5421.57 74.00
1716 21.1800 5558.00 5534.60 75.00
1717 21.1900 5631.00 5657.69 75.00
1718 21.2000 5683.00 5792.92 75.00
1719 21.2100 5807.00 5949.99 76.00
1720 21.2200 5987.00 6155.44 77.00
1721 21.2300 6200.00 6449.26 79.00
1722 21.2400 6579.00 6878.13 81.00
1723 21.2500 7160.00 7491.59 85.00
1724 21.2600 7917.00 8337.06 89.00
1725 21.2700 9073.00 9454.98 95.00
1726 21.2800 10657.00 10871.50 103.00
1727 21.2900 12575.00 12592.10 112.00
1728 21.3000 14626.00 14590.40 121.00
1729 21.3100 16641.00 16817.30 129.00
1730 21.3200 18529.00 19242.60 136.00
1731 21.3300 20855.00 21826.40 144.00
1732 21.3400 23891.00 24277.00 155.00
1733 21.3500 26330.00 25730.70 162.00
1734 21.3600 26373.00 24954.50 162.00
1735 21.3700 23539.00 21820.10 153.00
1736 21.3800 18772.00 17733.90 137.00
1737 21.3900 14107.00 13976.10 119.00
1738 21.4000 10797.00 11065.60 104.00
1739 21.4100 8783.00 9046.02 94.00
1740 21.4200 7508.00 7743.34 87.00
1741 21.4300 6831.00 6929.19 83.00
1742 21.4400 6324.00 6412.77 80.00
1743 21.4500 6018.00 6068.45 78.00
1744 21.4600 5792.00 5824.09 76.00
1745 21.4700 5580.00 5641.12 75.00
1746 21.4800 5458.00 5498.46 74.00
1747 21.4900 5365.00 5384.19 73.00
1748 21.5000 5276.00 5290.87 73.00
1749 21.5100 5210.00 5213.61 72.00
1750 21.5200 5172.00 5148.92 72.00
1751 21.5300 5225.00 5094.25 72.00
1752 21.5400 5102.00 5047.65 71.00
1753 21.5500 5092.00 5007.63 71.00
1754 21.5600 5058.00 4973.00 71.00
1755 21.5700 5059.00 4942.85 71.00
1756 21.5800 5063.00 4916.45 71.00
1757 21.5900 5059.00 4893.22 71.00
1758 21.6000 5001.00 4872.69 71.00
1759 21.6100 4975.00 4854.47 71.00
1760 21.6200 4963.00 4838.27 70.00
1761 21.6300 4926.00 4823.83 70.00
1762 21.6400 4959.00 4810.94 70.00
1763 21.6500 4939.00 4799.43 70.00
1764 21.6600 4897.00 4789.17 70.00
1765 21.6700 4909.00 4780.88 70.00
1766 21.6800 4940.00 4772.90 70.00
1767 21.6900 4899.00 4766.00 70.00
1768 21.7000 4912.00 4760.17 70.00
1769 21.7100 4906.00 4755.43 70.00
1770 21.7200 4888.00 4751.76 70.00
1771 21.7300 4866.00 4749.15 70.00
1772 21.7400 4868.00 4747.53 70.00
1773 21.7500 4843.00 4746.88 70.00
1774 21.7600 4850.00 4747.23 70.00
1775 21.7700 4872.00 4748.85 70.00
1776 21.7800 4850.00 4752.58 70.00
1777 21.7900 4866.00 4760.04 70.00
1778 21.8000 4876.00 4773.26 70.00
1779 21.8100 4857.00 4793.85 70.00
1780 21.8200 4899.00 4822.06 70.00
1781 21.8300 4924.00 4855.32 70.00
1782 21.8400 4870.00 4886.34 70.00
1783 21.8500 4924.00 4903.98 70.00
1784 21.8600 4858.00 4900.67 70.00
1785 21.8700 4868.00 4876.66 70.00
1786 21.8800 4922.00 4838.61 70.00
1787 21.8900 4933.00 4797.76 70.00
1788 21.9000 4928.00 4762.62 70.00
1789 21.9100 4919.00 4736.25 70.00
1790 21.9200 4889.00 4718.17 70.00
1791 21.9300 4860.00 4706.49 70.00
1792 21.9400 4806.00 4699.07 69.00
1793 21.9500 4824.00 4694.24 69.00
1794 21.9600 4778.00 4690.92 69.00
1795 21.9700 4795.00 4688.53 69.00
1796 21.9800 4784.00 4686.75 69.00
1797 21.9900 4821.00 4685.43 69.00
1798 22.0000 4813.00 4684.47 69.00
1799 22.0100 4806.00 4683.83 69.00
1800 22.0200 4748.00 4683.46 69.00
1801 22.0300 4794.00 4683.30 69.00
1802 22.0400 4788.00 4683.44 69.00
1803 22.0500 4784.00 4683.80 69.00
1804 22.0600 4777.00 4684.38 69.00
1805 22.0700 4766.00 4685.20 69.00
1806 22.0800 4776.00 4686.25 69.00
1807 22.0900 4790.00 4687.43 69.00
1808 22.1000 4801.00 4688.98 69.00
1809 22.1100 4778.00 4690.81 69.00
1810 22.1200 4813.00 4692.93 69.00
1811 22.1300 4826.00 4695.38 69.00
1812 22.1400 4777.00 4698.19 69.00
1813 22.1500 4795.00 4701.39 69.00
1814 22.1600 4796.00 4705.04 69.00
1815 22.1700 4775.00 4709.20 69.00
1816 22.1800 4835.00 4713.92 70.00
1817 22.1900 4822.00 4719.30 69.00
1818 22.2000 4782.00 4725.43 69.00
1819 22.2100 4796.00 4732.45 69.00
1820 22.2200 4848.00 4740.52 70.00
1821 22.2300 4831.00 4749.83 70.00
1822 22.2400 4839.00 4760.68 70.00
1823 22.2500 4810.00 4774.36 69.00
1824 22.2600 4832.00 4789.59 70.00
1825 22.2700 4844.00 4808.02 70.00
1826 22.2800 4872.00 4832.17 70.00
1827 22.2900 4878.00 4860.62 70.00
1828 22.3000 4904.00 4896.82 70.00
1829 22.3100 4951.00 4943.52 70.00
1830 22.3200 4959.00 5004.59 70.00
1831 22.3300 5057.00 5085.40 71.00
1832 22.3400 5188.00 5193.38 72.00
1833 22.3500 5309.00 5338.30 73.00
1834 22.3600 5502.00 5531.64 74.00
1835 22.3700 5754.00 5785.66 76.00
1836 22.3800 5939.00 6112.00 77.00
1837 22.3900 6312.00 6520.77 79.00
1838 22.4000 6838.00 7015.01 83.00
1839 22.4100 7432.00 7578.19 86.00
1840 22.4200 8097.00 8157.98 90.00
1841 22.4300 8703.00 8662.70 93.00
1842 22.4400 8938.00 8991.98 95.00
1843 22.4500 9003.00 9089.49 95.00
1844 22.4600 8889.00 8946.37 94.00
1845 22.4700 8666.00 8575.92 93.00
1846 22.4800 8292.00 8031.56 91.00
1847 22.4900 7651.00 7412.17 87.00
1848 22.5000 6968.00 6814.44 83.00
1849 22.5100 6323.00 6296.58 80.00
1850 22.5200 5899.00 5880.31 77.00
1851 22.5300 5562.00 5564.51 75.00
1852 22.5400 5388.00 5335.46 73.00
1853 22.5500 5200.00 5174.78 72.00
1854 22.5600 5049.00 5064.34 71.00
1855 22.5700 5010.00 4988.99 71.00
1856 22.5800 4991.00 4937.34 71.00
1857 22.5900 4992.00 4901.39 71.00
1858 22.6000 4974.00 4875.22 71.00
1859 22.6100 4936.00 4853.69 70.00
1860 22.6200 4887.00 4832.49 70.00
1861 22.6300 4898.00 4810.58 70.00
1862 22.6400 4908.00 4789.73 70.00
1863 22.6500 4868.00 4771.44 70.00
1864 22.6600 4852.00 4756.16 70.00
1865 22.6700 4845.00 4743.67 70.00
1866 22.6800 4865.00 4733.50 70.00
1867 22.6900 4783.00 4725.12 69.00
1868 22.7000 4775.00 4718.10 69.00
1869 22.7100 4786.00 4712.16 69.00
1870 22.7200 4776.00 4707.09 69.00
1871 22.7300 4801.00 4702.78 69.00
1872 22.7400 4761.00 4699.21 69.00
1873 22.7500 4818.00 4696.38 69.00
1874 22.7600 4815.00 4694.41 69.00
1875 22.7700 4806.00 4693.59 69.00
1876 22.7800 4799.00 4694.43 69.00
1877 22.7900 4820.00 4697.76 69.00
1878 22.8000 4800.00 4704.54 69.00
1879 22.8100 4811.00 4715.64 69.00
1880 22.8200 4842.00 4731.27 70.00
1881 22.8300 4847.00 4750.17 70.00
1882 22.8400 4873.00 4768.29 70.00
1883 22.8500 4946.00 4778.28 70.00
1884 22.8600 4872.00 4773.78 70.00
1885 22.8700 4908.00 4756.85 70.00
1886 22.8800 4851.00 4735.24 70.00
1887 22.8900 4866.00 4715.00 70.00
1888 22.9000 4851.00 4698.74 70.00
1889 22.9100 4852.00 4686.99 70.00
1890 22.9200 4823.00 4679.15 69.00
1891 22.9300 4817.00 4674.23 69.00
1892 22.9400 4828.00 4671.28 69.00
1893 22.9500 4793.00 4669.60 69.00
1894 22.9600 4829.00 4668.76 69.00
1895 22.9700 4774.00 4668.53 69.00
1896 22.9800 4751.00 4668.79 69.00
1897 22.9900 4768.00 4669.53 69.00
1898 23.0000 4786.00 4670.76 69.00
1899 23.0100 4814.00 4672.51 69.00
1900 23.0200 4841.00 4674.88 70.00
1901 23.0300 4815.00 4677.96 69.00
1902 23.0400 4814.00 4682.24 69.00
1903 23.0500 4810.00 4687.30 69.00
1904 23.0600 4775.00 4693.77 69.00
1905 23.0700 4813.00 4702.12 69.00
1906 23.0800 4846.00 4713.13 70.00
1907 23.0900 4884.00 4728.19 70.00
1908 23.1000 4879.00 4750.08 70.00
1909 23.1100 4943.00 4784.76 70.00
1910 23.1200 5037.00 4842.91 71.00
1911 23.1300 5113.00 4941.25 72.00
1912 23.1400 5304.00 5099.34 73.00
1913 23.1500 5521.00 5330.53 74.00
1914 23.1600 5743.00 5624.69 76.00
1915 23.1700 6060.00 5918.02 78.00
1916 23.1800 6156.00 6077.43 78.00
1917 23.1900 6118.00 5986.22 78.00
1918 23.2000 5947.00 5714.30 77.00
1919 23.2100 5672.00 5411.00 75.00
1920 23.2200 5383.00 5159.92 73.00
1921 23.2300 5201.00 4982.38 72.00
1922 23.2400 5058.00 4869.91 71.00
1923 23.2500 4995.00 4803.48 71.00
1924 23.2600 4977.00 4765.11 71.00
1925 23.2700 4966.00 4742.43 70.00
1926 23.2800 4899.00 4728.64 70.00
1927 23.2900 4948.00 4720.60 70.00
1928 23.3000 4929.00 4717.16 70.00
1929 23.3100 4927.00 4718.23 70.00
1930 23.3200 4964.00 4724.36 70.00
1931 23.3300 4974.00 4736.41 71.00
1932 23.3400 4950.00 4755.32 70.00
1933 23.3500 4947.00 4781.64 70.00
1934 23.3600 4977.00 4814.94 71.00
1935 23.3700 4947.00 4853.16 70.00
1936 23.3800 4938.00 4892.27 70.00
1937 23.3900 4911.00 4925.77 70.00
1938 23.4000 4907.00 4944.99 70.00
1939 23.4100 4920.00 4942.32 70.00
1940 23.4200 4867.00 4917.62 70.00
1941 23.4300 4845.00 4879.05 70.00
1942 23.4400 4865.00 4836.49 70.00
1943 23.4500 4854.00 4796.86 70.00
1944 23.4600 4804.00 4763.60 69.00
1945 23.4700 4808.00 4737.89 69.00
1946 23.4800 4814.00 4719.45 69.00
1947 23.4900 4810.00 4707.32 69.00
1948 23.5000 4856.00 4700.32 70.00
1949 23.5100 4834.00 4697.42 70.00
1950 23.5200 4830.00 4698.02 69.00
1951 23.5300 4862.00 4701.87 70.00
1952 23.5400 4873.00 4709.08 70.00
1953 23.5500 4862.00 4719.94 70.00
1954 23.5600 4875.00 4734.69 70.00
1955 23.5700 4885.00 4753.28 70.00
1956 23.5800 4874.00 4775.08 70.00
1957 23.5900 4905.00 4798.56 70.00
1958 23.6000 4921.00 4820.81 70.00
1959 23.6100 4989.00 4837.61 71.00
1960 23.6200 5001.00 4844.96 71.00
1961 23.6300 4997.00 4841.88 71.00
1962 23.6400 4968.00 4831.31 70.00
1963 23.6500 4974.00 4817.87 71.00
1964 23.6600 4948.00 4805.40 70.00
1965 23.6700 4945.00 4796.30 70.00
1966 23.6800 4949.00 4791.90 70.00
1967 23.6900 4984.00 4792.79 71.00
1968 23.7000 4921.00 4799.18 70.00
1969 23.7100 4912.00 4811.19 70.00
1970 23.7200 4938.00 4829.06 70.00
1971 23.7300 4976.00 4853.44 71.00
1972 23.7400 4993.00 4885.93 71.00
1973 23.7500 5050.00 4929.32 71.00
1974 23.7600 5069.00 4989.50 71.00
1975 23.7700 5207.00 5077.17 72.00
1976 23.7800 5314.00 5210.22 73.00
1977 23.7900 5478.00 5415.32 74.00
1978 23.8000 5842.00 5726.45 76.00
1979 23.8100 6256.00 6177.32 79.00
1980 23.8200 6803.00 6787.89 82.00
1981 23.8300 7569.00 7541.21 87.00
1982 23.8400 8479.00 8348.80 92.00
1983 23.8500 9159.00 9020.41 96.00
1984 23.8600 9519.00 9316.50 98.00
1985 23.8700 9239.00 9116.04 96.00
1986 23.8800 8569.00 8511.84 93.00
1987 23.8900 7791.00 7729.31 88.00
1988 23.9000 6990.00 6970.26 84.00
1989 23.9100 6376.00 6339.10 80.00
1990 23.9200 5969.00 5866.14 77.00
1991 23.9300 5630.00 5537.15 75.00
1992 23.9400 5460.00 5321.50 74.00
1993 23.9500 5293.00 5186.01 73.00
1994 23.9600 5205.00 5102.73 72.00
1995 23.9700 5149.00 5054.75 72.00
1996 23.9800 5210.00 5030.76 72.00
1997 23.9900 5169.00 5026.72 72.00
1998 24.0000 5140.00 5043.54 72.00
1999 24.0100 5190.00 5085.80 72.00
2000 24.0200 5270.00 5160.06 73.00
2001 24.0300 5379.00 5271.99 73.00
2002 24.0400 5540.00 5422.29 74.00
2003 24.0500 5773.00 5600.56 76.00
2004 24.0600 5916.00 5778.32 77.00
2005 24.0700 6084.00 5922.54 78.00
2006 24.0800 6195.00 6053.96 79.00
2007 24.0900 6335.00 6269.59 80.00
2008 24.1000 6693.00 6681.58 82.00
2009 24.1100 7370.00 7360.59 86.00
2010 24.1200 8321.00 8294.81 91.00
2011 24.1300 9408.00 9316.75 97.00
2012 24.1400 10081.00 10014.80 100.00
2013 24.1500 10095.00 9922.12 100.00
2014 24.1600 9339.00 9084.82 97.00
2015 24.1700 8227.00 7987.53 91.00
2016 24.1800 7012.00 6994.95 84.00
2017 24.1900 6280.00 6240.82 79.00
2018 24.2000 5793.00 5728.55 76.00
2019 24.2100 5424.00 5406.59 74.00
2020 24.2200 5271.00 5211.59 73.00
2021 24.2300 5183.00 5092.17 72.00
2022 24.2400 5087.00 5015.49 71.00
2023 24.2500 5035.00 4963.59 71.00
2024 24.2600 4993.00 4927.55 71.00
2025 24.2700 4958.00 4902.97 70.00
2026 24.2800 4980.00 4887.35 71.00
2027 24.2900 4968.00 4878.71 70.00
2028 24.3000 4927.00 4874.76 70.00
2029 24.3100 4945.00 4872.35 70.00
2030 24.3200 4953.00 4868.72 70.00
2031 24.3300 4955.00 4863.94 70.00
2032 24.3400 5012.00 4860.42 71.00
2033 24.3500 4971.00 4860.38 71.00
2034 24.3600 4953.00 4865.13 70.00
2035 24.3700 4999.00 4875.35 71.00
2036 24.3800 4994.00 4891.52 71.00
2037 24.3900 5045.00 4914.30 71.00
2038 24.4000 5063.00 4944.95 71.00
2039 24.4100 5080.00 4985.81 71.00
2040 24.4200 5118.00 5041.00 72.00
2041 24.4300 5207.00 5117.35 72.00
2042 24.4400 5282.00 5225.47 73.00
2043 24.4500 5425.00 5380.55 74.00
2044 24.4600 5671.00 5602.67 75.00
2045 24.4700 5953.00 5915.15 77.00
2046 24.4800 6313.00 6341.77 79.00
2047 24.4900 6888.00 6900.00 83.00
2048 24.5000 7636.00 7592.75 87.00
2049 24.5100 8548.00 8393.91 92.00
2050 24.5200 9539.00 9231.72 98.00
2051 24.5300 10241.00 9980.80 101.00
2052 24.5400 10582.00 10498.40 103.00
2053 24.5500 10628.00 10688.90 103.00
2054 24.5600 10441.00 10522.80 102.00
2055 24.5700 10064.00 10021.40 100.00
2056 24.5800 9403.00 9277.20 97.00
2057 24.5900 8467.00 8436.31 92.00
2058 24.6000 7490.00 7630.02 87.00
2059 24.6100 6814.00 6935.89 83.00
2060 24.6200 6244.00 6383.98 79.00
2061 24.6300 5934.00 5977.77 77.00
2062 24.6400 5698.00 5705.99 75.00
2063 24.6500 5565.00 5548.50 75.00
2064 24.6600 5493.00 5476.45 74.00
2065 24.6700 5472.00 5444.46 74.00
2066 24.6800 5459.00 5394.51 74.00
2067 24.6900 5309.00 5308.16 73.00
2068 24.7000 5198.00 5214.33 72.00
2069 24.7100 5120.00 5132.13 72.00
2070 24.7200 5002.00 5065.89 71.00
2071 24.7300 5003.00 5020.87 71.00
2072 24.7400 4997.00 5004.05 71.00
2073 24.7500 5051.00 5021.02 71.00
2074 24.7600 5138.00 5075.50 72.00
2075 24.7700 5199.00 5167.38 72.00
2076 24.7800 5358.00 5288.27 73.00
2077 24.7900 5514.00 5414.14 74.00
2078 24.8000 5637.00 5499.49 75.00
2079 24.8100 5606.00 5495.17 75.00
2080 24.8200 5566.00 5395.72 75.00
2081 24.8300 5337.00 5245.65 73.00
2082 24.8400 5142.00 5091.99 72.00
2083 24.8500 4978.00 4960.14 71.00
2084 24.8600 4869.00 4858.15 70.00
2085 24.8700 4834.00 4784.89 70.00
2086 24.8800 4785.00 4734.88 69.00
2087 24.8900 4804.00 4701.81 69.00
2088 24.9000 4743.00 4679.89 69.00
2089 24.9100 4725.00 4665.40 69.00
2090 24.9200 4717.00 4656.04 69.00
2091 24.9300 4733.00 4650.58 69.00
2092 24.9400 4737.00 4648.36 69.00
2093 24.9500 4745.00 4648.90 69.00
2094 24.9600 4686.00 4651.56 68.00
2095 24.9700 4747.00 4655.41 69.00
2096 24.9800 4712.00 4659.04 69.00
2097 24.9900 4731.00 4661.01 69.00
2098 25.0000 4720.00 4659.94 69.00
2099 25.0100 4664.00 4655.56 68.00
2100 25.0200 4649.00 4647.31 68.00
2101 25.0300 4657.00 4635.80 68.00
2102 25.0400 4611.00 4622.57 68.00
2103 25.0500 4609.00 4609.27 68.00
2104 25.0600 4630.00 4596.67 68.00
2105 25.0700 4625.00 4586.02 68.00
2106 25.0800 4588.00 4577.10 68.00
2107 25.0900 4598.00 4569.82 68.00
2108 25.1000 4598.00 4563.58 68.00
2109 25.1100 4578.00 4558.85 68.00
2110 25.1200 4594.00 4555.00 68.00
2111 25.1300 4574.00 4551.79 68.00
2112 25.1400 4529.00 4549.04 67.00
2113 25.1500 4547.00 4546.65 67.00
2114 25.1600 4582.00 4544.51 68.00
2115 25.1700 4566.00 4542.60 68.00
2116 25.1800 4587.00 4540.87 68.00
2117 25.1900 4574.00 4539.33 68.00
2118 25.2000 4512.00 4538.32 67.00
2119 25.2100 4540.00 4537.17 67.00
2120 25.2200 4542.00 4536.27 67.00
2121 25.2300 4549.00 4535.69 67.00
2122 25.2400 4541.00 4535.68 67.00
2123 25.2500 4565.00 4536.48 68.00
2124 25.2600 4506.00 4538.55 67.00
2125 25.2700 4556.00 4542.43 67.00
2126 25.2800 4557.00 4548.65 68.00
2127 25.2900 4568.00 4557.43 68.00
2128 25.3000 4629.00 4568.35 68.00
2129 25.3100 4587.00 4579.68 68.00
2130 25.3200 4614.00 4587.96 68.00
2131 25.3300 4650.00 4588.91 68.00
2132 25.3400 4590.00 4581.27 68.00
2133 25.3500 4596.00 4568.50 68.00
2134 25.3600 4525.00 4554.99 67.00
2135 25.3700 4528.00 4543.26 67.00
2136 25.3800 4480.00 4534.15 67.00
2137 25.3900 4528.00 4527.60 67.00
2138 25.4000 4474.00 4523.15 67.00
2139 25.4100 4537.00 4520.25 67.00
2140 25.4200 4514.00 4518.42 67.00
2141 25.4300 4483.00 4517.32 67.00
2142 25.4400 4460.00 4516.79 67.00
2143 25.4500 4479.00 4516.75 67.00
2144 25.4600 4433.00 4517.21 67.00
2145 25.4700 4470.00 4518.26 67.00
2146 25.4800 4493.00 4520.05 67.00
2147 25.4900 4499.00 4522.88 67.00
2148 25.5000 4460.00 4527.35 67.00
2149 25.5100 4523.00 4534.66 67.00
2150 25.5200 4530.00 4547.04 67.00
2151 25.5300 4527.00 4568.15 67.00
2152 25.5400 4584.00 4602.77 68.00
2153 25.5500 4621.00 4655.18 68.00
2154 25.5600 4695.00 4725.98 69.00
2155 25.5700 4795.00 4806.23 69.00
2156 25.5800 4830.00 4868.83 69.00
2157 25.5900 4817.00 4875.65 69.00
2158 25.6000 4819.00 4822.34 69.00
2159 25.6100 4701.00 4745.44 69.00
2160 25.6200 4636.00 4676.53 68.00
2161 25.6300 4567.00 4628.22 68.00
2162 25.6400 4553.00 4601.98 67.00
2163 25.6500 4484.00 4594.24 67.00
2164 25.6600 4468.00 4599.18 67.00
2165 25.6700 4434.00 4609.40 67.00
2166 25.6800 4410.00 4615.48 66.00
2167 25.6900 4414.00 4609.23 66.00
2168 25.7000 4416.00 4590.77 66.00
2169 25.7100 4374.00 4567.19 66.00
2170 25.7200 4378.00 4544.70 66.00
2171 25.7300 4386.00 4526.14 66.00
2172 25.7400 4364.00 4512.12 66.00
2173 25.7500 4393.00 4502.12 66.00
2174 25.7600 4376.00 4495.22 66.00
2175 25.7700 4375.00 4490.47 66.00
2176 25.7800 4330.00 4487.12 66.00
2177 25.7900 4341.00 4484.70 66.00
2178 25.8000 4330.00 4483.00 66.00
2179 25.8100 4348.00 4481.91 66.00
2180 25.8200 4343.00 4481.48 66.00
2181 25.8300 4354.00 4481.81 66.00
2182 25.8400 4370.00 4483.03 66.00
2183 25.8500 4407.00 4485.27 66.00
2184 25.8600 4333.00 4488.58 66.00
2185 25.8700 4378.00 4492.84 66.00
2186 25.8800 4367.00 4497.69 66.00
2187 25.8900 4358.00 4502.44 66.00
2188 25.9000 4369.00 4506.10 66.00
2189 25.9100 4370.00 4507.41 66.00
2190 25.9200 4333.00 4505.53 66.00
2191 25.9300 4343.00 4500.73 66.00
2192 25.9400 4332.00 4494.27 66.00
2193 25.9500 4346.00 4487.47 66.00
2194 25.9600 4359.00 4481.22 66.00
2195 25.9700 4387.00 4475.94 66.00
2196 25.9800 4364.00 4471.76 66.00
2197 25.9900 4350.00 4468.64 66.00
2198 26.0000 4348.00 4466.47 66.00
2199 26.0100 4324.00 4465.09 66.00
2200 26.0200 4306.00 4464.38 66.00
2201 26.0300 4303.00 4464.24 66.00
2202 26.0400 4317.00 4464.37 66.00
2203 26.0500 4334.00 4464.77 66.00
2204 26.0600 4353.00 4467.35 66.00
2205 26.0700 4334.00 4471.48 66.00
2206 26.0800 4370.00 4478.26 66.00
2207 26.0900 4371.00 4489.02 66.00
2208 26.1000 4367.00 4505.11 66.00
2209 26.1100 4355.00 4527.62 66.00
2210 26.1200 4407.00 4557.51 66.00
2211 26.1300 4429.00 4592.67 67.00
2212 26.1400 4506.00 4627.60 67.00
2213 26.1500 4528.00 4652.06 67.00
2214 26.1600 4535.00 4655.43 67.00
2215 26.1700 4478.00 4636.29 67.00
2216 26.1800 4457.00 4603.08 67.00
2217 26.1900 4431.00 4566.11 67.00
2218 26.2000 4384.00 4532.44 66.00
2219 26.2100 4338.00 4505.20 66.00
2220 26.2200 4294.00 4484.86 66.00
2221 26.2300 4338.00 4470.48 66.00
2222 26.2400 4339.00 4460.64 66.00
2223 26.2500 4298.00 4453.93 66.00
2224 26.2600 4298.00 4449.23 66.00
2225 26.2700 4337.00 4445.78 66.00
2226 26.2800 4282.00 4443.11 65.00
2227 26.2900 4286.00 4440.96 65.00
2228 26.3000 4268.00 4439.17 65.00
2229 26.3100 4278.00 4437.65 65.00
2230 26.3200 4335.00 4436.30 66.00
2231 26.3300 4302.00 4435.18 66.00
2232 26.3400 4260.00 4434.22 65.00
2233 26.3500 4314.00 4433.41 66.00
2234 26.3600 4326.00 4432.75 66.00
2235 26.3700 4280.00 4432.23 65.00
2236 26.3800 4310.00 4431.90 66.00
2237 26.3900 4335.00 4431.80 66.00
2238 26.4000 4285.00 4432.06 65.00
2239 26.4100 4309.00 4432.85 66.00
2240 26.4200 4282.00 4434.41 65.00
2241 26.4300 4282.00 4436.94 65.00
2242 26.4400 4298.00 4440.52 66.00
2243 26.4500 4309.00 4444.82 66.00
2244 26.4600 4238.00 4448.87 65.00
2245 26.4700 4276.00 4450.77 65.00
2246 26.4800 4330.00 4448.95 66.00
2247 26.4900 4287.00 4445.22 65.00
2248 26.5000 4286.00 4441.51 65.00
2249 26.5100 4292.00 4438.92 66.00
2250 26.5200 4275.00 4437.79 65.00
2251 26.5300 4283.00 4438.07 65.00
2252 26.5400 4315.00 4439.48 66.00
2253 26.5500 4302.00 4441.62 66.00
2254 26.5600 4323.00 4443.97 66.00
2255 26.5700 4343.00 4445.91 66.00
2256 26.5800 4326.00 4446.86 66.00
2257 26.5900 4365.00 4446.68 66.00
2258 26.6000 4329.00 4445.72 66.00
2259 26.6100 4295.00 4444.56 66.00
2260 26.6200 4328.00 4443.72 66.00
2261 26.6300 4319.00 4443.56 66.00
2262 26.6400 4268.00 4444.27 65.00
2263 26.6500 4316.00 4445.98 66.00
2264 26.6600 4310.00 4448.81 66.00
2265 26.6700 4329.00 4452.84 66.00
2266 26.6800 4371.00 4458.26 66.00
2267 26.6900 4383.00 4465.29 66.00
2268 26.7000 4348.00 4474.34 66.00
2269 26.7100 4323.00 4485.99 66.00
2270 26.7200 4349.00 4501.15 66.00
2271 26.7300 4387.00 4521.20 66.00
2272 26.7400 4447.00 4548.30 67.00
2273 26.7500 4468.00 4585.83 67.00
2274 26.7600 4527.00 4638.81 67.00
2275 26.7700 4596.00 4714.11 68.00
2276 26.7800 4679.00 4820.02 68.00
2277 26.7900 4833.00 4964.72 70.00
2278 26.8000 4995.00 5151.97 71.00
2279 26.8100 5289.00 5377.95 73.00
2280 26.8200 5505.00 5622.24 74.00
2281 26.8300 5747.00 5837.95 76.00
2282 26.8400 5877.00 5960.83 77.00
2283 26.8500 5886.00 5959.17 77.00
2284 26.8600 5745.00 5863.67 76.00
2285 26.8700 5584.00 5727.78 75.00
2286 26.8800 5371.00 5588.64 73.00
2287 26.8900 5246.00 5462.83 72.00
2288 26.9000 5152.00 5353.89 72.00
2289 26.9100 5103.00 5255.79 71.00
2290 26.9200 5122.00 5162.34 72.00
2291 26.9300 5033.00 5069.40 71.00
2292 26.9400 4954.00 4977.22 70.00
2293 26.9500 4840.00 4888.65 70.00
2294 26.9600 4724.00 4807.00 69.00
2295 26.9700 4623.00 4734.59 68.00
2296 26.9800 4557.00 4672.50 68.00
2297 26.9900 4482.00 4620.78 67.00
2298 27.0000 4424.00 4578.70 67.00
2299 27.0100 4399.00 4544.85 66.00
2300 27.0200 4373.00 4517.91 66.00
2301 27.0300 4406.00 4496.13 66.00
2302 27.0400 4375.00 4478.14 66.00
2303 27.0500 4370.00 4463.01 66.00
2304 27.0600 4342.00 4450.17 66.00
2305 27.0700 4348.00 4439.33 66.00
2306 27.0800 4354.00 4430.28 66.00
2307 27.0900 4308.00 4422.92 66.00
2308 27.1000 4341.00 4417.21 66.00
2309 27.1100 4331.00 4413.24 66.00
2310 27.1200 4279.00 4411.25 65.00
2311 27.1300 4324.00 4411.63 66.00
2312 27.1400 4335.00 4415.05 66.00
2313 27.1500 4306.00 4422.39 66.00
2314 27.1600 4332.00 4434.52 66.00
2315 27.1700 4351.00 4452.04 66.00
2316 27.1800 4305.00 4474.65 66.00
2317 27.1900 4340.00 4500.40 66.00
2318 27.2000 4392.00 4524.79 66.00
2319 27.2100 4376.00 4541.20 66.00
2320 27.2200 4440.00 4543.75 67.00
2321 27.2300 4428.00 4530.92 67.00
2322 27.2400 4388.00 4510.88 66.00
2323 27.2500 4392.00 4490.22 66.00
2324 27.2600 4371.00 4473.91 66.00
2325 27.2700 4383.00 4464.12 66.00
2326 27.2800 4388.00 4461.45 66.00
2327 27.2900 4377.00 4465.87 66.00
2328 27.3000 4375.00 4477.35 66.00
2329 27.3100 4402.00 4496.33 66.00
2330 27.3200 4392.00 4524.10 66.00
2331 27.3300 4437.00 4563.15 67.00
2332 27.3400 4512.00 4617.43 67.00
2333 27.3500 4588.00 4692.77 68.00
2334 27.3600 4649.00 4797.10 68.00
2335 27.3700 4761.00 4940.16 69.00
2336 27.3800 4974.00 5131.51 71.00
2337 27.3900 5191.00 5376.58 72.00
2338 27.4000 5525.00 5671.67 74.00
2339 27.4100 5825.00 5999.18 76.00
2340 27.4200 6171.00 6319.44 79.00
2341 27.4300 6453.00 6552.60 80.00
2342 27.4400 6465.00 6591.27 80.00
2343 27.4500 6262.00 6392.86 79.00
2344 27.4600 5880.00 6039.22 77.00
2345 27.4700 5438.00 5650.70 74.00
2346 27.4800 5036.00 5302.98 71.00
2347 27.4900 4781.00 5025.28 69.00
2348 27.5000 4653.00 4819.85 68.00
2349 27.5100 4526.00 4676.09 67.00
2350 27.5200 4472.00 4578.72 67.00
2351 27.5300 4407.00 4513.19 66.00
2352 27.5400 4361.00 4468.17 66.00
2353 27.5500 4316.00 4435.75 66.00
2354 27.5600 4326.00 4411.28 66.00
2355 27.5700 4325.00 4391.98 66.00
2356 27.5800 4322.00 4376.27 66.00
2357 27.5900 4336.00 4363.18 66.00
2358 27.6000 4295.00 4352.10 66.00
2359 27.6100 4308.00 4342.61 66.00
2360 27.6200 4280.00 4334.39 65.00
2361 27.6300 4261.00 4327.21 65.00
2362 27.6400 4252.00 4320.90 65.00
2363 27.6500 4309.00 4315.30 66.00
2364 27.6600 4236.00 4310.32 65.00
2365 27.6700 4256.00 4305.86 65.00
2366 27.6800 4252.00 4301.85 65.00
2367 27.6900 4252.00 4298.25 65.00
2368 27.7000 4269.00 4295.01 65.00
2369 27.7100 4292.00 4292.10 66.00
2370 27.7200 4252.00 4289.53 65.00
2371 27.7300 4257.00 4287.29 65.00
2372 27.7400 4253.00 4285.39 65.00
2373 27.7500 4246.00 4283.89 65.00
2374 27.7600 4301.00 4282.83 66.00
2375 27.7700 4265.00 4282.28 65.00
2376 27.7800 4283.00 4282.33 65.00
2377 27.7900 4296.00 4283.06 66.00
2378 27.8000 4289.00 4284.52 65.00
2379 27.8100 4252.00 4286.75 65.00
2380 27.8200 4297.00 4289.73 66.00
2381 27.8300 4300.00 4293.34 66.00
2382 27.8400 4232.00 4297.38 65.00
2383 27.8500 4288.00 4301.45 65.00
2384 27.8600 4275.00 4305.01 65.00
2385 27.8700 4258.00 4307.61 65.00
2386 27.8800 4312.00 4309.05 66.00
2387 27.8900 4312.00 4309.51 66.00
2388 27.9000 4244.00 4309.33 65.00
2389 27.9100 4295.00 4308.73 66.00
2390 27.9200 4254.00 4308.01 65.00
2391 27.9300 4240.00 4306.14 65.00
2392 27.9400 4269.00 4303.22 65.00
2393 27.9500 4238.00 4299.26 65.00
2394 27.9600 4213.00 4294.59 65.00
2395 27.9700 4275.00 4289.79 65.00
2396 27.9800 4252.00 4285.38 65.00
2397 27.9900 4240.00 4281.79 65.00
2398 28.0000 4259.00 4279.26 65.00
2399 28.0100 4265.00 4277.85 65.00
2400 28.0200 4293.00 4277.35 66.00
2401 28.0300 4277.00 4277.49 65.00
2402 28.0400 4262.00 4278.47 65.00
2403 28.0500 4282.00 4281.11 65.00
2404 28.0600 4308.00 4286.47 66.00
2405 28.0700 4325.00 4295.94 66.00
2406 28.0800 4297.00 4311.45 66.00
2407 28.0900 4343.00 4335.56 66.00
2408 28.1000 4384.00 4371.06 66.00
2409 28.1100 4419.00 4420.32 66.00
2410 28.1200 4515.00 4483.90 67.00
2411 28.1300 4589.00 4558.39 68.00
2412 28.1400 4649.00 4633.16 68.00
2413 28.1500 4686.00 4689.02 68.00
2414 28.1600 4719.00 4706.57 69.00
2415 28.1700 4688.00 4681.67 68.00
2416 28.1800 4622.00 4629.50 68.00
2417 28.1900 4576.00 4571.63 68.00
2418 28.2000 4475.00 4523.15 67.00
2419 28.2100 4476.00 4490.46 67.00
2420 28.2200 4460.00 4473.88 67.00
2421 28.2300 4448.00 4469.83 67.00
2422 28.2400 4499.00 4471.90 67.00
2423 28.2500 4486.00 4472.26 67.00
2424 28.2600 4395.00 4464.53 66.00
2425 28.2700 4404.00 4446.88 66.00
2426 28.2800 4366.00 4421.63 66.00
2427 28.2900 4350.00 4392.57 66.00
2428 28.3000 4341.00 4363.20 66.00
2429 28.3100 4313.00 4336.17 66.00
2430 28.3200 4287.00 4313.04 65.00
2431 28.3300 4269.00 4294.43 65.00
2432 28.3400 4285.00 4280.29 65.00
2433 28.3500 4251.00 4270.20 65.00
2434 28.3600 4277.00 4263.67 65.00
2435 28.3700 4268.00 4260.26 65.00
2436 28.3800 4258.00 4259.69 65.00
2437 28.3900 4311.00 4261.79 66.00
2438 28.4000 4269.00 4266.49 65.00
2439 28.4100 4297.00 4273.59 66.00
2440 28.4200 4311.00 4282.53 66.00
2441 28.4300 4318.00 4292.11 66.00
2442 28.4400 4298.00 4300.30 66.00
2443 28.4500 4313.00 4305.02 66.00
2444 28.4600 4289.00 4305.37 65.00
2445 28.4700 4262.00 4302.87 65.00
2446 28.4800 4277.00 4300.81 65.00
2447 28.4900 4312.00 4300.71 66.00
2448 28.5000 4344.00 4304.84 66.00
2449 28.5100 4338.00 4314.69 66.00
2450 28.5200 4298.00 4331.54 66.00
2451 28.5300 4345.00 4356.17 66.00
2452 28.5400 4356.00 4388.07 66.00
2453 28.5500 4435.00 4424.16 67.00
2454 28.5600 4417.00 4461.05 66.00
2455 28.5700 4491.00 4502.22 67.00
2456 28.5800 4520.00 4556.60 67.00
2457 28.5900 4584.00 4632.88 68.00
2458 28.6000 4720.00 4740.70 69.00
2459 28.6100 4902.00 4893.22 70.00
2460 28.6200 5062.00 5106.44 71.00
2461 28.6300 5395.00 5392.11 73.00
2462 28.6400 5790.00 5743.34 76.00
2463 28.6500 6099.00 6107.46 78.00
2464 28.6600 6356.00 6353.10 80.00
2465 28.6700 6283.00 6342.71 79.00
2466 28.6800 6014.00 6120.34 78.00
2467 28.6900 5679.00 5836.43 75.00
2468 28.7000 5432.00 5577.22 74.00
2469 28.7100 5256.00 5363.25 72.00
2470 28.7200 5154.00 5187.56 72.00
2471 28.7300 5072.00 5038.00 71.00
2472 28.7400 4901.00 4906.29 70.00
2473 28.7500 4769.00 4789.23 69.00
2474 28.7600 4606.00 4686.53 68.00
2475 28.7700 4537.00 4598.97 67.00
2476 28.7800 4519.00 4527.05 67.00
2477 28.7900 4495.00 4470.81 67.00
2478 28.8000 4410.00 4429.55 66.00
2479 28.8100 4444.00 4401.63 67.00
2480 28.8200 4420.00 4383.78 66.00
2481 28.8300 4404.00 4370.19 66.00
2482 28.8400 4386.00 4353.64 66.00
2483 28.8500 4412.00 4331.48 66.00
2484 28.8600 4321.00 4307.65 66.00
2485 28.8700 4353.00 4286.91 66.00
2486 28.8800 4325.00 4271.73 66.00
2487 28.8900 4303.00 4263.08 66.00
2488 28.9000 4306.00 4261.47 66.00
2489 28.9100 4328.00 4267.40 66.00
2490 28.9200 4292.00 4281.37 66.00
2491 28.9300 4333.00 4303.55 66.00
2492 28.9400 4362.00 4332.88 66.00
2493 28.9500 4424.00 4365.98 67.00
2494 28.9600 4488.00 4394.60 67.00
2495 28.9700 4497.00 4407.21 67.00
2496 28.9800 4446.00 4396.37 67.00
2497 28.9900 4434.00 4366.83 67.00
2498 29.0000 4376.00 4330.33 66.00
2499 29.0100 4318.00 4296.27 66.00
2500 29.0200 4330.00 4269.24 66.00
2501 29.0300 4319.00 4250.52 66.00
2502 29.0400 4267.00 4239.55 65.00
2503 29.0500 4275.00 4234.72 65.00
2504 29.0600 4273.00 4233.78 65.00
2505 29.0700 4271.00 4234.22 65.00
2506 29.0800 4300.00 4233.24 66.00
2507 29.0900 4287.00 4229.13 65.00
2508 29.1000 4240.00 4221.63 65.00
2509 29.1100 4253.00 4211.21 65.00
2510 29.1200 4265.00 4199.99 65.00
2511 29.1300 4220.00 4189.31 65.00
2512 29.1400 4235.00 4179.91 65.00
2513 29.1500 4234.00 4172.04 65.00
2514 29.1600 4191.00 4165.69 65.00
2515 29.1700 4183.00 4160.69 65.00
2516 29.1800 4181.00 4156.79 65.00
2517 29.1900 4180.00 4153.75 65.00
2518 29.2000 4249.00 4151.35 65.00
2519 29.2100 4203.00 4149.42 65.00
2520 29.2200 4206.00 4147.83 65.00
2521 29.2300 4181.00 4146.50 65.00
2522 29.2400 4201.00 4145.37 65.00
2523 29.2500 4171.00 4144.42 65.00
2524 29.2600 4209.00 4143.62 65.00
2525 29.2700 4241.00 4142.97 65.00
2526 29.2800 4185.00 4142.46 65.00
2527 29.2900 4227.00 4142.10 65.00
2528 29.3000 4216.00 4141.87 65.00
2529 29.3100 4209.00 4141.81 65.00
2530 29.3200 4234.00 4141.91 65.00
2531 29.3300 4227.00 4142.20 65.00
2532 29.3400 4211.00 4142.73 65.00
2533 29.3500 4212.00 4143.56 65.00
2534 29.3600 4217.00 4144.75 65.00
2535 29.3700 4221.00 4146.39 65.00
2536 29.3800 4204.00 4148.62 65.00
2537 29.3900 4220.00 4151.60 65.00
2538 29.4000 4207.00 4155.54 65.00
2539 29.4100 4240.00 4160.72 65.00
2540 29.4200 4232.00 4167.54 65.00
2541 29.4300 4199.00 4176.64 65.00
2542 29.4400 4271.00 4189.13 65.00
2543 29.4500 4292.00 4206.90 66.00
2544 29.4600 4241.00 4233.01 65.00
2545 29.4700 4322.00 4271.68 66.00
2546 29.4800 4352.00 4327.35 66.00
2547 29.4900 4434.00 4402.59 67.00
2548 29.5000 4556.00 4494.44 67.00
2549 29.5100 4678.00 4587.03 68.00
2550 29.5200 4712.00 4644.34 69.00
2551 29.5300 4673.00 4629.55 68.00
2552 29.5400 4622.00 4551.19 68.00
2553 29.5500 4496.00 4451.73 67.00
2554 29.5600 4425.00 4361.84 67.00
2555 29.5700 4360.00 4292.37 66.00
2556 29.5800 4288.00 4243.70 65.00
2557 29.5900 4265.00 4211.91 65.00
2558 29.6000 4242.00 4192.12 65.00
2559 29.6100 4258.00 4180.21 65.00
2560 29.6200 4235.00 4173.45 65.00
2561 29.6300 4251.00 4170.41 65.00
2562 29.6400 4232.00 4170.78 65.00
2563 29.6500 4248.00 4175.29 65.00
2564 29.6600 4282.00 4185.83 65.00
2565 29.6700 4257.00 4205.15 65.00
2566 29.6800 4331.00 4235.85 66.00
2567 29.6900 4382.00 4277.90 66.00
2568 29.7000 4413.00 4325.67 66.00
2569 29.7100 4444.00 4359.67 67.00
2570 29.7200 4443.00 4355.48 67.00
2571 29.7300 4389.00 4315.52 66.00
2572 29.7400 4361.00 4265.28 66.00
2573 29.7500 4311.00 4222.17 66.00
2574 29.7600 4273.00 4191.32 65.00
2575 29.7700 4255.00 4172.01 65.00
2576 29.7800 4245.00 4161.47 65.00
2577 29.7900 4238.00 4156.90 65.00
2578 29.8000 4276.00 4156.26 65.00
2579 29.8100 4261.00 4158.28 65.00
2580 29.8200 4241.00 4162.01 65.00
2581 29.8300 4269.00 4166.35 65.00
2582 29.8400 4266.00 4169.76 65.00
2583 29.8500 4280.00 4170.55 65.00
2584 29.8600 4328.00 4168.21 66.00
2585 29.8700 4286.00 4163.79 65.00
2586 29.8800 4262.00 4158.90 65.00
2587 29.8900 4272.00 4154.68 65.00
2588 29.9000 4239.00 4151.68 65.00
2589 29.9100 4256.00 4150.08 65.00
2590 29.9200 4276.00 4149.86 65.00
2591 29.9300 4237.00 4150.93 65.00
2592 29.9400 4214.00 4153.19 65.00
2593 29.9500 4201.00 4156.62 65.00
2594 29.9600 4274.00 4161.28 65.00
2595 29.9700 4239.00 4167.38 65.00
2596 29.9800 4283.00 4175.35 65.00
2597 29.9900 4282.00 4185.88 65.00
2598 30.0000 4252.00 4200.00 65.00
2599 30.0100 4308.00 4219.20 66.00
2600 30.0200 4316.00 4245.35 66.00
2601 30.0300 4342.00 4280.81 66.00
2602 30.0400 4401.00 4328.11 66.00
2603 30.0500 4460.00 4389.72 67.00
2604 30.0600 4507.00 4467.36 67.00
2605 30.0700 4646.00 4561.52 68.00
2606 30.0800 4760.00 4669.83 69.00
2607 30.0900 4879.00 4785.71 70.00
2608 30.1000 5049.00 4897.09 71.00
2609 30.1100 5171.00 4988.12 72.00
2610 30.1200 5132.00 5045.19 72.00
2611 30.1300 5193.00 5062.82 72.00
2612 30.1400 5116.00 5041.95 72.00
2613 30.1500 5071.00 4984.91 71.00
2614 30.1600 5028.00 4896.58 71.00
2615 30.1700 4957.00 4788.72 70.00
2616 30.1800 4821.00 4676.85 69.00
2617 30.1900 4688.00 4573.91 68.00
2618 30.2000 4584.00 4487.28 68.00
2619 30.2100 4507.00 4419.54 67.00
2620 30.2200 4433.00 4370.19 67.00
2621 30.2300 4443.00 4336.82 67.00
2622 30.2400 4380.00 4315.38 66.00
2623 30.2500 4386.00 4300.11 66.00
2624 30.2600 4388.00 4284.41 66.00
2625 30.2700 4332.00 4264.96 66.00
2626 30.2800 4365.00 4243.87 66.00
2627 30.2900 4352.00 4224.54 66.00
2628 30.3000 4291.00 4209.01 66.00
2629 30.3100 4290.00 4197.90 65.00
2630 30.3200 4281.00 4191.13 65.00
2631 30.3300 4293.00 4188.37 66.00
2632 30.3400 4293.00 4189.24 66.00
2633 30.3500 4290.00 4193.44 65.00
2634 30.3600 4305.00 4200.67 66.00
2635 30.3700 4317.00 4210.56 66.00
2636 30.3800 4292.00 4222.52 66.00
2637 30.3900 4299.00 4235.58 66.00
2638 30.4000 4362.00 4248.43 66.00
2639 30.4100 4365.00 4260.03 66.00
2640 30.4200 4342.00 4270.86 66.00
2641 30.4300 4351.00 4283.29 66.00
2642 30.4400 4358.00 4301.22 66.00
2643 30.4500 4356.00 4326.90 66.00
2644 30.4600 4433.00 4360.51 67.00
2645 30.4700 4463.00 4396.66 67.00
2646 30.4800 4455.00 4420.47 67.00
2647 30.4900 4463.00 4413.94 67.00
2648 30.5000 4453.00 4377.50 67.00
2649 30.5100 4432.00 4329.77 67.00
2650 30.5200 4391.00 4286.04 66.00
2651 30.5300 4367.00 4251.80 66.00
2652 30.5400 4328.00 4227.40 66.00
2653 30.5500 4348.00 4210.72 66.00
2654 30.5600 4302.00 4199.21 66.00
2655 30.5700 4310.00 4190.65 66.00
2656 30.5800 4307.00 4183.72 66.00
2657 30.5900 4280.00 4178.03 65.00
2658 30.6000 4287.00 4173.52 65.00
2659 30.6100 4311.00 4170.47 66.00
2660 30.6200 4274.00 4168.89 65.00
2661 30.6300 4262.00 4168.79 65.00
2662 30.6400 4303.00 4170.19 66.00
2663 30.6500 4279.00 4173.13 65.00
2664 30.6600 4272.00 4177.66 65.00
2665 30.6700 4302.00 4183.91 66.00
2666 30.6800 4255.00 4192.07 65.00
2667 30.6900 4281.00 4202.42 65.00
2668 30.7000 4356.00 4215.37 66.00
2669 30.7100 4343.00 4231.50 66.00
2670 30.7200 4341.00 4251.63 66.00
2671 30.7300 4394.00 4276.96 66.00
2672 30.7400 4402.00 4309.19 66.00
2673 30.7500 4442.00 4350.68 67.00
2674 30.7600 4484.00 4404.47 67.00
2675 30.7700 4568.00 4474.31 68.00
2676 30.7800 4617.00 4564.39 68.00
2677 30.7900 4722.00 4678.58 69.00
2678 30.8000 4873.00 4818.78 70.00
2679 30.8100 5020.00 4983.03 71.00
2680 30.8200 5211.00 5162.41 72.00
2681 30.8300 5399.00 5337.92 73.00
2682 30.8400 5495.00 5480.49 74.00
2683 30.8500 5604.00 5559.66 75.00
2684 30.8600 5572.00 5556.44 75.00
2685 30.8700 5502.00 5470.62 74.00
2686 30.8800 5338.00 5320.38 73.00
2687 30.8900 5156.00 5136.40 72.00
2688 30.9000 4927.00 4948.95 70.00
2689 30.9100 4797.00 4778.34 69.00
2690 30.9200 4661.00 4634.24 68.00
2691 30.9300 4518.00 4519.11 67.00
2692 30.9400 4503.00 4431.03 67.00
2693 30.9500 4447.00 4366.09 67.00
2694 30.9600 4359.00 4319.52 66.00
2695 30.9700 4369.00 4287.02 66.00
2696 30.9800 4357.00 4264.88 66.00
2697 30.9900 4299.00 4250.34 66.00
2698 31.0000 4296.00 4241.44 66.00
2699 31.0100 4318.00 4236.86 66.00
2700 31.0200 4265.00 4235.69 65.00
2701 31.0300 4304.00 4237.26 66.00
2702 31.0400 4290.00 4240.82 65.00
2703 31.0500 4250.00 4245.83 65.00
2704 31.0600 4276.00 4251.82 65.00
2705 31.0700 4278.00 4258.44 65.00
2706 31.0800 4292.00 4266.03 66.00
2707 31.0900 4311.00 4276.35 66.00
2708 31.1000 4294.00 4292.97 66.00
2709 31.1100 4355.00 4321.00 66.00
2710 31.1200 4377.00 4366.43 66.00
2711 31.1300 4465.00 4435.08 67.00
2712 31.1400 4507.00 4530.69 67.00
2713 31.1500 4649.00 4651.91 68.00
2714 31.1600 4798.00 4786.21 69.00
2715 31.1700 4905.00 4902.06 70.00
2716 31.1800 5061.00 4951.42 71.00
2717 31.1900 4987.00 4907.60 71.00
2718 31.2000 4854.00 4798.32 70.00
2719 31.2100 4704.00 4673.74 69.00
2720 31.2200 4603.00 4567.23 68.00
2721 31.2300 4513.00 4491.93 67.00
2722 31.2400 4491.00 4449.25 67.00
2723 31.2500 4459.00 4434.38 67.00
2724 31.2600 4449.00 4438.61 67.00
2725 31.2700 4503.00 4449.41 67.00
2726 31.2800 4481.00 4452.00 67.00
2727 31.2900 4506.00 4437.27 67.00
2728 31.3000 4509.00 4408.92 67.00
2729 31.3100 4455.00 4378.09 67.00
2730 31.3200 4354.00 4353.92 66.00
2731 31.3300 4370.00 4340.83 66.00
2732 31.3400 4338.00 4339.59 66.00
2733 31.3500 4367.00 4347.79 66.00
2734 31.3600 4414.00 4359.95 66.00
2735 31.3700 4393.00 4367.79 66.00
2736 31.3800 4377.00 4363.59 66.00
2737 31.3900 4375.00 4345.30 66.00
2738 31.4000 4356.00 4317.29 66.00
2739 31.4100 4355.00 4286.08 66.00
2740 31.4200 4298.00 4256.62 66.00
2741 31.4300 4275.00 4231.52 65.00
2742 31.4400 4228.00 4211.59 65.00
2743 31.4500 4211.00 4196.75 65.00
2744 31.4600 4205.00 4186.07 65.00
2745 31.4700 4192.00 4178.78 65.00
2746 31.4800 4217.00 4174.05 65.00
2747 31.4900 4207.00 4171.15 65.00
2748 31.5000 4192.00 4169.58 65.00
2749 31.5100 4186.00 4168.90 65.00
2750 31.5200 4201.00 4169.02 65.00
2751 31.5300 4202.00 4169.80 65.00
2752 31.5400 4184.00 4171.18 65.00
2753 31.5500 4190.00 4173.15 65.00
2754 31.5600 4209.00 4175.77 65.00
2755 31.5700 4230.00 4179.15 65.00
2756 31.5800 4215.00 4183.41 65.00
2757 31.5900 4186.00 4188.79 65.00
2758 31.6000 4244.00 4195.64 65.00
2759 31.6100 4244.00 4204.44 65.00
2760 31.6200 4222.00 4215.97 65.00
2761 31.6300 4240.00 4231.31 65.00
2762 31.6400 4240.00 4251.93 65.00
2763 31.6500 4280.00 4279.79 65.00
2764 31.6600 4306.00 4317.20 66.00
2765 31.6700 4346.00 4366.70 66.00
2766 31.6800 4364.00 4430.79 66.00
2767 31.6900 4413.00 4511.38 66.00
2768 31.7000 4581.00 4609.11 68.00
2769 31.7100 4694.00 4722.05 69.00
2770 31.7200 4828.00 4844.34 69.00
2771 31.7300 4948.00 4964.56 70.00
2772 31.7400 5031.00 5066.78 71.00
2773 31.7500 5133.00 5135.64 72.00
2774 31.7600 5101.00 5162.19 71.00
2775 31.7700 5111.00 5143.80 71.00
2776 31.7800 5063.00 5081.91 71.00
2777 31.7900 5018.00 4983.56 71.00
2778 31.8000 4848.00 4863.58 70.00
2779 31.8100 4725.00 4739.05 69.00
2780 31.8200 4613.00 4622.78 68.00
2781 31.8300 4541.00 4521.76 67.00
2782 31.8400 4461.00 4438.51 67.00
2783 31.8500 4346.00 4372.56 66.00
2784 31.8600 4296.00 4321.95 66.00
2785 31.8700 4274.00 4284.06 65.00
2786 31.8800 4261.00 4256.17 65.00
2787 31.8900 4238.00 4235.83 65.00
2788 31.9000 4250.00 4221.02 65.00
2789 31.9100 4225.00 4210.28 65.00
2790 31.9200 4195.00 4202.59 65.00
2791 31.9300 4222.00 4197.28 65.00
2792 31.9400 4171.00 4193.99 65.00
2793 31.9500 4170.00 4192.45 65.00
2794 31.9600 4241.00 4192.48 65.00
2795 31.9700 4206.00 4193.84 65.00
2796 31.9800 4185.00 4196.13 65.00
2797 31.9900 4195.00 4198.69 65.00
2798 32.0000 4188.00 4200.56 65.00
2799 32.0100 4197.00 4200.84 65.00
2800 32.0200 4202.00 4199.16 65.00
2801 32.0300 4221.00 4195.84 65.00
2802 32.0400 4174.00 4191.60 65.00
2803 32.0500 4191.00 4187.18 65.00
2804 32.0600 4175.00 4183.21 65.00
2805 32.0700 4137.00 4180.05 64.00
2806 32.0800 4174.00 4177.78 65.00
2807 32.0900 4166.00 4176.29 65.00
2808 32.1000 4141.00 4175.25 64.00
2809 32.1100 4163.00 4174.26 65.00
2810 32.1200 4182.00 4172.93 65.00
2811 32.1300 4175.00 4171.03 65.00
2812 32.1400 4134.00 4168.58 64.00
2813 32.1500 4158.00 4165.79 64.00
2814 32.1600 4116.00 4162.90 64.00
2815 32.1700 4143.00 4160.13 64.00
2816 32.1800 4147.00 4157.62 64.00
2817 32.1900 4135.00 4155.47 64.00
2818 32.2000 4158.00 4153.74 64.00
2819 32.2100 4141.00 4152.47 64.00
2820 32.2200 4099.00 4151.68 64.00
2821 32.2300 4134.00 4151.37 64.00
2822 32.2400 4121.00 4151.49 64.00
2823 32.2500 4114.00 4151.94 64.00
2824 32.2600 4123.00 4152.51 64.00
2825 32.2700 4153.00 4152.82 64.00
2826 32.2800 4101.00 4152.53 64.00
2827 32.2900 4134.00 4151.65 64.00
2828 32.3000 4137.00 4150.48 64.00
2829 32.3100 4120.00 4149.35 64.00
2830 32.3200 4120.00 4148.41 64.00
2831 32.3300 4129.00 4147.70 64.00
2832 32.3400 4076.00 4147.15 64.00
2833 32.3500 4123.00 4146.87 64.00
2834 32.3600 4123.00 4146.75 64.00
2835 32.3700 4152.00 4146.65 64.00
2836 32.3800 4138.00 4146.72 64.00
2837 32.3900 4145.00 4146.87 64.00
2838 32.4000 4088.00 4147.07 64.00
2839 32.4100 4114.00 4147.33 64.00
2840 32.4200 4102.00 4147.65 64.00
2841 32.4300 4116.00 4148.01 64.00
2842 32.4400 4127.00 4148.43 64.00
2843 32.4500 4128.00 4148.90 64.00
2844 32.4600 4107.00 4149.45 64.00
2845 32.4700 4161.00 4150.06 65.00
2846 32.4800 4116.00 4150.76 64.00
2847 32.4900 4113.00 4151.55 64.00
2848 32.5000 4133.00 4152.42 64.00
2849 32.5100 4138.00 4153.47 64.00
2850 32.5200 4100.00 4154.69 64.00
2851 32.5300 4118.00 4156.10 64.00
2852 32.5400 4086.00 4157.77 64.00
2853 32.5500 4127.00 4159.76 64.00
2854 32.5600 4096.00 4162.16 64.00
2855 32.5700 4136.00 4165.09 64.00
2856 32.5800 4098.00 4168.74 64.00
2857 32.5900 4149.00 4173.39 64.00
2858 32.6000 4115.00 4179.49 64.00
2859 32.6100 4131.00 4187.72 64.00
2860 32.6200 4150.00 4199.09 64.00
2861 32.6300 4192.00 4214.92 65.00
2862 32.6400 4142.00 4236.75 64.00
2863 32.6500 4239.00 4266.00 65.00
2864 32.6600 4238.00 4303.47 65.00
2865 32.6700 4261.00 4348.41 65.00
2866 32.6800 4333.00 4397.01 66.00
2867 32.6900 4362.00 4440.46 66.00
2868 32.7000 4373.00 4465.80 66.00
2869 32.7100 4388.00 4463.90 66.00
2870 32.7200 4340.00 4437.40 66.00
2871 32.7300 4302.00 4397.86 66.00
2872 32.7400 4271.00 4356.60 65.00
2873 32.7500 4224.00 4319.85 65.00
2874 32.7600 4175.00 4289.74 65.00
2875 32.7700 4153.00 4266.28 64.00
2876 32.7800 4192.00 4248.56 65.00
2877 32.7900 4124.00 4235.24 64.00
2878 32.8000 4174.00 4224.82 65.00
2879 32.8100 4136.00 4216.17 64.00
2880 32.8200 4130.00 4208.69 64.00
2881 32.8300 4114.00 4202.24 64.00
2882 32.8400 4144.00 4196.85 64.00
2883 32.8500 4144.00 4192.78 64.00
2884 32.8600 4159.00 4189.90 64.00
2885 32.8700 4130.00 4188.48 64.00
2886 32.8800 4106.00 4188.80 64.00
2887 32.8900 4100.00 4191.38 64.00
2888 32.9000 4127.00 4197.08 64.00
2889 32.9100 4116.00 4207.27 64.00
2890 32.9200 4162.00 4223.68 65.00
2891 32.9300 4192.00 4248.14 65.00
2892 32.9400 4193.00 4281.77 65.00
2893 32.9500 4238.00 4323.51 65.00
2894 32.9600 4292.00 4367.40 66.00
2895 32.9700 4342.00 4399.60 66.00
2896 32.9800 4329.00 4405.14 66.00
2897 32.9900 4330.00 4385.16 66.00
2898 33.0000 4274.00 4355.88 65.00
2899 33.0100 4257.00 4331.18 65.00
2900 33.0200 4214.00 4316.43 65.00
2901 33.0300 4226.00 4311.04 65.00
2902 33.0400 4259.00 4310.83 65.00
2903 33.0500 4248.00 4309.61 65.00
2904 33.0600 4203.00 4301.98 65.00
2905 33.0700 4213.00 4286.40 65.00
2906 33.0800 4197.00 4265.71 65.00
2907 33.0900 4143.00 4243.78 64.00
2908 33.1000 4163.00 4223.47 65.00
2909 33.1100 4128.00 4206.13 64.00
2910 33.1200 4112.00 4192.13 64.00
2911 33.1300 4103.00 4181.33 64.00
2912 33.1400 4099.00 4173.23 64.00
2913 33.1500 4087.00 4167.30 64.00
2914 33.1600 4101.00 4162.92 64.00
2915 33.1700 4131.00 4159.80 64.00
2916 33.1800 4049.00 4157.51 64.00
2917 33.1900 4070.00 4155.83 64.00
2918 33.2000 4095.00 4154.61 64.00
2919 33.2100 4090.00 4153.77 64.00
2920 33.2200 4092.00 4153.27 64.00
2921 33.2300 4078.00 4153.11 64.00
2922 33.2400 4081.00 4153.31 64.00
2923 33.2500 4074.00 4153.94 64.00
2924 33.2600 4069.00 4155.10 64.00
2925 33.2700 4085.00 4156.92 64.00
2926 33.2800 4122.00 4159.55 64.00
2927 33.2900 4094.00 4163.13 64.00
2928 33.3000 4074.00 4167.78 64.00
2929 33.3100 4110.00 4173.64 64.00
2930 33.3200 4106.00 4180.41 64.00
2931 33.3300 4126.00 4187.86 64.00
2932 33.3400 4122.00 4195.81 64.00
2933 33.3500 4144.00 4204.94 64.00
2934 33.3600 4096.00 4216.79 64.00
2935 33.3700 4139.00 4232.94 64.00
2936 33.3800 4163.00 4254.04 65.00
2937 33.3900 4183.00 4279.19 65.00
2938 33.4000 4242.00 4304.98 65.00
2939 33.4100 4283.00 4325.16 65.00
2940 33.4200 4261.00 4333.05 65.00
2941 33.4300 4268.00 4328.08 65.00
2942 33.4400 4230.00 4316.08 65.00
2943 33.4500 4206.00 4304.61 65.00
2944 33.4600 4265.00 4298.58 65.00
2945 33.4700 4251.00 4300.17 65.00
2946 33.4800 4252.00 4309.65 65.00
2947 33.4900 4266.00 4325.98 65.00
2948 33.5000 4256.00 4346.93 65.00
2949 33.5100 4309.00 4369.00 66.00
2950 33.5200 4351.00 4387.79 66.00
2951 33.5300 4377.00 4399.22 66.00
2952 33.5400 4324.00 4401.76 66.00
2953 33.5500 4349.00 4396.66 66.00
2954 33.5600 4307.00 4386.07 66.00
2955 33.5700 4287.00 4371.89 65.00
2956 33.5800 4291.00 4356.19 66.00
2957 33.5900 4270.00 4341.76 65.00
2958 33.6000 4215.00 4332.02 65.00
2959 33.6100 4265.00 4330.69 65.00
2960 33.6200 4279.00 4341.44 65.00
2961 33.6300 4288.00 4367.38 65.00
2962 33.6400 4346.00 4410.27 66.00
2963 33.6500 4413.00 4468.63 66.00
2964 33.6600 4467.00 4534.42 67.00
2965 33.6700 4550.00 4588.48 67.00
2966 33.6800 4528.00 4605.02 67.00
2967 33.6900 4523.00 4574.05 67.00
2968 33.7000 4502.00 4511.72 67.00
2969 33.7100 4445.00 4440.25 67.00
2970 33.7200 4353.00 4372.72 66.00
2971 33.7300 4310.00 4314.17 66.00
2972 33.7400 4240.00 4266.12 65.00
2973 33.7500 4218.00 4227.86 65.00
2974 33.7600 4194.00 4198.20 65.00
2975 33.7700 4168.00 4175.21 65.00
2976 33.7800 4109.00 4157.33 64.00
2977 33.7900 4130.00 4143.32 64.00
2978 33.8000 4108.00 4132.30 64.00
2979 33.8100 4097.00 4123.62 64.00
2980 33.8200 4111.00 4116.80 64.00
2981 33.8300 4102.00 4111.72 64.00
2982 33.8400 4098.00 4107.66 64.00
2983 33.8500 4076.00 4104.61 64.00
2984 33.8600 4095.00 4102.29 64.00
2985 33.8700 4129.00 4100.36 64.00
2986 33.8800 4145.00 4098.33 64.00
2987 33.8900 4071.00 4095.72 64.00
2988 33.9000 4092.00 4092.25 64.00
2989 33.9100 4079.00 4088.10 64.00
2990 33.9200 4107.00 4083.72 64.00
2991 33.9300 4133.00 4079.51 64.00
2992 33.9400 4098.00 4075.63 64.00
2993 33.9500 4092.00 4072.14 64.00
2994 33.9600 4066.00 4069.00 64.00
2995 33.9700 4083.00 4066.18 64.00
2996 33.9800 4046.00 4063.60 64.00
2997 33.9900 4073.00 4061.24 64.00
2998 34.0000 4083.00 4059.01 64.00
2999 34.0100 4083.00 4056.97 64.00
3000 34.0200 4064.00 4055.05 64.00
3001 34.0300 4065.00 4053.26 64.00
3002 34.0400 4059.00 4051.57 64.00
3003 34.0500 4023.00 4049.98 63.00
3004 34.0600 4084.00 4048.50 64.00
3005 34.0700 4062.00 4047.21 64.00
3006 34.0800 4087.00 4046.15 64.00
3007 34.0900 4053.00 4045.44 64.00
3008 34.1000 4106.00 4045.16 64.00
3009 34.1100 4089.00 4045.44 64.00
3010 34.1200 4100.00 4046.38 64.00
3011 34.1300 4093.00 4048.01 64.00
3012 34.1400 4104.00 4050.24 64.00
3013 34.1500 4107.00 4052.76 64.00
3014 34.1600 4123.00 4054.96 64.00
3015 34.1700 4128.00 4056.12 64.00
3016 34.1800 4170.00 4055.84 65.00
3017 34.1900 4148.00 4054.42 64.00
3018 34.2000 4118.00 4052.74 64.00
3019 34.2100 4103.00 4051.46 64.00
3020 34.2200 4112.00 4050.78 64.00
3021 34.2300 4095.00 4050.50 64.00
3022 34.2400 4116.00 4050.09 64.00
3023 34.2500 4125.00 4048.89 64.00
3024 34.2600 4110.00 4046.26 64.00
3025 34.2700 4113.00 4041.93 64.00
3026 34.2800 4119.00 4036.14 64.00
3027 34.2900 4112.00 4029.43 64.00
3028 34.3000 4100.00 4022.43 64.00
3029 34.3100 4105.00 4015.61 64.00
3030 34.3200 4069.00 4009.29 64.00
3031 34.3300 4079.00 4003.66 64.00
3032 34.3400 4092.00 3998.81 64.00
3033 34.3500 4088.00 3994.79 64.00
3034 34.3600 4118.00 3991.63 64.00
3035 34.3700 4095.00 3989.34 64.00
3036 34.3800 4080.00 3987.96 64.00
3037 34.3900 4108.00 3987.52 64.00
3038 34.4000 4097.00 3988.12 64.00
3039 34.4100 4087.00 3989.85 64.00
3040 34.4200 4112.00 3992.86 64.00
3041 34.4300 4125.00 3997.28 64.00
3042 34.4400 4047.00 4003.24 64.00
3043 34.4500 4107.00 4010.85 64.00
3044 34.4600 4110.00 4020.18 64.00
3045 34.4700 4124.00 4031.20 64.00
3046 34.4800 4190.00 4043.80 65.00
3047 34.4900 4158.00 4057.68 64.00
loop_
_pd_proc_info_excluded_regions
'from 0.01 to 4.010'
'from 34.49 to 78.048'
loop_
_refln_index_h
_refln_index_k
_refln_index_l
_refln_F_squared_calc
_refln_F_squared_meas
_refln_F_squared_sigma
_refln_observed_status
_refln_d_spacing
2 0 0 713.54 629.55 7.56 o 5.852883
1 0 1 1525.69 1482.55 11.77 o 4.035555
2 1 0 1759.57 1651.96 13.86 o 3.469090
2 0 1 253.46 237.25 2.00 o 3.464849
0 1 1 364.51 417.88 10.49 o 3.042795
1 1 1 31903.83 32043.55 41.88 o 2.944928
4 0 0 55435.49 54816.32 94.57 o 2.926441
3 0 1 9.08 6.89 0.16 o 2.889316
2 1 1 11.83 7.14 2.55 < 2.699752
4 1 0 2049.18 2029.74 18.53 o 2.420597
4 0 1 71.03 72.33 0.58 o 2.419155
3 1 1 16380.55 16420.79 39.38 o 2.399461
0 2 0 39804.86 39910.69 101.92 o 2.153611
0 0 2 37944.20 37977.46 97.82 o 2.149556
1 0 2 361.74 293.82 8.59 o 2.114206
4 1 1 224.63 168.53 5.99 o 2.109241
5 0 1 3997.60 4057.13 44.46 o 2.056055
2 2 0 322.85 377.64 18.34 o 2.021130
2 0 2 368.42 430.03 20.97 o 2.017777
6 0 0 2286.56 2505.15 74.62 o 1.950961
1 2 1 381.68 461.23 12.85 o 1.899988
1 1 2 278.13 337.57 9.28 o 1.897897
3 0 2 581.04 631.63 21.72 o 1.882762
5 1 1 21281.58 21256.81 59.51 o 1.855494
2 2 1 97.94 95.62 3.35 o 1.829081
2 1 2 290.96 286.79 10.25 o 1.827216
6 1 0 1597.45 1820.72 44.28 o 1.777155
6 0 1 108.80 124.01 3.02 o 1.776584
4 2 0 24913.02 24541.12 70.62 o 1.734545
4 0 2 23931.81 23542.51 67.87 o 1.732425
3 2 1 24.54 23.83 0.09 o 1.726718
3 1 2 46.56 44.83 0.22 o 1.725149
6 1 1 48.11 0.00 0.00 < 1.642363
4 2 1 31.14 28.04 1.00 o 1.608555
4 1 2 913.04 821.39 29.44 o 1.607286
5 0 2 63.67 0.00 0.00 < 1.583375
7 0 1 73.17 0.00 0.00 < 1.558501
0 2 2 18492.83 18091.45 106.79 o 1.521397
1 2 2 164.48 133.00 10.63 o 1.508708
5 2 1 1642.36 1540.08 31.53 o 1.487143
5 1 2 390.24 365.85 7.50 o 1.486140
2 2 2 206.53 173.39 5.89 o 1.472464
7 1 1 2942.95 2968.32 24.81 o 1.465515
8 0 0 13384.96 13615.06 114.98 o 1.463221
6 2 0 1319.15 1236.80 36.97 o 1.445887
6 0 2 1509.13 1413.68 42.26 o 1.444658
1 0 3 38.50 26.44 3.94 o 1.422418
3 2 2 264.22 181.31 27.15 o 1.417460
2 3 0 38.71 43.25 3.28 o 1.394400
2 0 3 365.81 369.77 14.50 o 1.391923
8 1 0 2455.76 2596.88 78.80 o 1.385459
8 0 1 90.05 95.41 2.88 o 1.385188
6 2 1 48.04 63.08 2.88 o 1.370455
6 1 2 457.37 601.89 26.88 o 1.369670
0 3 1 71.61 66.00 1.24 o 1.361806
0 1 3 612.52 581.06 6.41 o 1.359755
1 3 1 7463.11 7483.34 28.13 o 1.352683
1 1 3 6923.72 6946.44 26.02 o 1.350673
4 2 2 12133.59 12248.48 47.51 o 1.349876
3 0 3 72.13 73.45 0.33 o 1.345185
2 3 1 2.10 3.05 0.33 o 1.326377
2 1 3 16.40 20.40 2.27 o 1.324481
7 0 2 377.12 440.63 49.29 o 1.319884
8 1 1 65.41 74.34 8.80 o 1.318674
4 3 0 628.19 619.71 6.82 o 1.288970
4 0 3 119.98 119.37 1.23 o 1.287014
3 3 1 3803.27 3786.19 38.65 o 1.285749
3 1 3 3287.92 3276.09 33.53 o 1.284022
5 2 2 32.15 35.90 2.66 o 1.275694
7 2 1 133.94 253.60 42.39 o 1.262577
7 1 2 0.65 1.23 0.22 o 1.261963
9 0 1 3164.72 3651.77 116.00 o 1.244915
4 3 1 48.78 52.19 5.17 o 1.234670
4 1 3 427.27 456.56 45.16 o 1.233141
5 0 3 523.86 848.66 79.16 o 1.222243
8 2 0 6833.09 7036.86 77.50 o 1.210299
8 0 2 6738.82 6941.87 76.32 o 1.209578
6 2 2 902.49 927.87 12.51 o 1.199730
9 1 1 6675.29 6869.91 71.32 o 1.195963
1 3 2 55.40 68.80 4.32 o 1.187753
1 2 3 1.24 1.58 0.13 o 1.186901
5 3 1 5925.19 5981.01 48.05 o 1.177145
5 1 3 5885.91 5936.97 47.58 o 1.175819
10 0 0 1394.09 1362.16 42.34 o 1.170577
2 3 2 2.00 1.95 0.07 o 1.169824
2 2 3 166.74 169.15 5.22 o 1.169011
8 2 1 44.06 48.07 1.81 o 1.165012
8 1 2 1224.28 1337.59 50.39 o 1.164530
6 3 0 129.62 170.73 24.38 o 1.156363
6 0 3 204.07 267.02 43.86 o 1.154950
3 3 2 8.15 8.76 3.21 < 1.141667
3 2 3 102.22 107.90 40.87 < 1.140910
10 1 0 1031.08 883.36 102.28 o 1.129604
10 0 1 27.78 23.35 2.73 o 1.129457
7 2 2 181.24 115.33 26.64 o 1.125352
6 3 1 9.93 0.00 0.00 < 1.116674
6 1 3 79.52 0.00 0.00 < 1.115542
9 0 2 0.27 0.00 0.00 < 1.112791
4 3 2 327.82 94.51 51.27 < 1.105456
4 2 3 60.06 17.35 9.39 < 1.104769
10 1 1 35.32 0.00 0.00 < 1.092520
7 0 3 85.26 0.00 0.00 < 1.088147
9 2 1 1625.39 1437.86 35.62 o 1.077797
9 1 2 229.21 203.48 4.97 o 1.077415
0 4 0 5576.43 4898.26 116.18 o 1.076805
0 0 4 4671.53 4107.67 97.78 o 1.074778
1 0 4 153.88 123.41 6.67 o 1.070276
5 3 2 88.91 34.09 10.00 o 1.063595
5 2 3 231.16 93.28 24.57 o 1.062984
2 4 0 69.19 61.93 1.32 o 1.059031
2 0 4 94.18 83.02 1.67 o 1.057103
7 3 1 672.00 594.98 11.93 o 1.055958
7 1 3 523.66 463.99 9.29 o 1.055000
8 2 2 3581.12 3184.34 63.91 o 1.054621
1 4 1 0.15 0.08 0.09 < 1.040405
1 1 4 96.33 52.14 24.48 < 1.038690
3 0 4 233.58 148.92 54.21 < 1.036188
11 0 1 15.73 13.36 4.40 o 1.032985
10 2 0 873.57 876.94 55.77 o 1.028470
2 4 1 9.12 8.91 0.57 o 1.028292
10 0 2 1007.03 1011.99 62.35 o 1.028028
2 1 4 36.36 35.25 2.29 o 1.026636
8 3 0 883.71 839.25 60.02 o 1.024799
8 0 3 185.25 172.91 14.33 o 1.023815
6 3 2 25.63 25.21 4.50 o 1.018360
6 2 3 98.09 94.74 16.00 o 1.017823
0 3 3 155.77 148.92 9.02 o 1.014265
4 4 0 3724.61 3593.90 67.46 o 1.010565
1 3 3 2109.26 2042.01 40.19 o 1.010479
3 4 1 114.55 110.77 2.10 o 1.009010
4 0 4 3195.30 3089.72 58.11 o 1.008889
3 1 4 15.34 14.85 0.28 o 1.007446
11 1 1 145.86 144.03 12.59 o 1.004501
10 2 1 13.69 17.38 1.45 o 1.000246
10 1 2 478.88 606.38 49.36 o 0.999941
2 3 3 3.55 4.45 0.35 o 0.999370
8 3 1 16.29 21.32 2.18 o 0.996869
8 1 3 153.91 199.62 24.41 o 0.996063
9 2 2 0.24 0.65 0.15 o 0.988615
4 4 1 3.84 4.44 0.31 o 0.983752
4 1 4 132.23 153.23 10.75 o 0.982302
3 3 3 954.87 1098.68 73.54 o 0.981643
5 0 4 41.08 53.41 4.93 o 0.976766
12 0 0 1651.02 2374.59 292.48 o 0.975480
7 3 2 0.41 0.82 0.19 o 0.971680
7 2 3 91.81 200.05 38.40 o 0.971214
9 0 3 712.55 823.15 26.28 o 0.963105
0 4 2 3013.15 3484.43 110.87 o 0.962761
0 2 4 2646.20 3062.18 97.12 o 0.961673
1 4 2 21.48 24.93 0.90 o 0.959521
1 2 4 80.88 95.40 4.31 o 0.958444
4 3 3 111.72 144.76 11.15 o 0.958338
5 4 1 145.06 190.70 15.99 o 0.953902
11 0 2 131.51 166.41 15.93 o 0.953691
5 1 4 166.02 218.14 18.66 o 0.952580
12 1 0 952.66 1206.32 113.11 o 0.951387
12 0 1 40.32 51.24 4.77 o 0.951299
2 4 2 46.77 60.23 5.54 o 0.949994
2 2 4 56.90 73.63 7.17 o 0.948949
6 4 0 314.40 325.45 7.99 o 0.942742
6 0 4 435.38 451.12 10.83 o 0.941381
9 3 1 2126.03 2197.22 52.95 o 0.940572
9 1 3 2293.54 2369.88 57.11 o 0.939895
3 4 2 32.86 35.11 2.30 o 0.934728
3 2 4 120.48 128.70 6.38 o 0.933732
11 2 1 26.95 28.53 1.26 o 0.931386
11 1 2 8.15 8.62 0.37 o 0.931139
5 3 3 1900.72 2012.33 85.78 o 0.930679
12 1 1 10.68 11.51 0.50 o 0.928913
10 2 2 626.93 686.08 35.74 o 0.927747
8 3 2 470.81 539.75 43.95 o 0.925050
8 2 3 96.92 112.01 10.16 o 0.924648
6 4 1 5.27 6.21 0.88 o 0.920862
6 1 4 1.43 1.30 0.21 o 0.919672
4 4 2 2034.76 1971.98 64.09 o 0.914540
4 2 4 1816.54 1760.46 57.22 o 0.913608
10 3 0 202.83 191.52 52.21 o 0.907251
10 0 3 70.93 62.40 20.10 o 0.906568
7 0 4 176.36 140.46 54.13 < 0.904140
6 3 3 18.64 7.42 7.07 < 0.899917
5 4 2 5.19 3.48 0.50 o 0.890410
5 2 4 22.83 14.73 2.13 o 0.889549
12 2 0 874.24 560.58 81.16 o 0.888578
12 0 2 918.30 583.60 84.55 o 0.888292
10 3 1 8.60 5.42 0.79 o 0.887700
10 1 3 72.12 45.19 6.61 o 0.887131
7 4 1 116.89 72.13 10.76 o 0.885914
7 1 4 0.20 0.12 0.02 o 0.884855
13 0 1 1209.45 756.91 128.20 o 0.881320
9 3 2 60.46 36.82 6.17 o 0.879540
9 2 3 388.87 239.62 40.41 o 0.879194
11 2 2 67.20 37.66 9.85 o 0.872014
12 2 1 21.25 13.46 2.19 o 0.870185
12 1 2 489.56 322.54 48.13 o 0.869984
8 4 0 1114.64 831.03 68.50 o 0.867273
7 3 3 135.00 98.40 10.26 o 0.867218
8 0 4 1042.97 844.59 54.33 o 0.866212
13 1 1 1062.29 911.70 66.29 o 0.863431
6 4 2 215.77 181.36 12.66 o 0.863359
6 2 4 266.31 227.69 16.53 o 0.862574
1 4 3 10.89 7.44 4.01 < 0.858541
1 3 4 23.44 17.47 9.90 < 0.858091
1 0 5 18.42 15.31 5.64 < 0.857512
11 0 3 5.18 8.91 4.68 < 0.854357
2 5 0 36.33 74.12 21.50 o 0.852263
2 4 3 18.76 40.75 7.04 o 0.851696
2 3 4 46.76 101.07 16.10 o 0.851256
2 0 5 47.80 105.65 24.75 o 0.850692
8 4 1 6.26 14.20 2.67 o 0.850146
8 1 4 187.09 432.86 86.42 o 0.849210
0 5 1 5.19 10.68 2.48 o 0.844654
