#------------------------------------------------------------------------------
#$Date: 2016-06-17 04:50:27 +0300 (Fri, 17 Jun 2016) $
#$Revision: 183633 $
#$URL: file:///home/coder/svn-repositories/cod/cif/2/10/75/2107508.cif $
#------------------------------------------------------------------------------
#
# This file is available in the Crystallography Open Database (COD),
# http://www.crystallography.net/. The original data for this entry
# were provided by IUCr Journals, http://journals.iucr.org/.
#
# The file may be used within the scientific community so long as
# proper attribution is given to the journal article from which the
# data were obtained.
#
data_2107508
loop_
_publ_author_name
'Sist, Mattia'
'Zhang, Jiawei'
'Brummerstedt Iversen, Bo'
_publ_section_title
;
 Crystal structure and phase transition of thermoelectric SnSe
;
_journal_coeditor_code           GW5043
_journal_issue                   3
_journal_name_full               'Acta Crystallographica Section B'
_journal_page_first              310
_journal_page_last               316
_journal_paper_doi               10.1107/S2052520616003334
_journal_volume                  72
_journal_year                    2016
_chemical_formula_moiety         'Se1 Sn0.9816'
_chemical_formula_sum            'Se Sn0.9816'
_chemical_formula_weight         195.50
_chemical_name_common            'Tin Selenide'
_space_group_IT_number           62
_symmetry_cell_setting           orthorhombic
_symmetry_Int_Tables_number      62
_symmetry_space_group_name_Hall  '-P 2ac 2n'
_symmetry_space_group_name_H-M   'P n m a'
_cell_angle_alpha                90
_cell_angle_beta                 90
_cell_angle_gamma                90
_cell_formula_units_Z            4
_cell_length_a                   11.44220(9)
_cell_length_b                   4.13054(4)
_cell_length_c                   4.44900(5)
_cell_measurement_temperature    100(5)
_cell_volume                     210.271(4)
_computing_structure_refinement  'Jana2006, (Petricek,2014)'
_diffrn_ambient_temperature      100(5)
_diffrn_detector_type            'Image plate'
_diffrn_measurement_device_type  BL44B2
_diffrn_radiation_probe          x-ray
_diffrn_radiation_type           Synchrotron,monochromatic
_diffrn_radiation_wavelength     0.50023
_diffrn_source_type              'Spring8, BL44B2 beamline'
_exptl_absorpt_coefficient_mu    11.305
_exptl_absorpt_correction_type   none
_exptl_crystal_density_diffrn    6.176
_exptl_crystal_F_000             332.3
_pd_char_colour                  metallic_grey
_pd_meas_2theta_range_inc        0.01
_pd_meas_2theta_range_max        78.000
_pd_meas_2theta_range_min        0.010
_pd_meas_number_of_points        7800
_pd_proc_2theta_range_inc        0.01
_pd_proc_2theta_range_max        62.2
_pd_proc_2theta_range_min        4.38
_pd_proc_ls_background_function
'Manual background combined with 8 Chebyshev polynoms'
_pd_proc_ls_pref_orient_corr     none
_pd_proc_ls_profile_function     Pseudo-Voigt
_pd_proc_ls_prof_R_factor        0.0152
_pd_proc_ls_prof_wR_expected     0.0097
_pd_proc_ls_prof_wR_factor       0.0223
_pd_spec_mounting                capillary
_pd_spec_mount_mode              transmission
_refine_ls_goodness_of_fit_all   2.30
_refine_ls_number_constraints    0
_refine_ls_number_parameters     32
_refine_ls_number_restraints     0
_refine_ls_R_factor_all          0.0115
_refine_ls_R_factor_gt           0.0115
_refine_ls_shift/su_max          0.0353
_refine_ls_shift/su_mean         0.0047
_refine_ls_weighting_scheme      sigma
_refine_ls_wR_factor_all         0.0109
_refine_ls_wR_factor_gt          0.0109
_cod_data_source_file            gw5043sup1.cif
_cod_data_source_block           100
_cod_depositor_comments
;
The following automatic conversions were performed:

'_diffrn_radiation_probe' value 'X-ray' changed to 'x-ray' according
to
/usr/data/users/saulius/crontab/automatic-downloads/rss-feeds/IUCr/lib/dictionaries/cif_core.dic
dictionary named 'cif_core.dic' version 2.4.2 from 2011-04-26.

Automatic conversion script
Id: cif_fix_values 4268 2015-11-12 08:31:59Z antanas 

 Adding full bibliography for 2107508--2107520.cif.
;
_cod_original_formula_sum        'Se1 Sn0.9816'
_cod_database_code               2107508
_cod_database_fobs_code          2107508
loop_
_space_group_symop_id
_space_group_symop_operation_xyz
1 x,y,z
2 -x+1/2,-y,z+1/2
3 -x,y+1/2,-z
4 x+1/2,-y+1/2,-z+1/2
5 -x,-y,-z
6 x+1/2,y,-z+1/2
7 x,-y+1/2,z
8 -x+1/2,y+1/2,z+1/2
loop_
_atom_site_label
_atom_site_type_symbol
_atom_site_fract_x
_atom_site_fract_y
_atom_site_fract_z
_atom_site_adp_type
_atom_site_U_iso_or_equiv
_atom_site_site_symmetry_multiplicity
_atom_site_occupancy
_atom_site_calc_flag
Sn Sn 0.11797(3) 0.25 0.10576(7) Uani 0.00474(11) 4 0.9816 d
Se Se 0.85523(4) 0.25 0.48229(9) Uani 0.00499(16) 4 1 d
loop_
_atom_site_aniso_label
_atom_site_aniso_type_symbol
_atom_site_aniso_U_11
_atom_site_aniso_U_22
_atom_site_aniso_U_33
_atom_site_aniso_U_12
_atom_site_aniso_U_13
_atom_site_aniso_U_23
Sn Sn 0.00419(16) 0.0047(2) 0.0053(2) 0 -0.00112(18) 0
Se Se 0.0052(2) 0.0048(3) 0.0050(3) 0 -0.0004(2) 0
loop_
_atom_type_symbol
_atom_type_scat_dispersion_real
_atom_type_scat_dispersion_imag
_atom_type_scat_source
Se 0.2899 1.2209 'International Tables Vol C tables 4.2.6.8 and 6.1.1.1'
Sn -1.5316 0.7679 'International Tables Vol C tables 4.2.6.8 and 6.1.1.1'
loop_
_geom_angle_atom_site_label_1
_geom_angle_atom_site_label_2
_geom_angle_atom_site_label_3
_geom_angle_site_symmetry_1
_geom_angle_site_symmetry_2
_geom_angle_site_symmetry_3
_geom_angle
Se Sn Se 4_455 1_555 3_656 89.140
Se Sn Se 4_455 1_555 3_655 78.329
Se Sn Se 3_645 1_555 3_655 76.195
Se Sn Se 3_646 1_555 3_656 96.042
Se Sn Se 3_656 1_555 3_655 92.685
Se Sn Se 4_455 1_555 1_455 159.083
Se Sn Sn 4_455 1_555 3_545 136.012
loop_
_geom_bond_atom_site_label_1
_geom_bond_atom_site_label_2
_geom_bond_site_symmetry_1
_geom_bond_site_symmetry_2
_geom_bond_distance
Sn Se 1_555 4_455 2.743
Sn Se 1_555 3_656 2.778
Sn Se 1_555 3_655 3.347
Sn Se 1_555 1_455 3.442
Sn Sn 1_555 3_545 3.527
Sn Se 1_555 1_454 4.090
loop_
_pd_proc_point_id
_pd_proc_2theta_corrected
_pd_proc_intensity_net
_pd_calc_intensity_net
_pd_proc_ls_weight
1 4.3900 8010.00 8014.32 89.00
2 4.4000 8009.00 8015.59 89.00
3 4.4100 8046.00 8016.86 90.00
4 4.4200 8066.00 8018.11 90.00
5 4.4300 8036.00 8019.35 90.00
6 4.4400 8026.00 8020.58 90.00
7 4.4500 8011.00 8021.81 90.00
8 4.4600 8024.00 8023.02 90.00
9 4.4700 8091.00 8024.23 90.00
10 4.4800 8051.00 8025.42 90.00
11 4.4900 8017.00 8026.61 90.00
12 4.5000 7980.00 8027.79 89.00
13 4.5100 8010.00 8028.96 89.00
14 4.5200 8009.00 8030.13 89.00
15 4.5300 8089.00 8031.28 90.00
16 4.5400 7993.00 8032.44 89.00
17 4.5500 7982.00 8033.58 89.00
18 4.5600 8040.00 8034.72 90.00
19 4.5700 8040.00 8035.85 90.00
20 4.5800 8015.00 8036.99 90.00
21 4.5900 8119.00 8038.11 90.00
22 4.6000 8026.00 8039.24 90.00
23 4.6100 8032.00 8040.36 90.00
24 4.6200 8031.00 8041.48 90.00
25 4.6300 8032.00 8042.61 90.00
26 4.6400 8058.00 8043.73 90.00
27 4.6500 8111.00 8044.86 90.00
28 4.6600 8138.00 8046.00 90.00
29 4.6700 8086.00 8047.14 90.00
30 4.6800 8152.00 8048.29 90.00
31 4.6900 8083.00 8049.46 90.00
32 4.7000 8136.00 8050.64 90.00
33 4.7100 8165.00 8051.84 90.00
34 4.7200 8100.00 8053.07 90.00
35 4.7300 8053.00 8054.32 90.00
36 4.7400 8031.00 8055.62 90.00
37 4.7500 8016.00 8056.95 90.00
38 4.7600 8025.00 8058.33 90.00
39 4.7700 8067.00 8059.78 90.00
40 4.7800 8110.00 8061.30 90.00
41 4.7900 7983.00 8062.91 89.00
42 4.8000 8036.00 8064.64 90.00
43 4.8100 7965.00 8066.49 89.00
44 4.8200 8020.00 8068.52 90.00
45 4.8300 8074.00 8070.75 90.00
46 4.8400 8115.00 8073.24 90.00
47 4.8500 8053.00 8076.77 90.00
48 4.8600 8146.00 8080.01 90.00
49 4.8700 8054.00 8083.79 90.00
50 4.8800 8092.00 8088.27 90.00
51 4.8900 8143.00 8093.70 90.00
52 4.9000 8140.00 8100.42 90.00
53 4.9100 8072.00 8108.94 90.00
54 4.9200 8134.00 8120.10 90.00
55 4.9300 8170.00 8135.50 90.00
56 4.9400 8265.00 8159.91 91.00
57 4.9500 8430.00 8211.49 92.00
58 4.9600 8588.00 8351.35 93.00
59 4.9700 8996.00 8726.17 95.00
60 4.9800 9691.00 9541.05 98.00
61 4.9900 10781.00 10841.00 104.00
62 5.0000 11998.00 12196.70 110.00
63 5.0100 12439.00 12707.90 112.00
64 5.0200 11485.00 11907.10 107.00
65 5.0300 10024.00 10494.80 100.00
66 5.0400 8997.00 9296.85 95.00
67 5.0500 8458.00 8606.25 92.00
68 5.0600 8186.00 8308.45 90.00
69 5.0700 8129.00 8200.90 90.00
70 5.0800 8032.00 8160.29 90.00
71 5.0900 7971.00 8140.01 89.00
72 5.1000 7972.00 8126.98 89.00
73 5.1100 7997.00 8117.65 89.00
74 5.1200 7944.00 8110.71 89.00
75 5.1300 7993.00 8105.43 89.00
76 5.1400 8001.00 8101.35 89.00
77 5.1500 7938.00 8098.15 89.00
78 5.1600 7971.00 8095.62 89.00
79 5.1700 7976.00 8093.58 89.00
80 5.1800 8023.00 8091.94 90.00
81 5.1900 8033.00 8090.61 90.00
82 5.2000 7978.00 8089.53 89.00
83 5.2100 7977.00 8088.64 89.00
84 5.2200 7963.00 8087.91 89.00
85 5.2300 7968.00 8087.31 89.00
86 5.2400 7987.00 8086.81 89.00
87 5.2500 7994.00 8086.41 89.00
88 5.2600 7988.00 8086.08 89.00
89 5.2700 7943.00 8085.81 89.00
90 5.2800 7998.00 8085.59 89.00
91 5.2900 7924.00 8085.41 89.00
92 5.3000 7932.00 8085.27 89.00
93 5.3100 7968.00 8085.16 89.00
94 5.3200 7979.00 8085.07 89.00
95 5.3300 7907.00 8085.01 89.00
96 5.3400 7932.00 8084.96 89.00
97 5.3500 7937.00 8084.93 89.00
98 5.3600 7971.00 8084.91 89.00
99 5.3700 7936.00 8084.90 89.00
100 5.3800 7989.00 8084.89 89.00
101 5.3900 7938.00 8084.90 89.00
102 5.4000 7973.00 8084.90 89.00
103 5.4100 7904.00 8084.91 89.00
104 5.4200 7969.00 8084.93 89.00
105 5.4300 8013.00 8084.94 90.00
106 5.4400 7939.00 8084.95 89.00
107 5.4500 7920.00 8084.97 89.00
108 5.4600 7934.00 8084.98 89.00
109 5.4700 7958.00 8084.99 89.00
110 5.4800 7976.00 8085.00 89.00
111 5.4900 7995.00 8085.00 89.00
112 5.5000 7922.00 8085.00 89.00
113 5.5100 7927.00 8085.00 89.00
114 5.5200 7932.00 8085.00 89.00
115 5.5300 7921.00 8084.99 89.00
116 5.5400 7941.00 8084.97 89.00
117 5.5500 8033.00 8084.95 90.00
118 5.5600 7982.00 8084.93 89.00
119 5.5700 7900.00 8084.90 89.00
120 5.5800 7955.00 8084.87 89.00
121 5.5900 7937.00 8084.83 89.00
122 5.6000 8006.00 8084.78 89.00
123 5.6100 7983.00 8084.73 89.00
124 5.6200 7956.00 8084.67 89.00
125 5.6300 7913.00 8084.61 89.00
126 5.6400 7910.00 8084.54 89.00
127 5.6500 7941.00 8084.47 89.00
128 5.6600 7943.00 8084.39 89.00
129 5.6700 7961.00 8084.30 89.00
130 5.6800 7940.00 8084.21 89.00
131 5.6900 7934.00 8084.11 89.00
132 5.7000 7931.00 8084.00 89.00
133 5.7100 7949.00 8083.89 89.00
134 5.7200 7939.00 8083.77 89.00
135 5.7300 7987.00 8083.65 89.00
136 5.7400 7969.00 8083.52 89.00
137 5.7500 7931.00 8083.38 89.00
138 5.7600 7959.00 8083.24 89.00
139 5.7700 7869.00 8083.09 89.00
140 5.7800 7960.00 8082.93 89.00
141 5.7900 7973.00 8082.77 89.00
142 5.8000 7975.00 8082.60 89.00
143 5.8100 7930.00 8082.43 89.00
144 5.8200 7901.00 8082.24 89.00
145 5.8300 7915.00 8082.06 89.00
146 5.8400 7963.00 8081.86 89.00
147 5.8500 7974.00 8081.67 89.00
148 5.8600 7952.00 8081.46 89.00
149 5.8700 7879.00 8081.25 89.00
150 5.8800 7911.00 8081.03 89.00
151 5.8900 7905.00 8080.81 89.00
152 5.9000 7929.00 8080.58 89.00
153 5.9100 7961.00 8080.35 89.00
154 5.9200 7936.00 8080.11 89.00
155 5.9300 7939.00 8079.15 89.00
156 5.9400 7974.00 8078.19 89.00
157 5.9500 7902.00 8077.23 89.00
158 5.9600 7940.00 8076.26 89.00
159 5.9700 7999.00 8075.28 89.00
160 5.9800 7960.00 8074.30 89.00
161 5.9900 7905.00 8073.31 89.00
162 6.0000 7948.00 8072.32 89.00
163 6.0100 7962.00 8071.33 89.00
164 6.0200 7971.00 8070.33 89.00
165 6.0300 8002.00 8069.32 89.00
166 6.0400 7945.00 8068.31 89.00
167 6.0500 7884.00 8067.30 89.00
168 6.0600 7916.00 8066.28 89.00
169 6.0700 7940.00 8065.26 89.00
170 6.0800 7971.00 8064.24 89.00
171 6.0900 7977.00 8063.21 89.00
172 6.1000 8001.00 8062.18 89.00
173 6.1100 7901.00 8061.15 89.00
174 6.1200 7959.00 8060.11 89.00
175 6.1300 7914.00 8059.07 89.00
176 6.1400 7976.00 8058.03 89.00
177 6.1500 7987.00 8056.99 89.00
178 6.1600 7969.00 8055.95 89.00
179 6.1700 7927.00 8054.90 89.00
180 6.1800 7946.00 8061.56 89.00
181 6.1900 7890.00 8060.59 89.00
182 6.2000 7942.00 8059.62 89.00
183 6.2100 8004.00 8058.66 89.00
184 6.2200 7978.00 8057.69 89.00
185 6.2300 7945.00 8056.73 89.00
186 6.2400 7957.00 8055.77 89.00
187 6.2500 7916.00 8054.82 89.00
188 6.2600 7960.00 8053.86 89.00
189 6.2700 7966.00 8052.92 89.00
190 6.2800 7975.00 8051.97 89.00
191 6.2900 7935.00 8051.04 89.00
192 6.3000 8005.00 8050.11 89.00
193 6.3100 7968.00 8049.19 89.00
194 6.3200 8022.00 8048.27 90.00
195 6.3300 8030.00 8047.10 90.00
196 6.3400 8009.00 8046.21 89.00
197 6.3500 7961.00 8045.33 89.00
198 6.3600 8002.00 8044.47 89.00
199 6.3700 7916.00 8043.62 89.00
200 6.3800 7973.00 8042.78 89.00
201 6.3900 7989.00 8041.97 89.00
202 6.4000 8022.00 8041.17 90.00
203 6.4100 7962.00 8040.40 89.00
204 6.4200 8003.00 8039.65 89.00
205 6.4300 7994.00 8038.92 89.00
206 6.4400 7998.00 8038.23 89.00
207 6.4500 8068.00 8037.56 90.00
208 6.4600 8024.00 8036.94 90.00
209 6.4700 7947.00 8036.35 89.00
210 6.4800 7937.00 8035.80 89.00
211 6.4900 7948.00 8035.30 89.00
212 6.5000 8005.00 8034.85 89.00
213 6.5100 8071.00 8034.46 90.00
214 6.5200 8037.00 8034.14 90.00
215 6.5300 7965.00 8033.88 89.00
216 6.5400 7961.00 8033.71 89.00
217 6.5500 7966.00 8033.62 89.00
218 6.5600 7959.00 8033.64 89.00
219 6.5700 8056.00 8033.76 90.00
220 6.5800 7988.00 8034.01 89.00
221 6.5900 7982.00 8034.41 89.00
222 6.6000 7941.00 8034.96 89.00
223 6.6100 7952.00 8035.69 89.00
224 6.6200 7970.00 8036.63 89.00
225 6.6300 8035.00 8037.81 90.00
226 6.6400 8031.00 8039.25 90.00
227 6.6500 7951.00 8041.01 89.00
228 6.6600 8042.00 8043.13 90.00
229 6.6700 7946.00 8045.67 89.00
230 6.6800 8001.00 8048.70 89.00
231 6.6900 8038.00 8052.31 90.00
232 6.7000 8028.00 8056.61 90.00
233 6.7100 7977.00 8064.04 89.00
234 6.7200 8040.00 8070.17 90.00
235 6.7300 8044.00 8077.48 90.00
236 6.7400 8060.00 8086.25 90.00
237 6.7500 8138.00 8096.82 90.00
238 6.7600 8179.00 8109.64 90.00
239 6.7700 8068.00 8125.32 90.00
240 6.7800 8135.00 8144.71 90.00
241 6.7900 8143.00 8169.12 90.00
242 6.8000 8227.00 8200.92 91.00
243 6.8100 8275.00 8244.85 91.00
244 6.8200 8442.00 8310.90 92.00
245 6.8300 8451.00 8419.42 92.00
246 6.8400 8667.00 8607.39 93.00
247 6.8500 8971.00 8932.07 95.00
248 6.8600 9567.00 9463.88 98.00
249 6.8700 10311.00 10261.70 102.00
250 6.8800 11359.00 11330.40 107.00
251 6.8900 12537.00 12572.70 112.00
252 6.9000 13778.00 13742.20 117.00
253 6.9100 14552.00 14440.60 121.00
254 6.9200 14415.00 14322.50 120.00
255 6.9300 13622.00 13452.10 117.00
256 6.9400 12414.00 12226.60 111.00
257 6.9500 11200.00 11011.00 106.00
258 6.9600 10363.00 10007.80 102.00
259 6.9700 9678.00 9282.30 98.00
260 6.9800 9246.00 8810.30 96.00
261 6.9900 9034.00 8526.31 95.00
262 7.0000 8783.00 8361.83 94.00
263 7.0100 8594.00 8264.92 93.00
264 7.0200 8477.00 8203.66 92.00
265 7.0300 8378.00 8161.09 92.00
266 7.0400 8359.00 8129.02 91.00
267 7.0500 8280.00 8103.55 91.00
268 7.0600 8271.00 8082.69 91.00
269 7.0700 8224.00 8065.29 91.00
270 7.0800 8204.00 8050.58 91.00
271 7.0900 8191.00 8037.99 91.00
272 7.1000 8201.00 8027.11 91.00
273 7.1100 8181.00 8017.62 90.00
274 7.1200 8132.00 8009.28 90.00
275 7.1300 8127.00 8001.88 90.00
276 7.1400 8109.00 7995.28 90.00
277 7.1500 8088.00 7989.35 90.00
278 7.1600 8177.00 7983.98 90.00
279 7.1700 8131.00 7979.10 90.00
280 7.1800 8139.00 7974.65 90.00
281 7.1900 8029.00 7970.56 90.00
282 7.2000 8106.00 7966.78 90.00
283 7.2100 8079.00 7963.29 90.00
284 7.2200 8116.00 7960.05 90.00
285 7.2300 8149.00 7957.03 90.00
286 7.2400 8093.00 7954.21 90.00
287 7.2500 8044.00 7951.56 90.00
288 7.2600 8088.00 7949.09 90.00
289 7.2700 8017.00 7946.75 90.00
290 7.2800 8083.00 7944.56 90.00
291 7.2900 8124.00 7942.49 90.00
292 7.3000 8099.00 7940.55 90.00
293 7.3100 8062.00 7938.71 90.00
294 7.3200 8076.00 7936.97 90.00
295 7.3300 8011.00 7935.34 90.00
296 7.3400 8079.00 7933.80 90.00
297 7.3500 8113.00 7932.35 90.00
298 7.3600 8092.00 7931.00 90.00
299 7.3700 8068.00 7929.73 90.00
300 7.3800 8105.00 7928.54 90.00
301 7.3900 8113.00 7927.44 90.00
302 7.4000 8146.00 7926.42 90.00
303 7.4100 8150.00 7925.48 90.00
304 7.4200 8158.00 7924.63 90.00
305 7.4300 8078.00 7923.87 90.00
306 7.4400 8077.00 7923.19 90.00
307 7.4500 8096.00 7922.60 90.00
308 7.4600 8105.00 7922.10 90.00
309 7.4700 8157.00 7921.69 90.00
310 7.4800 8117.00 7921.37 90.00
311 7.4900 8037.00 7921.16 90.00
312 7.5000 8084.00 7921.05 90.00
313 7.5100 8077.00 7921.05 90.00
314 7.5200 8068.00 7921.15 90.00
315 7.5300 8150.00 7921.38 90.00
316 7.5400 8161.00 7921.73 90.00
317 7.5500 8084.00 7922.21 90.00
318 7.5600 8142.00 7922.83 90.00
319 7.5700 8082.00 7923.59 90.00
320 7.5800 8168.00 7924.51 90.00
321 7.5900 8224.00 7925.60 91.00
322 7.6000 8225.00 7926.85 91.00
323 7.6100 8165.00 7928.30 90.00
324 7.6200 8188.00 7929.94 90.00
325 7.6300 8188.00 7931.80 90.00
326 7.6400 8233.00 7933.88 91.00
327 7.6500 8258.00 7936.21 91.00
328 7.6600 8278.00 7938.81 91.00
329 7.6700 8274.00 7941.69 91.00
330 7.6800 8321.00 7944.88 91.00
331 7.6900 8356.00 7948.40 91.00
332 7.7000 8374.00 7952.28 92.00
333 7.7100 8328.00 7956.56 91.00
334 7.7200 8287.00 7961.27 91.00
335 7.7300 8258.00 7976.98 91.00
336 7.7400 8225.00 7982.79 91.00
337 7.7500 8215.00 7989.15 91.00
338 7.7600 8285.00 7996.12 91.00
339 7.7700 8316.00 8003.77 91.00
340 7.7800 8297.00 8012.17 91.00
341 7.7900 8221.00 8021.39 91.00
342 7.8000 8311.00 8031.52 91.00
343 7.8100 8289.00 8042.66 91.00
344 7.8200 8344.00 8054.94 91.00
345 7.8300 8389.00 8068.48 92.00
346 7.8400 8386.00 8083.44 92.00
347 7.8500 8338.00 8100.00 91.00
348 7.8600 8426.00 8118.36 92.00
349 7.8700 8388.00 8138.76 92.00
350 7.8800 8408.00 8161.50 92.00
351 7.8900 8492.00 8186.89 92.00
352 7.9000 8460.00 8215.35 92.00
353 7.9100 8403.00 8247.35 92.00
354 7.9200 8479.00 8283.44 92.00
355 7.9300 8542.00 8324.33 92.00
356 7.9400 8587.00 8370.85 93.00
357 7.9500 8717.00 8424.03 93.00
358 7.9600 8745.00 8485.12 94.00
359 7.9700 8770.00 8555.73 94.00
360 7.9800 8831.00 8637.85 94.00
361 7.9900 8939.00 8734.03 95.00
362 8.0000 9117.00 8847.55 95.00
363 8.0100 9356.00 8982.71 97.00
364 8.0200 9460.00 9145.22 97.00
365 8.0300 9646.00 9391.46 98.00
366 8.0400 10037.00 9636.19 100.00
367 8.0500 10432.00 9945.89 102.00
368 8.0600 11064.00 10355.10 105.00
369 8.0700 11994.00 10936.20 110.00
370 8.0800 13202.00 11844.10 115.00
371 8.0900 14981.00 13385.60 122.00
372 8.1000 17815.00 16088.40 133.00
373 8.1100 22082.00 20691.30 149.00
374 8.1200 28885.00 27949.60 170.00
375 8.1300 38967.00 38214.00 197.00
376 8.1400 50980.00 50847.70 226.00
377 8.1500 63032.00 63614.40 251.00
378 8.1600 71242.00 72303.60 267.00
379 8.1700 70111.00 72484.40 265.00
380 8.1800 60999.00 64048.00 247.00
381 8.1900 48175.00 51349.20 219.00
382 8.2000 36354.00 38662.00 191.00
383 8.2100 27159.00 28292.10 165.00
384 8.2200 20989.00 20925.20 145.00
385 8.2300 16948.00 16239.00 130.00
386 8.2400 14368.00 13483.30 120.00
387 8.2500 12727.00 11913.20 113.00
388 8.2600 11645.00 10992.60 108.00
389 8.2700 10746.00 10407.40 104.00
390 8.2800 10273.00 9998.77 101.00
391 8.2900 9854.00 9692.11 99.00
392 8.3000 9586.00 9452.03 98.00
393 8.3100 9376.00 9259.92 97.00
394 8.3200 9152.00 9104.39 96.00
395 8.3300 9024.00 8977.73 95.00
396 8.3400 8966.00 8874.38 95.00
397 8.3500 8839.00 8790.30 94.00
398 8.3600 8802.00 8722.52 94.00
399 8.3700 8878.00 8668.92 94.00
400 8.3800 8809.00 8628.03 94.00
401 8.3900 8732.00 8598.95 93.00
402 8.4000 8775.00 8581.34 94.00
403 8.4100 8752.00 8575.34 94.00
404 8.4200 8778.00 8581.73 94.00
405 8.4300 8930.00 8601.97 94.00
406 8.4400 9001.00 8638.57 95.00
407 8.4500 9017.00 8695.72 95.00
408 8.4600 9176.00 8781.20 96.00
409 8.4700 9397.00 8911.52 97.00
410 8.4800 9805.00 9124.23 99.00
411 8.4900 10394.00 9501.27 102.00
412 8.5000 11170.00 10199.70 106.00
413 8.5100 12430.00 11464.60 111.00
414 8.5200 14368.00 13577.50 120.00
415 8.5300 17227.00 16706.10 131.00
416 8.5400 21104.00 20700.40 145.00
417 8.5500 25339.00 24735.60 159.00
418 8.5600 27903.00 27307.80 167.00
419 8.5700 27418.00 26901.40 166.00
420 8.5800 24298.00 23782.60 156.00
421 8.5900 19745.00 19631.80 141.00
422 8.6000 15863.00 15805.80 126.00
423 8.6100 13142.00 12907.90 115.00
424 8.6200 11344.00 11006.30 107.00
425 8.6300 10200.00 9885.72 101.00
426 8.6400 9560.00 9263.54 98.00
427 8.6500 9138.00 8914.70 96.00
428 8.6600 8960.00 8702.94 95.00
429 8.6700 8759.00 8559.57 94.00
430 8.6800 8575.00 8453.63 93.00
431 8.6900 8389.00 8371.17 92.00
432 8.7000 8365.00 8305.17 91.00
433 8.7100 8308.00 8251.43 91.00
434 8.7200 8279.00 8207.15 91.00
435 8.7300 8333.00 8170.31 91.00
436 8.7400 8324.00 8139.42 91.00
437 8.7500 8220.00 8113.35 91.00
438 8.7600 8221.00 8091.24 91.00
439 8.7700 8139.00 8072.42 90.00
440 8.7800 8205.00 8056.38 91.00
441 8.7900 8248.00 8042.70 91.00
442 8.8000 8232.00 8031.05 91.00
443 8.8100 8140.00 8021.16 90.00
444 8.8200 8165.00 8012.82 90.00
445 8.8300 8145.00 8005.85 90.00
446 8.8400 8172.00 8000.12 90.00
447 8.8500 8237.00 7995.50 91.00
448 8.8600 8219.00 7991.91 91.00
449 8.8700 8194.00 7989.25 91.00
450 8.8800 8168.00 7987.52 90.00
451 8.8900 8174.00 7986.58 90.00
452 8.9000 8162.00 7986.42 90.00
453 8.9100 8161.00 7987.02 90.00
454 8.9200 8198.00 7988.36 91.00
455 8.9300 8122.00 7990.41 90.00
456 8.9400 8166.00 7993.16 90.00
457 8.9500 8135.00 7996.62 90.00
458 8.9600 8185.00 8000.78 90.00
459 8.9700 8212.00 8005.65 91.00
460 8.9800 8227.00 8011.23 91.00
461 8.9900 8152.00 8016.84 90.00
462 9.0000 8212.00 8023.93 91.00
463 9.0100 8166.00 8031.80 90.00
464 9.0200 8207.00 8040.49 91.00
465 9.0300 8202.00 8050.04 91.00
466 9.0400 8195.00 8060.48 91.00
467 9.0500 8175.00 8071.87 90.00
468 9.0600 8235.00 8084.27 91.00
469 9.0700 8165.00 8097.74 90.00
470 9.0800 8224.00 8112.35 91.00
471 9.0900 8235.00 8128.20 91.00
472 9.1000 8258.00 8145.38 91.00
473 9.1100 8233.00 8163.99 91.00
474 9.1200 8273.00 8184.17 91.00
475 9.1300 8255.00 8206.05 91.00
476 9.1400 8277.00 8229.80 91.00
477 9.1500 8331.00 8255.61 91.00
478 9.1600 8351.00 8283.68 91.00
479 9.1700 8299.00 8314.27 91.00
480 9.1800 8406.00 8347.66 92.00
481 9.1900 8378.00 8384.18 92.00
482 9.2000 8417.00 8424.23 92.00
483 9.2100 8497.00 8468.27 92.00
484 9.2200 8515.00 8516.83 92.00
485 9.2300 8498.00 8570.57 92.00
486 9.2400 8563.00 8630.26 93.00
487 9.2500 8638.00 8696.86 93.00
488 9.2600 8658.00 8771.50 93.00
489 9.2700 8792.00 8855.59 94.00
490 9.2800 8794.00 8950.89 94.00
491 9.2900 8815.00 9059.59 94.00
492 9.3000 8962.00 9184.50 95.00
493 9.3100 9096.00 9329.20 95.00
494 9.3200 9223.00 9498.35 96.00
495 9.3300 9436.00 9698.12 97.00
496 9.3400 9641.00 9936.83 98.00
497 9.3500 9821.00 10225.90 99.00
498 9.3600 10206.00 10581.60 101.00
499 9.3700 10665.00 11029.20 103.00
500 9.3800 11399.00 11614.30 107.00
501 9.3900 12537.00 12434.90 112.00
502 9.4000 14158.00 13719.90 119.00
503 9.4100 16618.00 15974.60 129.00
504 9.4200 20876.00 20149.30 144.00
505 9.4300 27813.00 27629.40 167.00
506 9.4400 39163.00 39749.80 198.00
507 9.4500 55561.00 56709.00 236.00
508 9.4600 74859.00 76133.10 274.00
509 9.4700 90395.00 91614.10 301.00
510 9.4800 93341.00 94256.80 306.00
511 9.4900 81229.00 82181.00 285.00
512 9.5000 61835.00 63286.00 249.00
513 9.5100 44006.00 45299.50 210.00
514 9.5200 31254.00 31755.10 177.00
515 9.5300 23123.00 23112.10 152.00
516 9.5400 18500.00 18259.40 136.00
517 9.5500 15698.00 15747.20 125.00
518 9.5600 14109.00 14472.30 119.00
519 9.5700 13235.00 13806.70 115.00
520 9.5800 12725.00 13456.60 113.00
521 9.5900 12533.00 13299.60 112.00
522 9.6000 12621.00 13285.40 112.00
523 9.6100 12788.00 13392.80 113.00
524 9.6200 12984.00 13614.20 114.00
525 9.6300 13234.00 13950.70 115.00
526 9.6400 13502.00 14411.30 116.00
527 9.6500 13823.00 15012.40 118.00
528 9.6600 14596.00 15780.10 121.00
529 9.6700 15426.00 16753.00 124.00
530 9.6800 16871.00 17986.70 130.00
531 9.6900 18788.00 19565.30 137.00
532 9.7000 21413.00 21628.50 146.00
533 9.7100 25015.00 24450.30 158.00
534 9.7200 30717.00 28644.00 175.00
535 9.7300 39219.00 35605.90 198.00
536 9.7400 53391.00 48202.20 231.00
537 9.7500 76793.00 71292.50 277.00
538 9.7600 113649.00 111033.00 337.00
539 9.7700 169392.00 171909.00 412.00
540 9.7800 247862.00 251596.00 498.00
541 9.7900 333664.00 334682.00 578.00
542 9.8000 392775.00 387999.00 627.00
543 9.8100 385497.00 377644.00 621.00
544 9.8200 313558.00 311206.00 560.00
545 9.8300 223642.00 226731.00 473.00
546 9.8400 149617.00 152169.00 387.00
547 9.8500 99145.00 98316.90 315.00
548 9.8600 67952.00 64875.60 261.00
549 9.8700 50059.00 46442.30 224.00
550 9.8800 39396.00 37053.20 198.00
551 9.8900 33291.00 32368.30 182.00
552 9.9000 29712.00 29808.40 172.00
553 9.9100 27231.00 27960.80 165.00
554 9.9200 25455.00 26267.90 160.00
555 9.9300 24297.00 24830.40 156.00
556 9.9400 24027.00 23953.10 155.00
557 9.9500 24959.00 23954.50 158.00
558 9.9600 27951.00 25399.50 167.00
559 9.9700 33960.00 29768.60 184.00
560 9.9800 45562.00 40540.00 213.00
561 9.9900 67162.00 63671.50 259.00
562 10.0000 104863.00 105110.00 324.00
563 10.0100 163057.00 164005.00 404.00
564 10.0200 227748.00 224153.00 477.00
565 10.0300 256112.00 250795.00 506.00
566 10.0400 228207.00 220951.00 478.00
567 10.0500 161374.00 159571.00 402.00
568 10.0600 96559.00 100735.00 311.00
569 10.0700 55831.00 59644.00 236.00
570 10.0800 34955.00 36548.50 187.00
571 10.0900 24186.00 25310.00 156.00
572 10.1000 18604.00 19998.00 136.00
573 10.1100 15517.00 17182.60 125.00
574 10.1200 13569.00 15401.20 116.00
575 10.1300 12232.00 14123.30 111.00
576 10.1400 11434.00 13148.70 107.00
577 10.1500 10753.00 12382.00 104.00
578 10.1600 10292.00 11777.40 101.00
579 10.1700 10064.00 11274.10 100.00
580 10.1800 9733.00 10856.60 99.00
581 10.1900 9428.00 10505.70 97.00
582 10.2000 9303.00 10218.40 96.00
583 10.2100 9097.00 9962.25 95.00
584 10.2200 9043.00 9740.28 95.00
585 10.2300 8928.00 9546.32 94.00
586 10.2400 8829.00 9375.61 94.00
587 10.2500 8686.00 9224.33 93.00
588 10.2600 8654.00 9089.47 93.00
589 10.2700 8552.00 8968.58 92.00
590 10.2800 8479.00 8859.68 92.00
591 10.2900 8390.00 8761.13 92.00
592 10.3000 8327.00 8671.55 91.00
593 10.3100 8274.00 8589.81 91.00
594 10.3200 8249.00 8514.97 91.00
595 10.3300 8179.00 8446.21 90.00
596 10.3400 8130.00 8382.82 90.00
597 10.3500 8203.00 8324.23 91.00
598 10.3600 8085.00 8269.93 90.00
599 10.3700 8017.00 8219.47 90.00
600 10.3800 8000.00 8172.47 89.00
601 10.3900 7929.00 8128.60 89.00
602 10.4000 7988.00 8087.55 89.00
603 10.4100 7961.00 8049.08 89.00
604 10.4200 7973.00 8012.95 89.00
605 10.4300 7878.00 7976.68 89.00
606 10.4400 7870.00 7944.68 89.00
607 10.4500 7876.00 7914.49 89.00
608 10.4600 7848.00 7885.96 89.00
609 10.4700 7914.00 7858.96 89.00
610 10.4800 7874.00 7833.39 89.00
611 10.4900 7775.00 7809.13 88.00
612 10.5000 7846.00 7786.10 89.00
613 10.5100 7751.00 7764.22 88.00
614 10.5200 7774.00 7743.41 88.00
615 10.5300 7780.00 7723.61 88.00
616 10.5400 7784.00 7704.77 88.00
617 10.5500 7674.00 7686.84 88.00
618 10.5600 7673.00 7669.78 88.00
619 10.5700 7677.00 7653.56 88.00
620 10.5800 7741.00 7638.16 88.00
621 10.5900 7734.00 7623.59 88.00
622 10.6000 7703.00 7609.85 88.00
623 10.6100 7669.00 7596.99 88.00
624 10.6200 7690.00 7585.11 88.00
625 10.6300 7673.00 7574.43 88.00
626 10.6400 7680.00 7565.47 88.00
627 10.6500 7693.00 7559.41 88.00
628 10.6600 7666.00 7558.55 88.00
629 10.6700 7597.00 7566.60 87.00
630 10.6800 7675.00 7588.15 88.00
631 10.6900 7669.00 7626.52 88.00
632 10.7000 7785.00 7680.25 88.00
633 10.7100 7859.00 7738.65 89.00
634 10.7200 7904.00 7777.57 89.00
635 10.7300 7869.00 7768.77 89.00
636 10.7400 7834.00 7711.80 89.00
637 10.7500 7760.00 7634.59 88.00
638 10.7600 7690.00 7561.55 88.00
639 10.7700 7742.00 7503.65 88.00
640 10.7800 7662.00 7462.49 88.00
641 10.7900 7596.00 7434.78 87.00
642 10.8000 7592.00 7415.90 87.00
643 10.8100 7513.00 7402.07 87.00
644 10.8200 7590.00 7390.92 87.00
645 10.8300 7590.00 7381.24 87.00
646 10.8400 7545.00 7372.46 87.00
647 10.8500 7555.00 7364.29 87.00
648 10.8600 7561.00 7356.61 87.00
649 10.8700 7563.00 7349.33 87.00
650 10.8800 7571.00 7342.39 87.00
651 10.8900 7636.00 7335.75 87.00
652 10.9000 7539.00 7329.37 87.00
653 10.9100 7485.00 7323.24 87.00
654 10.9200 7529.00 7317.31 87.00
655 10.9300 7517.00 7311.59 87.00
656 10.9400 7498.00 7306.06 87.00
657 10.9500 7561.00 7300.71 87.00
658 10.9600 7526.00 7295.52 87.00
659 10.9700 7483.00 7290.49 87.00
660 10.9800 7466.00 7285.61 86.00
661 10.9900 7487.00 7280.88 87.00
662 11.0000 7488.00 7276.29 87.00
663 11.0100 7481.00 7271.84 86.00
664 11.0200 7482.00 7267.52 86.00
665 11.0300 7403.00 7263.33 86.00
666 11.0400 7393.00 7259.27 86.00
667 11.0500 7371.00 7255.34 86.00
668 11.0600 7409.00 7251.52 86.00
669 11.0700 7428.00 7247.83 86.00
670 11.0800 7431.00 7244.26 86.00
671 11.0900 7378.00 7240.80 86.00
672 11.1000 7385.00 7237.46 86.00
673 11.1100 7356.00 7234.24 86.00
674 11.1200 7367.00 7231.14 86.00
675 11.1300 7399.00 7228.15 86.00
676 11.1400 7390.00 7225.28 86.00
677 11.1500 7342.00 7222.52 86.00
678 11.1600 7385.00 7219.88 86.00
679 11.1700 7356.00 7217.36 86.00
680 11.1800 7386.00 7214.95 86.00
681 11.1900 7405.00 7212.67 86.00
682 11.2000 7352.00 7210.50 86.00
683 11.2100 7269.00 7208.46 85.00
684 11.2200 7331.00 7206.54 86.00
685 11.2300 7329.00 7194.28 86.00
686 11.2400 7323.00 7192.74 86.00
687 11.2500 7366.00 7191.32 86.00
688 11.2600 7342.00 7190.04 86.00
689 11.2700 7310.00 7188.89 85.00
690 11.2800 7318.00 7187.89 86.00
691 11.2900 7297.00 7187.02 85.00
692 11.3000 7304.00 7186.30 85.00
693 11.3100 7366.00 7186.81 86.00
694 11.3200 7314.00 7187.48 86.00
695 11.3300 7262.00 7188.31 85.00
696 11.3400 7244.00 7189.31 85.00
697 11.3500 7261.00 7190.48 85.00
698 11.3600 7277.00 7191.84 85.00
699 11.3700 7291.00 7193.38 85.00
700 11.3800 7265.00 7195.12 85.00
701 11.3900 7258.00 7197.07 85.00
702 11.4000 7311.00 7199.23 86.00
703 11.4100 7299.00 7201.61 85.00
704 11.4200 7433.00 7204.23 86.00
705 11.4300 7401.00 7207.10 86.00
706 11.4400 7347.00 7210.23 86.00
707 11.4500 7283.00 7213.64 85.00
708 11.4600 7297.00 7217.33 85.00
709 11.4700 7270.00 7221.33 85.00
710 11.4800 7293.00 7225.65 85.00
711 11.4900 7336.00 7230.31 86.00
712 11.5000 7256.00 7235.33 85.00
713 11.5100 7245.00 7240.74 85.00
714 11.5200 7289.00 7246.56 85.00
715 11.5300 7227.00 7227.39 85.00
716 11.5400 7213.00 7234.44 85.00
717 11.5500 7305.00 7241.99 85.00
718 11.5600 7292.00 7250.05 85.00
719 11.5700 7243.00 7258.68 85.00
720 11.5800 7253.00 7267.91 85.00
721 11.5900 7239.00 7230.52 85.00
722 11.6000 7303.00 7241.63 85.00
723 11.6100 7297.00 7253.49 85.00
724 11.6200 7287.00 7266.16 85.00
725 11.6300 7274.00 7279.72 85.00
726 11.6400 7268.00 7294.23 85.00
727 11.6500 7297.00 7309.79 85.00
728 11.6600 7304.00 7326.49 85.00
729 11.6700 7369.00 7344.44 86.00
730 11.6800 7385.00 7363.76 86.00
731 11.6900 7333.00 7384.58 86.00
732 11.7000 7415.00 7407.07 86.00
733 11.7100 7356.00 7431.41 86.00
734 11.7200 7373.00 7457.78 86.00
735 11.7300 7432.00 7486.44 86.00
736 11.7400 7428.00 7517.64 86.00
737 11.7500 7418.00 7551.71 86.00
738 11.7600 7453.00 7589.01 86.00
739 11.7700 7456.00 7651.39 86.00
740 11.7800 7470.00 7696.77 86.00
741 11.7900 7628.00 7746.97 87.00
742 11.8000 7606.00 7802.79 87.00
743 11.8100 7639.00 7865.22 87.00
744 11.8200 7697.00 7935.60 88.00
745 11.8300 7740.00 8015.96 88.00
746 11.8400 7848.00 8109.80 89.00
747 11.8500 8019.00 8222.98 90.00
748 11.8600 8087.00 8368.15 90.00
749 11.8700 8207.00 8563.29 91.00
750 11.8800 8475.00 8832.88 92.00
751 11.8900 8788.00 9200.22 94.00
752 11.9000 9251.00 9673.55 96.00
753 11.9100 9777.00 10226.80 99.00
754 11.9200 10305.00 10775.50 102.00
755 11.9300 10729.00 11173.00 104.00
756 11.9400 10846.00 11323.10 104.00
757 11.9500 10880.00 11313.10 104.00
758 11.9600 10903.00 11311.70 104.00
759 11.9700 11101.00 11437.50 105.00
760 11.9800 11429.00 11752.10 107.00
761 11.9900 12040.00 12290.10 110.00
762 12.0000 13004.00 13091.60 114.00
763 12.0100 14383.00 14246.80 120.00
764 12.0200 16368.00 15971.10 128.00
765 12.0300 19548.00 18728.40 140.00
766 12.0400 24079.00 23384.50 155.00
767 12.0500 30715.00 31290.20 175.00
768 12.0600 41554.00 44082.40 204.00
769 12.0700 56996.00 63026.20 239.00
770 12.0800 80099.00 87904.50 283.00
771 12.0900 108414.00 115553.00 329.00
772 12.1000 133883.00 138127.00 366.00
773 12.1100 144760.00 144527.00 380.00
774 12.1200 135890.00 130774.00 369.00
775 12.1300 110350.00 105426.00 332.00
776 12.1400 82719.00 79126.10 288.00
777 12.1500 60612.00 57857.20 246.00
778 12.1600 45934.00 43584.50 214.00
779 12.1700 37469.00 35926.50 194.00
780 12.1800 34097.00 33292.50 185.00
781 12.1900 33585.00 33629.80 183.00
782 12.2000 34547.00 34658.50 186.00
783 12.2100 34556.00 34142.10 186.00
784 12.2200 32072.00 31139.70 179.00
785 12.2300 27340.00 26612.00 165.00
786 12.2400 22346.00 21963.70 149.00
787 12.2500 17999.00 18015.60 134.00
788 12.2600 14949.00 15041.20 122.00
789 12.2700 12884.00 12984.40 114.00
790 12.2800 11432.00 11634.60 107.00
791 12.2900 10386.00 10757.10 102.00
792 12.3000 9781.00 10165.90 99.00
793 12.3100 9271.00 9741.00 96.00
794 12.3200 8968.00 9415.05 95.00
795 12.3300 8706.00 9152.80 93.00
796 12.3400 8456.00 8935.50 92.00
797 12.3500 8283.00 8752.30 91.00
798 12.3600 8157.00 8596.08 90.00
799 12.3700 7995.00 8461.76 89.00
800 12.3800 7982.00 8345.46 89.00
801 12.3900 7912.00 8244.19 89.00
802 12.4000 7806.00 8155.60 88.00
803 12.4100 7693.00 8077.80 88.00
804 12.4200 7650.00 8009.27 87.00
805 12.4300 7574.00 7948.77 87.00
806 12.4400 7628.00 7895.28 87.00
807 12.4500 7615.00 7847.98 87.00
808 12.4600 7518.00 7806.15 87.00
809 12.4700 7453.00 7769.24 86.00
810 12.4800 7448.00 7736.75 86.00
811 12.4900 7419.00 7708.29 86.00
812 12.5000 7378.00 7683.53 86.00
813 12.5100 7453.00 7662.20 86.00
814 12.5200 7434.00 7644.07 86.00
815 12.5300 7341.00 7628.96 86.00
816 12.5400 7403.00 7616.74 86.00
817 12.5500 7360.00 7607.31 86.00
818 12.5600 7389.00 7600.60 86.00
819 12.5700 7404.00 7596.58 86.00
820 12.5800 7430.00 7595.21 86.00
821 12.5900 7332.00 7596.61 86.00
822 12.6000 7427.00 7600.80 86.00
823 12.6100 7422.00 7607.89 86.00
824 12.6200 7433.00 7618.02 86.00
825 12.6300 7528.00 7631.40 87.00
826 12.6400 7471.00 7648.26 86.00
827 12.6500 7463.00 7668.93 86.00
828 12.6600 7518.00 7693.77 87.00
829 12.6700 7497.00 7723.30 87.00
830 12.6800 7568.00 7758.14 87.00
831 12.6900 7677.00 7799.12 88.00
832 12.7000 7666.00 7847.38 88.00
833 12.7100 7726.00 7904.58 88.00
834 12.7200 7841.00 7973.15 89.00
835 12.7300 7950.00 8056.74 89.00
836 12.7400 8093.00 8160.90 90.00
837 12.7500 8284.00 8293.90 91.00
838 12.7600 8453.00 8467.79 92.00
839 12.7700 8626.00 8699.39 93.00
840 12.7800 8947.00 9011.07 95.00
841 12.7900 9274.00 9430.81 96.00
842 12.8000 9843.00 9991.28 99.00
843 12.8100 10488.00 10727.00 102.00
844 12.8200 11156.00 11669.90 106.00
845 12.8300 12051.00 12843.30 110.00
846 12.8400 13223.00 14254.70 115.00
847 12.8500 14633.00 15887.40 121.00
848 12.8600 16423.00 17692.20 128.00
849 12.8700 18525.00 19577.30 136.00
850 12.8800 20579.00 21398.50 143.00
851 12.8900 22486.00 22954.90 150.00
852 12.9000 23874.00 24012.00 155.00
853 12.9100 24286.00 24372.00 156.00
854 12.9200 23894.00 23965.60 155.00
855 12.9300 22763.00 22892.10 151.00
856 12.9400 20961.00 21364.50 145.00
857 12.9500 19049.00 19617.60 138.00
858 12.9600 17442.00 17845.50 132.00
859 12.9700 15868.00 16187.40 126.00
860 12.9800 14747.00 14733.10 121.00
861 12.9900 13941.00 13535.10 118.00
862 13.0000 13164.00 12619.10 115.00
863 13.0100 12748.00 11994.30 113.00
864 13.0200 12568.00 11662.60 112.00
865 13.0300 12450.00 11625.90 112.00
866 13.0400 12690.00 11891.60 113.00
867 13.0500 13235.00 12474.20 115.00
868 13.0600 13866.00 13391.80 118.00
869 13.0700 14765.00 14660.10 122.00
870 13.0800 16162.00 16281.90 127.00
871 13.0900 17802.00 18236.60 133.00
872 13.1000 19988.00 20466.30 141.00
873 13.1100 22502.00 22862.40 150.00
874 13.1200 25123.00 25249.60 159.00
875 13.1300 27343.00 27376.30 165.00
876 13.1400 29336.00 28928.20 171.00
877 13.1500 29961.00 29605.90 173.00
878 13.1600 29479.00 29252.50 172.00
879 13.1700 27805.00 27939.90 167.00
880 13.1800 25383.00 25927.00 159.00
881 13.1900 22615.00 23533.20 150.00
882 13.2000 20041.00 21037.20 142.00
883 13.2100 17786.00 18639.50 133.00
884 13.2200 15889.00 16467.70 126.00
885 13.2300 14396.00 14590.50 120.00
886 13.2400 13044.00 13031.80 114.00
887 13.2500 11966.00 11781.80 109.00
888 13.2600 11173.00 10809.50 106.00
889 13.2700 10516.00 10071.50 103.00
890 13.2800 10007.00 9521.41 100.00
891 13.2900 9616.00 9115.18 98.00
892 13.3000 9276.00 8815.10 96.00
893 13.3100 8952.00 8591.26 95.00
894 13.3200 8772.00 8421.23 94.00
895 13.3300 8593.00 8289.09 93.00
896 13.3400 8447.00 8183.88 92.00
897 13.3500 8392.00 8098.35 92.00
898 13.3600 8275.00 8027.75 91.00
899 13.3700 8067.00 7972.36 90.00
900 13.3800 7961.00 7923.21 89.00
901 13.3900 7850.00 7882.27 89.00
902 13.4000 7834.00 7848.47 89.00
903 13.4100 7833.00 7821.02 89.00
904 13.4200 7789.00 7799.34 88.00
905 13.4300 7718.00 7782.97 88.00
906 13.4400 7689.00 7771.55 88.00
907 13.4500 7667.00 7764.84 88.00
908 13.4600 7706.00 7762.65 88.00
909 13.4700 7706.00 7764.89 88.00
910 13.4800 7765.00 7771.51 88.00
911 13.4900 7672.00 7782.54 88.00
912 13.5000 7747.00 7798.08 88.00
913 13.5100 7734.00 7818.29 88.00
914 13.5200 7729.00 7843.38 88.00
915 13.5300 7714.00 7873.68 88.00
916 13.5400 7801.00 7909.57 88.00
917 13.5500 7811.00 7951.55 88.00
918 13.5600 7827.00 8000.22 88.00
919 13.5700 7903.00 8056.32 89.00
920 13.5800 7969.00 8120.76 89.00
921 13.5900 8069.00 8208.59 90.00
922 13.6000 8165.00 8293.41 90.00
923 13.6100 8179.00 8390.70 90.00
924 13.6200 8302.00 8502.49 91.00
925 13.6300 8389.00 8631.36 92.00
926 13.6400 8569.00 8780.50 93.00
927 13.6500 8828.00 8959.64 94.00
928 13.6600 9007.00 9162.70 95.00
929 13.6700 9234.00 9402.14 96.00
930 13.6800 9577.00 9687.08 98.00
931 13.6900 9954.00 10030.40 100.00
932 13.7000 10478.00 10451.40 102.00
933 13.7100 11208.00 10983.60 106.00
934 13.7200 11987.00 11688.80 109.00
935 13.7300 13042.00 12686.20 114.00
936 13.7400 14696.00 14193.10 121.00
937 13.7500 16894.00 16563.00 130.00
938 13.7600 20277.00 20279.00 142.00
939 13.7700 25326.00 25849.30 159.00
940 13.7800 32143.00 33581.90 179.00
941 13.7900 41320.00 43247.60 203.00
942 13.8000 51806.00 53616.10 228.00
943 13.8100 61272.00 61962.10 248.00
944 13.8200 66322.00 65003.00 258.00
945 13.8300 65135.00 62355.20 255.00
946 13.8400 59438.00 57304.20 244.00
947 13.8500 53776.00 53297.90 232.00
948 13.8600 51551.00 52119.20 227.00
949 13.8700 52700.00 54113.60 230.00
950 13.8800 57105.00 58590.30 239.00
951 13.8900 63554.00 64035.30 252.00
952 13.9000 68651.00 68324.30 262.00
953 13.9100 70493.00 69337.40 266.00
954 13.9200 68130.00 66111.20 261.00
955 13.9300 60766.00 59429.60 247.00
956 13.9400 51595.00 51011.90 227.00
957 13.9500 42151.00 42406.70 205.00
958 13.9600 33970.00 34590.90 184.00
959 13.9700 27435.00 28046.70 166.00
960 13.9800 22602.00 22910.50 150.00
961 13.9900 19050.00 19095.70 138.00
962 14.0000 16541.00 16392.10 129.00
963 14.0100 14793.00 14551.60 122.00
964 14.0200 13515.00 13348.30 116.00
965 14.0300 12548.00 12617.60 112.00
966 14.0400 12159.00 12277.10 110.00
967 14.0500 11987.00 12336.20 109.00
968 14.0600 12355.00 12870.80 111.00
969 14.0700 13356.00 14061.70 116.00
970 14.0800 14924.00 15998.60 122.00
971 14.0900 17224.00 18629.00 131.00
972 14.1000 20312.00 21563.30 143.00
973 14.1100 22987.00 23862.00 152.00
974 14.1200 24050.00 24249.60 155.00
975 14.1300 22700.00 22366.50 151.00
976 14.1400 19643.00 19252.80 140.00
977 14.1500 16163.00 16080.70 127.00
978 14.1600 13407.00 13456.00 116.00
979 14.1700 11452.00 11544.10 107.00
980 14.1800 10170.00 10272.50 101.00
981 14.1900 9434.00 9471.71 97.00
982 14.2000 8874.00 8970.76 94.00
983 14.2100 8397.00 8643.08 92.00
984 14.2200 8184.00 8411.95 90.00
985 14.2300 7969.00 8233.58 89.00
986 14.2400 7833.00 8093.29 89.00
987 14.2500 7749.00 7977.46 88.00
988 14.2600 7683.00 7880.03 88.00
989 14.2700 7564.00 7797.00 87.00
990 14.2800 7472.00 7725.57 86.00
991 14.2900 7395.00 7663.63 86.00
992 14.3000 7383.00 7609.59 86.00
993 14.3100 7421.00 7562.21 86.00
994 14.3200 7361.00 7520.50 86.00
995 14.3300 7264.00 7483.68 85.00
996 14.3400 7229.00 7451.14 85.00
997 14.3500 7221.00 7422.36 85.00
998 14.3600 7256.00 7396.93 85.00
999 14.3700 7295.00 7374.52 85.00
1000 14.3800 7244.00 7358.96 85.00
1001 14.3900 7200.00 7341.81 85.00
1002 14.4000 7198.00 7327.88 85.00
1003 14.4100 7204.00 7315.23 85.00
1004 14.4200 7209.00 7304.60 85.00
1005 14.4300 7264.00 7295.92 85.00
1006 14.4400 7199.00 7289.10 85.00
1007 14.4500 7142.00 7284.10 85.00
1008 14.4600 7214.00 7280.87 85.00
1009 14.4700 7223.00 7279.39 85.00
1010 14.4800 7251.00 7279.68 85.00
1011 14.4900 7316.00 7281.74 86.00
1012 14.5000 7358.00 7285.61 86.00
1013 14.5100 7276.00 7301.21 85.00
1014 14.5200 7355.00 7308.96 86.00
1015 14.5300 7322.00 7318.74 86.00
1016 14.5400 7373.00 7330.66 86.00
1017 14.5500 7367.00 7344.88 86.00
1018 14.5600 7359.00 7361.55 86.00
1019 14.5700 7277.00 7380.89 85.00
1020 14.5800 7326.00 7403.12 86.00
1021 14.5900 7314.00 7428.55 86.00
1022 14.6000 7351.00 7457.49 86.00
1023 14.6100 7395.00 7490.36 86.00
1024 14.6200 7438.00 7527.63 86.00
1025 14.6300 7457.00 7569.86 86.00
1026 14.6400 7499.00 7617.76 87.00
1027 14.6500 7547.00 7672.14 87.00
1028 14.6600 7584.00 7734.09 87.00
1029 14.6700 7710.00 7804.95 88.00
1030 14.6800 7771.00 7886.46 88.00
1031 14.6900 7884.00 7980.95 89.00
1032 14.7000 8028.00 8091.46 90.00
1033 14.7100 8127.00 8222.25 90.00
1034 14.7200 8344.00 8378.96 91.00
1035 14.7300 8648.00 8569.69 93.00
1036 14.7400 8852.00 8805.89 94.00
1037 14.7500 9110.00 9104.40 95.00
1038 14.7600 9602.00 9489.60 98.00
1039 14.7700 10145.00 9996.12 101.00
1040 14.7800 10836.00 10668.00 104.00
1041 14.7900 11807.00 11563.20 109.00
1042 14.8000 12818.00 12751.80 113.00
1043 14.8100 14285.00 14312.10 120.00
1044 14.8200 16134.00 16314.80 127.00
1045 14.8300 18420.00 18802.80 136.00
1046 14.8400 21464.00 21766.90 147.00
1047 14.8500 25101.00 25116.70 158.00
1048 14.8600 28996.00 28649.20 170.00
1049 14.8700 32374.00 32015.10 180.00
1050 14.8800 35454.00 34762.10 188.00
1051 14.8900 36909.00 36513.70 192.00
1052 14.9000 37282.00 37204.70 193.00
1053 14.9100 36794.00 37105.20 192.00
1054 14.9200 35922.00 36582.10 190.00
1055 14.9300 35113.00 35858.20 187.00
1056 14.9400 34639.00 34930.90 186.00
1057 14.9500 33469.00 33633.10 183.00
1058 14.9600 31938.00 31792.90 179.00
1059 14.9700 29614.00 29398.30 172.00
1060 14.9800 26568.00 26627.20 163.00
1061 14.9900 23283.00 23742.40 153.00
1062 15.0000 20513.00 20973.80 143.00
1063 15.0100 17978.00 18478.70 134.00
1064 15.0200 16107.00 16352.60 127.00
1065 15.0300 14617.00 14644.00 121.00
1066 15.0400 13445.00 13360.90 116.00
1067 15.0500 12672.00 12459.40 113.00
1068 15.0600 12069.00 11824.60 110.00
1069 15.0700 11465.00 11262.90 107.00
1070 15.0800 10998.00 10627.00 105.00
1071 15.0900 10376.00 9967.11 102.00
1072 15.1000 9730.00 9391.96 99.00
1073 15.1100 9224.00 8946.35 96.00
1074 15.1200 8929.00 8624.20 94.00
1075 15.1300 8588.00 8397.05 93.00
1076 15.1400 8425.00 8233.55 92.00
1077 15.1500 8267.00 8109.79 91.00
1078 15.1600 8108.00 8011.32 90.00
1079 15.1700 7981.00 7930.35 89.00
1080 15.1800 7916.00 7862.73 89.00
1081 15.1900 7828.00 7806.06 88.00
1082 15.2000 7742.00 7758.70 88.00
1083 15.2100 7774.00 7719.50 88.00
1084 15.2200 7694.00 7687.60 88.00
1085 15.2300 7688.00 7662.35 88.00
1086 15.2400 7649.00 7643.27 87.00
1087 15.2500 7584.00 7630.02 87.00
1088 15.2600 7605.00 7622.41 87.00
1089 15.2700 7664.00 7620.33 88.00
1090 15.2800 7640.00 7623.82 87.00
1091 15.2900 7616.00 7633.02 87.00
1092 15.3000 7652.00 7648.22 87.00
1093 15.3100 7680.00 7669.84 88.00
1094 15.3200 7719.00 7698.54 88.00
1095 15.3300 7806.00 7735.26 88.00
1096 15.3400 7808.00 7781.40 88.00
1097 15.3500 7850.00 7839.15 89.00
1098 15.3600 7980.00 7911.91 89.00
1099 15.3700 8099.00 8005.12 90.00
1100 15.3800 8299.00 8127.26 91.00
1101 15.3900 8530.00 8291.03 92.00
1102 15.4000 8776.00 8514.65 94.00
1103 15.4100 9017.00 8822.25 95.00
1104 15.4200 9457.00 9243.39 97.00
1105 15.4300 9961.00 9810.44 100.00
1106 15.4400 10746.00 10553.30 104.00
1107 15.4500 11621.00 11492.90 108.00
1108 15.4600 12737.00 12632.30 113.00
1109 15.4700 13966.00 13946.00 118.00
1110 15.4800 15485.00 15365.50 124.00
1111 15.4900 16940.00 16762.70 130.00
1112 15.5000 18327.00 17941.20 135.00
1113 15.5100 19022.00 18675.50 138.00
1114 15.5200 18916.00 18819.50 138.00
1115 15.5300 18059.00 18395.60 134.00
1116 15.5400 17045.00 17554.80 131.00
1117 15.5500 15734.00 16467.90 125.00
1118 15.5600 14588.00 15288.10 121.00
1119 15.5700 13644.00 14162.60 117.00
1120 15.5800 12780.00 13206.30 113.00
1121 15.5900 12157.00 12488.90 110.00
1122 15.6000 11829.00 12034.80 109.00
1123 15.6100 11785.00 11842.50 109.00
1124 15.6200 12035.00 11902.10 110.00
1125 15.6300 12557.00 12212.40 112.00
1126 15.6400 13382.00 12802.00 116.00
1127 15.6500 14498.00 13760.60 120.00
1128 15.6600 16269.00 15284.70 128.00
1129 15.6700 18656.00 17735.30 137.00
1130 15.6800 22316.00 21672.80 149.00
1131 15.6900 27714.00 27821.90 166.00
1132 15.7000 35438.00 36891.00 188.00
1133 15.7100 46132.00 49245.00 215.00
1134 15.7200 60424.00 64413.40 246.00
1135 15.7300 76930.00 80351.30 277.00
1136 15.7400 91070.00 92641.20 302.00
1137 15.7500 96871.00 95643.10 311.00
1138 15.7600 89680.00 87610.30 299.00
1139 15.7700 74212.00 72848.60 272.00
1140 15.7800 57306.00 56846.60 239.00
1141 15.7900 42484.00 42833.50 206.00
1142 15.8000 31835.00 31993.40 178.00
1143 15.8100 24518.00 24332.20 157.00
1144 15.8200 19588.00 19265.10 140.00
1145 15.8300 16217.00 16041.40 127.00
1146 15.8400 14015.00 13993.20 118.00
1147 15.8500 12442.00 12646.00 112.00
1148 15.8600 11310.00 11706.40 106.00
1149 15.8700 10557.00 11004.20 103.00
1150 15.8800 9911.00 10466.80 100.00
1151 15.8900 9411.00 10039.40 97.00
1152 15.9000 9084.00 9694.25 95.00
1153 15.9100 8768.00 9413.18 94.00
1154 15.9200 8587.00 9183.52 93.00
1155 15.9300 8403.00 8996.18 92.00
1156 15.9400 8289.00 8844.33 91.00
1157 15.9500 8141.00 8723.02 90.00
1158 15.9600 8141.00 8628.67 90.00
1159 15.9700 8045.00 8558.85 90.00
1160 15.9800 8060.00 8512.17 90.00
1161 15.9900 8180.00 8488.22 90.00
1162 16.0000 8190.00 8487.78 90.00
1163 16.0100 8120.00 8513.21 90.00
1164 16.0200 8315.00 8569.52 91.00
1165 16.0300 8485.00 8666.28 92.00
1166 16.0400 8757.00 8820.88 94.00
1167 16.0500 9092.00 9063.23 95.00
1168 16.0600 9540.00 9440.48 98.00
1169 16.0700 10091.00 10020.40 100.00
1170 16.0800 10923.00 10887.10 105.00
1171 16.0900 12009.00 12127.70 110.00
1172 16.1000 13557.00 13803.30 116.00
1173 16.1100 15604.00 15922.20 125.00
1174 16.1200 17948.00 18374.10 134.00
1175 16.1300 20245.00 20871.20 142.00
1176 16.1400 22426.00 22875.40 150.00
1177 16.1500 23351.00 23713.40 153.00
1178 16.1600 22746.00 23030.40 151.00
1179 16.1700 21026.00 21142.50 145.00
1180 16.1800 18549.00 18723.00 136.00
1181 16.1900 16004.00 16326.40 127.00
1182 16.2000 13913.00 14259.90 118.00
1183 16.2100 12350.00 12643.60 111.00
1184 16.2200 11318.00 11487.10 106.00
1185 16.2300 10705.00 10738.20 103.00
1186 16.2400 10235.00 10324.70 101.00
1187 16.2500 10037.00 10181.80 100.00
1188 16.2600 10095.00 10267.80 100.00
1189 16.2700 10274.00 10568.70 101.00
1190 16.2800 10677.00 11094.00 103.00
1191 16.2900 11365.00 11868.30 107.00
1192 16.3000 12156.00 12921.30 110.00
1193 16.3100 13359.00 14277.20 116.00
1194 16.3200 15024.00 15949.30 123.00
1195 16.3300 16955.00 17930.30 130.00
1196 16.3400 19437.00 20185.70 139.00
1197 16.3500 22285.00 22629.50 149.00
1198 16.3600 25035.00 25099.70 158.00
1199 16.3700 27162.00 27356.10 165.00
1200 16.3800 29089.00 29140.20 171.00
1201 16.3900 29962.00 30197.90 173.00
1202 16.4000 30108.00 30171.70 174.00
1203 16.4100 28629.00 28705.90 169.00
1204 16.4200 26094.00 26060.90 162.00
1205 16.4300 22861.00 23094.30 151.00
1206 16.4400 20414.00 20531.00 143.00
1207 16.4500 18617.00 18702.90 136.00
1208 16.4600 17891.00 17662.90 134.00
1209 16.4700 17772.00 17292.10 133.00
1210 16.4800 18007.00 17365.90 134.00
1211 16.4900 18341.00 17596.60 135.00
1212 16.5000 18538.00 17681.30 136.00
1213 16.5100 18034.00 17404.30 134.00
1214 16.5200 17210.00 16725.20 131.00
1215 16.5300 16130.00 15784.30 127.00
1216 16.5400 14898.00 14796.60 122.00
1217 16.5500 13937.00 13954.90 118.00
1218 16.5600 13376.00 13396.60 116.00
1219 16.5700 13149.00 13192.60 115.00
1220 16.5800 13413.00 13336.10 116.00
1221 16.5900 13955.00 13712.70 118.00
1222 16.6000 14400.00 14058.70 120.00
1223 16.6100 14459.00 14007.80 120.00
1224 16.6200 13932.00 13369.60 118.00
1225 16.6300 12847.00 12326.00 113.00
1226 16.6400 11574.00 11194.90 108.00
1227 16.6500 10465.00 10196.80 102.00
1228 16.6600 9572.00 9390.71 98.00
1229 16.6700 8896.00 8787.40 94.00
1230 16.6800 8461.00 8371.86 92.00
1231 16.6900 8154.00 8090.46 90.00
1232 16.7000 7961.00 7899.91 89.00
1233 16.7100 7800.00 7764.42 88.00
1234 16.7200 7682.00 7668.02 88.00
1235 16.7300 7558.00 7594.95 87.00
1236 16.7400 7525.00 7537.98 87.00
1237 16.7500 7453.00 7493.08 86.00
1238 16.7600 7427.00 7457.80 86.00
1239 16.7700 7407.00 7430.59 86.00
1240 16.7800 7386.00 7410.18 86.00
1241 16.7900 7316.00 7396.16 86.00
1242 16.8000 7358.00 7387.81 86.00
1243 16.8100 7315.00 7384.74 86.00
1244 16.8200 7388.00 7386.71 86.00
1245 16.8300 7428.00 7393.58 86.00
1246 16.8400 7442.00 7405.34 86.00
1247 16.8500 7403.00 7422.07 86.00
1248 16.8600 7457.00 7443.91 86.00
1249 16.8700 7468.00 7471.14 86.00
1250 16.8800 7485.00 7504.12 87.00
1251 16.8900 7589.00 7543.33 87.00
1252 16.9000 7638.00 7589.36 87.00
1253 16.9100 7636.00 7642.98 87.00
1254 16.9200 7704.00 7705.09 88.00
1255 16.9300 7803.00 7776.86 88.00
1256 16.9400 7949.00 7859.66 89.00
1257 16.9500 8052.00 7955.24 90.00
1258 16.9600 8221.00 8065.77 91.00
1259 16.9700 8318.00 8194.02 91.00
1260 16.9800 8528.00 8343.89 92.00
1261 16.9900 8776.00 8520.16 94.00
1262 17.0000 9074.00 8730.20 95.00
1263 17.0100 9457.00 8984.41 97.00
1264 17.0200 9868.00 9298.28 99.00
1265 17.0300 10316.00 9696.10 102.00
1266 17.0400 10907.00 10207.90 104.00
1267 17.0500 11698.00 10883.40 108.00
1268 17.0600 12774.00 11790.70 113.00
1269 17.0700 14151.00 13022.50 119.00
1270 17.0800 15803.00 14696.80 126.00
1271 17.0900 17771.00 16947.10 133.00
1272 17.1000 20422.00 19907.50 143.00
1273 17.1100 23587.00 23698.00 154.00
1274 17.1200 27789.00 28421.20 167.00
1275 17.1300 33107.00 34107.00 182.00
1276 17.1400 39019.00 40605.00 198.00
1277 17.1500 45692.00 47454.20 214.00
1278 17.1600 52502.00 53746.00 229.00
1279 17.1700 57687.00 58148.30 240.00
1280 17.1800 59915.00 59346.20 245.00
1281 17.1900 58145.00 56890.50 241.00
1282 17.2000 52185.00 51560.00 228.00
1283 17.2100 44618.00 44748.00 211.00
1284 17.2200 37147.00 37690.10 193.00
1285 17.2300 30184.00 31166.70 174.00
1286 17.2400 24682.00 25580.10 157.00
1287 17.2500 20531.00 21062.90 143.00
1288 17.2600 17320.00 17580.90 132.00
1289 17.2700 14834.00 14997.00 122.00
1290 17.2800 13126.00 13132.60 115.00
1291 17.2900 11783.00 11805.80 109.00
1292 17.3000 10768.00 10860.30 104.00
1293 17.3100 10100.00 10174.40 100.00
1294 17.3200 9540.00 9661.37 98.00
1295 17.3300 8987.00 9263.94 95.00
1296 17.3400 8675.00 8945.48 93.00
1297 17.3500 8356.00 8683.16 91.00
1298 17.3600 8170.00 8462.52 90.00
1299 17.3700 8020.00 8274.32 90.00
1300 17.3800 7827.00 8112.07 88.00
1301 17.3900 7629.00 7971.23 87.00
1302 17.4000 7559.00 7848.16 87.00
1303 17.4100 7422.00 7740.15 86.00
1304 17.4200 7346.00 7644.95 86.00
1305 17.4300 7313.00 7560.76 86.00
1306 17.4400 7213.00 7486.06 85.00
1307 17.4500 7132.00 7419.65 84.00
1308 17.4600 7153.00 7360.49 85.00
1309 17.4700 7066.00 7307.74 84.00
1310 17.4800 7095.00 7260.66 84.00
1311 17.4900 7061.00 7218.68 84.00
1312 17.5000 7054.00 7181.30 84.00
1313 17.5100 6988.00 7148.10 84.00
1314 17.5200 6960.00 7118.75 83.00
1315 17.5300 6915.00 7092.99 83.00
1316 17.5400 6937.00 7070.60 83.00
1317 17.5500 6950.00 7051.42 83.00
1318 17.5600 6921.00 7035.35 83.00
1319 17.5700 6867.00 7022.35 83.00
1320 17.5800 6880.00 7012.41 83.00
1321 17.5900 6861.00 7005.61 83.00
1322 17.6000 6884.00 7002.05 83.00
1323 17.6100 6950.00 7002.02 83.00
1324 17.6200 6913.00 7005.84 83.00
1325 17.6300 6922.00 7014.06 83.00
1326 17.6400 6941.00 7027.49 83.00
1327 17.6500 7030.00 7051.61 84.00
1328 17.6600 7054.00 7080.28 84.00
1329 17.6700 7141.00 7120.95 85.00
1330 17.6800 7176.00 7178.76 85.00
1331 17.6900 7232.00 7261.25 85.00
1332 17.7000 7373.00 7378.78 86.00
1333 17.7100 7508.00 7544.54 87.00
1334 17.7200 7795.00 7773.67 88.00
1335 17.7300 8046.00 8081.39 90.00
1336 17.7400 8383.00 8480.12 92.00
1337 17.7500 8775.00 8975.20 94.00
1338 17.7600 9404.00 9560.40 97.00
1339 17.7700 10015.00 10210.20 100.00
1340 17.7800 10730.00 10870.50 104.00
1341 17.7900 11462.00 11449.70 107.00
1342 17.8000 11871.00 11831.40 109.00
1343 17.8100 11829.00 11923.10 109.00
1344 17.8200 11670.00 11711.00 108.00
1345 17.8300 11105.00 11254.90 105.00
1346 17.8400 10455.00 10646.00 102.00
1347 17.8500 9929.00 9985.27 100.00
1348 17.8600 9299.00 9360.43 96.00
1349 17.8700 8794.00 8826.40 94.00
1350 17.8800 8453.00 8405.70 92.00
1351 17.8900 8133.00 8100.69 90.00
1352 17.9000 8018.00 7902.75 90.00
1353 17.9100 7903.00 7786.63 89.00
1354 17.9200 7946.00 7771.37 89.00
1355 17.9300 7940.00 7840.23 89.00
1356 17.9400 8150.00 7997.71 90.00
1357 17.9500 8318.00 8254.58 91.00
1358 17.9600 8618.00 8624.65 93.00
1359 17.9700 9107.00 9120.53 95.00
1360 17.9800 9717.00 9747.77 99.00
1361 17.9900 10335.00 10495.20 102.00
1362 18.0000 11315.00 11340.00 106.00
1363 18.0100 12313.00 12217.50 111.00
1364 18.0200 13325.00 13023.10 115.00
1365 18.0300 14075.00 13611.10 119.00
1366 18.0400 14245.00 13834.40 119.00
1367 18.0500 13871.00 13624.60 118.00
1368 18.0600 13123.00 13039.70 115.00
1369 18.0700 12111.00 12222.40 110.00
1370 18.0800 11184.00 11320.30 106.00
1371 18.0900 10312.00 10442.00 102.00
1372 18.1000 9527.00 9650.94 98.00
1373 18.1100 8873.00 8978.32 94.00
1374 18.1200 8411.00 8431.90 92.00
1375 18.1300 7988.00 8004.96 89.00
1376 18.1400 7779.00 7681.66 88.00
1377 18.1500 7554.00 7442.42 87.00
1378 18.1600 7373.00 7267.61 86.00
1379 18.1700 7242.00 7140.06 85.00
1380 18.1800 7162.00 7045.99 85.00
1381 18.1900 7059.00 6975.28 84.00
1382 18.2000 6944.00 6920.87 83.00
1383 18.2100 6987.00 6878.16 84.00
1384 18.2200 6882.00 6859.90 83.00
1385 18.2300 6833.00 6833.27 83.00
1386 18.2400 6812.00 6813.01 83.00
1387 18.2500 6806.00 6799.09 82.00
1388 18.2600 6802.00 6792.26 82.00
1389 18.2700 6822.00 6794.05 83.00
1390 18.2800 6831.00 6806.78 83.00
1391 18.2900 6861.00 6833.34 83.00
1392 18.3000 6884.00 6876.65 83.00
1393 18.3100 6942.00 6938.85 83.00
1394 18.3200 7040.00 7017.50 84.00
1395 18.3300 7166.00 7114.31 85.00
1396 18.3400 7304.00 7217.30 85.00
1397 18.3500 7381.00 7308.46 86.00
1398 18.3600 7431.00 7362.12 86.00
1399 18.3700 7452.00 7356.94 86.00
1400 18.3800 7442.00 7293.04 86.00
1401 18.3900 7331.00 7191.76 86.00
1402 18.4000 7231.00 7078.61 85.00
1403 18.4100 7027.00 6971.35 84.00
1404 18.4200 6998.00 6879.15 84.00
1405 18.4300 6858.00 6805.24 83.00
1406 18.4400 6832.00 6747.78 83.00
1407 18.4500 6770.00 6707.42 82.00
1408 18.4600 6790.00 6679.47 82.00
1409 18.4700 6692.00 6660.74 82.00
1410 18.4800 6729.00 6648.54 82.00
1411 18.4900 6713.00 6640.90 82.00
1412 18.5000 6665.00 6636.44 82.00
1413 18.5100 6743.00 6634.34 82.00
1414 18.5200 6754.00 6634.07 82.00
1415 18.5300 6747.00 6635.38 82.00
1416 18.5400 6703.00 6638.11 82.00
1417 18.5500 6713.00 6642.21 82.00
1418 18.5600 6728.00 6647.68 82.00
1419 18.5700 6783.00 6654.59 82.00
1420 18.5800 6734.00 6663.03 82.00
1421 18.5900 6726.00 6673.16 82.00
1422 18.6000 6731.00 6683.75 82.00
1423 18.6100 6741.00 6698.01 82.00
1424 18.6200 6799.00 6714.89 82.00
1425 18.6300 6811.00 6734.98 83.00
1426 18.6400 6793.00 6759.13 82.00
1427 18.6500 6823.00 6788.77 83.00
1428 18.6600 6901.00 6823.85 83.00
1429 18.6700 6936.00 6873.94 83.00
1430 18.6800 7005.00 6944.64 84.00
1431 18.6900 7133.00 7049.36 84.00
1432 18.7000 7264.00 7207.19 85.00
1433 18.7100 7397.00 7440.55 86.00
1434 18.7200 7739.00 7767.88 88.00
1435 18.7300 8098.00 8191.95 90.00
1436 18.7400 8620.00 8679.16 93.00
1437 18.7500 9084.00 9128.86 95.00
1438 18.7600 9304.00 9365.86 96.00
1439 18.7700 9207.00 9265.29 96.00
1440 18.7800 8972.00 8905.06 95.00
1441 18.7900 8442.00 8466.31 92.00
1442 18.8000 8080.00 8073.64 90.00
1443 18.8100 7835.00 7776.01 89.00
1444 18.8200 7578.00 7578.99 87.00
1445 18.8300 7410.00 7467.20 86.00
1446 18.8400 7396.00 7421.43 86.00
1447 18.8500 7321.00 7421.98 86.00
1448 18.8600 7414.00 7455.95 86.00
1449 18.8700 7473.00 7516.79 86.00
1450 18.8800 7594.00 7603.40 87.00
1451 18.8900 7635.00 7719.50 87.00
1452 18.9000 7842.00 7874.41 89.00
1453 18.9100 8031.00 8084.86 90.00
1454 18.9200 8365.00 8378.28 91.00
1455 18.9300 8794.00 8795.37 94.00
1456 18.9400 9329.00 9391.25 97.00
1457 18.9500 9997.00 10230.90 100.00
1458 18.9600 11058.00 11378.80 105.00
1459 18.9700 12451.00 12892.40 112.00
1460 18.9800 14393.00 14745.80 120.00
1461 18.9900 16718.00 16868.50 129.00
1462 19.0000 19125.00 19036.40 138.00
1463 19.0100 21109.00 20832.90 145.00
1464 19.0200 22183.00 21719.60 149.00
1465 19.0300 21775.00 21374.10 148.00
1466 19.0400 20155.00 19988.60 142.00
1467 19.0500 18077.00 18089.70 134.00
1468 19.0600 15910.00 16161.90 126.00
1469 19.0700 14234.00 14498.50 119.00
1470 19.0800 13133.00 13246.20 115.00
1471 19.0900 12489.00 12467.30 112.00
1472 19.1000 12328.00 12187.00 111.00
1473 19.1100 12649.00 12420.70 112.00
1474 19.1200 13307.00 13187.60 115.00
1475 19.1300 14467.00 14506.90 120.00
1476 19.1400 16333.00 16376.30 128.00
1477 19.1500 18723.00 18738.40 137.00
1478 19.1600 21816.00 21419.80 148.00
1479 19.1700 25088.00 24053.70 158.00
1480 19.1800 27277.00 26029.30 165.00
1481 19.1900 27833.00 26673.60 167.00
1482 19.2000 26577.00 25735.30 163.00
1483 19.2100 23969.00 23625.50 155.00
1484 19.2200 21008.00 21048.40 145.00
1485 19.2300 18390.00 18570.00 136.00
1486 19.2400 16345.00 16515.30 128.00
1487 19.2500 14848.00 15037.90 122.00
1488 19.2600 14191.00 14189.90 119.00
1489 19.2700 14010.00 13968.40 118.00
1490 19.2800 14393.00 14340.20 120.00
1491 19.2900 15350.00 15253.90 124.00
1492 19.3000 16599.00 16640.30 129.00
1493 19.3100 18334.00 18395.30 135.00
1494 19.3200 20530.00 20354.90 143.00
1495 19.3300 22582.00 22250.60 150.00
1496 19.3400 24286.00 23698.30 156.00
1497 19.3500 24987.00 24285.00 158.00
1498 19.3600 24215.00 23793.90 156.00
1499 19.3700 22355.00 22362.10 150.00
1500 19.3800 20154.00 20371.60 142.00
1501 19.3900 17692.00 18214.30 133.00
1502 19.4000 15624.00 16164.40 125.00
1503 19.4100 14018.00 14374.30 118.00
1504 19.4200 12666.00 12910.00 113.00
1505 19.4300 11639.00 11780.70 108.00
1506 19.4400 10964.00 10961.20 105.00
1507 19.4500 10428.00 10407.40 102.00
1508 19.4600 10124.00 10069.50 101.00
1509 19.4700 10019.00 9899.79 100.00
1510 19.4800 9909.00 9857.92 100.00
1511 19.4900 9871.00 9911.85 99.00
1512 19.5000 10030.00 10036.80 100.00
1513 19.5100 10205.00 10213.10 101.00
1514 19.5200 10455.00 10423.70 102.00
1515 19.5300 10785.00 10651.90 104.00
1516 19.5400 10996.00 10879.90 105.00
1517 19.5500 11251.00 11088.10 106.00
1518 19.5600 11442.00 11254.60 107.00
1519 19.5700 11499.00 11362.70 107.00
1520 19.5800 11452.00 11397.30 107.00
1521 19.5900 11381.00 11353.60 107.00
1522 19.6000 11113.00 11237.70 105.00
1523 19.6100 10747.00 11065.10 104.00
1524 19.6200 10476.00 10856.60 102.00
1525 19.6300 10181.00 10631.30 101.00
1526 19.6400 9983.00 10411.00 100.00
1527 19.6500 9838.00 10204.60 99.00
1528 19.6600 9673.00 10013.50 98.00
1529 19.6700 9515.00 9828.10 98.00
1530 19.6800 9403.00 9630.23 97.00
1531 19.6900 9186.00 9408.36 96.00
1532 19.7000 8971.00 9171.36 95.00
1533 19.7100 8853.00 8943.51 94.00
1534 19.7200 8758.00 8748.10 94.00
1535 19.7300 8596.00 8601.21 93.00
1536 19.7400 8631.00 8512.69 93.00
1537 19.7500 8649.00 8490.92 93.00
1538 19.7600 8773.00 8546.37 94.00
1539 19.7700 9011.00 8694.40 95.00
1540 19.7800 9256.00 8956.77 96.00
1541 19.7900 9565.00 9361.31 98.00
1542 19.8000 10119.00 9938.11 101.00
1543 19.8100 10789.00 10714.70 104.00
1544 19.8200 11774.00 11700.20 109.00
1545 19.8300 12952.00 12880.60 114.00
1546 19.8400 14248.00 14192.90 119.00
1547 19.8500 15433.00 15501.50 124.00
1548 19.8600 16655.00 16585.00 129.00
1549 19.8700 17217.00 17190.40 131.00
1550 19.8800 17399.00 17183.40 132.00
1551 19.8900 16865.00 16635.10 130.00
1552 19.9000 15861.00 15749.80 126.00
1553 19.9100 14652.00 14747.50 121.00
1554 19.9200 13676.00 13815.90 117.00
1555 19.9300 12896.00 13073.60 114.00
1556 19.9400 12515.00 12619.40 112.00
1557 19.9500 12538.00 12521.80 112.00
1558 19.9600 12822.00 12838.20 113.00
1559 19.9700 13503.00 13617.00 116.00
1560 19.9800 14734.00 14886.20 121.00
1561 19.9900 16414.00 16622.60 128.00
1562 20.0000 18537.00 18703.80 136.00
1563 20.0100 20919.00 20821.70 145.00
1564 20.0200 22557.00 22420.50 150.00
1565 20.0300 23197.00 22899.00 152.00
1566 20.0400 22729.00 22139.50 151.00
1567 20.0500 21270.00 20635.20 146.00
1568 20.0600 19607.00 19007.60 140.00
1569 20.0700 18426.00 17690.80 136.00
1570 20.0800 17715.00 16960.60 133.00
1571 20.0900 17707.00 17021.10 133.00
1572 20.1000 18625.00 18015.10 136.00
1573 20.1100 20361.00 19948.50 143.00
1574 20.1200 22913.00 22572.00 151.00
1575 20.1300 25099.00 25055.80 158.00
1576 20.1400 25642.00 25937.30 160.00
1577 20.1500 23832.00 24300.10 154.00
1578 20.1600 20713.00 21012.20 144.00
1579 20.1700 17141.00 17502.20 131.00
1580 20.1800 14261.00 14553.00 119.00
1581 20.1900 12225.00 12375.60 111.00
1582 20.2000 10834.00 10900.70 104.00
1583 20.2100 9884.00 9950.61 99.00
1584 20.2200 9249.00 9345.08 96.00
1585 20.2300 8848.00 8948.06 94.00
1586 20.2400 8578.00 8675.93 93.00
1587 20.2500 8440.00 8482.52 92.00
1588 20.2600 8261.00 8343.69 91.00
1589 20.2700 8153.00 8246.18 90.00
1590 20.2800 8133.00 8182.25 90.00
1591 20.2900 8047.00 8147.04 90.00
1592 20.3000 8045.00 8137.75 90.00
1593 20.3100 8104.00 8153.14 90.00
1594 20.3200 8201.00 8193.62 91.00
1595 20.3300 8192.00 8261.51 91.00
1596 20.3400 8377.00 8362.24 92.00
1597 20.3500 8529.00 8504.46 92.00
1598 20.3600 8862.00 8704.24 94.00
1599 20.3700 9209.00 8986.46 96.00
1600 20.3800 9606.00 9388.14 98.00
1601 20.3900 10165.00 9959.22 101.00
1602 20.4000 10994.00 10761.50 105.00
1603 20.4100 11986.00 11860.00 109.00
1604 20.4200 13446.00 13311.30 116.00
1605 20.4300 15415.00 15141.80 124.00
1606 20.4400 17663.00 17323.30 133.00
1607 20.4500 20248.00 19729.30 142.00
1608 20.4600 22838.00 22080.40 151.00
1609 20.4700 24863.00 23910.30 158.00
1610 20.4800 25648.00 24703.20 160.00
1611 20.4900 24908.00 24235.30 158.00
1612 20.5000 23017.00 22780.50 152.00
1613 20.5100 20601.00 20877.10 144.00
1614 20.5200 18534.00 18991.40 136.00
1615 20.5300 16870.00 17397.10 130.00
1616 20.5400 15665.00 16212.50 125.00
1617 20.5500 15239.00 15453.60 123.00
1618 20.5600 14895.00 15076.10 122.00
1619 20.5700 14916.00 15005.90 122.00
1620 20.5800 15238.00 15165.00 123.00
1621 20.5900 15640.00 15481.80 125.00
1622 20.6000 16255.00 15889.00 127.00
1623 20.6100 16938.00 16319.30 130.00
1624 20.6200 17410.00 16703.80 132.00
1625 20.6300 17717.00 16976.60 133.00
1626 20.6400 17896.00 17084.20 134.00
1627 20.6500 17562.00 16997.20 133.00
1628 20.6600 17082.00 16718.00 131.00
1629 20.6700 16460.00 16279.10 128.00
1630 20.6800 15693.00 15731.00 125.00
1631 20.6900 14797.00 15130.10 122.00
1632 20.7000 14117.00 14527.30 119.00
1633 20.7100 13486.00 13964.20 116.00
1634 20.7200 13104.00 13471.60 114.00
1635 20.7300 12842.00 13070.30 113.00
1636 20.7400 12586.00 12771.90 112.00
1637 20.7500 12399.00 12580.20 111.00
1638 20.7600 12474.00 12491.10 112.00
1639 20.7700 12504.00 12493.50 112.00
1640 20.7800 12705.00 12570.30 113.00
1641 20.7900 13096.00 12698.90 114.00
1642 20.8000 13289.00 12853.60 115.00
1643 20.8100 13412.00 13006.30 116.00
1644 20.8200 13663.00 13128.20 117.00
1645 20.8300 13649.00 13190.80 117.00
1646 20.8400 13717.00 13168.70 117.00
1647 20.8500 13511.00 13046.60 116.00
1648 20.8600 13194.00 12819.70 115.00
1649 20.8700 12608.00 12497.60 112.00
1650 20.8800 12109.00 12100.70 110.00
1651 20.8900 11499.00 11655.70 107.00
1652 20.9000 11015.00 11187.80 105.00
1653 20.9100 10569.00 10719.00 103.00
1654 20.9200 10158.00 10266.70 101.00
1655 20.9300 9716.00 9843.20 99.00
1656 20.9400 9374.00 9457.23 97.00
1657 20.9500 9077.00 9114.07 95.00
1658 20.9600 8905.00 8817.01 94.00
1659 20.9700 8748.00 8567.68 94.00
1660 20.9800 8575.00 8366.95 93.00
1661 20.9900 8455.00 8215.50 92.00
1662 21.0000 8396.00 8114.24 92.00
1663 21.0100 8336.00 8064.23 91.00
1664 21.0200 8378.00 8066.47 92.00
1665 21.0300 8465.00 8121.05 92.00
1666 21.0400 8545.00 8225.98 92.00
1667 21.0500 8636.00 8375.55 93.00
1668 21.0600 8876.00 8557.72 94.00
1669 21.0700 9074.00 8750.96 95.00
1670 21.0800 9292.00 8922.02 96.00
1671 21.0900 9427.00 9032.49 97.00
1672 21.1000 9436.00 9060.27 97.00
1673 21.1100 9260.00 9018.47 96.00
1674 21.1200 9162.00 8949.63 96.00
1675 21.1300 9006.00 8898.76 95.00
1676 21.1400 9022.00 8891.15 95.00
1677 21.1500 9092.00 8919.79 95.00
1678 21.1600 9113.00 8937.59 95.00
1679 21.1700 9011.00 8879.09 95.00
1680 21.1800 8944.00 8729.23 95.00
1681 21.1900 8724.00 8544.20 93.00
1682 21.2000 8619.00 8388.86 93.00
1683 21.2100 8604.00 8301.02 93.00
1684 21.2200 8622.00 8298.84 93.00
1685 21.2300 8670.00 8400.64 93.00
1686 21.2400 8954.00 8628.56 95.00
1687 21.2500 9313.00 9019.22 97.00
1688 21.2600 9933.00 9622.40 100.00
1689 21.2700 10809.00 10493.40 104.00
1690 21.2800 11850.00 11674.30 109.00
1691 21.2900 13218.00 13167.10 115.00
1692 21.3000 15038.00 14886.10 123.00
1693 21.3100 16640.00 16595.40 129.00
1694 21.3200 18129.00 17817.70 135.00
1695 21.3300 18650.00 18061.50 137.00
1696 21.3400 17891.00 17222.60 134.00
1697 21.3500 16208.00 15709.70 127.00
1698 21.3600 14426.00 14038.50 120.00
1699 21.3700 12755.00 12533.20 113.00
1700 21.3800 11539.00 11329.90 107.00
1701 21.3900 10759.00 10454.40 104.00
1702 21.4000 10201.00 9877.62 101.00
1703 21.4100 9836.00 9550.72 99.00
1704 21.4200 9736.00 9426.21 99.00
1705 21.4300 9829.00 9472.86 99.00
1706 21.4400 10059.00 9682.23 100.00
1707 21.4500 10569.00 10069.80 103.00
1708 21.4600 11054.00 10672.50 105.00
1709 21.4700 11790.00 11541.70 109.00
1710 21.4800 12911.00 12735.00 114.00
1711 21.4900 14391.00 14299.80 120.00
1712 21.5000 16394.00 16255.70 128.00
1713 21.5100 18960.00 18565.40 138.00
1714 21.5200 21544.00 21097.80 147.00
1715 21.5300 24072.00 23574.90 155.00
1716 21.5400 26290.00 25559.20 162.00
1717 21.5500 27137.00 26574.10 165.00
1718 21.5600 26924.00 26366.50 164.00
1719 21.5700 25389.00 25044.20 159.00
1720 21.5800 22982.00 22953.70 152.00
1721 21.5900 20214.00 20501.20 142.00
1722 21.6000 17791.00 18036.60 133.00
1723 21.6100 15544.00 15795.60 125.00
1724 21.6200 13830.00 13897.10 118.00
1725 21.6300 12449.00 12370.60 112.00
1726 21.6400 11350.00 11193.30 107.00
1727 21.6500 10529.00 10314.00 103.00
1728 21.6600 9911.00 9671.34 100.00
1729 21.6700 9413.00 9213.01 97.00
1730 21.6800 9163.00 8888.49 96.00
1731 21.6900 8903.00 8660.39 94.00
1732 21.7000 8727.00 8502.01 93.00
1733 21.7100 8526.00 8395.39 92.00
1734 21.7200 8509.00 8329.46 92.00
1735 21.7300 8448.00 8298.16 92.00
1736 21.7400 8513.00 8299.43 92.00
1737 21.7500 8555.00 8334.65 92.00
1738 21.7600 8658.00 8408.68 93.00
1739 21.7700 8770.00 8530.31 94.00
1740 21.7800 8984.00 8712.72 95.00
1741 21.7900 9219.00 8973.74 96.00
1742 21.8000 9596.00 9334.97 98.00
1743 21.8100 10104.00 9820.12 101.00
1744 21.8200 10746.00 10451.90 104.00
1745 21.8300 11469.00 11246.10 107.00
1746 21.8400 12529.00 12206.40 112.00
1747 21.8500 13648.00 13310.50 117.00
1748 21.8600 14948.00 14510.90 122.00
1749 21.8700 16480.00 15699.80 128.00
1750 21.8800 17618.00 16721.10 133.00
1751 21.8900 18204.00 17407.30 135.00
1752 21.9000 18394.00 17664.20 136.00
1753 21.9100 18232.00 17516.00 135.00
1754 21.9200 17673.00 17068.00 133.00
1755 21.9300 17144.00 16449.00 131.00
1756 21.9400 16471.00 15789.20 128.00
1757 21.9500 15849.00 15214.10 126.00
1758 21.9600 15505.00 14832.60 125.00
1759 21.9700 15313.00 14727.20 124.00
1760 21.9800 15488.00 14951.60 124.00
1761 21.9900 16034.00 15533.50 127.00
1762 22.0000 16837.00 16474.80 130.00
1763 22.0100 17923.00 17750.30 134.00
1764 22.0200 19407.00 19306.80 139.00
1765 22.0300 21085.00 21022.30 145.00
1766 22.0400 22947.00 22732.60 151.00
1767 22.0500 24663.00 24195.00 157.00
1768 22.0600 25529.00 25124.60 160.00
1769 22.0700 25380.00 25286.10 159.00
1770 22.0800 24699.00 24618.30 157.00
1771 22.0900 22931.00 23254.70 151.00
1772 22.1000 20883.00 21453.30 145.00
1773 22.1100 18794.00 19475.50 137.00
1774 22.1200 16788.00 17521.60 130.00
1775 22.1300 14938.00 15717.80 122.00
1776 22.1400 13606.00 14134.80 117.00
1777 22.1500 12340.00 12800.60 111.00
1778 22.1600 11490.00 11717.50 107.00
1779 22.1700 10784.00 10870.20 104.00
1780 22.1800 10226.00 10234.00 101.00
1781 22.1900 9834.00 9783.36 99.00
1782 22.2000 9615.00 9497.09 98.00
1783 22.2100 9516.00 9364.77 98.00
1784 22.2200 9587.00 9389.33 98.00
1785 22.2300 9809.00 9587.20 99.00
1786 22.2400 10081.00 9983.67 100.00
1787 22.2500 10566.00 10602.50 103.00
1788 22.2600 11378.00 11450.80 107.00
1789 22.2700 12359.00 12493.10 111.00
1790 22.2800 13634.00 13611.80 117.00
1791 22.2900 14663.00 14555.80 121.00
1792 22.3000 15089.00 14973.10 123.00
1793 22.3100 14756.00 14642.80 121.00
1794 22.3200 13875.00 13696.30 118.00
1795 22.3300 12563.00 12478.60 112.00
1796 22.3400 11306.00 11275.90 106.00
1797 22.3500 10242.00 10234.40 101.00
1798 22.3600 9388.00 9402.33 97.00
1799 22.3700 8799.00 8774.18 94.00
1800 22.3800 8348.00 8319.17 91.00
1801 22.3900 8028.00 7994.64 90.00
1802 22.4000 7786.00 7768.19 88.00
1803 22.4100 7729.00 7604.31 88.00
1804 22.4200 7530.00 7485.39 87.00
1805 22.4300 7424.00 7394.93 86.00
1806 22.4400 7366.00 7324.09 86.00
1807 22.4500 7290.00 7267.42 85.00
1808 22.4600 7244.00 7221.53 85.00
1809 22.4700 7300.00 7184.12 85.00
1810 22.4800 7227.00 7153.51 85.00
1811 22.4900 7132.00 7128.35 84.00
1812 22.5000 7169.00 7107.60 85.00
1813 22.5100 7142.00 7090.53 85.00
1814 22.5200 7146.00 7076.74 85.00
1815 22.5300 7172.00 7066.11 85.00
1816 22.5400 7165.00 7058.63 85.00
1817 22.5500 7141.00 7054.34 85.00
1818 22.5600 7145.00 7053.28 85.00
1819 22.5700 7136.00 7055.45 84.00
1820 22.5800 7165.00 7060.91 85.00
1821 22.5900 7166.00 7069.72 85.00
1822 22.6000 7214.00 7081.98 85.00
1823 22.6100 7139.00 7097.82 84.00
1824 22.6200 7235.00 7117.47 85.00
1825 22.6300 7186.00 7141.17 85.00
1826 22.6400 7286.00 7169.31 85.00
1827 22.6500 7330.00 7202.35 86.00
1828 22.6600 7359.00 7240.93 86.00
1829 22.6700 7398.00 7285.86 86.00
1830 22.6800 7483.00 7338.26 87.00
1831 22.6900 7496.00 7399.68 87.00
1832 22.7000 7621.00 7472.46 87.00
1833 22.7100 7715.00 7558.72 88.00
1834 22.7200 7838.00 7666.26 89.00
1835 22.7300 7926.00 7801.64 89.00
1836 22.7400 8146.00 7976.08 90.00
1837 22.7500 8395.00 8204.99 92.00
1838 22.7600 8724.00 8507.82 93.00
1839 22.7700 9157.00 8907.28 96.00
1840 22.7800 9640.00 9426.39 98.00
1841 22.7900 10188.00 10084.90 101.00
1842 22.8000 11057.00 10892.60 105.00
1843 22.8100 12008.00 11842.10 110.00
1844 22.8200 13215.00 12895.10 115.00
1845 22.8300 14513.00 13965.20 120.00
1846 22.8400 15504.00 14905.40 125.00
1847 22.8500 16003.00 15540.60 127.00
1848 22.8600 16250.00 15766.20 127.00
1849 22.8700 15864.00 15637.00 126.00
1850 22.8800 15265.00 15331.90 124.00
1851 22.8900 14840.00 15041.60 122.00
1852 22.9000 14504.00 14900.20 120.00
1853 22.9100 14527.00 14979.80 121.00
1854 22.9200 14805.00 15306.00 122.00
1855 22.9300 15440.00 15870.90 124.00
1856 22.9400 16355.00 16640.70 128.00
1857 22.9500 17568.00 17558.00 133.00
1858 22.9600 18778.00 18542.40 137.00
1859 22.9700 19737.00 19489.00 140.00
1860 22.9800 20818.00 20274.90 144.00
1861 22.9900 21306.00 20776.80 146.00
1862 23.0000 21601.00 20909.30 147.00
1863 23.0100 21145.00 20654.60 145.00
1864 23.0200 20265.00 20062.00 142.00
1865 23.0300 19122.00 19224.20 138.00
1866 23.0400 18072.00 18245.10 134.00
1867 23.0500 16795.00 17221.90 130.00
1868 23.0600 15868.00 16234.10 126.00
1869 23.0700 15045.00 15343.40 123.00
1870 23.0800 14406.00 14596.40 120.00
1871 23.0900 13894.00 14036.10 118.00
1872 23.1000 13671.00 13672.60 117.00
1873 23.1100 13583.00 13532.30 117.00
1874 23.1200 13871.00 13626.30 118.00
1875 23.1300 14210.00 13956.20 119.00
1876 23.1400 14738.00 14511.90 121.00
1877 23.1500 15329.00 15268.40 124.00
1878 23.1600 16240.00 16179.60 127.00
1879 23.1700 17169.00 17172.60 131.00
1880 23.1800 18244.00 18138.70 135.00
1881 23.1900 19133.00 18936.50 138.00
1882 23.2000 19550.00 19413.90 140.00
1883 23.2100 19437.00 19461.80 139.00
1884 23.2200 19008.00 19064.30 138.00
1885 23.2300 18109.00 18302.10 135.00
1886 23.2400 17060.00 17303.40 131.00
1887 23.2500 15975.00 16188.40 126.00
1888 23.2600 14810.00 15046.00 122.00
1889 23.2700 13638.00 13933.00 117.00
1890 23.2800 12709.00 12897.50 113.00
1891 23.2900 11810.00 11966.10 109.00
1892 23.3000 11091.00 11157.00 105.00
1893 23.3100 10541.00 10477.50 103.00
1894 23.3200 9987.00 9925.38 100.00
1895 23.3300 9585.00 9493.69 98.00
1896 23.3400 9229.00 9172.70 96.00
1897 23.3500 9037.00 8952.68 95.00
1898 23.3600 8906.00 8824.37 94.00
1899 23.3700 8938.00 8778.91 95.00
1900 23.3800 8849.00 8806.33 94.00
1901 23.3900 8886.00 8894.21 94.00
1902 23.4000 9040.00 9023.25 95.00
1903 23.4100 9192.00 9163.43 96.00
1904 23.4200 9338.00 9272.18 97.00
1905 23.4300 9454.00 9303.64 97.00
1906 23.4400 9376.00 9232.25 97.00
1907 23.4500 9170.00 9070.41 96.00
1908 23.4600 9018.00 8858.12 95.00
1909 23.4700 8748.00 8638.23 94.00
1910 23.4800 8583.00 8441.76 93.00
1911 23.4900 8492.00 8287.97 92.00
1912 23.5000 8365.00 8189.39 91.00
1913 23.5100 8340.00 8157.17 91.00
1914 23.5200 8384.00 8206.44 92.00
1915 23.5300 8585.00 8361.06 93.00
1916 23.5400 8911.00 8656.55 94.00
1917 23.5500 9386.00 9138.82 97.00
1918 23.5600 10034.00 9854.89 100.00
1919 23.5700 10833.00 10836.30 104.00
1920 23.5800 12032.00 12065.90 110.00
1921 23.5900 13228.00 13421.90 115.00
1922 23.6000 14395.00 14592.50 120.00
1923 23.6100 15022.00 15102.00 123.00
1924 23.6200 14846.00 14665.20 122.00
1925 23.6300 13754.00 13514.00 117.00
1926 23.6400 12502.00 12126.30 112.00
1927 23.6500 11164.00 10836.60 106.00
1928 23.6600 10078.00 9782.86 100.00
1929 23.6700 9299.00 8988.45 96.00
1930 23.6800 8713.00 8425.72 93.00
1931 23.6900 8237.00 8037.15 91.00
1932 23.7000 7991.00 7774.54 89.00
1933 23.7100 7703.00 7595.74 88.00
1934 23.7200 7584.00 7470.81 87.00
1935 23.7300 7554.00 7380.62 87.00
1936 23.7400 7413.00 7313.80 86.00
1937 23.7500 7344.00 7263.68 86.00
1938 23.7600 7326.00 7224.38 86.00
1939 23.7700 7254.00 7197.31 85.00
1940 23.7800 7255.00 7178.92 85.00
1941 23.7900 7347.00 7168.11 86.00
1942 23.8000 7298.00 7164.20 85.00
1943 23.8100 7302.00 7166.78 85.00
1944 23.8200 7313.00 7175.75 86.00
1945 23.8300 7279.00 7191.28 85.00
1946 23.8400 7299.00 7213.91 85.00
1947 23.8500 7370.00 7244.64 86.00
1948 23.8600 7452.00 7285.13 86.00
1949 23.8700 7422.00 7337.96 86.00
1950 23.8800 7546.00 7406.86 87.00
1951 23.8900 7613.00 7496.98 87.00
1952 23.9000 7728.00 7614.95 88.00
1953 23.9100 7927.00 7768.70 89.00
1954 23.9200 8130.00 7966.76 90.00
1955 23.9300 8326.00 8217.41 91.00
1956 23.9400 8645.00 8526.87 93.00
1957 23.9500 8948.00 8897.48 95.00
1958 23.9600 9502.00 9323.83 97.00
1959 23.9700 9985.00 9787.89 100.00
1960 23.9800 10535.00 10253.80 103.00
1961 23.9900 10862.00 10671.60 104.00
1962 24.0000 11349.00 11000.80 107.00
1963 24.0100 11566.00 11242.90 108.00
1964 24.0200 11810.00 11445.30 109.00
1965 24.0300 12037.00 11671.40 110.00
1966 24.0400 12300.00 11970.20 111.00
1967 24.0500 12675.00 12365.20 113.00
1968 24.0600 13283.00 12855.30 115.00
1969 24.0700 13754.00 13417.20 117.00
1970 24.0800 14445.00 14007.90 120.00
1971 24.0900 15058.00 14573.00 123.00
1972 24.1000 15478.00 15061.50 124.00
1973 24.1100 15612.00 15442.90 125.00
1974 24.1200 15696.00 15711.60 125.00
1975 24.1300 15669.00 15874.10 125.00
1976 24.1400 15662.00 15928.70 125.00
1977 24.1500 15632.00 15857.20 125.00
1978 24.1600 15352.00 15635.20 124.00
1979 24.1700 14925.00 15258.50 122.00
1980 24.1800 14476.00 14756.20 120.00
1981 24.1900 13951.00 14181.40 118.00
1982 24.2000 13501.00 13587.00 116.00
1983 24.2100 13072.00 13009.80 114.00
1984 24.2200 12529.00 12467.80 112.00
1985 24.2300 12048.00 11966.90 110.00
1986 24.2400 11632.00 11509.90 108.00
1987 24.2500 11205.00 11101.90 106.00
1988 24.2600 10885.00 10751.90 104.00
1989 24.2700 10703.00 10470.20 103.00
1990 24.2800 10417.00 10266.40 102.00
1991 24.2900 10281.00 10157.40 101.00
1992 24.3000 10222.00 10124.00 101.00
1993 24.3100 10207.00 10173.50 101.00
1994 24.3200 10386.00 10294.40 102.00
1995 24.3300 10680.00 10463.50 103.00
1996 24.3400 10891.00 10641.00 104.00
1997 24.3500 11032.00 10774.80 105.00
1998 24.3600 11110.00 10821.80 105.00
1999 24.3700 11026.00 10777.50 105.00
2000 24.3800 10899.00 10681.80 104.00
2001 24.3900 10791.00 10593.00 104.00
2002 24.4000 10678.00 10561.80 103.00
2003 24.4100 10629.00 10621.80 103.00
2004 24.4200 10826.00 10793.50 104.00
2005 24.4300 11087.00 11088.30 105.00
2006 24.4400 11599.00 11509.50 108.00
2007 24.4500 12253.00 12063.30 111.00
2008 24.4600 12953.00 12743.40 114.00
2009 24.4700 13694.00 13541.30 117.00
2010 24.4800 14661.00 14432.90 121.00
2011 24.4900 15495.00 15396.10 124.00
2012 24.5000 16473.00 16409.10 128.00
2013 24.5100 17550.00 17459.40 132.00
2014 24.5200 18459.00 18541.30 136.00
2015 24.5300 19340.00 19632.60 139.00
2016 24.5400 20483.00 20667.80 143.00
2017 24.5500 21500.00 21533.70 147.00
2018 24.5600 22404.00 22116.50 150.00
2019 24.5700 22877.00 22403.10 151.00
2020 24.5800 23027.00 22532.60 152.00
2021 24.5900 22764.00 22732.20 151.00
2022 24.6000 23102.00 23190.10 152.00
2023 24.6100 23636.00 23952.00 154.00
2024 24.6200 24537.00 24843.50 157.00
2025 24.6300 25470.00 25435.90 160.00
2026 24.6400 25514.00 25202.90 160.00
2027 24.6500 24499.00 23930.00 157.00
2028 24.6600 22724.00 21916.00 151.00
2029 24.6700 20417.00 19664.00 143.00
2030 24.6800 18181.00 17544.90 135.00
2031 24.6900 16222.00 15737.00 127.00
2032 24.7000 14625.00 14298.00 121.00
2033 24.7100 13462.00 13222.80 116.00
2034 24.7200 12650.00 12477.80 112.00
2035 24.7300 12090.00 12017.10 110.00
2036 24.7400 11838.00 11794.10 109.00
2037 24.7500 11796.00 11763.80 109.00
2038 24.7600 11832.00 11880.80 109.00
2039 24.7700 12028.00 12089.60 110.00
2040 24.7800 12315.00 12316.00 111.00
2041 24.7900 12549.00 12460.70 112.00
2042 24.8000 12578.00 12426.50 112.00
2043 24.8100 12382.00 12166.80 111.00
2044 24.8200 11844.00 11720.30 109.00
2045 24.8300 11152.00 11172.90 106.00
2046 24.8400 10585.00 10610.40 103.00
2047 24.8500 9990.00 10092.10 100.00
2048 24.8600 9596.00 9649.42 98.00
2049 24.8700 9224.00 9296.62 96.00
2050 24.8800 9015.00 9037.40 95.00
2051 24.8900 8808.00 8871.01 94.00
2052 24.9000 8783.00 8795.36 94.00
2053 24.9100 8709.00 8809.91 93.00
2054 24.9200 8848.00 8916.65 94.00
2055 24.9300 9050.00 9119.96 95.00
2056 24.9400 9354.00 9425.15 97.00
2057 24.9500 9589.00 9835.25 98.00
2058 24.9600 10144.00 10347.10 101.00
2059 24.9700 10717.00 10944.60 104.00
2060 24.9800 11515.00 11589.30 107.00
2061 24.9900 12245.00 12208.10 111.00
2062 25.0000 12822.00 12697.50 113.00
2063 25.0100 13076.00 12952.90 114.00
2064 25.0200 13146.00 12937.90 115.00
2065 25.0300 12930.00 12716.40 114.00
2066 25.0400 12599.00 12410.30 112.00
2067 25.0500 12318.00 12134.60 111.00
2068 25.0600 12088.00 11967.10 110.00
2069 25.0700 11967.00 11949.60 109.00
2070 25.0800 12148.00 12098.10 110.00
2071 25.0900 12477.00 12410.10 112.00
2072 25.1000 13087.00 12866.90 114.00
2073 25.1100 13762.00 13435.00 117.00
2074 25.1200 14541.00 14063.70 121.00
2075 25.1300 15219.00 14686.40 123.00
2076 25.1400 15876.00 15226.30 126.00
2077 25.1500 16140.00 15613.80 127.00
2078 25.1600 16363.00 15803.80 128.00
2079 25.1700 16292.00 15784.30 128.00
2080 25.1800 15929.00 15568.50 126.00
2081 25.1900 15416.00 15187.80 124.00
2082 25.2000 14831.00 14699.50 122.00
2083 25.2100 14235.00 14186.10 119.00
2084 25.2200 13761.00 13737.70 117.00
2085 25.2300 13446.00 13426.90 116.00
2086 25.2400 13281.00 13295.70 115.00
2087 25.2500 13133.00 13356.90 115.00
2088 25.2600 13366.00 13611.30 116.00
2089 25.2700 13729.00 14063.70 117.00
2090 25.2800 14297.00 14709.60 120.00
2091 25.2900 15228.00 15516.30 123.00
2092 25.3000 16206.00 16418.40 127.00
2093 25.3100 17151.00 17312.30 131.00
2094 25.3200 18004.00 18062.60 134.00
2095 25.3300 18517.00 18521.90 136.00
2096 25.3400 18744.00 18579.00 137.00
2097 25.3500 18308.00 18208.20 135.00
2098 25.3600 17515.00 17480.00 132.00
2099 25.3700 16279.00 16521.30 128.00
2100 25.3800 15148.00 15462.30 123.00
2101 25.3900 13928.00 14400.80 118.00
2102 25.4000 12979.00 13394.40 114.00
2103 25.4100 12141.00 12466.40 110.00
2104 25.4200 11379.00 11621.00 107.00
2105 25.4300 10650.00 10858.60 103.00
2106 25.4400 10067.00 10184.30 100.00
2107 25.4500 9477.00 9603.43 97.00
2108 25.4600 9097.00 9116.78 95.00
2109 25.4700 8738.00 8717.92 93.00
2110 25.4800 8446.00 8394.91 92.00
2111 25.4900 8094.00 8138.05 90.00
2112 25.5000 7932.00 7933.42 89.00
2113 25.5100 7725.00 7771.46 88.00
2114 25.5200 7591.00 7642.39 87.00
2115 25.5300 7523.00 7538.82 87.00
2116 25.5400 7422.00 7454.93 86.00
2117 25.5500 7321.00 7386.35 86.00
2118 25.5600 7258.00 7329.83 85.00
2119 25.5700 7210.00 7283.02 85.00
2120 25.5800 7186.00 7244.25 85.00
2121 25.5900 7152.00 7212.31 85.00
2122 25.6000 7125.00 7186.31 84.00
2123 25.6100 7110.00 7165.58 84.00
2124 25.6200 7093.00 7149.43 84.00
2125 25.6300 7069.00 7137.69 84.00
2126 25.6400 7080.00 7129.88 84.00
2127 25.6500 7136.00 7125.83 84.00
2128 25.6600 7134.00 7122.74 84.00
2129 25.6700 7119.00 7126.92 84.00
2130 25.6800 7165.00 7136.53 85.00
2131 25.6900 7132.00 7153.25 84.00
2132 25.7000 7198.00 7179.44 85.00
2133 25.7100 7274.00 7218.17 85.00
2134 25.7200 7359.00 7273.18 86.00
2135 25.7300 7347.00 7348.80 86.00
2136 25.7400 7466.00 7449.54 86.00
2137 25.7500 7574.00 7579.64 87.00
2138 25.7600 7784.00 7742.19 88.00
2139 25.7700 8007.00 7938.19 89.00
2140 25.7800 8233.00 8164.79 91.00
2141 25.7900 8419.00 8413.13 92.00
2142 25.8000 8718.00 8664.95 93.00
2143 25.8100 8827.00 8891.33 94.00
2144 25.8200 9067.00 9057.86 95.00
2145 25.8300 9146.00 9140.11 96.00
2146 25.8400 9075.00 9139.12 95.00
2147 25.8500 8943.00 9080.15 95.00
2148 25.8600 8905.00 8994.70 94.00
2149 25.8700 8786.00 8910.07 94.00
2150 25.8800 8807.00 8841.42 94.00
2151 25.8900 8799.00 8796.30 94.00
2152 25.9000 8784.00 8781.91 94.00
2153 25.9100 8735.00 8808.56 93.00
2154 25.9200 8856.00 8889.31 94.00
2155 25.9300 8927.00 9044.96 94.00
2156 25.9400 9181.00 9292.67 96.00
2157 25.9500 9489.00 9649.75 97.00
2158 25.9600 9889.00 10129.90 99.00
2159 25.9700 10384.00 10739.60 102.00
2160 25.9800 11190.00 11474.10 106.00
2161 25.9900 12040.00 12308.80 110.00
2162 26.0000 13062.00 13189.20 114.00
2163 26.0100 14185.00 14017.90 119.00
2164 26.0200 14881.00 14660.90 122.00
2165 26.0300 15192.00 14992.90 123.00
2166 26.0400 15159.00 14972.50 123.00
2167 26.0500 14733.00 14671.30 121.00
2168 26.0600 14210.00 14222.60 119.00
2169 26.0700 13667.00 13712.70 117.00
2170 26.0800 13028.00 13167.00 114.00
2171 26.0900 12393.00 12558.50 111.00
2172 26.1000 11837.00 11900.90 109.00
2173 26.1100 11264.00 11273.50 106.00
2174 26.1200 10837.00 10757.70 104.00
2175 26.1300 10543.00 10396.30 103.00
2176 26.1400 10290.00 10200.80 101.00
2177 26.1500 10189.00 10164.90 101.00
2178 26.1600 10327.00 10271.80 102.00
2179 26.1700 10499.00 10493.30 102.00
2180 26.1800 10793.00 10787.00 104.00
2181 26.1900 11156.00 11096.20 106.00
2182 26.2000 11341.00 11353.70 106.00
2183 26.2100 11400.00 11485.40 107.00
2184 26.2200 11349.00 11429.80 107.00
2185 26.2300 11064.00 11187.60 105.00
2186 26.2400 10816.00 10837.10 104.00
2187 26.2500 10473.00 10477.40 102.00
2188 26.2600 10177.00 10174.70 101.00
2189 26.2700 9912.00 9954.87 100.00
2190 26.2800 9828.00 9816.42 99.00
2191 26.2900 9754.00 9741.56 99.00
2192 26.3000 9811.00 9703.29 99.00
2193 26.3100 9845.00 9671.16 99.00
2194 26.3200 9756.00 9617.45 99.00
2195 26.3300 9554.00 9523.27 98.00
2196 26.3400 9456.00 9382.15 97.00
2197 26.3500 9174.00 9199.44 96.00
2198 26.3600 8964.00 8987.65 95.00
2199 26.3700 8674.00 8761.50 93.00
2200 26.3800 8405.00 8533.96 92.00
2201 26.3900 8110.00 8315.05 90.00
2202 26.4000 7970.00 8111.35 89.00
2203 26.4100 7780.00 7927.02 88.00
2204 26.4200 7634.00 7763.97 87.00
2205 26.4300 7566.00 7622.67 87.00
2206 26.4400 7476.00 7502.34 86.00
2207 26.4500 7322.00 7401.39 86.00
2208 26.4600 7249.00 7317.75 85.00
2209 26.4700 7172.00 7249.04 85.00
2210 26.4800 7113.00 7192.90 84.00
2211 26.4900 7161.00 7147.11 85.00
2212 26.5000 7122.00 7109.84 84.00
2213 26.5100 7066.00 7079.63 84.00
2214 26.5200 7081.00 7055.46 84.00
2215 26.5300 7009.00 7036.48 84.00
2216 26.5400 7000.00 7023.23 84.00
2217 26.5500 7071.00 7015.75 84.00
2218 26.5600 7002.00 7014.89 84.00
2219 26.5700 6985.00 7021.97 84.00
2220 26.5800 7018.00 7038.76 84.00
2221 26.5900 7076.00 7072.79 84.00
2222 26.6000 7132.00 7115.61 84.00
2223 26.6100 7209.00 7174.80 85.00
2224 26.6200 7239.00 7252.01 85.00
2225 26.6300 7310.00 7347.88 85.00
2226 26.6400 7432.00 7461.15 86.00
2227 26.6500 7518.00 7587.76 87.00
2228 26.6600 7671.00 7719.10 88.00
2229 26.6700 7823.00 7840.46 88.00
2230 26.6800 7904.00 7931.68 89.00
2231 26.6900 7912.00 7972.59 89.00
2232 26.7000 7926.00 7953.07 89.00
2233 26.7100 7781.00 7879.16 88.00
2234 26.7200 7709.00 7768.90 88.00
2235 26.7300 7637.00 7642.67 87.00
2236 26.7400 7447.00 7516.47 86.00
2237 26.7500 7336.00 7400.52 86.00
2238 26.7600 7240.00 7300.21 85.00
2239 26.7700 7169.00 7217.73 85.00
2240 26.7800 7172.00 7153.12 85.00
2241 26.7900 7116.00 7105.21 84.00
2242 26.8000 7089.00 7072.09 84.00
2243 26.8100 6972.00 7051.61 83.00
2244 26.8200 7048.00 7041.86 84.00
2245 26.8300 6989.00 7041.05 84.00
2246 26.8400 7009.00 7047.84 84.00
2247 26.8500 7060.00 7061.28 84.00
2248 26.8600 7060.00 7080.82 84.00
2249 26.8700 7050.00 7106.23 84.00
2250 26.8800 7114.00 7137.54 84.00
2251 26.8900 7158.00 7175.06 85.00
2252 26.9000 7222.00 7217.70 85.00
2253 26.9100 7265.00 7269.60 85.00
2254 26.9200 7374.00 7330.23 86.00
2255 26.9300 7349.00 7401.20 86.00
2256 26.9400 7470.00 7484.54 86.00
2257 26.9500 7531.00 7582.90 87.00
2258 26.9600 7683.00 7699.46 88.00
2259 26.9700 7842.00 7838.02 89.00
2260 26.9800 7977.00 8003.03 89.00
2261 26.9900 8203.00 8199.14 91.00
2262 27.0000 8396.00 8430.79 92.00
2263 27.0100 8711.00 8700.82 93.00
2264 27.0200 9040.00 9010.83 95.00
2265 27.0300 9434.00 9365.84 97.00
2266 27.0400 9813.00 9782.60 99.00
2267 27.0500 10208.00 10288.50 101.00
2268 27.0600 10829.00 10910.50 104.00
2269 27.0700 11560.00 11664.30 108.00
2270 27.0800 12539.00 12547.00 112.00
2271 27.0900 13665.00 13528.70 117.00
2272 27.1000 14706.00 14539.00 121.00
2273 27.1100 15691.00 15453.60 125.00
2274 27.1200 16484.00 16101.60 128.00
2275 27.1300 16718.00 16329.00 129.00
2276 27.1400 16492.00 16092.70 128.00
2277 27.1500 15891.00 15490.20 126.00
2278 27.1600 14865.00 14692.00 122.00
2279 27.1700 13778.00 13854.90 117.00
2280 27.1800 12989.00 13084.30 114.00
2281 27.1900 12270.00 12438.20 111.00
2282 27.2000 11861.00 11941.50 109.00
2283 27.2100 11587.00 11596.90 108.00
2284 27.2200 11425.00 11393.80 107.00
2285 27.2300 11279.00 11312.90 106.00
2286 27.2400 11342.00 11331.20 106.00
2287 27.2500 11323.00 11426.20 106.00
2288 27.2600 11539.00 11576.80 107.00
2289 27.2700 11756.00 11776.40 108.00
2290 27.2800 11900.00 12018.10 109.00
2291 27.2900 12030.00 12301.70 110.00
2292 27.3000 12367.00 12628.40 111.00
2293 27.3100 12645.00 12998.30 112.00
2294 27.3200 13135.00 13409.10 115.00
2295 27.3300 13768.00 13855.50 117.00
2296 27.3400 14328.00 14328.90 120.00
2297 27.3500 14822.00 14818.20 122.00
2298 27.3600 15529.00 15309.50 125.00
2299 27.3700 16118.00 15787.60 127.00
2300 27.3800 16800.00 16236.50 130.00
2301 27.3900 17380.00 16642.80 132.00
2302 27.4000 17670.00 16997.80 133.00
2303 27.4100 17601.00 17300.10 133.00
2304 27.4200 17779.00 17557.30 133.00
2305 27.4300 17716.00 17785.30 133.00
2306 27.4400 17696.00 18004.70 133.00
2307 27.4500 17742.00 18235.30 133.00
2308 27.4600 17727.00 18487.40 133.00
2309 27.4700 17677.00 18750.70 133.00
2310 27.4800 17987.00 18980.90 134.00
2311 27.4900 18162.00 19091.20 135.00
2312 27.5000 18059.00 18963.60 134.00
2313 27.5100 17846.00 18502.60 134.00
2314 27.5200 17010.00 17698.80 130.00
2315 27.5300 15925.00 16643.10 126.00
2316 27.5400 14793.00 15471.00 122.00
2317 27.5500 13635.00 14302.40 117.00
2318 27.5600 12573.00 13215.90 112.00
2319 27.5700 11816.00 12252.50 109.00
2320 27.5800 11068.00 11428.50 105.00
2321 27.5900 10457.00 10744.40 102.00
2322 27.6000 9992.00 10191.70 100.00
2323 27.6100 9590.00 9757.17 98.00
2324 27.6200 9386.00 9426.38 97.00
2325 27.6300 9255.00 9185.94 96.00
2326 27.6400 9115.00 9025.38 95.00
2327 27.6500 8986.00 8935.75 95.00
2328 27.6600 9017.00 8917.38 95.00
2329 27.6700 8981.00 8968.15 95.00
2330 27.6800 9141.00 9089.85 96.00
2331 27.6900 9345.00 9285.09 97.00
2332 27.7000 9645.00 9555.55 98.00
2333 27.7100 9953.00 9900.17 100.00
2334 27.7200 10375.00 10312.00 102.00
2335 27.7300 10808.00 10774.90 104.00
2336 27.7400 11375.00 11257.60 107.00
2337 27.7500 11843.00 11710.40 109.00
2338 27.7600 12263.00 12072.50 111.00
2339 27.7700 12280.00 12293.50 111.00
2340 27.7800 12435.00 12361.80 112.00
2341 27.7900 12196.00 12311.50 110.00
2342 27.8000 12108.00 12198.30 110.00
2343 27.8100 12038.00 12067.10 110.00
2344 27.8200 11938.00 11931.40 109.00
2345 27.8300 11716.00 11772.20 108.00
2346 27.8400 11495.00 11554.40 107.00
2347 27.8500 11210.00 11256.70 106.00
2348 27.8600 10879.00 10890.70 104.00
2349 27.8700 10550.00 10501.50 103.00
2350 27.8800 10161.00 10132.80 101.00
2351 27.8900 9771.00 9817.66 99.00
2352 27.9000 9522.00 9573.50 98.00
2353 27.9100 9320.00 9406.86 97.00
2354 27.9200 9247.00 9317.19 96.00
2355 27.9300 9250.00 9299.96 96.00
2356 27.9400 9246.00 9347.47 96.00
2357 27.9500 9326.00 9452.72 97.00
2358 27.9600 9499.00 9605.13 97.00
2359 27.9700 9684.00 9792.86 98.00
2360 27.9800 9930.00 10004.60 100.00
2361 27.9900 10230.00 10233.00 101.00
2362 28.0000 10463.00 10443.60 102.00
2363 28.0100 10556.00 10625.20 103.00
2364 28.0200 10773.00 10758.50 104.00
2365 28.0300 10832.00 10828.20 104.00
2366 28.0400 10820.00 10826.70 104.00
2367 28.0500 10818.00 10756.60 104.00
2368 28.0600 10626.00 10629.00 103.00
2369 28.0700 10310.00 10460.00 102.00
2370 28.0800 10088.00 10266.20 100.00
2371 28.0900 9832.00 10061.30 99.00
2372 28.1000 9626.00 9855.39 98.00
2373 28.1100 9473.00 9654.97 97.00
2374 28.1200 9285.00 9465.20 96.00
2375 28.1300 9092.00 9291.41 95.00
2376 28.1400 8935.00 9139.38 95.00
2377 28.1500 8782.00 9018.27 94.00
2378 28.1600 8671.00 8934.05 93.00
2379 28.1700 8732.00 8891.65 93.00
2380 28.1800 8744.00 8893.19 94.00
2381 28.1900 8663.00 8936.71 93.00
2382 28.2000 8775.00 9018.90 94.00
2383 28.2100 8810.00 9129.44 94.00
2384 28.2200 9005.00 9253.29 95.00
2385 28.2300 9165.00 9369.61 96.00
2386 28.2400 9304.00 9453.76 96.00
2387 28.2500 9304.00 9483.31 96.00
2388 28.2600 9275.00 9446.47 96.00
2389 28.2700 9133.00 9347.61 96.00
2390 28.2800 9010.00 9205.10 95.00
2391 28.2900 8914.00 9043.71 94.00
2392 28.3000 8690.00 8887.07 93.00
2393 28.3100 8477.00 8754.17 92.00
2394 28.3200 8408.00 8658.63 92.00
2395 28.3300 8349.00 8609.87 91.00
2396 28.3400 8374.00 8614.03 92.00
2397 28.3500 8447.00 8674.57 92.00
2398 28.3600 8547.00 8792.39 92.00
2399 28.3700 8730.00 8965.65 93.00
2400 28.3800 8972.00 9188.76 95.00
2401 28.3900 9238.00 9451.12 96.00
2402 28.4000 9625.00 9735.44 98.00
2403 28.4100 10026.00 10016.70 100.00
2404 28.4200 10290.00 10263.00 101.00
2405 28.4300 10435.00 10441.30 102.00
2406 28.4400 10515.00 10521.10 103.00
2407 28.4500 10420.00 10481.60 102.00
2408 28.4600 10234.00 10318.10 101.00
2409 28.4700 9930.00 10054.10 100.00
2410 28.4800 9527.00 9720.90 98.00
2411 28.4900 9132.00 9368.61 96.00
2412 28.5000 8755.00 9033.70 94.00
2413 28.5100 8484.00 8739.57 92.00
2414 28.5200 8315.00 8500.01 91.00
2415 28.5300 8192.00 8321.40 91.00
2416 28.5400 8048.00 8206.08 90.00
2417 28.5500 7938.00 8153.23 89.00
2418 28.5600 8016.00 8158.32 90.00
2419 28.5700 8014.00 8210.66 90.00
2420 28.5800 8197.00 8290.25 91.00
2421 28.5900 8267.00 8371.81 91.00
2422 28.6000 8363.00 8443.27 91.00
2423 28.6100 8362.00 8521.84 91.00
2424 28.6200 8525.00 8635.79 92.00
2425 28.6300 8646.00 8806.31 93.00
2426 28.6400 8979.00 9041.46 95.00
2427 28.6500 9286.00 9337.62 96.00
2428 28.6600 9759.00 9680.82 99.00
2429 28.6700 10069.00 10043.40 100.00
2430 28.6800 10533.00 10382.70 103.00
2431 28.6900 10898.00 10643.20 104.00
2432 28.7000 10958.00 10770.90 105.00
2433 28.7100 10932.00 10737.20 105.00
2434 28.7200 10559.00 10554.80 103.00
2435 28.7300 10140.00 10269.80 101.00
2436 28.7400 9750.00 9938.17 99.00
2437 28.7500 9250.00 9606.36 96.00
2438 28.7600 9038.00 9304.83 95.00
2439 28.7700 8792.00 9050.15 94.00
2440 28.7800 8711.00 8848.05 93.00
2441 28.7900 8559.00 8696.81 93.00
2442 28.8000 8466.00 8589.45 92.00
2443 28.8100 8443.00 8516.24 92.00
2444 28.8200 8432.00 8469.40 92.00
2445 28.8300 8433.00 8445.02 92.00
2446 28.8400 8417.00 8444.85 92.00
2447 28.8500 8343.00 8474.15 91.00
2448 28.8600 8439.00 8539.00 92.00
2449 28.8700 8510.00 8644.81 92.00
2450 28.8800 8675.00 8795.63 93.00
2451 28.8900 8887.00 8994.19 94.00
2452 28.9000 9101.00 9241.03 95.00
2453 28.9100 9294.00 9535.75 96.00
2454 28.9200 9666.00 9877.00 98.00
2455 28.9300 10013.00 10250.10 100.00
2456 28.9400 10514.00 10646.70 103.00
2457 28.9500 10995.00 11051.50 105.00
2458 28.9600 11478.00 11445.00 107.00
2459 28.9700 11837.00 11801.40 109.00
2460 28.9800 12164.00 12087.90 110.00
2461 28.9900 12323.00 12269.90 111.00
2462 29.0000 12402.00 12319.80 111.00
2463 29.0100 12295.00 12228.40 111.00
2464 29.0200 11953.00 12007.10 109.00
2465 29.0300 11446.00 11683.60 107.00
2466 29.0400 11086.00 11293.60 105.00
2467 29.0500 10515.00 10873.20 103.00
2468 29.0600 10080.00 10455.50 100.00
2469 29.0700 9811.00 10067.00 99.00
2470 29.0800 9492.00 9727.23 97.00
2471 29.0900 9178.00 9448.77 96.00
2472 29.1000 9077.00 9238.75 95.00
2473 29.1100 8957.00 9100.23 95.00
2474 29.1200 8952.00 9032.75 95.00
2475 29.1300 8945.00 9033.12 95.00
2476 29.1400 9033.00 9095.54 95.00
2477 29.1500 9115.00 9211.23 95.00
2478 29.1600 9304.00 9369.23 96.00
2479 29.1700 9469.00 9553.58 97.00
2480 29.1800 9715.00 9744.23 99.00
2481 29.1900 9967.00 9917.08 100.00
2482 29.2000 10111.00 10047.00 101.00
2483 29.2100 10124.00 10111.10 101.00
2484 29.2200 10125.00 10102.00 101.00
2485 29.2300 10031.00 10018.20 100.00
2486 29.2400 9798.00 9869.20 99.00
2487 29.2500 9723.00 9669.67 99.00
2488 29.2600 9397.00 9434.73 97.00
2489 29.2700 9081.00 9182.22 95.00
2490 29.2800 8781.00 8924.35 94.00
2491 29.2900 8482.00 8675.18 92.00
2492 29.3000 8205.00 8442.24 91.00
2493 29.3100 8070.00 8231.30 90.00
2494 29.3200 7898.00 8045.43 89.00
2495 29.3300 7733.00 7886.53 88.00
2496 29.3400 7647.00 7754.84 87.00
2497 29.3500 7551.00 7650.09 87.00
2498 29.3600 7475.00 7572.03 86.00
2499 29.3700 7521.00 7520.28 87.00
2500 29.3800 7415.00 7495.70 86.00
2501 29.3900 7429.00 7498.34 86.00
2502 29.4000 7422.00 7528.36 86.00
2503 29.4100 7483.00 7584.81 87.00
2504 29.4200 7594.00 7664.23 87.00
2505 29.4300 7704.00 7758.07 88.00
2506 29.4400 7714.00 7849.37 88.00
2507 29.4500 7774.00 7912.93 88.00
2508 29.4600 7818.00 7926.31 88.00
2509 29.4700 7778.00 7886.61 88.00
2510 29.4800 7792.00 7813.01 88.00
2511 29.4900 7741.00 7731.14 88.00
2512 29.5000 7646.00 7659.70 87.00
2513 29.5100 7613.00 7608.48 87.00
2514 29.5200 7535.00 7581.33 87.00
2515 29.5300 7503.00 7579.10 87.00
2516 29.5400 7554.00 7601.42 87.00
2517 29.5500 7633.00 7647.69 87.00
2518 29.5600 7719.00 7717.71 88.00
2519 29.5700 7764.00 7812.01 88.00
2520 29.5800 7889.00 7931.96 89.00
2521 29.5900 7990.00 8079.66 89.00
2522 29.6000 8229.00 8257.60 91.00
2523 29.6100 8480.00 8468.27 92.00
2524 29.6200 8737.00 8713.15 93.00
2525 29.6300 8947.00 8992.17 95.00
2526 29.6400 9328.00 9301.91 97.00
2527 29.6500 9608.00 9633.60 98.00
2528 29.6600 10070.00 9971.06 100.00
2529 29.6700 10499.00 10291.80 102.00
2530 29.6800 10815.00 10574.10 104.00
2531 29.6900 10929.00 10809.90 105.00
2532 29.7000 11191.00 11011.50 106.00
2533 29.7100 11303.00 11205.80 106.00
2534 29.7200 11524.00 11420.80 107.00
2535 29.7300 11831.00 11676.90 109.00
2536 29.7400 12010.00 11982.70 110.00
2537 29.7500 12289.00 12333.80 111.00
2538 29.7600 12618.00 12714.00 112.00
2539 29.7700 13048.00 13100.30 114.00
2540 29.7800 13471.00 13473.20 116.00
2541 29.7900 13895.00 13827.00 118.00
2542 29.8000 14217.00 14166.40 119.00
2543 29.8100 14536.00 14496.20 121.00
2544 29.8200 14869.00 14812.50 122.00
2545 29.8300 15247.00 15102.20 123.00
2546 29.8400 15519.00 15347.50 125.00
2547 29.8500 15865.00 15530.40 126.00
2548 29.8600 15895.00 15637.80 126.00
2549 29.8700 15721.00 15652.60 125.00
2550 29.8800 15604.00 15564.00 125.00
2551 29.8900 15283.00 15362.90 124.00
2552 29.9000 14878.00 15049.00 122.00
2553 29.9100 14381.00 14635.10 120.00
2554 29.9200 13802.00 14142.80 117.00
2555 29.9300 13146.00 13594.60 115.00
2556 29.9400 12608.00 13009.80 112.00
2557 29.9500 11970.00 12406.60 109.00
2558 29.9600 11380.00 11804.10 107.00
2559 29.9700 10883.00 11222.70 104.00
2560 29.9800 10445.00 10681.00 102.00
2561 29.9900 9881.00 10192.20 99.00
2562 30.0000 9549.00 9762.98 98.00
2563 30.0100 9209.00 9394.46 96.00
2564 30.0200 8958.00 9083.99 95.00
2565 30.0300 8767.00 8826.17 94.00
2566 30.0400 8531.00 8614.71 92.00
2567 30.0500 8337.00 8443.12 91.00
2568 30.0600 8244.00 8305.91 91.00
2569 30.0700 8067.00 8197.53 90.00
2570 30.0800 8070.00 8113.51 90.00
2571 30.0900 7976.00 8049.70 89.00
2572 30.1000 7904.00 8002.40 89.00
2573 30.1100 7825.00 7968.23 88.00
2574 30.1200 7800.00 7944.06 88.00
2575 30.1300 7758.00 7926.71 88.00
2576 30.1400 7828.00 7913.71 88.00
2577 30.1500 7863.00 7902.17 89.00
2578 30.1600 7770.00 7889.61 88.00
2579 30.1700 7780.00 7874.26 88.00
2580 30.1800 7724.00 7854.76 88.00
2581 30.1900 7694.00 7830.72 88.00
2582 30.2000 7704.00 7802.51 88.00
2583 30.2100 7693.00 7771.24 88.00
2584 30.2200 7587.00 7738.50 87.00
2585 30.2300 7516.00 7706.11 87.00
2586 30.2400 7489.00 7675.94 87.00
2587 30.2500 7489.00 7649.85 87.00
2588 30.2600 7474.00 7629.65 86.00
2589 30.2700 7513.00 7617.18 87.00
2590 30.2800 7490.00 7614.47 87.00
2591 30.2900 7472.00 7624.01 86.00
2592 30.3000 7556.00 7649.04 87.00
2593 30.3100 7627.00 7694.07 87.00
2594 30.3200 7724.00 7764.11 88.00
2595 30.3300 7885.00 7870.56 89.00
2596 30.3400 8030.00 8023.45 90.00
2597 30.3500 8264.00 8236.59 91.00
2598 30.3600 8496.00 8524.58 92.00
2599 30.3700 8834.00 8900.52 94.00
2600 30.3800 9284.00 9370.68 96.00
2601 30.3900 9869.00 9924.57 99.00
2602 30.4000 10374.00 10520.30 102.00
2603 30.4100 10797.00 11084.10 104.00
2604 30.4200 11350.00 11556.80 107.00
2605 30.4300 11784.00 11948.00 109.00
2606 30.4400 12303.00 12302.20 111.00
2607 30.4500 12811.00 12631.20 113.00
2608 30.4600 13177.00 12896.10 115.00
2609 30.4700 13211.00 13033.30 115.00
2610 30.4800 13159.00 12989.90 115.00
2611 30.4900 12700.00 12754.90 113.00
2612 30.5000 12257.00 12363.50 111.00
2613 30.5100 11633.00 11876.60 108.00
2614 30.5200 11027.00 11355.10 105.00
2615 30.5300 10498.00 10844.10 102.00
2616 30.5400 10021.00 10371.00 100.00
2617 30.5500 9702.00 9948.94 98.00
2618 30.5600 9350.00 9581.58 97.00
2619 30.5700 9161.00 9266.85 96.00
2620 30.5800 8927.00 8999.59 94.00
2621 30.5900 8671.00 8773.86 93.00
2622 30.6000 8476.00 8583.61 92.00
2623 30.6100 8330.00 8423.67 91.00
2624 30.6200 8245.00 8289.87 91.00
2625 30.6300 8153.00 8179.31 90.00
2626 30.6400 8059.00 8090.00 90.00
2627 30.6500 7947.00 8021.16 89.00
2628 30.6600 7926.00 7973.10 89.00
2629 30.6700 7874.00 7947.32 89.00
2630 30.6800 7892.00 7946.43 89.00
2631 30.6900 7991.00 7973.99 89.00
2632 30.7000 7999.00 8034.27 89.00
2633 30.7100 8069.00 8131.67 90.00
2634 30.7200 8236.00 8270.08 91.00
2635 30.7300 8382.00 8451.69 92.00
2636 30.7400 8624.00 8675.25 93.00
2637 30.7500 8933.00 8933.22 95.00
2638 30.7600 9220.00 9207.25 96.00
2639 30.7700 9418.00 9466.19 97.00
2640 30.7800 9689.00 9671.73 98.00
2641 30.7900 9755.00 9797.64 99.00
2642 30.8000 9861.00 9848.48 99.00
2643 30.8100 9877.00 9856.75 99.00
2644 30.8200 9889.00 9861.14 99.00
2645 30.8300 9859.00 9889.33 99.00
2646 30.8400 9950.00 9954.23 100.00
2647 30.8500 10088.00 10057.90 100.00
2648 30.8600 10225.00 10196.80 101.00
2649 30.8700 10387.00 10366.30 102.00
2650 30.8800 10656.00 10567.90 103.00
2651 30.8900 10739.00 10809.00 104.00
2652 30.9000 11033.00 11080.40 105.00
2653 30.9100 11298.00 11390.30 106.00
2654 30.9200 11713.00 11736.90 108.00
2655 30.9300 12220.00 12112.60 111.00
2656 30.9400 12657.00 12505.10 113.00
2657 30.9500 12995.00 12894.70 114.00
2658 30.9600 13461.00 13256.80 116.00
2659 30.9700 13775.00 13565.60 117.00
2660 30.9800 14023.00 13801.00 118.00
2661 30.9900 14126.00 13952.60 119.00
2662 31.0000 14129.00 14022.20 119.00
2663 31.0100 13934.00 14019.90 118.00
2664 31.0200 13737.00 13959.90 117.00
2665 31.0300 13525.00 13856.70 116.00
2666 31.0400 13405.00 13721.50 116.00
2667 31.0500 13232.00 13559.80 115.00
2668 31.0600 13032.00 13370.80 114.00
2669 31.0700 12690.00 13148.60 113.00
2670 31.0800 12454.00 12887.50 112.00
2671 31.0900 12143.00 12587.10 110.00
2672 31.1000 11821.00 12253.80 109.00
2673 31.1100 11595.00 11896.10 108.00
2674 31.1200 11143.00 11522.20 106.00
2675 31.1300 10710.00 11148.40 103.00
2676 31.1400 10509.00 10807.00 103.00
2677 31.1500 10242.00 10534.70 101.00
2678 31.1600 10177.00 10362.30 101.00
2679 31.1700 10240.00 10308.40 101.00
2680 31.1800 10314.00 10381.60 102.00
2681 31.1900 10489.00 10577.50 102.00
2682 31.2000 10812.00 10872.40 104.00
2683 31.2100 11133.00 11209.60 106.00
2684 31.2200 11376.00 11488.20 107.00
2685 31.2300 11592.00 11585.30 108.00
2686 31.2400 11454.00 11422.80 107.00
2687 31.2500 11007.00 11029.80 105.00
2688 31.2600 10527.00 10513.80 103.00
2689 31.2700 9999.00 9981.76 100.00
2690 31.2800 9528.00 9504.15 98.00
2691 31.2900 9175.00 9100.89 96.00
2692 31.3000 8808.00 8782.74 94.00
2693 31.3100 8512.00 8544.83 92.00
2694 31.3200 8385.00 8377.25 92.00
2695 31.3300 8259.00 8269.50 91.00
2696 31.3400 8174.00 8211.71 90.00
2697 31.3500 8202.00 8195.19 91.00
2698 31.3600 8193.00 8215.40 91.00
2699 31.3700 8178.00 8267.05 90.00
2700 31.3800 8333.00 8346.22 91.00
2701 31.3900 8382.00 8448.66 92.00
2702 31.4000 8521.00 8568.81 92.00
2703 31.4100 8676.00 8699.13 93.00
2704 31.4200 8816.00 8830.08 94.00
2705 31.4300 8854.00 8951.72 94.00
2706 31.4400 9006.00 9056.93 95.00
2707 31.4500 9030.00 9143.65 95.00
2708 31.4600 9144.00 9213.89 96.00
2709 31.4700 9272.00 9269.72 96.00
2710 31.4800 9305.00 9309.81 96.00
2711 31.4900 9248.00 9328.41 96.00
2712 31.5000 9307.00 9317.95 96.00
2713 31.5100 9234.00 9273.18 96.00
2714 31.5200 9168.00 9194.21 96.00
2715 31.5300 9093.00 9086.88 95.00
2716 31.5400 8967.00 8960.81 95.00
2717 31.5500 8776.00 8826.50 94.00
2718 31.5600 8629.00 8693.37 93.00
2719 31.5700 8519.00 8568.68 92.00
2720 31.5800 8408.00 8457.38 92.00
2721 31.5900 8399.00 8362.71 92.00
2722 31.6000 8292.00 8287.53 91.00
2723 31.6100 8207.00 8235.35 91.00
2724 31.6200 8188.00 8210.79 90.00
2725 31.6300 8224.00 8218.59 91.00
2726 31.6400 8285.00 8263.74 91.00
2727 31.6500 8396.00 8349.80 92.00
2728 31.6600 8506.00 8479.73 92.00
2729 31.6700 8619.00 8655.45 93.00
2730 31.6800 8844.00 8877.72 94.00
2731 31.6900 9133.00 9145.40 96.00
2732 31.7000 9474.00 9454.71 97.00
2733 31.7100 9846.00 9797.28 99.00
2734 31.7200 10205.00 10159.10 101.00
2735 31.7300 10527.00 10518.70 103.00
2736 31.7400 10874.00 10849.00 104.00
2737 31.7500 11219.00 11120.80 106.00
2738 31.7600 11421.00 11312.40 107.00
2739 31.7700 11590.00 11416.00 108.00
2740 31.7800 11554.00 11437.50 107.00
2741 31.7900 11391.00 11389.00 107.00
2742 31.8000 11292.00 11282.80 106.00
2743 31.8100 11050.00 11133.10 105.00
2744 31.8200 10879.00 10961.10 104.00
2745 31.8300 10747.00 10797.20 104.00
2746 31.8400 10574.00 10673.70 103.00
2747 31.8500 10428.00 10616.60 102.00
2748 31.8600 10482.00 10640.70 102.00
2749 31.8700 10588.00 10749.40 103.00
2750 31.8800 10837.00 10933.40 104.00
2751 31.8900 11201.00 11169.00 106.00
2752 31.9000 11451.00 11415.60 107.00
2753 31.9100 11511.00 11614.70 107.00
2754 31.9200 11636.00 11703.00 108.00
2755 31.9300 11548.00 11640.50 107.00
2756 31.9400 11319.00 11437.70 106.00
2757 31.9500 11071.00 11147.50 105.00
2758 31.9600 10723.00 10833.10 104.00
2759 31.9700 10300.00 10542.90 101.00
2760 31.9800 10161.00 10305.30 101.00
2761 31.9900 9920.00 10132.50 100.00
2762 32.0000 9904.00 10024.80 100.00
2763 32.0100 9903.00 9972.48 100.00
2764 32.0200 9965.00 9957.50 100.00
2765 32.0300 9946.00 9953.94 100.00
2766 32.0400 9989.00 9931.62 100.00
2767 32.0500 9883.00 9863.26 99.00
2768 32.0600 9773.00 9733.76 99.00
2769 32.0700 9596.00 9545.22 98.00
2770 32.0800 9252.00 9314.03 96.00
2771 32.0900 8940.00 9062.31 95.00
2772 32.1000 8654.00 8810.60 93.00
2773 32.1100 8446.00 8573.89 92.00
2774 32.1200 8240.00 8361.31 91.00
2775 32.1300 8096.00 8178.05 90.00
2776 32.1400 7943.00 8025.80 89.00
2777 32.1500 7811.00 7904.36 88.00
2778 32.1600 7690.00 7811.78 88.00
2779 32.1700 7673.00 7745.35 88.00
2780 32.1800 7690.00 7701.53 88.00
2781 32.1900 7680.00 7676.39 88.00
2782 32.2000 7661.00 7665.59 88.00
2783 32.2100 7645.00 7664.67 87.00
2784 32.2200 7674.00 7669.03 88.00
2785 32.2300 7656.00 7674.06 87.00
2786 32.2400 7731.00 7675.46 88.00
2787 32.2500 7741.00 7669.58 88.00
2788 32.2600 7756.00 7653.97 88.00
2789 32.2700 7633.00 7627.63 87.00
2790 32.2800 7586.00 7591.04 87.00
2791 32.2900 7543.00 7545.98 87.00
2792 32.3000 7468.00 7494.83 86.00
2793 32.3100 7483.00 7440.23 87.00
2794 32.3200 7393.00 7384.56 86.00
2795 32.3300 7282.00 7329.89 85.00
2796 32.3400 7233.00 7277.63 85.00
2797 32.3500 7172.00 7228.91 85.00
2798 32.3600 7183.00 7185.20 85.00
2799 32.3700 7148.00 7146.77 85.00
2800 32.3800 7140.00 7113.43 84.00
2801 32.3900 7094.00 7086.85 84.00
2802 32.4000 7100.00 7066.69 84.00
2803 32.4100 7081.00 7053.21 84.00
2804 32.4200 7088.00 7046.73 84.00
2805 32.4300 7115.00 7047.66 84.00
2806 32.4400 7195.00 7056.56 85.00
2807 32.4500 7129.00 7074.17 84.00
2808 32.4600 7172.00 7101.55 85.00
2809 32.4700 7214.00 7139.96 85.00
2810 32.4800 7290.00 7191.14 85.00
2811 32.4900 7420.00 7256.92 86.00
2812 32.5000 7498.00 7339.54 87.00
2813 32.5100 7543.00 7441.14 87.00
2814 32.5200 7702.00 7564.16 88.00
2815 32.5300 7772.00 7710.50 88.00
2816 32.5400 7959.00 7881.62 89.00
2817 32.5500 8181.00 8078.20 90.00
2818 32.5600 8415.00 8299.42 92.00
2819 32.5700 8553.00 8543.26 92.00
2820 32.5800 8890.00 8804.83 94.00
2821 32.5900 9144.00 9076.41 96.00
2822 32.6000 9417.00 9345.65 97.00
2823 32.6100 9726.00 9595.53 99.00
2824 32.6200 9923.00 9806.30 100.00
2825 32.6300 9976.00 9956.61 100.00
2826 32.6400 10024.00 10031.20 100.00
2827 32.6500 10037.00 10025.50 100.00
2828 32.6600 9888.00 9946.60 99.00
2829 32.6700 9764.00 9810.89 99.00
2830 32.6800 9552.00 9637.68 98.00
2831 32.6900 9316.00 9444.78 97.00
2832 32.7000 9178.00 9246.64 96.00
2833 32.7100 8957.00 9053.11 95.00
2834 32.7200 8821.00 8870.63 94.00
2835 32.7300 8710.00 8702.39 93.00
2836 32.7400 8546.00 8549.91 92.00
2837 32.7500 8360.00 8413.06 91.00
2838 32.7600 8280.00 8291.04 91.00
2839 32.7700 8112.00 8182.54 90.00
2840 32.7800 8114.00 8085.91 90.00
2841 32.7900 7993.00 7999.62 89.00
2842 32.8000 7929.00 7921.98 89.00
2843 32.8100 7790.00 7851.54 88.00
2844 32.8200 7719.00 7786.91 88.00
2845 32.8300 7641.00 7727.09 87.00
2846 32.8400 7676.00 7671.05 88.00
2847 32.8500 7601.00 7619.40 87.00
2848 32.8600 7573.00 7572.30 87.00
2849 32.8700 7468.00 7530.61 86.00
2850 32.8800 7429.00 7495.36 86.00
2851 32.8900 7383.00 7467.51 86.00
2852 32.9000 7415.00 7448.00 86.00
2853 32.9100 7454.00 7437.54 86.00
2854 32.9200 7420.00 7436.70 86.00
2855 32.9300 7415.00 7445.79 86.00
2856 32.9400 7503.00 7469.69 87.00
2857 32.9500 7494.00 7498.30 87.00
2858 32.9600 7576.00 7535.57 87.00
2859 32.9700 7671.00 7579.83 88.00
2860 32.9800 7693.00 7628.51 88.00
2861 32.9900 7796.00 7677.93 88.00
2862 33.0000 7789.00 7723.29 88.00
2863 33.0100 7844.00 7759.13 89.00
2864 33.0200 7863.00 7780.91 89.00
2865 33.0300 7933.00 7785.86 89.00
2866 33.0400 7888.00 7774.19 89.00
2867 33.0500 7807.00 7748.75 88.00
2868 33.0600 7775.00 7713.84 88.00
2869 33.0700 7720.00 7673.72 88.00
2870 33.0800 7640.00 7632.02 87.00
2871 33.0900 7608.00 7591.36 87.00
2872 33.1000 7571.00 7553.65 87.00
2873 33.1100 7442.00 7520.10 86.00
2874 33.1200 7479.00 7490.96 86.00
2875 33.1300 7413.00 7467.47 86.00
2876 33.1400 7425.00 7448.30 86.00
2877 33.1500 7439.00 7431.68 86.00
2878 33.1600 7456.00 7415.39 86.00
2879 33.1700 7363.00 7398.04 86.00
2880 33.1800 7330.00 7381.21 86.00
2881 33.1900 7329.00 7367.39 86.00
2882 33.2000 7365.00 7359.54 86.00
2883 33.2100 7389.00 7359.66 86.00
2884 33.2200 7371.00 7368.67 86.00
2885 33.2300 7322.00 7386.73 86.00
2886 33.2400 7430.00 7413.69 86.00
2887 33.2500 7457.00 7449.39 86.00
2888 33.2600 7477.00 7493.88 86.00
2889 33.2700 7582.00 7547.27 87.00
2890 33.2800 7656.00 7609.54 87.00
2891 33.2900 7685.00 7679.99 88.00
2892 33.3000 7778.00 7758.32 88.00
2893 33.3100 7881.00 7842.71 89.00
2894 33.3200 8015.00 7931.10 90.00
2895 33.3300 8184.00 8025.89 90.00
2896 33.3400 8226.00 8113.52 91.00
2897 33.3500 8272.00 8195.77 91.00
2898 33.3600 8372.00 8269.80 91.00
2899 33.3700 8389.00 8333.99 92.00
2900 33.3800 8419.00 8388.29 92.00
2901 33.3900 8510.00 8434.74 92.00
2902 33.4000 8507.00 8476.87 92.00
2903 33.4100 8496.00 8519.35 92.00
2904 33.4200 8542.00 8567.09 92.00
2905 33.4300 8594.00 8624.82 93.00
2906 33.4400 8645.00 8695.93 93.00
2907 33.4500 8813.00 8785.36 94.00
2908 33.4600 8889.00 8894.98 94.00
2909 33.4700 8998.00 9026.31 95.00
2910 33.4800 9186.00 9179.75 96.00
2911 33.4900 9351.00 9354.03 97.00
2912 33.5000 9592.00 9545.80 98.00
2913 33.5100 9850.00 9748.97 99.00
2914 33.5200 10060.00 9955.48 100.00
2915 33.5300 10221.00 10155.70 101.00
2916 33.5400 10436.00 10340.20 102.00
2917 33.5500 10534.00 10501.40 103.00
2918 33.5600 10687.00 10633.20 103.00
2919 33.5700 10809.00 10731.40 104.00
2920 33.5800 10880.00 10793.90 104.00
2921 33.5900 10815.00 10827.80 104.00
2922 33.6000 10892.00 10853.50 104.00
2923 33.6100 10869.00 10903.00 104.00
2924 33.6200 10988.00 11011.30 105.00
2925 33.6300 11232.00 11205.10 106.00
2926 33.6400 11450.00 11493.70 107.00
2927 33.6500 11637.00 11854.10 108.00
2928 33.6600 11927.00 12215.60 109.00
2929 33.6700 12040.00 12467.70 110.00
2930 33.6800 12141.00 12497.70 110.00
2931 33.6900 12105.00 12310.60 110.00
2932 33.7000 11893.00 12006.00 109.00
2933 33.7100 11555.00 11696.50 107.00
2934 33.7200 11442.00 11449.60 107.00
2935 33.7300 11258.00 11283.80 106.00
2936 33.7400 11202.00 11186.10 106.00
2937 33.7500 11211.00 11127.30 106.00
2938 33.7600 11230.00 11074.70 106.00
2939 33.7700 11086.00 11004.60 105.00
2940 33.7800 11009.00 10910.60 105.00
2941 33.7900 10776.00 10805.10 104.00
2942 33.8000 10662.00 10711.40 103.00
2943 33.8100 10689.00 10655.20 103.00
2944 33.8200 10656.00 10659.10 103.00
2945 33.8300 10720.00 10740.00 104.00
2946 33.8400 10943.00 10909.40 105.00
2947 33.8500 11165.00 11173.20 106.00
2948 33.8600 11541.00 11531.80 107.00
2949 33.8700 12047.00 11980.50 110.00
2950 33.8800 12518.00 12506.70 112.00
2951 33.8900 13058.00 13086.70 114.00
2952 33.9000 13768.00 13677.60 117.00
2953 33.9100 14200.00 14217.50 119.00
2954 33.9200 14705.00 14634.90 121.00
2955 33.9300 15152.00 14881.00 123.00
2956 33.9400 15170.00 14953.50 123.00
2957 33.9500 15028.00 14890.90 123.00
2958 33.9600 14951.00 14742.10 122.00
2959 33.9700 14798.00 14541.60 122.00
2960 33.9800 14645.00 14299.30 121.00
2961 33.9900 14366.00 14014.40 120.00
2962 34.0000 13869.00 13677.60 118.00
2963 34.0100 13281.00 13287.20 115.00
2964 34.0200 12750.00 12849.70 113.00
2965 34.0300 12100.00 12381.50 110.00
2966 34.0400 11543.00 11902.20 107.00
2967 34.0500 11044.00 11430.20 105.00
2968 34.0600 10562.00 10981.20 103.00
2969 34.0700 10085.00 10566.20 100.00
2970 34.0800 9777.00 10192.50 99.00
2971 34.0900 9502.00 9863.60 97.00
2972 34.1000 9310.00 9580.86 96.00
2973 34.1100 9133.00 9343.10 96.00
2974 34.1200 8959.00 9146.36 95.00
2975 34.1300 8804.00 8986.99 94.00
2976 34.1400 8790.00 8857.53 94.00
2977 34.1500 8683.00 8750.89 93.00
2978 34.1600 8653.00 8660.44 93.00
2979 34.1700 8590.00 8581.97 93.00
2980 34.1800 8517.00 8515.27 92.00
2981 34.1900 8394.00 8459.29 92.00
2982 34.2000 8378.00 8413.32 92.00
2983 34.2100 8304.00 8374.42 91.00
2984 34.2200 8351.00 8337.43 91.00
2985 34.2300 8310.00 8296.25 91.00
2986 34.2400 8257.00 8247.06 91.00
2987 34.2500 8219.00 8190.38 91.00
2988 34.2600 8198.00 8131.08 91.00
2989 34.2700 8115.00 8075.71 90.00
2990 34.2800 8095.00 8030.29 90.00
2991 34.2900 8110.00 7999.58 90.00
2992 34.3000 8134.00 7987.31 90.00
2993 34.3100 8088.00 7996.80 90.00
2994 34.3200 8174.00 8031.43 90.00
2995 34.3300 8172.00 8094.83 90.00
2996 34.3400 8316.00 8190.85 91.00
2997 34.3500 8494.00 8322.86 92.00
2998 34.3600 8643.00 8493.67 93.00
2999 34.3700 8833.00 8702.61 94.00
3000 34.3800 9043.00 8947.46 95.00
3001 34.3900 9317.00 9215.54 97.00
3002 34.4000 9572.00 9482.49 98.00
3003 34.4100 9895.00 9708.09 99.00
3004 34.4200 9965.00 9841.53 100.00
3005 34.4300 9867.00 9843.40 99.00
3006 34.4400 9739.00 9710.35 99.00
3007 34.4500 9413.00 9477.59 97.00
3008 34.4600 9160.00 9195.44 96.00
3009 34.4700 8875.00 8906.77 94.00
3010 34.4800 8605.00 8639.07 93.00
3011 34.4900 8341.00 8407.03 91.00
3012 34.5000 8241.00 8216.48 91.00
3013 34.5100 8038.00 8068.31 90.00
3014 34.5200 7993.00 7960.70 89.00
3015 34.5300 7996.00 7890.37 89.00
3016 34.5400 7960.00 7853.61 89.00
3017 34.5500 7883.00 7847.82 89.00
3018 34.5600 7943.00 7866.75 89.00
3019 34.5700 7962.00 7908.21 89.00
3020 34.5800 8084.00 7968.72 90.00
3021 34.5900 8217.00 8044.97 91.00
3022 34.6000 8295.00 8133.65 91.00
3023 34.6100 8317.00 8232.17 91.00
3024 34.6200 8429.00 8339.23 92.00
3025 34.6300 8514.00 8454.96 92.00
3026 34.6400 8639.00 8581.09 93.00
3027 34.6500 8869.00 8719.62 94.00
3028 34.6600 8943.00 8872.23 95.00
3029 34.6700 9021.00 9038.26 95.00
3030 34.6800 9233.00 9214.08 96.00
3031 34.6900 9397.00 9391.82 97.00
3032 34.7000 9665.00 9559.45 98.00
3033 34.7100 9874.00 9702.61 99.00
3034 34.7200 9932.00 9808.25 100.00
3035 34.7300 9916.00 9868.88 100.00
3036 34.7400 9934.00 9883.73 100.00
3037 34.7500 9848.00 9856.92 99.00
3038 34.7600 9859.00 9794.87 99.00
3039 34.7700 9776.00 9705.04 99.00
3040 34.7800 9606.00 9595.79 98.00
3041 34.7900 9404.00 9476.60 97.00
3042 34.8000 9274.00 9357.21 96.00
3043 34.8100 9146.00 9246.79 96.00
3044 34.8200 9086.00 9152.46 95.00
3045 34.8300 9060.00 9079.08 95.00
3046 34.8400 8989.00 9028.47 95.00
3047 34.8500 8929.00 8999.38 94.00
3048 34.8600 8973.00 8987.04 95.00
3049 34.8700 8972.00 8983.17 95.00
3050 34.8800 9064.00 8976.58 95.00
3051 34.8900 9064.00 8955.13 95.00
3052 34.9000 9002.00 8909.40 95.00
3053 34.9100 8812.00 8836.09 94.00
3054 34.9200 8729.00 8739.46 93.00
3055 34.9300 8587.00 8629.07 93.00
3056 34.9400 8461.00 8516.23 92.00
3057 34.9500 8414.00 8412.00 92.00
3058 34.9600 8246.00 8324.04 91.00
3059 34.9700 8149.00 8257.83 90.00
3060 34.9800 8156.00 8216.75 90.00
3061 34.9900 8090.00 8202.71 90.00
3062 35.0000 8233.00 8216.40 91.00
3063 35.0100 8325.00 8257.63 91.00
3064 35.0200 8392.00 8325.28 92.00
3065 35.0300 8428.00 8417.19 92.00
3066 35.0400 8619.00 8530.37 93.00
3067 35.0500 8752.00 8657.99 94.00
3068 35.0600 8977.00 8794.50 95.00
3069 35.0700 9117.00 8929.63 95.00
3070 35.0800 9237.00 9052.89 96.00
3071 35.0900 9292.00 9155.57 96.00
3072 35.1000 9367.00 9233.96 97.00
3073 35.1100 9395.00 9291.13 97.00
3074 35.1200 9482.00 9335.64 97.00
3075 35.1300 9506.00 9377.72 97.00
3076 35.1400 9509.00 9425.70 98.00
3077 35.1500 9450.00 9483.25 97.00
3078 35.1600 9548.00 9548.20 98.00
3079 35.1700 9629.00 9612.07 98.00
3080 35.1800 9696.00 9661.69 98.00
3081 35.1900 9725.00 9683.34 99.00
3082 35.2000 9706.00 9668.85 99.00
3083 35.2100 9520.00 9620.52 98.00
3084 35.2200 9425.00 9551.02 97.00
3085 35.2300 9322.00 9478.01 97.00
3086 35.2400 9264.00 9418.22 96.00
3087 35.2500 9282.00 9383.32 96.00
3088 35.2600 9256.00 9378.43 96.00
3089 35.2700 9308.00 9401.72 96.00
3090 35.2800 9490.00 9445.53 97.00
3091 35.2900 9544.00 9494.67 98.00
3092 35.3000 9629.00 9529.79 98.00
3093 35.3100 9674.00 9530.10 98.00
3094 35.3200 9612.00 9480.45 98.00
3095 35.3300 9406.00 9376.82 97.00
3096 35.3400 9184.00 9227.24 96.00
3097 35.3500 8946.00 9047.52 95.00
3098 35.3600 8786.00 8855.02 94.00
3099 35.3700 8642.00 8664.04 93.00
3100 35.3800 8397.00 8484.64 92.00
3101 35.3900 8193.00 8322.02 91.00
3102 35.4000 8119.00 8180.08 90.00
3103 35.4100 8010.00 8059.45 89.00
3104 35.4200 7964.00 7960.02 89.00
3105 35.4300 7966.00 7880.70 89.00
3106 35.4400 7916.00 7820.18 89.00
3107 35.4500 7776.00 7775.96 88.00
3108 35.4600 7816.00 7746.00 88.00
3109 35.4700 7798.00 7727.39 88.00
3110 35.4800 7867.00 7717.56 89.00
3111 35.4900 7857.00 7714.32 89.00
3112 35.5000 7856.00 7716.18 89.00
3113 35.5100 7810.00 7722.45 88.00
3114 35.5200 7825.00 7733.25 88.00
3115 35.5300 7840.00 7749.22 89.00
3116 35.5400 7834.00 7771.47 89.00
3117 35.5500 7869.00 7800.68 89.00
3118 35.5600 7916.00 7836.82 89.00
3119 35.5700 7879.00 7879.20 89.00
3120 35.5800 8020.00 7925.91 90.00
3121 35.5900 7993.00 7975.39 89.00
3122 35.6000 8047.00 8027.48 90.00
3123 35.6100 8192.00 8083.64 91.00
3124 35.6200 8194.00 8146.37 91.00
3125 35.6300 8294.00 8216.88 91.00
3126 35.6400 8385.00 8295.47 92.00
3127 35.6500 8467.00 8381.68 92.00
3128 35.6600 8627.00 8474.68 93.00
3129 35.6700 8798.00 8572.88 94.00
3130 35.6800 8873.00 8673.94 94.00
3131 35.6900 9007.00 8775.10 95.00
3132 35.7000 9154.00 8873.59 96.00
3133 35.7100 9231.00 8967.77 96.00
3134 35.7200 9351.00 9057.31 97.00
3135 35.7300 9443.00 9143.59 97.00
3136 35.7400 9515.00 9228.80 98.00
3137 35.7500 9518.00 9315.75 98.00
3138 35.7600 9580.00 9407.15 98.00
3139 35.7700 9607.00 9505.49 98.00
3140 35.7800 9722.00 9612.24 99.00
3141 35.7900 9857.00 9729.42 99.00
3142 35.8000 9981.00 9852.55 100.00
3143 35.8100 9971.00 9979.04 100.00
3144 35.8200 10097.00 10102.30 100.00
3145 35.8300 10219.00 10213.60 101.00
3146 35.8400 10395.00 10303.50 102.00
3147 35.8500 10466.00 10364.80 102.00
3148 35.8600 10471.00 10395.00 102.00
3149 35.8700 10384.00 10396.70 102.00
3150 35.8800 10399.00 10377.30 102.00
3151 35.8900 10309.00 10345.40 102.00
3152 35.9000 10359.00 10308.70 102.00
3153 35.9100 10312.00 10272.30 102.00
3154 35.9200 10326.00 10238.00 102.00
3155 35.9300 10217.00 10204.80 101.00
3156 35.9400 10242.00 10169.30 101.00
3157 35.9500 10218.00 10127.30 101.00
3158 35.9600 10203.00 10074.60 101.00
3159 35.9700 10191.00 10008.10 101.00
3160 35.9800 10160.00 9926.57 101.00
3161 35.9900 9908.00 9830.61 100.00
3162 36.0000 9823.00 9722.25 99.00
3163 36.0100 9661.00 9604.57 98.00
3164 36.0200 9563.00 9480.86 98.00
3165 36.0300 9422.00 9354.17 97.00
3166 36.0400 9262.00 9227.33 96.00
3167 36.0500 9036.00 9102.41 95.00
3168 36.0600 8926.00 8981.29 94.00
3169 36.0700 8783.00 8865.22 94.00
3170 36.0800 8674.00 8755.47 93.00
3171 36.0900 8647.00 8655.85 93.00
3172 36.1000 8544.00 8559.84 92.00
3173 36.1100 8401.00 8471.41 92.00
3174 36.1200 8372.00 8389.94 91.00
3175 36.1300 8287.00 8316.61 91.00
3176 36.1400 8271.00 8253.93 91.00
3177 36.1500 8298.00 8205.99 91.00
3178 36.1600 8280.00 8177.40 91.00
3179 36.1700 8212.00 8173.28 91.00
3180 36.1800 8211.00 8198.78 91.00
3181 36.1900 8320.00 8259.48 91.00
3182 36.2000 8460.00 8361.11 92.00
3183 36.2100 8693.00 8509.26 93.00
3184 36.2200 8829.00 8708.27 94.00
3185 36.2300 8995.00 8959.44 95.00
3186 36.2400 9316.00 9258.28 97.00
3187 36.2500 9647.00 9594.06 98.00
3188 36.2600 10053.00 9952.75 100.00
3189 36.2700 10508.00 10320.70 103.00
3190 36.2800 10814.00 10679.90 104.00
3191 36.2900 11059.00 10999.50 105.00
3192 36.3000 11367.00 11241.40 107.00
3193 36.3100 11425.00 11378.00 107.00
3194 36.3200 11450.00 11409.90 107.00
3195 36.3300 11434.00 11357.60 107.00
3196 36.3400 11306.00 11240.30 106.00
3197 36.3500 10993.00 11066.50 105.00
3198 36.3600 10753.00 10841.70 104.00
3199 36.3700 10519.00 10584.50 103.00
3200 36.3800 10349.00 10325.60 102.00
3201 36.3900 10164.00 10093.80 101.00
3202 36.4000 9987.00 9907.01 100.00
3203 36.4100 9833.00 9771.64 99.00
3204 36.4200 9805.00 9687.08 99.00
3205 36.4300 9830.00 9648.84 99.00
3206 36.4400 9842.00 9651.13 99.00
3207 36.4500 9971.00 9688.21 100.00
3208 36.4600 10071.00 9755.69 100.00
3209 36.4700 10109.00 9849.53 101.00
3210 36.4800 10208.00 9969.92 101.00
3211 36.4900 10295.00 10116.40 101.00
3212 36.5000 10460.00 10290.40 102.00
3213 36.5100 10701.00 10493.90 103.00
3214 36.5200 10851.00 10728.80 104.00
3215 36.5300 10978.00 10995.50 105.00
3216 36.5400 11259.00 11290.90 106.00
3217 36.5500 11535.00 11607.00 107.00
3218 36.5600 11889.00 11926.80 109.00
3219 36.5700 12256.00 12222.00 111.00
3220 36.5800 12438.00 12452.30 112.00
3221 36.5900 12448.00 12575.00 112.00
3222 36.6000 12422.00 12560.70 111.00
3223 36.6100 12242.00 12410.00 111.00
3224 36.6200 12054.00 12153.90 110.00
3225 36.6300 11731.00 11838.70 108.00
3226 36.6400 11425.00 11506.70 107.00
3227 36.6500 11065.00 11187.20 105.00
3228 36.6600 10755.00 10894.60 104.00
3229 36.6700 10543.00 10632.60 103.00
3230 36.6800 10430.00 10397.50 102.00
3231 36.6900 10238.00 10183.10 101.00
3232 36.7000 10085.00 9983.68 100.00
3233 36.7100 9850.00 9795.08 99.00
3234 36.7200 9652.00 9616.14 98.00
3235 36.7300 9417.00 9447.31 97.00
3236 36.7400 9264.00 9290.32 96.00
3237 36.7500 9180.00 9147.07 96.00
3238 36.7600 9054.00 9019.96 95.00
3239 36.7700 8890.00 8911.17 94.00
3240 36.7800 8839.00 8822.87 94.00
3241 36.7900 8766.00 8757.11 94.00
3242 36.8000 8755.00 8715.79 94.00
3243 36.8100 8751.00 8700.71 94.00
3244 36.8200 8753.00 8713.43 94.00
3245 36.8300 8763.00 8755.36 94.00
3246 36.8400 8872.00 8827.58 94.00
3247 36.8500 8918.00 8930.62 94.00
3248 36.8600 9154.00 9064.23 96.00
3249 36.8700 9330.00 9227.47 97.00
3250 36.8800 9462.00 9418.23 97.00
3251 36.8900 9602.00 9634.23 98.00
3252 36.9000 9902.00 9873.58 100.00
3253 36.9100 10080.00 10135.40 100.00
3254 36.9200 10442.00 10418.70 102.00
3255 36.9300 10844.00 10721.50 104.00
3256 36.9400 11125.00 11039.60 105.00
3257 36.9500 11381.00 11360.80 107.00
3258 36.9600 11720.00 11673.60 108.00
3259 36.9700 12049.00 11965.40 110.00
3260 36.9800 12412.00 12226.30 111.00
3261 36.9900 12754.00 12446.90 113.00
3262 37.0000 12908.00 12616.70 114.00
3263 37.0100 12953.00 12723.40 114.00
3264 37.0200 12995.00 12754.50 114.00
3265 37.0300 12855.00 12699.90 113.00
3266 37.0400 12670.00 12556.60 113.00
3267 37.0500 12430.00 12331.00 111.00
3268 37.0600 12002.00 12041.00 110.00
3269 37.0700 11539.00 11712.30 107.00
3270 37.0800 11169.00 11373.40 106.00
3271 37.0900 10765.00 11049.30 104.00
3272 37.1000 10497.00 10760.30 102.00
3273 37.1100 10266.00 10519.60 101.00
3274 37.1200 10071.00 10335.10 100.00
3275 37.1300 9924.00 10210.50 100.00
3276 37.1400 9917.00 10145.60 100.00
3277 37.1500 9937.00 10137.00 100.00
3278 37.1600 10068.00 10178.10 100.00
3279 37.1700 10222.00 10260.00 101.00
3280 37.1800 10341.00 10369.40 102.00
3281 37.1900 10438.00 10490.30 102.00
3282 37.2000 10607.00 10604.70 103.00
3283 37.2100 10755.00 10695.30 104.00
3284 37.2200 10823.00 10748.20 104.00
3285 37.2300 10900.00 10755.70 104.00
3286 37.2400 10802.00 10716.30 104.00
3287 37.2500 10659.00 10634.20 103.00
3288 37.2600 10530.00 10516.70 103.00
3289 37.2700 10342.00 10371.80 102.00
3290 37.2800 10197.00 10209.20 101.00
3291 37.2900 10023.00 10035.50 100.00
3292 37.3000 9814.00 9856.37 99.00
3293 37.3100 9536.00 9675.82 98.00
3294 37.3200 9418.00 9495.99 97.00
3295 37.3300 9140.00 9318.32 96.00
3296 37.3400 9018.00 9143.40 95.00
3297 37.3500 8875.00 8972.09 94.00
3298 37.3600 8743.00 8805.12 94.00
3299 37.3700 8468.00 8643.42 92.00
3300 37.3800 8374.00 8488.96 92.00
3301 37.3900 8192.00 8342.33 91.00
3302 37.4000 8096.00 8205.53 90.00
3303 37.4100 8012.00 8078.98 90.00
3304 37.4200 7884.00 7963.39 89.00
3305 37.4300 7742.00 7859.00 88.00
3306 37.4400 7655.00 7765.93 87.00
3307 37.4500 7592.00 7684.23 87.00
3308 37.4600 7542.00 7613.74 87.00
3309 37.4700 7575.00 7554.22 87.00
3310 37.4800 7510.00 7505.37 87.00
3311 37.4900 7459.00 7466.85 86.00
3312 37.5000 7453.00 7438.25 86.00
3313 37.5100 7438.00 7419.13 86.00
3314 37.5200 7458.00 7409.14 86.00
3315 37.5300 7430.00 7408.03 86.00
3316 37.5400 7468.00 7415.77 86.00
3317 37.5500 7471.00 7432.43 86.00
3318 37.5600 7473.00 7458.08 86.00
3319 37.5700 7474.00 7492.60 86.00
3320 37.5800 7562.00 7535.31 87.00
3321 37.5900 7675.00 7586.09 88.00
3322 37.6000 7735.00 7644.00 88.00
3323 37.6100 7767.00 7707.96 88.00
3324 37.6200 7812.00 7777.09 88.00
3325 37.6300 7882.00 7850.20 89.00
3326 37.6400 7974.00 7925.74 89.00
3327 37.6500 8119.00 8001.09 90.00
3328 37.6600 8152.00 8072.54 90.00
3329 37.6700 8113.00 8135.37 90.00
3330 37.6800 8208.00 8185.27 91.00
3331 37.6900 8219.00 8219.97 91.00
3332 37.7000 8235.00 8240.49 91.00
3333 37.7100 8290.00 8250.41 91.00
3334 37.7200 8273.00 8256.00 91.00
3335 37.7300 8196.00 8261.76 91.00
3336 37.7400 8229.00 8270.89 91.00
3337 37.7500 8202.00 8284.44 91.00
3338 37.7600 8241.00 8301.54 91.00
3339 37.7700 8297.00 8319.97 91.00
3340 37.7800 8317.00 8336.85 91.00
3341 37.7900 8238.00 8349.23 91.00
3342 37.8000 8313.00 8354.94 91.00
3343 37.8100 8255.00 8353.07 91.00
3344 37.8200 8309.00 8344.88 91.00
3345 37.8300 8334.00 8332.95 91.00
3346 37.8400 8311.00 8320.80 91.00
3347 37.8500 8287.00 8311.86 91.00
3348 37.8600 8348.00 8308.75 91.00
3349 37.8700 8251.00 8313.03 91.00
3350 37.8800 8417.00 8325.25 92.00
3351 37.8900 8413.00 8345.18 92.00
3352 37.9000 8439.00 8372.08 92.00
3353 37.9100 8440.00 8404.91 92.00
3354 37.9200 8525.00 8442.64 92.00
3355 37.9300 8479.00 8484.38 92.00
3356 37.9400 8574.00 8529.89 93.00
3357 37.9500 8660.00 8578.15 93.00
3358 37.9600 8693.00 8629.09 93.00
3359 37.9700 8694.00 8683.72 93.00
3360 37.9800 8755.00 8741.72 94.00
3361 37.9900 8818.00 8802.89 94.00
3362 38.0000 8887.00 8866.76 94.00
3363 38.0100 8990.00 8931.82 95.00
3364 38.0200 8990.00 8995.83 95.00
3365 38.0300 8986.00 9054.68 95.00
3366 38.0400 9016.00 9102.73 95.00
3367 38.0500 9040.00 9134.02 95.00
3368 38.0600 9040.00 9144.83 95.00
3369 38.0700 9097.00 9135.93 95.00
3370 38.0800 9020.00 9111.68 95.00
3371 38.0900 8928.00 9077.51 94.00
3372 38.1000 8945.00 9036.55 95.00
3373 38.1100 8857.00 8989.30 94.00
3374 38.1200 8836.00 8934.38 94.00
3375 38.1300 8824.00 8869.33 94.00
3376 38.1400 8728.00 8791.81 93.00
3377 38.1500 8606.00 8700.58 93.00
3378 38.1600 8539.00 8595.77 92.00
3379 38.1700 8381.00 8479.02 92.00
3380 38.1800 8228.00 8353.71 91.00
3381 38.1900 8180.00 8223.05 90.00
3382 38.2000 7984.00 8090.82 89.00
3383 38.2100 7809.00 7960.25 88.00
3384 38.2200 7720.00 7834.25 88.00
3385 38.2300 7588.00 7714.82 87.00
3386 38.2400 7537.00 7603.73 87.00
3387 38.2500 7463.00 7502.07 86.00
3388 38.2600 7368.00 7410.73 86.00
3389 38.2700 7209.00 7332.31 85.00
3390 38.2800 7206.00 7262.70 85.00
3391 38.2900 7147.00 7204.20 85.00
3392 38.3000 7095.00 7156.69 84.00
3393 38.3100 7112.00 7119.88 84.00
3394 38.3200 7113.00 7093.30 84.00
3395 38.3300 7019.00 7076.24 84.00
3396 38.3400 7067.00 7067.59 84.00
3397 38.3500 7041.00 7065.80 84.00
3398 38.3600 7104.00 7068.78 84.00
3399 38.3700 7129.00 7074.11 84.00
3400 38.3800 7141.00 7079.53 85.00
3401 38.3900 7059.00 7083.67 84.00
3402 38.4000 7082.00 7086.38 84.00
3403 38.4100 7057.00 7088.47 84.00
3404 38.4200 7053.00 7090.97 84.00
3405 38.4300 7098.00 7094.61 84.00
3406 38.4400 7064.00 7099.60 84.00
3407 38.4500 7062.00 7105.73 84.00
3408 38.4600 7090.00 7112.54 84.00
3409 38.4700 7050.00 7119.47 84.00
3410 38.4800 7072.00 7126.09 84.00
3411 38.4900 7109.00 7132.23 84.00
3412 38.5000 7120.00 7138.18 84.00
3413 38.5100 7076.00 7144.61 84.00
3414 38.5200 7128.00 7152.21 84.00
3415 38.5300 7112.00 7165.14 84.00
3416 38.5400 7137.00 7179.25 84.00
3417 38.5500 7209.00 7198.07 85.00
3418 38.5600 7230.00 7222.40 85.00
3419 38.5700 7231.00 7252.85 85.00
3420 38.5800 7269.00 7289.69 85.00
3421 38.5900 7274.00 7333.03 85.00
3422 38.6000 7349.00 7382.78 86.00
3423 38.6100 7434.00 7438.84 86.00
3424 38.6200 7480.00 7500.75 86.00
3425 38.6300 7517.00 7567.87 87.00
3426 38.6400 7589.00 7638.59 87.00
3427 38.6500 7678.00 7710.58 88.00
3428 38.6600 7798.00 7780.91 88.00
3429 38.6700 7953.00 7846.35 89.00
3430 38.6800 7970.00 7904.23 89.00
3431 38.6900 7972.00 7952.93 89.00
3432 38.7000 8047.00 7991.80 90.00
3433 38.7100 8019.00 8021.19 90.00
3434 38.7200 8063.00 8040.19 90.00
3435 38.7300 8085.00 8049.28 90.00
3436 38.7400 8026.00 8049.76 90.00
3437 38.7500 7979.00 8044.90 89.00
3438 38.7600 7954.00 8039.42 89.00
3439 38.7700 8000.00 8037.76 89.00
3440 38.7800 8017.00 8042.71 90.00
3441 38.7900 8100.00 8054.48 90.00
3442 38.8000 8062.00 8070.49 90.00
3443 38.8100 8076.00 8085.59 90.00
3444 38.8200 8121.00 8093.07 90.00
3445 38.8300 8120.00 8086.27 90.00
3446 38.8400 8049.00 8060.62 90.00
3447 38.8500 8050.00 8014.98 90.00
3448 38.8600 7952.00 7951.84 89.00
3449 38.8700 7832.00 7876.46 88.00
3450 38.8800 7727.00 7796.53 88.00
3451 38.8900 7679.00 7718.87 88.00
3452 38.9000 7641.00 7649.05 87.00
3453 38.9100 7572.00 7590.55 87.00
3454 38.9200 7502.00 7545.45 87.00
3455 38.9300 7449.00 7514.64 86.00
3456 38.9400 7419.00 7498.34 86.00
3457 38.9500 7357.00 7496.23 86.00
3458 38.9600 7444.00 7507.43 86.00
3459 38.9700 7475.00 7530.28 86.00
3460 38.9800 7457.00 7561.93 86.00
3461 38.9900 7529.00 7598.20 87.00
3462 39.0000 7569.00 7634.19 87.00
3463 39.0100 7574.00 7665.80 87.00
3464 39.0200 7590.00 7691.37 87.00
3465 39.0300 7738.00 7711.95 88.00
3466 39.0400 7722.00 7729.81 88.00
3467 39.0500 7638.00 7746.38 87.00
3468 39.0600 7750.00 7760.79 88.00
3469 39.0700 7741.00 7769.94 88.00
3470 39.0800 7746.00 7769.64 88.00
3471 39.0900 7751.00 7756.65 88.00
3472 39.1000 7748.00 7730.38 88.00
3473 39.1100 7653.00 7693.44 87.00
3474 39.1200 7618.00 7650.80 87.00
3475 39.1300 7478.00 7608.29 86.00
3476 39.1400 7482.00 7571.10 86.00
3477 39.1500 7503.00 7543.39 87.00
3478 39.1600 7452.00 7527.91 86.00
3479 39.1700 7378.00 7526.17 86.00
3480 39.1800 7436.00 7539.18 86.00
3481 39.1900 7462.00 7566.64 86.00
3482 39.2000 7591.00 7606.92 87.00
3483 39.2100 7675.00 7660.02 88.00
3484 39.2200 7701.00 7722.41 88.00
3485 39.2300 7728.00 7790.34 88.00
3486 39.2400 7853.00 7858.90 89.00
3487 39.2500 7889.00 7922.44 89.00
3488 39.2600 8014.00 7975.14 90.00
3489 39.2700 8051.00 8012.04 90.00
3490 39.2800 8080.00 8029.88 90.00
3491 39.2900 8017.00 8027.63 90.00
3492 39.3000 8021.00 8006.43 90.00
3493 39.3100 7959.00 7969.31 89.00
3494 39.3200 7866.00 7920.27 89.00
3495 39.3300 7830.00 7863.58 88.00
3496 39.3400 7731.00 7802.90 88.00
3497 39.3500 7624.00 7740.61 87.00
3498 39.3600 7561.00 7680.09 87.00
3499 39.3700 7541.00 7619.04 87.00
3500 39.3800 7494.00 7559.39 87.00
3501 39.3900 7484.00 7501.84 87.00
3502 39.4000 7393.00 7447.97 86.00
3503 39.4100 7362.00 7399.86 86.00
3504 39.4200 7318.00 7359.89 86.00
3505 39.4300 7256.00 7329.88 85.00
3506 39.4400 7310.00 7312.07 85.00
3507 39.4500 7330.00 7307.08 86.00
3508 39.4600 7345.00 7315.12 86.00
3509 39.4700 7325.00 7335.68 86.00
3510 39.4800 7335.00 7367.47 86.00
3511 39.4900 7340.00 7408.09 86.00
3512 39.5000 7482.00 7453.89 86.00
3513 39.5100 7530.00 7499.52 87.00
3514 39.5200 7554.00 7537.99 87.00
3515 39.5300 7548.00 7562.50 87.00
3516 39.5400 7590.00 7566.81 87.00
3517 39.5500 7534.00 7548.05 87.00
3518 39.5600 7518.00 7507.25 87.00
3519 39.5700 7467.00 7448.77 86.00
3520 39.5800 7404.00 7378.74 86.00
3521 39.5900 7224.00 7304.04 85.00
3522 39.6000 7193.00 7229.83 85.00
3523 39.6100 7104.00 7160.00 84.00
3524 39.6200 7049.00 7097.04 84.00
3525 39.6300 7074.00 7042.49 84.00
3526 39.6400 6997.00 6997.01 84.00
3527 39.6500 6934.00 6960.91 83.00
3528 39.6600 6940.00 6934.13 83.00
3529 39.6700 6896.00 6916.49 83.00
3530 39.6800 6935.00 6907.68 83.00
3531 39.6900 6916.00 6907.40 83.00
3532 39.7000 6940.00 6914.95 83.00
3533 39.7100 6911.00 6930.88 83.00
3534 39.7200 6957.00 6954.60 83.00
3535 39.7300 7002.00 6985.98 84.00
3536 39.7400 7080.00 7024.92 84.00
3537 39.7500 7129.00 7073.07 84.00
3538 39.7600 7152.00 7126.93 85.00
3539 39.7700 7207.00 7188.09 85.00
3540 39.7800 7253.00 7256.31 85.00
3541 39.7900 7301.00 7331.20 85.00
3542 39.8000 7426.00 7412.16 86.00
3543 39.8100 7582.00 7498.13 87.00
3544 39.8200 7628.00 7587.87 87.00
3545 39.8300 7667.00 7679.49 88.00
3546 39.8400 7775.00 7770.89 88.00
3547 39.8500 7827.00 7859.67 88.00
3548 39.8600 7917.00 7943.84 89.00
3549 39.8700 8085.00 8022.00 90.00
3550 39.8800 8086.00 8093.16 90.00
3551 39.8900 8059.00 8159.21 90.00
3552 39.9000 8111.00 8221.26 90.00
3553 39.9100 8217.00 8281.41 91.00
3554 39.9200 8293.00 8341.45 91.00
3555 39.9300 8356.00 8402.50 91.00
3556 39.9400 8385.00 8464.51 92.00
3557 39.9500 8402.00 8525.87 92.00
3558 39.9600 8553.00 8583.61 92.00
3559 39.9700 8580.00 8633.69 93.00
3560 39.9800 8624.00 8672.09 93.00
3561 39.9900 8709.00 8695.75 93.00
3562 40.0000 8707.00 8703.74 93.00
3563 40.0100 8630.00 8697.36 93.00
3564 40.0200 8679.00 8679.63 93.00
3565 40.0300 8592.00 8654.28 93.00
3566 40.0400 8601.00 8625.02 93.00
3567 40.0500 8600.00 8594.90 93.00
3568 40.0600 8536.00 8566.38 92.00
3569 40.0700 8418.00 8540.90 92.00
3570 40.0800 8438.00 8519.12 92.00
3571 40.0900 8367.00 8500.74 91.00
3572 40.1000 8423.00 8484.67 92.00
3573 40.1100 8390.00 8469.25 92.00
3574 40.1200 8382.00 8452.68 92.00
3575 40.1300 8316.00 8433.65 91.00
3576 40.1400 8294.00 8411.73 91.00
3577 40.1500 8233.00 8387.49 91.00
3578 40.1600 8266.00 8362.07 91.00
3579 40.1700 8249.00 8336.82 91.00
3580 40.1800 8219.00 8312.82 91.00
3581 40.1900 8131.00 8290.76 90.00
3582 40.2000 8074.00 8271.15 90.00
3583 40.2100 8049.00 8254.14 90.00
3584 40.2200 8107.00 8240.07 90.00
3585 40.2300 8103.00 8229.45 90.00
3586 40.2400 8096.00 8223.15 90.00
3587 40.2500 8124.00 8222.36 90.00
3588 40.2600 8107.00 8228.46 90.00
3589 40.2700 8086.00 8242.98 90.00
3590 40.2800 8153.00 8266.94 90.00
3591 40.2900 8182.00 8301.93 90.00
3592 40.3000 8239.00 8348.33 91.00
3593 40.3100 8263.00 8406.12 91.00
3594 40.3200 8346.00 8474.88 91.00
3595 40.3300 8446.00 8553.08 92.00
3596 40.3400 8628.00 8638.39 93.00
3597 40.3500 8783.00 8727.25 94.00
3598 40.3600 8879.00 8815.15 94.00
3599 40.3700 8933.00 8896.62 95.00
3600 40.3800 9056.00 8965.59 95.00
3601 40.3900 9065.00 9016.52 95.00
3602 40.4000 9127.00 9045.15 96.00
3603 40.4100 9171.00 9049.94 96.00
3604 40.4200 9081.00 9032.57 95.00
3605 40.4300 8977.00 8997.59 95.00
3606 40.4400 8911.00 8951.40 94.00
3607 40.4500 8843.00 8900.62 94.00
3608 40.4600 8820.00 8851.27 94.00
3609 40.4700 8782.00 8808.26 94.00
3610 40.4800 8698.00 8775.25 93.00
3611 40.4900 8607.00 8754.65 93.00
3612 40.5000 8656.00 8747.36 93.00
3613 40.5100 8633.00 8751.73 93.00
3614 40.5200 8685.00 8765.78 93.00
3615 40.5300 8729.00 8782.30 93.00
3616 40.5400 8755.00 8791.45 94.00
3617 40.5500 8691.00 8781.41 93.00
3618 40.5600 8624.00 8742.07 93.00
3619 40.5700 8537.00 8670.01 92.00
3620 40.5800 8477.00 8570.98 92.00
3621 40.5900 8399.00 8456.87 92.00
3622 40.6000 8283.00 8340.75 91.00
3623 40.6100 8090.00 8232.86 90.00
3624 40.6200 8012.00 8139.57 90.00
3625 40.6300 7965.00 8064.33 89.00
3626 40.6400 7930.00 8008.24 89.00
3627 40.6500 7980.00 7970.92 89.00
3628 40.6600 7955.00 7950.62 89.00
3629 40.6700 7936.00 7944.30 89.00
3630 40.6800 7930.00 7947.45 89.00
3631 40.6900 7967.00 7954.36 89.00
3632 40.7000 8036.00 7959.21 90.00
3633 40.7100 8113.00 7957.39 90.00
3634 40.7200 8072.00 7946.81 90.00
3635 40.7300 8049.00 7927.85 90.00
3636 40.7400 8020.00 7902.45 90.00
3637 40.7500 7954.00 7872.96 89.00
3638 40.7600 7894.00 7842.61 89.00
3639 40.7700 7872.00 7816.54 89.00
3640 40.7800 7746.00 7791.70 88.00
3641 40.7900 7654.00 7772.77 87.00
3642 40.8000 7652.00 7761.14 87.00
3643 40.8100 7675.00 7757.68 88.00
3644 40.8200 7768.00 7762.70 88.00
3645 40.8300 7832.00 7776.31 88.00
3646 40.8400 7851.00 7797.92 89.00
3647 40.8500 7834.00 7826.43 89.00
3648 40.8600 7905.00 7860.00 89.00
3649 40.8700 7907.00 7895.85 89.00
3650 40.8800 8011.00 7930.16 90.00
3651 40.8900 8077.00 7958.48 90.00
3652 40.9000 8036.00 7976.20 90.00
3653 40.9100 7977.00 7979.52 89.00
3654 40.9200 8029.00 7965.78 90.00
3655 40.9300 7903.00 7933.26 89.00
3656 40.9400 7889.00 7881.24 89.00
3657 40.9500 7825.00 7811.30 88.00
3658 40.9600 7753.00 7727.88 88.00
3659 40.9700 7554.00 7637.35 87.00
3660 40.9800 7478.00 7545.40 86.00
3661 40.9900 7377.00 7458.00 86.00
3662 41.0000 7374.00 7373.77 86.00
3663 41.0100 7333.00 7295.82 86.00
3664 41.0200 7217.00 7224.54 85.00
3665 41.0300 7113.00 7159.82 84.00
3666 41.0400 7065.00 7101.19 84.00
3667 41.0500 6983.00 7047.99 84.00
3668 41.0600 7010.00 6999.55 84.00
3669 41.0700 6996.00 6955.22 84.00
3670 41.0800 6936.00 6914.50 83.00
3671 41.0900 6849.00 6877.06 83.00
3672 41.1000 6839.00 6842.80 83.00
3673 41.1100 6801.00 6811.67 82.00
3674 41.1200 6852.00 6783.64 83.00
3675 41.1300 6875.00 6758.75 83.00
3676 41.1400 6785.00 6736.92 82.00
3677 41.1500 6763.00 6718.11 82.00
3678 41.1600 6773.00 6702.07 82.00
3679 41.1700 6767.00 6688.82 82.00
3680 41.1800 6769.00 6678.07 82.00
3681 41.1900 6819.00 6669.60 83.00
3682 41.2000 6796.00 6663.19 82.00
3683 41.2100 6714.00 6658.64 82.00
3684 41.2200 6754.00 6655.84 82.00
3685 41.2300 6702.00 6654.70 82.00
3686 41.2400 6762.00 6655.20 82.00
3687 41.2500 6773.00 6657.36 82.00
3688 41.2600 6778.00 6661.20 82.00
3689 41.2700 6717.00 6666.76 82.00
3690 41.2800 6724.00 6674.12 82.00
3691 41.2900 6725.00 6683.37 82.00
3692 41.3000 6760.00 6694.62 82.00
3693 41.3100 6838.00 6708.11 83.00
3694 41.3200 6850.00 6724.03 83.00
3695 41.3300 6808.00 6742.65 83.00
3696 41.3400 6877.00 6764.30 83.00
3697 41.3500 6862.00 6789.32 83.00
3698 41.3600 6940.00 6818.10 83.00
3699 41.3700 6931.00 6851.06 83.00
3700 41.3800 7001.00 6888.65 84.00
3701 41.3900 6977.00 6931.40 84.00
3702 41.4000 7085.00 6979.81 84.00
3703 41.4100 7129.00 7034.43 84.00
3704 41.4200 7208.00 7095.69 85.00
3705 41.4300 7361.00 7164.20 86.00
3706 41.4400 7450.00 7240.15 86.00
3707 41.4500 7426.00 7323.28 86.00
3708 41.4600 7538.00 7413.44 87.00
3709 41.4700 7607.00 7509.20 87.00
3710 41.4800 7724.00 7608.75 88.00
3711 41.4900 7893.00 7710.56 89.00
3712 41.5000 7972.00 7815.95 89.00
3713 41.5100 8042.00 7929.75 90.00
3714 41.5200 8153.00 8058.79 90.00
3715 41.5300 8290.00 8208.31 91.00
3716 41.5400 8428.00 8378.43 92.00
3717 41.5500 8714.00 8563.42 93.00
3718 41.5600 8825.00 8748.61 94.00
3719 41.5700 8930.00 8913.81 94.00
3720 41.5800 9031.00 9039.34 95.00
3721 41.5900 9080.00 9117.38 95.00
3722 41.6000 9179.00 9155.49 96.00
3723 41.6100 9292.00 9169.25 96.00
3724 41.6200 9328.00 9170.88 97.00
3725 41.6300 9268.00 9163.88 96.00
3726 41.6400 9261.00 9144.42 96.00
3727 41.6500 9237.00 9105.82 96.00
3728 41.6600 9177.00 9043.18 96.00
3729 41.6700 9073.00 8955.88 95.00
3730 41.6800 8909.00 8847.51 94.00
3731 41.6900 8726.00 8724.18 93.00
3732 41.7000 8547.00 8593.26 92.00
3733 41.7100 8405.00 8461.92 92.00
3734 41.7200 8290.00 8336.74 91.00
3735 41.7300 8230.00 8223.40 91.00
3736 41.7400 8105.00 8126.34 90.00
3737 41.7500 7998.00 8048.57 89.00
3738 41.7600 7967.00 7991.78 89.00
3739 41.7700 7913.00 7956.41 89.00
3740 41.7800 7925.00 7941.82 89.00
3741 41.7900 8001.00 7946.36 89.00
3742 41.8000 8061.00 7968.48 90.00
3743 41.8100 8019.00 8002.90 90.00
3744 41.8200 8070.00 8046.51 90.00
3745 41.8300 8147.00 8094.53 90.00
3746 41.8400 8274.00 8141.66 91.00
3747 41.8500 8317.00 8182.26 91.00
3748 41.8600 8298.00 8210.45 91.00
3749 41.8700 8273.00 8220.88 91.00
3750 41.8800 8275.00 8209.60 91.00
3751 41.8900 8213.00 8175.08 91.00
3752 41.9000 8129.00 8118.90 90.00
3753 41.9100 8054.00 8045.19 90.00
3754 41.9200 7933.00 7959.92 89.00
3755 41.9300 7776.00 7869.41 88.00
3756 41.9400 7737.00 7779.42 88.00
3757 41.9500 7618.00 7694.67 87.00
3758 41.9600 7571.00 7618.64 87.00
3759 41.9700 7531.00 7553.85 87.00
3760 41.9800 7512.00 7501.92 87.00
3761 41.9900 7468.00 7463.87 86.00
3762 42.0000 7447.00 7440.25 86.00
3763 42.0100 7399.00 7431.25 86.00
3764 42.0200 7448.00 7436.72 86.00
3765 42.0300 7529.00 7456.03 87.00
3766 42.0400 7524.00 7488.83 87.00
3767 42.0500 7520.00 7533.83 87.00
3768 42.0600 7597.00 7589.21 87.00
3769 42.0700 7637.00 7652.54 87.00
3770 42.0800 7773.00 7720.15 88.00
3771 42.0900 7875.00 7787.07 89.00
3772 42.1000 7934.00 7846.76 89.00
3773 42.1100 7881.00 7891.87 89.00
3774 42.1200 7925.00 7915.98 89.00
3775 42.1300 7899.00 7916.28 89.00
3776 42.1400 7899.00 7894.80 89.00
3777 42.1500 7874.00 7858.40 89.00
3778 42.1600 7818.00 7814.93 88.00
3779 42.1700 7725.00 7770.35 88.00
3780 42.1800 7707.00 7729.77 88.00
3781 42.1900 7642.00 7696.34 87.00
3782 42.2000 7640.00 7671.94 87.00
3783 42.2100 7647.00 7657.37 87.00
3784 42.2200 7630.00 7652.75 87.00
3785 42.2300 7575.00 7657.70 87.00
3786 42.2400 7629.00 7671.45 87.00
3787 42.2500 7609.00 7692.92 87.00
3788 42.2600 7702.00 7720.50 88.00
3789 42.2700 7836.00 7751.82 89.00
3790 42.2800 7802.00 7783.91 88.00
3791 42.2900 7799.00 7812.77 88.00
3792 42.3000 7880.00 7834.21 89.00
3793 42.3100 7836.00 7845.40 89.00
3794 42.3200 7886.00 7844.95 89.00
3795 42.3300 7849.00 7833.94 89.00
3796 42.3400 7808.00 7815.27 88.00
3797 42.3500 7739.00 7792.73 88.00
3798 42.3600 7711.00 7770.08 88.00
3799 42.3700 7658.00 7749.96 88.00
3800 42.3800 7709.00 7735.71 88.00
3801 42.3900 7764.00 7728.60 88.00
3802 42.4000 7746.00 7729.86 88.00
3803 42.4100 7698.00 7740.19 88.00
3804 42.4200 7783.00 7759.74 88.00
3805 42.4300 7753.00 7787.99 88.00
3806 42.4400 7861.00 7823.79 89.00
3807 42.4500 7961.00 7864.77 89.00
3808 42.4600 8045.00 7908.47 90.00
3809 42.4700 8006.00 7951.13 89.00
3810 42.4800 8098.00 7988.96 90.00
3811 42.4900 8096.00 8018.53 90.00
3812 42.5000 8119.00 8037.62 90.00
3813 42.5100 8143.00 8045.61 90.00
3814 42.5200 8119.00 8043.62 90.00
3815 42.5300 8014.00 8033.98 90.00
3816 42.5400 8020.00 8019.54 90.00
3817 42.5500 8013.00 8002.92 90.00
3818 42.5600 7971.00 7986.02 89.00
3819 42.5700 8009.00 7970.10 89.00
3820 42.5800 7966.00 7955.35 89.00
3821 42.5900 7895.00 7941.39 89.00
3822 42.6000 7879.00 7927.39 89.00
3823 42.6100 7817.00 7912.45 88.00
3824 42.6200 7780.00 7895.85 88.00
3825 42.6300 7950.00 7877.24 89.00
3826 42.6400 7929.00 7856.72 89.00
3827 42.6500 7859.00 7834.57 89.00
3828 42.6600 7853.00 7811.62 89.00
3829 42.6700 7794.00 7788.30 88.00
3830 42.6800 7815.00 7765.01 88.00
3831 42.6900 7771.00 7742.21 88.00
3832 42.7000 7749.00 7720.12 88.00
3833 42.7100 7669.00 7699.04 88.00
3834 42.7200 7641.00 7679.47 87.00
3835 42.7300 7619.00 7662.10 87.00
3836 42.7400 7675.00 7647.87 88.00
3837 42.7500 7662.00 7637.77 88.00
3838 42.7600 7659.00 7632.80 88.00
3839 42.7700 7598.00 7633.69 87.00
3840 42.7800 7663.00 7640.92 88.00
3841 42.7900 7613.00 7654.56 87.00
3842 42.8000 7684.00 7674.37 88.00
3843 42.8100 7776.00 7699.69 88.00
3844 42.8200 7818.00 7729.57 88.00
3845 42.8300 7793.00 7762.73 88.00
3846 42.8400 7826.00 7797.81 88.00
3847 42.8500 7864.00 7833.38 89.00
3848 42.8600 7883.00 7868.32 89.00
3849 42.8700 7995.00 7901.93 89.00
3850 42.8800 8015.00 7933.95 90.00
3851 42.8900 7977.00 7964.71 89.00
3852 42.9000 8029.00 7994.83 90.00
3853 42.9100 8043.00 8025.08 90.00
3854 42.9200 8060.00 8056.18 90.00
3855 42.9300 8134.00 8088.74 90.00
3856 42.9400 8139.00 8123.45 90.00
3857 42.9500 8145.00 8160.90 90.00
3858 42.9600 8206.00 8202.73 91.00
3859 42.9700 8206.00 8250.37 91.00
3860 42.9800 8301.00 8305.95 91.00
3861 42.9900 8379.00 8371.43 92.00
3862 43.0000 8399.00 8448.53 92.00
3863 43.0100 8510.00 8540.17 92.00
3864 43.0200 8657.00 8641.91 93.00
3865 43.0300 8780.00 8753.90 94.00
3866 43.0400 8861.00 8871.90 94.00
3867 43.0500 9097.00 8989.27 95.00
3868 43.0600 9147.00 9096.41 96.00
3869 43.0700 9142.00 9182.08 96.00
3870 43.0800 9245.00 9235.75 96.00
3871 43.0900 9208.00 9250.43 96.00
3872 43.1000 9187.00 9224.84 96.00
3873 43.1100 9158.00 9163.36 96.00
3874 43.1200 9066.00 9073.88 95.00
3875 43.1300 8905.00 8965.32 94.00
3876 43.1400 8791.00 8845.67 94.00
3877 43.1500 8626.00 8721.36 93.00
3878 43.1600 8536.00 8596.82 92.00
3879 43.1700 8448.00 8474.98 92.00
3880 43.1800 8350.00 8357.63 91.00
3881 43.1900 8181.00 8245.90 90.00
3882 43.2000 8111.00 8140.57 90.00
3883 43.2100 7935.00 8042.28 89.00
3884 43.2200 7935.00 7951.70 89.00
3885 43.2300 7875.00 7869.32 89.00
3886 43.2400 7801.00 7795.64 88.00
3887 43.2500 7720.00 7730.89 88.00
3888 43.2600 7673.00 7675.07 88.00
3889 43.2700 7617.00 7628.74 87.00
3890 43.2800 7628.00 7591.80 87.00
3891 43.2900 7647.00 7566.76 87.00
3892 43.3000 7634.00 7549.78 87.00
3893 43.3100 7567.00 7543.34 87.00
3894 43.3200 7559.00 7547.61 87.00
3895 43.3300 7584.00 7562.46 87.00
3896 43.3400 7654.00 7587.30 87.00
3897 43.3500 7761.00 7620.92 88.00
3898 43.3600 7755.00 7661.40 88.00
3899 43.3700 7821.00 7705.82 88.00
3900 43.3800 7914.00 7750.28 89.00
3901 43.3900 7898.00 7790.19 89.00
3902 43.4000 7910.00 7820.79 89.00
3903 43.4100 7979.00 7838.51 89.00
3904 43.4200 7954.00 7841.45 89.00
3905 43.4300 7889.00 7829.90 89.00
3906 43.4400 7908.00 7805.79 89.00
3907 43.4500 7838.00 7772.42 89.00
3908 43.4600 7781.00 7733.37 88.00
3909 43.4700 7787.00 7692.31 88.00
3910 43.4800 7722.00 7653.91 88.00
3911 43.4900 7633.00 7618.30 87.00
3912 43.5000 7633.00 7588.79 87.00
3913 43.5100 7587.00 7566.74 87.00
3914 43.5200 7585.00 7552.98 87.00
3915 43.5300 7632.00 7547.88 87.00
3916 43.5400 7648.00 7551.66 87.00
3917 43.5500 7616.00 7563.98 87.00
3918 43.5600 7662.00 7584.55 88.00
3919 43.5700 7723.00 7612.39 88.00
3920 43.5800 7797.00 7646.93 88.00
3921 43.5900 7891.00 7686.78 89.00
3922 43.6000 7931.00 7730.46 89.00
3923 43.6100 7912.00 7776.23 89.00
3924 43.6200 7989.00 7823.02 89.00
3925 43.6300 8022.00 7869.47 90.00
3926 43.6400 8095.00 7914.95 90.00
3927 43.6500 8169.00 7959.77 90.00
3928 43.6600 8186.00 8004.63 90.00
3929 43.6700 8104.00 8050.21 90.00
3930 43.6800 8177.00 8096.46 90.00
3931 43.6900 8217.00 8141.57 91.00
3932 43.7000 8294.00 8181.47 91.00
3933 43.7100 8301.00 8211.37 91.00
3934 43.7200 8327.00 8227.52 91.00
3935 43.7300 8242.00 8230.67 91.00
3936 43.7400 8318.00 8226.36 91.00
3937 43.7500 8254.00 8223.12 91.00
3938 43.7600 8271.00 8229.04 91.00
3939 43.7700 8361.00 8250.13 91.00
3940 43.7800 8409.00 8289.82 92.00
3941 43.7900 8441.00 8349.28 92.00
3942 43.8000 8554.00 8427.99 92.00
3943 43.8100 8645.00 8523.99 93.00
3944 43.8200 8790.00 8634.22 94.00
3945 43.8300 9028.00 8754.18 95.00
3946 43.8400 9126.00 8878.37 96.00
3947 43.8500 9189.00 8999.77 96.00
3948 43.8600 9309.00 9110.28 96.00
3949 43.8700 9341.00 9201.60 97.00
3950 43.8800 9391.00 9266.79 97.00
3951 43.8900 9431.00 9302.49 97.00
3952 43.9000 9373.00 9309.54 97.00
3953 43.9100 9311.00 9292.53 96.00
3954 43.9200 9266.00 9257.97 96.00
3955 43.9300 9128.00 9212.11 96.00
3956 43.9400 9065.00 9159.65 95.00
3957 43.9500 9050.00 9103.54 95.00
3958 43.9600 8987.00 9044.76 95.00
3959 43.9700 8830.00 8983.72 94.00
3960 43.9800 8795.00 8920.83 94.00
3961 43.9900 8700.00 8857.32 93.00
3962 44.0000 8676.00 8794.78 93.00
3963 44.0100 8677.00 8735.18 93.00
3964 44.0200 8686.00 8680.23 93.00
3965 44.0300 8610.00 8631.63 93.00
3966 44.0400 8609.00 8591.24 93.00
3967 44.0500 8528.00 8561.24 92.00
3968 44.0600 8574.00 8544.30 93.00
3969 44.0700 8627.00 8543.47 93.00
3970 44.0800 8639.00 8561.84 93.00
3971 44.0900 8610.00 8602.23 93.00
3972 44.1000 8717.00 8665.97 93.00
3973 44.1100 8718.00 8751.48 93.00
3974 44.1200 8794.00 8851.53 94.00
3975 44.1300 8873.00 8950.17 94.00
3976 44.1400 8866.00 9023.39 94.00
3977 44.1500 8823.00 9047.05 94.00
3978 44.1600 8818.00 9011.09 94.00
3979 44.1700 8780.00 8927.07 94.00
3980 44.1800 8714.00 8820.00 93.00
3981 44.1900 8732.00 8713.94 93.00
3982 44.2000 8649.00 8625.00 93.00
3983 44.2100 8555.00 8560.05 92.00
3984 44.2200 8572.00 8520.33 93.00
3985 44.2300 8550.00 8503.44 92.00
3986 44.2400 8590.00 8506.01 93.00
3987 44.2500 8728.00 8523.35 93.00
3988 44.2600 8755.00 8550.96 94.00
3989 44.2700 8697.00 8585.44 93.00
3990 44.2800 8758.00 8622.25 94.00
3991 44.2900 8696.00 8659.60 93.00
3992 44.3000 8751.00 8695.89 94.00
3993 44.3100 8830.00 8729.94 94.00
3994 44.3200 8817.00 8760.71 94.00
3995 44.3300 8806.00 8786.85 94.00
3996 44.3400 8834.00 8806.52 94.00
3997 44.3500 8803.00 8817.60 94.00
3998 44.3600 8812.00 8817.79 94.00
3999 44.3700 8915.00 8805.46 94.00
4000 44.3800 8817.00 8780.08 94.00
4001 44.3900 8800.00 8742.49 94.00
4002 44.4000 8720.00 8694.66 93.00
4003 44.4100 8667.00 8639.21 93.00
4004 44.4200 8664.00 8578.96 93.00
4005 44.4300 8696.00 8516.64 93.00
4006 44.4400 8578.00 8454.82 93.00
4007 44.4500 8481.00 8396.12 92.00
4008 44.4600 8400.00 8343.11 92.00
4009 44.4700 8341.00 8298.52 91.00
4010 44.4800 8340.00 8264.91 91.00
4011 44.4900 8353.00 8244.58 91.00
4012 44.5000 8410.00 8239.37 92.00
4013 44.5100 8351.00 8250.38 91.00
4014 44.5200 8430.00 8278.86 92.00
4015 44.5300 8462.00 8324.88 92.00
4016 44.5400 8528.00 8388.16 92.00
4017 44.5500 8650.00 8467.78 93.00
4018 44.5600 8745.00 8561.75 94.00
4019 44.5700 8832.00 8666.86 94.00
4020 44.5800 9048.00 8777.78 95.00
4021 44.5900 9153.00 8887.22 96.00
4022 44.6000 9339.00 8987.35 97.00
4023 44.6100 9426.00 9064.95 97.00
4024 44.6200 9421.00 9112.49 97.00
4025 44.6300 9290.00 9124.16 96.00
4026 44.6400 9209.00 9099.14 96.00
4027 44.6500 9064.00 9041.60 95.00
4028 44.6600 8984.00 8959.12 95.00
4029 44.6700 8851.00 8860.73 94.00
4030 44.6800 8730.00 8754.65 93.00
4031 44.6900 8550.00 8647.38 92.00
4032 44.7000 8532.00 8543.39 92.00
4033 44.7100 8331.00 8444.95 91.00
4034 44.7200 8305.00 8352.52 91.00
4035 44.7300 8351.00 8265.28 91.00
4036 44.7400 8184.00 8181.59 90.00
4037 44.7500 8085.00 8099.49 90.00
4038 44.7600 8010.00 8017.61 89.00
4039 44.7700 7919.00 7935.55 89.00
4040 44.7800 7892.00 7853.76 89.00
4041 44.7900 7821.00 7773.27 88.00
4042 44.8000 7729.00 7695.06 88.00
4043 44.8100 7620.00 7620.18 87.00
4044 44.8200 7539.00 7549.36 87.00
4045 44.8300 7474.00 7483.26 86.00
4046 44.8400 7433.00 7422.16 86.00
4047 44.8500 7423.00 7366.34 86.00
4048 44.8600 7397.00 7315.85 86.00
4049 44.8700 7307.00 7270.55 85.00
4050 44.8800 7259.00 7230.16 85.00
4051 44.8900 7185.00 7194.54 85.00
4052 44.9000 7218.00 7163.23 85.00
4053 44.9100 7214.00 7135.80 85.00
4054 44.9200 7196.00 7111.87 85.00
4055 44.9300 7122.00 7091.15 84.00
4056 44.9400 7108.00 7073.64 84.00
4057 44.9500 7079.00 7059.22 84.00
4058 44.9600 7127.00 7047.96 84.00
4059 44.9700 7154.00 7039.96 85.00
4060 44.9800 7125.00 7035.29 84.00
4061 44.9900 7040.00 7033.99 84.00
4062 45.0000 7094.00 7036.06 84.00
4063 45.0100 7086.00 7041.41 84.00
4064 45.0200 7143.00 7049.92 85.00
4065 45.0300 7189.00 7061.43 85.00
4066 45.0400 7165.00 7075.70 85.00
4067 45.0500 7109.00 7092.51 84.00
4068 45.0600 7168.00 7111.52 85.00
4069 45.0700 7203.00 7132.41 85.00
4070 45.0800 7261.00 7154.93 85.00
4071 45.0900 7287.00 7178.54 85.00
4072 45.1000 7293.00 7203.35 85.00
4073 45.1100 7283.00 7228.73 85.00
4074 45.1200 7324.00 7255.13 86.00
4075 45.1300 7340.00 7282.26 86.00
4076 45.1400 7376.00 7310.25 86.00
4077 45.1500 7423.00 7339.16 86.00
4078 45.1600 7397.00 7369.09 86.00
4079 45.1700 7443.00 7399.97 86.00
4080 45.1800 7489.00 7431.56 87.00
4081 45.1900 7458.00 7463.33 86.00
4082 45.2000 7519.00 7494.45 87.00
4083 45.2100 7591.00 7523.91 87.00
4084 45.2200 7574.00 7550.43 87.00
4085 45.2300 7564.00 7573.36 87.00
4086 45.2400 7596.00 7592.01 87.00
4087 45.2500 7626.00 7606.47 87.00
4088 45.2600 7608.00 7617.41 87.00
4089 45.2700 7691.00 7625.89 88.00
4090 45.2800 7653.00 7633.14 87.00
4091 45.2900 7657.00 7640.27 88.00
4092 45.3000 7655.00 7648.10 87.00
4093 45.3100 7676.00 7657.04 88.00
4094 45.3200 7733.00 7667.20 88.00
4095 45.3300 7802.00 7678.32 88.00
4096 45.3400 7789.00 7689.94 88.00
4097 45.3500 7756.00 7701.39 88.00
4098 45.3600 7777.00 7711.96 88.00
4099 45.3700 7732.00 7720.94 88.00
4100 45.3800 7835.00 7727.67 89.00
4101 45.3900 7858.00 7731.73 89.00
4102 45.4000 7848.00 7732.87 89.00
4103 45.4100 7726.00 7731.18 88.00
4104 45.4200 7780.00 7726.94 88.00
4105 45.4300 7761.00 7720.68 88.00
4106 45.4400 7750.00 7712.93 88.00
4107 45.4500 7798.00 7704.23 88.00
4108 45.4600 7821.00 7694.82 88.00
4109 45.4700 7724.00 7684.98 88.00
4110 45.4800 7752.00 7674.48 88.00
4111 45.4900 7695.00 7663.06 88.00
4112 45.5000 7686.00 7650.46 88.00
4113 45.5100 7728.00 7636.67 88.00
4114 45.5200 7718.00 7622.01 88.00
4115 45.5300 7637.00 7607.32 87.00
4116 45.5400 7634.00 7593.87 87.00
4117 45.5500 7619.00 7583.12 87.00
4118 45.5600 7690.00 7576.89 88.00
4119 45.5700 7677.00 7576.65 88.00
4120 45.5800 7647.00 7583.72 87.00
4121 45.5900 7642.00 7599.02 87.00
4122 45.6000 7687.00 7623.02 88.00
4123 45.6100 7734.00 7655.64 88.00
4124 45.6200 7801.00 7696.12 88.00
4125 45.6300 7891.00 7742.96 89.00
4126 45.6400 7951.00 7793.69 89.00
4127 45.6500 7979.00 7845.26 89.00
4128 45.6600 8034.00 7893.56 90.00
4129 45.6700 8061.00 7934.31 90.00
4130 45.6800 8123.00 7963.54 90.00
4131 45.6900 8200.00 7978.52 91.00
4132 45.7000 8171.00 7978.32 90.00
4133 45.7100 8083.00 7964.50 90.00
4134 45.7200 8063.00 7939.89 90.00
4135 45.7300 7949.00 7908.09 89.00
4136 45.7400 7968.00 7872.96 89.00
4137 45.7500 7949.00 7837.23 89.00
4138 45.7600 7893.00 7802.92 89.00
4139 45.7700 7817.00 7771.25 88.00
4140 45.7800 7795.00 7742.74 88.00
4141 45.7900 7751.00 7717.40 88.00
4142 45.8000 7760.00 7695.29 88.00
4143 45.8100 7736.00 7676.03 88.00
4144 45.8200 7738.00 7659.23 88.00
4145 45.8300 7660.00 7644.57 88.00
4146 45.8400 7677.00 7632.71 88.00
4147 45.8500 7675.00 7621.27 88.00
4148 45.8600 7620.00 7610.85 87.00
4149 45.8700 7662.00 7600.82 88.00
4150 45.8800 7597.00 7590.69 87.00
4151 45.8900 7541.00 7579.62 87.00
4152 45.9000 7623.00 7566.78 87.00
4153 45.9100 7532.00 7551.36 87.00
4154 45.9200 7533.00 7532.66 87.00
4155 45.9300 7566.00 7510.15 87.00
4156 45.9400 7528.00 7483.52 87.00
4157 45.9500 7434.00 7452.81 86.00
4158 45.9600 7384.00 7418.30 86.00
4159 45.9700 7341.00 7380.57 86.00
4160 45.9800 7321.00 7340.35 86.00
4161 45.9900 7338.00 7298.54 86.00
4162 46.0000 7218.00 7257.12 85.00
4163 46.0100 7191.00 7214.93 85.00
4164 46.0200 7145.00 7173.87 85.00
4165 46.0300 7111.00 7134.73 84.00
4166 46.0400 7109.00 7098.31 84.00
4167 46.0500 7096.00 7065.16 84.00
4168 46.0600 7016.00 7035.90 84.00
4169 46.0700 7007.00 7010.89 84.00
4170 46.0800 7039.00 6990.88 84.00
4171 46.0900 7027.00 6976.22 84.00
4172 46.1000 7033.00 6967.44 84.00
4173 46.1100 7053.00 6965.13 84.00
4174 46.1200 7030.00 6969.98 84.00
4175 46.1300 6998.00 6982.80 84.00
4176 46.1400 7061.00 7004.53 84.00
4177 46.1500 7071.00 7036.18 84.00
4178 46.1600 7143.00 7078.93 85.00
4179 46.1700 7275.00 7133.93 85.00
4180 46.1800 7320.00 7202.32 86.00
4181 46.1900 7349.00 7285.00 86.00
4182 46.2000 7458.00 7382.48 86.00
4183 46.2100 7573.00 7494.51 87.00
4184 46.2200 7681.00 7619.49 88.00
4185 46.2300 7856.00 7753.69 89.00
4186 46.2400 7980.00 7890.33 89.00
4187 46.2500 8034.00 8018.99 90.00
4188 46.2600 8098.00 8126.28 90.00
4189 46.2700 8152.00 8199.54 90.00
4190 46.2800 8184.00 8231.69 90.00
4191 46.2900 8223.00 8224.72 91.00
4192 46.3000 8183.00 8189.02 90.00
4193 46.3100 8066.00 8138.77 90.00
4194 46.3200 8088.00 8087.00 90.00
4195 46.3300 7984.00 8043.36 89.00
4196 46.3400 8008.00 8013.63 89.00
4197 46.3500 8047.00 8000.73 90.00
4198 46.3600 8047.00 8005.67 90.00
4199 46.3700 8017.00 8028.13 90.00
4200 46.3800 8080.00 8066.76 90.00
4201 46.3900 8124.00 8119.56 90.00
4202 46.4000 8187.00 8184.04 90.00
4203 46.4100 8320.00 8257.84 91.00
4204 46.4200 8385.00 8339.01 92.00
4205 46.4300 8448.00 8426.64 92.00
4206 46.4400 8589.00 8520.51 93.00
4207 46.4500 8605.00 8620.62 93.00
4208 46.4600 8768.00 8726.06 94.00
4209 46.4700 8938.00 8833.68 95.00
4210 46.4800 8985.00 8936.96 95.00
4211 46.4900 9047.00 9025.56 95.00
4212 46.5000 9074.00 9086.84 95.00
4213 46.5100 9049.00 9108.96 95.00
4214 46.5200 9012.00 9085.98 95.00
4215 46.5300 9004.00 9019.47 95.00
4216 46.5400 8841.00 8918.99 94.00
4217 46.5500 8685.00 8797.79 93.00
4218 46.5600 8626.00 8669.19 93.00
4219 46.5700 8484.00 8543.52 92.00
4220 46.5800 8347.00 8427.65 91.00
4221 46.5900 8343.00 8325.25 91.00
4222 46.6000 8213.00 8237.78 91.00
4223 46.6100 8169.00 8165.03 90.00
4224 46.6200 8130.00 8105.73 90.00
4225 46.6300 8073.00 8058.03 90.00
4226 46.6400 8014.00 8019.47 90.00
4227 46.6500 8035.00 7987.31 90.00
4228 46.6600 8046.00 7958.54 90.00
4229 46.6700 7937.00 7930.26 89.00
4230 46.6800 7928.00 7900.00 89.00
4231 46.6900 7806.00 7866.09 88.00
4232 46.7000 7839.00 7828.05 89.00
4233 46.7100 7816.00 7786.53 88.00
4234 46.7200 7760.00 7743.19 88.00
4235 46.7300 7649.00 7700.15 87.00
4236 46.7400 7604.00 7659.81 87.00
4237 46.7500 7554.00 7624.35 87.00
4238 46.7600 7571.00 7595.72 87.00
4239 46.7700 7524.00 7576.89 87.00
4240 46.7800 7539.00 7566.74 87.00
4241 46.7900 7526.00 7567.74 87.00
4242 46.8000 7578.00 7580.52 87.00
4243 46.8100 7624.00 7605.23 87.00
4244 46.8200 7704.00 7641.36 88.00
4245 46.8300 7764.00 7687.88 88.00
4246 46.8400 7795.00 7743.90 88.00
4247 46.8500 7807.00 7809.44 88.00
4248 46.8600 7903.00 7885.36 89.00
4249 46.8700 7984.00 7972.35 89.00
4250 46.8800 8106.00 8069.17 90.00
4251 46.8900 8236.00 8171.94 91.00
4252 46.9000 8317.00 8273.44 91.00
4253 46.9100 8367.00 8365.23 91.00
4254 46.9200 8504.00 8439.79 92.00
4255 46.9300 8541.00 8494.37 92.00
4256 46.9400 8575.00 8531.17 93.00
4257 46.9500 8650.00 8555.02 93.00
4258 46.9600 8624.00 8570.64 93.00
4259 46.9700 8586.00 8580.75 93.00
4260 46.9800 8656.00 8586.52 93.00
4261 46.9900 8643.00 8588.33 93.00
4262 47.0000 8622.00 8586.48 93.00
4263 47.0100 8622.00 8581.20 93.00
4264 47.0200 8605.00 8572.46 93.00
4265 47.0300 8471.00 8559.53 92.00
4266 47.0400 8503.00 8540.85 92.00
4267 47.0500 8510.00 8514.14 92.00
4268 47.0600 8399.00 8477.23 92.00
4269 47.0700 8404.00 8429.49 92.00
4270 47.0800 8317.00 8369.47 91.00
4271 47.0900 8177.00 8299.75 90.00
4272 47.1000 8100.00 8223.50 90.00
4273 47.1100 7950.00 8144.43 89.00
4274 47.1200 7932.00 8066.16 89.00
4275 47.1300 7920.00 7991.87 89.00
4276 47.1400 7872.00 7923.91 89.00
4277 47.1500 7764.00 7863.90 88.00
4278 47.1600 7760.00 7812.76 88.00
4279 47.1700 7678.00 7770.92 88.00
4280 47.1800 7689.00 7738.29 88.00
4281 47.1900 7728.00 7714.37 88.00
4282 47.2000 7698.00 7698.41 88.00
4283 47.2100 7663.00 7689.43 88.00
4284 47.2200 7732.00 7686.32 88.00
4285 47.2300 7692.00 7687.92 88.00
4286 47.2400 7751.00 7693.09 88.00
4287 47.2500 7800.00 7700.68 88.00
4288 47.2600 7821.00 7709.29 88.00
4289 47.2700 7781.00 7718.12 88.00
4290 47.2800 7763.00 7725.65 88.00
4291 47.2900 7781.00 7730.49 88.00
4292 47.3000 7803.00 7731.71 88.00
4293 47.3100 7901.00 7728.30 89.00
4294 47.3200 7828.00 7719.84 88.00
4295 47.3300 7746.00 7706.49 88.00
4296 47.3400 7760.00 7688.98 88.00
4297 47.3500 7648.00 7668.49 87.00
4298 47.3600 7665.00 7646.39 88.00
4299 47.3700 7676.00 7623.92 88.00
4300 47.3800 7602.00 7601.81 87.00
4301 47.3900 7531.00 7580.13 87.00
4302 47.4000 7492.00 7558.29 87.00
4303 47.4100 7488.00 7535.52 87.00
4304 47.4200 7475.00 7511.63 86.00
4305 47.4300 7473.00 7487.30 86.00
4306 47.4400 7449.00 7463.95 86.00
4307 47.4500 7446.00 7443.03 86.00
4308 47.4600 7421.00 7425.41 86.00
4309 47.4700 7410.00 7411.22 86.00
4310 47.4800 7413.00 7400.45 86.00
4311 47.4900 7459.00 7392.18 86.00
4312 47.5000 7439.00 7385.42 86.00
4313 47.5100 7346.00 7379.12 86.00
4314 47.5200 7367.00 7372.29 86.00
4315 47.5300 7345.00 7364.12 86.00
4316 47.5400 7344.00 7353.86 86.00
4317 47.5500 7387.00 7341.92 86.00
4318 47.5600 7313.00 7328.22 86.00
4319 47.5700 7300.00 7313.16 85.00
4320 47.5800 7243.00 7297.37 85.00
4321 47.5900 7254.00 7281.58 85.00
4322 47.6000 7271.00 7266.52 85.00
4323 47.6100 7282.00 7252.89 85.00
4324 47.6200 7276.00 7241.30 85.00
4325 47.6300 7166.00 7232.30 85.00
4326 47.6400 7187.00 7226.02 85.00
4327 47.6500 7133.00 7223.23 84.00
4328 47.6600 7246.00 7223.81 85.00
4329 47.6700 7261.00 7227.74 85.00
4330 47.6800 7269.00 7234.89 85.00
4331 47.6900 7207.00 7244.90 85.00
4332 47.7000 7292.00 7257.71 85.00
4333 47.7100 7253.00 7272.79 85.00
4334 47.7200 7294.00 7289.88 85.00
4335 47.7300 7375.00 7308.61 86.00
4336 47.7400 7418.00 7328.65 86.00
4337 47.7500 7376.00 7349.75 86.00
4338 47.7600 7442.00 7371.63 86.00
4339 47.7700 7407.00 7393.99 86.00
4340 47.7800 7434.00 7416.48 86.00
4341 47.7900 7525.00 7438.60 87.00
4342 47.8000 7495.00 7459.84 87.00
4343 47.8100 7458.00 7479.52 86.00
4344 47.8200 7477.00 7497.29 86.00
4345 47.8300 7493.00 7512.67 87.00
4346 47.8400 7538.00 7525.48 87.00
4347 47.8500 7613.00 7535.69 87.00
4348 47.8600 7568.00 7543.38 87.00
4349 47.8700 7533.00 7548.63 87.00
4350 47.8800 7556.00 7551.45 87.00
4351 47.8900 7538.00 7551.78 87.00
4352 47.9000 7553.00 7549.60 87.00
4353 47.9100 7589.00 7544.96 87.00
4354 47.9200 7519.00 7538.03 87.00
4355 47.9300 7436.00 7529.04 86.00
4356 47.9400 7493.00 7518.20 87.00
4357 47.9500 7479.00 7505.53 86.00
4358 47.9600 7505.00 7490.63 87.00
4359 47.9700 7500.00 7472.60 87.00
4360 47.9800 7461.00 7450.12 86.00
4361 47.9900 7438.00 7421.77 86.00
4362 48.0000 7386.00 7386.59 86.00
4363 48.0100 7349.00 7344.55 86.00
4364 48.0200 7287.00 7296.73 85.00
4365 48.0300 7256.00 7244.98 85.00
4366 48.0400 7222.00 7191.56 85.00
4367 48.0500 7064.00 7138.52 84.00
4368 48.0600 7090.00 7087.52 84.00
4369 48.0700 7020.00 7039.69 84.00
4370 48.0800 6999.00 6995.78 84.00
4371 48.0900 7002.00 6956.18 84.00
4372 48.1000 6959.00 6921.05 83.00
4373 48.1100 6863.00 6890.34 83.00
4374 48.1200 6863.00 6863.91 83.00
4375 48.1300 6856.00 6841.70 83.00
4376 48.1400 6875.00 6823.40 83.00
4377 48.1500 6882.00 6808.73 83.00
4378 48.1600 6850.00 6797.85 83.00
4379 48.1700 6805.00 6789.90 82.00
4380 48.1800 6831.00 6785.06 83.00
4381 48.1900 6761.00 6783.27 82.00
4382 48.2000 6837.00 6784.53 83.00
4383 48.2100 6867.00 6788.87 83.00
4384 48.2200 6846.00 6796.30 83.00
4385 48.2300 6840.00 6806.86 83.00
4386 48.2400 6855.00 6820.58 83.00
4387 48.2500 6854.00 6837.41 83.00
4388 48.2600 6886.00 6857.57 83.00
4389 48.2700 6942.00 6880.98 83.00
4390 48.2800 6976.00 6907.49 84.00
4391 48.2900 6896.00 6936.76 83.00
4392 48.3000 7008.00 6968.32 84.00
4393 48.3100 7039.00 7001.57 84.00
4394 48.3200 7136.00 7036.02 84.00
4395 48.3300 7220.00 7071.30 85.00
4396 48.3400 7197.00 7106.96 85.00
4397 48.3500 7191.00 7142.17 85.00
4398 48.3600 7225.00 7175.81 85.00
4399 48.3700 7237.00 7206.39 85.00
4400 48.3800 7270.00 7232.40 85.00
4401 48.3900 7356.00 7252.77 86.00
4402 48.4000 7338.00 7268.41 86.00
4403 48.4100 7277.00 7278.05 85.00
4404 48.4200 7324.00 7284.10 86.00
4405 48.4300 7290.00 7288.49 85.00
4406 48.4400 7296.00 7293.17 85.00
4407 48.4500 7356.00 7299.91 86.00
4408 48.4600 7334.00 7310.06 86.00
4409 48.4700 7301.00 7324.46 85.00
4410 48.4800 7334.00 7343.42 86.00
4411 48.4900 7329.00 7366.51 86.00
4412 48.5000 7415.00 7392.72 86.00
4413 48.5100 7442.00 7420.35 86.00
4414 48.5200 7489.00 7447.37 87.00
4415 48.5300 7493.00 7471.72 87.00
4416 48.5400 7533.00 7492.75 87.00
4417 48.5500 7477.00 7508.01 86.00
4418 48.5600 7582.00 7518.89 87.00
4419 48.5700 7589.00 7526.73 87.00
4420 48.5800 7547.00 7533.20 87.00
4421 48.5900 7515.00 7539.68 87.00
4422 48.6000 7572.00 7547.58 87.00
4423 48.6100 7524.00 7557.20 87.00
4424 48.6200 7595.00 7568.42 87.00
4425 48.6300 7601.00 7580.66 87.00
4426 48.6400 7678.00 7593.02 88.00
4427 48.6500 7588.00 7604.43 87.00
4428 48.6600 7607.00 7613.85 87.00
4429 48.6700 7626.00 7620.36 87.00
4430 48.6800 7620.00 7623.35 87.00
4431 48.6900 7700.00 7622.62 88.00
4432 48.7000 7659.00 7618.31 88.00
4433 48.7100 7628.00 7610.93 87.00
4434 48.7200 7565.00 7601.26 87.00
4435 48.7300 7511.00 7590.17 87.00
4436 48.7400 7515.00 7578.66 87.00
4437 48.7500 7595.00 7567.73 87.00
4438 48.7600 7533.00 7558.33 87.00
4439 48.7700 7516.00 7551.32 87.00
4440 48.7800 7517.00 7547.37 87.00
4441 48.7900 7466.00 7547.03 86.00
4442 48.8000 7514.00 7550.59 87.00
4443 48.8100 7578.00 7558.07 87.00
4444 48.8200 7573.00 7569.03 87.00
4445 48.8300 7537.00 7582.72 87.00
4446 48.8400 7643.00 7597.52 87.00
4447 48.8500 7580.00 7611.18 87.00
4448 48.8600 7638.00 7621.15 87.00
4449 48.8700 7666.00 7625.25 88.00
4450 48.8800 7608.00 7622.50 87.00
4451 48.8900 7598.00 7613.47 87.00
4452 48.9000 7633.00 7599.90 87.00
4453 48.9100 7598.00 7583.87 87.00
4454 48.9200 7599.00 7567.27 87.00
4455 48.9300 7609.00 7551.36 87.00
4456 48.9400 7551.00 7536.95 87.00
4457 48.9500 7509.00 7524.50 87.00
4458 48.9600 7524.00 7514.28 87.00
4459 48.9700 7468.00 7506.43 86.00
4460 48.9800 7478.00 7501.11 86.00
4461 48.9900 7488.00 7498.39 87.00
4462 49.0000 7529.00 7498.36 87.00
4463 49.0100 7430.00 7501.05 86.00
4464 49.0200 7442.00 7506.45 86.00
4465 49.0300 7426.00 7514.43 86.00
4466 49.0400 7494.00 7524.73 87.00
4467 49.0500 7542.00 7536.94 87.00
4468 49.0600 7562.00 7550.36 87.00
4469 49.0700 7541.00 7564.05 87.00
4470 49.0800 7524.00 7576.68 87.00
4471 49.0900 7500.00 7586.98 87.00
4472 49.1000 7477.00 7593.54 86.00
4473 49.1100 7516.00 7595.37 87.00
4474 49.1200 7505.00 7592.01 87.00
4475 49.1300 7495.00 7583.49 87.00
4476 49.1400 7488.00 7570.21 87.00
4477 49.1500 7471.00 7552.79 86.00
4478 49.1600 7467.00 7531.92 86.00
4479 49.1700 7458.00 7508.44 86.00
4480 49.1800 7429.00 7483.22 86.00
4481 49.1900 7332.00 7457.15 86.00
4482 49.2000 7335.00 7431.07 86.00
4483 49.2100 7316.00 7405.74 86.00
4484 49.2200 7325.00 7381.75 86.00
4485 49.2300 7359.00 7359.50 86.00
4486 49.2400 7326.00 7339.21 86.00
4487 49.2500 7265.00 7320.89 85.00
4488 49.2600 7262.00 7304.44 85.00
4489 49.2700 7197.00 7289.66 85.00
4490 49.2800 7260.00 7276.32 85.00
4491 49.2900 7246.00 7264.22 85.00
4492 49.3000 7263.00 7254.21 85.00
4493 49.3100 7224.00 7244.21 85.00
4494 49.3200 7254.00 7235.17 85.00
4495 49.3300 7162.00 7227.10 85.00
4496 49.3400 7200.00 7220.05 85.00
4497 49.3500 7244.00 7214.07 85.00
4498 49.3600 7208.00 7209.26 85.00
4499 49.3700 7149.00 7205.66 85.00
4500 49.3800 7186.00 7203.47 85.00
4501 49.3900 7152.00 7202.68 85.00
4502 49.4000 7198.00 7203.30 85.00
4503 49.4100 7217.00 7205.21 85.00
4504 49.4200 7253.00 7208.16 85.00
4505 49.4300 7212.00 7211.86 85.00
4506 49.4400 7262.00 7215.88 85.00
4507 49.4500 7159.00 7219.84 85.00
4508 49.4600 7240.00 7223.40 85.00
4509 49.4700 7218.00 7226.29 85.00
4510 49.4800 7231.00 7228.43 85.00
4511 49.4900 7148.00 7229.86 85.00
4512 49.5000 7197.00 7230.65 85.00
4513 49.5100 7164.00 7230.93 85.00
4514 49.5200 7204.00 7230.83 85.00
4515 49.5300 7253.00 7230.48 85.00
4516 49.5400 7258.00 7230.01 85.00
4517 49.5500 7227.00 7229.56 85.00
4518 49.5600 7194.00 7229.26 85.00
4519 49.5700 7224.00 7230.07 85.00
4520 49.5800 7204.00 7230.49 85.00
4521 49.5900 7292.00 7231.38 85.00
4522 49.6000 7272.00 7232.71 85.00
4523 49.6100 7226.00 7234.31 85.00
4524 49.6200 7234.00 7235.81 85.00
4525 49.6300 7222.00 7237.07 85.00
4526 49.6400 7256.00 7237.57 85.00
4527 49.6500 7294.00 7236.96 85.00
4528 49.6600 7261.00 7234.99 85.00
4529 49.6700 7211.00 7231.65 85.00
4530 49.6800 7211.00 7227.09 85.00
4531 49.6900 7143.00 7221.74 85.00
4532 49.7000 7174.00 7216.14 85.00
4533 49.7100 7192.00 7210.94 85.00
4534 49.7200 7171.00 7206.75 85.00
4535 49.7300 7151.00 7204.08 85.00
4536 49.7400 7140.00 7203.28 84.00
4537 49.7500 7124.00 7204.49 84.00
4538 49.7600 7171.00 7207.66 85.00
4539 49.7700 7178.00 7212.56 85.00
4540 49.7800 7207.00 7218.83 85.00
4541 49.7900 7149.00 7226.10 85.00
4542 49.8000 7157.00 7234.03 85.00
4543 49.8100 7128.00 7242.37 84.00
4544 49.8200 7199.00 7250.88 85.00
4545 49.8300 7263.00 7259.31 85.00
4546 49.8400 7280.00 7267.31 85.00
4547 49.8500 7211.00 7274.38 85.00
4548 49.8600 7277.00 7279.87 85.00
4549 49.8700 7255.00 7283.03 85.00
4550 49.8800 7246.00 7282.73 85.00
4551 49.8900 7296.00 7278.88 85.00
4552 49.9000 7273.00 7270.66 85.00
4553 49.9100 7197.00 7257.90 85.00
4554 49.9200 7180.00 7240.87 85.00
4555 49.9300 7168.00 7220.26 85.00
4556 49.9400 7107.00 7197.08 84.00
4557 49.9500 7130.00 7172.49 84.00
4558 49.9600 7115.00 7147.46 84.00
4559 49.9700 6999.00 7122.81 84.00
4560 49.9800 6988.00 7098.91 84.00
4561 49.9900 6965.00 7075.81 83.00
4562 50.0000 6957.00 7053.11 83.00
4563 50.0100 7000.00 7030.28 84.00
4564 50.0200 6988.00 7006.66 84.00
4565 50.0300 6916.00 6981.74 83.00
4566 50.0400 6914.00 6955.34 83.00
4567 50.0500 6865.00 6927.58 83.00
4568 50.0600 6847.00 6898.83 83.00
4569 50.0700 6829.00 6869.98 83.00
4570 50.0800 6803.00 6841.61 82.00
4571 50.0900 6704.00 6814.28 82.00
4572 50.1000 6748.00 6788.47 82.00
4573 50.1100 6688.00 6764.52 82.00
4574 50.1200 6727.00 6742.78 82.00
4575 50.1300 6736.00 6723.66 82.00
4576 50.1400 6734.00 6707.52 82.00
4577 50.1500 6645.00 6694.60 82.00
4578 50.1600 6655.00 6685.14 82.00
4579 50.1700 6626.00 6679.20 81.00
4580 50.1800 6653.00 6676.84 82.00
4581 50.1900 6686.00 6678.03 82.00
4582 50.2000 6725.00 6682.72 82.00
4583 50.2100 6680.00 6690.80 82.00
4584 50.2200 6732.00 6702.14 82.00
4585 50.2300 6693.00 6716.45 82.00
4586 50.2400 6751.00 6733.66 82.00
4587 50.2500 6802.00 6753.30 82.00
4588 50.2600 6799.00 6774.85 82.00
4589 50.2700 6776.00 6797.62 82.00
4590 50.2800 6861.00 6820.73 83.00
4591 50.2900 6870.00 6842.99 83.00
4592 50.3000 6870.00 6863.37 83.00
4593 50.3100 6923.00 6880.59 83.00
4594 50.3200 6923.00 6893.56 83.00
4595 50.3300 6893.00 6901.67 83.00
4596 50.3400 6921.00 6904.67 83.00
4597 50.3500 6902.00 6902.84 83.00
4598 50.3600 6891.00 6896.92 83.00
4599 50.3700 6908.00 6887.90 83.00
4600 50.3800 6864.00 6876.87 83.00
4601 50.3900 6847.00 6865.13 83.00
4602 50.4000 6787.00 6853.33 82.00
4603 50.4100 6797.00 6843.21 82.00
4604 50.4200 6775.00 6835.27 82.00
4605 50.4300 6867.00 6830.11 83.00
4606 50.4400 6870.00 6828.21 83.00
4607 50.4500 6831.00 6829.93 83.00
4608 50.4600 6818.00 6835.47 83.00
4609 50.4700 6836.00 6844.89 83.00
4610 50.4800 6931.00 6858.15 83.00
4611 50.4900 6950.00 6875.06 83.00
4612 50.5000 6949.00 6895.33 83.00
4613 50.5100 6915.00 6918.60 83.00
4614 50.5200 7007.00 6944.56 84.00
4615 50.5300 6978.00 6973.09 84.00
4616 50.5400 7023.00 7004.23 84.00
4617 50.5500 7087.00 7038.27 84.00
4618 50.5600 7144.00 7075.53 85.00
4619 50.5700 7110.00 7116.36 84.00
4620 50.5800 7189.00 7161.06 85.00
4621 50.5900 7264.00 7209.74 85.00
4622 50.6000 7294.00 7262.33 85.00
4623 50.6100 7367.00 7318.71 86.00
4624 50.6200 7469.00 7378.55 86.00
4625 50.6300 7471.00 7441.31 86.00
4626 50.6400 7587.00 7506.25 87.00
4627 50.6500 7596.00 7572.57 87.00
4628 50.6600 7705.00 7639.07 88.00
4629 50.6700 7715.00 7704.39 88.00
4630 50.6800 7763.00 7767.26 88.00
4631 50.6900 7809.00 7826.45 88.00
4632 50.7000 7854.00 7880.87 89.00
4633 50.7100 7870.00 7929.68 89.00
4634 50.7200 7917.00 7971.92 89.00
4635 50.7300 8018.00 8006.23 90.00
4636 50.7400 7994.00 8030.59 89.00
4637 50.7500 7926.00 8043.19 89.00
4638 50.7600 7941.00 8042.20 89.00
4639 50.7700 7891.00 8026.98 89.00
4640 50.7800 7871.00 7998.25 89.00
4641 50.7900 7886.00 7958.59 89.00
4642 50.8000 7799.00 7910.99 88.00
4643 50.8100 7714.00 7859.32 88.00
4644 50.8200 7695.00 7806.85 88.00
4645 50.8300 7603.00 7756.56 87.00
4646 50.8400 7547.00 7710.64 87.00
4647 50.8500 7567.00 7670.84 87.00
4648 50.8600 7540.00 7638.31 87.00
4649 50.8700 7496.00 7613.91 87.00
4650 50.8800 7501.00 7597.93 87.00
4651 50.8900 7511.00 7590.28 87.00
4652 50.9000 7494.00 7590.57 87.00
4653 50.9100 7574.00 7597.91 87.00
4654 50.9200 7592.00 7610.90 87.00
4655 50.9300 7528.00 7627.56 87.00
4656 50.9400 7606.00 7645.25 87.00
4657 50.9500 7555.00 7660.83 87.00
4658 50.9600 7600.00 7671.04 87.00
4659 50.9700 7646.00 7673.41 87.00
4660 50.9800 7638.00 7667.04 87.00
4661 50.9900 7545.00 7652.84 87.00
4662 51.0000 7550.00 7634.43 87.00
4663 51.0100 7525.00 7611.61 87.00
4664 51.0200 7543.00 7588.03 87.00
4665 51.0300 7527.00 7565.45 87.00
4666 51.0400 7510.00 7545.06 87.00
4667 51.0500 7453.00 7527.62 86.00
4668 51.0600 7415.00 7513.29 86.00
4669 51.0700 7385.00 7502.92 86.00
4670 51.0800 7457.00 7496.29 86.00
4671 51.0900 7533.00 7493.33 87.00
4672 51.1000 7483.00 7494.01 87.00
4673 51.1100 7423.00 7499.27 86.00
4674 51.1200 7441.00 7506.47 86.00
4675 51.1300 7413.00 7516.56 86.00
4676 51.1400 7466.00 7529.27 86.00
4677 51.1500 7544.00 7544.32 87.00
4678 51.1600 7569.00 7561.39 87.00
4679 51.1700 7491.00 7580.07 87.00
4680 51.1800 7519.00 7600.01 87.00
4681 51.1900 7539.00 7620.60 87.00
4682 51.2000 7602.00 7641.04 87.00
4683 51.2100 7618.00 7660.55 87.00
4684 51.2200 7639.00 7678.24 87.00
4685 51.2300 7600.00 7693.52 87.00
4686 51.2400 7608.00 7706.02 87.00
4687 51.2500 7564.00 7715.81 87.00
4688 51.2600 7573.00 7723.26 87.00
4689 51.2700 7627.00 7728.80 87.00
4690 51.2800 7611.00 7732.61 87.00
4691 51.2900 7595.00 7734.69 87.00
4692 51.3000 7570.00 7734.51 87.00
4693 51.3100 7586.00 7731.32 87.00
4694 51.3200 7607.00 7724.15 87.00
4695 51.3300 7627.00 7712.14 87.00
4696 51.3400 7562.00 7694.61 87.00
4697 51.3500 7518.00 7671.26 87.00
4698 51.3600 7470.00 7642.40 86.00
4699 51.3700 7423.00 7608.71 86.00
4700 51.3800 7446.00 7571.49 86.00
4701 51.3900 7428.00 7532.36 86.00
4702 51.4000 7380.00 7493.07 86.00
4703 51.4100 7283.00 7455.24 85.00
4704 51.4200 7287.00 7420.32 85.00
4705 51.4300 7262.00 7389.36 85.00
4706 51.4400 7251.00 7363.02 85.00
4707 51.4500 7251.00 7341.74 85.00
4708 51.4600 7243.00 7325.58 85.00
4709 51.4700 7168.00 7314.43 85.00
4710 51.4800 7199.00 7307.94 85.00
4711 51.4900 7211.00 7305.64 85.00
4712 51.5000 7209.00 7307.01 85.00
4713 51.5100 7276.00 7311.50 85.00
4714 51.5200 7274.00 7318.73 85.00
4715 51.5300 7253.00 7328.44 85.00
4716 51.5400 7294.00 7340.61 85.00
4717 51.5500 7259.00 7355.44 85.00
4718 51.5600 7300.00 7373.24 85.00
4719 51.5700 7346.00 7394.35 86.00
4720 51.5800 7347.00 7419.03 86.00
4721 51.5900 7334.00 7447.42 86.00
4722 51.6000 7379.00 7479.35 86.00
4723 51.6100 7448.00 7514.46 86.00
4724 51.6200 7445.00 7551.89 86.00
4725 51.6300 7626.00 7590.80 87.00
4726 51.6400 7571.00 7629.63 87.00
4727 51.6500 7627.00 7666.58 87.00
4728 51.6600 7665.00 7699.59 88.00
4729 51.6700 7709.00 7726.54 88.00
4730 51.6800 7715.00 7745.44 88.00
4731 51.6900 7750.00 7754.68 88.00
4732 51.7000 7744.00 7753.35 88.00
4733 51.7100 7650.00 7741.26 87.00
4734 51.7200 7611.00 7718.97 87.00
4735 51.7300 7587.00 7687.64 87.00
4736 51.7400 7548.00 7648.90 87.00
4737 51.7500 7539.00 7604.45 87.00
4738 51.7600 7431.00 7556.03 86.00
4739 51.7700 7336.00 7505.42 86.00
4740 51.7800 7290.00 7453.84 85.00
4741 51.7900 7264.00 7402.34 85.00
4742 51.8000 7218.00 7351.51 85.00
4743 51.8100 7215.00 7302.18 85.00
4744 51.8200 7190.00 7254.34 85.00
4745 51.8300 7066.00 7208.50 84.00
4746 51.8400 7100.00 7164.90 84.00
4747 51.8500 7039.00 7123.88 84.00
4748 51.8600 7058.00 7086.14 84.00
4749 51.8700 7026.00 7051.58 84.00
4750 51.8800 7022.00 7020.95 84.00
4751 51.8900 6945.00 6994.59 83.00
4752 51.9000 6898.00 6972.69 83.00
4753 51.9100 6868.00 6955.29 83.00
4754 51.9200 6899.00 6942.49 83.00
4755 51.9300 6957.00 6934.03 83.00
4756 51.9400 6916.00 6929.66 83.00
4757 51.9500 6896.00 6929.01 83.00
4758 51.9600 6890.00 6931.56 83.00
4759 51.9700 6917.00 6936.67 83.00
4760 51.9800 6923.00 6943.59 83.00
4761 51.9900 6986.00 6951.41 84.00
4762 52.0000 7005.00 6959.19 84.00
4763 52.0100 6980.00 6966.08 84.00
4764 52.0200 6937.00 6971.33 83.00
4765 52.0300 6958.00 6974.51 83.00
4766 52.0400 6989.00 6975.52 84.00
4767 52.0500 7030.00 6974.59 84.00
4768 52.0600 6964.00 6972.14 83.00
4769 52.0700 6907.00 6968.76 83.00
4770 52.0800 6950.00 6965.01 83.00
4771 52.0900 6939.00 6961.66 83.00
4772 52.1000 6942.00 6960.28 83.00
4773 52.1100 6956.00 6959.18 83.00
4774 52.1200 6922.00 6959.91 83.00
4775 52.1300 6873.00 6962.91 83.00
4776 52.1400 6889.00 6968.54 83.00
4777 52.1500 6930.00 6977.15 83.00
4778 52.1600 6933.00 6989.07 83.00
4779 52.1700 7010.00 7004.50 84.00
4780 52.1800 6996.00 7023.65 84.00
4781 52.1900 6983.00 7046.58 84.00
4782 52.2000 7036.00 7073.43 84.00
4783 52.2100 7051.00 7104.05 84.00
4784 52.2200 7096.00 7138.25 84.00
4785 52.2300 7239.00 7175.69 85.00
4786 52.2400 7204.00 7215.87 85.00
4787 52.2500 7229.00 7258.20 85.00
4788 52.2600 7271.00 7301.87 85.00
4789 52.2700 7303.00 7345.96 85.00
4790 52.2800 7395.00 7389.42 86.00
4791 52.2900 7418.00 7430.96 86.00
4792 52.3000 7460.00 7469.49 86.00
4793 52.3100 7416.00 7504.12 86.00
4794 52.3200 7525.00 7534.73 87.00
4795 52.3300 7495.00 7561.51 87.00
4796 52.3400 7547.00 7584.47 87.00
4797 52.3500 7591.00 7602.63 87.00
4798 52.3600 7546.00 7613.78 87.00
4799 52.3700 7488.00 7614.94 87.00
4800 52.3800 7482.00 7603.71 86.00
4801 52.3900 7438.00 7579.45 86.00
4802 52.4000 7472.00 7544.06 86.00
4803 52.4100 7461.00 7501.13 86.00
4804 52.4200 7403.00 7454.66 86.00
4805 52.4300 7323.00 7407.78 86.00
4806 52.4400 7289.00 7362.49 85.00
4807 52.4500 7238.00 7319.81 85.00
4808 52.4600 7207.00 7279.88 85.00
4809 52.4700 7242.00 7242.54 85.00
4810 52.4800 7190.00 7207.38 85.00
4811 52.4900 7097.00 7173.92 84.00
4812 52.5000 7093.00 7141.96 84.00
4813 52.5100 7045.00 7111.21 84.00
4814 52.5200 7008.00 7081.52 84.00
4815 52.5300 7033.00 7052.88 84.00
4816 52.5400 6997.00 7025.30 84.00
4817 52.5500 6905.00 6998.90 83.00
4818 52.5600 6927.00 6973.80 83.00
4819 52.5700 6889.00 6950.10 83.00
4820 52.5800 6882.00 6927.91 83.00
4821 52.5900 6907.00 6907.33 83.00
4822 52.6000 6848.00 6888.37 83.00
4823 52.6100 6822.00 6871.22 83.00
4824 52.6200 6791.00 6855.82 82.00
4825 52.6300 6737.00 6842.19 82.00
4826 52.6400 6775.00 6830.37 82.00
4827 52.6500 6757.00 6820.35 82.00
4828 52.6600 6766.00 6812.15 82.00
4829 52.6700 6728.00 6805.80 82.00
4830 52.6800 6743.00 6801.33 82.00
4831 52.6900 6743.00 6798.82 82.00
4832 52.7000 6756.00 6798.30 82.00
4833 52.7100 6763.00 6799.88 82.00
4834 52.7200 6732.00 6803.59 82.00
4835 52.7300 6720.00 6809.51 82.00
4836 52.7400 6775.00 6817.68 82.00
4837 52.7500 6741.00 6827.88 82.00
4838 52.7600 6808.00 6840.32 83.00
4839 52.7700 6819.00 6854.57 83.00
4840 52.7800 6903.00 6870.08 83.00
4841 52.7900 6857.00 6886.02 83.00
4842 52.8000 6908.00 6901.18 83.00
4843 52.8100 6898.00 6914.07 83.00
4844 52.8200 6900.00 6923.07 83.00
4845 52.8300 6963.00 6926.83 83.00
4846 52.8400 6921.00 6924.72 83.00
4847 52.8500 6872.00 6917.12 83.00
4848 52.8600 6895.00 6905.31 83.00
4849 52.8700 6852.00 6891.13 83.00
4850 52.8800 6868.00 6876.46 83.00
4851 52.8900 6864.00 6863.03 83.00
4852 52.9000 6784.00 6852.14 82.00
4853 52.9100 6791.00 6844.78 82.00
4854 52.9200 6817.00 6841.68 83.00
4855 52.9300 6803.00 6843.35 82.00
4856 52.9400 6787.00 6850.22 82.00
4857 52.9500 6854.00 6862.59 83.00
4858 52.9600 6867.00 6880.72 83.00
4859 52.9700 6888.00 6904.65 83.00
4860 52.9800 6897.00 6934.76 83.00
4861 52.9900 6978.00 6970.97 84.00
4862 53.0000 7007.00 7013.24 84.00
4863 53.0100 7093.00 7061.34 84.00
4864 53.0200 7115.00 7114.85 84.00
4865 53.0300 7129.00 7173.11 84.00
4866 53.0400 7221.00 7234.97 85.00
4867 53.0500 7257.00 7298.83 85.00
4868 53.0600 7343.00 7362.39 86.00
4869 53.0700 7421.00 7422.82 86.00
4870 53.0800 7457.00 7476.63 86.00
4871 53.0900 7456.00 7520.39 86.00
4872 53.1000 7519.00 7551.07 87.00
4873 53.1100 7476.00 7566.83 86.00
4874 53.1200 7534.00 7567.57 87.00
4875 53.1300 7503.00 7554.48 87.00
4876 53.1400 7511.00 7529.90 87.00
4877 53.1500 7421.00 7496.49 86.00
4878 53.1600 7349.00 7457.04 86.00
4879 53.1700 7306.00 7413.77 85.00
4880 53.1800 7285.00 7368.37 85.00
4881 53.1900 7268.00 7322.22 85.00
4882 53.2000 7227.00 7276.17 85.00
4883 53.2100 7126.00 7231.07 84.00
4884 53.2200 7070.00 7187.54 84.00
4885 53.2300 7010.00 7146.05 84.00
4886 53.2400 6995.00 7107.07 84.00
4887 53.2500 7001.00 7070.93 84.00
4888 53.2600 6982.00 7037.87 84.00
4889 53.2700 6904.00 7008.01 83.00
4890 53.2800 6895.00 6981.42 83.00
4891 53.2900 6870.00 6958.21 83.00
4892 53.3000 6896.00 6938.36 83.00
4893 53.3100 6918.00 6921.94 83.00
4894 53.3200 6869.00 6908.95 83.00
4895 53.3300 6792.00 6899.44 82.00
4896 53.3400 6799.00 6893.33 82.00
4897 53.3500 6840.00 6890.73 83.00
4898 53.3600 6826.00 6891.55 83.00
4899 53.3700 6871.00 6895.73 83.00
4900 53.3800 6927.00 6903.19 83.00
4901 53.3900 6820.00 6913.78 83.00
4902 53.4000 6865.00 6927.30 83.00
4903 53.4100 6830.00 6944.12 83.00
4904 53.4200 6900.00 6962.78 83.00
4905 53.4300 6948.00 6983.47 83.00
4906 53.4400 6972.00 7005.78 83.00
4907 53.4500 6991.00 7029.20 84.00
4908 53.4600 7046.00 7053.18 84.00
4909 53.4700 7017.00 7077.07 84.00
4910 53.4800 7111.00 7100.20 84.00
4911 53.4900 7117.00 7121.81 84.00
4912 53.5000 7147.00 7141.09 85.00
4913 53.5100 7091.00 7157.19 84.00
4914 53.5200 7113.00 7169.31 84.00
4915 53.5300 7134.00 7176.79 84.00
4916 53.5400 7189.00 7179.26 85.00
4917 53.5500 7164.00 7176.77 85.00
4918 53.5600 7117.00 7169.77 84.00
4919 53.5700 7061.00 7159.14 84.00
4920 53.5800 7077.00 7146.03 84.00
4921 53.5900 7018.00 7131.71 84.00
4922 53.6000 7056.00 7117.40 84.00
4923 53.6100 7026.00 7104.23 84.00
4924 53.6200 7016.00 7093.81 84.00
4925 53.6300 6984.00 7085.36 84.00
4926 53.6400 7006.00 7080.08 84.00
4927 53.6500 6993.00 7078.23 84.00
4928 53.6600 7071.00 7079.97 84.00
4929 53.6700 7039.00 7085.35 84.00
4930 53.6800 7118.00 7094.43 84.00
4931 53.6900 7080.00 7107.38 84.00
4932 53.7000 7104.00 7124.21 84.00
4933 53.7100 7140.00 7144.89 84.00
4934 53.7200 7144.00 7169.83 85.00
4935 53.7300 7225.00 7196.97 85.00
4936 53.7400 7207.00 7225.98 85.00
4937 53.7500 7237.00 7255.36 85.00
4938 53.7600 7248.00 7283.22 85.00
4939 53.7700 7227.00 7307.37 85.00
4940 53.7800 7260.00 7326.05 85.00
4941 53.7900 7337.00 7338.05 86.00
4942 53.8000 7301.00 7343.33 85.00
4943 53.8100 7318.00 7343.01 86.00
4944 53.8200 7279.00 7338.85 85.00
4945 53.8300 7238.00 7332.84 85.00
4946 53.8400 7245.00 7326.65 85.00
4947 53.8500 7340.00 7321.32 86.00
4948 53.8600 7310.00 7317.44 85.00
4949 53.8700 7237.00 7314.91 85.00
4950 53.8800 7263.00 7313.40 85.00
4951 53.8900 7243.00 7312.34 85.00
4952 53.9000 7279.00 7311.20 85.00
4953 53.9100 7320.00 7309.57 86.00
4954 53.9200 7311.00 7307.19 86.00
4955 53.9300 7254.00 7303.96 85.00
4956 53.9400 7293.00 7299.87 85.00
4957 53.9500 7247.00 7294.94 85.00
4958 53.9600 7273.00 7289.18 85.00
4959 53.9700 7314.00 7282.71 86.00
4960 53.9800 7256.00 7275.63 85.00
4961 53.9900 7176.00 7268.10 85.00
4962 54.0000 7220.00 7260.37 85.00
4963 54.0100 7196.00 7252.74 85.00
4964 54.0200 7201.00 7245.49 85.00
4965 54.0300 7236.00 7239.08 85.00
4966 54.0400 7222.00 7233.94 85.00
4967 54.0500 7215.00 7230.34 85.00
4968 54.0600 7180.00 7228.56 85.00
4969 54.0700 7177.00 7228.81 85.00
4970 54.0800 7197.00 7231.29 85.00
4971 54.0900 7243.00 7236.04 85.00
4972 54.1000 7240.00 7243.05 85.00
4973 54.1100 7201.00 7252.13 85.00
4974 54.1200 7264.00 7263.04 85.00
4975 54.1300 7265.00 7275.23 85.00
4976 54.1400 7277.00 7288.01 85.00
4977 54.1500 7365.00 7300.48 86.00
4978 54.1600 7300.00 7311.46 85.00
4979 54.1700 7277.00 7319.67 85.00
4980 54.1800 7294.00 7323.98 85.00
4981 54.1900 7265.00 7323.66 85.00
4982 54.2000 7285.00 7318.66 85.00
4983 54.2100 7334.00 7309.61 86.00
4984 54.2200 7297.00 7297.61 85.00
4985 54.2300 7231.00 7283.85 85.00
4986 54.2400 7216.00 7269.33 85.00
4987 54.2500 7152.00 7254.74 85.00
4988 54.2600 7157.00 7240.58 85.00
4989 54.2700 7187.00 7227.05 85.00
4990 54.2800 7130.00 7214.24 84.00
4991 54.2900 7094.00 7202.22 84.00
4992 54.3000 7097.00 7191.10 84.00
4993 54.3100 7073.00 7181.02 84.00
4994 54.3200 7073.00 7172.19 84.00
4995 54.3300 7104.00 7164.86 84.00
4996 54.3400 7121.00 7159.21 84.00
4997 54.3500 7075.00 7155.33 84.00
4998 54.3600 7084.00 7153.14 84.00
4999 54.3700 7046.00 7152.33 84.00
5000 54.3800 7067.00 7152.40 84.00
5001 54.3900 7131.00 7152.73 84.00
5002 54.4000 7156.00 7152.66 85.00
5003 54.4100 7082.00 7151.73 84.00
5004 54.4200 7091.00 7149.68 84.00
5005 54.4300 7122.00 7146.45 84.00
5006 54.4400 7123.00 7142.05 84.00
5007 54.4500 7136.00 7136.85 84.00
5008 54.4600 7160.00 7129.90 85.00
5009 54.4700 7132.00 7121.47 84.00
5010 54.4800 7118.00 7111.30 84.00
5011 54.4900 7116.00 7099.69 84.00
5012 54.5000 7131.00 7086.62 84.00
5013 54.5100 7142.00 7072.33 85.00
5014 54.5200 7107.00 7057.16 84.00
5015 54.5300 7026.00 7041.46 84.00
5016 54.5400 7073.00 7025.58 84.00
5017 54.5500 6973.00 7009.93 84.00
5018 54.5600 7022.00 6994.83 84.00
5019 54.5700 7011.00 6980.57 84.00
5020 54.5800 6994.00 6967.38 84.00
5021 54.5900 6933.00 6955.51 83.00
5022 54.6000 6940.00 6945.12 83.00
5023 54.6100 6922.00 6936.40 83.00
5024 54.6200 6934.00 6929.42 83.00
5025 54.6300 6969.00 6924.29 83.00
5026 54.6400 6931.00 6921.04 83.00
5027 54.6500 6914.00 6919.67 83.00
5028 54.6600 6911.00 6920.09 83.00
5029 54.6700 6912.00 6922.99 83.00
5030 54.6800 6935.00 6926.51 83.00
5031 54.6900 6992.00 6931.13 84.00
5032 54.7000 6974.00 6936.41 84.00
5033 54.7100 6940.00 6941.75 83.00
5034 54.7200 6979.00 6946.46 84.00
5035 54.7300 6947.00 6949.78 83.00
5036 54.7400 6980.00 6950.96 84.00
5037 54.7500 6985.00 6949.39 84.00
5038 54.7600 6983.00 6944.71 84.00
5039 54.7700 6930.00 6936.92 83.00
5040 54.7800 6924.00 6926.36 83.00
5041 54.7900 6861.00 6913.71 83.00
5042 54.8000 6899.00 6899.79 83.00
5043 54.8100 6960.00 6885.53 83.00
5044 54.8200 6907.00 6871.73 83.00
5045 54.8300 6810.00 6859.19 83.00
5046 54.8400 6832.00 6848.46 83.00
5047 54.8500 6800.00 6839.96 82.00
5048 54.8600 6866.00 6834.08 83.00
5049 54.8700 6887.00 6830.97 83.00
5050 54.8800 6860.00 6830.78 83.00
5051 54.8900 6785.00 6833.53 82.00
5052 54.9000 6849.00 6839.17 83.00
5053 54.9100 6851.00 6847.59 83.00
5054 54.9200 6917.00 6858.65 83.00
5055 54.9300 6942.00 6872.14 83.00
5056 54.9400 6967.00 6887.86 83.00
5057 54.9500 6949.00 6905.64 83.00
5058 54.9600 7005.00 6925.35 84.00
5059 54.9700 7012.00 6947.02 84.00
5060 54.9800 7047.00 6970.78 84.00
5061 54.9900 7092.00 6996.90 84.00
5062 55.0000 7118.00 7025.77 84.00
5063 55.0100 7079.00 7057.85 84.00
5064 55.0200 7153.00 7093.55 85.00
5065 55.0300 7171.00 7133.13 85.00
5066 55.0400 7217.00 7176.33 85.00
5067 55.0500 7307.00 7222.23 85.00
5068 55.0600 7316.00 7268.57 86.00
5069 55.0700 7309.00 7311.79 85.00
5070 55.0800 7306.00 7347.12 85.00
5071 55.0900 7315.00 7370.19 86.00
5072 55.1000 7333.00 7378.80 86.00
5073 55.1100 7405.00 7374.20 86.00
5074 55.1200 7361.00 7360.52 86.00
5075 55.1300 7308.00 7342.94 85.00
5076 55.1400 7334.00 7326.01 86.00
5077 55.1500 7309.00 7312.91 85.00
5078 55.1600 7342.00 7305.47 86.00
5079 55.1700 7380.00 7304.53 86.00
5080 55.1800 7382.00 7310.44 86.00
5081 55.1900 7328.00 7322.98 86.00
5082 55.2000 7350.00 7341.79 86.00
5083 55.2100 7384.00 7366.25 86.00
5084 55.2200 7461.00 7395.70 86.00
5085 55.2300 7550.00 7429.18 87.00
5086 55.2400 7565.00 7465.67 87.00
5087 55.2500 7537.00 7503.93 87.00
5088 55.2600 7643.00 7542.60 87.00
5089 55.2700 7668.00 7580.24 88.00
5090 55.2800 7704.00 7615.53 88.00
5091 55.2900 7743.00 7647.17 88.00
5092 55.3000 7717.00 7674.22 88.00
5093 55.3100 7725.00 7696.03 88.00
5094 55.3200 7730.00 7712.30 88.00
5095 55.3300 7676.00 7722.99 88.00
5096 55.3400 7757.00 7728.26 88.00
5097 55.3500 7733.00 7728.40 88.00
5098 55.3600 7665.00 7723.76 88.00
5099 55.3700 7570.00 7714.74 87.00
5100 55.3800 7624.00 7701.80 87.00
5101 55.3900 7567.00 7685.37 87.00
5102 55.4000 7543.00 7665.99 87.00
5103 55.4100 7593.00 7644.14 87.00
5104 55.4200 7526.00 7620.37 87.00
5105 55.4300 7451.00 7595.24 86.00
5106 55.4400 7447.00 7569.29 86.00
5107 55.4500 7400.00 7543.08 86.00
5108 55.4600 7441.00 7517.10 86.00
5109 55.4700 7426.00 7491.76 86.00
5110 55.4800 7374.00 7467.42 86.00
5111 55.4900 7330.00 7444.34 86.00
5112 55.5000 7331.00 7422.63 86.00
5113 55.5100 7307.00 7402.49 85.00
5114 55.5200 7275.00 7383.90 85.00
5115 55.5300 7350.00 7366.84 86.00
5116 55.5400 7324.00 7351.22 86.00
5117 55.5500 7282.00 7336.94 85.00
5118 55.5600 7268.00 7323.82 85.00
5119 55.5700 7272.00 7311.69 85.00
5120 55.5800 7299.00 7300.35 85.00
5121 55.5900 7321.00 7289.59 86.00
5122 55.6000 7323.00 7279.31 86.00
5123 55.6100 7249.00 7269.51 85.00
5124 55.6200 7241.00 7260.29 85.00
5125 55.6300 7195.00 7252.01 85.00
5126 55.6400 7223.00 7244.95 85.00
5127 55.6500 7272.00 7239.32 85.00
5128 55.6600 7274.00 7235.26 85.00
5129 55.6700 7186.00 7232.77 85.00
5130 55.6800 7242.00 7231.71 85.00
5131 55.6900 7219.00 7231.88 85.00
5132 55.7000 7252.00 7233.05 85.00
5133 55.7100 7246.00 7234.99 85.00
5134 55.7200 7283.00 7237.52 85.00
5135 55.7300 7196.00 7240.66 85.00
5136 55.7400 7251.00 7244.66 85.00
5137 55.7500 7195.00 7249.85 85.00
5138 55.7600 7263.00 7256.68 85.00
5139 55.7700 7272.00 7265.64 85.00
5140 55.7800 7271.00 7277.19 85.00
5141 55.7900 7288.00 7291.60 85.00
5142 55.8000 7293.00 7308.97 85.00
5143 55.8100 7337.00 7329.17 86.00
5144 55.8200 7339.00 7351.79 86.00
5145 55.8300 7407.00 7376.14 86.00
5146 55.8400 7405.00 7401.24 86.00
5147 55.8500 7425.00 7425.86 86.00
5148 55.8600 7414.00 7448.58 86.00
5149 55.8700 7432.00 7468.00 86.00
5150 55.8800 7491.00 7482.86 87.00
5151 55.8900 7533.00 7492.29 87.00
5152 55.9000 7486.00 7495.90 87.00
5153 55.9100 7414.00 7493.67 86.00
5154 55.9200 7457.00 7485.78 86.00
5155 55.9300 7436.00 7472.81 86.00
5156 55.9400 7470.00 7455.04 86.00
5157 55.9500 7465.00 7432.91 86.00
5158 55.9600 7438.00 7407.10 86.00
5159 55.9700 7346.00 7378.44 86.00
5160 55.9800 7312.00 7347.96 86.00
5161 55.9900 7260.00 7316.83 85.00
5162 56.0000 7248.00 7286.17 85.00
5163 56.0100 7279.00 7257.05 85.00
5164 56.0200 7234.00 7230.34 85.00
5165 56.0300 7148.00 7206.66 85.00
5166 56.0400 7215.00 7186.42 85.00
5167 56.0500 7162.00 7169.87 85.00
5168 56.0600 7184.00 7157.02 85.00
5169 56.0700 7220.00 7147.77 85.00
5170 56.0800 7201.00 7141.91 85.00
5171 56.0900 7153.00 7139.07 85.00
5172 56.1000 7160.00 7138.80 85.00
5173 56.1100 7158.00 7140.61 85.00
5174 56.1200 7247.00 7143.96 85.00
5175 56.1300 7287.00 7148.32 85.00
5176 56.1400 7216.00 7153.17 85.00
5177 56.1500 7129.00 7158.03 84.00
5178 56.1600 7204.00 7162.52 85.00
5179 56.1700 7169.00 7166.38 85.00
5180 56.1800 7210.00 7169.52 85.00
5181 56.1900 7247.00 7172.02 85.00
5182 56.2000 7262.00 7174.07 85.00
5183 56.2100 7241.00 7175.98 85.00
5184 56.2200 7223.00 7178.05 85.00
5185 56.2300 7252.00 7180.59 85.00
5186 56.2400 7267.00 7183.75 85.00
5187 56.2500 7274.00 7187.63 85.00
5188 56.2600 7235.00 7192.11 85.00
5189 56.2700 7203.00 7197.07 85.00
5190 56.2800 7260.00 7202.62 85.00
5191 56.2900 7281.00 7207.44 85.00
5192 56.3000 7283.00 7211.42 85.00
5193 56.3100 7286.00 7213.96 85.00
5194 56.3200 7290.00 7214.42 85.00
5195 56.3300 7243.00 7212.09 85.00
5196 56.3400 7239.00 7206.65 85.00
5197 56.3500 7219.00 7198.46 85.00
5198 56.3600 7215.00 7185.71 85.00
5199 56.3700 7227.00 7169.25 85.00
5200 56.3800 7196.00 7149.34 85.00
5201 56.3900 7104.00 7126.69 84.00
5202 56.4000 7130.00 7101.99 84.00
5203 56.4100 7074.00 7076.12 84.00
5204 56.4200 7060.00 7050.05 84.00
5205 56.4300 7082.00 7024.63 84.00
5206 56.4400 7051.00 7000.61 84.00
5207 56.4500 6972.00 6978.44 83.00
5208 56.4600 6984.00 6958.19 84.00
5209 56.4700 6950.00 6939.78 83.00
5210 56.4800 6959.00 6922.80 83.00
5211 56.4900 6943.00 6906.71 83.00
5212 56.5000 6975.00 6890.91 84.00
5213 56.5100 6912.00 6874.93 83.00
5214 56.5200 6945.00 6858.46 83.00
5215 56.5300 6867.00 6841.44 83.00
5216 56.5400 6914.00 6824.08 83.00
5217 56.5500 6955.00 6806.75 83.00
5218 56.5600 6901.00 6789.98 83.00
5219 56.5700 6832.00 6774.13 83.00
5220 56.5800 6863.00 6759.58 83.00
5221 56.5900 6803.00 6746.56 82.00
5222 56.6000 6809.00 6735.19 83.00
5223 56.6100 6866.00 6725.68 83.00
5224 56.6200 6828.00 6717.97 83.00
5225 56.6300 6764.00 6712.06 82.00
5226 56.6400 6775.00 6707.92 82.00
5227 56.6500 6767.00 6705.50 82.00
5228 56.6600 6796.00 6704.77 82.00
5229 56.6700 6830.00 6705.70 83.00
5230 56.6800 6820.00 6708.27 83.00
5231 56.6900 6750.00 6712.53 82.00
5232 56.7000 6790.00 6718.50 82.00
5233 56.7100 6776.00 6726.24 82.00
5234 56.7200 6777.00 6735.83 82.00
5235 56.7300 6854.00 6747.37 83.00
5236 56.7400 6850.00 6760.97 83.00
5237 56.7500 6805.00 6776.74 82.00
5238 56.7600 6833.00 6794.85 83.00
5239 56.7700 6858.00 6815.43 83.00
5240 56.7800 6926.00 6838.66 83.00
5241 56.7900 7025.00 6864.71 84.00
5242 56.8000 7017.00 6893.75 84.00
5243 56.8100 7006.00 6926.00 84.00
5244 56.8200 7059.00 6961.58 84.00
5245 56.8300 7093.00 7000.55 84.00
5246 56.8400 7153.00 7042.81 85.00
5247 56.8500 7190.00 7087.98 85.00
5248 56.8600 7231.00 7135.38 85.00
5249 56.8700 7180.00 7183.68 85.00
5250 56.8800 7270.00 7230.88 85.00
5251 56.8900 7270.00 7274.40 85.00
5252 56.9000 7375.00 7311.51 86.00
5253 56.9100 7388.00 7340.12 86.00
5254 56.9200 7404.00 7359.48 86.00
5255 56.9300 7359.00 7370.56 86.00
5256 56.9400 7401.00 7375.60 86.00
5257 56.9500 7367.00 7377.38 86.00
5258 56.9600 7380.00 7378.47 86.00
5259 56.9700 7471.00 7380.91 86.00
5260 56.9800 7443.00 7386.09 86.00
5261 56.9900 7449.00 7394.93 86.00
5262 57.0000 7441.00 7407.98 86.00
5263 57.0100 7462.00 7425.61 86.00
5264 57.0200 7493.00 7448.02 87.00
5265 57.0300 7573.00 7475.21 87.00
5266 57.0400 7548.00 7506.88 87.00
5267 57.0500 7554.00 7542.40 87.00
5268 57.0600 7621.00 7580.55 87.00
5269 57.0700 7635.00 7619.86 87.00
5270 57.0800 7715.00 7657.02 88.00
5271 57.0900 7816.00 7689.18 88.00
5272 57.1000 7776.00 7712.81 88.00
5273 57.1100 7746.00 7724.89 88.00
5274 57.1200 7782.00 7723.35 88.00
5275 57.1300 7740.00 7707.89 88.00
5276 57.1400 7733.00 7679.97 88.00
5277 57.1500 7723.00 7642.45 88.00
5278 57.1600 7595.00 7598.67 87.00
5279 57.1700 7538.00 7551.97 87.00
5280 57.1800 7500.00 7505.00 87.00
5281 57.1900 7436.00 7459.79 86.00
5282 57.2000 7456.00 7417.79 86.00
5283 57.2100 7460.00 7379.80 86.00
5284 57.2200 7410.00 7346.42 86.00
5285 57.2300 7318.00 7317.88 86.00
5286 57.2400 7393.00 7294.30 86.00
5287 57.2500 7274.00 7275.61 85.00
5288 57.2600 7339.00 7261.66 86.00
5289 57.2700 7361.00 7252.84 86.00
5290 57.2800 7382.00 7247.54 86.00
5291 57.2900 7316.00 7245.93 86.00
5292 57.3000 7380.00 7247.49 86.00
5293 57.3100 7293.00 7251.63 85.00
5294 57.3200 7357.00 7257.67 86.00
5295 57.3300 7442.00 7264.92 86.00
5296 57.3400 7427.00 7272.71 86.00
5297 57.3500 7339.00 7280.44 86.00
5298 57.3600 7361.00 7287.64 86.00
5299 57.3700 7371.00 7293.97 86.00
5300 57.3800 7404.00 7299.29 86.00
5301 57.3900 7391.00 7303.61 86.00
5302 57.4000 7419.00 7307.09 86.00
5303 57.4100 7361.00 7309.96 86.00
5304 57.4200 7347.00 7312.49 86.00
5305 57.4300 7365.00 7314.88 86.00
5306 57.4400 7387.00 7317.40 86.00
5307 57.4500 7391.00 7320.02 86.00
5308 57.4600 7364.00 7322.58 86.00
5309 57.4700 7312.00 7324.73 86.00
5310 57.4800 7335.00 7325.97 86.00
5311 57.4900 7369.00 7325.77 86.00
5312 57.5000 7325.00 7323.75 86.00
5313 57.5100 7385.00 7319.84 86.00
5314 57.5200 7324.00 7314.02 86.00
5315 57.5300 7281.00 7306.31 85.00
5316 57.5400 7271.00 7296.70 85.00
5317 57.5500 7244.00 7285.15 85.00
5318 57.5600 7269.00 7271.63 85.00
5319 57.5700 7310.00 7255.99 85.00
5320 57.5800 7269.00 7238.13 85.00
5321 57.5900 7193.00 7217.97 85.00
5322 57.6000 7195.00 7195.56 85.00
5323 57.6100 7138.00 7170.98 84.00
5324 57.6200 7199.00 7144.49 85.00
5325 57.6300 7191.00 7116.62 85.00
5326 57.6400 7096.00 7087.95 84.00
5327 57.6500 7045.00 7059.23 84.00
5328 57.6600 7053.00 7031.21 84.00
5329 57.6700 6980.00 7004.67 84.00
5330 57.6800 7017.00 6980.30 84.00
5331 57.6900 7020.00 6958.71 84.00
5332 57.7000 7026.00 6940.44 84.00
5333 57.7100 6911.00 6925.92 83.00
5334 57.7200 6969.00 6915.50 83.00
5335 57.7300 6933.00 6909.43 83.00
5336 57.7400 6976.00 6907.92 84.00
5337 57.7500 6951.00 6911.09 83.00
5338 57.7600 6995.00 6918.98 84.00
5339 57.7700 6969.00 6931.53 83.00
5340 57.7800 7040.00 6948.52 84.00
5341 57.7900 7036.00 6969.69 84.00
5342 57.8000 7052.00 6994.49 84.00
5343 57.8100 7164.00 7022.24 85.00
5344 57.8200 7198.00 7052.07 85.00
5345 57.8300 7163.00 7082.81 85.00
5346 57.8400 7176.00 7113.40 85.00
5347 57.8500 7221.00 7142.61 85.00
5348 57.8600 7262.00 7169.33 85.00
5349 57.8700 7301.00 7192.79 85.00
5350 57.8800 7300.00 7212.22 85.00
5351 57.8900 7254.00 7227.25 85.00
5352 57.9000 7278.00 7237.76 85.00
5353 57.9100 7226.00 7243.99 85.00
5354 57.9200 7221.00 7246.51 85.00
5355 57.9300 7298.00 7246.09 85.00
5356 57.9400 7297.00 7243.49 85.00
5357 57.9500 7235.00 7239.12 85.00
5358 57.9600 7214.00 7232.88 85.00
5359 57.9700 7230.00 7224.16 85.00
5360 57.9800 7181.00 7212.17 85.00
5361 57.9900 7248.00 7196.48 85.00
5362 58.0000 7160.00 7177.45 85.00
5363 58.0100 7114.00 7156.21 84.00
5364 58.0200 7150.00 7134.26 85.00
5365 58.0300 7097.00 7112.95 84.00
5366 58.0400 7136.00 7093.36 84.00
5367 58.0500 7181.00 7075.94 85.00
5368 58.0600 7106.00 7060.76 84.00
5369 58.0700 7057.00 7047.48 84.00
5370 58.0800 7069.00 7035.80 84.00
5371 58.0900 7072.00 7025.15 84.00
5372 58.1000 7054.00 7015.00 84.00
5373 58.1100 7036.00 7004.88 84.00
5374 58.1200 7040.00 6994.43 84.00
5375 58.1300 6980.00 6983.43 84.00
5376 58.1400 7003.00 6971.76 84.00
5377 58.1500 6973.00 6959.44 84.00
5378 58.1600 6943.00 6946.53 83.00
5379 58.1700 6938.00 6933.22 83.00
5380 58.1800 6920.00 6919.50 83.00
5381 58.1900 6902.00 6905.69 83.00
5382 58.2000 6888.00 6891.81 83.00
5383 58.2100 6830.00 6877.80 83.00
5384 58.2200 6919.00 6863.81 83.00
5385 58.2300 6924.00 6849.83 83.00
5386 58.2400 6909.00 6835.96 83.00
5387 58.2500 6806.00 6822.32 82.00
5388 58.2600 6806.00 6809.23 82.00
5389 58.2700 6756.00 6796.94 82.00
5390 58.2800 6755.00 6785.68 82.00
5391 58.2900 6813.00 6775.75 83.00
5392 58.3000 6772.00 6767.32 82.00
5393 58.3100 6729.00 6760.54 82.00
5394 58.3200 6736.00 6755.50 82.00
5395 58.3300 6768.00 6752.23 82.00
5396 58.3400 6762.00 6750.71 82.00
5397 58.3500 6866.00 6750.83 83.00
5398 58.3600 6854.00 6752.39 83.00
5399 58.3700 6787.00 6755.09 82.00
5400 58.3800 6807.00 6758.38 83.00
5401 58.3900 6751.00 6761.66 82.00
5402 58.4000 6784.00 6764.19 82.00
5403 58.4100 6833.00 6765.35 83.00
5404 58.4200 6765.00 6764.82 82.00
5405 58.4300 6785.00 6762.61 82.00
5406 58.4400 6782.00 6758.97 82.00
5407 58.4500 6784.00 6754.32 82.00
5408 58.4600 6811.00 6749.05 83.00
5409 58.4700 6833.00 6743.42 83.00
5410 58.4800 6818.00 6737.59 83.00
5411 58.4900 6768.00 6731.66 82.00
5412 58.5000 6732.00 6725.65 82.00
5413 58.5100 6738.00 6719.60 82.00
5414 58.5200 6768.00 6713.59 82.00
5415 58.5300 6754.00 6707.63 82.00
5416 58.5400 6811.00 6701.84 83.00
5417 58.5500 6736.00 6696.27 82.00
5418 58.5600 6758.00 6690.99 82.00
5419 58.5700 6734.00 6686.08 82.00
5420 58.5800 6737.00 6681.59 82.00
5421 58.5900 6780.00 6677.60 82.00
5422 58.6000 6767.00 6674.14 82.00
5423 58.6100 6722.00 6671.25 82.00
5424 58.6200 6746.00 6668.96 82.00
5425 58.6300 6709.00 6667.28 82.00
5426 58.6400 6672.00 6666.23 82.00
5427 58.6500 6718.00 6665.83 82.00
5428 58.6600 6704.00 6666.08 82.00
5429 58.6700 6698.00 6666.98 82.00
5430 58.6800 6722.00 6668.57 82.00
5431 58.6900 6676.00 6670.83 82.00
5432 58.7000 6721.00 6673.81 82.00
5433 58.7100 6808.00 6677.53 83.00
5434 58.7200 6772.00 6682.05 82.00
5435 58.7300 6738.00 6687.43 82.00
5436 58.7400 6738.00 6693.76 82.00
5437 58.7500 6742.00 6701.15 82.00
5438 58.7600 6764.00 6709.69 82.00
5439 58.7700 6816.00 6719.49 83.00
5440 58.7800 6798.00 6731.20 82.00
5441 58.7900 6741.00 6743.76 82.00
5442 58.8000 6752.00 6757.76 82.00
5443 58.8100 6787.00 6773.21 82.00
5444 58.8200 6836.00 6790.01 83.00
5445 58.8300 6928.00 6808.05 83.00
5446 58.8400 6892.00 6827.09 83.00
5447 58.8500 6875.00 6846.76 83.00
5448 58.8600 6903.00 6866.68 83.00
5449 58.8700 6919.00 6886.29 83.00
5450 58.8800 6935.00 6905.03 83.00
5451 58.8900 6934.00 6922.29 83.00
5452 58.9000 7012.00 6937.54 84.00
5453 58.9100 6953.00 6950.26 83.00
5454 58.9200 6974.00 6960.16 84.00
5455 58.9300 6970.00 6967.00 83.00
5456 58.9400 6965.00 6970.61 83.00
5457 58.9500 7016.00 6971.01 84.00
5458 58.9600 6975.00 6968.50 84.00
5459 58.9700 6919.00 6962.48 83.00
5460 58.9800 6954.00 6953.28 83.00
5461 58.9900 6921.00 6941.25 83.00
5462 59.0000 6888.00 6926.62 83.00
5463 59.0100 6921.00 6909.78 83.00
5464 59.0200 6871.00 6891.79 83.00
5465 59.0300 6834.00 6872.09 83.00
5466 59.0400 6799.00 6851.82 82.00
5467 59.0500 6769.00 6831.56 82.00
5468 59.0600 6734.00 6811.80 82.00
5469 59.0700 6831.00 6792.94 83.00
5470 59.0800 6773.00 6775.36 82.00
5471 59.0900 6661.00 6759.21 82.00
5472 59.1000 6675.00 6744.60 82.00
5473 59.1100 6654.00 6731.53 82.00
5474 59.1200 6704.00 6719.85 82.00
5475 59.1300 6739.00 6709.38 82.00
5476 59.1400 6703.00 6699.78 82.00
5477 59.1500 6629.00 6690.77 81.00
5478 59.1600 6667.00 6681.99 82.00
5479 59.1700 6632.00 6673.15 81.00
5480 59.1800 6690.00 6664.00 82.00
5481 59.1900 6695.00 6654.35 82.00
5482 59.2000 6683.00 6644.39 82.00
5483 59.2100 6629.00 6634.16 81.00
5484 59.2200 6637.00 6623.86 81.00
5485 59.2300 6602.00 6613.73 81.00
5486 59.2400 6616.00 6604.02 81.00
5487 59.2500 6619.00 6594.96 81.00
5488 59.2600 6625.00 6586.81 81.00
5489 59.2700 6563.00 6579.68 81.00
5490 59.2800 6589.00 6573.82 81.00
5491 59.2900 6551.00 6569.28 81.00
5492 59.3000 6552.00 6566.15 81.00
5493 59.3100 6612.00 6564.46 81.00
5494 59.3200 6565.00 6564.21 81.00
5495 59.3300 6549.00 6565.38 81.00
5496 59.3400 6587.00 6567.92 81.00
5497 59.3500 6555.00 6571.74 81.00
5498 59.3600 6601.00 6576.78 81.00
5499 59.3700 6661.00 6582.95 82.00
5500 59.3800 6679.00 6590.18 82.00
5501 59.3900 6591.00 6598.45 81.00
5502 59.4000 6637.00 6607.71 81.00
5503 59.4100 6639.00 6617.84 81.00
5504 59.4200 6682.00 6628.98 82.00
5505 59.4300 6715.00 6640.96 82.00
5506 59.4400 6720.00 6653.62 82.00
5507 59.4500 6689.00 6666.82 82.00
5508 59.4600 6695.00 6680.40 82.00
5509 59.4700 6731.00 6694.30 82.00
5510 59.4800 6744.00 6708.53 82.00
5511 59.4900 6810.00 6723.14 83.00
5512 59.5000 6792.00 6738.18 82.00
5513 59.5100 6801.00 6753.76 82.00
5514 59.5200 6810.00 6769.92 83.00
5515 59.5300 6829.00 6786.64 83.00
5516 59.5400 6810.00 6803.86 83.00
5517 59.5500 6865.00 6821.58 83.00
5518 59.5600 6878.00 6839.67 83.00
5519 59.5700 6873.00 6858.07 83.00
5520 59.5800 6924.00 6876.63 83.00
5521 59.5900 6889.00 6895.17 83.00
5522 59.6000 6944.00 6913.51 83.00
5523 59.6100 7011.00 6931.30 84.00
5524 59.6200 7045.00 6948.12 84.00
5525 59.6300 6964.00 6963.37 83.00
5526 59.6400 7013.00 6976.32 84.00
5527 59.6500 7011.00 6986.07 84.00
5528 59.6600 7042.00 6991.71 84.00
5529 59.6700 7033.00 6992.46 84.00
5530 59.6800 7010.00 6987.90 84.00
5531 59.6900 6964.00 6978.13 83.00
5532 59.7000 7012.00 6963.86 84.00
5533 59.7100 6946.00 6946.09 83.00
5534 59.7200 6945.00 6926.08 83.00
5535 59.7300 6935.00 6905.20 83.00
5536 59.7400 6907.00 6883.80 83.00
5537 59.7500 6835.00 6862.84 83.00
5538 59.7600 6853.00 6842.83 83.00
5539 59.7700 6840.00 6824.03 83.00
5540 59.7800 6794.00 6806.68 82.00
5541 59.7900 6837.00 6790.91 83.00
5542 59.8000 6811.00 6776.75 83.00
5543 59.8100 6753.00 6764.23 82.00
5544 59.8200 6750.00 6753.20 82.00
5545 59.8300 6718.00 6743.79 82.00
5546 59.8400 6743.00 6735.86 82.00
5547 59.8500 6810.00 6729.19 83.00
5548 59.8600 6731.00 6723.60 82.00
5549 59.8700 6725.00 6718.86 82.00
5550 59.8800 6741.00 6714.81 82.00
5551 59.8900 6697.00 6711.29 82.00
5552 59.9000 6699.00 6708.23 82.00
5553 59.9100 6758.00 6706.33 82.00
5554 59.9200 6710.00 6704.07 82.00
5555 59.9300 6721.00 6702.15 82.00
5556 59.9400 6702.00 6700.47 82.00
5557 59.9500 6694.00 6698.92 82.00
5558 59.9600 6707.00 6697.43 82.00
5559 59.9700 6763.00 6695.93 82.00
5560 59.9800 6715.00 6694.39 82.00
5561 59.9900 6710.00 6692.88 82.00
5562 60.0000 6671.00 6691.48 82.00
5563 60.0100 6690.00 6690.29 82.00
5564 60.0200 6670.00 6689.48 82.00
5565 60.0300 6715.00 6689.16 82.00
5566 60.0400 6766.00 6689.48 82.00
5567 60.0500 6679.00 6690.43 82.00
5568 60.0600 6720.00 6692.25 82.00
5569 60.0700 6668.00 6694.88 82.00
5570 60.0800 6734.00 6698.34 82.00
5571 60.0900 6760.00 6702.57 82.00
5572 60.1000 6755.00 6707.51 82.00
5573 60.1100 6630.00 6713.14 81.00
5574 60.1200 6731.00 6719.32 82.00
5575 60.1300 6744.00 6725.93 82.00
5576 60.1400 6763.00 6732.78 82.00
5577 60.1500 6748.00 6739.75 82.00
5578 60.1600 6788.00 6746.65 82.00
5579 60.1700 6761.00 6753.33 82.00
5580 60.1800 6758.00 6759.64 82.00
5581 60.1900 6785.00 6765.47 82.00
5582 60.2000 6759.00 6770.75 82.00
5583 60.2100 6830.00 6775.46 83.00
5584 60.2200 6831.00 6779.57 83.00
5585 60.2300 6804.00 6783.10 82.00
5586 60.2400 6789.00 6786.09 82.00
5587 60.2500 6784.00 6788.55 82.00
5588 60.2600 6827.00 6790.51 83.00
5589 60.2700 6795.00 6791.98 82.00
5590 60.2800 6807.00 6792.98 83.00
5591 60.2900 6737.00 6793.51 82.00
5592 60.3000 6778.00 6793.57 82.00
5593 60.3100 6741.00 6793.17 82.00
5594 60.3200 6794.00 6792.30 82.00
5595 60.3300 6794.00 6790.99 82.00
5596 60.3400 6767.00 6789.24 82.00
5597 60.3500 6720.00 6787.09 82.00
5598 60.3600 6801.00 6784.63 82.00
5599 60.3700 6739.00 6781.92 82.00
5600 60.3800 6780.00 6779.05 82.00
5601 60.3900 6784.00 6776.15 82.00
5602 60.4000 6772.00 6773.30 82.00
5603 60.4100 6712.00 6770.63 82.00
5604 60.4200 6775.00 6768.25 82.00
5605 60.4300 6708.00 6766.33 82.00
5606 60.4400 6748.00 6764.98 82.00
5607 60.4500 6763.00 6764.32 82.00
5608 60.4600 6785.00 6764.54 82.00
5609 60.4700 6701.00 6765.70 82.00
5610 60.4800 6764.00 6767.87 82.00
5611 60.4900 6753.00 6771.07 82.00
5612 60.5000 6773.00 6775.32 82.00
5613 60.5100 6778.00 6780.57 82.00
5614 60.5200 6809.00 6786.78 83.00
5615 60.5300 6762.00 6793.87 82.00
5616 60.5400 6793.00 6801.81 82.00
5617 60.5500 6772.00 6810.56 82.00
5618 60.5600 6838.00 6820.06 83.00
5619 60.5700 6859.00 6830.29 83.00
5620 60.5800 6880.00 6841.21 83.00
5621 60.5900 6862.00 6852.75 83.00
5622 60.6000 6889.00 6864.80 83.00
5623 60.6100 6914.00 6877.15 83.00
5624 60.6200 6928.00 6889.63 83.00
5625 60.6300 6916.00 6901.91 83.00
5626 60.6400 6910.00 6913.60 83.00
5627 60.6500 6893.00 6924.32 83.00
5628 60.6600 6886.00 6933.71 83.00
5629 60.6700 6897.00 6941.46 83.00
5630 60.6800 6906.00 6947.43 83.00
5631 60.6900 6956.00 6951.61 83.00
5632 60.7000 6946.00 6954.17 83.00
5633 60.7100 6925.00 6955.45 83.00
5634 60.7200 6859.00 6955.92 83.00
5635 60.7300 6896.00 6956.05 83.00
5636 60.7400 6890.00 6956.33 83.00
5637 60.7500 6929.00 6957.10 83.00
5638 60.7600 6938.00 6958.55 83.00
5639 60.7700 6870.00 6960.65 83.00
5640 60.7800 6921.00 6963.14 83.00
5641 60.7900 6862.00 6965.48 83.00
5642 60.8000 6927.00 6966.89 83.00
5643 60.8100 6942.00 6966.43 83.00
5644 60.8200 6947.00 6963.12 83.00
5645 60.8300 6861.00 6956.10 83.00
5646 60.8400 6911.00 6944.81 83.00
5647 60.8500 6828.00 6929.15 83.00
5648 60.8600 6851.00 6909.47 83.00
5649 60.8700 6845.00 6886.52 83.00
5650 60.8800 6802.00 6861.27 82.00
5651 60.8900 6676.00 6834.75 82.00
5652 60.9000 6721.00 6807.94 82.00
5653 60.9100 6680.00 6781.67 82.00
5654 60.9200 6715.00 6756.59 82.00
5655 60.9300 6709.00 6733.08 82.00
5656 60.9400 6649.00 6711.40 82.00
5657 60.9500 6639.00 6691.77 81.00
5658 60.9600 6634.00 6674.22 81.00
5659 60.9700 6614.00 6658.73 81.00
5660 60.9800 6626.00 6645.27 81.00
5661 60.9900 6641.00 6633.74 81.00
5662 61.0000 6621.00 6624.07 81.00
5663 61.0100 6598.00 6616.16 81.00
5664 61.0200 6591.00 6609.91 81.00
5665 61.0300 6606.00 6605.17 81.00
5666 61.0400 6606.00 6601.88 81.00
5667 61.0500 6646.00 6599.89 82.00
5668 61.0600 6611.00 6599.09 81.00
5669 61.0700 6582.00 6599.40 81.00
5670 61.0800 6588.00 6600.69 81.00
5671 61.0900 6589.00 6602.88 81.00
5672 61.1000 6638.00 6605.86 81.00
5673 61.1100 6695.00 6609.52 82.00
5674 61.1200 6650.00 6613.77 82.00
5675 61.1300 6644.00 6618.52 82.00
5676 61.1400 6676.00 6623.66 82.00
5677 61.1500 6611.00 6629.10 81.00
5678 61.1600 6655.00 6634.76 82.00
5679 61.1700 6718.00 6640.57 82.00
5680 61.1800 6651.00 6646.45 82.00
5681 61.1900 6630.00 6652.33 81.00
5682 61.2000 6655.00 6658.14 82.00
5683 61.2100 6601.00 6663.83 81.00
5684 61.2200 6652.00 6669.25 82.00
5685 61.2300 6671.00 6674.28 82.00
5686 61.2400 6702.00 6678.67 82.00
5687 61.2500 6656.00 6682.19 82.00
5688 61.2600 6677.00 6684.60 82.00
5689 61.2700 6665.00 6685.72 82.00
5690 61.2800 6683.00 6685.53 82.00
5691 61.2900 6673.00 6684.15 82.00
5692 61.3000 6685.00 6681.98 82.00
5693 61.3100 6620.00 6679.34 81.00
5694 61.3200 6641.00 6676.59 81.00
5695 61.3300 6651.00 6674.05 82.00
5696 61.3400 6616.00 6671.92 81.00
5697 61.3500 6674.00 6670.36 82.00
5698 61.3600 6701.00 6669.42 82.00
5699 61.3700 6657.00 6669.12 82.00
5700 61.3800 6669.00 6669.40 82.00
5701 61.3900 6670.00 6670.20 82.00
5702 61.4000 6727.00 6671.43 82.00
5703 61.4100 6740.00 6672.96 82.00
5704 61.4200 6745.00 6674.75 82.00
5705 61.4300 6713.00 6676.64 82.00
5706 61.4400 6687.00 6678.60 82.00
5707 61.4500 6690.00 6680.51 82.00
5708 61.4600 6658.00 6682.32 82.00
5709 61.4700 6744.00 6684.03 82.00
5710 61.4800 6731.00 6685.65 82.00
5711 61.4900 6633.00 6687.21 81.00
5712 61.5000 6643.00 6688.80 82.00
5713 61.5100 6642.00 6690.51 81.00
5714 61.5200 6632.00 6692.48 81.00
5715 61.5300 6765.00 6694.84 82.00
5716 61.5400 6717.00 6697.76 82.00
5717 61.5500 6654.00 6701.39 82.00
5718 61.5600 6696.00 6705.88 82.00
5719 61.5700 6670.00 6711.36 82.00
5720 61.5800 6695.00 6717.94 82.00
5721 61.5900 6741.00 6725.76 82.00
5722 61.6000 6758.00 6734.90 82.00
5723 61.6100 6660.00 6745.40 82.00
5724 61.6200 6714.00 6757.31 82.00
5725 61.6300 6725.00 6770.63 82.00
5726 61.6400 6752.00 6785.33 82.00
5727 61.6500 6840.00 6801.38 83.00
5728 61.6600 6884.00 6818.68 83.00
5729 61.6700 6838.00 6837.10 83.00
5730 61.6800 6895.00 6856.42 83.00
5731 61.6900 6859.00 6876.99 83.00
5732 61.7000 6951.00 6897.51 83.00
5733 61.7100 6964.00 6918.19 83.00
5734 61.7200 6951.00 6938.58 83.00
5735 61.7300 6942.00 6958.57 83.00
5736 61.7400 6961.00 6977.20 83.00
5737 61.7500 6979.00 6994.42 84.00
5738 61.7600 6961.00 7010.00 83.00
5739 61.7700 7021.00 7023.93 84.00
5740 61.7800 7041.00 7036.26 84.00
5741 61.7900 6981.00 7047.12 84.00
5742 61.8000 6998.00 7056.62 84.00
5743 61.8100 7024.00 7064.71 84.00
5744 61.8200 7025.00 7071.34 84.00
5745 61.8300 7044.00 7076.28 84.00
5746 61.8400 7066.00 7079.25 84.00
5747 61.8500 7008.00 7080.06 84.00
5748 61.8600 7018.00 7078.60 84.00
5749 61.8700 6976.00 7074.89 84.00
5750 61.8800 6971.00 7069.21 83.00
5751 61.8900 7063.00 7061.86 84.00
5752 61.9000 6979.00 7053.34 84.00
5753 61.9100 6952.00 7044.05 83.00
5754 61.9200 6939.00 7034.40 83.00
5755 61.9300 6931.00 7024.61 83.00
5756 61.9400 6979.00 7014.95 84.00
5757 61.9500 6954.00 7005.42 83.00
5758 61.9600 6982.00 6996.00 84.00
5759 61.9700 6904.00 6986.58 83.00
5760 61.9800 6910.00 6977.00 83.00
5761 61.9900 6868.00 6966.96 83.00
5762 62.0000 6967.00 6956.18 83.00
5763 62.0100 6899.00 6944.30 83.00
5764 62.0200 6917.00 6931.12 83.00
5765 62.0300 6815.00 6916.58 83.00
5766 62.0400 6828.00 6901.08 83.00
5767 62.0500 6836.00 6884.97 83.00
5768 62.0600 6843.00 6868.77 83.00
5769 62.0700 6842.00 6852.86 83.00
5770 62.0800 6824.00 6837.50 83.00
5771 62.0900 6749.00 6822.88 82.00
5772 62.1000 6742.00 6809.04 82.00
5773 62.1100 6677.00 6795.99 82.00
5774 62.1200 6675.00 6783.74 82.00
5775 62.1300 6744.00 6772.27 82.00
5776 62.1400 6694.00 6761.59 82.00
5777 62.1500 6641.00 6751.74 81.00
5778 62.1600 6680.00 6742.67 82.00
5779 62.1700 6654.00 6734.41 82.00
5780 62.1800 6723.00 6726.97 82.00
5781 62.1900 6744.00 6720.32 82.00
5782 62.2000 6726.00 6714.44 82.00
5783 62.2100 6647.00 6709.31 82.00
loop_
_pd_proc_info_excluded_regions
'from 0.01 to 4.370'
'from 62.21 to 78.078'
loop_
_refln_index_h
_refln_index_k
_refln_index_l
_refln_F_squared_calc
_refln_F_squared_meas
_refln_F_squared_sigma
_refln_observed_status
_refln_d_spacing
2 0 0 252.47 233.01 4.41 o 5.721101
1 0 1 572.62 587.65 6.30 o 4.146580
2 0 1 7801.37 7620.17 17.33 o 3.512050
2 1 0 2389.31 2480.56 11.96 o 3.348919
0 1 1 12208.26 12016.43 24.41 o 3.027059
1 1 1 29619.56 29808.93 27.06 o 2.926385
3 0 1 734.24 748.82 1.56 o 2.895650
4 0 0 63755.03 64394.73 80.58 o 2.860551
2 1 1 31.64 37.92 2.15 o 2.675619
4 0 1 480.94 437.75 4.43 o 2.406116
3 1 1 17943.42 17742.85 25.96 o 2.371055
4 1 0 5760.05 5960.24 14.93 o 2.351669
0 0 2 18156.68 17559.81 64.54 o 2.224500
1 0 2 12353.93 12248.43 38.01 o 2.183617
4 1 1 9003.12 8949.87 17.20 o 2.079088
2 0 2 464.90 464.98 0.70 o 2.073290
0 2 0 57499.24 57864.61 93.33 o 2.065267
5 0 1 5796.70 5553.57 26.33 o 2.035011
2 2 0 143.54 144.61 0.55 o 1.942570
1 1 2 7017.26 6993.30 16.62 o 1.930460
3 0 2 12801.67 12763.39 30.08 o 1.921558
6 0 0 904.91 913.69 6.94 o 1.907034
2 1 2 3434.79 3391.15 15.79 o 1.852965
1 2 1 355.64 351.34 1.65 o 1.848660
5 1 1 22229.38 21967.87 38.97 o 1.825486
2 2 1 4911.43 4789.54 20.74 o 1.780267
4 0 2 12237.26 12055.56 36.11 o 1.756025
6 0 1 4823.99 4786.88 15.27 o 1.752795
3 1 2 3278.31 3328.58 10.73 o 1.742256
6 1 0 3206.58 3314.95 20.60 o 1.731408
3 2 1 502.76 501.62 1.18 o 1.681416
4 2 0 42035.93 41613.06 84.95 o 1.674460
4 1 2 2126.38 2090.06 18.41 o 1.616047
6 1 1 195.52 192.26 1.75 o 1.613528
5 0 2 6911.10 7013.51 49.09 o 1.595085
4 2 1 328.95 358.03 11.68 o 1.567140
7 0 1 1788.84 1771.02 28.97 o 1.534319
0 2 2 12816.74 12813.72 55.63 o 1.513530
1 2 2 8610.96 8798.46 30.61 o 1.500460
5 1 2 8802.10 8808.58 31.48 o 1.487990
1 0 3 7238.73 7054.55 36.59 o 1.470699
2 2 2 337.77 324.14 2.81 o 1.463193
5 2 1 4052.09 4070.39 19.49 o 1.449549
6 0 2 2481.15 2482.89 10.57 o 1.447825
7 1 1 5495.77 5621.29 20.50 o 1.438296
2 0 3 6066.01 6113.12 17.08 o 1.435555
8 0 0 23936.92 24102.74 97.45 o 1.430275
3 2 2 9143.73 9273.51 33.65 o 1.406810
6 2 0 695.82 710.56 2.30 o 1.401081
0 1 3 16980.24 17190.67 51.52 o 1.395766
1 1 3 936.40 952.76 3.71 o 1.385495
3 0 3 9750.29 9820.68 43.80 o 1.382193
6 1 2 1047.78 1155.05 12.41 o 1.366321
8 0 1 1025.59 1122.04 13.17 o 1.361642
2 1 3 5.22 5.49 0.03 o 1.355994
8 1 0 11398.75 11888.62 64.46 o 1.351542
2 3 0 1001.59 1023.76 3.50 o 1.338625
4 2 2 9115.87 9289.53 32.61 o 1.337809
6 2 1 3488.30 3551.72 12.50 o 1.336380
7 0 2 8753.78 9290.03 38.28 o 1.317217
4 0 3 853.24 887.16 2.75 o 1.316587
0 3 1 5811.12 6069.84 20.47 o 1.315299
3 1 3 31.81 32.33 0.09 o 1.310754
1 3 1 14505.04 14564.32 45.92 o 1.306695
8 1 1 4557.38 4608.87 30.17 o 1.293187
2 3 1 15.08 15.81 0.31 o 1.281859
5 2 2 5160.53 5197.03 22.91 o 1.262404
7 1 2 884.41 882.15 3.02 o 1.254951
4 1 3 13690.89 13761.85 41.10 o 1.254405
5 0 3 2375.92 2367.29 7.64 o 1.244526
3 3 1 9280.73 9247.47 34.84 o 1.243438
4 3 0 3048.63 3048.27 12.04 o 1.240617
7 2 1 1429.18 1486.97 14.35 o 1.231631
9 0 1 10093.50 10313.74 72.62 o 1.222424
8 0 2 4037.46 4228.28 24.69 o 1.203058
1 2 3 5556.17 5627.03 23.86 o 1.197988
4 3 1 4790.70 4839.54 20.77 o 1.195025
5 1 3 2363.74 2389.50 9.95 o 1.191612
6 2 2 1941.49 2000.87 12.09 o 1.185528
2 2 3 4548.39 4586.31 13.75 o 1.178763
8 2 0 18310.83 18534.52 53.58 o 1.175835
9 1 1 9982.27 10134.04 32.03 o 1.172169
6 0 3 4912.66 4971.31 13.83 o 1.170683
1 3 2 3759.97 3828.39 21.26 o 1.164656
8 1 2 4464.06 4537.38 25.52 o 1.155062
3 2 3 7597.40 7709.83 29.29 o 1.148679
2 3 2 2073.09 2099.67 8.63 o 1.146968
10 0 0 687.83 685.53 3.13 o 1.144220
5 3 1 12742.31 12548.87 48.80 o 1.140361
8 2 1 790.99 777.20 3.64 o 1.136802
6 1 3 47.89 47.56 0.69 o 1.126320
3 3 2 1799.59 1772.01 19.89 o 1.119198
6 3 0 1670.77 1657.62 10.32 o 1.116307
0 0 4 404.17 401.66 1.83 o 1.112250
7 2 2 6758.80 6721.78 35.99 o 1.110565
4 2 3 665.47 662.34 3.38 o 1.110187
10 0 1 2583.28 2591.02 14.62 o 1.108158
1 0 4 2923.69 2911.76 12.76 o 1.107032
9 0 2 2479.52 2474.61 15.64 o 1.103801
10 1 0 4132.68 4150.59 30.12 o 1.102693
7 0 3 6847.81 6810.80 49.23 o 1.098334
2 0 4 542.43 537.46 4.85 o 1.091808
4 3 2 1284.74 1248.85 25.56 o 1.083504
6 3 1 109.53 106.41 2.10 o 1.082744
10 1 1 330.42 336.63 2.16 o 1.070308
1 1 4 172.41 173.65 0.79 o 1.069294
3 0 4 2085.67 2088.47 8.75 o 1.067774
9 1 2 7839.64 7933.41 39.24 o 1.066381
5 2 3 1866.71 1878.23 8.57 o 1.065948
7 1 3 1599.83 1620.93 5.81 o 1.061449
2 1 4 19648.76 19074.75 58.46 o 1.055556
9 2 1 7959.95 7674.07 28.21 o 1.051962
5 3 2 5204.59 5225.83 32.32 o 1.042263
8 2 2 3211.45 3202.47 20.00 o 1.039544
4 0 4 627.10 620.29 3.07 o 1.036645
3 1 4 0.13 0.13 0.00 o 1.033790
0 4 0 24848.89 24137.43 152.06 o 1.032634
8 0 3 2093.15 2008.60 14.01 o 1.029492
7 3 1 3283.36 3052.67 25.56 o 1.024742
6 2 3 3887.66 3675.98 30.84 o 1.018443
10 0 2 2819.91 2679.54 24.83 o 1.017505
2 4 0 71.15 68.34 0.51 o 1.016213
11 0 1 1102.21 1065.50 11.94 o 1.012884
0 3 3 10382.67 10158.62 86.59 o 1.009020
4 1 4 198.91 195.21 1.12 o 1.005463
1 3 3 612.20 597.57 4.62 o 1.005119
1 4 1 123.06 119.01 0.73 o 1.002029
10 2 0 560.30 545.20 3.71 o 1.000876
5 0 4 2542.33 2468.98 13.58 o 1.000354
8 1 3 7640.27 7419.47 46.83 o 0.998933
6 3 2 681.05 662.25 4.29 o 0.997726
2 3 3 2.92 2.83 0.02 o 0.993684
8 3 0 7146.54 6875.15 54.18 o 0.991928
2 4 1 2163.72 2085.57 17.15 o 0.990698
10 1 2 0.35 0.34 0.01 o 0.987971
11 1 1 941.21 896.48 16.75 o 0.983739
0 2 4 319.97 321.10 1.94 o 0.979268
10 2 1 2076.05 2092.83 12.48 o 0.976471
1 2 4 2354.78 2365.69 10.10 o 0.975701
3 3 3 17.05 17.27 0.09 o 0.975462
9 2 2 1997.06 2012.74 8.97 o 0.973486
3 4 1 285.57 283.86 1.16 o 0.972637
5 1 4 774.95 768.83 3.02 o 0.972247
4 4 0 19682.93 19531.19 78.25 o 0.971285
7 2 3 5529.03 5460.15 23.18 o 0.969730
8 3 1 2853.43 2811.45 12.70 o 0.968156
2 2 4 438.20 429.03 2.03 o 0.965230
9 0 3 181.93 175.89 0.99 o 0.965217
6 0 4 3464.60 3267.88 24.18 o 0.960779
12 0 0 6152.62 6111.41 43.81 o 0.953517
7 3 2 553.50 542.31 3.42 o 0.951795
4 3 3 8692.06 8516.70 53.51 o 0.951557
4 4 1 157.06 153.76 0.94 o 0.948934
3 2 4 1691.03 1658.42 9.57 o 0.948503
11 0 2 5023.21 4996.36 40.41 o 0.942271
9 1 3 1887.11 1886.93 9.77 o 0.939896
0 4 2 6353.74 6226.33 28.80 o 0.936635
6 1 4 12191.35 11954.81 49.39 o 0.935797
1 4 2 4172.67 4077.34 18.31 o 0.933513
12 0 1 1107.17 1057.57 6.08 o 0.932344
12 1 0 10469.49 10190.37 74.66 o 0.929083
4 2 4 516.97 503.44 3.05 o 0.926482
2 4 2 171.83 170.57 1.37 o 0.924330
5 3 3 1544.06 1526.90 14.44 o 0.923258
8 2 3 1708.56 1687.81 15.84 o 0.921366
5 4 1 1966.58 1947.33 16.70 o 0.920861
7 0 4 961.22 960.71 6.39 o 0.919560
11 1 2 139.61 139.06 1.32 o 0.918670
9 3 1 6512.06 6485.53 39.76 o 0.914125
10 2 2 2294.86 2281.40 13.87 o 0.912743
3 4 2 4552.48 4500.64 25.45 o 0.909609
12 1 1 1914.37 1878.67 12.23 o 0.909464
11 2 1 894.02 880.69 5.38 o 0.909403
6 4 0 369.09 363.11 2.08 o 0.908055
8 3 2 2924.08 2867.94 20.67 o 0.905941
10 0 3 3590.06 3521.45 24.58 o 0.905917
5 2 4 2083.41 2064.33 23.90 o 0.900302
7 1 4 46.04 46.76 0.64 o 0.897586
6 3 3 32.00 32.29 0.32 o 0.891873
4 4 2 4711.16 4733.14 43.80 o 0.890134
6 4 1 1774.76 1780.66 16.09 o 0.889712
1 0 5 7454.12 7510.83 61.72 o 0.887122
10 1 3 149.98 147.92 1.68 o 0.884884
10 3 0 2766.25 2798.34 44.81 o 0.880004
2 0 5 1858.42 1876.75 20.64 o 0.879229
8 0 4 1306.59 1327.20 18.44 o 0.878012
12 0 2 456.56 461.03 8.64 o 0.876397
9 2 3 154.10 156.50 2.25 o 0.874432
6 2 4 2853.91 2890.18 23.61 o 0.871128
0 1 5 264.20 261.83 1.46 o 0.869846
1 1 5 155.91 155.17 0.77 o 0.867343
5 4 2 2714.22 2684.05 15.92 o 0.866840
3 0 5 7992.04 7961.83 37.33 o 0.866531
12 2 0 5119.64 5058.02 29.85 o 0.865704
13 0 1 10128.29 10002.50 61.15 o 0.863435
10 3 1 224.62 223.09 1.15 o 0.863278
1 3 4 119.15 118.55 0.56 o 0.862746
9 3 2 5299.91 5268.91 25.20 o 0.861214
2 1 5 79.96 79.49 0.28 o 0.859963
8 1 4 330.07 327.85 1.27 o 0.858824
7 3 3 1081.91 1090.14 4.69 o 0.858610
12 1 2 3840.08 3847.97 17.62 o 0.857313
11 2 2 4202.31 4204.46 18.88 o 0.857262
7 4 1 757.66 755.35 3.25 o 0.856681
2 3 4 13244.31 13177.17 58.33 o 0.855481
11 0 3 2575.66 2518.90 16.50 o 0.851598
12 2 1 923.64 907.90 9.09 o 0.849766
4 0 5 99.88 99.72 0.48 o 0.849644
3 1 5 1541.01 1515.07 9.01 o 0.848070
13 1 1 2470.46 2534.21 26.35 o 0.845167
1 4 3 2985.97 3070.24 30.07 o 0.845117
3 3 4 0.00 0.00 0.00 o 0.843771
6 4 2 1040.42 1054.90 8.61 o 0.840708
7 2 4 808.15 816.08 6.03 o 0.840053
2 4 3 2492.96 2523.01 21.07 o 0.838285
8 4 0 9954.53 10046.30 76.70 o 0.837230
9 0 4 1381.81 1393.86 10.35 o 0.837114
11 1 3 3344.96 3363.05 27.54 o 0.834056
4 1 5 155.70 156.34 0.94 o 0.832220
10 2 3 3032.75 3039.46 24.45 o 0.829613
5 0 5 4553.71 4553.81 28.03 o 0.829316
4 3 4 129.85 130.56 0.96 o 0.828156
3 4 3 4136.84 4170.25 32.00 o 0.827258
8 3 3 5290.56 5267.96 43.60 o 0.824496
8 4 1 437.54 437.37 3.68 o 0.822788
9 1 4 1396.74 1441.26 12.37 o 0.820435
13 0 2 517.38 552.11 6.62 o 0.818433
10 3 2 0.04 0.05 0.00 o 0.818300
2 5 0 435.76 451.70 3.40 o 0.817627
14 0 0 80.86 86.52 1.09 o 0.817300
11 3 1 684.85 711.26 5.61 o 0.815890
1 2 5 6259.77 6465.59 38.97 o 0.815106
5 1 5 38.63 39.63 0.24 o 0.813090
7 4 2 3811.14 3928.59 25.02 o 0.812674
4 4 3 370.20 381.24 2.50 o 0.812526
0 5 1 2529.38 2596.41 15.71 o 0.812223
1 5 1 6310.07 6429.35 39.63 o 0.810185
5 3 4 548.59 556.15 3.68 o 0.809298
2 2 5 1550.47 1582.06 8.56 o 0.808972
8 2 4 1130.03 1149.47 7.37 o 0.808023
12 2 2 385.66 393.56 3.23 o 0.806764
6 0 5 1040.40 1056.93 5.29 o 0.806346
2 5 1 6.74 6.86 0.04 o 0.804160
14 0 1 1347.41 1366.35 10.52 o 0.803849
13 1 2 5863.12 5978.67 41.33 o 0.802825
12 0 3 2398.87 2461.54 15.22 o 0.802039
14 1 0 4552.71 4660.14 31.42 o 0.801756
3 2 5 6715.45 6768.45 30.19 o 0.799048
10 0 4 5118.22 5140.70 24.92 o 0.797543
13 2 1 8534.63 8570.17 48.08 o 0.796618
5 4 3 1065.38 1061.18 6.08 o 0.794693
3 5 1 4155.11 4167.90 20.97 o 0.794410
4 5 0 1353.84 1355.89 6.57 o 0.793673
6 1 5 520.67 518.92 2.14 o 0.791407
9 3 3 1272.67 1289.87 7.11 o 0.790352
14 1 1 417.38 421.36 2.43 o 0.789046
9 4 1 4571.83 4572.38 23.38 o 0.788847
6 3 4 8568.93 8572.39 42.70 o 0.787910
12 1 3 3330.19 3329.59 17.04 o 0.787333
11 2 3 2148.61 2149.84 10.89 o 0.787294
4 2 5 82.17 81.90 0.37 o 0.785749
12 3 0 7300.11 7187.95 40.13 o 0.783890
8 4 2 1819.52 1785.72 10.16 o 0.783570
10 1 4 4809.40 4730.42 25.93 o 0.783079
7 0 5 5395.57 5317.39 28.46 o 0.781513
4 5 1 2210.21 2161.53 14.22 o 0.781338
11 3 2 105.19 103.63 1.25 o 0.777605
9 2 4 1164.20 1151.78 12.63 o 0.775807
6 4 3 2333.99 2331.77 27.06 o 0.774413
1 5 2 1785.30 1794.20 17.36 o 0.772661
12 3 1 1382.51 1386.65 13.69 o 0.771998
5 2 5 3899.58 3847.87 28.89 o 0.769588
7 1 5 3908.72 3836.92 29.62 o 0.767889
2 5 2 910.37 895.84 7.63 o 0.767430
14 0 2 1472.69 1449.58 13.82 o 0.767160
10 4 0 284.11 279.04 2.46 o 0.766605
5 5 1 5882.62 5766.83 51.56 o 0.765441
7 3 4 27.27 26.51 0.27 o 0.764694
13 2 2 440.74 421.47 8.72 o 0.760867
14 2 0 57.75 55.95 1.30 o 0.759956
11 0 4 341.63 331.67 5.37 o 0.759728
3 5 2 888.50 875.38 14.34 o 0.758942
6 5 0 874.32 863.30 12.23 o 0.758039
13 0 3 33.50 33.09 0.54 o 0.756899
10 3 3 118.46 117.00 1.79 o 0.756794
0 4 4 237.26 234.74 3.50 o 0.756765
8 0 5 211.66 209.07 2.42 o 0.755526
10 4 1 1262.38 1252.13 15.90 o 0.755472
1 4 4 1384.77 1376.65 18.01 o 0.755115
14 1 2 483.13 481.03 6.48 o 0.754261
9 4 2 1187.48 1176.21 14.67 o 0.754087
7 4 3 3179.50 3136.57 38.93 o 0.752337
15 0 1 228.21 223.86 3.38 o 0.751842
6 2 5 880.76 862.83 9.16 o 0.751126
2 4 4 254.75 248.41 3.19 o 0.750230
14 2 1 1164.29 1122.60 16.48 o 0.749106
12 2 3 2052.07 1983.02 28.09 o 0.747641
4 5 2 595.23 578.00 7.23 o 0.747519
0 3 5 174.24 169.17 1.94 o 0.747322
6 5 1 56.07 54.37 0.64 o 0.747270
11 1 4 36.35 35.29 0.44 o 0.747194
1 3 5 136.02 131.73 1.55 o 0.745733
13 1 3 672.28 653.82 9.05 o 0.744502
10 2 4 4343.52 4238.03 54.59 o 0.743995
8 1 5 13.57 13.28 0.16 o 0.743196
3 4 4 1020.62 1003.78 13.85 o 0.742294
0 0 6 35.88 35.21 0.40 o 0.741500
2 3 5 56.32 55.36 0.72 o 0.741026
8 3 4 211.24 207.84 3.12 o 0.740297
1 0 6 91.23 89.60 0.95 o 0.739948
15 1 1 133.46 131.56 2.64 o 0.739689
12 3 2 2694.34 2642.74 46.94 o 0.739329
2 0 6 150.10 146.98 1.29 o 0.735349
5 5 2 2649.05 2603.60 27.54 o 0.733563
3 3 5 1178.46 1152.77 11.25 o 0.733376
4 4 4 379.16 369.54 3.61 o 0.731596
13 3 1 1754.52 1709.76 16.79 o 0.731496
7 2 5 4599.31 4440.56 37.74 o 0.730931
8 4 3 1034.82 992.25 9.32 o 0.729069
9 0 5 2036.88 1983.88 14.83 o 0.728993
1 1 6 2736.38 2666.87 17.65 o 0.728353
3 0 6 695.70 677.22 4.40 o 0.727872
7 5 1 1699.56 1656.37 12.85 o 0.727376
10 4 2 1308.04 1271.41 10.62 o 0.724774
11 3 3 2423.55 2363.66 20.39 o 0.724257
2 1 6 5743.13 5599.03 37.74 o 0.723966
12 0 4 2065.38 2007.04 16.29 o 0.723913
11 4 1 487.85 477.24 3.95 o 0.723099
4 3 5 101.91 99.70 0.78 o 0.723054
0 5 3 5279.49 5238.47 45.89 o 0.721689
15 0 2 2918.43 2868.07 28.32 o 0.721568
1 5 3 262.16 257.47 2.47 o 0.720257
14 2 2 1230.49 1217.36 13.84 o 0.719148
5 4 4 1258.04 1249.71 13.09 o 0.718498
9 1 5 139.23 137.38 1.28 o 0.717898
4 0 6 101.69 100.79 0.81 o 0.717777
6 5 2 297.63 295.74 3.16 o 0.717522
3 1 6 2791.74 2761.22 24.19 o 0.716828
2 5 3 2.00 2.02 0.03 o 0.716014
14 0 3 2486.40 2512.39 33.78 o 0.715795
8 5 0 3518.24 3564.23 44.14 o 0.715357
9 3 4 1037.79 1050.06 13.93 o 0.715284
16 0 0 974.10 978.44 16.10 o 0.715138
12 1 4 106.21 108.17 1.78 o 0.713045
11 2 4 304.85 310.25 5.08 o 0.713015
15 1 2 4.95 5.37 0.18 o 0.710803
13 2 3 23.54 25.26 0.79 o 0.710675
5 3 5 16.98 17.99 0.37 o 0.710401
8 2 5 175.77 185.82 2.75 o 0.709538
3 5 3 15.25 16.86 0.36 o 0.709106
4 1 6 107.16 110.51 1.00 o 0.707179
15 2 1 189.34 197.71 2.39 o 0.706485
8 5 1 1509.48 1561.52 15.16 o 0.706285
16 0 1 928.26 967.63 12.18 o 0.706074
5 0 6 8.72 8.99 0.08 o 0.705395
14 1 3 339.18 350.30 3.48 o 0.705283
9 4 3 112.61 115.97 1.12 o 0.705141
16 1 0 6503.53 6699.05 67.84 o 0.704655
13 3 2 4412.71 4523.72 40.97 o 0.703524
6 4 4 1729.23 1774.88 15.72 o 0.703405
14 3 0 3422.92 3502.45 30.76 o 0.702805
10 0 5 283.90 290.07 2.35 o 0.702410
12 4 0 3290.79 3339.22 30.65 o 0.700540
7 5 2 317.75 321.64 3.10 o 0.699857
4 5 3 4589.04 4626.09 48.86 o 0.699762
0 2 6 39.04 39.26 0.33 o 0.697883
1 2 6 87.35 87.51 0.78 o 0.696588
11 4 2 2757.05 2746.40 33.04 o 0.696044
16 1 1 740.07 738.50 10.70 o 0.695979
6 3 5 375.31 374.40 3.96 o 0.695803
5 1 6 1867.30 1883.34 16.43 o 0.695328
14 3 1 324.47 323.61 3.99 o 0.694196
12 3 3 2536.10 2544.25 30.57 o 0.693029
2 2 6 128.37 128.90 1.17 o 0.692748
10 1 5 779.87 782.34 7.70 o 0.692469
12 4 1 591.30 592.24 6.48 o 0.692014
6 0 6 1008.14 1011.99 8.92 o 0.691097
13 0 4 443.02 445.63 4.80 o 0.690202
10 3 4 3624.48 3653.78 40.29 o 0.690123
0 6 0 10598.48 10701.49 104.63 o 0.688422
5 5 3 712.86 721.29 8.10 o 0.688274
9 2 5 1813.25 1835.04 17.72 o 0.687425
7 4 4 533.46 538.71 6.08 o 0.686738
3 2 6 622.97 627.20 4.91 o 0.686486
9 5 1 3312.39 3320.55 28.82 o 0.684465
2 6 0 24.94 24.94 0.20 o 0.683492
12 2 4 1825.50 1825.05 16.03 o 0.683161
6 1 6 3807.20 3828.88 28.81 o 0.681622
15 2 2 2589.93 2574.40 23.73 o 0.681189
8 5 2 1456.02 1454.00 12.50 o 0.681010
10 4 3 2026.82 2020.14 17.93 o 0.680999
16 0 2 16.79 16.67 0.16 o 0.680821
13 1 4 1555.46 1554.10 13.43 o 0.680764
7 3 5 2995.91 3010.38 25.00 o 0.679658
1 6 1 86.41 86.94 0.72 o 0.679127
15 0 3 360.10 362.33 3.80 o 0.678337
4 2 6 100.53 102.19 0.78 o 0.677997
14 2 3 2193.29 2287.63 28.81 o 0.676326
11 0 5 2150.33 2215.01 20.38 o 0.676164
16 2 0 879.52 929.53 12.21 o 0.675771
2 6 1 1023.92 1064.89 10.31 o 0.675566
7 0 6 1687.68 1746.09 13.19 o 0.675270
6 5 3 23.39 24.78 0.28 o 0.674973
1 4 5 4023.67 4255.35 38.28 o 0.672906
16 1 2 1930.08 2045.76 20.65 o 0.671757
14 3 2 364.33 372.30 3.06 o 0.670154
10 5 0 1640.34 1676.01 12.26 o 0.669784
3 6 1 77.71 79.01 0.58 o 0.669755
2 4 5 964.83 981.99 7.25 o 0.669442
15 1 3 3353.54 3408.22 27.61 o 0.669371
4 6 0 8756.61 8856.86 60.47 o 0.669313
8 4 4 817.40 826.42 6.26 o 0.668905
12 4 2 252.88 253.36 1.87 o 0.668190
16 2 1 817.03 820.81 6.60 o 0.668108
5 2 6 5.30 5.36 0.04 o 0.667532
11 1 5 5416.35 5459.57 36.10 o 0.667283
7 1 6 1863.73 1884.47 11.19 o 0.666423
17 0 1 7245.40 7221.65 68.27 o 0.665498
11 3 4 22.55 22.45 0.17 o 0.665183
10 2 5 246.96 247.22 1.64 o 0.665001
3 4 5 4287.85 4335.98 31.83 o 0.663786
13 3 3 479.23 484.76 3.90 o 0.663281
13 4 1 5506.56 5655.47 42.71 o 0.662391
8 3 5 7.80 8.01 0.06 o 0.662357
10 5 1 135.60 139.36 0.98 o 0.662320
1 5 4 81.26 84.38 0.69 o 0.662080
4 6 1 72.43 74.18 0.50 o 0.661865
9 5 2 3026.26 3138.96 22.77 o 0.661387
7 5 3 611.72 632.66 4.85 o 0.660205
15 3 1 132.90 137.58 1.11 o 0.659871
2 5 4 7220.78 7497.20 64.33 o 0.658780
14 0 4 4305.93 4468.20 37.37 o 0.658609
8 0 6 378.79 391.90 2.77 o 0.658293
0 6 2 2737.32 2847.33 24.22 o 0.657650
17 1 1 131.37 135.44 1.43 o 0.657025
11 4 3 1325.27 1375.07 13.15 o 0.657001
1 6 2 1973.10 2053.11 18.52 o 0.656566
4 4 5 47.83 49.57 0.48 o 0.656103
6 2 6 870.93 905.84 7.76 o 0.655377
13 2 4 384.45 391.73 5.22 o 0.654614
3 5 4 1.16 1.21 0.02 o 0.653387
2 6 2 70.30 72.34 0.95 o 0.653347
5 6 1 995.83 1035.17 13.21 o 0.652119
1 3 6 2088.75 2167.90 24.66 o 0.651785
12 0 5 155.96 162.53 1.97 o 0.650544
14 1 4 1186.65 1234.02 16.24 o 0.650393
9 4 4 743.65 773.38 10.30 o 0.650281
8 1 6 205.50 214.45 2.31 o 0.650089
2 3 6 4351.13 4568.79 46.81 o 0.648636
3 6 2 2220.99 2318.68 25.58 o 0.648086
6 6 0 127.51 133.62 1.39 o 0.647523
5 4 5 2638.56 2773.42 29.95 o 0.646606
16 2 2 12.78 13.52 0.17 o 0.646594
4 5 4 56.52 59.73 0.70 o 0.646056
15 2 3 309.14 325.70 3.91 o 0.644465
8 5 3 3063.37 3214.28 36.40 o 0.644313
9 3 5 86.00 89.81 0.98 o 0.644261
17 0 2 15.59 16.47 0.22 o 0.644227
16 0 3 1990.85 2094.03 25.71 o 0.644153
3 3 6 2117.31 2203.89 22.35 o 0.643487
12 1 5 24.69 25.73 0.28 o 0.642622
11 2 5 1870.64 1948.10 21.91 o 0.642601
7 2 6 1501.01 1568.15 16.38 o 0.641833
13 4 2 291.46 302.10 3.89 o 0.641407
10 5 2 0.52 0.54 0.01 o 0.641343
4 6 2 2095.52 2181.03 26.22 o 0.640929
14 4 0 17.28 17.88 0.27 o 0.640862
6 6 1 907.22 944.08 10.88 o 0.640772
12 3 4 61.20 62.99 0.90 o 0.640746
9 0 6 66.73 68.77 0.68 o 0.640519
11 5 1 470.96 483.39 5.97 o 0.640181
15 3 2 4.58 4.65 0.07 o 0.639118
5 5 4 335.06 339.51 3.85 o 0.636982
17 1 2 3939.98 3990.57 49.39 o 0.636532
4 3 6 74.74 74.91 0.64 o 0.636480
16 1 3 1247.31 1265.83 14.34 o 0.636460
18 0 0 133.58 134.91 1.55 o 0.635678
6 4 5 567.70 569.07 5.09 o 0.635539
14 3 3 283.45 283.69 2.59 o 0.635096
16 3 0 4951.22 4947.63 44.22 o 0.634637
1 0 7 336.81 337.62 2.51 o 0.634593
14 4 1 804.49 804.63 6.92 o 0.634315
17 2 1 6358.51 6355.10 59.40 o 0.633425
12 4 3 1369.68 1365.65 11.97 o 0.633424
9 1 6 981.43 983.42 7.38 o 0.632954
5 6 2 1333.76 1334.04 11.03 o 0.632067
2 0 7 6111.62 6109.93 39.85 o 0.631685
10 4 4 2817.62 2813.71 25.72 o 0.631202
18 0 1 677.88 684.94 8.13 o 0.629287
15 0 4 137.00 137.34 1.27 o 0.629081
18 1 0 3787.16 3802.22 40.80 o 0.628281
16 3 1 589.25 586.46 5.67 o 0.628277
0 1 7 743.04 742.03 5.06 o 0.628178
7 6 1 270.36 269.32 2.34 o 0.628096
5 3 6 1468.41 1467.29 12.03 o 0.627798
9 5 3 637.05 632.76 5.96 o 0.627620
14 2 4 3773.02 3748.11 35.62 o 0.627475
1 1 7 327.44 326.60 2.37 o 0.627234
8 2 6 349.21 349.65 2.84 o 0.627203
3 0 7 703.26 702.76 5.15 o 0.626927
6 5 4 4924.88 4921.22 46.57 o 0.626395
13 0 5 855.55 856.78 7.51 o 0.625751
10 3 5 584.93 585.36 5.23 o 0.625691
2 1 7 116.64 116.65 0.93 o 0.624426
12 5 0 4070.80 4060.33 38.36 o 0.624369
1 6 3 1403.41 1391.05 15.25 o 0.623496
7 4 5 3017.61 2989.14 33.56 o 0.623166
10 0 6 1603.53 1592.22 15.40 o 0.622263
18 1 1 466.56 473.54 7.12 o 0.622109
15 1 4 5.15 5.20 0.07 o 0.621909
6 6 2 444.51 446.77 5.41 o 0.621719
11 5 2 72.78 73.73 0.95 o 0.621179
2 6 3 1382.10 1399.61 18.35 o 0.620737
12 2 5 131.43 133.07 1.66 o 0.620489
4 0 7 6.26 6.24 0.06 o 0.620441
8 6 0 4950.14 5016.48 59.74 o 0.620309
3 1 7 65.51 65.81 0.65 o 0.619828
13 1 5 71.34 71.33 0.92 o 0.618692
12 5 1 844.27 847.21 11.26 o 0.618310
6 3 6 2948.57 2956.49 36.80 o 0.617655
13 3 4 1210.86 1213.67 17.56 o 0.617016
3 6 3 1920.24 1929.96 28.21 o 0.616220
14 4 2 753.48 759.70 11.56 o 0.615815
10 1 6 1675.55 1696.32 22.62 o 0.615320
17 2 2 13.66 13.72 0.23 o 0.615001
16 2 3 1767.64 1778.10 29.66 o 0.614937
7 5 4 8.51 8.58 0.15 o 0.614538
8 6 1 222.51 226.37 3.28 o 0.614366
4 1 7 835.19 849.85 9.93 o 0.613558
17 0 3 94.37 97.07 2.11 o 0.612900
5 0 7 31.27 31.75 0.36 o 0.612392
11 4 4 229.03 235.20 4.42 o 0.611952
9 2 6 54.07 54.96 0.76 o 0.611773
18 0 2 338.42 351.54 7.85 o 0.611212
13 4 3 7.07 7.27 0.15 o 0.610470
10 5 3 88.24 90.64 1.49 o 0.610415
16 3 2 1452.84 1492.17 25.97 o 0.610286
7 6 2 2039.00 2089.48 30.38 o 0.610121
4 6 3 183.63 188.10 2.87 o 0.610058
8 4 5 105.41 107.98 1.62 o 0.609749
15 3 3 2572.55 2607.54 37.28 o 0.608495
15 4 1 113.24 113.93 1.52 o 0.607808
18 2 0 131.13 131.42 1.92 o 0.607550
11 3 5 4258.14 4279.60 51.96 o 0.606926
1 2 7 292.89 292.47 3.00 o 0.606603
7 3 6 1431.94 1433.41 15.93 o 0.606279
17 1 3 81.70 81.94 1.12 o 0.606262
5 1 7 451.28 447.84 4.45 o 0.605770
0 5 5 80.93 80.67 1.03 o 0.605412
18 1 2 938.44 931.80 13.46 o 0.604628
1 5 5 121.17 119.75 1.50 o 0.604566
2 2 7 5428.21 5348.95 53.23 o 0.604062
11 0 6 2351.42 2310.29 24.76 o 0.603795
6 0 7 4437.22 4366.95 43.50 o 0.602966
5 6 3 553.07 538.98 6.88 o 0.602401
0 4 6 46.58 45.45 0.56 o 0.602304
2 5 5 31.32 30.53 0.41 o 0.602050
18 2 1 607.46 588.41 8.83 o 0.601963
14 0 5 12.40 12.10 0.15 o 0.601920
15 2 4 128.32 124.82 1.72 o 0.601783
8 5 4 89.87 87.26 1.24 o 0.601659
16 0 4 2214.69 2149.22 29.81 o 0.601529
1 4 6 78.31 76.52 0.94 o 0.601472
12 5 2 1481.96 1441.24 19.50 o 0.601139
3 2 7 612.32 599.77 6.62 o 0.599896
9 6 1 2382.78 2311.38 30.54 o 0.599842
17 3 1 99.53 96.33 1.54 o 0.599177
2 4 6 84.48 82.17 1.10 o 0.598994
13 2 5 791.33 769.04 10.73 o 0.598866
3 5 5 789.77 776.25 12.42 o 0.597926
8 6 2 887.98 867.42 12.91 o 0.597512
11 1 6 732.35 711.52 9.35 o 0.597446
13 5 1 990.80 969.69 14.88 o 0.596906
19 0 1 2.44 2.42 0.05 o 0.596779
6 1 7 834.96 806.75 9.67 o 0.596643
10 2 6 1409.28 1372.09 19.12 o 0.595806
14 1 5 640.16 625.86 9.40 o 0.595629
9 4 5 1337.32 1307.23 20.51 o 0.595543
16 1 4 12.44 12.14 0.22 o 0.595250
3 4 6 466.73 452.80 6.69 o 0.594932
4 2 7 4.74 4.60 0.07 o 0.594207
14 3 4 968.52 935.59 15.87 o 0.594134
8 3 6 145.26 140.14 2.15 o 0.593902
6 6 3 1341.70 1288.30 22.04 o 0.593422
11 5 3 1428.85 1364.09 24.58 o 0.592953
12 4 4 1318.18 1252.08 23.34 o 0.592764
7 0 7 713.57 690.73 10.01 o 0.592369
4 5 5 46.60 44.20 0.87 o 0.592292
15 4 2 1890.01 1801.61 36.89 o 0.591474
19 1 1 73.08 68.86 1.98 o 0.590646
10 6 0 90.64 87.58 1.81 o 0.589887
4 4 6 95.73 92.98 1.91 o 0.589381
14 4 3 1572.26 1573.79 40.31 o 0.588282
12 3 5 20.60 20.70 0.46 o 0.588193
9 5 4 643.13 648.25 15.80 o 0.587999
16 4 0 670.99 679.58 15.68 o 0.587917
17 2 3 75.75 77.16 1.98 o 0.587572
5 2 7 27.54 26.72 0.34 o 0.587124
2 7 0 327.29 323.31 4.60 o 0.586963
7 1 7 16.18 15.69 0.19 o 0.586369
18 2 2 290.31 293.57 5.31 o 0.586084
0 6 4 206.00 201.33 2.87 o 0.585368
12 0 6 787.79 765.45 9.30 o 0.585342
5 5 5 1.42 1.39 0.04 o 0.585277
0 7 1 1189.38 1155.06 13.90 o 0.584954
10 6 1 711.39 689.86 8.46 o 0.584769
1 6 4 715.19 693.67 9.31 o 0.584604
18 0 3 1547.62 1500.43 20.79 o 0.584265
1 7 1 2729.83 2640.03 30.52 o 0.584191
9 6 2 630.15 609.13 7.35 o 0.584126
17 3 2 3162.61 3050.33 38.34 o 0.583511
16 3 3 1018.64 982.48 12.34 o 0.583457
7 6 3 1539.69 1485.13 17.63 o 0.583312
16 4 1 581.27 559.40 6.59 o 0.582850
5 4 6 0.74 0.72 0.01 o 0.582468
2 6 4 126.64 121.42 1.42 o 0.582328
2 7 1 3.63 3.49 0.04 o 0.581920
13 5 2 2785.61 2654.29 29.63 o 0.581414
19 0 2 1798.76 1702.47 24.14 o 0.581296
14 5 0 2155.23 2040.87 22.49 o 0.581007
8 0 7 2.98 2.82 0.03 o 0.580809
10 4 5 170.02 160.54 1.82 o 0.580784
9 3 6 807.73 762.48 7.72 o 0.580752
12 1 6 109.98 102.59 1.09 o 0.579551
11 2 6 2106.13 1964.15 20.65 o 0.579536
15 0 5 358.19 334.79 3.92 o 0.579130
6 2 7 3969.70 3712.02 35.83 o 0.578803
3 6 4 549.82 512.80 6.51 o 0.578594
18 1 3 560.03 521.64 7.14 o 0.578506
3 7 1 1902.00 1778.32 19.77 o 0.578193
4 7 0 575.44 538.44 5.95 o 0.577909
14 2 5 11.43 10.64 0.13 o 0.577877
16 2 4 1981.84 1840.57 24.42 o 0.577531
18 3 0 2998.94 2773.26 37.99 o 0.577136
0 3 7 642.50 601.76 6.01 o 0.577056
6 5 5 216.00 200.42 2.61 o 0.577032
1 3 7 245.83 229.70 2.37 o 0.576324
14 5 1 216.62 202.10 2.41 o 0.576115
17 0 4 53.60 49.79 0.65 o 0.575843
19 1 2 11.65 10.86 0.16 o 0.575624
12 5 3 1627.27 1505.74 19.09 o 0.575448
8 1 7 1045.24 975.92 10.29 o 0.575150
6 4 6 587.35 545.07 6.89 o 0.574340
2 3 7 91.21 84.95 0.96 o 0.574143
13 4 4 262.51 245.73 3.56 o 0.573826
10 5 4 2275.49 2130.35 30.71 o 0.573780
15 1 5 5090.03 4769.09 65.67 o 0.573520
4 6 4 291.27 273.59 4.00 o 0.573484
19 2 1 2.21 2.08 0.03 o 0.573323
4 7 1 1069.53 1004.93 13.23 o 0.573094
18 3 1 383.26 363.18 5.74 o 0.572340
8 6 3 550.69 522.24 7.75 o 0.572264
15 3 4 3.28 3.11 0.05 o 0.572185
20 0 0 55.05 51.73 1.03 o 0.572110
3 3 7 49.01 46.66 0.57 o 0.570563
17 1 4 1258.92 1194.04 22.98 o 0.570327
10 6 2 605.25 575.13 9.01 o 0.570180
13 3 5 49.33 47.17 0.80 o 0.569676
1 7 2 918.54 871.31 12.82 o 0.569644
7 2 7 627.26 595.98 7.42 o 0.569409
11 6 1 203.26 193.81 3.00 o 0.569363
9 0 7 35.20 33.30 0.44 o 0.568491
16 4 2 5.77 5.55 0.10 o 0.568401
7 5 5 1930.61 1847.26 29.80 o 0.567724
2 7 2 323.50 309.34 4.76 o 0.567538
20 0 1 693.55 662.75 12.12 o 0.567438
5 6 4 656.91 626.17 10.18 o 0.567109
13 0 6 62.40 59.55 0.90 o 0.567085
10 3 6 1346.72 1284.97 19.48 o 0.567041
15 4 3 204.63 195.08 3.22 o 0.566953
5 7 1 2583.49 2456.05 37.43 o 0.566732
20 1 0 3238.62 3089.08 54.85 o 0.566700
11 4 5 1284.24 1216.75 20.03 o 0.565683
4 3 7 714.52 679.33 9.89 o 0.565661
7 4 6 1093.11 1039.39 16.40 o 0.565159
3 7 2 477.94 451.81 7.51 o 0.564079
6 7 0 555.11 526.38 8.39 o 0.563708
9 1 7 283.55 270.13 3.64 o 0.563182
12 2 6 714.02 677.59 11.08 o 0.563160
18 2 3 1394.01 1330.42 32.71 o 0.562201
20 1 1 261.28 249.68 6.92 o 0.562158
14 5 2 226.95 217.09 4.20 o 0.562149
13 1 6 469.36 444.68 7.24 o 0.561815
9 6 3 80.11 76.05 1.33 o 0.560472
17 3 3 63.22 60.09 1.10 o 0.559929
6 6 4 896.73 849.85 15.09 o 0.559599
19 2 2 1636.55 1552.20 29.20 o 0.559554
5 3 7 342.68 324.69 4.96 o 0.559541
17 4 1 4465.08 4225.65 75.03 o 0.559393
4 7 2 249.80 236.83 3.89 o 0.559341
6 7 1 31.28 29.73 0.47 o 0.559237
11 5 4 9.32 8.80 0.16 o 0.559205
8 2 7 1.90 1.80 0.04 o 0.559119
18 3 2 734.95 693.81 12.64 o 0.558641
12 6 0 1892.56 1792.42 28.47 o 0.558153
13 5 3 268.09 253.79 4.33 o 0.558074
19 0 3 12.50 11.76 0.22 o 0.557970
15 2 5 318.12 300.78 4.88 o 0.557621
8 5 5 2.65 2.50 0.05 o 0.557523
16 0 5 43.62 41.12 0.67 o 0.557420
0 0 8 1964.56 1872.69 22.46 o 0.556125
15 5 1 124.99 117.23 2.04 o 0.556038
11 6 2 1631.93 1533.80 25.56 o 0.555871
10 0 7 2356.01 2239.34 28.71 o 0.555611
1 0 8 48.69 46.46 0.55 o 0.555469
14 4 4 2637.03 2501.12 46.29 o 0.555282
8 4 6 277.51 262.30 4.18 o 0.555093
17 2 4 47.81 45.56 0.81 o 0.554685
20 0 2 197.35 189.06 3.74 o 0.554079
12 6 1 334.60 320.90 4.85 o 0.553812
2 0 8 3.73 3.57 0.04 o 0.553516
5 7 2 1372.21 1316.81 19.34 o 0.553422
11 3 6 575.96 555.59 7.92 o 0.552961
19 1 3 2203.60 2113.22 37.10 o 0.552948
16 1 5 98.60 95.23 1.42 o 0.552412
6 3 7 661.35 637.89 8.19 o 0.552324
18 0 4 2629.64 2556.76 40.67 o 0.551900
14 3 5 502.75 488.22 7.17 o 0.551519
20 2 0 54.75 53.26 0.90 o 0.551347
16 3 4 15.49 15.09 0.25 o 0.551219
1 5 6 1321.19 1280.83 18.40 o 0.551175
7 6 4 315.44 306.32 4.60 o 0.551097
7 7 1 894.83 861.50 11.67 o 0.550751
10 1 7 1499.59 1441.46 18.02 o 0.550652
1 1 8 1671.40 1613.21 18.73 o 0.550514
12 4 5 82.62 79.53 1.19 o 0.550423
3 0 8 381.53 368.34 4.27 o 0.550306
2 5 6 2714.49 2618.38 38.59 o 0.549266
14 0 6 1439.22 1392.88 19.00 o 0.549167
20 1 2 617.22 590.64 10.77 o 0.549160
2 1 8 53.37 51.97 0.62 o 0.548612
0 7 3 2631.69 2553.40 38.62 o 0.548269
10 6 3 1214.03 1175.93 18.37 o 0.548118
9 2 7 30.78 29.99 0.40 o 0.548106
1 7 3 85.96 83.61 1.34 o 0.547641
19 3 1 74.13 71.84 1.28 o 0.547557
20 2 1 627.67 605.80 11.58 o 0.547161
18 1 4 138.51 134.45 2.37 o 0.547039
13 2 6 53.97 52.73 0.81 o 0.546845
9 5 5 35.69 34.75 0.64 o 0.546602
17 4 2 9.53 9.27 0.17 o 0.546581
16 4 3 1276.22 1242.29 22.51 o 0.546536
6 7 2 103.31 101.04 1.63 o 0.546436
3 5 6 1321.61 1290.78 22.22 o 0.546129
4 0 8 1619.56 1599.76 20.33 o 0.545904
2 7 3 1.62 1.58 0.03 o 0.545769
3 1 8 1832.55 1813.65 23.05 o 0.545486
8 7 0 1615.25 1588.26 26.05 o 0.545478
12 5 4 21.48 21.79 0.48 o 0.544450
14 1 6 471.16 474.98 7.82 o 0.544377
9 4 6 30.45 30.92 0.57 o 0.544311
7 3 7 12.84 12.84 0.19 o 0.544144
1 6 5 2255.07 2321.54 48.39 o 0.543871
15 5 2 3.85 3.94 0.07 o 0.543451
3 7 3 16.06 16.39 0.28 o 0.542691
11 0 7 409.12 416.74 5.26 o 0.542346
2 6 5 512.95 526.28 9.34 o 0.542037
4 5 6 40.11 41.36 0.64 o 0.541826
8 6 4 539.93 556.58 9.02 o 0.541752
8 7 1 782.30 792.42 10.47 o 0.541423
12 6 2 145.55 149.21 2.11 o 0.541372
18 4 0 118.83 122.52 1.90 o 0.541331
4 1 8 197.25 196.18 2.16 o 0.541198
14 5 3 205.86 210.17 3.04 o 0.540972
21 0 1 4013.66 4158.05 75.21 o 0.540826
16 5 0 3104.37 3132.09 42.62 o 0.540688
1 4 7 200.49 199.12 2.43 o 0.540661
5 0 8 3.07 3.05 0.05 o 0.540397
3 6 5 2365.10 2326.37 30.01 o 0.539022
2 4 7 3917.19 3884.52 44.25 o 0.538859
12 3 6 78.80 77.88 0.94 o 0.538682
19 2 3 11.33 11.10 0.15 o 0.538658
7 7 2 185.49 183.22 2.14 o 0.538511
4 7 3 2337.63 2303.56 27.73 o 0.538468
13 6 1 3082.51 3039.48 35.98 o 0.538274
16 2 5 37.33 36.67 0.46 o 0.538162
18 3 3 470.03 461.10 6.12 o 0.537843
11 1 7 170.01 168.22 1.79 o 0.537731
18 4 1 447.82 439.03 5.62 o 0.537368
15 4 4 104.78 102.68 1.32 o 0.537239
0 2 8 1765.12 1745.52 17.11 o 0.536997
17 0 5 457.89 449.05 5.55 o 0.536795
16 5 1 396.57 388.87 4.77 o 0.536739
10 2 7 2132.43 2101.74 22.05 o 0.536535
5 5 6 968.98 947.87 11.53 o 0.536440
1 2 8 47.33 46.75 0.46 o 0.536407
21 1 1 131.74 126.94 2.07 o 0.536249
3 4 7 420.52 412.56 4.54 o 0.535896
5 1 8 1102.60 1092.84 10.65 o 0.535831
19 3 2 9.54 9.28 0.13 o 0.535524
11 6 3 691.48 671.64 8.74 o 0.535370
13 4 5 627.67 612.12 8.18 o 0.535161
20 2 2 171.92 169.38 2.60 o 0.535154
8 3 7 878.93 861.24 9.42 o 0.535143
10 5 5 357.12 349.14 4.77 o 0.535124
4 6 5 22.75 22.37 0.32 o 0.534883
2 2 8 3.18 3.16 0.03 o 0.534647
6 0 8 18.32 18.12 0.19 o 0.533887
15 3 5 4118.34 4121.97 57.07 o 0.533829
20 0 3 1397.09 1393.60 21.80 o 0.533768
18 2 4 2365.93 2380.22 34.99 o 0.533190
5 7 3 281.31 283.60 3.85 o 0.533181
10 4 6 990.61 1002.08 13.21 o 0.532974
17 1 5 9.65 9.80 0.14 o 0.532319
4 4 7 2.19 2.23 0.03 o 0.531828
3 2 8 351.00 357.72 4.07 o 0.531753
9 6 4 407.74 415.25 5.94 o 0.531715
15 0 6 2258.94 2297.45 29.69 o 0.531695
9 7 1 1549.89 1580.06 20.82 o 0.531404
17 3 4 1018.13 1041.52 15.93 o 0.531251
14 2 6 1289.36 1323.54 18.29 o 0.530725
6 5 6 1894.19 1973.10 31.09 o 0.530070
8 7 2 655.70 685.33 10.62 o 0.529782
5 6 5 1563.76 1649.51 28.51 o 0.529700
13 5 4 784.05 827.39 14.26 o 0.529666
19 0 4 86.30 91.06 1.62 o 0.529578
6 1 8 108.66 112.67 1.35 o 0.529482
20 1 3 404.82 426.37 8.09 o 0.529366
21 0 2 59.71 63.08 1.29 o 0.529223
12 0 7 8.77 9.25 0.14 o 0.528855
20 3 0 2626.91 2794.95 56.58 o 0.528316
4 2 8 1458.89 1534.01 18.32 o 0.527778
15 1 6 104.30 110.24 1.70 o 0.527344
17 4 3 41.84 44.65 0.92 o 0.527056
6 7 3 17.21 18.18 0.30 o 0.526925
13 6 2 167.05 176.45 2.90 o 0.526831
5 4 7 19.45 20.45 0.28 o 0.526732
14 6 0 1.19 1.25 0.04 o 0.526528
7 0 8 1000.01 1046.60 11.56 o 0.526489
18 4 2 192.09 203.30 3.47 o 0.525981
9 3 7 220.00 230.37 2.88 o 0.525462
16 5 2 891.02 934.56 13.43 o 0.525391
19 1 4 0.77 0.81 0.01 o 0.525278
21 1 2 2368.03 2471.79 39.54 o 0.524932
20 3 1 217.49 225.95 3.21 o 0.524630
12 1 7 1188.49 1252.19 14.71 o 0.524572
11 2 7 365.04 384.49 4.56 o 0.524561
10 7 0 937.70 984.03 12.21 o 0.524445
13 3 6 399.82 418.93 5.28 o 0.524351
15 5 3 1625.52 1691.82 22.57 o 0.524247
6 6 5 313.54 327.29 4.23 o 0.523565
11 5 5 2793.07 2916.16 36.49 o 0.523242
21 2 1 3616.01 3753.83 51.14 o 0.523185
14 6 1 486.32 507.14 5.94 o 0.522879
7 5 6 906.77 944.80 11.27 o 0.522827
5 2 8 2.05 2.14 0.03 o 0.522796
12 6 3 791.82 822.38 9.82 o 0.522380
7 1 8 1389.72 1445.46 14.96 o 0.522263
11 4 6 1548.93 1604.44 19.05 o 0.521232
10 6 4 1567.56 1622.87 20.59 o 0.521132
10 7 1 78.27 81.18 0.95 o 0.520839
1 7 4 53.77 55.68 0.72 o 0.520722
6 4 7 2911.35 3025.49 34.76 o 0.520698
9 7 2 1628.44 1694.48 20.92 o 0.520385
22 0 0 689.78 715.02 12.39 o 0.520100
14 4 5 8.99 9.37 0.13 o 0.520024
7 7 3 324.59 339.50 4.56 o 0.519809
16 4 4 1454.26 1520.60 22.74 o 0.519772
17 2 5 426.80 447.99 6.38 o 0.519533
2 7 4 3648.56 3812.25 54.64 o 0.519112
8 0 8 891.49 923.77 10.25 o 0.518322
17 5 1 61.64 63.49 0.92 o 0.518252
18 0 5 23.41 24.09 0.37 o 0.517243
19 3 3 1773.15 1835.14 30.73 o 0.517120
6 2 8 15.67 16.17 0.20 o 0.516895
20 2 3 1267.60 1315.01 23.11 o 0.516787
19 4 1 1.67 1.73 0.03 o 0.516698
16 3 5 79.44 81.94 1.31 o 0.516682
22 0 1 297.31 309.42 5.99 o 0.516582
7 6 5 1699.95 1758.46 29.04 o 0.516581
3 7 4 3.17 3.29 0.06 o 0.516461
0 8 0 4707.05 4835.34 68.93 o 0.516317
22 1 0 2325.48 2405.04 45.03 o 0.516025
13 0 7 147.87 153.23 2.26 o 0.515274
10 3 7 1212.91 1255.69 18.98 o 0.515241
1 3 8 1361.73 1411.36 19.68 o 0.515128
14 5 4 668.71 689.09 11.94 o 0.514979
15 2 6 2043.61 2116.74 34.13 o 0.514905
8 5 6 80.53 83.07 1.42 o 0.514828
16 0 6 998.17 1033.87 16.59 o 0.514746
8 1 8 556.49 580.33 8.32 o 0.514289
2 8 0 7.52 7.82 0.13 o 0.514227
20 3 2 495.10 507.16 10.52 o 0.514018
7 4 7 441.22 456.47 7.43 o 0.513828
2 3 8 49.20 51.32 0.77 o 0.513569
18 1 5 351.84 365.23 7.48 o 0.513235
19 2 4 80.65 84.02 1.92 o 0.512981
4 7 4 20.45 21.33 0.47 o 0.512818
21 2 2 54.22 56.60 1.47 o 0.512659
22 1 1 447.66 469.74 12.86 o 0.512589
14 6 2 387.28 406.76 8.74 o 0.512371
1 8 1 68.92 72.24 1.34 o 0.512360
12 2 7 9.07 9.47 0.18 o 0.512324
18 3 4 121.91 128.23 3.15 o 0.512277
8 7 3 1645.19 1732.06 37.51 o 0.511945
21 0 3 35.27 38.06 1.13 o 0.511440
13 1 7 66.21 68.81 1.26 o 0.511311
12 5 5 14.63 15.60 0.36 o 0.511095
3 3 8 1486.38 1527.61 25.96 o 0.511002
2 8 1 515.43 535.33 10.19 o 0.510826
16 1 6 4.18 4.38 0.11 o 0.510795
10 7 2 1.62 1.69 0.04 o 0.510451
7 2 8 910.17 934.20 16.31 o 0.510172
11 6 4 150.33 157.62 3.47 o 0.510139
14 3 6 393.77 408.64 8.35 o 0.510089
11 7 1 301.77 311.63 6.21 o 0.509865
9 0 8 24.41 25.05 0.47 o 0.509512
13 6 3 0.68 0.69 0.03 o 0.509280
12 4 6 539.20 552.86 11.62 o 0.509222
8 6 5 52.72 53.66 1.22 o 0.508861
20 0 4 1662.75 1683.51 39.15 o 0.508753
18 4 3 1037.95 1051.05 24.01 o 0.508512
3 8 1 12.92 13.21 0.31 o 0.508300
5 7 4 189.57 191.93 4.27 o 0.508244
4 8 0 3985.68 4073.07 82.86 o 0.508106
17 5 2 2128.78 2152.02 48.21 o 0.508015
16 5 3 702.07 708.93 16.02 o 0.507979
15 6 1 56.44 57.20 1.26 o 0.507731
21 1 3 2.17 2.16 0.06 o 0.507564
4 3 8 159.25 163.98 3.03 o 0.507471
19 4 2 1246.18 1243.58 30.34 o 0.506551
22 0 2 4.08 4.00 0.13 o 0.506442
8 4 7 0.46 0.47 0.02 o 0.506229
9 5 6 562.20 566.08 12.74 o 0.506191
9 1 8 563.47 575.02 9.62 o 0.505679
15 4 5 229.31 234.10 5.51 o 0.505116
20 1 4 258.42 267.83 6.90 o 0.504937
4 8 1 34.14 34.65 0.67 o 0.504825
11 3 7 136.04 138.13 2.67 o 0.504609
0 6 6 44.82 46.39 1.08 o 0.504510
22 2 0 633.34 662.26 17.26 o 0.504353
1 6 6 60.42 62.71 1.41 o 0.504020
18 5 0 1979.56 2051.51 44.76 o 0.503791
0 5 7 476.14 491.44 10.08 o 0.503738
9 7 3 284.28 294.33 6.31 o 0.503450
21 3 1 106.69 110.87 2.56 o 0.503384
1 5 7 150.37 155.58 3.21 o 0.503251
5 3 8 910.73 937.29 17.18 o 0.503038
0 8 2 1171.61 1211.58 24.43 o 0.502947
17 4 4 34.80 36.10 0.80 o 0.502930
6 7 4 2586.20 2681.04 57.31 o 0.502817
8 2 8 808.42 831.61 14.93 o 0.502732
22 1 2 832.81 861.14 20.54 o 0.502678
2 6 6 47.55 49.24 1.06 o 0.502560
1 8 2 950.55 982.06 19.51 o 0.502462
2 5 7 59.16 61.06 1.21 o 0.501797
12 7 0 2065.24 2130.46 41.56 o 0.501768
18 2 5 20.72 21.34 0.46 o 0.501747
14 0 7 906.10 935.94 17.29 o 0.501721
22 2 1 270.36 275.74 6.77 o 0.501143
2 8 2 27.91 28.66 0.55 o 0.501015
18 5 1 265.67 271.90 5.77 o 0.500592
9 6 5 853.22 871.61 19.34 o 0.500516
15 5 4 1.53 1.56 0.04 o 0.500488
5 8 1 514.87 524.16 9.73 o 0.500460
20 4 0 49.89 50.91 1.17 o 0.500438
10 0 8 10.56 10.71 0.19 o 0.500177
3 6 6 302.54 306.90 6.86 o 0.500153
17 3 5 7.50 7.61 0.17 o 0.500129
11 7 2 45.65 46.25 0.92 o 0.500108
13 2 7 132.13 133.66 2.47 o 0.499949
16 2 6 905.88 910.29 19.00 o 0.499466
3 5 7 29.85 29.98 0.62 o 0.499402
12 6 4 821.74 822.57 19.03 o 0.498863
13 5 5 26.63 26.65 0.64 o 0.498807
19 0 5 4.20 4.21 0.10 o 0.498732
3 8 2 1093.66 1098.78 22.03 o 0.498630
12 7 1 469.54 471.24 9.66 o 0.498606
6 8 0 39.14 39.15 0.78 o 0.498374
17 0 6 31.47 31.60 0.65 o 0.498373
15 6 2 1190.69 1194.00 25.34 o 0.498094
14 1 7 1594.12 1585.73 29.27 o 0.498061
9 4 7 21.43 21.40 0.42 o 0.498011
6 3 8 94.32 93.04 1.58 o 0.497775
20 3 3 340.46 340.24 8.00 o 0.497678
20 4 1 471.73 469.38 10.30 o 0.497302
13 4 6 36.64 36.09 0.73 o 0.497064
10 5 6 906.63 893.49 18.07 o 0.497034
4 6 6 76.70 75.47 1.57 o 0.496842
7 7 4 1.76 1.72 0.04 o 0.496622
10 1 8 209.37 203.57 3.40 o 0.496550
21 2 3 30.12 29.41 0.71 o 0.496444
14 6 3 971.29 942.07 18.49 o 0.496183
4 5 7 521.06 503.01 9.37 o 0.496105
15 3 6 84.05 81.00 1.54 o 0.495997
16 6 0 441.40 425.07 8.09 o 0.495964
4 8 2 919.58 883.47 16.63 o 0.495349
6 8 1 464.00 446.16 8.24 o 0.495276
19 1 5 3578.54 3421.73 70.37 o 0.495136
17 1 6 243.89 233.95 4.61 o 0.494785
9 2 8 20.91 20.25 0.37 o 0.494680
10 7 3 58.06 55.75 1.13 o 0.494439
23 0 1 19.19 18.17 0.46 o 0.494406
19 3 4 0.66 0.63 0.01 o 0.494276
21 3 2 1960.28 1871.46 42.67 o 0.493988
20 2 4 1506.31 1439.13 32.45 o 0.493985
1 0 9 346.03 336.28 5.44 o 0.493873
12 3 7 990.17 954.14 18.31 o 0.493688
16 6 1 355.77 339.29 7.26 o 0.492910
5 6 6 0.04 0.04 0.01 o 0.492679
2 0 9 938.65 910.58 14.98 o 0.492498
17 5 3 40.44 38.59 0.96 o 0.492224
5 5 7 213.55 204.51 4.53 o 0.491961
22 2 2 3.45 3.32 0.11 o 0.491869
0 7 5 33.17 32.01 0.87 o 0.491769
7 3 8 1133.85 1091.30 20.40 o 0.491762
10 6 5 100.50 97.46 2.58 o 0.491659
18 5 2 477.89 465.54 12.34 o 0.491348
1 7 5 90.03 87.74 2.41 o 0.491315
5 8 2 647.29 624.79 14.00 o 0.491223
23 1 1 120.01 120.81 3.90 o 0.490902
19 4 3 8.54 8.50 0.24 o 0.490892
0 1 9 79.06 76.12 1.23 o 0.490831
22 0 3 804.96 804.41 25.14 o 0.490792
16 4 5 24.81 24.58 0.68 o 0.490517
11 0 8 1525.83 1478.20 26.40 o 0.490434
1 1 9 1153.90 1106.47 17.26 o 0.490380
3 0 9 91.60 87.67 1.37 o 0.490233
2 7 5 15.74 15.72 0.41 o 0.489962
8 7 4 32.99 32.85 0.82 o 0.489751
0 4 8 1305.80 1270.74 23.50 o 0.489634
12 7 2 736.56 726.83 15.35 o 0.489470
7 8 1 89.36 87.46 1.76 o 0.489353
21 0 4 3.92 3.88 0.10 o 0.489309
10 4 7 1601.98 1569.14 31.13 o 0.489283
1 4 8 40.92 39.72 0.72 o 0.489186
2 1 9 27.23 26.08 0.42 o 0.489034
15 0 7 122.99 118.55 2.13 o 0.488293
20 4 2 119.02 115.30 2.49 o 0.488236
2 4 8 2.10 2.01 0.04 o 0.487851
3 7 5 470.51 453.77 9.11 o 0.487731
6 6 6 339.59 326.97 6.53 o 0.487731
14 2 7 828.18 790.69 14.12 o 0.487541
11 5 6 376.73 361.92 7.00 o 0.487470
13 6 4 153.78 147.51 2.91 o 0.487416
22 1 3 680.54 650.87 13.98 o 0.487364
13 7 1 505.40 482.07 8.96 o 0.487177
1 8 3 645.80 615.60 11.52 o 0.487167
4 0 9 70.43 67.45 1.16 o 0.487113
6 5 7 436.64 416.69 7.73 o 0.487034
11 1 8 678.68 648.32 11.47 o 0.487013
3 1 9 1080.68 1033.14 17.81 o 0.486816
18 4 4 1755.71 1665.93 33.23 o 0.486743
22 3 0 1906.03 1804.82 37.06 o 0.486544
14 5 5 328.26 310.93 6.14 o 0.486482
6 8 2 184.72 175.12 3.36 o 0.486318
16 5 4 16.30 15.43 0.33 o 0.486275
10 2 8 9.03 8.62 0.17 o 0.486124
21 1 4 798.46 753.31 15.77 o 0.485911
2 8 3 739.48 700.03 13.81 o 0.485848
3 4 8 272.63 258.32 4.95 o 0.485648
8 8 0 2400.99 2273.62 44.77 o 0.485642
23 0 2 1091.98 1012.89 24.28 o 0.485494
8 3 8 454.99 430.85 8.50 o 0.485088
11 7 3 758.73 712.05 15.45 o 0.485021
15 1 7 275.11 260.39 5.40 o 0.484916
14 4 6 948.47 885.80 19.89 o 0.484865
19 2 5 3.82 3.55 0.09 o 0.484797
4 7 5 18.96 17.57 0.46 o 0.484659
17 2 6 28.44 26.44 0.63 o 0.484467
18 3 5 287.79 265.10 7.42 o 0.484203
