#------------------------------------------------------------------------------
#$Date: 2016-06-17 04:50:27 +0300 (Fri, 17 Jun 2016) $
#$Revision: 183633 $
#$URL: file:///home/coder/svn-repositories/cod/cif/2/10/75/2107511.cif $
#------------------------------------------------------------------------------
#
# This file is available in the Crystallography Open Database (COD),
# http://www.crystallography.net/. The original data for this entry
# were provided by IUCr Journals, http://journals.iucr.org/.
#
# The file may be used within the scientific community so long as
# proper attribution is given to the journal article from which the
# data were obtained.
#
data_2107511
loop_
_publ_author_name
'Sist, Mattia'
'Zhang, Jiawei'
'Brummerstedt Iversen, Bo'
_publ_section_title
;
 Crystal structure and phase transition of thermoelectric SnSe
;
_journal_coeditor_code           GW5043
_journal_issue                   3
_journal_name_full               'Acta Crystallographica Section B'
_journal_page_first              310
_journal_page_last               316
_journal_paper_doi               10.1107/S2052520616003334
_journal_volume                  72
_journal_year                    2016
_chemical_formula_moiety         'Se1 Sn0.9816'
_chemical_formula_sum            'Se Sn0.9816'
_chemical_formula_weight         195.50
_chemical_name_common            'Tin Selenide'
_space_group_IT_number           62
_symmetry_cell_setting           orthorhombic
_symmetry_Int_Tables_number      62
_symmetry_space_group_name_Hall  '-P 2ac 2n'
_symmetry_space_group_name_H-M   'P n m a'
_cell_angle_alpha                90
_cell_angle_beta                 90
_cell_angle_gamma                90
_cell_formula_units_Z            4
_cell_length_a                   11.49417(12)
_cell_length_b                   4.15096(5)
_cell_length_c                   4.44175(7)
_cell_measurement_temperature    300(5)
_cell_volume                     211.924(5)
_computing_structure_refinement  'Jana2006, (Petricek,2014)'
_diffrn_ambient_temperature      300(5)
_diffrn_detector_type            'Image plate'
_diffrn_measurement_device_type  BL44B2
_diffrn_radiation_probe          x-ray
_diffrn_radiation_type           Synchrotron,monochromatic
_diffrn_radiation_wavelength     0.50021
_diffrn_source_type              'Spring8, BL44B2 beamline'
_exptl_absorpt_coefficient_mu    11.215
_exptl_absorpt_correction_type   none
_exptl_crystal_density_diffrn    6.127
_exptl_crystal_F_000             332.3
_pd_char_colour                  metallic_grey
_pd_meas_2theta_range_inc        0.01
_pd_meas_2theta_range_max        77.970
_pd_meas_2theta_range_min        0.010
_pd_meas_number_of_points        7797
_pd_proc_2theta_range_inc        0.01
_pd_proc_2theta_range_max        48.15
_pd_proc_2theta_range_min        3.31
_pd_proc_ls_background_function
'Manual background combined with 8 Chebyshev polynoms'
_pd_proc_ls_pref_orient_corr     none
_pd_proc_ls_profile_function     Pseudo-Voigt
_pd_proc_ls_prof_R_factor        0.0163
_pd_proc_ls_prof_wR_expected     0.0140
_pd_proc_ls_prof_wR_factor       0.0222
_pd_spec_mounting                capillary
_pd_spec_mount_mode              transmission
_refine_ls_goodness_of_fit_all   1.59
_refine_ls_number_constraints    0
_refine_ls_number_parameters     32
_refine_ls_number_restraints     0
_refine_ls_R_factor_all          0.0183
_refine_ls_R_factor_gt           0.0183
_refine_ls_shift/su_max          0.0164
_refine_ls_shift/su_mean         0.0041
_refine_ls_weighting_scheme      sigma
_refine_ls_wR_factor_all         0.0152
_refine_ls_wR_factor_gt          0.0152
_cod_data_source_file            gw5043sup1.cif
_cod_data_source_block           300
_cod_depositor_comments
;
The following automatic conversions were performed:

'_diffrn_radiation_probe' value 'X-ray' changed to 'x-ray' according
to
/usr/data/users/saulius/crontab/automatic-downloads/rss-feeds/IUCr/lib/dictionaries/cif_core.dic
dictionary named 'cif_core.dic' version 2.4.2 from 2011-04-26.

Automatic conversion script
Id: cif_fix_values 4268 2015-11-12 08:31:59Z antanas 

 Adding full bibliography for 2107508--2107520.cif.
;
_cod_original_formula_sum        'Se1 Sn0.9816'
_cod_database_code               2107511
_cod_database_fobs_code          2107511
loop_
_space_group_symop_id
_space_group_symop_operation_xyz
1 x,y,z
2 -x+1/2,-y,z+1/2
3 -x,y+1/2,-z
4 x+1/2,-y+1/2,-z+1/2
5 -x,-y,-z
6 x+1/2,y,-z+1/2
7 x,-y+1/2,z
8 -x+1/2,y+1/2,z+1/2
loop_
_atom_site_label
_atom_site_type_symbol
_atom_site_fract_x
_atom_site_fract_y
_atom_site_fract_z
_atom_site_adp_type
_atom_site_U_iso_or_equiv
_atom_site_site_symmetry_multiplicity
_atom_site_occupancy
_atom_site_calc_flag
Sn Sn 0.11849(4) 0.25 0.10297(9) Uani 0.01313(18) 4 0.9816 d
Se Se 0.85523(5) 0.25 0.48204(11) Uani 0.0115(2) 4 1 d
loop_
_atom_site_aniso_label
_atom_site_aniso_type_symbol
_atom_site_aniso_U_11
_atom_site_aniso_U_22
_atom_site_aniso_U_33
_atom_site_aniso_U_12
_atom_site_aniso_U_13
_atom_site_aniso_U_23
Sn Sn 0.0125(3) 0.0129(3) 0.0140(3) 0 -0.0034(3) 0
Se Se 0.0120(4) 0.0116(4) 0.0111(4) 0 -0.0013(3) 0
loop_
_atom_type_symbol
_atom_type_scat_dispersion_real
_atom_type_scat_dispersion_imag
_atom_type_scat_source
Se 0.2899 1.2209 'International Tables Vol C tables 4.2.6.8 and 6.1.1.1'
Sn -1.5316 0.7679 'International Tables Vol C tables 4.2.6.8 and 6.1.1.1'
loop_
_geom_angle_atom_site_label_1
_geom_angle_atom_site_label_2
_geom_angle_atom_site_label_3
_geom_angle_site_symmetry_1
_geom_angle_site_symmetry_2
_geom_angle_site_symmetry_3
_geom_angle
Se Sn Se 4_455 1_555 3_656 89.059
Se Sn Se 4_455 1_555 3_655 78.664
Se Sn Se 3_645 1_555 3_655 76.856
Se Sn Se 3_646 1_555 3_656 96.028
Se Sn Se 3_656 1_555 3_655 92.402
Se Sn Se 4_455 1_555 1_455 158.808
Se Sn Sn 4_455 1_555 3_545 136.527
loop_
_geom_bond_atom_site_label_1
_geom_bond_atom_site_label_2
_geom_bond_site_symmetry_1
_geom_bond_site_symmetry_2
_geom_bond_distance
Sn Se 1_555 4_455 2.747
Sn Se 1_555 3_656 2.792
Sn Se 1_555 3_655 3.339
Sn Se 1_555 1_455 3.463
Sn Sn 1_555 3_545 3.545
Sn Se 1_555 1_454 4.094
loop_
_pd_proc_point_id
_pd_proc_2theta_corrected
_pd_proc_intensity_net
_pd_calc_intensity_net
_pd_proc_ls_weight
1 3.3100 3265.00 3125.59 57.00
2 3.3200 3230.00 3127.24 57.00
3 3.3300 3277.00 3128.89 57.00
4 3.3400 3219.00 3130.53 57.00
5 3.3500 3197.00 3132.16 57.00
6 3.3600 3194.00 3133.79 57.00
7 3.3700 3238.00 3135.41 57.00
8 3.3800 3266.00 3137.02 57.00
9 3.3900 3257.00 3138.62 57.00
10 3.4000 3232.00 3140.22 57.00
11 3.4100 3225.00 3141.81 57.00
12 3.4200 3234.00 3143.39 57.00
13 3.4300 3221.00 3144.97 57.00
14 3.4400 3240.00 3146.54 57.00
15 3.4500 3280.00 3148.10 57.00
16 3.4600 3237.00 3149.66 57.00
17 3.4700 3217.00 3151.21 57.00
18 3.4800 3227.00 3152.75 57.00
19 3.4900 3251.00 3154.29 57.00
20 3.5000 3241.00 3155.82 57.00
21 3.5100 3285.00 3157.34 57.00
22 3.5200 3260.00 3158.85 57.00
23 3.5300 3205.00 3160.36 57.00
24 3.5400 3239.00 3161.87 57.00
25 3.5500 3241.00 3163.36 57.00
26 3.5600 3226.00 3164.85 57.00
27 3.5700 3228.00 3166.33 57.00
28 3.5800 3210.00 3167.81 57.00
29 3.5900 3231.00 3169.28 57.00
30 3.6000 3206.00 3170.74 57.00
31 3.6100 3223.00 3172.19 57.00
32 3.6200 3226.00 3173.64 57.00
33 3.6300 3236.00 3175.09 57.00
34 3.6400 3223.00 3176.52 57.00
35 3.6500 3236.00 3177.95 57.00
36 3.6600 3237.00 3179.38 57.00
37 3.6700 3248.00 3180.79 57.00
38 3.6800 3262.00 3182.20 57.00
39 3.6900 3242.00 3183.61 57.00
40 3.7000 3236.00 3185.00 57.00
41 3.7100 3233.00 3186.40 57.00
42 3.7200 3248.00 3187.94 57.00
43 3.7300 3249.00 3189.32 57.00
44 3.7400 3234.00 3190.69 57.00
45 3.7500 3251.00 3192.06 57.00
46 3.7600 3229.00 3193.43 57.00
47 3.7700 3213.00 3194.78 57.00
48 3.7800 3231.00 3196.13 57.00
49 3.7900 3230.00 3197.48 57.00
50 3.8000 3258.00 3198.81 57.00
51 3.8100 3266.00 3200.15 57.00
52 3.8200 3246.00 3201.47 57.00
53 3.8300 3225.00 3202.79 57.00
54 3.8400 3259.00 3204.10 57.00
55 3.8500 3255.00 3205.41 57.00
56 3.8600 3228.00 3206.71 57.00
57 3.8700 3256.00 3208.01 57.00
58 3.8800 3234.00 3209.30 57.00
59 3.8900 3219.00 3210.58 57.00
60 3.9000 3250.00 3211.86 57.00
61 3.9100 3210.00 3213.13 57.00
62 3.9200 3233.00 3214.40 57.00
63 3.9300 3256.00 3215.66 57.00
64 3.9400 3254.00 3216.92 57.00
65 3.9500 3226.00 3218.16 57.00
66 3.9600 3222.00 3219.41 57.00
67 3.9700 3254.00 3220.65 57.00
68 3.9800 3250.00 3221.88 57.00
69 3.9900 3243.00 3223.10 57.00
70 4.0000 3238.00 3224.32 57.00
71 4.0100 3224.00 3225.54 57.00
72 4.0200 3219.00 3226.75 57.00
73 4.0300 3223.00 3227.95 57.00
74 4.0400 3216.00 3229.15 57.00
75 4.0500 3243.00 3230.34 57.00
76 4.0600 3243.00 3231.53 57.00
77 4.0700 3228.00 3232.71 57.00
78 4.0800 3242.00 3233.89 57.00
79 4.0900 3241.00 3235.06 57.00
80 4.1000 3254.00 3236.22 57.00
81 4.1100 3242.00 3237.38 57.00
82 4.1200 3222.00 3238.54 57.00
83 4.1300 3230.00 3239.69 57.00
84 4.1400 3245.00 3240.83 57.00
85 4.1500 3246.00 3241.97 57.00
86 4.1600 3257.00 3243.10 57.00
87 4.1700 3258.00 3244.23 57.00
88 4.1800 3230.00 3245.35 57.00
89 4.1900 3215.00 3246.47 57.00
90 4.2000 3252.00 3247.58 57.00
91 4.2100 3261.00 3248.69 57.00
92 4.2200 3227.00 3249.80 57.00
93 4.2300 3269.00 3250.89 57.00
94 4.2400 3237.00 3251.99 57.00
95 4.2500 3243.00 3253.08 57.00
96 4.2600 3228.00 3254.16 57.00
97 4.2700 3270.00 3255.24 57.00
98 4.2800 3249.00 3256.31 57.00
99 4.2900 3263.00 3257.38 57.00
100 4.3000 3222.00 3258.45 57.00
101 4.3100 3226.00 3259.51 57.00
102 4.3200 3233.00 3260.56 57.00
103 4.3300 3224.00 3261.61 57.00
104 4.3400 3266.00 3262.66 57.00
105 4.3500 3273.00 3263.70 57.00
106 4.3600 3252.00 3264.74 57.00
107 4.3700 3229.00 3265.77 57.00
108 4.3800 3266.00 3266.80 57.00
109 4.3900 3268.00 3267.83 57.00
110 4.4000 3226.00 3268.85 57.00
111 4.4100 3256.00 3269.87 57.00
112 4.4200 3261.00 3270.88 57.00
113 4.4300 3237.00 3271.89 57.00
114 4.4400 3252.00 3272.90 57.00
115 4.4500 3227.00 3273.91 57.00
116 4.4600 3257.00 3274.91 57.00
117 4.4700 3278.00 3275.91 57.00
118 4.4800 3246.00 3276.90 57.00
119 4.4900 3252.00 3277.89 57.00
120 4.5000 3250.00 3278.88 57.00
121 4.5100 3274.00 3279.87 57.00
122 4.5200 3282.00 3280.86 57.00
123 4.5300 3254.00 3281.84 57.00
124 4.5400 3239.00 3282.82 57.00
125 4.5500 3233.00 3283.81 57.00
126 4.5600 3264.00 3284.79 57.00
127 4.5700 3256.00 3285.77 57.00
128 4.5800 3229.00 3286.75 57.00
129 4.5900 3258.00 3287.73 57.00
130 4.6000 3254.00 3288.71 57.00
131 4.6100 3252.00 3289.70 57.00
132 4.6200 3260.00 3290.69 57.00
133 4.6300 3271.00 3291.68 57.00
134 4.6400 3293.00 3292.68 57.00
135 4.6500 3316.00 3293.68 58.00
136 4.6600 3297.00 3294.69 57.00
137 4.6700 3317.00 3295.71 58.00
138 4.6800 3338.00 3296.73 58.00
139 4.6900 3283.00 3297.78 57.00
140 4.7000 3283.00 3298.83 57.00
141 4.7100 3288.00 3299.91 57.00
142 4.7200 3237.00 3301.00 57.00
143 4.7300 3265.00 3302.12 57.00
144 4.7400 3271.00 3303.27 57.00
145 4.7500 3267.00 3304.46 57.00
146 4.7600 3259.00 3305.69 57.00
147 4.7700 3281.00 3306.97 57.00
148 4.7800 3285.00 3308.31 57.00
149 4.7900 3271.00 3309.74 57.00
150 4.8000 3290.00 3311.26 57.00
151 4.8100 3290.00 3312.89 57.00
152 4.8200 3288.00 3314.68 57.00
153 4.8300 3293.00 3316.65 57.00
154 4.8400 3296.00 3319.19 57.00
155 4.8500 3269.00 3321.71 57.00
156 4.8600 3280.00 3324.65 57.00
157 4.8700 3303.00 3328.14 57.00
158 4.8800 3336.00 3332.38 58.00
159 4.8900 3337.00 3337.70 58.00
160 4.9000 3364.00 3344.59 58.00
161 4.9100 3349.00 3354.01 58.00
162 4.9200 3396.00 3368.65 58.00
163 4.9300 3441.00 3398.84 59.00
164 4.9400 3556.00 3479.71 60.00
165 4.9500 3797.00 3694.73 62.00
166 4.9600 4212.00 4151.77 65.00
167 4.9700 4839.00 4844.34 70.00
168 4.9800 5365.00 5477.52 73.00
169 4.9900 5331.00 5541.84 73.00
170 5.0000 4688.00 4972.24 68.00
171 5.0100 4038.00 4260.90 64.00
172 5.0200 3576.00 3758.38 60.00
173 5.0300 3393.00 3510.32 58.00
174 5.0400 3327.00 3415.37 58.00
175 5.0500 3299.00 3381.55 57.00
176 5.0600 3283.00 3366.82 57.00
177 5.0700 3299.00 3358.26 57.00
178 5.0800 3278.00 3352.48 57.00
179 5.0900 3226.00 3348.40 57.00
180 5.1000 3250.00 3345.45 57.00
181 5.1100 3264.00 3343.31 57.00
182 5.1200 3252.00 3341.75 57.00
183 5.1300 3252.00 3340.63 57.00
184 5.1400 3255.00 3339.83 57.00
185 5.1500 3248.00 3339.28 57.00
186 5.1600 3257.00 3338.92 57.00
187 5.1700 3283.00 3338.72 57.00
188 5.1800 3255.00 3338.65 57.00
189 5.1900 3288.00 3338.67 57.00
190 5.2000 3237.00 3338.78 57.00
191 5.2100 3261.00 3338.95 57.00
192 5.2200 3262.00 3339.17 57.00
193 5.2300 3272.00 3339.44 57.00
194 5.2400 3268.00 3339.75 57.00
195 5.2500 3261.00 3340.09 57.00
196 5.2600 3242.00 3340.46 57.00
197 5.2700 3244.00 3340.85 57.00
198 5.2800 3252.00 3341.26 57.00
199 5.2900 3270.00 3341.69 57.00
200 5.3000 3240.00 3342.13 57.00
201 5.3100 3242.00 3342.58 57.00
202 5.3200 3273.00 3343.04 57.00
203 5.3300 3263.00 3343.51 57.00
204 5.3400 3286.00 3343.99 57.00
205 5.3500 3254.00 3344.48 57.00
206 5.3600 3259.00 3344.97 57.00
207 5.3700 3296.00 3345.46 57.00
208 5.3800 3246.00 3345.96 57.00
209 5.3900 3248.00 3346.46 57.00
210 5.4000 3258.00 3346.96 57.00
211 5.4100 3288.00 3347.46 57.00
212 5.4200 3280.00 3347.97 57.00
213 5.4300 3279.00 3348.47 57.00
214 5.4400 3254.00 3348.98 57.00
215 5.4500 3250.00 3349.48 57.00
216 5.4600 3267.00 3349.99 57.00
217 5.4700 3267.00 3350.50 57.00
218 5.4800 3289.00 3351.00 57.00
219 5.4900 3272.00 3351.51 57.00
220 5.5000 3246.00 3352.01 57.00
221 5.5100 3263.00 3352.51 57.00
222 5.5200 3290.00 3353.02 57.00
223 5.5300 3258.00 3353.52 57.00
224 5.5400 3310.00 3354.01 58.00
225 5.5500 3277.00 3354.51 57.00
226 5.5600 3234.00 3355.01 57.00
227 5.5700 3239.00 3355.50 57.00
228 5.5800 3268.00 3355.99 57.00
229 5.5900 3253.00 3356.49 57.00
230 5.6000 3272.00 3356.97 57.00
231 5.6100 3273.00 3357.46 57.00
232 5.6200 3258.00 3357.94 57.00
233 5.6300 3249.00 3358.43 57.00
234 5.6400 3265.00 3358.91 57.00
235 5.6500 3248.00 3359.39 57.00
236 5.6600 3279.00 3359.86 57.00
237 5.6700 3287.00 3360.34 57.00
238 5.6800 3251.00 3360.81 57.00
239 5.6900 3257.00 3361.28 57.00
240 5.7000 3271.00 3361.75 57.00
241 5.7100 3255.00 3362.21 57.00
242 5.7200 3261.00 3362.68 57.00
243 5.7300 3272.00 3363.14 57.00
244 5.7400 3275.00 3363.59 57.00
245 5.7500 3264.00 3364.05 57.00
246 5.7600 3278.00 3364.51 57.00
247 5.7700 3290.00 3364.96 57.00
248 5.7800 3266.00 3365.41 57.00
249 5.7900 3284.00 3365.86 57.00
250 5.8000 3264.00 3366.30 57.00
251 5.8100 3259.00 3366.75 57.00
252 5.8200 3257.00 3367.19 57.00
253 5.8300 3279.00 3367.63 57.00
254 5.8400 3297.00 3368.06 57.00
255 5.8500 3283.00 3368.50 57.00
256 5.8600 3260.00 3368.93 57.00
257 5.8700 3228.00 3369.36 57.00
258 5.8800 3251.00 3369.79 57.00
259 5.8900 3297.00 3370.22 57.00
260 5.9000 3257.00 3370.64 57.00
261 5.9100 3301.00 3371.07 57.00
262 5.9200 3264.00 3371.49 57.00
263 5.9300 3275.00 3371.91 57.00
264 5.9400 3269.00 3372.33 57.00
265 5.9500 3285.00 3372.74 57.00
266 5.9600 3297.00 3373.16 57.00
267 5.9700 3335.00 3373.57 58.00
268 5.9800 3274.00 3373.98 57.00
269 5.9900 3242.00 3374.39 57.00
270 6.0000 3294.00 3374.56 57.00
271 6.0100 3296.00 3374.73 57.00
272 6.0200 3309.00 3374.90 58.00
273 6.0300 3302.00 3375.07 57.00
274 6.0400 3322.00 3375.23 58.00
275 6.0500 3326.00 3375.40 58.00
276 6.0600 3309.00 3375.56 58.00
277 6.0700 3284.00 3375.72 57.00
278 6.0800 3311.00 3375.89 58.00
279 6.0900 3323.00 3376.05 58.00
280 6.1000 3335.00 3376.21 58.00
281 6.1100 3293.00 3376.37 57.00
282 6.1200 3315.00 3376.53 58.00
283 6.1300 3315.00 3376.68 58.00
284 6.1400 3307.00 3376.84 58.00
285 6.1500 3338.00 3377.00 58.00
286 6.1600 3310.00 3377.16 58.00
287 6.1700 3311.00 3380.44 58.00
288 6.1800 3301.00 3380.63 57.00
289 6.1900 3337.00 3380.82 58.00
290 6.2000 3295.00 3381.01 57.00
291 6.2100 3330.00 3381.20 58.00
292 6.2200 3311.00 3381.40 58.00
293 6.2300 3317.00 3381.59 58.00
294 6.2400 3285.00 3381.79 57.00
295 6.2500 3293.00 3381.99 57.00
296 6.2600 3332.00 3382.04 58.00
297 6.2700 3355.00 3382.24 58.00
298 6.2800 3300.00 3382.45 57.00
299 6.2900 3327.00 3382.66 58.00
300 6.3000 3306.00 3382.88 57.00
301 6.3100 3339.00 3383.10 58.00
302 6.3200 3340.00 3383.32 58.00
303 6.3300 3354.00 3383.55 58.00
304 6.3400 3331.00 3383.79 58.00
305 6.3500 3329.00 3384.03 58.00
306 6.3600 3322.00 3384.28 58.00
307 6.3700 3316.00 3384.53 58.00
308 6.3800 3342.00 3384.79 58.00
309 6.3900 3338.00 3385.06 58.00
310 6.4000 3303.00 3385.34 57.00
311 6.4100 3314.00 3385.63 58.00
312 6.4200 3341.00 3385.93 58.00
313 6.4300 3332.00 3386.24 58.00
314 6.4400 3347.00 3386.56 58.00
315 6.4500 3374.00 3386.90 58.00
316 6.4600 3324.00 3387.26 58.00
317 6.4700 3331.00 3387.63 58.00
318 6.4800 3340.00 3388.02 58.00
319 6.4900 3338.00 3388.43 58.00
320 6.5000 3335.00 3388.87 58.00
321 6.5100 3348.00 3389.33 58.00
322 6.5200 3339.00 3389.82 58.00
323 6.5300 3314.00 3390.34 58.00
324 6.5400 3312.00 3390.90 58.00
325 6.5500 3350.00 3391.50 58.00
326 6.5600 3329.00 3392.14 58.00
327 6.5700 3357.00 3392.82 58.00
328 6.5800 3352.00 3393.57 58.00
329 6.5900 3346.00 3394.37 58.00
330 6.6000 3352.00 3395.25 58.00
331 6.6100 3353.00 3396.20 58.00
332 6.6200 3360.00 3397.24 58.00
333 6.6300 3362.00 3398.38 58.00
334 6.6400 3350.00 3399.64 58.00
335 6.6500 3354.00 3401.03 58.00
336 6.6600 3365.00 3402.57 58.00
337 6.6700 3381.00 3405.30 58.00
338 6.6800 3358.00 3407.24 58.00
339 6.6900 3372.00 3409.43 58.00
340 6.7000 3366.00 3411.90 58.00
341 6.7100 3371.00 3414.71 58.00
342 6.7200 3376.00 3417.93 58.00
343 6.7300 3388.00 3421.65 58.00
344 6.7400 3415.00 3425.96 58.00
345 6.7500 3440.00 3431.01 59.00
346 6.7600 3430.00 3436.98 59.00
347 6.7700 3393.00 3444.09 58.00
348 6.7800 3427.00 3452.67 59.00
349 6.7900 3461.00 3463.20 59.00
350 6.8000 3459.00 3476.44 59.00
351 6.8100 3498.00 3493.82 59.00
352 6.8200 3526.00 3518.28 59.00
353 6.8300 3561.00 3555.83 60.00
354 6.8400 3675.00 3617.99 61.00
355 6.8500 3787.00 3723.96 62.00
356 6.8600 3941.00 3900.51 63.00
357 6.8700 4221.00 4175.83 65.00
358 6.8800 4560.00 4566.15 68.00
359 6.8900 5041.00 5056.90 71.00
360 6.9000 5638.00 5582.28 75.00
361 6.9100 6091.00 6007.08 78.00
362 6.9200 6319.00 6153.59 79.00
363 6.9300 6138.00 5942.06 78.00
364 6.9400 5617.00 5484.41 75.00
365 6.9500 5095.00 4957.65 71.00
366 6.9600 4632.00 4483.07 68.00
367 6.9700 4282.00 4115.08 65.00
368 6.9800 4019.00 3860.72 63.00
369 6.9900 3871.00 3700.15 62.00
370 7.0000 3758.00 3604.62 61.00
371 7.0100 3605.00 3548.58 60.00
372 7.0200 3589.00 3514.38 60.00
373 7.0300 3571.00 3491.78 60.00
374 7.0400 3520.00 3475.53 59.00
375 7.0500 3528.00 3463.07 59.00
376 7.0600 3481.00 3453.14 59.00
377 7.0700 3455.00 3445.04 59.00
378 7.0800 3494.00 3438.35 59.00
379 7.0900 3455.00 3432.76 59.00
380 7.1000 3436.00 3428.06 59.00
381 7.1100 3461.00 3424.06 59.00
382 7.1200 3445.00 3420.65 59.00
383 7.1300 3439.00 3417.72 59.00
384 7.1400 3424.00 3415.18 59.00
385 7.1500 3475.00 3412.99 59.00
386 7.1600 3416.00 3411.07 58.00
387 7.1700 3477.00 3409.40 59.00
388 7.1800 3463.00 3407.94 59.00
389 7.1900 3468.00 3406.66 59.00
390 7.2000 3457.00 3405.54 59.00
391 7.2100 3435.00 3404.56 59.00
392 7.2200 3452.00 3403.70 59.00
393 7.2300 3470.00 3402.94 59.00
394 7.2400 3421.00 3402.28 58.00
395 7.2500 3421.00 3401.71 58.00
396 7.2600 3456.00 3401.22 59.00
397 7.2700 3434.00 3400.80 59.00
398 7.2800 3427.00 3400.45 59.00
399 7.2900 3459.00 3400.15 59.00
400 7.3000 3471.00 3399.91 59.00
401 7.3100 3407.00 3399.73 58.00
402 7.3200 3433.00 3399.59 59.00
403 7.3300 3446.00 3399.50 59.00
404 7.3400 3433.00 3399.46 59.00
405 7.3500 3436.00 3399.45 59.00
406 7.3600 3424.00 3399.49 59.00
407 7.3700 3422.00 3399.57 58.00
408 7.3800 3425.00 3399.69 59.00
409 7.3900 3445.00 3399.84 59.00
410 7.4000 3436.00 3400.04 59.00
411 7.4100 3494.00 3400.27 59.00
412 7.4200 3456.00 3400.54 59.00
413 7.4300 3459.00 3400.84 59.00
414 7.4400 3477.00 3401.19 59.00
415 7.4500 3456.00 3401.57 59.00
416 7.4600 3461.00 3402.00 59.00
417 7.4700 3465.00 3402.46 59.00
418 7.4800 3450.00 3402.97 59.00
419 7.4900 3432.00 3403.52 59.00
420 7.5000 3470.00 3404.12 59.00
421 7.5100 3457.00 3404.76 59.00
422 7.5200 3478.00 3405.45 59.00
423 7.5300 3504.00 3406.20 59.00
424 7.5400 3470.00 3406.99 59.00
425 7.5500 3514.00 3407.85 59.00
426 7.5600 3572.00 3408.76 60.00
427 7.5700 3593.00 3409.74 60.00
428 7.5800 3608.00 3410.78 60.00
429 7.5900 3633.00 3411.90 60.00
430 7.6000 3587.00 3413.09 60.00
431 7.6100 3538.00 3414.36 59.00
432 7.6200 3554.00 3415.72 60.00
433 7.6300 3571.00 3417.17 60.00
434 7.6400 3515.00 3418.72 59.00
435 7.6500 3533.00 3420.37 59.00
436 7.6600 3507.00 3422.14 59.00
437 7.6700 3503.00 3424.04 59.00
438 7.6800 3508.00 3426.06 59.00
439 7.6900 3526.00 3428.23 59.00
440 7.7000 3556.00 3430.56 60.00
441 7.7100 3505.00 3437.45 59.00
442 7.7200 3511.00 3440.18 59.00
443 7.7300 3490.00 3443.12 59.00
444 7.7400 3523.00 3446.27 59.00
445 7.7500 3537.00 3449.67 59.00
446 7.7600 3532.00 3453.34 59.00
447 7.7700 3571.00 3457.30 60.00
448 7.7800 3538.00 3461.58 59.00
449 7.7900 3546.00 3466.22 60.00
450 7.8000 3523.00 3471.26 59.00
451 7.8100 3574.00 3476.75 60.00
452 7.8200 3572.00 3482.72 60.00
453 7.8300 3584.00 3489.26 60.00
454 7.8400 3561.00 3496.41 60.00
455 7.8500 3563.00 3504.27 60.00
456 7.8600 3585.00 3512.92 60.00
457 7.8700 3588.00 3522.47 60.00
458 7.8800 3625.00 3533.05 60.00
459 7.8900 3623.00 3544.82 60.00
460 7.9000 3661.00 3557.95 61.00
461 7.9100 3664.00 3572.65 61.00
462 7.9200 3695.00 3589.19 61.00
463 7.9300 3717.00 3607.88 61.00
464 7.9400 3712.00 3629.10 61.00
465 7.9500 3749.00 3653.34 61.00
466 7.9600 3764.00 3681.17 61.00
467 7.9700 3778.00 3713.35 61.00
468 7.9800 3847.00 3750.81 62.00
469 7.9900 3931.00 3794.74 63.00
470 8.0000 3990.00 3846.74 63.00
471 8.0100 4081.00 3930.26 64.00
472 8.0200 4143.00 4005.52 64.00
473 8.0300 4238.00 4097.60 65.00
474 8.0400 4420.00 4212.51 66.00
475 8.0500 4652.00 4360.67 68.00
476 8.0600 4926.00 4562.70 70.00
477 8.0700 5356.00 4861.88 73.00
478 8.0800 5946.00 5345.97 77.00
479 8.0900 6809.00 6173.68 83.00
480 8.1000 8201.00 7586.57 91.00
481 8.1100 10188.00 9869.91 101.00
482 8.1200 13196.00 13236.30 115.00
483 8.1300 17317.00 17634.30 132.00
484 8.1400 21868.00 22520.90 148.00
485 8.1500 25972.00 26621.90 161.00
486 8.1600 27675.00 28111.40 166.00
487 8.1700 25609.00 26103.20 160.00
488 8.1800 21065.00 21763.30 145.00
489 8.1900 16255.00 16894.10 127.00
490 8.2000 12247.00 12642.20 111.00
491 8.2100 9399.00 9456.67 97.00
492 8.2200 7576.00 7332.51 87.00
493 8.2300 6347.00 6035.15 80.00
494 8.2400 5585.00 5279.98 75.00
495 8.2500 5069.00 4837.96 71.00
496 8.2600 4718.00 4563.17 69.00
497 8.2700 4447.00 4376.79 67.00
498 8.2800 4307.00 4240.39 66.00
499 8.2900 4213.00 4135.64 65.00
500 8.3000 4084.00 4053.20 64.00
501 8.3100 4041.00 3987.63 64.00
502 8.3200 3962.00 3935.41 63.00
503 8.3300 3904.00 3894.06 62.00
504 8.3400 3918.00 3861.88 63.00
505 8.3500 3925.00 3837.67 63.00
506 8.3600 3888.00 3820.69 62.00
507 8.3700 3911.00 3810.58 63.00
508 8.3800 3893.00 3807.35 62.00
509 8.3900 3905.00 3811.41 62.00
510 8.4000 3928.00 3823.71 63.00
511 8.4100 3989.00 3845.99 63.00
512 8.4200 4039.00 3881.68 64.00
513 8.4300 4174.00 3938.14 65.00
514 8.4400 4283.00 4031.86 65.00
515 8.4500 4493.00 4198.08 67.00
516 8.4600 4840.00 4502.37 70.00
517 8.4700 5380.00 5043.63 73.00
518 8.4800 6149.00 5930.32 78.00
519 8.4900 7328.00 7219.02 86.00
520 8.5000 8693.00 8821.59 93.00
521 8.5100 10184.00 10406.80 101.00
522 8.5200 11233.00 11296.50 106.00
523 8.5300 11051.00 10940.80 105.00
524 8.5400 9748.00 9579.24 99.00
525 8.5500 8085.00 7918.90 90.00
526 8.5600 6592.00 6453.19 81.00
527 8.5700 5529.00 5372.78 74.00
528 8.5800 4900.00 4674.88 70.00
529 8.5900 4478.00 4265.02 67.00
530 8.6000 4191.00 4034.48 65.00
531 8.6100 4029.00 3901.41 63.00
532 8.6200 3925.00 3817.72 63.00
533 8.6300 3862.00 3759.54 62.00
534 8.6400 3785.00 3715.96 62.00
535 8.6500 3740.00 3681.89 61.00
536 8.6600 3753.00 3654.60 61.00
537 8.6700 3700.00 3632.43 61.00
538 8.6800 3670.00 3614.21 61.00
539 8.6900 3649.00 3599.12 60.00
540 8.7000 3664.00 3586.53 61.00
541 8.7100 3653.00 3575.98 60.00
542 8.7200 3643.00 3567.10 60.00
543 8.7300 3640.00 3559.61 60.00
544 8.7400 3650.00 3553.30 60.00
545 8.7500 3593.00 3547.99 60.00
546 8.7600 3639.00 3543.53 60.00
547 8.7700 3622.00 3539.83 60.00
548 8.7800 3610.00 3536.79 60.00
549 8.7900 3650.00 3534.33 60.00
550 8.8000 3603.00 3532.39 60.00
551 8.8100 3609.00 3530.92 60.00
552 8.8200 3628.00 3529.88 60.00
553 8.8300 3629.00 3529.24 60.00
554 8.8400 3608.00 3528.97 60.00
555 8.8500 3620.00 3529.06 60.00
556 8.8600 3607.00 3529.46 60.00
557 8.8700 3601.00 3530.17 60.00
558 8.8800 3603.00 3531.19 60.00
559 8.8900 3604.00 3532.50 60.00
560 8.9000 3614.00 3534.09 60.00
561 8.9100 3657.00 3535.97 60.00
562 8.9200 3613.00 3538.13 60.00
563 8.9300 3613.00 3540.57 60.00
564 8.9400 3633.00 3543.30 60.00
565 8.9500 3668.00 3546.32 61.00
566 8.9600 3633.00 3549.63 60.00
567 8.9700 3694.00 3553.25 61.00
568 8.9800 3667.00 3557.18 61.00
569 8.9900 3651.00 3561.44 60.00
570 9.0000 3651.00 3566.04 60.00
571 9.0100 3655.00 3570.67 60.00
572 9.0200 3691.00 3576.01 61.00
573 9.0300 3720.00 3581.74 61.00
574 9.0400 3705.00 3587.90 61.00
575 9.0500 3684.00 3594.50 61.00
576 9.0600 3690.00 3601.59 61.00
577 9.0700 3691.00 3609.20 61.00
578 9.0800 3735.00 3617.37 61.00
579 9.0900 3743.00 3626.14 61.00
580 9.1000 3725.00 3635.57 61.00
581 9.1100 3740.00 3645.72 61.00
582 9.1200 3798.00 3656.65 62.00
583 9.1300 3808.00 3668.44 62.00
584 9.1400 3768.00 3681.18 61.00
585 9.1500 3801.00 3694.97 62.00
586 9.1600 3793.00 3709.93 62.00
587 9.1700 3764.00 3726.20 61.00
588 9.1800 3795.00 3743.94 62.00
589 9.1900 3839.00 3763.33 62.00
590 9.2000 3831.00 3784.61 62.00
591 9.2100 3891.00 3808.03 62.00
592 9.2200 3858.00 3833.90 62.00
593 9.2300 3859.00 3862.63 62.00
594 9.2400 3936.00 3894.66 63.00
595 9.2500 3930.00 3930.58 63.00
596 9.2600 4018.00 3971.10 63.00
597 9.2700 4018.00 4017.09 63.00
598 9.2800 4049.00 4069.69 64.00
599 9.2900 4057.00 4130.33 64.00
600 9.3000 4156.00 4200.89 64.00
601 9.3100 4221.00 4283.84 65.00
602 9.3200 4284.00 4382.46 65.00
603 9.3300 4423.00 4501.29 67.00
604 9.3400 4532.00 4646.70 67.00
605 9.3500 4723.00 4828.28 69.00
606 9.3600 4992.00 5062.31 71.00
607 9.3700 5389.00 5381.74 73.00
608 9.3800 6007.00 5860.73 78.00
609 9.3900 6961.00 6663.58 83.00
610 9.4000 8377.00 8108.08 92.00
611 9.4100 10761.00 10685.80 104.00
612 9.4200 14639.00 14927.70 121.00
613 9.4300 20426.00 21049.80 143.00
614 9.4400 27936.00 28418.90 167.00
615 9.4500 35028.00 34897.10 187.00
616 9.4600 37115.00 36943.40 193.00
617 9.4700 33153.00 33050.80 182.00
618 9.4800 25972.00 25986.80 161.00
619 9.4900 18584.00 18986.70 136.00
620 9.5000 13393.00 13593.20 116.00
621 9.5100 10113.00 10074.80 101.00
622 9.5200 8250.00 8053.78 91.00
623 9.5300 7129.00 6985.48 84.00
624 9.5400 6565.00 6435.50 81.00
625 9.5500 6203.00 6147.68 79.00
626 9.5600 5964.00 5998.36 77.00
627 9.5700 5762.00 5934.53 76.00
628 9.5800 5612.00 5934.01 75.00
629 9.5900 5578.00 5987.44 75.00
630 9.6000 5691.00 6091.51 75.00
631 9.6100 5783.00 6246.83 76.00
632 9.6200 5972.00 6457.47 77.00
633 9.6300 6254.00 6731.03 79.00
634 9.6400 6610.00 7079.34 81.00
635 9.6500 6986.00 7519.74 84.00
636 9.6600 7617.00 8077.55 87.00
637 9.6700 8480.00 8790.61 92.00
638 9.6800 9625.00 9721.22 98.00
639 9.6900 11425.00 10988.30 107.00
640 9.7000 13789.00 12851.00 117.00
641 9.7100 17470.00 15885.00 132.00
642 9.7200 23312.00 21250.60 153.00
643 9.7300 32756.00 30883.60 181.00
644 9.7400 47853.00 47213.40 219.00
645 9.7500 71516.00 71990.30 267.00
646 9.7600 102088.00 104257.00 320.00
647 9.7700 136226.00 137633.00 369.00
648 9.7800 158555.00 158084.00 398.00
649 9.7900 154329.00 151961.00 393.00
650 9.8000 125296.00 123876.00 354.00
651 9.8100 89740.00 89869.20 300.00
652 9.8200 60368.00 60658.30 246.00
653 9.8300 40527.00 39890.50 201.00
654 9.8400 28420.00 27074.20 169.00
655 9.8500 21269.00 19979.50 146.00
656 9.8600 17038.00 16316.50 131.00
657 9.8700 14721.00 14473.40 121.00
658 9.8800 13436.00 13519.60 116.00
659 9.8900 12801.00 12960.10 113.00
660 9.9000 12648.00 12623.80 112.00
661 9.9100 13061.00 12649.70 114.00
662 9.9200 14524.00 13481.70 121.00
663 9.9300 17741.00 16121.70 133.00
664 9.9400 23825.00 22529.80 154.00
665 9.9500 35043.00 35370.30 187.00
666 9.9600 54726.00 56117.40 234.00
667 9.9700 80725.00 81605.30 284.00
668 9.9800 100883.00 100328.00 318.00
669 9.9900 99439.00 97119.90 315.00
670 10.0000 77453.00 74843.40 278.00
671 10.0100 48778.00 49423.50 221.00
672 10.0200 28823.00 30100.50 170.00
673 10.0300 17708.00 18518.50 133.00
674 10.0400 12014.00 12609.40 110.00
675 10.0500 9130.00 9759.73 96.00
676 10.0600 7456.00 8265.56 86.00
677 10.0700 6382.00 7341.81 80.00
678 10.0800 5823.00 6690.63 76.00
679 10.0900 5396.00 6199.40 73.00
680 10.1000 5071.00 5815.88 71.00
681 10.1100 4882.00 5509.62 70.00
682 10.1200 4687.00 5272.96 68.00
683 10.1300 4531.00 5067.38 67.00
684 10.1400 4423.00 4895.29 67.00
685 10.1500 4365.00 4749.54 66.00
686 10.1600 4268.00 4621.67 65.00
687 10.1700 4226.00 4513.89 65.00
688 10.1800 4121.00 4419.99 64.00
689 10.1900 4094.00 4337.60 64.00
690 10.2000 4048.00 4264.79 64.00
691 10.2100 3999.00 4200.07 63.00
692 10.2200 3956.00 4142.23 63.00
693 10.2300 3955.00 4090.27 63.00
694 10.2400 3932.00 4043.39 63.00
695 10.2500 3880.00 4000.91 62.00
696 10.2600 3838.00 3962.26 62.00
697 10.2700 3860.00 3926.99 62.00
698 10.2800 3837.00 3894.68 62.00
699 10.2900 3813.00 3865.00 62.00
700 10.3000 3775.00 3837.66 61.00
701 10.3100 3749.00 3812.41 61.00
702 10.3200 3767.00 3789.04 61.00
703 10.3300 3737.00 3767.34 61.00
704 10.3400 3756.00 3747.16 61.00
705 10.3500 3723.00 3728.35 61.00
706 10.3600 3711.00 3710.80 61.00
707 10.3700 3685.00 3694.38 61.00
708 10.3800 3692.00 3677.99 61.00
709 10.3900 3683.00 3663.57 61.00
710 10.4000 3656.00 3650.02 60.00
711 10.4100 3629.00 3637.27 60.00
712 10.4200 3635.00 3625.26 60.00
713 10.4300 3631.00 3613.93 60.00
714 10.4400 3638.00 3603.23 60.00
715 10.4500 3623.00 3593.12 60.00
716 10.4600 3632.00 3583.55 60.00
717 10.4700 3654.00 3574.50 60.00
718 10.4800 3598.00 3565.92 60.00
719 10.4900 3556.00 3557.79 60.00
720 10.5000 3580.00 3550.08 60.00
721 10.5100 3593.00 3542.77 60.00
722 10.5200 3570.00 3535.83 60.00
723 10.5300 3610.00 3529.26 60.00
724 10.5400 3600.00 3523.04 60.00
725 10.5500 3564.00 3517.16 60.00
726 10.5600 3587.00 3511.62 60.00
727 10.5700 3569.00 3506.41 60.00
728 10.5800 3563.00 3501.56 60.00
729 10.5900 3551.00 3497.08 60.00
730 10.6000 3541.00 3493.05 60.00
731 10.6100 3533.00 3489.61 59.00
732 10.6200 3550.00 3487.07 60.00
733 10.6300 3563.00 3486.08 60.00
734 10.6400 3543.00 3487.78 60.00
735 10.6500 3590.00 3493.66 60.00
736 10.6600 3577.00 3505.15 60.00
737 10.6700 3552.00 3522.47 60.00
738 10.6800 3625.00 3543.22 60.00
739 10.6900 3633.00 3560.42 60.00
740 10.7000 3642.00 3563.26 60.00
741 10.7100 3672.00 3547.43 61.00
742 10.7200 3599.00 3521.23 60.00
743 10.7300 3541.00 3494.68 60.00
744 10.7400 3528.00 3472.84 59.00
745 10.7500 3521.00 3456.92 59.00
746 10.7600 3489.00 3446.08 59.00
747 10.7700 3546.00 3438.78 60.00
748 10.7800 3518.00 3433.60 59.00
749 10.7900 3494.00 3429.58 59.00
750 10.8000 3534.00 3426.21 59.00
751 10.8100 3533.00 3423.23 59.00
752 10.8200 3504.00 3420.52 59.00
753 10.8300 3532.00 3418.02 59.00
754 10.8400 3504.00 3415.70 59.00
755 10.8500 3488.00 3413.51 59.00
756 10.8600 3494.00 3411.46 59.00
757 10.8700 3511.00 3409.51 59.00
758 10.8800 3509.00 3407.67 59.00
759 10.8900 3523.00 3405.93 59.00
760 10.9000 3494.00 3404.27 59.00
761 10.9100 3480.00 3402.69 59.00
762 10.9200 3506.00 3401.18 59.00
763 10.9300 3490.00 3399.75 59.00
764 10.9400 3491.00 3398.39 59.00
765 10.9500 3482.00 3397.09 59.00
766 10.9600 3473.00 3395.86 59.00
767 10.9700 3443.00 3394.69 59.00
768 10.9800 3454.00 3393.58 59.00
769 10.9900 3454.00 3392.52 59.00
770 11.0000 3438.00 3391.53 59.00
771 11.0100 3465.00 3390.59 59.00
772 11.0200 3443.00 3389.70 59.00
773 11.0300 3450.00 3388.86 59.00
774 11.0400 3456.00 3388.08 59.00
775 11.0500 3453.00 3387.35 59.00
776 11.0600 3438.00 3386.68 59.00
777 11.0700 3463.00 3386.05 59.00
778 11.0800 3440.00 3385.47 59.00
779 11.0900 3436.00 3384.95 59.00
780 11.1000 3421.00 3384.48 58.00
781 11.1100 3420.00 3384.05 58.00
782 11.1200 3407.00 3383.68 58.00
783 11.1300 3433.00 3383.36 59.00
784 11.1400 3444.00 3383.09 59.00
785 11.1500 3397.00 3382.87 58.00
786 11.1600 3404.00 3382.71 58.00
787 11.1700 3440.00 3382.60 59.00
788 11.1800 3418.00 3382.54 58.00
789 11.1900 3435.00 3382.53 59.00
790 11.2000 3414.00 3382.58 58.00
791 11.2100 3426.00 3378.31 59.00
792 11.2200 3417.00 3378.53 58.00
793 11.2300 3424.00 3378.80 59.00
794 11.2400 3421.00 3379.13 58.00
795 11.2500 3400.00 3379.53 58.00
796 11.2600 3403.00 3379.98 58.00
797 11.2700 3384.00 3380.51 58.00
798 11.2800 3435.00 3381.09 59.00
799 11.2900 3400.00 3381.75 58.00
800 11.3000 3403.00 3382.48 58.00
801 11.3100 3386.00 3383.28 58.00
802 11.3200 3392.00 3384.16 58.00
803 11.3300 3368.00 3385.12 58.00
804 11.3400 3406.00 3386.17 58.00
805 11.3500 3377.00 3387.30 58.00
806 11.3600 3397.00 3388.52 58.00
807 11.3700 3453.00 3389.83 59.00
808 11.3800 3402.00 3391.25 58.00
809 11.3900 3411.00 3392.77 58.00
810 11.4000 3445.00 3394.40 59.00
811 11.4100 3439.00 3396.14 59.00
812 11.4200 3440.00 3398.00 59.00
813 11.4300 3429.00 3400.00 59.00
814 11.4400 3394.00 3402.12 58.00
815 11.4500 3403.00 3404.39 58.00
816 11.4600 3408.00 3406.81 58.00
817 11.4700 3410.00 3397.88 58.00
818 11.4800 3402.00 3400.78 58.00
819 11.4900 3407.00 3403.87 58.00
820 11.5000 3370.00 3407.14 58.00
821 11.5100 3394.00 3410.62 58.00
822 11.5200 3394.00 3414.32 58.00
823 11.5300 3454.00 3418.24 59.00
824 11.5400 3406.00 3422.42 58.00
825 11.5500 3427.00 3426.87 59.00
826 11.5600 3391.00 3431.61 58.00
827 11.5700 3408.00 3415.80 58.00
828 11.5800 3431.00 3421.43 59.00
829 11.5900 3442.00 3427.41 59.00
830 11.6000 3438.00 3433.79 59.00
831 11.6100 3420.00 3440.60 58.00
832 11.6200 3436.00 3447.88 59.00
833 11.6300 3425.00 3455.67 59.00
834 11.6400 3437.00 3464.01 59.00
835 11.6500 3475.00 3472.98 59.00
836 11.6600 3457.00 3482.62 59.00
837 11.6700 3495.00 3493.01 59.00
838 11.6800 3511.00 3504.23 59.00
839 11.6900 3446.00 3516.38 59.00
840 11.7000 3511.00 3538.32 59.00
841 11.7100 3512.00 3552.72 59.00
842 11.7200 3538.00 3568.43 59.00
843 11.7300 3558.00 3585.59 60.00
844 11.7400 3541.00 3604.42 60.00
845 11.7500 3508.00 3625.15 59.00
846 11.7600 3587.00 3648.08 60.00
847 11.7700 3607.00 3673.55 60.00
848 11.7800 3608.00 3702.03 60.00
849 11.7900 3646.00 3734.13 60.00
850 11.8000 3689.00 3770.81 61.00
851 11.8100 3713.00 3813.66 61.00
852 11.8200 3779.00 3865.50 61.00
853 11.8300 3833.00 3931.19 62.00
854 11.8400 3918.00 4017.83 63.00
855 11.8500 4026.00 4134.69 63.00
856 11.8600 4175.00 4289.05 65.00
857 11.8700 4323.00 4481.74 66.00
858 11.8800 4545.00 4699.33 67.00
859 11.8900 4770.00 4904.41 69.00
860 11.9000 4910.00 5042.72 70.00
861 11.9100 5012.00 5098.63 71.00
862 11.9200 5001.00 5122.07 71.00
863 11.9300 5001.00 5172.51 71.00
864 11.9400 5155.00 5286.23 72.00
865 11.9500 5455.00 5483.31 74.00
866 11.9600 5804.00 5780.27 76.00
867 11.9700 6336.00 6204.54 80.00
868 11.9800 7110.00 6817.11 84.00
869 11.9900 8148.00 7750.64 90.00
870 12.0000 9802.00 9262.73 99.00
871 12.0100 12216.00 11782.60 111.00
872 12.0200 15939.00 15892.40 126.00
873 12.0300 21660.00 22164.40 147.00
874 12.0400 29440.00 30832.20 172.00
875 12.0500 39621.00 41292.10 199.00
876 12.0600 50448.00 51393.70 225.00
877 12.0700 57111.00 57060.80 239.00
878 12.0800 55919.00 54950.40 236.00
879 12.0900 47823.00 46700.00 219.00
880 12.1000 37121.00 36764.80 193.00
881 12.1100 28029.00 28238.90 167.00
882 12.1200 22266.00 22287.00 149.00
883 12.1300 18862.00 18837.50 137.00
884 12.1400 17269.00 17068.90 131.00
885 12.1500 16136.00 15812.30 127.00
886 12.1600 14543.00 14207.00 121.00
887 12.1700 12309.00 12219.10 111.00
888 12.1800 10292.00 10236.70 101.00
889 12.1900 8451.00 8542.19 92.00
890 12.2000 7077.00 7234.55 84.00
891 12.2100 6169.00 6297.52 79.00
892 12.2200 5492.00 5656.52 74.00
893 12.2300 5003.00 5222.98 71.00
894 12.2400 4738.00 4921.98 69.00
895 12.2500 4482.00 4702.14 67.00
896 12.2600 4331.00 4532.62 66.00
897 12.2700 4199.00 4396.28 65.00
898 12.2800 4073.00 4283.56 64.00
899 12.2900 3943.00 4188.74 63.00
900 12.3000 3913.00 4108.06 63.00
901 12.3100 3861.00 4038.82 62.00
902 12.3200 3799.00 3978.96 62.00
903 12.3300 3786.00 3926.89 62.00
904 12.3400 3744.00 3881.36 61.00
905 12.3500 3707.00 3841.36 61.00
906 12.3600 3704.00 3806.09 61.00
907 12.3700 3659.00 3774.88 60.00
908 12.3800 3644.00 3747.17 60.00
909 12.3900 3631.00 3722.54 60.00
910 12.4000 3591.00 3700.59 60.00
911 12.4100 3603.00 3681.02 60.00
912 12.4200 3614.00 3663.56 60.00
913 12.4300 3575.00 3647.99 60.00
914 12.4400 3528.00 3634.12 59.00
915 12.4500 3560.00 3621.79 60.00
916 12.4600 3561.00 3610.86 60.00
917 12.4700 3534.00 3601.23 59.00
918 12.4800 3537.00 3592.78 59.00
919 12.4900 3528.00 3585.45 59.00
920 12.5000 3543.00 3579.16 60.00
921 12.5100 3546.00 3573.86 60.00
922 12.5200 3534.00 3569.50 59.00
923 12.5300 3520.00 3566.05 59.00
924 12.5400 3539.00 3563.49 59.00
925 12.5500 3547.00 3561.79 60.00
926 12.5600 3533.00 3560.93 59.00
927 12.5700 3552.00 3560.95 60.00
928 12.5800 3553.00 3561.85 60.00
929 12.5900 3536.00 3563.64 59.00
930 12.6000 3545.00 3566.35 60.00
931 12.6100 3573.00 3570.02 60.00
932 12.6200 3564.00 3574.72 60.00
933 12.6300 3594.00 3580.50 60.00
934 12.6400 3544.00 3587.44 60.00
935 12.6500 3551.00 3595.66 60.00
936 12.6600 3579.00 3605.26 60.00
937 12.6700 3584.00 3616.40 60.00
938 12.6800 3604.00 3629.26 60.00
939 12.6900 3626.00 3644.08 60.00
940 12.7000 3640.00 3661.14 60.00
941 12.7100 3635.00 3680.84 60.00
942 12.7200 3694.00 3703.72 61.00
943 12.7300 3714.00 3730.55 61.00
944 12.7400 3760.00 3762.47 61.00
945 12.7500 3856.00 3801.18 62.00
946 12.7600 3845.00 3849.15 62.00
947 12.7700 3944.00 3910.02 63.00
948 12.7800 4024.00 3988.87 63.00
949 12.7900 4129.00 4092.61 64.00
950 12.8000 4255.00 4230.15 65.00
951 12.8100 4477.00 4412.27 67.00
952 12.8200 4565.00 4651.10 68.00
953 12.8300 4782.00 4959.14 69.00
954 12.8400 5146.00 5347.45 72.00
955 12.8500 5529.00 5823.59 74.00
956 12.8600 6036.00 6388.98 78.00
957 12.8700 6638.00 7036.34 81.00
958 12.8800 7280.00 7746.30 85.00
959 12.8900 7983.00 8483.91 89.00
960 12.9000 8851.00 9194.65 94.00
961 12.9100 9613.00 9803.39 98.00
962 12.9200 10155.00 10222.70 101.00
963 12.9300 10473.00 10377.90 102.00
964 12.9400 10264.00 10240.80 101.00
965 12.9500 9680.00 9844.47 98.00
966 12.9600 9109.00 9266.40 95.00
967 12.9700 8392.00 8594.84 92.00
968 12.9800 7714.00 7905.24 88.00
969 12.9900 7137.00 7252.55 84.00
970 13.0000 6617.00 6673.53 81.00
971 13.0100 6255.00 6190.82 79.00
972 13.0200 6033.00 5817.10 78.00
973 13.0300 5839.00 5558.56 76.00
974 13.0400 5780.00 5417.90 76.00
975 13.0500 5813.00 5396.88 76.00
976 13.0600 5889.00 5497.83 77.00
977 13.0700 6023.00 5724.06 78.00
978 13.0800 6319.00 6078.94 79.00
979 13.0900 6742.00 6563.67 82.00
980 13.1000 7209.00 7174.26 85.00
981 13.1100 7905.00 7897.71 89.00
982 13.1200 8702.00 8708.35 93.00
983 13.1300 9530.00 9562.05 98.00
984 13.1400 10522.00 10391.40 103.00
985 13.1500 11349.00 11102.90 107.00
986 13.1600 11936.00 11587.50 109.00
987 13.1700 12095.00 11750.20 110.00
988 13.1800 11690.00 11552.70 108.00
989 13.1900 10910.00 11034.40 104.00
990 13.2000 10033.00 10289.90 100.00
991 13.2100 9009.00 9427.67 95.00
992 13.2200 8046.00 8539.22 90.00
993 13.2300 7271.00 7689.79 85.00
994 13.2400 6537.00 6920.24 81.00
995 13.2500 5947.00 6252.66 77.00
996 13.2600 5541.00 5694.61 74.00
997 13.2700 5217.00 5243.09 72.00
998 13.2800 4938.00 4888.04 70.00
999 13.2900 4759.00 4616.54 69.00
1000 13.3000 4514.00 4410.85 67.00
1001 13.3100 4361.00 4257.41 66.00
1002 13.3200 4237.00 4143.35 65.00
1003 13.3300 4172.00 4058.14 65.00
1004 13.3400 4092.00 3993.79 64.00
1005 13.3500 4050.00 3944.44 64.00
1006 13.3600 3999.00 3906.01 63.00
1007 13.3700 3911.00 3875.70 63.00
1008 13.3800 3899.00 3851.65 62.00
1009 13.3900 3887.00 3832.63 62.00
1010 13.4000 3873.00 3817.84 62.00
1011 13.4100 3874.00 3806.72 62.00
1012 13.4200 3827.00 3798.90 62.00
1013 13.4300 3823.00 3794.11 62.00
1014 13.4400 3834.00 3792.20 62.00
1015 13.4500 3838.00 3793.05 62.00
1016 13.4600 3815.00 3796.62 62.00
1017 13.4700 3834.00 3802.90 62.00
1018 13.4800 3807.00 3811.96 62.00
1019 13.4900 3811.00 3823.88 62.00
1020 13.5000 3856.00 3844.63 62.00
1021 13.5100 3897.00 3862.86 62.00
1022 13.5200 3879.00 3884.60 62.00
1023 13.5300 3937.00 3911.10 63.00
1024 13.5400 3913.00 3940.99 63.00
1025 13.5500 3933.00 3975.71 63.00
1026 13.5600 4025.00 4015.94 63.00
1027 13.5700 4048.00 4062.50 64.00
1028 13.5800 4110.00 4116.44 64.00
1029 13.5900 4183.00 4179.06 65.00
1030 13.6000 4233.00 4252.01 65.00
1031 13.6100 4342.00 4337.36 66.00
1032 13.6200 4448.00 4437.85 67.00
1033 13.6300 4598.00 4557.02 68.00
1034 13.6400 4775.00 4699.73 69.00
1035 13.6500 5002.00 4873.00 71.00
1036 13.6600 5251.00 5088.04 72.00
1037 13.6700 5574.00 5364.46 75.00
1038 13.6800 6073.00 5738.65 78.00
1039 13.6900 6722.00 6276.77 82.00
1040 13.7000 7606.00 7090.25 87.00
1041 13.7100 8892.00 8341.76 94.00
1042 13.7200 10599.00 10227.20 103.00
1043 13.7300 13010.00 12918.60 114.00
1044 13.7400 16436.00 16467.80 128.00
1045 13.7500 20592.00 20652.80 143.00
1046 13.7600 24721.00 24754.40 157.00
1047 13.7700 27755.00 27561.50 167.00
1048 13.7800 28487.00 28359.30 169.00
1049 13.7900 27662.00 27882.10 166.00
1050 13.8000 27011.00 27372.90 164.00
1051 13.8100 26984.00 27475.10 164.00
1052 13.8200 27826.00 28119.60 167.00
1053 13.8300 29052.00 28722.90 170.00
1054 13.8400 28994.00 28506.90 170.00
1055 13.8500 27409.00 27003.80 166.00
1056 13.8600 24682.00 24364.70 157.00
1057 13.8700 21031.00 21127.80 145.00
1058 13.8800 17268.00 17822.40 131.00
1059 13.8900 14150.00 14796.20 119.00
1060 13.9000 11738.00 12226.90 108.00
1061 13.9100 9810.00 10170.70 99.00
1062 13.9200 8486.00 8604.87 92.00
1063 13.9300 7433.00 7459.97 86.00
1064 13.9400 6696.00 6648.43 82.00
1065 13.9500 6120.00 6084.95 78.00
1066 13.9600 5705.00 5699.33 76.00
1067 13.9700 5389.00 5441.34 73.00
1068 13.9800 5226.00 5281.83 72.00
1069 13.9900 5159.00 5213.14 72.00
1070 14.0000 5206.00 5250.62 72.00
1071 14.0100 5360.00 5433.16 73.00
1072 14.0200 5653.00 5816.90 75.00
1073 14.0300 6187.00 6454.94 79.00
1074 14.0400 7085.00 7352.81 84.00
1075 14.0500 8147.00 8443.06 90.00
1076 14.0600 9187.00 9450.09 96.00
1077 14.0700 9841.00 9898.93 99.00
1078 14.0800 9505.00 9467.90 97.00
1079 14.0900 8456.00 8407.63 92.00
1080 14.1000 7250.00 7202.99 85.00
1081 14.1100 6141.00 6152.39 78.00
1082 14.1200 5327.00 5356.50 73.00
1083 14.1300 4829.00 4808.44 69.00
1084 14.1400 4475.00 4453.72 67.00
1085 14.1500 4227.00 4228.81 65.00
1086 14.1600 4027.00 4082.27 63.00
1087 14.1700 3948.00 3980.57 63.00
1088 14.1800 3845.00 3904.81 62.00
1089 14.1900 3837.00 3843.98 62.00
1090 14.2000 3744.00 3795.25 61.00
1091 14.2100 3705.00 3754.58 61.00
1092 14.2200 3694.00 3720.11 61.00
1093 14.2300 3659.00 3690.60 60.00
1094 14.2400 3636.00 3665.09 60.00
1095 14.2500 3636.00 3642.88 60.00
1096 14.2600 3606.00 3623.43 60.00
1097 14.2700 3576.00 3606.32 60.00
1098 14.2800 3582.00 3591.20 60.00
1099 14.2900 3555.00 3577.81 60.00
1100 14.3000 3586.00 3570.25 60.00
1101 14.3100 3597.00 3559.74 60.00
1102 14.3200 3585.00 3550.42 60.00
1103 14.3300 3577.00 3542.15 60.00
1104 14.3400 3585.00 3534.85 60.00
1105 14.3500 3602.00 3528.43 60.00
1106 14.3600 3577.00 3522.82 60.00
1107 14.3700 3632.00 3517.97 60.00
1108 14.3800 3615.00 3517.68 60.00
1109 14.3900 3615.00 3514.23 60.00
1110 14.4000 3617.00 3511.42 60.00
1111 14.4100 3598.00 3509.22 60.00
1112 14.4200 3610.00 3507.62 60.00
1113 14.4300 3587.00 3506.59 60.00
1114 14.4400 3576.00 3506.15 60.00
1115 14.4500 3566.00 3506.28 60.00
1116 14.4600 3577.00 3507.00 60.00
1117 14.4700 3590.00 3508.30 60.00
1118 14.4800 3564.00 3510.20 60.00
1119 14.4900 3572.00 3512.73 60.00
1120 14.5000 3562.00 3515.90 60.00
1121 14.5100 3547.00 3519.76 60.00
1122 14.5200 3597.00 3524.34 60.00
1123 14.5300 3593.00 3529.70 60.00
1124 14.5400 3576.00 3535.88 60.00
1125 14.5500 3604.00 3542.97 60.00
1126 14.5600 3590.00 3551.06 60.00
1127 14.5700 3583.00 3560.24 60.00
1128 14.5800 3593.00 3570.68 60.00
1129 14.5900 3612.00 3582.56 60.00
1130 14.6000 3654.00 3596.13 60.00
1131 14.6100 3717.00 3611.74 61.00
1132 14.6200 3692.00 3629.85 61.00
1133 14.6300 3713.00 3651.03 61.00
1134 14.6400 3747.00 3675.93 61.00
1135 14.6500 3785.00 3705.26 62.00
1136 14.6600 3804.00 3739.69 62.00
1137 14.6700 3858.00 3779.71 62.00
1138 14.6800 3879.00 3825.51 62.00
1139 14.6900 3940.00 3876.79 63.00
1140 14.7000 4013.00 3932.58 63.00
1141 14.7100 4093.00 3991.26 64.00
1142 14.7200 4133.00 4051.69 64.00
1143 14.7300 4245.00 4115.46 65.00
1144 14.7400 4322.00 4188.58 66.00
1145 14.7500 4407.00 4280.91 66.00
1146 14.7600 4540.00 4405.11 67.00
1147 14.7700 4756.00 4576.71 69.00
1148 14.7800 4990.00 4814.52 71.00
1149 14.7900 5342.00 5140.69 73.00
1150 14.8000 5695.00 5579.45 75.00
1151 14.8100 6201.00 6154.15 79.00
1152 14.8200 6972.00 6883.65 83.00
1153 14.8300 7868.00 7776.99 89.00
1154 14.8400 8873.00 8826.21 94.00
1155 14.8500 10183.00 9998.35 101.00
1156 14.8600 11512.00 11222.10 107.00
1157 14.8700 12699.00 12380.40 113.00
1158 14.8800 13781.00 13325.00 117.00
1159 14.8900 14255.00 13936.50 119.00
1160 14.9000 14322.00 14197.30 120.00
1161 14.9100 14176.00 14195.00 119.00
1162 14.9200 13813.00 14048.00 118.00
1163 14.9300 13578.00 13829.40 117.00
1164 14.9400 13417.00 13541.50 116.00
1165 14.9500 13219.00 13136.10 115.00
1166 14.9600 12660.00 12566.40 113.00
1167 14.9700 11898.00 11834.30 109.00
1168 14.9800 10874.00 10995.00 104.00
1169 14.9900 9799.00 10108.50 99.00
1170 15.0000 8883.00 9188.95 94.00
1171 15.0100 7949.00 8237.97 89.00
1172 15.0200 7070.00 7322.33 84.00
1173 15.0300 6333.00 6521.33 80.00
1174 15.0400 5741.00 5867.33 76.00
1175 15.0500 5272.00 5357.37 73.00
1176 15.0600 4975.00 4971.32 71.00
1177 15.0700 4787.00 4683.23 69.00
1178 15.0800 4599.00 4468.88 68.00
1179 15.0900 4483.00 4308.60 67.00
1180 15.1000 4354.00 4187.49 66.00
1181 15.1100 4193.00 4094.55 65.00
1182 15.1200 4119.00 4021.83 64.00
1183 15.1300 4035.00 3963.79 64.00
1184 15.1400 3953.00 3916.58 63.00
1185 15.1500 3934.00 3877.63 63.00
1186 15.1600 3871.00 3845.16 62.00
1187 15.1700 3851.00 3817.99 62.00
1188 15.1800 3813.00 3795.28 62.00
1189 15.1900 3833.00 3776.42 62.00
1190 15.2000 3835.00 3760.95 62.00
1191 15.2100 3817.00 3748.56 62.00
1192 15.2200 3825.00 3738.98 62.00
1193 15.2300 3783.00 3732.02 62.00
1194 15.2400 3824.00 3727.56 62.00
1195 15.2500 3812.00 3725.51 62.00
1196 15.2600 3772.00 3725.83 61.00
1197 15.2700 3813.00 3728.55 62.00
1198 15.2800 3800.00 3733.70 62.00
1199 15.2900 3774.00 3741.42 61.00
1200 15.3000 3824.00 3751.87 62.00
1201 15.3100 3826.00 3765.30 62.00
1202 15.3200 3876.00 3782.08 62.00
1203 15.3300 3917.00 3802.73 63.00
1204 15.3400 3916.00 3828.07 63.00
1205 15.3500 3944.00 3859.27 63.00
1206 15.3600 3999.00 3898.21 63.00
1207 15.3700 4092.00 3947.77 64.00
1208 15.3800 4183.00 4012.19 65.00
1209 15.3900 4256.00 4097.66 65.00
1210 15.4000 4389.00 4212.48 66.00
1211 15.4100 4500.00 4367.09 67.00
1212 15.4200 4730.00 4573.27 69.00
1213 15.4300 4981.00 4842.35 71.00
1214 15.4400 5276.00 5182.75 73.00
1215 15.4500 5720.00 5597.51 76.00
1216 15.4600 6127.00 6075.19 78.00
1217 15.4700 6701.00 6590.45 82.00
1218 15.4800 7259.00 7092.83 85.00
1219 15.4900 7761.00 7508.57 88.00
1220 15.5000 7987.00 7762.36 89.00
1221 15.5100 8024.00 7812.82 90.00
1222 15.5200 7640.00 7674.22 87.00
1223 15.5300 7294.00 7409.31 85.00
1224 15.5400 6940.00 7098.10 83.00
1225 15.5500 6610.00 6809.40 81.00
1226 15.5600 6383.00 6591.64 80.00
1227 15.5700 6414.00 6478.54 80.00
1228 15.5800 6515.00 6499.39 81.00
1229 15.5900 6897.00 6692.73 83.00
1230 15.6000 7461.00 7124.14 86.00
1231 15.6100 8346.00 7908.10 91.00
1232 15.6200 9701.00 9225.48 98.00
1233 15.6300 11604.00 11318.50 108.00
1234 15.6400 14342.00 14446.60 120.00
1235 15.6500 18208.00 18786.50 135.00
1236 15.6600 23565.00 24276.40 154.00
1237 15.6700 29638.00 30360.10 172.00
1238 15.6800 35289.00 35634.10 188.00
1239 15.6900 38178.00 37928.50 195.00
1240 15.7000 36463.00 35950.10 191.00
1241 15.7100 31247.00 30813.30 177.00
1242 15.7200 24881.00 24699.20 158.00
1243 15.7300 18888.00 19093.80 137.00
1244 15.7400 14298.00 14605.50 120.00
1245 15.7500 11115.00 11324.60 105.00
1246 15.7600 9015.00 9080.72 95.00
1247 15.7700 7557.00 7610.35 87.00
1248 15.7800 6590.00 6657.59 81.00
1249 15.7900 5876.00 6026.16 77.00
1250 15.8000 5373.00 5587.45 73.00
1251 15.8100 5056.00 5265.48 71.00
1252 15.8200 4798.00 5018.37 69.00
1253 15.8300 4561.00 4822.69 68.00
1254 15.8400 4418.00 4664.96 66.00
1255 15.8500 4335.00 4533.59 66.00
1256 15.8600 4206.00 4428.47 65.00
1257 15.8700 4175.00 4342.38 65.00
1258 15.8800 4094.00 4272.15 64.00
1259 15.8900 4012.00 4215.49 63.00
1260 15.9000 4031.00 4170.69 63.00
1261 15.9100 4031.00 4136.58 63.00
1262 15.9200 3977.00 4112.47 63.00
1263 15.9300 3993.00 4098.09 63.00
1264 15.9400 4003.00 4093.72 63.00
1265 15.9500 4013.00 4100.37 63.00
1266 15.9600 4100.00 4120.22 64.00
1267 15.9700 4144.00 4157.42 64.00
1268 15.9800 4207.00 4219.28 65.00
1269 15.9900 4365.00 4317.76 66.00
1270 16.0000 4492.00 4470.71 67.00
1271 16.0100 4705.00 4702.09 69.00
1272 16.0200 5017.00 5039.68 71.00
1273 16.0300 5489.00 5509.28 74.00
1274 16.0400 6052.00 6126.06 78.00
1275 16.0500 6802.00 6880.94 82.00
1276 16.0600 7559.00 7722.28 87.00
1277 16.0700 8336.00 8530.94 91.00
1278 16.0800 8976.00 9102.54 95.00
1279 16.0900 9126.00 9224.31 96.00
1280 16.1000 8725.00 8844.04 93.00
1281 16.1100 7942.00 8122.76 89.00
1282 16.1200 7118.00 7285.42 84.00
1283 16.1300 6306.00 6492.25 79.00
1284 16.1400 5676.00 5821.97 75.00
1285 16.1500 5181.00 5300.38 72.00
1286 16.1600 4887.00 4921.66 70.00
1287 16.1700 4613.00 4664.31 68.00
1288 16.1800 4484.00 4501.36 67.00
1289 16.1900 4371.00 4408.16 66.00
1290 16.2000 4348.00 4366.07 66.00
1291 16.2100 4320.00 4363.75 66.00
1292 16.2200 4385.00 4396.70 66.00
1293 16.2300 4469.00 4466.51 67.00
1294 16.2400 4531.00 4580.21 67.00
1295 16.2500 4730.00 4750.51 69.00
1296 16.2600 4941.00 4996.37 70.00
1297 16.2700 5227.00 5344.34 72.00
1298 16.2800 5679.00 5828.27 75.00
1299 16.2900 6307.00 6486.74 79.00
1300 16.3000 7008.00 7353.06 84.00
1301 16.3100 7995.00 8439.93 89.00
1302 16.3200 9314.00 9710.71 97.00
1303 16.3300 10823.00 11037.30 104.00
1304 16.3400 12104.00 12148.30 110.00
1305 16.3500 13002.00 12707.50 114.00
1306 16.3600 12979.00 12593.30 114.00
1307 16.3700 12247.00 11972.70 111.00
1308 16.3800 11280.00 11082.50 106.00
1309 16.3900 10249.00 10115.70 101.00
1310 16.4000 9149.00 9210.27 96.00
1311 16.4100 8387.00 8449.17 92.00
1312 16.4200 7756.00 7870.25 88.00
1313 16.4300 7369.00 7484.07 86.00
1314 16.4400 7273.00 7285.23 85.00
1315 16.4500 7317.00 7257.36 86.00
1316 16.4600 7529.00 7371.60 87.00
1317 16.4700 7833.00 7582.54 89.00
1318 16.4800 8103.00 7826.90 90.00
1319 16.4900 8255.00 8035.94 91.00
1320 16.5000 8396.00 8162.61 92.00
1321 16.5100 8336.00 8190.98 91.00
1322 16.5200 8184.00 8100.80 90.00
1323 16.5300 7910.00 7832.95 89.00
1324 16.5400 7404.00 7347.19 86.00
1325 16.5500 6708.00 6716.89 82.00
1326 16.5600 6123.00 6062.63 78.00
1327 16.5700 5489.00 5481.56 74.00
1328 16.5800 5053.00 5011.42 71.00
1329 16.5900 4672.00 4654.54 68.00
1330 16.6000 4396.00 4395.94 66.00
1331 16.6100 4208.00 4213.65 65.00
1332 16.6200 4117.00 4086.05 64.00
1333 16.6300 3995.00 3994.49 63.00
1334 16.6400 3906.00 3928.16 62.00
1335 16.6500 3899.00 3877.91 62.00
1336 16.6600 3813.00 3835.39 62.00
1337 16.6700 3761.00 3804.24 61.00
1338 16.6800 3753.00 3779.26 61.00
1339 16.6900 3713.00 3759.25 61.00
1340 16.7000 3700.00 3743.43 61.00
1341 16.7100 3719.00 3731.22 61.00
1342 16.7200 3688.00 3722.13 61.00
1343 16.7300 3680.00 3716.04 61.00
1344 16.7400 3687.00 3712.64 61.00
1345 16.7500 3705.00 3711.80 61.00
1346 16.7600 3688.00 3713.43 61.00
1347 16.7700 3730.00 3717.50 61.00
1348 16.7800 3699.00 3724.03 61.00
1349 16.7900 3719.00 3733.08 61.00
1350 16.8000 3730.00 3744.78 61.00
1351 16.8100 3732.00 3759.29 61.00
1352 16.8200 3782.00 3776.83 61.00
1353 16.8300 3800.00 3797.69 62.00
1354 16.8400 3827.00 3821.13 62.00
1355 16.8500 3813.00 3849.88 62.00
1356 16.8600 3904.00 3883.91 62.00
1357 16.8700 3935.00 3922.72 63.00
1358 16.8800 3968.00 3967.82 63.00
1359 16.8900 4079.00 4020.31 64.00
1360 16.9000 4141.00 4081.66 64.00
1361 16.9100 4211.00 4153.79 65.00
1362 16.9200 4341.00 4239.50 66.00
1363 16.9300 4435.00 4342.82 67.00
1364 16.9400 4655.00 4469.93 68.00
1365 16.9500 4847.00 4630.25 70.00
1366 16.9600 5084.00 4838.16 71.00
1367 16.9700 5361.00 5115.10 73.00
1368 16.9800 5766.00 5491.22 76.00
1369 16.9900 6302.00 6007.09 79.00
1370 17.0000 6990.00 6712.38 84.00
1371 17.0100 7883.00 7662.28 89.00
1372 17.0200 8910.00 8907.12 94.00
1373 17.0300 10185.00 10480.50 101.00
1374 17.0400 11891.00 12385.40 109.00
1375 17.0500 13876.00 14587.10 118.00
1376 17.0600 16230.00 16987.80 127.00
1377 17.0700 18876.00 19377.90 137.00
1378 17.0800 20967.00 21388.70 145.00
1379 17.0900 22253.00 22542.60 149.00
1380 17.1000 22357.00 22472.10 150.00
1381 17.1100 21054.00 21184.30 145.00
1382 17.1200 18600.00 19056.60 136.00
1383 17.1300 16036.00 16572.10 127.00
1384 17.1400 13427.00 14104.10 116.00
1385 17.1500 11180.00 11874.90 106.00
1386 17.1600 9520.00 9987.09 98.00
1387 17.1700 8141.00 8467.26 90.00
1388 17.1800 7081.00 7292.72 84.00
1389 17.1900 6366.00 6414.60 80.00
1390 17.2000 5681.00 5772.60 75.00
1391 17.2100 5213.00 5308.23 72.00
1392 17.2200 4895.00 4970.79 70.00
1393 17.2300 4594.00 4721.39 68.00
1394 17.2400 4410.00 4531.82 66.00
1395 17.2500 4269.00 4383.13 65.00
1396 17.2600 4114.00 4262.87 64.00
1397 17.2700 3996.00 4163.19 63.00
1398 17.2800 3913.00 4078.97 63.00
1399 17.2900 3819.00 4006.86 62.00
1400 17.3000 3781.00 3944.52 61.00
1401 17.3100 3734.00 3890.20 61.00
1402 17.3200 3650.00 3842.62 60.00
1403 17.3300 3597.00 3800.71 60.00
1404 17.3400 3542.00 3763.67 60.00
1405 17.3500 3551.00 3730.79 60.00
1406 17.3600 3533.00 3701.51 59.00
1407 17.3700 3504.00 3675.37 59.00
1408 17.3800 3516.00 3651.98 59.00
1409 17.3900 3451.00 3630.99 59.00
1410 17.4000 3494.00 3612.15 59.00
1411 17.4100 3479.00 3595.20 59.00
1412 17.4200 3473.00 3579.96 59.00
1413 17.4300 3476.00 3566.25 59.00
1414 17.4400 3473.00 3553.94 59.00
1415 17.4500 3423.00 3542.85 59.00
1416 17.4600 3428.00 3532.98 59.00
1417 17.4700 3376.00 3524.19 58.00
1418 17.4800 3390.00 3516.43 58.00
1419 17.4900 3420.00 3509.63 58.00
1420 17.5000 3395.00 3503.76 58.00
1421 17.5100 3381.00 3499.56 58.00
1422 17.5200 3388.00 3495.47 58.00
1423 17.5300 3395.00 3492.26 58.00
1424 17.5400 3363.00 3489.95 58.00
1425 17.5500 3399.00 3488.56 58.00
1426 17.5600 3393.00 3488.14 58.00
1427 17.5700 3393.00 3488.75 58.00
1428 17.5800 3388.00 3490.50 58.00
1429 17.5900 3421.00 3493.51 58.00
1430 17.6000 3434.00 3498.01 59.00
1431 17.6100 3452.00 3504.27 59.00
1432 17.6200 3419.00 3512.75 58.00
1433 17.6300 3416.00 3524.13 58.00
1434 17.6400 3466.00 3539.48 59.00
1435 17.6500 3500.00 3560.40 59.00
1436 17.6600 3539.00 3589.30 59.00
1437 17.6700 3606.00 3629.51 60.00
1438 17.6800 3634.00 3685.43 60.00
1439 17.6900 3677.00 3762.33 61.00
1440 17.7000 3822.00 3865.90 62.00
1441 17.7100 3919.00 4001.23 63.00
1442 17.7200 4054.00 4171.35 64.00
1443 17.7300 4262.00 4375.19 65.00
1444 17.7400 4462.00 4604.61 67.00
1445 17.7500 4678.00 4840.34 68.00
1446 17.7600 4968.00 5048.09 70.00
1447 17.7700 5143.00 5184.39 72.00
1448 17.7800 5205.00 5215.79 72.00
1449 17.7900 5179.00 5137.31 72.00
1450 17.8000 4944.00 4974.20 70.00
1451 17.8100 4677.00 4766.35 68.00
1452 17.8200 4463.00 4550.11 67.00
1453 17.8300 4255.00 4349.53 65.00
1454 17.8400 4070.00 4177.53 64.00
1455 17.8500 3969.00 4039.35 63.00
1456 17.8600 3850.00 3935.80 62.00
1457 17.8700 3775.00 3865.31 61.00
1458 17.8800 3789.00 3825.62 62.00
1459 17.8900 3799.00 3809.20 62.00
1460 17.9000 3825.00 3827.26 62.00
1461 17.9100 3872.00 3875.44 62.00
1462 17.9200 3946.00 3956.94 63.00
1463 17.9300 4003.00 4075.95 63.00
1464 17.9400 4157.00 4236.68 64.00
1465 17.9500 4335.00 4441.57 66.00
1466 17.9600 4600.00 4689.64 68.00
1467 17.9700 4871.00 4973.97 70.00
1468 17.9800 5181.00 5278.55 72.00
1469 17.9900 5548.00 5574.36 74.00
1470 18.0000 5859.00 5817.24 77.00
1471 18.0100 6066.00 5955.10 78.00
1472 18.0200 6034.00 5950.29 78.00
1473 18.0300 5915.00 5803.03 77.00
1474 18.0400 5495.00 5551.22 74.00
1475 18.0500 5102.00 5246.84 71.00
1476 18.0600 4789.00 4933.57 69.00
1477 18.0700 4485.00 4640.03 67.00
1478 18.0800 4235.00 4388.47 65.00
1479 18.0900 4012.00 4172.03 63.00
1480 18.1000 3881.00 3996.49 62.00
1481 18.1100 3763.00 3860.53 61.00
1482 18.1200 3682.00 3757.40 61.00
1483 18.1300 3624.00 3680.69 60.00
1484 18.1400 3561.00 3624.29 60.00
1485 18.1500 3532.00 3582.98 59.00
1486 18.1600 3471.00 3552.71 59.00
1487 18.1700 3421.00 3530.60 58.00
1488 18.1800 3410.00 3514.84 58.00
1489 18.1900 3413.00 3504.48 58.00
1490 18.2000 3415.00 3499.28 58.00
1491 18.2100 3418.00 3499.50 58.00
1492 18.2200 3412.00 3505.65 58.00
1493 18.2300 3398.00 3518.28 58.00
1494 18.2400 3447.00 3537.56 59.00
1495 18.2500 3492.00 3562.91 59.00
1496 18.2600 3521.00 3592.35 59.00
1497 18.2700 3564.00 3621.60 60.00
1498 18.2800 3565.00 3643.59 60.00
1499 18.2900 3573.00 3650.21 60.00
1500 18.3000 3592.00 3637.51 60.00
1501 18.3100 3549.00 3609.07 60.00
1502 18.3200 3503.00 3572.82 59.00
1503 18.3300 3467.00 3535.83 59.00
1504 18.3400 3428.00 3502.33 59.00
1505 18.3500 3364.00 3474.22 58.00
1506 18.3600 3366.00 3451.93 58.00
1507 18.3700 3379.00 3435.07 58.00
1508 18.3800 3357.00 3422.81 58.00
1509 18.3900 3378.00 3414.15 58.00
1510 18.4000 3346.00 3408.19 58.00
1511 18.4100 3316.00 3403.61 58.00
1512 18.4200 3298.00 3400.99 57.00
1513 18.4300 3319.00 3398.43 58.00
1514 18.4400 3313.00 3397.61 58.00
1515 18.4500 3343.00 3397.43 58.00
1516 18.4600 3328.00 3397.80 58.00
1517 18.4700 3310.00 3398.69 58.00
1518 18.4800 3349.00 3400.07 58.00
1519 18.4900 3350.00 3401.95 58.00
1520 18.5000 3348.00 3404.35 58.00
1521 18.5100 3394.00 3407.31 58.00
1522 18.5200 3342.00 3410.88 58.00
1523 18.5300 3345.00 3415.15 58.00
1524 18.5400 3364.00 3420.23 58.00
1525 18.5500 3350.00 3426.28 58.00
1526 18.5600 3373.00 3433.50 58.00
1527 18.5700 3417.00 3442.25 58.00
1528 18.5800 3383.00 3453.06 58.00
1529 18.5900 3362.00 3466.90 58.00
1530 18.6000 3446.00 3485.46 59.00
1531 18.6100 3462.00 3511.64 59.00
1532 18.6200 3472.00 3549.94 59.00
1533 18.6300 3522.00 3606.36 59.00
1534 18.6400 3602.00 3687.50 60.00
1535 18.6500 3672.00 3797.22 61.00
1536 18.6600 3846.00 3936.34 62.00
1537 18.6700 3964.00 4089.62 63.00
1538 18.6800 4114.00 4218.66 64.00
1539 18.6900 4161.00 4265.91 65.00
1540 18.7000 4154.00 4207.52 64.00
1541 18.7100 4016.00 4082.37 63.00
1542 18.7200 3902.00 3945.84 62.00
1543 18.7300 3766.00 3829.57 61.00
1544 18.7400 3690.00 3743.58 61.00
1545 18.7500 3643.00 3687.13 60.00
1546 18.7600 3584.00 3654.85 60.00
1547 18.7700 3544.00 3640.47 60.00
1548 18.7800 3535.00 3638.60 59.00
1549 18.7900 3564.00 3645.58 60.00
1550 18.8000 3594.00 3658.99 60.00
1551 18.8100 3581.00 3678.67 60.00
1552 18.8200 3609.00 3704.23 60.00
1553 18.8300 3590.00 3736.30 60.00
1554 18.8400 3660.00 3780.93 60.00
1555 18.8500 3746.00 3830.92 61.00
1556 18.8600 3805.00 3894.78 62.00
1557 18.8700 3924.00 3978.67 63.00
1558 18.8800 4002.00 4092.09 63.00
1559 18.8900 4124.00 4248.94 64.00
1560 18.9000 4329.00 4467.53 66.00
1561 18.9100 4632.00 4769.80 68.00
1562 18.9200 4981.00 5177.80 71.00
1563 18.9300 5482.00 5708.70 74.00
1564 18.9400 6130.00 6366.31 78.00
1565 18.9500 6881.00 7129.97 83.00
1566 18.9600 7864.00 7934.77 89.00
1567 18.9700 8798.00 8650.57 94.00
1568 18.9800 9441.00 9089.02 97.00
1569 18.9900 9616.00 9098.68 98.00
1570 19.0000 9086.00 8692.78 95.00
1571 19.0100 8239.00 8038.40 91.00
1572 19.0200 7347.00 7323.98 86.00
1573 19.0300 6625.00 6677.76 81.00
1574 19.0400 6086.00 6166.80 78.00
1575 19.0500 5767.00 5822.04 76.00
1576 19.0600 5631.00 5655.99 75.00
1577 19.0700 5628.00 5674.46 75.00
1578 19.0800 5833.00 5881.38 76.00
1579 19.0900 6138.00 6279.27 78.00
1580 19.1000 6762.00 6864.98 82.00
1581 19.1100 7530.00 7619.38 87.00
1582 19.1200 8443.00 8491.19 92.00
1583 19.1300 9504.00 9369.78 97.00
1584 19.1400 10491.00 10067.00 102.00
1585 19.1500 10963.00 10359.10 105.00
1586 19.1600 10696.00 10132.70 103.00
1587 19.1700 9890.00 9486.01 99.00
1588 19.1800 8798.00 8642.03 94.00
1589 19.1900 7754.00 7798.40 88.00
1590 19.2000 7003.00 7075.06 84.00
1591 19.2100 6411.00 6529.87 80.00
1592 19.2200 6082.00 6184.66 78.00
1593 19.2300 5963.00 6041.29 77.00
1594 19.2400 5964.00 6090.82 77.00
1595 19.2500 6171.00 6318.01 79.00
1596 19.2600 6539.00 6702.17 81.00
1597 19.2700 7101.00 7214.49 84.00
1598 19.2800 7764.00 7810.03 88.00
1599 19.2900 8533.00 8416.79 92.00
1600 19.3000 9138.00 8925.91 96.00
1601 19.3100 9466.00 9207.34 97.00
1602 19.3200 9475.00 9165.15 97.00
1603 19.3300 9132.00 8801.33 96.00
1604 19.3400 8310.00 8212.71 91.00
1605 19.3500 7551.00 7524.96 87.00
1606 19.3600 6726.00 6838.12 82.00
1607 19.3700 6046.00 6212.42 78.00
1608 19.3800 5532.00 5677.13 74.00
1609 19.3900 5153.00 5241.21 72.00
1610 19.4000 4849.00 4900.96 70.00
1611 19.4100 4642.00 4645.63 68.00
1612 19.4200 4457.00 4461.00 67.00
1613 19.4300 4316.00 4332.73 66.00
1614 19.4400 4260.00 4248.03 65.00
1615 19.4500 4203.00 4196.75 65.00
1616 19.4600 4192.00 4171.45 65.00
1617 19.4700 4208.00 4167.03 65.00
1618 19.4800 4181.00 4180.23 65.00
1619 19.4900 4164.00 4208.92 65.00
1620 19.5000 4200.00 4251.71 65.00
1621 19.5100 4266.00 4307.49 65.00
1622 19.5200 4359.00 4375.20 66.00
1623 19.5300 4432.00 4453.61 67.00
1624 19.5400 4485.00 4541.27 67.00
1625 19.5500 4580.00 4636.19 68.00
1626 19.5600 4693.00 4735.90 69.00
1627 19.5700 4810.00 4837.07 69.00
1628 19.5800 4934.00 4935.43 70.00
1629 19.5900 5025.00 5026.00 71.00
1630 19.6000 5112.00 5103.34 71.00
1631 19.6100 5126.00 5162.08 72.00
1632 19.6200 5171.00 5196.94 72.00
1633 19.6300 5146.00 5202.58 72.00
1634 19.6400 5115.00 5175.59 72.00
1635 19.6500 5047.00 5116.73 71.00
1636 19.6600 4921.00 5038.85 70.00
1637 19.6700 4792.00 4958.34 69.00
1638 19.6800 4730.00 4891.90 69.00
1639 19.6900 4702.00 4854.37 69.00
1640 19.7000 4706.00 4857.56 69.00
1641 19.7100 4832.00 4913.21 70.00
1642 19.7200 4928.00 5030.24 70.00
1643 19.7300 5114.00 5216.79 72.00
1644 19.7400 5371.00 5472.73 73.00
1645 19.7500 5715.00 5791.50 76.00
1646 19.7600 6053.00 6143.35 78.00
1647 19.7700 6462.00 6481.81 80.00
1648 19.7800 6644.00 6735.70 82.00
1649 19.7900 6815.00 6839.46 83.00
1650 19.8000 6801.00 6779.64 82.00
1651 19.8100 6668.00 6605.58 82.00
1652 19.8200 6445.00 6388.85 80.00
1653 19.8300 6223.00 6182.58 79.00
1654 19.8400 6075.00 6010.95 78.00
1655 19.8500 5926.00 5879.35 77.00
1656 19.8600 5865.00 5791.16 77.00
1657 19.8700 5839.00 5761.76 76.00
1658 19.8800 5808.00 5819.84 76.00
1659 19.8900 5957.00 5997.63 77.00
1660 19.9000 6167.00 6318.82 79.00
1661 19.9100 6623.00 6787.40 81.00
1662 19.9200 7216.00 7370.77 85.00
1663 19.9300 7899.00 7972.36 89.00
1664 19.9400 8395.00 8413.40 92.00
1665 19.9500 8667.00 8509.71 93.00
1666 19.9600 8437.00 8243.32 92.00
1667 19.9700 8028.00 7794.79 90.00
1668 19.9800 7607.00 7387.22 87.00
1669 19.9900 7339.00 7182.57 86.00
1670 20.0000 7453.00 7282.61 86.00
1671 20.0100 7810.00 7740.72 88.00
1672 20.0200 8567.00 8544.91 93.00
1673 20.0300 9473.00 9558.27 97.00
1674 20.0400 10345.00 10413.30 102.00
1675 20.0500 10573.00 10582.80 103.00
1676 20.0600 10129.00 9915.18 101.00
1677 20.0700 9093.00 8826.52 95.00
1678 20.0800 7918.00 7749.64 89.00
1679 20.0900 6906.00 6870.59 83.00
1680 20.1000 6249.00 6218.05 79.00
1681 20.1100 5738.00 5751.45 76.00
1682 20.1200 5354.00 5421.31 73.00
1683 20.1300 5145.00 5175.41 72.00
1684 20.1400 4862.00 4979.48 70.00
1685 20.1500 4684.00 4814.50 68.00
1686 20.1600 4590.00 4671.05 68.00
1687 20.1700 4432.00 4545.02 67.00
1688 20.1800 4363.00 4434.55 66.00
1689 20.1900 4276.00 4338.74 65.00
1690 20.2000 4197.00 4256.92 65.00
1691 20.2100 4148.00 4188.55 64.00
1692 20.2200 4077.00 4133.01 64.00
1693 20.2300 4087.00 4089.77 64.00
1694 20.2400 4052.00 4058.27 64.00
1695 20.2500 4031.00 4038.08 63.00
1696 20.2600 4046.00 4028.92 64.00
1697 20.2700 4053.00 4030.86 64.00
1698 20.2800 4047.00 4044.45 64.00
1699 20.2900 4113.00 4071.09 64.00
1700 20.3000 4142.00 4113.48 64.00
1701 20.3100 4251.00 4176.33 65.00
1702 20.3200 4315.00 4267.06 66.00
1703 20.3300 4415.00 4396.64 66.00
1704 20.3400 4624.00 4579.84 68.00
1705 20.3500 4857.00 4834.77 70.00
1706 20.3600 5164.00 5180.78 72.00
1707 20.3700 5573.00 5635.24 75.00
1708 20.3800 6082.00 6207.73 78.00
1709 20.3900 6693.00 6893.39 82.00
1710 20.4000 7559.00 7659.70 87.00
1711 20.4100 8447.00 8430.04 92.00
1712 20.4200 9223.00 9068.31 96.00
1713 20.4300 9735.00 9405.93 99.00
1714 20.4400 9639.00 9335.70 98.00
1715 20.4500 9099.00 8898.07 95.00
1716 20.4600 8340.00 8243.81 91.00
1717 20.4700 7469.00 7527.22 86.00
1718 20.4800 6807.00 6852.27 83.00
1719 20.4900 6204.00 6274.82 79.00
1720 20.5000 5749.00 5818.06 76.00
1721 20.5100 5369.00 5485.13 73.00
1722 20.5200 5200.00 5266.78 72.00
1723 20.5300 5096.00 5148.06 71.00
1724 20.5400 5059.00 5112.54 71.00
1725 20.5500 5093.00 5145.19 71.00
1726 20.5600 5136.00 5233.45 72.00
1727 20.5700 5231.00 5367.06 72.00
1728 20.5800 5440.00 5537.45 74.00
1729 20.5900 5646.00 5736.45 75.00
1730 20.6000 5896.00 5955.48 77.00
1731 20.6100 6215.00 6184.24 79.00
1732 20.6200 6486.00 6410.20 81.00
1733 20.6300 6754.00 6618.02 82.00
1734 20.6400 7071.00 6790.72 84.00
1735 20.6500 7337.00 6911.59 86.00
1736 20.6600 7363.00 6968.00 86.00
1737 20.6700 7329.00 6955.09 86.00
1738 20.6800 7124.00 6877.49 84.00
1739 20.6900 6802.00 6747.98 82.00
1740 20.7000 6556.00 6584.03 81.00
1741 20.7100 6276.00 6403.78 79.00
1742 20.7200 6075.00 6223.33 78.00
1743 20.7300 5905.00 6055.45 77.00
1744 20.7400 5715.00 5909.48 76.00
1745 20.7500 5598.00 5791.39 75.00
1746 20.7600 5509.00 5704.27 74.00
1747 20.7700 5532.00 5648.46 74.00
1748 20.7800 5541.00 5621.86 74.00
1749 20.7900 5597.00 5620.16 75.00
1750 20.8000 5648.00 5637.17 75.00
1751 20.8100 5691.00 5665.44 75.00
1752 20.8200 5803.00 5696.83 76.00
1753 20.8300 5884.00 5723.04 77.00
1754 20.8400 5920.00 5735.87 77.00
1755 20.8500 5935.00 5728.28 77.00
1756 20.8600 5888.00 5694.40 77.00
1757 20.8700 5808.00 5631.28 76.00
1758 20.8800 5638.00 5539.66 75.00
1759 20.8900 5510.00 5423.83 74.00
1760 20.9000 5302.00 5290.62 73.00
1761 20.9100 5156.00 5147.93 72.00
1762 20.9200 4987.00 5003.06 71.00
1763 20.9300 4825.00 4863.20 69.00
1764 20.9400 4727.00 4733.49 69.00
1765 20.9500 4627.00 4618.30 68.00
1766 20.9600 4551.00 4521.01 67.00
1767 20.9700 4480.00 4444.16 67.00
1768 20.9800 4411.00 4389.47 66.00
1769 20.9900 4409.00 4357.85 66.00
1770 21.0000 4426.00 4349.16 67.00
1771 21.0100 4483.00 4361.84 67.00
1772 21.0200 4522.00 4392.03 67.00
1773 21.0300 4588.00 4432.65 68.00
1774 21.0400 4589.00 4474.16 68.00
1775 21.0500 4616.00 4508.02 68.00
1776 21.0600 4669.00 4529.64 68.00
1777 21.0700 4642.00 4533.98 68.00
1778 21.0800 4596.00 4510.02 68.00
1779 21.0900 4568.00 4451.65 68.00
1780 21.1000 4479.00 4374.23 67.00
1781 21.1100 4415.00 4303.99 66.00
1782 21.1200 4385.00 4260.95 66.00
1783 21.1300 4376.00 4257.36 66.00
1784 21.1400 4424.00 4303.06 67.00
1785 21.1500 4531.00 4412.38 67.00
1786 21.1600 4656.00 4592.22 68.00
1787 21.1700 4857.00 4859.79 70.00
1788 21.1800 5260.00 5225.32 73.00
1789 21.1900 5666.00 5687.83 75.00
1790 21.2000 6220.00 6220.72 79.00
1791 21.2100 6831.00 6749.01 83.00
1792 21.2200 7206.00 7133.03 85.00
1793 21.2300 7376.00 7218.18 86.00
1794 21.2400 7283.00 6965.63 85.00
1795 21.2500 6813.00 6493.70 83.00
1796 21.2600 6181.00 5961.43 79.00
1797 21.2700 5673.00 5473.29 75.00
1798 21.2800 5206.00 5073.70 72.00
1799 21.2900 4881.00 4771.75 70.00
1800 21.3000 4705.00 4560.27 69.00
1801 21.3100 4560.00 4423.75 68.00
1802 21.3200 4425.00 4345.96 67.00
1803 21.3300 4419.00 4313.28 66.00
1804 21.3400 4421.00 4316.35 66.00
1805 21.3500 4441.00 4350.58 67.00
1806 21.3600 4551.00 4416.00 67.00
1807 21.3700 4636.00 4516.92 68.00
1808 21.3800 4738.00 4661.92 69.00
1809 21.3900 4954.00 4863.68 70.00
1810 21.4000 5185.00 5138.05 72.00
1811 21.4100 5496.00 5502.98 74.00
1812 21.4200 5961.00 5975.51 77.00
1813 21.4300 6547.00 6568.47 81.00
1814 21.4400 7204.00 7283.94 85.00
1815 21.4500 8045.00 8104.56 90.00
1816 21.4600 8927.00 8977.87 94.00
1817 21.4700 9890.00 9801.36 99.00
1818 21.4800 10728.00 10418.70 104.00
1819 21.4900 11109.00 10664.00 105.00
1820 21.5000 10916.00 10450.80 104.00
1821 21.5100 10224.00 9838.13 101.00
1822 21.5200 9214.00 8991.38 96.00
1823 21.5300 8153.00 8080.63 90.00
1824 21.5400 7220.00 7222.13 85.00
1825 21.5500 6489.00 6475.05 81.00
1826 21.5600 5891.00 5860.28 77.00
1827 21.5700 5449.00 5375.96 74.00
1828 21.5800 5105.00 5008.00 71.00
1829 21.5900 4874.00 4736.36 70.00
1830 21.6000 4738.00 4540.03 69.00
1831 21.6100 4569.00 4400.14 68.00
1832 21.6200 4444.00 4301.29 67.00
1833 21.6300 4379.00 4232.11 66.00
1834 21.6400 4326.00 4184.73 66.00
1835 21.6500 4241.00 4154.21 65.00
1836 21.6600 4256.00 4137.74 65.00
1837 21.6700 4232.00 4134.12 65.00
1838 21.6800 4274.00 4143.44 65.00
1839 21.6900 4307.00 4166.92 66.00
1840 21.7000 4335.00 4206.92 66.00
1841 21.7100 4366.00 4265.98 66.00
1842 21.7200 4505.00 4350.75 67.00
1843 21.7300 4587.00 4465.98 68.00
1844 21.7400 4723.00 4618.19 69.00
1845 21.7500 4912.00 4813.81 70.00
1846 21.7600 5139.00 5058.43 72.00
1847 21.7700 5361.00 5354.97 73.00
1848 21.7800 5734.00 5702.08 76.00
1849 21.7900 6157.00 6090.84 78.00
1850 21.8000 6655.00 6501.52 82.00
1851 21.8100 7173.00 6900.09 85.00
1852 21.8200 7491.00 7237.98 87.00
1853 21.8300 7820.00 7466.64 88.00
1854 21.8400 7948.00 7552.16 89.00
1855 21.8500 7825.00 7513.71 88.00
1856 21.8600 7658.00 7409.70 88.00
1857 21.8700 7536.00 7311.45 87.00
1858 21.8800 7372.00 7277.68 86.00
1859 21.8900 7392.00 7344.87 86.00
1860 21.9000 7588.00 7533.56 87.00
1861 21.9100 7856.00 7844.39 89.00
1862 21.9200 8289.00 8262.99 91.00
1863 21.9300 8862.00 8757.08 94.00
1864 21.9400 9330.00 9271.94 97.00
1865 21.9500 9859.00 9729.02 99.00
1866 21.9600 10286.00 10033.80 101.00
1867 21.9700 10422.00 10104.00 102.00
1868 21.9800 10124.00 9905.28 101.00
1869 21.9900 9635.00 9469.39 98.00
1870 22.0000 8918.00 8873.55 94.00
1871 22.0100 8112.00 8204.10 90.00
1872 22.0200 7414.00 7529.18 86.00
1873 22.0300 6755.00 6897.17 82.00
1874 22.0400 6216.00 6333.05 79.00
1875 22.0500 5828.00 5849.25 76.00
1876 22.0600 5451.00 5448.10 74.00
1877 22.0700 5112.00 5126.40 71.00
1878 22.0800 4931.00 4877.02 70.00
1879 22.0900 4785.00 4691.76 69.00
1880 22.1000 4647.00 4562.86 68.00
1881 22.1100 4619.00 4484.96 68.00
1882 22.1200 4556.00 4456.11 67.00
1883 22.1300 4523.00 4478.33 67.00
1884 22.1400 4642.00 4557.13 68.00
1885 22.1500 4775.00 4699.82 69.00
1886 22.1600 4938.00 4912.20 70.00
1887 22.1700 5201.00 5193.70 72.00
1888 22.1800 5485.00 5528.38 74.00
1889 22.1900 5803.00 5870.61 76.00
1890 22.2000 6146.00 6131.87 78.00
1891 22.2100 6235.00 6205.43 79.00
1892 22.2200 6138.00 6046.84 78.00
1893 22.2300 5876.00 5718.97 77.00
1894 22.2400 5408.00 5329.38 74.00
1895 22.2500 5009.00 4956.86 71.00
1896 22.2600 4696.00 4638.60 69.00
1897 22.2700 4467.00 4384.62 67.00
1898 22.2800 4232.00 4191.40 65.00
1899 22.2900 4180.00 4049.14 65.00
1900 22.3000 4017.00 3946.30 63.00
1901 22.3100 3941.00 3871.99 63.00
1902 22.3200 3938.00 3817.53 63.00
1903 22.3300 3903.00 3776.54 62.00
1904 22.3400 3836.00 3744.76 62.00
1905 22.3500 3829.00 3719.45 62.00
1906 22.3600 3797.00 3698.89 62.00
1907 22.3700 3752.00 3681.94 61.00
1908 22.3800 3771.00 3667.81 61.00
1909 22.3900 3759.00 3655.16 61.00
1910 22.4000 3736.00 3645.09 61.00
1911 22.4100 3772.00 3636.52 61.00
1912 22.4200 3723.00 3629.24 61.00
1913 22.4300 3716.00 3623.15 61.00
1914 22.4400 3731.00 3618.14 61.00
1915 22.4500 3734.00 3613.36 61.00
1916 22.4600 3726.00 3610.54 61.00
1917 22.4700 3726.00 3608.73 61.00
1918 22.4800 3705.00 3607.92 61.00
1919 22.4900 3666.00 3608.08 61.00
1920 22.5000 3703.00 3609.19 61.00
1921 22.5100 3714.00 3611.27 61.00
1922 22.5200 3723.00 3614.32 61.00
1923 22.5300 3741.00 3618.38 61.00
1924 22.5400 3737.00 3623.49 61.00
1925 22.5500 3735.00 3629.71 61.00
1926 22.5600 3769.00 3637.13 61.00
1927 22.5700 3777.00 3645.86 61.00
1928 22.5800 3754.00 3656.05 61.00
1929 22.5900 3762.00 3667.89 61.00
1930 22.6000 3781.00 3681.61 61.00
1931 22.6100 3757.00 3697.56 61.00
1932 22.6200 3837.00 3716.16 62.00
1933 22.6300 3853.00 3738.07 62.00
1934 22.6400 3899.00 3764.21 62.00
1935 22.6500 3945.00 3796.00 63.00
1936 22.6600 3975.00 3835.47 63.00
1937 22.6700 4015.00 3885.58 63.00
1938 22.6800 4101.00 3950.32 64.00
1939 22.6900 4190.00 4034.86 65.00
1940 22.7000 4227.00 4145.27 65.00
1941 22.7100 4412.00 4288.07 66.00
1942 22.7200 4546.00 4468.89 67.00
1943 22.7300 4766.00 4692.66 69.00
1944 22.7400 5049.00 4959.18 71.00
1945 22.7500 5389.00 5261.57 73.00
1946 22.7600 5748.00 5581.39 76.00
1947 22.7700 6113.00 5882.59 78.00
1948 22.7800 6373.00 6111.97 80.00
1949 22.7900 6493.00 6216.72 81.00
1950 22.8000 6481.00 6177.99 81.00
1951 22.8100 6280.00 6026.84 79.00
1952 22.8200 5976.00 5822.57 77.00
1953 22.8300 5734.00 5620.72 76.00
1954 22.8400 5510.00 5458.62 74.00
1955 22.8500 5361.00 5357.26 73.00
1956 22.8600 5367.00 5326.59 73.00
1957 22.8700 5410.00 5369.71 74.00
1958 22.8800 5509.00 5485.03 74.00
1959 22.8900 5722.00 5670.24 76.00
1960 22.9000 5853.00 5911.47 77.00
1961 22.9100 6104.00 6199.45 78.00
1962 22.9200 6477.00 6518.75 80.00
1963 22.9300 6828.00 6853.40 83.00
1964 22.9400 7175.00 7190.60 85.00
1965 22.9500 7595.00 7522.09 87.00
1966 22.9600 7950.00 7839.49 89.00
1967 22.9700 8317.00 8130.39 91.00
1968 22.9800 8649.00 8377.84 93.00
1969 22.9900 8859.00 8565.87 94.00
1970 23.0000 8968.00 8686.11 95.00
1971 23.0100 8968.00 8743.05 95.00
1972 23.0200 8828.00 8753.82 94.00
1973 23.0300 8621.00 8742.96 93.00
1974 23.0400 8585.00 8734.92 93.00
1975 23.0500 8492.00 8747.24 92.00
1976 23.0600 8531.00 8785.80 92.00
1977 23.0700 8614.00 8841.42 93.00
1978 23.0800 8706.00 8888.97 93.00
1979 23.0900 8711.00 8889.85 93.00
1980 23.1000 8786.00 8804.11 94.00
1981 23.1100 8686.00 8608.07 93.00
1982 23.1200 8351.00 8305.90 91.00
1983 23.1300 8030.00 7925.40 90.00
1984 23.1400 7522.00 7501.98 87.00
1985 23.1500 7036.00 7067.05 84.00
1986 23.1600 6684.00 6643.21 82.00
1987 23.1700 6298.00 6245.77 79.00
1988 23.1800 5934.00 5884.03 77.00
1989 23.1900 5621.00 5563.15 75.00
1990 23.2000 5363.00 5284.81 73.00
1991 23.2100 5124.00 5048.68 72.00
1992 23.2200 4908.00 4852.71 70.00
1993 23.2300 4795.00 4694.33 69.00
1994 23.2400 4659.00 4570.54 68.00
1995 23.2500 4583.00 4478.45 68.00
1996 23.2600 4498.00 4415.25 67.00
1997 23.2700 4443.00 4378.22 67.00
1998 23.2800 4439.00 4364.32 67.00
1999 23.2900 4477.00 4369.60 67.00
2000 23.3000 4492.00 4388.18 67.00
2001 23.3100 4575.00 4411.02 68.00
2002 23.3200 4549.00 4424.77 67.00
2003 23.3300 4566.00 4418.77 68.00
2004 23.3400 4509.00 4385.57 67.00
2005 23.3500 4494.00 4329.27 67.00
2006 23.3600 4404.00 4260.97 66.00
2007 23.3700 4338.00 4192.37 66.00
2008 23.3800 4276.00 4132.06 65.00
2009 23.3900 4212.00 4085.41 65.00
2010 23.4000 4166.00 4056.04 65.00
2011 23.4100 4189.00 4047.36 65.00
2012 23.4200 4198.00 4063.95 65.00
2013 23.4300 4248.00 4112.86 65.00
2014 23.4400 4345.00 4204.40 66.00
2015 23.4500 4452.00 4351.88 67.00
2016 23.4600 4704.00 4569.38 69.00
2017 23.4700 4975.00 4867.63 71.00
2018 23.4800 5334.00 5245.17 73.00
2019 23.4900 5756.00 5672.31 76.00
2020 23.5000 6054.00 6059.73 78.00
2021 23.5100 6222.00 6262.71 79.00
2022 23.5200 6247.00 6172.20 79.00
2023 23.5300 5973.00 5834.56 77.00
2024 23.5400 5551.00 5396.90 75.00
2025 23.5500 5121.00 4976.50 72.00
2026 23.5600 4756.00 4625.06 69.00
2027 23.5700 4486.00 4353.81 67.00
2028 23.5800 4276.00 4155.10 65.00
2029 23.5900 4137.00 4014.52 64.00
2030 23.6000 4061.00 3916.61 64.00
2031 23.6100 4014.00 3848.17 63.00
2032 23.6200 3933.00 3799.32 63.00
2033 23.6300 3898.00 3763.43 62.00
2034 23.6400 3866.00 3736.32 62.00
2035 23.6500 3869.00 3715.45 62.00
2036 23.6600 3827.00 3699.27 62.00
2037 23.6700 3795.00 3686.74 62.00
2038 23.6800 3802.00 3677.30 62.00
2039 23.6900 3802.00 3670.43 62.00
2040 23.7000 3789.00 3665.82 62.00
2041 23.7100 3795.00 3663.24 62.00
2042 23.7200 3787.00 3662.55 62.00
2043 23.7300 3831.00 3663.67 62.00
2044 23.7400 3784.00 3666.58 62.00
2045 23.7500 3794.00 3670.68 62.00
2046 23.7600 3800.00 3677.43 62.00
2047 23.7700 3814.00 3686.40 62.00
2048 23.7800 3849.00 3697.98 62.00
2049 23.7900 3842.00 3712.76 62.00
2050 23.8000 3849.00 3731.59 62.00
2051 23.8100 3834.00 3755.71 62.00
2052 23.8200 3901.00 3786.74 62.00
2053 23.8300 3960.00 3826.71 63.00
2054 23.8400 4001.00 3878.01 63.00
2055 23.8500 4087.00 3943.15 64.00
2056 23.8600 4152.00 4024.49 64.00
2057 23.8700 4222.00 4123.75 65.00
2058 23.8800 4403.00 4241.39 66.00
2059 23.8900 4539.00 4375.48 67.00
2060 23.9000 4648.00 4520.14 68.00
2061 23.9100 4841.00 4663.54 70.00
2062 23.9200 5016.00 4788.57 71.00
2063 23.9300 5073.00 4879.32 71.00
2064 23.9400 5190.00 4932.46 72.00
2065 23.9500 5174.00 4961.96 72.00
2066 23.9600 5171.00 4991.38 72.00
2067 23.9700 5182.00 5042.41 72.00
2068 23.9800 5220.00 5129.38 72.00
2069 23.9900 5351.00 5258.92 73.00
2070 24.0000 5511.00 5431.20 74.00
2071 24.0100 5719.00 5640.10 76.00
2072 24.0200 5956.00 5873.04 77.00
2073 24.0300 6255.00 6110.41 79.00
2074 24.0400 6521.00 6326.72 81.00
2075 24.0500 6719.00 6495.22 82.00
2076 24.0600 6813.00 6597.79 83.00
2077 24.0700 6893.00 6618.07 83.00
2078 24.0800 6767.00 6560.90 82.00
2079 24.0900 6614.00 6437.68 81.00
2080 24.1000 6337.00 6266.65 80.00
2081 24.1100 6015.00 6069.27 78.00
2082 24.1200 5773.00 5866.57 76.00
2083 24.1300 5569.00 5675.58 75.00
2084 24.1400 5425.00 5508.18 74.00
2085 24.1500 5349.00 5371.13 73.00
2086 24.1600 5265.00 5267.10 73.00
2087 24.1700 5191.00 5195.42 72.00
2088 24.1800 5192.00 5153.03 72.00
2089 24.1900 5218.00 5134.94 72.00
2090 24.2000 5245.00 5135.49 72.00
2091 24.2100 5287.00 5148.97 73.00
2092 24.2200 5283.00 5171.21 73.00
2093 24.2300 5283.00 5200.09 73.00
2094 24.2400 5369.00 5235.63 73.00
2095 24.2500 5398.00 5274.85 73.00
2096 24.2600 5435.00 5313.21 74.00
2097 24.2700 5487.00 5339.83 74.00
2098 24.2800 5456.00 5340.89 74.00
2099 24.2900 5426.00 5308.30 74.00
2100 24.3000 5400.00 5248.13 73.00
2101 24.3100 5308.00 5179.33 73.00
2102 24.3200 5244.00 5124.66 72.00
2103 24.3300 5258.00 5103.76 73.00
2104 24.3400 5196.00 5131.49 72.00
2105 24.3500 5280.00 5219.06 73.00
2106 24.3600 5406.00 5375.01 74.00
2107 24.3700 5638.00 5605.24 75.00
2108 24.3800 5908.00 5912.43 77.00
2109 24.3900 6339.00 6294.87 80.00
2110 24.4000 6729.00 6743.45 82.00
2111 24.4100 7235.00 7238.53 85.00
2112 24.4200 7853.00 7744.85 89.00
2113 24.4300 8450.00 8211.65 92.00
2114 24.4400 8928.00 8584.17 94.00
2115 24.4500 9294.00 8831.00 96.00
2116 24.4600 9395.00 8965.88 97.00
2117 24.4700 9354.00 9042.28 97.00
2118 24.4800 9400.00 9124.44 97.00
2119 24.4900 9415.00 9266.37 97.00
2120 24.5000 9548.00 9489.89 98.00
2121 24.5100 9822.00 9770.30 99.00
2122 24.5200 9996.00 10011.90 100.00
2123 24.5300 9985.00 10054.90 100.00
2124 24.5400 9819.00 9767.40 99.00
2125 24.5500 9234.00 9166.71 96.00
2126 24.5600 8447.00 8403.98 92.00
2127 24.5700 7664.00 7638.34 88.00
2128 24.5800 6977.00 6964.68 84.00
2129 24.5900 6426.00 6419.85 80.00
2130 24.6000 6015.00 6006.73 78.00
2131 24.6100 5770.00 5712.27 76.00
2132 24.6200 5588.00 5516.41 75.00
2133 24.6300 5544.00 5397.85 74.00
2134 24.6400 5442.00 5337.07 74.00
2135 24.6500 5379.00 5318.56 73.00
2136 24.6600 5413.00 5331.15 74.00
2137 24.6700 5444.00 5367.18 74.00
2138 24.6800 5485.00 5420.11 74.00
2139 24.6900 5553.00 5480.63 75.00
2140 24.7000 5558.00 5532.84 75.00
2141 24.7100 5527.00 5553.28 74.00
2142 24.7200 5517.00 5518.10 74.00
2143 24.7300 5452.00 5416.95 74.00
2144 24.7400 5254.00 5261.08 72.00
2145 24.7500 5059.00 5075.88 71.00
2146 24.7600 4846.00 4886.89 70.00
2147 24.7700 4681.00 4711.79 68.00
2148 24.7800 4541.00 4560.39 67.00
2149 24.7900 4413.00 4436.45 66.00
2150 24.8000 4341.00 4342.15 66.00
2151 24.8100 4317.00 4276.59 66.00
2152 24.8200 4277.00 4238.98 65.00
2153 24.8300 4251.00 4228.75 65.00
2154 24.8400 4292.00 4245.93 66.00
2155 24.8500 4326.00 4291.26 66.00
2156 24.8600 4405.00 4365.85 66.00
2157 24.8700 4544.00 4470.60 67.00
2158 24.8800 4641.00 4605.08 68.00
2159 24.8900 4788.00 4766.27 69.00
2160 24.9000 4998.00 4945.82 71.00
2161 24.9100 5246.00 5127.11 72.00
2162 24.9200 5434.00 5282.83 74.00
2163 24.9300 5567.00 5379.83 75.00
2164 24.9400 5546.00 5394.37 74.00
2165 24.9500 5448.00 5328.63 74.00
2166 24.9600 5324.00 5209.89 73.00
2167 24.9700 5200.00 5073.49 72.00
2168 24.9800 5003.00 4948.26 71.00
2169 24.9900 4974.00 4852.81 71.00
2170 25.0000 4899.00 4797.58 70.00
2171 25.0100 4854.00 4788.62 70.00
2172 25.0200 4942.00 4828.56 70.00
2173 25.0300 5066.00 4917.99 71.00
2174 25.0400 5184.00 5057.27 72.00
2175 25.0500 5419.00 5244.34 74.00
2176 25.0600 5637.00 5476.05 75.00
2177 25.0700 5944.00 5746.28 77.00
2178 25.0800 6324.00 6044.86 80.00
2179 25.0900 6632.00 6353.99 81.00
2180 25.1000 7007.00 6650.78 84.00
2181 25.1100 7292.00 6910.69 85.00
2182 25.1200 7422.00 7116.23 86.00
2183 25.1300 7485.00 7262.05 87.00
2184 25.1400 7526.00 7357.87 87.00
2185 25.1500 7441.00 7428.01 86.00
2186 25.1600 7443.00 7501.16 86.00
2187 25.1700 7517.00 7596.88 87.00
2188 25.1800 7574.00 7719.25 87.00
2189 25.1900 7710.00 7855.75 88.00
2190 25.2000 7874.00 7977.86 89.00
2191 25.2100 8000.00 8045.80 89.00
2192 25.2200 7998.00 8020.00 89.00
2193 25.2300 7819.00 7877.44 88.00
2194 25.2400 7495.00 7622.80 87.00
2195 25.2500 7079.00 7285.08 84.00
2196 25.2600 6723.00 6903.58 82.00
2197 25.2700 6343.00 6513.43 80.00
2198 25.2800 5988.00 6139.11 77.00
2199 25.2900 5641.00 5793.27 75.00
2200 25.3000 5326.00 5480.00 73.00
2201 25.3100 5075.00 5198.38 71.00
2202 25.3200 4867.00 4947.21 70.00
2203 25.3300 4650.00 4726.65 68.00
2204 25.3400 4523.00 4537.01 67.00
2205 25.3500 4372.00 4377.50 66.00
2206 25.3600 4238.00 4245.63 65.00
2207 25.3700 4140.00 4137.95 64.00
2208 25.3800 4048.00 4050.62 64.00
2209 25.3900 4006.00 3979.96 63.00
2210 25.4000 3936.00 3922.66 63.00
2211 25.4100 3888.00 3875.81 62.00
2212 25.4200 3806.00 3837.45 62.00
2213 25.4300 3791.00 3805.63 62.00
2214 25.4400 3748.00 3778.94 61.00
2215 25.4500 3755.00 3756.36 61.00
2216 25.4600 3697.00 3737.09 61.00
2217 25.4700 3717.00 3720.56 61.00
2218 25.4800 3672.00 3706.39 61.00
2219 25.4900 3677.00 3694.26 61.00
2220 25.5000 3667.00 3683.96 61.00
2221 25.5100 3685.00 3675.12 61.00
2222 25.5200 3659.00 3668.03 60.00
2223 25.5300 3654.00 3662.43 60.00
2224 25.5400 3656.00 3658.27 60.00
2225 25.5500 3668.00 3655.57 61.00
2226 25.5600 3667.00 3654.39 61.00
2227 25.5700 3660.00 3654.84 60.00
2228 25.5800 3658.00 3657.13 60.00
2229 25.5900 3705.00 3661.57 61.00
2230 25.6000 3679.00 3668.60 61.00
2231 25.6100 3656.00 3678.84 60.00
2232 25.6200 3738.00 3693.11 61.00
2233 25.6300 3727.00 3712.42 61.00
2234 25.6400 3737.00 3737.95 61.00
2235 25.6500 3772.00 3770.96 61.00
2236 25.6600 3819.00 3812.64 62.00
2237 25.6700 3840.00 3863.93 62.00
2238 25.6800 3935.00 3924.14 63.00
2239 25.6900 3986.00 3994.27 63.00
2240 25.7000 4056.00 4072.01 64.00
2241 25.7100 4170.00 4152.17 65.00
2242 25.7200 4217.00 4226.91 65.00
2243 25.7300 4252.00 4285.73 65.00
2244 25.7400 4294.00 4318.89 66.00
2245 25.7500 4281.00 4322.20 65.00
2246 25.7600 4253.00 4299.22 65.00
2247 25.7700 4249.00 4258.65 65.00
2248 25.7800 4172.00 4210.15 65.00
2249 25.7900 4118.00 4162.02 64.00
2250 25.8000 4095.00 4120.74 64.00
2251 25.8100 4059.00 4091.33 64.00
2252 25.8200 4039.00 4077.90 64.00
2253 25.8300 4087.00 4084.01 64.00
2254 25.8400 4074.00 4114.97 64.00
2255 25.8500 4095.00 4171.21 64.00
2256 25.8600 4206.00 4258.14 65.00
2257 25.8700 4340.00 4379.36 66.00
2258 25.8800 4491.00 4537.21 67.00
2259 25.8900 4693.00 4734.08 69.00
2260 25.9000 4858.00 4966.82 70.00
2261 25.9100 5137.00 5228.18 72.00
2262 25.9200 5428.00 5499.61 74.00
2263 25.9300 5728.00 5750.60 76.00
2264 25.9400 5947.00 5942.12 77.00
2265 25.9500 6049.00 6041.32 78.00
2266 25.9600 5964.00 6035.49 77.00
2267 25.9700 5821.00 5930.99 76.00
2268 25.9800 5671.00 5746.29 75.00
2269 25.9900 5414.00 5514.46 74.00
2270 26.0000 5172.00 5277.92 72.00
2271 26.0100 4984.00 5070.75 71.00
2272 26.0200 4839.00 4912.01 70.00
2273 26.0300 4724.00 4809.52 69.00
2274 26.0400 4698.00 4764.87 69.00
2275 26.0500 4745.00 4775.21 69.00
2276 26.0600 4800.00 4833.24 69.00
2277 26.0700 4871.00 4924.85 70.00
2278 26.0800 4981.00 5025.49 71.00
2279 26.0900 5039.00 5099.63 71.00
2280 26.1000 5090.00 5114.21 71.00
2281 26.1100 5042.00 5057.63 71.00
2282 26.1200 4928.00 4946.09 70.00
2283 26.1300 4786.00 4807.86 69.00
2284 26.1400 4635.00 4667.70 68.00
2285 26.1500 4469.00 4541.37 67.00
2286 26.1600 4399.00 4436.33 66.00
2287 26.1700 4322.00 4354.77 66.00
2288 26.1800 4223.00 4295.83 65.00
2289 26.1900 4229.00 4257.34 65.00
2290 26.2000 4159.00 4236.56 64.00
2291 26.2100 4149.00 4230.66 64.00
2292 26.2200 4185.00 4236.88 65.00
2293 26.2300 4242.00 4252.45 65.00
2294 26.2400 4228.00 4274.40 65.00
2295 26.2500 4300.00 4299.33 66.00
2296 26.2600 4295.00 4323.16 66.00
2297 26.2700 4321.00 4341.26 66.00
2298 26.2800 4370.00 4348.86 66.00
2299 26.2900 4362.00 4342.11 66.00
2300 26.3000 4334.00 4319.12 66.00
2301 26.3100 4263.00 4280.58 65.00
2302 26.3200 4208.00 4229.49 65.00
2303 26.3300 4098.00 4171.66 64.00
2304 26.3400 4073.00 4108.22 64.00
2305 26.3500 4019.00 4044.41 63.00
2306 26.3600 3915.00 3983.02 63.00
2307 26.3700 3880.00 3925.88 62.00
2308 26.3800 3804.00 3874.18 62.00
2309 26.3900 3731.00 3828.52 61.00
2310 26.4000 3754.00 3789.12 61.00
2311 26.4100 3711.00 3755.91 61.00
2312 26.4200 3684.00 3728.64 61.00
2313 26.4300 3711.00 3706.91 61.00
2314 26.4400 3671.00 3690.30 61.00
2315 26.4500 3656.00 3678.40 60.00
2316 26.4600 3670.00 3670.85 61.00
2317 26.4700 3678.00 3667.45 61.00
2318 26.4800 3682.00 3668.09 61.00
2319 26.4900 3697.00 3672.84 61.00
2320 26.5000 3684.00 3681.89 61.00
2321 26.5100 3651.00 3695.50 60.00
2322 26.5200 3673.00 3713.95 61.00
2323 26.5300 3719.00 3737.38 61.00
2324 26.5400 3764.00 3765.68 61.00
2325 26.5500 3793.00 3798.09 62.00
2326 26.5600 3804.00 3833.32 62.00
2327 26.5700 3838.00 3868.39 62.00
2328 26.5800 3908.00 3898.79 63.00
2329 26.5900 3899.00 3918.76 62.00
2330 26.6000 3942.00 3923.18 63.00
2331 26.6100 3933.00 3910.21 63.00
2332 26.6200 3852.00 3882.48 62.00
2333 26.6300 3821.00 3845.55 62.00
2334 26.6400 3809.00 3805.17 62.00
2335 26.6500 3746.00 3765.66 61.00
2336 26.6600 3708.00 3729.63 61.00
2337 26.6700 3700.00 3698.39 61.00
2338 26.6800 3615.00 3672.38 60.00
2339 26.6900 3600.00 3651.54 60.00
2340 26.7000 3632.00 3635.46 60.00
2341 26.7100 3601.00 3623.60 60.00
2342 26.7200 3612.00 3615.36 60.00
2343 26.7300 3613.00 3610.16 60.00
2344 26.7400 3577.00 3607.48 60.00
2345 26.7500 3592.00 3606.92 60.00
2346 26.7600 3600.00 3608.19 60.00
2347 26.7700 3612.00 3611.11 60.00
2348 26.7800 3614.00 3615.59 60.00
2349 26.7900 3641.00 3621.66 60.00
2350 26.8000 3628.00 3629.42 60.00
2351 26.8100 3611.00 3639.12 60.00
2352 26.8200 3643.00 3651.06 60.00
2353 26.8300 3655.00 3665.66 60.00
2354 26.8400 3689.00 3683.43 61.00
2355 26.8500 3728.00 3704.91 61.00
2356 26.8600 3714.00 3730.66 61.00
2357 26.8700 3721.00 3761.09 61.00
2358 26.8800 3776.00 3796.34 61.00
2359 26.8900 3820.00 3835.92 62.00
2360 26.9000 3857.00 3878.66 62.00
2361 26.9100 3885.00 3923.59 62.00
2362 26.9200 3952.00 3971.63 63.00
2363 26.9300 3999.00 4028.96 63.00
2364 26.9400 4060.00 4102.20 64.00
2365 26.9500 4175.00 4198.46 65.00
2366 26.9600 4269.00 4323.84 65.00
2367 26.9700 4445.00 4483.05 67.00
2368 26.9800 4588.00 4678.66 68.00
2369 26.9900 4819.00 4910.01 69.00
2370 27.0000 5139.00 5170.62 72.00
2371 27.0100 5414.00 5444.80 74.00
2372 27.0200 5715.00 5703.30 76.00
2373 27.0300 5976.00 5904.62 77.00
2374 27.0400 6075.00 6007.87 78.00
2375 27.0500 6012.00 5995.78 78.00
2376 27.0600 5943.00 5885.91 77.00
2377 27.0700 5723.00 5716.89 76.00
2378 27.0800 5502.00 5526.02 74.00
2379 27.0900 5343.00 5337.66 73.00
2380 27.1000 5117.00 5164.25 72.00
2381 27.1100 4974.00 5011.11 71.00
2382 27.1200 4852.00 4880.48 70.00
2383 27.1300 4754.00 4772.90 69.00
2384 27.1400 4633.00 4688.29 68.00
2385 27.1500 4601.00 4625.13 68.00
2386 27.1600 4529.00 4581.35 67.00
2387 27.1700 4514.00 4554.44 67.00
2388 27.1800 4523.00 4541.74 67.00
2389 27.1900 4522.00 4540.56 67.00
2390 27.2000 4536.00 4548.39 67.00
2391 27.2100 4560.00 4563.29 68.00
2392 27.2200 4555.00 4584.43 67.00
2393 27.2300 4538.00 4612.53 67.00
2394 27.2400 4613.00 4649.99 68.00
2395 27.2500 4657.00 4699.53 68.00
2396 27.2600 4664.00 4767.47 68.00
2397 27.2700 4764.00 4857.60 69.00
2398 27.2800 4880.00 4974.76 70.00
2399 27.2900 4973.00 5123.52 71.00
2400 27.3000 5144.00 5307.90 72.00
2401 27.3100 5392.00 5531.16 73.00
2402 27.3200 5607.00 5794.67 75.00
2403 27.3300 5888.00 6096.97 77.00
2404 27.3400 6204.00 6432.36 79.00
2405 27.3500 6565.00 6787.90 81.00
2406 27.3600 7020.00 7140.75 84.00
2407 27.3700 7359.00 7456.36 86.00
2408 27.3800 7658.00 7694.53 88.00
2409 27.3900 7879.00 7824.48 89.00
2410 27.4000 7905.00 7840.19 89.00
2411 27.4100 7742.00 7761.20 88.00
2412 27.4200 7656.00 7617.95 87.00
2413 27.4300 7458.00 7437.09 86.00
2414 27.4400 7170.00 7236.34 85.00
2415 27.4500 6951.00 7025.92 83.00
2416 27.4600 6651.00 6811.99 82.00
2417 27.4700 6364.00 6598.49 80.00
2418 27.4800 6107.00 6388.72 78.00
2419 27.4900 5918.00 6185.25 77.00
2420 27.5000 5614.00 5990.39 75.00
2421 27.5100 5475.00 5805.99 74.00
2422 27.5200 5278.00 5633.74 73.00
2423 27.5300 5143.00 5475.64 72.00
2424 27.5400 4987.00 5333.46 71.00
2425 27.5500 4913.00 5209.24 70.00
2426 27.5600 4823.00 5105.08 69.00
2427 27.5700 4794.00 5023.28 69.00
2428 27.5800 4715.00 4965.92 69.00
2429 27.5900 4725.00 4934.83 69.00
2430 27.6000 4767.00 4931.22 69.00
2431 27.6100 4816.00 4955.34 69.00
2432 27.6200 4889.00 5005.85 70.00
2433 27.6300 5001.00 5078.90 71.00
2434 27.6400 5104.00 5166.95 71.00
2435 27.6500 5142.00 5257.73 72.00
2436 27.6600 5275.00 5335.54 73.00
2437 27.6700 5335.00 5386.12 73.00
2438 27.6800 5380.00 5403.70 73.00
2439 27.6900 5353.00 5394.28 73.00
2440 27.7000 5290.00 5371.36 73.00
2441 27.7100 5307.00 5347.60 73.00
2442 27.7200 5278.00 5328.27 73.00
2443 27.7300 5304.00 5310.70 73.00
2444 27.7400 5252.00 5280.15 72.00
2445 27.7500 5251.00 5227.05 72.00
2446 27.7600 5156.00 5148.84 72.00
2447 27.7700 5032.00 5054.12 71.00
2448 27.7800 4949.00 4957.37 70.00
2449 27.7900 4810.00 4871.61 69.00
2450 27.8000 4743.00 4805.01 69.00
2451 27.8100 4673.00 4760.82 68.00
2452 27.8200 4653.00 4738.86 68.00
2453 27.8300 4648.00 4736.49 68.00
2454 27.8400 4690.00 4748.70 68.00
2455 27.8500 4755.00 4771.03 69.00
2456 27.8600 4813.00 4796.06 69.00
2457 27.8700 4842.00 4816.58 70.00
2458 27.8800 4803.00 4825.25 69.00
2459 27.8900 4760.00 4818.13 69.00
2460 27.9000 4791.00 4792.21 69.00
2461 27.9100 4736.00 4748.14 69.00
2462 27.9200 4626.00 4689.13 68.00
2463 27.9300 4546.00 4619.95 67.00
2464 27.9400 4443.00 4545.69 67.00
2465 27.9500 4345.00 4471.06 66.00
2466 27.9600 4280.00 4399.70 65.00
2467 27.9700 4228.00 4335.20 65.00
2468 27.9800 4150.00 4279.61 64.00
2469 27.9900 4133.00 4234.66 64.00
2470 28.0000 4085.00 4201.29 64.00
2471 28.0100 4066.00 4180.66 64.00
2472 28.0200 4069.00 4172.72 64.00
2473 28.0300 4077.00 4177.12 64.00
2474 28.0400 4101.00 4192.89 64.00
2475 28.0500 4147.00 4218.37 64.00
2476 28.0600 4175.00 4251.29 65.00
2477 28.0700 4181.00 4288.79 65.00
2478 28.0800 4241.00 4327.48 65.00
2479 28.0900 4300.00 4363.36 66.00
2480 28.1000 4322.00 4391.63 66.00
2481 28.1100 4339.00 4406.90 66.00
2482 28.1200 4293.00 4404.33 66.00
2483 28.1300 4292.00 4381.38 66.00
2484 28.1400 4250.00 4339.25 65.00
2485 28.1500 4187.00 4282.56 65.00
2486 28.1600 4133.00 4217.62 64.00
2487 28.1700 4106.00 4150.21 64.00
2488 28.1800 4003.00 4085.82 63.00
2489 28.1900 3922.00 4027.47 63.00
2490 28.2000 3887.00 3977.34 62.00
2491 28.2100 3855.00 3936.76 62.00
2492 28.2200 3850.00 3908.71 62.00
2493 28.2300 3844.00 3889.56 62.00
2494 28.2400 3807.00 3881.94 62.00
2495 28.2500 3824.00 3886.45 62.00
2496 28.2600 3862.00 3903.75 62.00
2497 28.2700 3859.00 3934.61 62.00
2498 28.2800 3939.00 3979.82 63.00
2499 28.2900 3986.00 4040.00 63.00
2500 28.3000 4040.00 4115.32 64.00
2501 28.3100 4111.00 4205.16 64.00
2502 28.3200 4218.00 4307.43 65.00
2503 28.3300 4325.00 4417.50 66.00
2504 28.3400 4474.00 4527.10 67.00
2505 28.3500 4595.00 4623.63 68.00
2506 28.3600 4665.00 4692.11 68.00
2507 28.3700 4682.00 4721.50 68.00
2508 28.3800 4726.00 4708.72 69.00
2509 28.3900 4650.00 4660.08 68.00
2510 28.4000 4522.00 4587.05 67.00
2511 28.4100 4427.00 4502.12 67.00
2512 28.4200 4271.00 4415.92 65.00
2513 28.4300 4197.00 4336.06 65.00
2514 28.4400 4146.00 4266.37 64.00
2515 28.4500 4106.00 4206.39 64.00
2516 28.4600 4033.00 4151.98 64.00
2517 28.4700 3992.00 4097.71 63.00
2518 28.4800 3944.00 4043.05 63.00
2519 28.4900 3906.00 3992.58 62.00
2520 28.5000 3891.00 3951.97 62.00
2521 28.5100 3865.00 3924.77 62.00
2522 28.5200 3839.00 3912.54 62.00
2523 28.5300 3824.00 3915.89 62.00
2524 28.5400 3839.00 3935.13 62.00
2525 28.5500 3833.00 3970.51 62.00
2526 28.5600 3925.00 4022.22 63.00
2527 28.5700 4013.00 4090.26 63.00
2528 28.5800 4062.00 4174.04 64.00
2529 28.5900 4196.00 4272.01 65.00
2530 28.6000 4275.00 4380.78 65.00
2531 28.6100 4428.00 4494.16 67.00
2532 28.6200 4576.00 4602.09 68.00
2533 28.6300 4709.00 4692.00 69.00
2534 28.6400 4783.00 4746.92 69.00
2535 28.6500 4788.00 4758.08 69.00
2536 28.6600 4765.00 4725.53 69.00
2537 28.6700 4626.00 4659.36 68.00
2538 28.6800 4498.00 4574.78 67.00
2539 28.6900 4380.00 4485.94 66.00
2540 28.7000 4282.00 4403.28 65.00
2541 28.7100 4231.00 4332.85 65.00
2542 28.7200 4161.00 4277.33 65.00
2543 28.7300 4146.00 4236.78 64.00
2544 28.7400 4155.00 4209.32 64.00
2545 28.7500 4157.00 4191.96 64.00
2546 28.7600 4142.00 4181.42 64.00
2547 28.7700 4155.00 4176.14 64.00
2548 28.7800 4120.00 4175.46 64.00
2549 28.7900 4111.00 4179.98 64.00
2550 28.8000 4128.00 4190.79 64.00
2551 28.8100 4135.00 4209.42 64.00
2552 28.8200 4148.00 4237.91 64.00
2553 28.8300 4150.00 4278.75 64.00
2554 28.8400 4190.00 4334.29 65.00
2555 28.8500 4224.00 4406.26 65.00
2556 28.8600 4321.00 4495.44 66.00
2557 28.8700 4404.00 4601.41 66.00
2558 28.8800 4533.00 4722.50 67.00
2559 28.8900 4710.00 4855.12 69.00
2560 28.9000 4837.00 4993.90 70.00
2561 28.9100 5002.00 5130.33 71.00
2562 28.9200 5195.00 5253.61 72.00
2563 28.9300 5287.00 5351.68 73.00
2564 28.9400 5374.00 5414.37 73.00
2565 28.9500 5391.00 5436.44 73.00
2566 28.9600 5354.00 5419.60 73.00
2567 28.9700 5272.00 5371.74 73.00
2568 28.9800 5131.00 5304.03 72.00
2569 28.9900 5014.00 5228.20 71.00
2570 29.0000 4921.00 5153.41 70.00
2571 29.0100 4902.00 5085.84 70.00
2572 29.0200 4818.00 5028.40 69.00
2573 29.0300 4772.00 4980.96 69.00
2574 29.0400 4766.00 4940.64 69.00
2575 29.0500 4788.00 4902.64 69.00
2576 29.0600 4739.00 4861.40 69.00
2577 29.0700 4756.00 4812.26 69.00
2578 29.0800 4672.00 4752.72 68.00
2579 29.0900 4598.00 4682.72 68.00
2580 29.1000 4529.00 4604.01 67.00
2581 29.1100 4482.00 4519.18 67.00
2582 29.1200 4360.00 4431.11 66.00
2583 29.1300 4280.00 4342.65 65.00
2584 29.1400 4186.00 4256.47 65.00
2585 29.1500 4100.00 4174.76 64.00
2586 29.1600 4027.00 4099.29 63.00
2587 29.1700 4008.00 4031.10 63.00
2588 29.1800 3927.00 3970.65 63.00
2589 29.1900 3885.00 3918.27 62.00
2590 29.2000 3852.00 3873.78 62.00
2591 29.2100 3765.00 3836.87 61.00
2592 29.2200 3752.00 3807.19 61.00
2593 29.2300 3745.00 3784.50 61.00
2594 29.2400 3722.00 3767.99 61.00
2595 29.2500 3727.00 3758.91 61.00
2596 29.2600 3706.00 3756.66 61.00
2597 29.2700 3713.00 3761.21 61.00
2598 29.2800 3741.00 3772.29 61.00
2599 29.2900 3739.00 3789.03 61.00
2600 29.3000 3759.00 3809.33 61.00
2601 29.3100 3781.00 3829.10 61.00
2602 29.3200 3762.00 3842.04 61.00
2603 29.3300 3800.00 3843.44 62.00
2604 29.3400 3796.00 3831.80 62.00
2605 29.3500 3781.00 3811.39 61.00
2606 29.3600 3761.00 3788.14 61.00
2607 29.3700 3772.00 3766.74 61.00
2608 29.3800 3724.00 3749.75 61.00
2609 29.3900 3712.00 3738.24 61.00
2610 29.4000 3711.00 3732.53 61.00
2611 29.4100 3741.00 3732.63 61.00
2612 29.4200 3732.00 3738.21 61.00
2613 29.4300 3779.00 3750.01 61.00
2614 29.4400 3731.00 3767.96 61.00
2615 29.4500 3781.00 3792.55 61.00
2616 29.4600 3826.00 3824.43 62.00
2617 29.4700 3876.00 3864.34 62.00
2618 29.4800 3900.00 3913.02 62.00
2619 29.4900 3972.00 3971.05 63.00
2620 29.5000 4033.00 4038.48 64.00
2621 29.5100 4069.00 4114.57 64.00
2622 29.5200 4170.00 4197.19 65.00
2623 29.5300 4294.00 4282.58 66.00
2624 29.5400 4346.00 4365.78 66.00
2625 29.5500 4466.00 4443.35 67.00
2626 29.5600 4491.00 4515.29 67.00
2627 29.5700 4521.00 4586.18 67.00
2628 29.5800 4594.00 4663.06 68.00
2629 29.5900 4633.00 4752.47 68.00
2630 29.6000 4733.00 4859.18 69.00
2631 29.6100 4835.00 4983.98 70.00
2632 29.6200 4995.00 5126.23 71.00
2633 29.6300 5148.00 5282.01 72.00
2634 29.6400 5333.00 5444.12 73.00
2635 29.6500 5519.00 5601.90 74.00
2636 29.6600 5698.00 5742.28 75.00
2637 29.6700 5866.00 5852.59 77.00
2638 29.6800 5936.00 5924.80 77.00
2639 29.6900 5926.00 5957.49 77.00
2640 29.7000 5893.00 5955.04 77.00
2641 29.7100 5857.00 5925.34 77.00
2642 29.7200 5803.00 5877.79 76.00
2643 29.7300 5725.00 5821.95 76.00
2644 29.7400 5618.00 5766.28 75.00
2645 29.7500 5507.00 5717.23 74.00
2646 29.7600 5516.00 5678.45 74.00
2647 29.7700 5463.00 5650.38 74.00
2648 29.7800 5445.00 5630.02 74.00
2649 29.7900 5480.00 5611.11 74.00
2650 29.8000 5511.00 5585.08 74.00
2651 29.8100 5424.00 5542.73 74.00
2652 29.8200 5476.00 5476.48 74.00
2653 29.8300 5417.00 5382.40 74.00
2654 29.8400 5267.00 5261.73 73.00
2655 29.8500 5109.00 5120.41 71.00
2656 29.8600 4894.00 4967.28 70.00
2657 29.8700 4713.00 4811.47 69.00
2658 29.8800 4580.00 4660.77 68.00
2659 29.8900 4447.00 4520.29 67.00
2660 29.9000 4308.00 4393.35 66.00
2661 29.9100 4238.00 4281.32 65.00
2662 29.9200 4135.00 4184.49 64.00
2663 29.9300 3992.00 4102.30 63.00
2664 29.9400 3980.00 4033.75 63.00
2665 29.9500 3950.00 3977.47 63.00
2666 29.9600 3904.00 3931.95 62.00
2667 29.9700 3881.00 3895.67 62.00
2668 29.9800 3848.00 3867.16 62.00
2669 29.9900 3782.00 3845.08 61.00
2670 30.0000 3786.00 3828.26 62.00
2671 30.0100 3765.00 3815.71 61.00
2672 30.0200 3797.00 3806.60 62.00
2673 30.0300 3796.00 3800.27 62.00
2674 30.0400 3773.00 3796.25 61.00
2675 30.0500 3743.00 3794.19 61.00
2676 30.0600 3759.00 3793.91 61.00
2677 30.0700 3758.00 3795.30 61.00
2678 30.0800 3776.00 3798.29 61.00
2679 30.0900 3770.00 3802.81 61.00
2680 30.1000 3781.00 3808.84 61.00
2681 30.1100 3757.00 3816.23 61.00
2682 30.1200 3807.00 3824.83 62.00
2683 30.1300 3823.00 3834.43 62.00
2684 30.1400 3829.00 3844.84 62.00
2685 30.1500 3861.00 3855.95 62.00
2686 30.1600 3847.00 3867.82 62.00
2687 30.1700 3849.00 3880.76 62.00
2688 30.1800 3868.00 3895.74 62.00
2689 30.1900 3888.00 3914.14 62.00
2690 30.2000 3939.00 3938.01 63.00
2691 30.2100 3978.00 3969.85 63.00
2692 30.2200 3978.00 4012.29 63.00
2693 30.2300 4040.00 4067.37 64.00
2694 30.2400 4085.00 4134.93 64.00
2695 30.2500 4136.00 4209.88 64.00
2696 30.2600 4217.00 4278.95 65.00
2697 30.2700 4267.00 4324.22 65.00
2698 30.2800 4265.00 4338.20 65.00
2699 30.2900 4258.00 4333.79 65.00
2700 30.3000 4286.00 4332.55 65.00
2701 30.3100 4294.00 4350.09 66.00
2702 30.3200 4331.00 4393.35 66.00
2703 30.3300 4386.00 4463.45 66.00
2704 30.3400 4441.00 4558.22 67.00
2705 30.3500 4534.00 4672.67 67.00
2706 30.3600 4720.00 4800.96 69.00
2707 30.3700 4889.00 4933.46 70.00
2708 30.3800 5030.00 5057.47 71.00
2709 30.3900 5204.00 5156.77 72.00
2710 30.4000 5241.00 5214.19 72.00
2711 30.4100 5247.00 5217.32 72.00
2712 30.4200 5197.00 5164.35 72.00
2713 30.4300 5071.00 5065.07 71.00
2714 30.4400 4870.00 4936.16 70.00
2715 30.4500 4724.00 4794.94 69.00
2716 30.4600 4538.00 4654.97 67.00
2717 30.4700 4365.00 4525.18 66.00
2718 30.4800 4264.00 4410.54 65.00
2719 30.4900 4222.00 4313.23 65.00
2720 30.5000 4160.00 4233.53 64.00
2721 30.5100 4141.00 4170.59 64.00
2722 30.5200 4076.00 4122.73 64.00
2723 30.5300 4039.00 4087.89 64.00
2724 30.5400 4035.00 4063.89 64.00
2725 30.5500 3998.00 4048.67 63.00
2726 30.5600 4034.00 4040.54 64.00
2727 30.5700 4037.00 4038.40 64.00
2728 30.5800 4027.00 4041.77 63.00
2729 30.5900 4015.00 4050.86 63.00
2730 30.6000 4053.00 4066.39 64.00
2731 30.6100 4050.00 4091.19 64.00
2732 30.6200 4071.00 4122.23 64.00
2733 30.6300 4106.00 4161.42 64.00
2734 30.6400 4119.00 4207.17 64.00
2735 30.6500 4151.00 4255.28 64.00
2736 30.6600 4242.00 4298.30 65.00
2737 30.6700 4296.00 4327.09 66.00
2738 30.6800 4289.00 4335.28 65.00
2739 30.6900 4284.00 4323.99 65.00
2740 30.7000 4269.00 4301.44 65.00
2741 30.7100 4228.00 4278.20 65.00
2742 30.7200 4183.00 4262.72 65.00
2743 30.7300 4233.00 4260.07 65.00
2744 30.7400 4240.00 4272.46 65.00
2745 30.7500 4293.00 4300.08 66.00
2746 30.7600 4325.00 4341.64 66.00
2747 30.7700 4398.00 4394.74 66.00
2748 30.7800 4516.00 4456.16 67.00
2749 30.7900 4564.00 4522.38 68.00
2750 30.8000 4616.00 4590.37 68.00
2751 30.8100 4742.00 4657.99 69.00
2752 30.8200 4730.00 4723.89 69.00
2753 30.8300 4772.00 4786.97 69.00
2754 30.8400 4840.00 4845.92 70.00
2755 30.8500 4876.00 4899.57 70.00
2756 30.8600 4905.00 4948.05 70.00
2757 30.8700 4923.00 4993.51 70.00
2758 30.8800 4911.00 5039.85 70.00
2759 30.8900 4933.00 5091.09 70.00
2760 30.9000 5022.00 5151.46 71.00
2761 30.9100 5070.00 5222.06 71.00
2762 30.9200 5199.00 5301.81 72.00
2763 30.9300 5329.00 5387.12 73.00
2764 30.9400 5414.00 5472.06 74.00
2765 30.9500 5495.00 5549.23 74.00
2766 30.9600 5604.00 5612.09 75.00
2767 30.9700 5656.00 5651.68 75.00
2768 30.9800 5687.00 5664.88 75.00
2769 30.9900 5660.00 5652.18 75.00
2770 31.0000 5570.00 5620.34 75.00
2771 31.0100 5470.00 5580.26 74.00
2772 31.0200 5427.00 5542.77 74.00
2773 31.0300 5369.00 5516.14 73.00
2774 31.0400 5347.00 5505.18 73.00
2775 31.0500 5367.00 5509.70 73.00
2776 31.0600 5300.00 5521.65 73.00
2777 31.0700 5318.00 5522.27 73.00
2778 31.0800 5327.00 5484.79 73.00
2779 31.0900 5223.00 5387.97 72.00
2780 31.1000 5120.00 5232.70 72.00
2781 31.1100 4983.00 5041.30 71.00
2782 31.1200 4797.00 4841.55 69.00
2783 31.1300 4594.00 4653.85 68.00
2784 31.1400 4463.00 4488.15 67.00
2785 31.1500 4327.00 4347.94 66.00
2786 31.1600 4219.00 4232.75 65.00
2787 31.1700 4158.00 4140.43 64.00
2788 31.1800 4063.00 4068.16 64.00
2789 31.1900 3980.00 4013.10 63.00
2790 31.2000 3977.00 3972.62 63.00
2791 31.2100 3971.00 3944.54 63.00
2792 31.2200 3915.00 3927.14 63.00
2793 31.2300 3949.00 3919.18 63.00
2794 31.2400 3916.00 3919.74 63.00
2795 31.2500 3904.00 3928.14 62.00
2796 31.2600 3926.00 3943.66 63.00
2797 31.2700 3942.00 3966.23 63.00
2798 31.2800 3964.00 3995.27 63.00
2799 31.2900 4068.00 4030.38 64.00
2800 31.3000 4046.00 4070.93 64.00
2801 31.3100 4063.00 4115.97 64.00
2802 31.3200 4152.00 4163.67 64.00
2803 31.3300 4240.00 4211.27 65.00
2804 31.3400 4277.00 4255.00 65.00
2805 31.3500 4324.00 4290.60 66.00
2806 31.3600 4326.00 4314.50 66.00
2807 31.3700 4324.00 4325.15 66.00
2808 31.3800 4365.00 4323.39 66.00
2809 31.3900 4335.00 4311.57 66.00
2810 31.4000 4307.00 4293.05 66.00
2811 31.4100 4294.00 4269.94 66.00
2812 31.4200 4238.00 4243.79 65.00
2813 31.4300 4222.00 4215.78 65.00
2814 31.4400 4220.00 4187.51 65.00
2815 31.4500 4176.00 4160.97 65.00
2816 31.4600 4139.00 4138.51 64.00
2817 31.4700 4158.00 4122.27 64.00
2818 31.4800 4101.00 4114.04 64.00
2819 31.4900 4102.00 4115.34 64.00
2820 31.5000 4138.00 4127.52 64.00
2821 31.5100 4149.00 4151.76 64.00
2822 31.5200 4178.00 4188.86 65.00
2823 31.5300 4228.00 4238.98 65.00
2824 31.5400 4294.00 4301.66 66.00
2825 31.5500 4349.00 4375.62 66.00
2826 31.5600 4434.00 4458.49 67.00
2827 31.5700 4522.00 4546.52 67.00
2828 31.5800 4599.00 4634.23 68.00
2829 31.5900 4719.00 4714.54 69.00
2830 31.6000 4791.00 4779.98 69.00
2831 31.6100 4796.00 4824.65 69.00
2832 31.6200 4886.00 4846.56 70.00
2833 31.6300 4850.00 4848.48 70.00
2834 31.6400 4831.00 4836.71 70.00
2835 31.6500 4804.00 4818.22 69.00
2836 31.6600 4773.00 4798.33 69.00
2837 31.6700 4775.00 4778.85 69.00
2838 31.6800 4749.00 4758.91 69.00
2839 31.6900 4718.00 4737.34 69.00
2840 31.7000 4670.00 4715.40 68.00
2841 31.7100 4656.00 4697.74 68.00
2842 31.7200 4610.00 4690.65 68.00
2843 31.7300 4593.00 4699.21 68.00
2844 31.7400 4631.00 4725.16 68.00
2845 31.7500 4663.00 4765.53 68.00
2846 31.7600 4738.00 4811.76 69.00
2847 31.7700 4814.00 4849.88 69.00
2848 31.7800 4808.00 4863.96 69.00
2849 31.7900 4789.00 4843.33 69.00
2850 31.8000 4784.00 4788.51 69.00
2851 31.8100 4685.00 4709.48 68.00
2852 31.8200 4606.00 4619.39 68.00
2853 31.8300 4514.00 4529.74 67.00
2854 31.8400 4442.00 4448.54 67.00
2855 31.8500 4359.00 4380.70 66.00
2856 31.8600 4310.00 4328.64 66.00
2857 31.8700 4257.00 4292.86 65.00
2858 31.8800 4248.00 4272.41 65.00
2859 31.8900 4249.00 4264.75 65.00
2860 31.9000 4252.00 4265.99 65.00
2861 31.9100 4238.00 4270.79 65.00
2862 31.9200 4297.00 4273.36 66.00
2863 31.9300 4270.00 4268.59 65.00
2864 31.9400 4294.00 4253.43 66.00
2865 31.9500 4283.00 4227.43 65.00
2866 31.9600 4223.00 4191.94 65.00
2867 31.9700 4161.00 4148.94 65.00
2868 31.9800 4159.00 4100.39 64.00
2869 31.9900 4073.00 4048.28 64.00
2870 32.0000 4029.00 3994.73 63.00
2871 32.0100 3983.00 3941.95 63.00
2872 32.0200 3903.00 3891.94 62.00
2873 32.0300 3841.00 3846.23 62.00
2874 32.0400 3823.00 3805.77 62.00
2875 32.0500 3792.00 3771.06 62.00
2876 32.0600 3745.00 3742.20 61.00
2877 32.0700 3753.00 3719.03 61.00
2878 32.0800 3693.00 3701.26 61.00
2879 32.0900 3683.00 3688.54 61.00
2880 32.1000 3708.00 3680.45 61.00
2881 32.1100 3710.00 3676.56 61.00
2882 32.1200 3690.00 3676.47 61.00
2883 32.1300 3709.00 3679.75 61.00
2884 32.1400 3678.00 3685.97 61.00
2885 32.1500 3673.00 3694.69 61.00
2886 32.1600 3717.00 3705.42 61.00
2887 32.1700 3746.00 3717.60 61.00
2888 32.1800 3709.00 3730.63 61.00
2889 32.1900 3765.00 3743.75 61.00
2890 32.2000 3757.00 3756.13 61.00
2891 32.2100 3769.00 3766.85 61.00
2892 32.2200 3815.00 3775.04 62.00
2893 32.2300 3833.00 3779.96 62.00
2894 32.2400 3836.00 3781.17 62.00
2895 32.2500 3823.00 3778.61 62.00
2896 32.2600 3829.00 3772.65 62.00
2897 32.2700 3778.00 3763.99 61.00
2898 32.2800 3778.00 3753.57 61.00
2899 32.2900 3772.00 3742.40 61.00
2900 32.3000 3777.00 3731.46 61.00
2901 32.3100 3768.00 3721.69 61.00
2902 32.3200 3771.00 3713.94 61.00
2903 32.3300 3752.00 3708.94 61.00
2904 32.3400 3736.00 3707.51 61.00
2905 32.3500 3756.00 3710.32 61.00
2906 32.3600 3770.00 3718.04 61.00
2907 32.3700 3778.00 3731.31 61.00
2908 32.3800 3765.00 3750.75 61.00
2909 32.3900 3813.00 3776.72 62.00
2910 32.4000 3870.00 3809.87 62.00
2911 32.4100 3897.00 3850.21 62.00
2912 32.4200 3929.00 3897.68 63.00
2913 32.4300 3992.00 3951.79 63.00
2914 32.4400 4033.00 4011.46 64.00
2915 32.4500 4070.00 4074.97 64.00
2916 32.4600 4173.00 4139.50 65.00
2917 32.4700 4241.00 4201.13 65.00
2918 32.4800 4303.00 4254.73 66.00
2919 32.4900 4347.00 4294.70 66.00
2920 32.5000 4355.00 4315.67 66.00
2921 32.5100 4347.00 4315.06 66.00
2922 32.5200 4338.00 4292.78 66.00
2923 32.5300 4278.00 4252.11 65.00
2924 32.5400 4194.00 4198.33 65.00
2925 32.5500 4143.00 4137.24 64.00
2926 32.5600 4059.00 4073.77 64.00
2927 32.5700 3964.00 4011.80 63.00
2928 32.5800 3918.00 3953.88 63.00
2929 32.5900 3913.00 3901.66 63.00
2930 32.6000 3827.00 3855.96 62.00
2931 32.6100 3806.00 3818.21 62.00
2932 32.6200 3783.00 3786.17 62.00
2933 32.6300 3753.00 3760.69 61.00
2934 32.6400 3767.00 3741.29 61.00
2935 32.6500 3745.00 3727.40 61.00
2936 32.6600 3742.00 3718.42 61.00
2937 32.6700 3746.00 3713.73 61.00
2938 32.6800 3707.00 3712.76 61.00
2939 32.6900 3678.00 3714.95 61.00
2940 32.7000 3708.00 3719.81 61.00
2941 32.7100 3698.00 3726.90 61.00
2942 32.7200 3735.00 3735.82 61.00
2943 32.7300 3756.00 3746.18 61.00
2944 32.7400 3758.00 3757.64 61.00
2945 32.7500 3765.00 3769.71 61.00
2946 32.7600 3782.00 3782.39 61.00
2947 32.7700 3820.00 3795.27 62.00
2948 32.7800 3814.00 3808.10 62.00
2949 32.7900 3811.00 3820.67 62.00
2950 32.8000 3820.00 3832.65 62.00
2951 32.8100 3786.00 3843.69 62.00
2952 32.8200 3828.00 3853.17 62.00
2953 32.8300 3872.00 3860.52 62.00
2954 32.8400 3848.00 3864.74 62.00
2955 32.8500 3877.00 3864.90 62.00
2956 32.8600 3848.00 3860.28 62.00
2957 32.8700 3834.00 3850.72 62.00
2958 32.8800 3846.00 3836.67 62.00
2959 32.8900 3817.00 3819.20 62.00
2960 32.9000 3801.00 3799.67 62.00
2961 32.9100 3804.00 3779.39 62.00
2962 32.9200 3743.00 3759.51 61.00
2963 32.9300 3724.00 3740.89 61.00
2964 32.9400 3759.00 3724.17 61.00
2965 32.9500 3723.00 3709.76 61.00
2966 32.9600 3705.00 3697.94 61.00
2967 32.9700 3723.00 3688.85 61.00
2968 32.9800 3697.00 3682.53 61.00
2969 32.9900 3650.00 3678.86 60.00
2970 33.0000 3708.00 3677.54 61.00
2971 33.0100 3731.00 3678.02 61.00
2972 33.0200 3719.00 3680.69 61.00
2973 33.0300 3748.00 3681.76 61.00
2974 33.0400 3706.00 3681.40 61.00
2975 33.0500 3681.00 3679.07 61.00
2976 33.0600 3738.00 3675.01 61.00
2977 33.0700 3699.00 3669.98 61.00
2978 33.0800 3691.00 3664.77 61.00
2979 33.0900 3735.00 3659.94 61.00
2980 33.1000 3717.00 3655.83 61.00
2981 33.1100 3692.00 3652.65 61.00
2982 33.1200 3697.00 3650.52 61.00
2983 33.1300 3665.00 3649.53 61.00
2984 33.1400 3694.00 3649.74 61.00
2985 33.1500 3696.00 3651.24 61.00
2986 33.1600 3706.00 3654.15 61.00
2987 33.1700 3669.00 3658.48 61.00
2988 33.1800 3694.00 3664.80 61.00
2989 33.1900 3709.00 3673.21 61.00
2990 33.2000 3719.00 3683.93 61.00
2991 33.2100 3735.00 3697.37 61.00
2992 33.2200 3739.00 3713.73 61.00
2993 33.2300 3737.00 3733.26 61.00
2994 33.2400 3797.00 3756.19 62.00
2995 33.2500 3808.00 3782.74 62.00
2996 33.2600 3819.00 3813.08 62.00
2997 33.2700 3897.00 3847.39 62.00
2998 33.2800 3927.00 3885.66 63.00
2999 33.2900 3949.00 3927.91 63.00
3000 33.3000 4029.00 3973.94 63.00
3001 33.3100 4078.00 4023.48 64.00
3002 33.3200 4118.00 4077.37 64.00
3003 33.3300 4209.00 4132.63 65.00
3004 33.3400 4222.00 4190.24 65.00
3005 33.3500 4261.00 4249.64 65.00
3006 33.3600 4318.00 4310.36 66.00
3007 33.3700 4371.00 4371.25 66.00
3008 33.3800 4437.00 4430.56 67.00
3009 33.3900 4505.00 4485.47 67.00
3010 33.4000 4512.00 4532.54 67.00
3011 33.4100 4560.00 4568.19 68.00
3012 33.4200 4621.00 4590.39 68.00
3013 33.4300 4618.00 4600.27 68.00
3014 33.4400 4637.00 4602.96 68.00
3015 33.4500 4629.00 4606.71 68.00
3016 33.4600 4609.00 4620.75 68.00
3017 33.4700 4605.00 4653.11 68.00
3018 33.4800 4655.00 4708.88 68.00
3019 33.4900 4746.00 4788.38 69.00
3020 33.5000 4779.00 4883.78 69.00
3021 33.5100 4885.00 4975.75 70.00
3022 33.5200 4977.00 5035.42 71.00
3023 33.5300 4971.00 5039.64 71.00
3024 33.5400 4962.00 4989.86 70.00
3025 33.5500 4946.00 4910.38 70.00
3026 33.5600 4908.00 4828.75 70.00
3027 33.5700 4842.00 4762.11 70.00
3028 33.5800 4763.00 4717.18 69.00
3029 33.5900 4745.00 4692.80 69.00
3030 33.6000 4764.00 4683.97 69.00
3031 33.6100 4733.00 4683.33 69.00
3032 33.6200 4740.00 4683.05 69.00
3033 33.6300 4765.00 4676.07 69.00
3034 33.6400 4734.00 4658.46 69.00
3035 33.6500 4672.00 4630.50 68.00
3036 33.6600 4647.00 4596.21 68.00
3037 33.6700 4589.00 4561.52 68.00
3038 33.6800 4548.00 4532.62 67.00
3039 33.6900 4561.00 4514.86 68.00
3040 33.7000 4469.00 4512.37 67.00
3041 33.7100 4489.00 4528.12 67.00
3042 33.7200 4562.00 4563.99 68.00
3043 33.7300 4583.00 4620.46 68.00
3044 33.7400 4699.00 4696.47 69.00
3045 33.7500 4742.00 4788.40 69.00
3046 33.7600 4850.00 4889.16 70.00
3047 33.7700 4920.00 4987.28 70.00
3048 33.7800 5076.00 5067.18 71.00
3049 33.7900 5134.00 5112.83 72.00
3050 33.8000 5130.00 5114.36 72.00
3051 33.8100 5138.00 5073.71 72.00
3052 33.8200 5026.00 5003.69 71.00
3053 33.8300 4946.00 4921.42 70.00
3054 33.8400 4875.00 4841.99 70.00
3055 33.8500 4776.00 4775.57 69.00
3056 33.8600 4758.00 4727.67 69.00
3057 33.8700 4745.00 4700.46 69.00
3058 33.8800 4697.00 4693.72 69.00
3059 33.8900 4729.00 4705.56 69.00
3060 33.9000 4778.00 4732.77 69.00
3061 33.9100 4870.00 4770.89 70.00
3062 33.9200 4912.00 4814.32 70.00
3063 33.9300 5032.00 4856.64 71.00
3064 33.9400 5057.00 4890.91 71.00
3065 33.9500 5091.00 4910.81 71.00
3066 33.9600 5114.00 4911.70 72.00
3067 33.9700 5041.00 4891.67 71.00
3068 33.9800 4973.00 4851.89 71.00
3069 33.9900 4879.00 4796.07 70.00
3070 34.0000 4765.00 4729.37 69.00
3071 34.0100 4636.00 4656.97 68.00
3072 34.0200 4560.00 4583.29 68.00
3073 34.0300 4473.00 4511.50 67.00
3074 34.0400 4447.00 4442.96 67.00
3075 34.0500 4395.00 4378.07 66.00
3076 34.0600 4311.00 4315.72 66.00
3077 34.0700 4256.00 4254.54 65.00
3078 34.0800 4233.00 4193.49 65.00
3079 34.0900 4187.00 4132.82 65.00
3080 34.1000 4161.00 4073.93 65.00
3081 34.1100 4096.00 4018.82 64.00
3082 34.1200 4028.00 3969.43 63.00
3083 34.1300 3975.00 3927.15 63.00
3084 34.1400 4000.00 3892.92 63.00
3085 34.1500 3968.00 3867.27 63.00
3086 34.1600 3934.00 3850.62 63.00
3087 34.1700 3948.00 3843.32 63.00
3088 34.1800 3943.00 3845.71 63.00
3089 34.1900 3938.00 3858.82 63.00
3090 34.2000 3995.00 3882.91 63.00
3091 34.2100 3997.00 3918.62 63.00
3092 34.2200 4036.00 3965.89 64.00
3093 34.2300 4131.00 4024.25 64.00
3094 34.2400 4179.00 4089.45 65.00
3095 34.2500 4218.00 4156.22 65.00
3096 34.2600 4297.00 4215.03 66.00
3097 34.2700 4347.00 4256.02 66.00
3098 34.2800 4384.00 4273.84 66.00
3099 34.2900 4372.00 4270.31 66.00
3100 34.3000 4370.00 4252.93 66.00
3101 34.3100 4364.00 4227.23 66.00
3102 34.3200 4286.00 4196.07 65.00
3103 34.3300 4300.00 4160.19 66.00
3104 34.3400 4258.00 4120.30 65.00
3105 34.3500 4214.00 4078.12 65.00
3106 34.3600 4118.00 4036.25 64.00
3107 34.3700 4087.00 3997.34 64.00
3108 34.3800 4059.00 3963.39 64.00
3109 34.3900 4004.00 3935.66 63.00
3110 34.4000 4002.00 3914.70 63.00
3111 34.4100 4013.00 3900.70 63.00
3112 34.4200 3966.00 3893.45 63.00
3113 34.4300 3923.00 3892.51 63.00
3114 34.4400 3955.00 3897.24 63.00
3115 34.4500 3975.00 3906.85 63.00
3116 34.4600 3976.00 3920.50 63.00
3117 34.4700 4007.00 3937.51 63.00
3118 34.4800 3994.00 3957.18 63.00
3119 34.4900 3986.00 3980.13 63.00
3120 34.5000 4061.00 4006.40 64.00
3121 34.5100 4079.00 4036.43 64.00
3122 34.5200 4130.00 4070.48 64.00
3123 34.5300 4152.00 4108.35 64.00
3124 34.5400 4184.00 4149.37 65.00
3125 34.5500 4245.00 4192.08 65.00
3126 34.5600 4257.00 4234.40 65.00
3127 34.5700 4320.00 4273.52 66.00
3128 34.5800 4369.00 4306.25 66.00
3129 34.5900 4384.00 4329.09 66.00
3130 34.6000 4401.00 4338.93 66.00
3131 34.6100 4383.00 4333.73 66.00
3132 34.6200 4364.00 4313.27 66.00
3133 34.6300 4335.00 4279.50 66.00
3134 34.6400 4297.00 4236.24 66.00
3135 34.6500 4251.00 4187.91 65.00
3136 34.6600 4147.00 4138.78 64.00
3137 34.6700 4127.00 4092.13 64.00
3138 34.6800 4105.00 4050.25 64.00
3139 34.6900 4080.00 4014.55 64.00
3140 34.7000 4016.00 3985.86 63.00
3141 34.7100 4056.00 3964.26 64.00
3142 34.7200 4024.00 3949.72 63.00
3143 34.7300 3996.00 3941.83 63.00
3144 34.7400 4003.00 3939.93 63.00
3145 34.7500 4010.00 3943.03 63.00
3146 34.7600 4037.00 3949.73 64.00
3147 34.7700 4040.00 3958.12 64.00
3148 34.7800 4045.00 3965.74 64.00
3149 34.7900 4066.00 3969.89 64.00
3150 34.8000 4078.00 3968.17 64.00
3151 34.8100 4071.00 3959.23 64.00
3152 34.8200 4044.00 3943.34 64.00
3153 34.8300 4016.00 3922.24 63.00
3154 34.8400 3970.00 3898.55 63.00
3155 34.8500 3890.00 3874.95 62.00
3156 34.8600 3889.00 3853.76 62.00
3157 34.8700 3882.00 3836.75 62.00
3158 34.8800 3907.00 3825.10 63.00
3159 34.8900 3893.00 3819.62 62.00
3160 34.9000 3932.00 3820.79 63.00
3161 34.9100 3841.00 3828.81 62.00
3162 34.9200 3924.00 3843.66 63.00
3163 34.9300 3925.00 3865.06 63.00
3164 34.9400 3944.00 3892.32 63.00
3165 34.9500 4015.00 3924.55 63.00
3166 34.9600 4042.00 3960.12 64.00
3167 34.9700 4069.00 3996.96 64.00
3168 34.9800 4123.00 4032.62 64.00
3169 34.9900 4133.00 4065.08 64.00
3170 35.0000 4217.00 4093.16 65.00
3171 35.0100 4225.00 4117.18 65.00
3172 35.0200 4222.00 4138.67 65.00
3173 35.0300 4221.00 4159.62 65.00
3174 35.0400 4254.00 4181.60 65.00
3175 35.0500 4267.00 4205.02 65.00
3176 35.0600 4319.00 4228.81 66.00
3177 35.0700 4371.00 4250.54 66.00
3178 35.0800 4378.00 4267.13 66.00
3179 35.0900 4318.00 4276.09 66.00
3180 35.1000 4375.00 4276.55 66.00
3181 35.1100 4377.00 4270.65 66.00
3182 35.1200 4326.00 4261.54 66.00
3183 35.1300 4312.00 4253.01 66.00
3184 35.1400 4270.00 4248.17 65.00
3185 35.1500 4292.00 4248.83 66.00
3186 35.1600 4246.00 4255.37 65.00
3187 35.1700 4303.00 4266.62 66.00
3188 35.1800 4299.00 4279.89 66.00
3189 35.1900 4365.00 4291.05 66.00
3190 35.2000 4336.00 4295.10 66.00
3191 35.2100 4345.00 4287.36 66.00
3192 35.2200 4335.00 4264.88 66.00
3193 35.2300 4306.00 4227.65 66.00
3194 35.2400 4243.00 4178.37 65.00
3195 35.2500 4201.00 4121.43 65.00
3196 35.2600 4134.00 4061.31 64.00
3197 35.2700 4033.00 4001.81 64.00
3198 35.2800 4009.00 3945.67 63.00
3199 35.2900 3959.00 3894.57 63.00
3200 35.3000 3911.00 3849.45 63.00
3201 35.3100 3879.00 3810.61 62.00
3202 35.3200 3829.00 3778.32 62.00
3203 35.3300 3796.00 3752.28 62.00
3204 35.3400 3817.00 3732.17 62.00
3205 35.3500 3796.00 3717.58 62.00
3206 35.3600 3806.00 3708.03 62.00
3207 35.3700 3794.00 3703.05 62.00
3208 35.3800 3802.00 3702.13 62.00
3209 35.3900 3794.00 3704.76 62.00
3210 35.4000 3816.00 3710.38 62.00
3211 35.4100 3829.00 3718.28 62.00
3212 35.4200 3844.00 3727.77 62.00
3213 35.4300 3843.00 3737.78 62.00
3214 35.4400 3883.00 3747.46 62.00
3215 35.4500 3857.00 3755.11 62.00
3216 35.4600 3925.00 3760.45 63.00
3217 35.4700 3859.00 3763.62 62.00
3218 35.4800 3890.00 3765.40 62.00
3219 35.4900 3923.00 3766.92 63.00
3220 35.5000 3881.00 3769.15 62.00
3221 35.5100 3894.00 3772.98 62.00
3222 35.5200 3894.00 3778.72 62.00
3223 35.5300 3885.00 3786.62 62.00
3224 35.5400 3900.00 3796.90 62.00
3225 35.5500 3906.00 3810.06 62.00
3226 35.5600 3929.00 3826.66 63.00
3227 35.5700 3927.00 3847.35 63.00
3228 35.5800 3953.00 3872.82 63.00
3229 35.5900 3969.00 3903.59 63.00
3230 35.6000 4030.00 3940.12 63.00
3231 35.6100 4031.00 3982.60 63.00
3232 35.6200 4088.00 4030.93 64.00
3233 35.6300 4140.00 4084.77 64.00
3234 35.6400 4184.00 4143.42 65.00
3235 35.6500 4254.00 4205.75 65.00
3236 35.6600 4297.00 4270.04 66.00
3237 35.6700 4415.00 4334.09 66.00
3238 35.6800 4469.00 4395.40 67.00
3239 35.6900 4496.00 4451.22 67.00
3240 35.7000 4578.00 4499.85 68.00
3241 35.7100 4629.00 4538.56 68.00
3242 35.7200 4651.00 4567.28 68.00
3243 35.7300 4699.00 4586.03 69.00
3244 35.7400 4705.00 4595.17 69.00
3245 35.7500 4692.00 4595.04 68.00
3246 35.7600 4705.00 4585.96 69.00
3247 35.7700 4702.00 4568.13 69.00
3248 35.7800 4701.00 4541.96 69.00
3249 35.7900 4605.00 4508.03 68.00
3250 35.8000 4554.00 4467.40 67.00
3251 35.8100 4479.00 4421.46 67.00
3252 35.8200 4430.00 4371.94 67.00
3253 35.8300 4374.00 4320.62 66.00
3254 35.8400 4315.00 4269.25 66.00
3255 35.8500 4276.00 4219.34 65.00
3256 35.8600 4209.00 4172.13 65.00
3257 35.8700 4150.00 4128.55 64.00
3258 35.8800 4141.00 4089.26 64.00
3259 35.8900 4098.00 4054.65 64.00
3260 35.9000 4073.00 4024.95 64.00
3261 35.9100 4079.00 4000.16 64.00
3262 35.9200 4043.00 3980.03 64.00
3263 35.9300 3990.00 3964.13 63.00
3264 35.9400 4033.00 3951.86 64.00
3265 35.9500 4027.00 3942.45 63.00
3266 35.9600 4030.00 3935.04 63.00
3267 35.9700 4015.00 3928.79 63.00
3268 35.9800 4030.00 3923.15 63.00
3269 35.9900 4034.00 3918.09 64.00
3270 36.0000 4057.00 3914.16 64.00
3271 36.0100 4029.00 3912.30 63.00
3272 36.0200 4006.00 3913.73 63.00
3273 36.0300 4046.00 3919.74 64.00
3274 36.0400 4041.00 3931.68 64.00
3275 36.0500 4032.00 3950.79 63.00
3276 36.0600 4070.00 3978.07 64.00
3277 36.0700 4108.00 4013.81 64.00
3278 36.0800 4139.00 4057.46 64.00
3279 36.0900 4169.00 4107.94 65.00
3280 36.1000 4212.00 4164.99 65.00
3281 36.1100 4259.00 4229.59 65.00
3282 36.1200 4324.00 4302.44 66.00
3283 36.1300 4425.00 4381.59 67.00
3284 36.1400 4530.00 4460.38 67.00
3285 36.1500 4581.00 4527.59 68.00
3286 36.1600 4603.00 4570.94 68.00
3287 36.1700 4623.00 4580.37 68.00
3288 36.1800 4581.00 4553.20 68.00
3289 36.1900 4561.00 4495.24 68.00
3290 36.2000 4490.00 4418.04 67.00
3291 36.2100 4430.00 4334.12 67.00
3292 36.2200 4319.00 4253.00 66.00
3293 36.2300 4218.00 4180.24 65.00
3294 36.2400 4216.00 4118.25 65.00
3295 36.2500 4165.00 4067.82 65.00
3296 36.2600 4097.00 4029.17 64.00
3297 36.2700 4108.00 4002.34 64.00
3298 36.2800 4058.00 3987.41 64.00
3299 36.2900 4023.00 3984.42 63.00
3300 36.3000 4050.00 3993.51 64.00
3301 36.3100 4063.00 4014.95 64.00
3302 36.3200 4106.00 4049.06 64.00
3303 36.3300 4113.00 4096.31 64.00
3304 36.3400 4152.00 4157.09 64.00
3305 36.3500 4209.00 4231.62 65.00
3306 36.3600 4331.00 4319.80 66.00
3307 36.3700 4411.00 4420.56 66.00
3308 36.3800 4506.00 4531.68 67.00
3309 36.3900 4617.00 4648.70 68.00
3310 36.4000 4699.00 4764.61 69.00
3311 36.4100 4768.00 4869.79 69.00
3312 36.4200 4954.00 4953.40 70.00
3313 36.4300 4989.00 5006.97 71.00
3314 36.4400 5030.00 5027.78 71.00
3315 36.4500 5093.00 5019.50 71.00
3316 36.4600 5044.00 4990.58 71.00
3317 36.4700 4977.00 4949.14 71.00
3318 36.4800 4977.00 4901.51 71.00
3319 36.4900 4918.00 4851.28 70.00
3320 36.5000 4858.00 4800.08 70.00
3321 36.5100 4799.00 4748.18 69.00
3322 36.5200 4688.00 4695.43 68.00
3323 36.5300 4624.00 4641.62 68.00
3324 36.5400 4632.00 4586.60 68.00
3325 36.5500 4553.00 4530.39 67.00
3326 36.5600 4503.00 4473.12 67.00
3327 36.5700 4445.00 4415.17 67.00
3328 36.5800 4366.00 4357.16 66.00
3329 36.5900 4273.00 4300.50 65.00
3330 36.6000 4256.00 4245.51 65.00
3331 36.6100 4227.00 4193.91 65.00
3332 36.6200 4158.00 4146.92 64.00
3333 36.6300 4108.00 4105.43 64.00
3334 36.6400 4070.00 4070.30 64.00
3335 36.6500 4028.00 4042.12 63.00
3336 36.6600 4040.00 4021.27 64.00
3337 36.6700 4002.00 4008.00 63.00
3338 36.6800 4028.00 4002.46 63.00
3339 36.6900 4048.00 4004.68 64.00
3340 36.7000 4058.00 4014.55 64.00
3341 36.7100 4035.00 4031.78 64.00
3342 36.7200 4080.00 4055.86 64.00
3343 36.7300 4091.00 4086.03 64.00
3344 36.7400 4146.00 4121.10 64.00
3345 36.7500 4219.00 4159.33 65.00
3346 36.7600 4223.00 4198.47 65.00
3347 36.7700 4243.00 4235.85 65.00
3348 36.7800 4338.00 4268.80 66.00
3349 36.7900 4333.00 4295.49 66.00
3350 36.8000 4343.00 4315.64 66.00
3351 36.8100 4408.00 4330.97 66.00
3352 36.8200 4360.00 4344.58 66.00
3353 36.8300 4350.00 4360.03 66.00
3354 36.8400 4388.00 4380.47 66.00
3355 36.8500 4393.00 4408.33 66.00
3356 36.8600 4451.00 4445.11 67.00
3357 36.8700 4468.00 4491.26 67.00
3358 36.8800 4521.00 4546.16 67.00
3359 36.8900 4558.00 4607.88 68.00
3360 36.9000 4652.00 4673.07 68.00
3361 36.9100 4714.00 4736.87 69.00
3362 36.9200 4833.00 4793.38 70.00
3363 36.9300 4926.00 4836.88 70.00
3364 36.9400 4913.00 4862.91 70.00
3365 36.9500 4893.00 4869.73 70.00
3366 36.9600 4899.00 4858.52 70.00
3367 36.9700 4863.00 4832.68 70.00
3368 36.9800 4767.00 4796.66 69.00
3369 36.9900 4748.00 4754.64 69.00
3370 37.0000 4665.00 4709.88 68.00
3371 37.0100 4609.00 4664.19 68.00
3372 37.0200 4561.00 4618.28 68.00
3373 37.0300 4516.00 4572.23 67.00
3374 37.0400 4506.00 4525.86 67.00
3375 37.0500 4471.00 4479.42 67.00
3376 37.0600 4412.00 4433.38 66.00
3377 37.0700 4325.00 4388.58 66.00
3378 37.0800 4334.00 4345.84 66.00
3379 37.0900 4278.00 4306.08 65.00
3380 37.1000 4263.00 4270.04 65.00
3381 37.1100 4257.00 4238.18 65.00
3382 37.1200 4198.00 4210.63 65.00
3383 37.1300 4163.00 4187.04 65.00
3384 37.1400 4182.00 4166.74 65.00
3385 37.1500 4158.00 4148.70 64.00
3386 37.1600 4151.00 4131.77 64.00
3387 37.1700 4149.00 4114.77 64.00
3388 37.1800 4128.00 4096.68 64.00
3389 37.1900 4089.00 4076.78 64.00
3390 37.2000 4098.00 4054.67 64.00
3391 37.2100 4049.00 4030.34 64.00
3392 37.2200 4022.00 4004.41 63.00
3393 37.2300 3989.00 3977.42 63.00
3394 37.2400 3939.00 3950.07 63.00
3395 37.2500 3889.00 3923.10 62.00
3396 37.2600 3882.00 3897.05 62.00
3397 37.2700 3881.00 3872.32 62.00
3398 37.2800 3846.00 3849.19 62.00
3399 37.2900 3854.00 3827.77 62.00
3400 37.3000 3802.00 3808.09 62.00
3401 37.3100 3795.00 3790.06 62.00
3402 37.3200 3789.00 3773.60 62.00
3403 37.3300 3781.00 3758.56 61.00
3404 37.3400 3749.00 3744.85 61.00
3405 37.3500 3785.00 3732.36 62.00
3406 37.3600 3724.00 3721.05 61.00
3407 37.3700 3714.00 3710.95 61.00
3408 37.3800 3724.00 3702.14 61.00
3409 37.3900 3702.00 3694.84 61.00
3410 37.4000 3703.00 3689.28 61.00
3411 37.4100 3726.00 3685.58 61.00
3412 37.4200 3690.00 3684.39 61.00
3413 37.4300 3674.00 3685.80 61.00
3414 37.4400 3680.00 3690.08 61.00
3415 37.4500 3705.00 3697.43 61.00
3416 37.4600 3708.00 3708.01 61.00
3417 37.4700 3711.00 3721.90 61.00
3418 37.4800 3709.00 3739.04 61.00
3419 37.4900 3694.00 3759.25 61.00
3420 37.5000 3740.00 3782.13 61.00
3421 37.5100 3779.00 3806.98 61.00
3422 37.5200 3839.00 3832.78 62.00
3423 37.5300 3862.00 3858.11 62.00
3424 37.5400 3897.00 3881.37 62.00
3425 37.5500 3898.00 3900.59 62.00
3426 37.5600 3947.00 3914.32 63.00
3427 37.5700 3945.00 3921.63 63.00
3428 37.5800 3928.00 3922.34 63.00
3429 37.5900 3930.00 3916.81 63.00
3430 37.6000 3899.00 3905.99 62.00
3431 37.6100 3856.00 3890.54 62.00
3432 37.6200 3864.00 3871.14 62.00
3433 37.6300 3844.00 3848.49 62.00
3434 37.6400 3795.00 3823.47 62.00
3435 37.6500 3815.00 3797.09 62.00
3436 37.6600 3745.00 3770.68 61.00
3437 37.6700 3743.00 3745.39 61.00
3438 37.6800 3742.00 3722.25 61.00
3439 37.6900 3738.00 3702.05 61.00
3440 37.7000 3697.00 3685.35 61.00
3441 37.7100 3695.00 3672.52 61.00
3442 37.7200 3658.00 3663.76 60.00
3443 37.7300 3658.00 3659.20 60.00
3444 37.7400 3678.00 3658.89 61.00
3445 37.7500 3675.00 3662.85 61.00
3446 37.7600 3694.00 3670.99 61.00
3447 37.7700 3733.00 3683.53 61.00
3448 37.7800 3709.00 3700.33 61.00
3449 37.7900 3720.00 3721.38 61.00
3450 37.8000 3746.00 3746.63 61.00
3451 37.8100 3795.00 3776.00 62.00
3452 37.8200 3789.00 3809.31 62.00
3453 37.8300 3874.00 3846.31 62.00
3454 37.8400 3858.00 3886.58 62.00
3455 37.8500 3899.00 3929.50 62.00
3456 37.8600 3925.00 3974.17 63.00
3457 37.8700 4023.00 4019.18 63.00
3458 37.8800 4059.00 4063.23 64.00
3459 37.8900 4107.00 4103.13 64.00
3460 37.9000 4116.00 4136.93 64.00
3461 37.9100 4118.00 4162.90 64.00
3462 37.9200 4177.00 4180.45 65.00
3463 37.9300 4156.00 4189.90 64.00
3464 37.9400 4180.00 4191.90 65.00
3465 37.9500 4230.00 4187.00 65.00
3466 37.9600 4196.00 4175.63 65.00
3467 37.9700 4132.00 4158.21 64.00
3468 37.9800 4129.00 4135.35 64.00
3469 37.9900 4081.00 4107.80 64.00
3470 38.0000 4029.00 4076.48 63.00
3471 38.0100 4010.00 4042.33 63.00
3472 38.0200 3969.00 4006.13 63.00
3473 38.0300 3915.00 3968.92 63.00
3474 38.0400 3869.00 3931.29 62.00
3475 38.0500 3860.00 3893.95 62.00
3476 38.0600 3804.00 3857.41 62.00
3477 38.0700 3787.00 3822.15 62.00
3478 38.0800 3760.00 3788.57 61.00
3479 38.0900 3681.00 3757.03 61.00
3480 38.1000 3698.00 3728.30 61.00
3481 38.1100 3668.00 3701.56 61.00
3482 38.1200 3625.00 3677.50 60.00
3483 38.1300 3642.00 3656.19 60.00
3484 38.1400 3594.00 3637.71 60.00
3485 38.1500 3564.00 3622.04 60.00
3486 38.1600 3570.00 3609.13 60.00
3487 38.1700 3574.00 3598.85 60.00
3488 38.1800 3554.00 3590.96 60.00
3489 38.1900 3570.00 3585.14 60.00
3490 38.2000 3557.00 3580.87 60.00
3491 38.2100 3559.00 3577.51 60.00
3492 38.2200 3577.00 3574.39 60.00
3493 38.2300 3556.00 3571.00 60.00
3494 38.2400 3579.00 3567.20 60.00
3495 38.2500 3580.00 3563.04 60.00
3496 38.2600 3527.00 3558.82 59.00
3497 38.2700 3547.00 3554.84 60.00
3498 38.2800 3544.00 3551.34 60.00
3499 38.2900 3555.00 3548.27 60.00
3500 38.3000 3538.00 3545.61 59.00
3501 38.3100 3572.00 3543.22 60.00
3502 38.3200 3544.00 3541.00 60.00
3503 38.3300 3507.00 3538.89 59.00
3504 38.3400 3534.00 3536.87 59.00
3505 38.3500 3517.00 3535.15 59.00
3506 38.3600 3550.00 3533.82 60.00
3507 38.3700 3529.00 3533.07 59.00
3508 38.3800 3515.00 3533.08 59.00
3509 38.3900 3490.00 3534.01 59.00
3510 38.4000 3534.00 3536.03 59.00
3511 38.4100 3523.00 3539.25 59.00
3512 38.4200 3546.00 3543.73 60.00
3513 38.4300 3542.00 3549.49 60.00
3514 38.4400 3526.00 3556.47 59.00
3515 38.4500 3497.00 3564.55 59.00
3516 38.4600 3553.00 3573.60 60.00
3517 38.4700 3563.00 3583.49 60.00
3518 38.4800 3577.00 3594.16 60.00
3519 38.4900 3612.00 3605.70 60.00
3520 38.5000 3609.00 3618.26 60.00
3521 38.5100 3600.00 3632.06 60.00
3522 38.5200 3651.00 3647.26 60.00
3523 38.5300 3631.00 3663.80 60.00
3524 38.5400 3655.00 3681.29 60.00
3525 38.5500 3695.00 3698.89 61.00
3526 38.5600 3693.00 3715.36 61.00
3527 38.5700 3674.00 3729.24 61.00
3528 38.5800 3711.00 3739.37 61.00
3529 38.5900 3699.00 3745.32 61.00
3530 38.6000 3743.00 3747.42 61.00
3531 38.6100 3753.00 3746.54 61.00
3532 38.6200 3701.00 3743.96 61.00
3533 38.6300 3701.00 3740.80 61.00
3534 38.6400 3751.00 3738.03 61.00
3535 38.6500 3715.00 3736.24 61.00
3536 38.6600 3690.00 3735.51 61.00
3537 38.6700 3726.00 3735.27 61.00
3538 38.6800 3722.00 3734.47 61.00
3539 38.6900 3702.00 3731.83 61.00
3540 38.7000 3693.00 3726.32 61.00
3541 38.7100 3717.00 3717.48 61.00
3542 38.7200 3679.00 3705.58 61.00
3543 38.7300 3685.00 3691.61 61.00
3544 38.7400 3653.00 3676.86 60.00
3545 38.7500 3626.00 3662.69 60.00
3546 38.7600 3625.00 3650.22 60.00
3547 38.7700 3591.00 3640.19 60.00
3548 38.7800 3618.00 3632.94 60.00
3549 38.7900 3613.00 3628.36 60.00
3550 38.8000 3616.00 3625.96 60.00
3551 38.8100 3559.00 3624.88 60.00
3552 38.8200 3575.00 3624.15 60.00
3553 38.8300 3592.00 3622.97 60.00
3554 38.8400 3600.00 3620.99 60.00
3555 38.8500 3572.00 3618.43 60.00
3556 38.8600 3559.00 3615.84 60.00
3557 38.8700 3559.00 3613.83 60.00
3558 38.8800 3583.00 3612.85 60.00
3559 38.8900 3584.00 3613.12 60.00
3560 38.9000 3606.00 3614.66 60.00
3561 38.9100 3608.00 3617.20 60.00
3562 38.9200 3623.00 3620.33 60.00
3563 38.9300 3600.00 3623.36 60.00
3564 38.9400 3607.00 3625.47 60.00
3565 38.9500 3608.00 3625.73 60.00
3566 38.9600 3625.00 3623.56 60.00
3567 38.9700 3606.00 3618.63 60.00
3568 38.9800 3570.00 3611.56 60.00
3569 38.9900 3586.00 3602.46 60.00
3570 39.0000 3561.00 3592.74 60.00
3571 39.0100 3568.00 3583.48 60.00
3572 39.0200 3572.00 3575.61 60.00
3573 39.0300 3532.00 3569.82 59.00
3574 39.0400 3506.00 3566.57 59.00
3575 39.0500 3554.00 3566.15 60.00
3576 39.0600 3532.00 3568.72 59.00
3577 39.0700 3555.00 3574.27 60.00
3578 39.0800 3544.00 3582.70 60.00
3579 39.0900 3589.00 3593.75 60.00
3580 39.1000 3574.00 3607.01 60.00
3581 39.1100 3557.00 3621.93 60.00
3582 39.1200 3582.00 3637.78 60.00
3583 39.1300 3613.00 3653.89 60.00
3584 39.1400 3634.00 3669.63 60.00
3585 39.1500 3663.00 3684.58 61.00
3586 39.1600 3653.00 3698.46 60.00
3587 39.1700 3670.00 3711.05 61.00
3588 39.1800 3692.00 3722.05 61.00
3589 39.1900 3711.00 3731.06 61.00
3590 39.2000 3724.00 3737.64 61.00
3591 39.2100 3727.00 3741.46 61.00
3592 39.2200 3719.00 3742.50 61.00
3593 39.2300 3687.00 3741.04 61.00
3594 39.2400 3688.00 3737.66 61.00
3595 39.2500 3707.00 3733.07 61.00
3596 39.2600 3687.00 3727.97 61.00
3597 39.2700 3672.00 3722.87 61.00
3598 39.2800 3644.00 3718.12 60.00
3599 39.2900 3640.00 3713.87 60.00
3600 39.3000 3662.00 3710.20 61.00
3601 39.3100 3666.00 3707.12 61.00
3602 39.3200 3653.00 3704.63 60.00
3603 39.3300 3666.00 3702.59 61.00
3604 39.3400 3631.00 3700.59 60.00
3605 39.3500 3617.00 3698.22 60.00
3606 39.3600 3675.00 3693.96 61.00
3607 39.3700 3661.00 3687.11 61.00
3608 39.3800 3665.00 3676.86 61.00
3609 39.3900 3640.00 3662.93 60.00
3610 39.4000 3617.00 3645.65 60.00
3611 39.4100 3596.00 3625.89 60.00
3612 39.4200 3614.00 3604.77 60.00
3613 39.4300 3567.00 3583.24 60.00
3614 39.4400 3534.00 3562.62 59.00
3615 39.4500 3533.00 3543.31 59.00
3616 39.4600 3492.00 3525.87 59.00
3617 39.4700 3450.00 3510.44 59.00
3618 39.4800 3452.00 3497.16 59.00
3619 39.4900 3475.00 3486.05 59.00
3620 39.5000 3464.00 3477.06 59.00
3621 39.5100 3492.00 3470.05 59.00
3622 39.5200 3458.00 3465.08 59.00
3623 39.5300 3429.00 3462.00 59.00
3624 39.5400 3458.00 3460.70 59.00
3625 39.5500 3439.00 3461.09 59.00
3626 39.5600 3470.00 3463.10 59.00
3627 39.5700 3482.00 3466.65 59.00
3628 39.5800 3441.00 3471.66 59.00
3629 39.5900 3446.00 3478.09 59.00
3630 39.6000 3458.00 3485.78 59.00
3631 39.6100 3480.00 3494.80 59.00
3632 39.6200 3491.00 3504.90 59.00
3633 39.6300 3527.00 3516.06 59.00
3634 39.6400 3506.00 3528.01 59.00
3635 39.6500 3504.00 3540.50 59.00
3636 39.6600 3527.00 3553.19 59.00
3637 39.6700 3537.00 3565.76 59.00
3638 39.6800 3559.00 3577.85 60.00
3639 39.6900 3573.00 3589.22 60.00
3640 39.7000 3556.00 3599.77 60.00
3641 39.7100 3567.00 3609.57 60.00
3642 39.7200 3605.00 3618.81 60.00
3643 39.7300 3613.00 3627.79 60.00
3644 39.7400 3618.00 3636.76 60.00
3645 39.7500 3641.00 3645.83 60.00
3646 39.7600 3600.00 3654.90 60.00
3647 39.7700 3606.00 3663.64 60.00
3648 39.7800 3639.00 3671.52 60.00
3649 39.7900 3631.00 3677.99 60.00
3650 39.8000 3672.00 3682.53 61.00
3651 39.8100 3645.00 3685.34 60.00
3652 39.8200 3652.00 3686.62 60.00
3653 39.8300 3617.00 3686.99 60.00
3654 39.8400 3645.00 3687.21 60.00
3655 39.8500 3635.00 3687.94 60.00
3656 39.8600 3653.00 3689.74 60.00
3657 39.8700 3681.00 3692.93 61.00
3658 39.8800 3632.00 3697.74 60.00
3659 39.8900 3670.00 3704.24 61.00
3660 39.9000 3663.00 3712.43 61.00
3661 39.9100 3692.00 3722.08 61.00
3662 39.9200 3721.00 3733.33 61.00
3663 39.9300 3732.00 3745.78 61.00
3664 39.9400 3701.00 3759.02 61.00
3665 39.9500 3716.00 3772.54 61.00
3666 39.9600 3760.00 3785.63 61.00
3667 39.9700 3764.00 3797.54 61.00
3668 39.9800 3782.00 3807.49 61.00
3669 39.9900 3798.00 3814.84 62.00
3670 40.0000 3801.00 3819.18 62.00
3671 40.0100 3772.00 3820.42 61.00
3672 40.0200 3804.00 3818.75 62.00
3673 40.0300 3752.00 3814.57 61.00
3674 40.0400 3740.00 3808.47 61.00
3675 40.0500 3743.00 3801.07 61.00
3676 40.0600 3715.00 3793.03 61.00
3677 40.0700 3721.00 3784.98 61.00
3678 40.0800 3703.00 3777.47 61.00
3679 40.0900 3721.00 3770.98 61.00
3680 40.1000 3707.00 3765.92 61.00
3681 40.1100 3720.00 3762.61 61.00
3682 40.1200 3721.00 3761.29 61.00
3683 40.1300 3683.00 3762.10 61.00
3684 40.1400 3686.00 3765.12 61.00
3685 40.1500 3701.00 3770.28 61.00
3686 40.1600 3722.00 3777.44 61.00
3687 40.1700 3755.00 3786.32 61.00
3688 40.1800 3750.00 3796.57 61.00
3689 40.1900 3723.00 3807.78 61.00
3690 40.2000 3758.00 3819.56 61.00
3691 40.2100 3796.00 3831.59 62.00
3692 40.2200 3779.00 3843.58 61.00
3693 40.2300 3851.00 3855.23 62.00
3694 40.2400 3829.00 3866.16 62.00
3695 40.2500 3811.00 3875.85 62.00
3696 40.2600 3850.00 3883.83 62.00
3697 40.2700 3831.00 3889.81 62.00
3698 40.2800 3828.00 3893.93 62.00
3699 40.2900 3831.00 3896.81 62.00
3700 40.3000 3794.00 3899.38 62.00
3701 40.3100 3804.00 3902.71 62.00
3702 40.3200 3822.00 3907.71 62.00
3703 40.3300 3819.00 3915.06 62.00
3704 40.3400 3827.00 3925.00 62.00
3705 40.3500 3854.00 3938.03 62.00
3706 40.3600 3868.00 3952.09 62.00
3707 40.3700 3861.00 3966.34 62.00
3708 40.3800 3872.00 3978.68 62.00
3709 40.3900 3903.00 3986.68 62.00
3710 40.4000 3895.00 3988.52 62.00
3711 40.4100 3903.00 3983.74 62.00
3712 40.4200 3887.00 3973.31 62.00
3713 40.4300 3883.00 3959.10 62.00
3714 40.4400 3883.00 3943.08 62.00
3715 40.4500 3887.00 3926.87 62.00
3716 40.4600 3870.00 3911.61 62.00
3717 40.4700 3855.00 3897.94 62.00
3718 40.4800 3848.00 3886.08 62.00
3719 40.4900 3818.00 3875.92 62.00
3720 40.5000 3835.00 3867.00 62.00
3721 40.5100 3825.00 3858.61 62.00
3722 40.5200 3809.00 3849.89 62.00
3723 40.5300 3805.00 3840.34 62.00
3724 40.5400 3783.00 3828.89 62.00
3725 40.5500 3756.00 3816.00 61.00
3726 40.5600 3753.00 3802.18 61.00
3727 40.5700 3721.00 3788.74 61.00
3728 40.5800 3719.00 3776.33 61.00
3729 40.5900 3716.00 3765.56 61.00
3730 40.6000 3672.00 3756.66 61.00
3731 40.6100 3685.00 3749.54 61.00
3732 40.6200 3703.00 3743.92 61.00
3733 40.6300 3699.00 3739.33 61.00
3734 40.6400 3697.00 3735.34 61.00
3735 40.6500 3727.00 3731.60 61.00
3736 40.6600 3711.00 3727.95 61.00
3737 40.6700 3691.00 3724.49 61.00
3738 40.6800 3699.00 3721.45 61.00
3739 40.6900 3695.00 3719.10 61.00
3740 40.7000 3686.00 3717.64 61.00
3741 40.7100 3712.00 3717.09 61.00
3742 40.7200 3688.00 3717.15 61.00
3743 40.7300 3668.00 3717.18 61.00
3744 40.7400 3700.00 3716.18 61.00
3745 40.7500 3682.00 3713.17 61.00
3746 40.7600 3691.00 3707.55 61.00
3747 40.7700 3697.00 3699.36 61.00
3748 40.7800 3664.00 3689.06 61.00
3749 40.7900 3634.00 3677.33 60.00
3750 40.8000 3694.00 3664.80 61.00
3751 40.8100 3645.00 3652.01 60.00
3752 40.8200 3681.00 3639.24 61.00
3753 40.8300 3652.00 3626.75 60.00
3754 40.8400 3626.00 3614.52 60.00
3755 40.8500 3580.00 3602.54 60.00
3756 40.8600 3603.00 3590.81 60.00
3757 40.8700 3639.00 3579.40 60.00
3758 40.8800 3574.00 3568.39 60.00
3759 40.8900 3586.00 3557.88 60.00
3760 40.9000 3561.00 3547.95 60.00
3761 40.9100 3501.00 3538.63 59.00
3762 40.9200 3543.00 3529.96 60.00
3763 40.9300 3506.00 3521.89 59.00
3764 40.9400 3507.00 3514.35 59.00
3765 40.9500 3541.00 3507.26 60.00
3766 40.9600 3466.00 3500.51 59.00
3767 40.9700 3486.00 3494.02 59.00
3768 40.9800 3523.00 3487.73 59.00
3769 40.9900 3467.00 3481.59 59.00
3770 41.0000 3503.00 3475.62 59.00
3771 41.0100 3496.00 3469.87 59.00
3772 41.0200 3446.00 3464.39 59.00
3773 41.0300 3446.00 3459.24 59.00
3774 41.0400 3475.00 3454.48 59.00
3775 41.0500 3457.00 3450.17 59.00
3776 41.0600 3449.00 3446.33 59.00
3777 41.0700 3470.00 3442.99 59.00
3778 41.0800 3458.00 3440.19 59.00
3779 41.0900 3418.00 3437.99 58.00
3780 41.1000 3432.00 3436.42 59.00
3781 41.1100 3447.00 3435.56 59.00
3782 41.1200 3432.00 3435.46 59.00
3783 41.1300 3441.00 3436.18 59.00
3784 41.1400 3442.00 3437.76 59.00
3785 41.1500 3455.00 3440.23 59.00
3786 41.1600 3431.00 3443.62 59.00
3787 41.1700 3438.00 3447.95 59.00
3788 41.1800 3448.00 3453.28 59.00
3789 41.1900 3480.00 3459.63 59.00
3790 41.2000 3463.00 3467.03 59.00
3791 41.2100 3463.00 3475.53 59.00
3792 41.2200 3484.00 3485.20 59.00
3793 41.2300 3504.00 3496.06 59.00
3794 41.2400 3499.00 3508.18 59.00
3795 41.2500 3533.00 3521.58 59.00
3796 41.2600 3532.00 3536.33 59.00
3797 41.2700 3504.00 3552.36 59.00
3798 41.2800 3558.00 3569.50 60.00
3799 41.2900 3591.00 3587.51 60.00
3800 41.3000 3607.00 3606.30 60.00
3801 41.3100 3626.00 3626.22 60.00
3802 41.3200 3662.00 3648.16 61.00
3803 41.3300 3642.00 3673.09 60.00
3804 41.3400 3673.00 3701.30 61.00
3805 41.3500 3709.00 3731.87 61.00
3806 41.3600 3738.00 3762.36 61.00
3807 41.3700 3761.00 3789.27 61.00
3808 41.3800 3788.00 3809.34 62.00
3809 41.3900 3749.00 3821.52 61.00
3810 41.4000 3786.00 3826.82 62.00
3811 41.4100 3789.00 3828.65 62.00
3812 41.4200 3778.00 3830.08 61.00
3813 41.4300 3787.00 3832.93 62.00
3814 41.4400 3810.00 3837.49 62.00
3815 41.4500 3795.00 3842.80 62.00
3816 41.4600 3844.00 3847.20 62.00
3817 41.4700 3863.00 3848.93 62.00
3818 41.4800 3871.00 3846.71 62.00
3819 41.4900 3832.00 3840.08 62.00
3820 41.5000 3809.00 3829.46 62.00
3821 41.5100 3801.00 3815.87 62.00
3822 41.5200 3798.00 3800.45 62.00
3823 41.5300 3766.00 3784.36 61.00
3824 41.5400 3747.00 3768.31 61.00
3825 41.5500 3786.00 3752.83 62.00
3826 41.5600 3712.00 3738.18 61.00
3827 41.5700 3665.00 3724.63 61.00
3828 41.5800 3671.00 3712.42 61.00
3829 41.5900 3668.00 3701.87 61.00
3830 41.6000 3689.00 3693.15 61.00
3831 41.6100 3652.00 3686.40 60.00
3832 41.6200 3652.00 3681.67 60.00
3833 41.6300 3641.00 3678.85 60.00
3834 41.6400 3633.00 3677.97 60.00
3835 41.6500 3683.00 3678.86 61.00
3836 41.6600 3684.00 3681.28 61.00
3837 41.6700 3705.00 3684.99 61.00
3838 41.6800 3677.00 3689.46 61.00
3839 41.6900 3684.00 3693.96 61.00
3840 41.7000 3665.00 3697.57 61.00
3841 41.7100 3701.00 3699.26 61.00
3842 41.7200 3661.00 3698.07 61.00
3843 41.7300 3687.00 3693.19 61.00
3844 41.7400 3681.00 3684.43 61.00
3845 41.7500 3663.00 3672.14 61.00
3846 41.7600 3662.00 3657.12 61.00
3847 41.7700 3674.00 3640.48 61.00
3848 41.7800 3631.00 3623.34 60.00
3849 41.7900 3620.00 3606.78 60.00
3850 41.8000 3608.00 3591.63 60.00
3851 41.8100 3565.00 3578.52 60.00
3852 41.8200 3580.00 3567.88 60.00
3853 41.8300 3568.00 3560.00 60.00
3854 41.8400 3545.00 3555.02 60.00
3855 41.8500 3557.00 3552.96 60.00
3856 41.8600 3530.00 3553.75 59.00
3857 41.8700 3530.00 3557.14 59.00
3858 41.8800 3537.00 3562.71 59.00
3859 41.8900 3571.00 3569.75 60.00
3860 41.9000 3563.00 3577.32 60.00
3861 41.9100 3584.00 3584.11 60.00
3862 41.9200 3555.00 3588.73 60.00
3863 41.9300 3551.00 3590.12 60.00
3864 41.9400 3591.00 3587.95 60.00
3865 41.9500 3579.00 3582.67 60.00
3866 41.9600 3574.00 3575.30 60.00
3867 41.9700 3603.00 3566.94 60.00
3868 41.9800 3557.00 3558.59 60.00
3869 41.9900 3554.00 3550.97 60.00
3870 42.0000 3564.00 3544.61 60.00
3871 42.0100 3539.00 3539.82 59.00
3872 42.0200 3577.00 3536.76 60.00
3873 42.0300 3572.00 3535.53 60.00
3874 42.0400 3537.00 3536.16 59.00
3875 42.0500 3534.00 3538.66 59.00
3876 42.0600 3547.00 3543.03 60.00
3877 42.0700 3573.00 3549.28 60.00
3878 42.0800 3535.00 3557.32 59.00
3879 42.0900 3564.00 3567.02 60.00
3880 42.1000 3555.00 3578.08 60.00
3881 42.1100 3564.00 3590.19 60.00
3882 42.1200 3562.00 3602.74 60.00
3883 42.1300 3602.00 3614.96 60.00
3884 42.1400 3626.00 3625.92 60.00
3885 42.1500 3632.00 3634.70 60.00
3886 42.1600 3613.00 3640.53 60.00
3887 42.1700 3602.00 3643.08 60.00
3888 42.1800 3657.00 3642.49 60.00
3889 42.1900 3620.00 3639.39 60.00
3890 42.2000 3610.00 3634.66 60.00
3891 42.2100 3614.00 3629.22 60.00
3892 42.2200 3608.00 3624.08 60.00
3893 42.2300 3561.00 3619.85 60.00
3894 42.2400 3580.00 3617.03 60.00
3895 42.2500 3596.00 3615.95 60.00
3896 42.2600 3588.00 3616.78 60.00
3897 42.2700 3597.00 3619.61 60.00
3898 42.2800 3594.00 3624.43 60.00
3899 42.2900 3608.00 3631.14 60.00
3900 42.3000 3612.00 3639.58 60.00
3901 42.3100 3609.00 3649.54 60.00
3902 42.3200 3646.00 3660.71 60.00
3903 42.3300 3647.00 3672.70 60.00
3904 42.3400 3654.00 3685.01 60.00
3905 42.3500 3679.00 3696.99 61.00
3906 42.3600 3700.00 3708.03 61.00
3907 42.3700 3734.00 3717.33 61.00
3908 42.3800 3724.00 3724.19 61.00
3909 42.3900 3761.00 3728.00 61.00
3910 42.4000 3733.00 3728.54 61.00
3911 42.4100 3719.00 3725.80 61.00
3912 42.4200 3711.00 3720.09 61.00
3913 42.4300 3684.00 3711.92 61.00
3914 42.4400 3663.00 3701.91 61.00
3915 42.4500 3673.00 3690.66 61.00
3916 42.4600 3650.00 3678.76 60.00
3917 42.4700 3641.00 3666.77 60.00
3918 42.4800 3628.00 3655.19 60.00
3919 42.4900 3644.00 3644.50 60.00
3920 42.5000 3643.00 3635.10 60.00
3921 42.5100 3585.00 3627.31 60.00
3922 42.5200 3545.00 3621.37 60.00
3923 42.5300 3568.00 3617.64 60.00
3924 42.5400 3579.00 3615.63 60.00
3925 42.5500 3593.00 3615.51 60.00
3926 42.5600 3564.00 3617.05 60.00
3927 42.5700 3599.00 3619.93 60.00
3928 42.5800 3608.00 3623.71 60.00
3929 42.5900 3606.00 3628.12 60.00
3930 42.6000 3643.00 3632.53 60.00
3931 42.6100 3643.00 3636.45 60.00
3932 42.6200 3680.00 3639.40 61.00
3933 42.6300 3690.00 3641.02 61.00
3934 42.6400 3657.00 3641.09 60.00
3935 42.6500 3648.00 3639.52 60.00
3936 42.6600 3636.00 3636.35 60.00
3937 42.6700 3653.00 3631.80 60.00
3938 42.6800 3626.00 3626.19 60.00
3939 42.6900 3668.00 3619.96 61.00
3940 42.7000 3612.00 3613.58 60.00
3941 42.7100 3609.00 3607.52 60.00
3942 42.7200 3620.00 3602.26 60.00
3943 42.7300 3596.00 3598.22 60.00
3944 42.7400 3611.00 3595.75 60.00
3945 42.7500 3628.00 3595.17 60.00
3946 42.7600 3602.00 3596.74 60.00
3947 42.7700 3563.00 3600.67 60.00
3948 42.7800 3621.00 3607.11 60.00
3949 42.7900 3630.00 3616.14 60.00
3950 42.8000 3604.00 3627.74 60.00
3951 42.8100 3642.00 3641.84 60.00
3952 42.8200 3653.00 3658.23 60.00
3953 42.8300 3688.00 3677.00 61.00
3954 42.8400 3677.00 3696.91 61.00
3955 42.8500 3715.00 3717.78 61.00
3956 42.8600 3740.00 3738.83 61.00
3957 42.8700 3779.00 3758.97 61.00
3958 42.8800 3777.00 3777.03 61.00
3959 42.8900 3763.00 3791.66 61.00
3960 42.9000 3776.00 3801.79 61.00
3961 42.9100 3805.00 3806.87 62.00
3962 42.9200 3771.00 3807.08 61.00
3963 42.9300 3824.00 3803.11 62.00
3964 42.9400 3768.00 3795.97 61.00
3965 42.9500 3746.00 3786.68 61.00
3966 42.9600 3762.00 3776.18 61.00
3967 42.9700 3764.00 3765.21 61.00
3968 42.9800 3733.00 3754.35 61.00
3969 42.9900 3741.00 3744.24 61.00
3970 43.0000 3744.00 3734.54 61.00
3971 43.0100 3724.00 3725.63 61.00
3972 43.0200 3748.00 3717.50 61.00
3973 43.0300 3718.00 3710.30 61.00
3974 43.0400 3719.00 3704.03 61.00
3975 43.0500 3737.00 3698.71 61.00
3976 43.0600 3714.00 3694.33 61.00
3977 43.0700 3707.00 3690.87 61.00
3978 43.0800 3711.00 3688.21 61.00
3979 43.0900 3707.00 3686.21 61.00
3980 43.1000 3710.00 3684.71 61.00
3981 43.1100 3728.00 3683.52 61.00
3982 43.1200 3707.00 3682.47 61.00
3983 43.1300 3703.00 3681.52 61.00
3984 43.1400 3706.00 3680.65 61.00
3985 43.1500 3683.00 3679.93 61.00
3986 43.1600 3702.00 3679.49 61.00
3987 43.1700 3703.00 3679.50 61.00
3988 43.1800 3682.00 3680.04 61.00
3989 43.1900 3656.00 3681.10 60.00
3990 43.2000 3656.00 3682.49 60.00
3991 43.2100 3659.00 3683.84 60.00
3992 43.2200 3671.00 3684.53 61.00
3993 43.2300 3712.00 3683.80 61.00
3994 43.2400 3674.00 3680.89 61.00
3995 43.2500 3659.00 3675.24 60.00
3996 43.2600 3693.00 3666.66 61.00
3997 43.2700 3668.00 3655.41 61.00
3998 43.2800 3662.00 3642.17 61.00
3999 43.2900 3648.00 3627.79 60.00
4000 43.3000 3624.00 3613.15 60.00
4001 43.3100 3595.00 3598.99 60.00
4002 43.3200 3574.00 3585.87 60.00
4003 43.3300 3584.00 3574.14 60.00
4004 43.3400 3615.00 3564.02 60.00
4005 43.3500 3594.00 3555.64 60.00
4006 43.3600 3606.00 3549.05 60.00
4007 43.3700 3548.00 3544.31 60.00
4008 43.3800 3555.00 3541.45 60.00
4009 43.3900 3584.00 3540.52 60.00
4010 43.4000 3568.00 3541.60 60.00
4011 43.4100 3579.00 3544.79 60.00
4012 43.4200 3553.00 3550.21 60.00
4013 43.4300 3535.00 3557.99 59.00
4014 43.4400 3587.00 3568.25 60.00
4015 43.4500 3590.00 3581.10 60.00
4016 43.4600 3612.00 3596.62 60.00
4017 43.4700 3661.00 3614.72 61.00
4018 43.4800 3627.00 3635.33 60.00
4019 43.4900 3651.00 3658.00 60.00
4020 43.5000 3700.00 3681.95 61.00
4021 43.5100 3703.00 3706.01 61.00
4022 43.5200 3730.00 3728.73 61.00
4023 43.5300 3774.00 3748.62 61.00
4024 43.5400 3775.00 3764.77 61.00
4025 43.5500 3783.00 3777.04 62.00
4026 43.5600 3804.00 3786.03 62.00
4027 43.5700 3844.00 3792.65 62.00
4028 43.5800 3841.00 3797.71 62.00
4029 43.5900 3834.00 3801.79 62.00
4030 43.6000 3829.00 3805.22 62.00
4031 43.6100 3788.00 3808.20 62.00
4032 43.6200 3840.00 3810.90 62.00
4033 43.6300 3821.00 3813.41 62.00
4034 43.6400 3839.00 3815.88 62.00
4035 43.6500 3828.00 3818.46 62.00
4036 43.6600 3821.00 3821.32 62.00
4037 43.6700 3834.00 3824.54 62.00
4038 43.6800 3810.00 3828.06 62.00
4039 43.6900 3836.00 3831.57 62.00
4040 43.7000 3815.00 3834.45 62.00
4041 43.7100 3852.00 3835.75 62.00
4042 43.7200 3845.00 3834.62 62.00
4043 43.7300 3823.00 3830.17 62.00
4044 43.7400 3788.00 3822.11 62.00
4045 43.7500 3788.00 3810.62 62.00
4046 43.7600 3788.00 3796.38 62.00
4047 43.7700 3764.00 3780.34 61.00
4048 43.7800 3750.00 3763.58 61.00
4049 43.7900 3746.00 3747.11 61.00
4050 43.8000 3706.00 3731.84 61.00
4051 43.8100 3741.00 3718.57 61.00
4052 43.8200 3700.00 3707.96 61.00
4053 43.8300 3726.00 3700.70 61.00
4054 43.8400 3697.00 3696.99 61.00
4055 43.8500 3662.00 3697.43 61.00
4056 43.8600 3696.00 3702.46 61.00
4057 43.8700 3703.00 3712.40 61.00
4058 43.8800 3722.00 3727.50 61.00
4059 43.8900 3736.00 3747.69 61.00
4060 43.9000 3752.00 3772.50 61.00
4061 43.9100 3768.00 3800.41 61.00
4062 43.9200 3829.00 3828.65 62.00
4063 43.9300 3847.00 3852.91 62.00
4064 43.9400 3860.00 3868.45 62.00
4065 43.9500 3864.00 3872.18 62.00
4066 43.9600 3866.00 3864.42 62.00
4067 43.9700 3843.00 3848.62 62.00
4068 43.9800 3871.00 3829.41 62.00
4069 43.9900 3848.00 3810.39 62.00
4070 44.0000 3797.00 3793.86 62.00
4071 44.0100 3781.00 3780.95 61.00
4072 44.0200 3773.00 3772.05 61.00
4073 44.0300 3743.00 3767.28 61.00
4074 44.0400 3774.00 3766.50 61.00
4075 44.0500 3765.00 3769.51 61.00
4076 44.0600 3782.00 3776.04 61.00
4077 44.0700 3812.00 3785.76 62.00
4078 44.0800 3775.00 3798.25 61.00
4079 44.0900 3779.00 3812.98 61.00
4080 44.1000 3808.00 3829.28 62.00
4081 44.1100 3822.00 3846.36 62.00
4082 44.1200 3829.00 3863.51 62.00
4083 44.1300 3875.00 3879.15 62.00
4084 44.1400 3858.00 3892.53 62.00
4085 44.1500 3870.00 3902.76 62.00
4086 44.1600 3925.00 3909.20 63.00
4087 44.1700 3905.00 3911.52 62.00
4088 44.1800 3890.00 3909.68 62.00
4089 44.1900 3891.00 3903.82 62.00
4090 44.2000 3848.00 3894.22 62.00
4091 44.2100 3865.00 3881.18 62.00
4092 44.2200 3850.00 3865.12 62.00
4093 44.2300 3861.00 3846.49 62.00
4094 44.2400 3813.00 3825.81 62.00
4095 44.2500 3792.00 3803.71 62.00
4096 44.2600 3763.00 3780.85 61.00
4097 44.2700 3712.00 3757.95 61.00
4098 44.2800 3755.00 3735.71 61.00
4099 44.2900 3719.00 3714.72 61.00
4100 44.3000 3688.00 3695.55 61.00
4101 44.3100 3668.00 3678.55 61.00
4102 44.3200 3670.00 3664.17 61.00
4103 44.3300 3627.00 3652.59 60.00
4104 44.3400 3666.00 3644.01 61.00
4105 44.3500 3660.00 3638.57 60.00
4106 44.3600 3630.00 3636.41 60.00
4107 44.3700 3663.00 3637.70 61.00
4108 44.3800 3634.00 3642.55 60.00
4109 44.3900 3634.00 3651.06 60.00
4110 44.4000 3682.00 3663.26 61.00
4111 44.4100 3683.00 3679.09 61.00
4112 44.4200 3707.00 3698.34 61.00
4113 44.4300 3744.00 3720.62 61.00
4114 44.4400 3746.00 3745.27 61.00
4115 44.4500 3736.00 3771.37 61.00
4116 44.4600 3803.00 3797.59 62.00
4117 44.4700 3839.00 3822.30 62.00
4118 44.4800 3880.00 3843.63 62.00
4119 44.4900 3902.00 3859.80 62.00
4120 44.5000 3898.00 3869.36 62.00
4121 44.5100 3876.00 3871.49 62.00
4122 44.5200 3935.00 3866.14 63.00
4123 44.5300 3947.00 3853.96 63.00
4124 44.5400 3885.00 3836.02 62.00
4125 44.5500 3864.00 3813.60 62.00
4126 44.5600 3786.00 3787.96 62.00
4127 44.5700 3731.00 3760.30 61.00
4128 44.5800 3705.00 3731.52 61.00
4129 44.5900 3699.00 3702.37 61.00
4130 44.6000 3689.00 3673.54 61.00
4131 44.6100 3675.00 3645.50 61.00
4132 44.6200 3648.00 3618.69 60.00
4133 44.6300 3572.00 3593.49 60.00
4134 44.6400 3593.00 3570.17 60.00
4135 44.6500 3582.00 3548.84 60.00
4136 44.6600 3528.00 3529.73 59.00
4137 44.6700 3541.00 3512.79 60.00
4138 44.6800 3510.00 3497.95 59.00
4139 44.6900 3509.00 3485.15 59.00
4140 44.7000 3509.00 3474.25 59.00
4141 44.7100 3512.00 3465.12 59.00
4142 44.7200 3499.00 3457.59 59.00
4143 44.7300 3491.00 3451.52 59.00
4144 44.7400 3503.00 3446.73 59.00
4145 44.7500 3461.00 3443.04 59.00
4146 44.7600 3514.00 3440.26 59.00
4147 44.7700 3483.00 3438.18 59.00
4148 44.7800 3484.00 3436.62 59.00
4149 44.7900 3504.00 3435.36 59.00
4150 44.8000 3444.00 3434.24 59.00
4151 44.8100 3444.00 3433.12 59.00
4152 44.8200 3483.00 3431.90 59.00
4153 44.8300 3465.00 3430.54 59.00
4154 44.8400 3494.00 3429.04 59.00
4155 44.8500 3492.00 3427.42 59.00
4156 44.8600 3481.00 3425.72 59.00
4157 44.8700 3467.00 3423.99 59.00
4158 44.8800 3474.00 3422.30 59.00
4159 44.8900 3473.00 3420.70 59.00
4160 44.9000 3458.00 3419.26 59.00
4161 44.9100 3451.00 3418.08 59.00
4162 44.9200 3459.00 3417.23 59.00
4163 44.9300 3442.00 3416.81 59.00
4164 44.9400 3450.00 3416.90 59.00
4165 44.9500 3485.00 3417.61 59.00
4166 44.9600 3458.00 3418.97 59.00
4167 44.9700 3476.00 3421.12 59.00
4168 44.9800 3475.00 3424.09 59.00
4169 44.9900 3489.00 3427.90 59.00
4170 45.0000 3479.00 3432.62 59.00
4171 45.0100 3494.00 3438.25 59.00
4172 45.0200 3489.00 3444.77 59.00
4173 45.0300 3524.00 3452.13 59.00
4174 45.0400 3492.00 3460.27 59.00
4175 45.0500 3470.00 3469.05 59.00
4176 45.0600 3529.00 3478.29 59.00
4177 45.0700 3547.00 3487.76 60.00
4178 45.0800 3546.00 3497.16 60.00
4179 45.0900 3577.00 3506.16 60.00
4180 45.1000 3553.00 3514.42 60.00
4181 45.1100 3560.00 3521.65 60.00
4182 45.1200 3572.00 3527.65 60.00
4183 45.1300 3552.00 3532.33 60.00
4184 45.1400 3571.00 3535.67 60.00
4185 45.1500 3594.00 3537.90 60.00
4186 45.1600 3557.00 3539.13 60.00
4187 45.1700 3550.00 3539.51 60.00
4188 45.1800 3584.00 3539.26 60.00
4189 45.1900 3569.00 3538.50 60.00
4190 45.2000 3529.00 3537.39 59.00
4191 45.2100 3574.00 3536.09 60.00
4192 45.2200 3534.00 3534.77 59.00
4193 45.2300 3542.00 3533.58 60.00
4194 45.2400 3575.00 3532.69 60.00
4195 45.2500 3558.00 3532.24 60.00
4196 45.2600 3587.00 3532.35 60.00
4197 45.2700 3570.00 3533.11 60.00
4198 45.2800 3553.00 3534.57 60.00
4199 45.2900 3529.00 3536.72 59.00
4200 45.3000 3559.00 3539.64 60.00
4201 45.3100 3557.00 3543.27 60.00
4202 45.3200 3545.00 3547.57 60.00
4203 45.3300 3570.00 3552.46 60.00
4204 45.3400 3593.00 3558.12 60.00
4205 45.3500 3579.00 3564.08 60.00
4206 45.3600 3619.00 3570.45 60.00
4207 45.3700 3623.00 3577.17 60.00
4208 45.3800 3632.00 3584.17 60.00
4209 45.3900 3633.00 3591.34 60.00
4210 45.4000 3619.00 3598.58 60.00
4211 45.4100 3610.00 3605.76 60.00
4212 45.4200 3653.00 3612.75 60.00
4213 45.4300 3645.00 3619.40 60.00
4214 45.4400 3637.00 3625.55 60.00
4215 45.4500 3649.00 3631.07 60.00
4216 45.4600 3584.00 3635.76 60.00
4217 45.4700 3635.00 3639.61 60.00
4218 45.4800 3641.00 3641.95 60.00
4219 45.4900 3650.00 3642.65 60.00
4220 45.5000 3642.00 3641.39 60.00
4221 45.5100 3684.00 3637.95 61.00
4222 45.5200 3642.00 3632.25 60.00
4223 45.5300 3622.00 3624.48 60.00
4224 45.5400 3632.00 3615.05 60.00
4225 45.5500 3635.00 3604.61 60.00
4226 45.5600 3603.00 3593.86 60.00
4227 45.5700 3594.00 3583.52 60.00
4228 45.5800 3611.00 3574.15 60.00
4229 45.5900 3538.00 3566.19 59.00
4230 45.6000 3581.00 3559.90 60.00
4231 45.6100 3576.00 3555.40 60.00
4232 45.6200 3574.00 3552.70 60.00
4233 45.6300 3598.00 3551.72 60.00
4234 45.6400 3585.00 3552.28 60.00
4235 45.6500 3599.00 3554.16 60.00
4236 45.6600 3586.00 3557.03 60.00
4237 45.6700 3588.00 3560.56 60.00
4238 45.6800 3582.00 3564.33 60.00
4239 45.6900 3605.00 3567.93 60.00
4240 45.7000 3642.00 3570.95 60.00
4241 45.7100 3630.00 3573.01 60.00
4242 45.7200 3612.00 3573.81 60.00
4243 45.7300 3613.00 3573.14 60.00
4244 45.7400 3615.00 3570.90 60.00
4245 45.7500 3621.00 3567.08 60.00
4246 45.7600 3589.00 3561.77 60.00
4247 45.7700 3575.00 3555.17 60.00
4248 45.7800 3594.00 3547.49 60.00
4249 45.7900 3574.00 3538.94 60.00
4250 45.8000 3567.00 3529.84 60.00
4251 45.8100 3554.00 3520.40 60.00
4252 45.8200 3515.00 3510.81 59.00
4253 45.8300 3482.00 3501.31 59.00
4254 45.8400 3510.00 3492.06 59.00
4255 45.8500 3494.00 3483.19 59.00
4256 45.8600 3498.00 3474.83 59.00
4257 45.8700 3515.00 3467.09 59.00
4258 45.8800 3482.00 3460.13 59.00
4259 45.8900 3483.00 3454.03 59.00
4260 45.9000 3479.00 3448.92 59.00
4261 45.9100 3483.00 3444.93 59.00
4262 45.9200 3461.00 3442.19 59.00
4263 45.9300 3459.00 3440.83 59.00
4264 45.9400 3442.00 3441.08 59.00
4265 45.9500 3419.00 3443.11 58.00
4266 45.9600 3450.00 3447.11 59.00
4267 45.9700 3474.00 3453.33 59.00
4268 45.9800 3488.00 3461.96 59.00
4269 45.9900 3492.00 3473.21 59.00
4270 46.0000 3508.00 3487.20 59.00
4271 46.0100 3466.00 3503.94 59.00
4272 46.0200 3512.00 3523.32 59.00
4273 46.0300 3535.00 3544.80 59.00
4274 46.0400 3525.00 3567.41 59.00
4275 46.0500 3566.00 3589.58 60.00
4276 46.0600 3581.00 3609.43 60.00
4277 46.0700 3562.00 3624.99 60.00
4278 46.0800 3601.00 3635.03 60.00
4279 46.0900 3611.00 3639.39 60.00
4280 46.1000 3630.00 3639.04 60.00
4281 46.1100 3655.00 3635.53 60.00
4282 46.1200 3642.00 3630.50 60.00
4283 46.1300 3607.00 3625.39 60.00
4284 46.1400 3617.00 3621.30 60.00
4285 46.1500 3624.00 3618.95 60.00
4286 46.1600 3625.00 3618.71 60.00
4287 46.1700 3630.00 3620.68 60.00
4288 46.1800 3627.00 3624.73 60.00
4289 46.1900 3614.00 3630.69 60.00
4290 46.2000 3635.00 3638.45 60.00
4291 46.2100 3638.00 3647.94 60.00
4292 46.2200 3655.00 3659.19 60.00
4293 46.2300 3697.00 3672.12 61.00
4294 46.2400 3679.00 3686.46 61.00
4295 46.2500 3680.00 3701.50 61.00
4296 46.2600 3691.00 3715.98 61.00
4297 46.2700 3719.00 3728.15 61.00
4298 46.2800 3691.00 3735.95 61.00
4299 46.2900 3771.00 3737.75 61.00
4300 46.3000 3724.00 3732.27 61.00
4301 46.3100 3679.00 3719.89 61.00
4302 46.3200 3690.00 3701.91 61.00
4303 46.3300 3693.00 3680.20 61.00
4304 46.3400 3647.00 3656.65 60.00
4305 46.3500 3674.00 3632.84 61.00
4306 46.3600 3609.00 3609.92 60.00
4307 46.3700 3573.00 3588.65 60.00
4308 46.3800 3554.00 3569.46 60.00
4309 46.3900 3577.00 3552.60 60.00
4310 46.4000 3545.00 3538.13 60.00
4311 46.4100 3543.00 3526.05 60.00
4312 46.4200 3531.00 3516.27 59.00
4313 46.4300 3528.00 3508.71 59.00
4314 46.4400 3503.00 3503.21 59.00
4315 46.4500 3517.00 3499.70 59.00
4316 46.4600 3506.00 3498.00 59.00
4317 46.4700 3531.00 3497.96 59.00
4318 46.4800 3508.00 3499.39 59.00
4319 46.4900 3525.00 3502.06 59.00
4320 46.5000 3503.00 3505.73 59.00
4321 46.5100 3518.00 3510.07 59.00
4322 46.5200 3522.00 3514.76 59.00
4323 46.5300 3533.00 3519.43 59.00
4324 46.5400 3526.00 3523.81 59.00
4325 46.5500 3539.00 3527.68 59.00
4326 46.5600 3526.00 3531.09 59.00
4327 46.5700 3527.00 3534.01 59.00
4328 46.5800 3538.00 3536.71 59.00
4329 46.5900 3566.00 3539.56 60.00
4330 46.6000 3541.00 3542.76 60.00
4331 46.6100 3519.00 3546.48 59.00
4332 46.6200 3538.00 3550.88 59.00
4333 46.6300 3519.00 3556.13 59.00
4334 46.6400 3566.00 3562.38 60.00
4335 46.6500 3591.00 3569.62 60.00
4336 46.6600 3555.00 3577.41 60.00
4337 46.6700 3555.00 3584.84 60.00
4338 46.6800 3575.00 3590.77 60.00
4339 46.6900 3592.00 3594.21 60.00
4340 46.7000 3578.00 3594.87 60.00
4341 46.7100 3608.00 3593.27 60.00
4342 46.7200 3563.00 3590.55 60.00
4343 46.7300 3573.00 3587.92 60.00
4344 46.7400 3556.00 3586.36 60.00
4345 46.7500 3586.00 3586.50 60.00
4346 46.7600 3565.00 3588.59 60.00
4347 46.7700 3600.00 3592.66 60.00
4348 46.7800 3578.00 3598.59 60.00
4349 46.7900 3575.00 3606.12 60.00
4350 46.8000 3571.00 3614.95 60.00
4351 46.8100 3638.00 3624.70 60.00
4352 46.8200 3639.00 3634.95 60.00
4353 46.8300 3660.00 3645.26 60.00
4354 46.8400 3628.00 3655.20 60.00
4355 46.8500 3637.00 3664.39 60.00
4356 46.8600 3678.00 3672.59 61.00
4357 46.8700 3691.00 3679.53 61.00
4358 46.8800 3666.00 3685.10 61.00
4359 46.8900 3694.00 3689.08 61.00
4360 46.9000 3686.00 3691.22 61.00
4361 46.9100 3657.00 3691.23 60.00
4362 46.9200 3683.00 3688.88 61.00
4363 46.9300 3674.00 3684.05 61.00
4364 46.9400 3669.00 3676.84 61.00
4365 46.9500 3690.00 3667.56 61.00
4366 46.9600 3627.00 3656.67 60.00
4367 46.9700 3603.00 3644.70 60.00
4368 46.9800 3619.00 3632.18 60.00
4369 46.9900 3585.00 3619.52 60.00
4370 47.0000 3558.00 3607.10 60.00
4371 47.0100 3583.00 3595.18 60.00
4372 47.0200 3577.00 3583.94 60.00
4373 47.0300 3542.00 3573.54 60.00
4374 47.0400 3568.00 3564.07 60.00
4375 47.0500 3527.00 3555.60 59.00
4376 47.0600 3547.00 3548.16 60.00
4377 47.0700 3551.00 3541.74 60.00
4378 47.0800 3521.00 3536.36 59.00
4379 47.0900 3505.00 3531.98 59.00
4380 47.1000 3506.00 3528.58 59.00
4381 47.1100 3510.00 3526.13 59.00
4382 47.1200 3502.00 3524.62 59.00
4383 47.1300 3554.00 3524.05 60.00
4384 47.1400 3501.00 3524.38 59.00
4385 47.1500 3504.00 3525.53 59.00
4386 47.1600 3513.00 3527.34 59.00
4387 47.1700 3515.00 3529.57 59.00
4388 47.1800 3509.00 3531.91 59.00
4389 47.1900 3532.00 3534.03 59.00
4390 47.2000 3536.00 3535.73 59.00
4391 47.2100 3521.00 3536.86 59.00
4392 47.2200 3505.00 3537.36 59.00
4393 47.2300 3509.00 3537.17 59.00
4394 47.2400 3516.00 3536.23 59.00
4395 47.2500 3531.00 3534.47 59.00
4396 47.2600 3535.00 3531.89 59.00
4397 47.2700 3512.00 3528.46 59.00
4398 47.2800 3507.00 3524.23 59.00
4399 47.2900 3520.00 3519.21 59.00
4400 47.3000 3538.00 3513.49 59.00
4401 47.3100 3517.00 3507.07 59.00
4402 47.3200 3514.00 3500.02 59.00
4403 47.3300 3501.00 3492.41 59.00
4404 47.3400 3495.00 3484.33 59.00
4405 47.3500 3455.00 3475.86 59.00
4406 47.3600 3471.00 3467.24 59.00
4407 47.3700 3465.00 3458.59 59.00
4408 47.3800 3425.00 3450.06 59.00
4409 47.3900 3402.00 3441.78 58.00
4410 47.4000 3437.00 3433.91 59.00
4411 47.4100 3425.00 3426.52 59.00
4412 47.4200 3408.00 3419.69 58.00
4413 47.4300 3406.00 3413.44 58.00
4414 47.4400 3411.00 3407.79 58.00
4415 47.4500 3400.00 3402.76 58.00
4416 47.4600 3410.00 3398.34 58.00
4417 47.4700 3403.00 3394.52 58.00
4418 47.4800 3378.00 3391.30 58.00
4419 47.4900 3408.00 3388.70 58.00
4420 47.5000 3384.00 3386.76 58.00
4421 47.5100 3359.00 3385.51 58.00
4422 47.5200 3373.00 3384.96 58.00
4423 47.5300 3383.00 3385.23 58.00
4424 47.5400 3364.00 3386.35 58.00
4425 47.5500 3421.00 3388.31 58.00
4426 47.5600 3373.00 3391.26 58.00
4427 47.5700 3387.00 3395.15 58.00
4428 47.5800 3413.00 3400.01 58.00
4429 47.5900 3414.00 3405.80 58.00
4430 47.6000 3383.00 3412.62 58.00
4431 47.6100 3413.00 3420.14 58.00
4432 47.6200 3423.00 3428.36 59.00
4433 47.6300 3418.00 3437.14 58.00
4434 47.6400 3432.00 3446.25 59.00
4435 47.6500 3476.00 3455.40 59.00
4436 47.6600 3464.00 3464.29 59.00
4437 47.6700 3498.00 3472.55 59.00
4438 47.6800 3496.00 3479.86 59.00
4439 47.6900 3479.00 3485.92 59.00
4440 47.7000 3493.00 3490.54 59.00
4441 47.7100 3492.00 3493.66 59.00
4442 47.7200 3492.00 3495.32 59.00
4443 47.7300 3519.00 3495.71 59.00
4444 47.7400 3468.00 3495.06 59.00
4445 47.7500 3461.00 3493.58 59.00
4446 47.7600 3464.00 3491.45 59.00
4447 47.7700 3459.00 3488.75 59.00
4448 47.7800 3453.00 3485.51 59.00
4449 47.7900 3481.00 3481.62 59.00
4450 47.8000 3458.00 3476.95 59.00
4451 47.8100 3446.00 3471.34 59.00
4452 47.8200 3424.00 3464.74 59.00
4453 47.8300 3432.00 3457.21 59.00
4454 47.8400 3429.00 3448.94 59.00
4455 47.8500 3399.00 3440.24 58.00
4456 47.8600 3420.00 3431.42 58.00
4457 47.8700 3360.00 3422.95 58.00
4458 47.8800 3407.00 3414.74 58.00
4459 47.8900 3384.00 3407.13 58.00
4460 47.9000 3395.00 3400.19 58.00
4461 47.9100 3376.00 3393.98 58.00
4462 47.9200 3407.00 3388.51 58.00
4463 47.9300 3399.00 3383.76 58.00
4464 47.9400 3391.00 3379.70 58.00
4465 47.9500 3391.00 3376.28 58.00
4466 47.9600 3380.00 3373.48 58.00
4467 47.9700 3385.00 3371.40 58.00
4468 47.9800 3358.00 3369.72 58.00
4469 47.9900 3352.00 3368.53 58.00
4470 48.0000 3343.00 3367.93 58.00
4471 48.0100 3398.00 3367.90 58.00
4472 48.0200 3353.00 3368.46 58.00
4473 48.0300 3389.00 3369.67 58.00
4474 48.0400 3370.00 3371.53 58.00
4475 48.0500 3354.00 3374.04 58.00
4476 48.0600 3360.00 3377.15 58.00
4477 48.0700 3389.00 3380.74 58.00
4478 48.0800 3374.00 3384.69 58.00
4479 48.0900 3396.00 3388.79 58.00
4480 48.1000 3366.00 3392.87 58.00
4481 48.1100 3374.00 3396.79 58.00
4482 48.1200 3359.00 3400.43 58.00
4483 48.1300 3408.00 3403.70 58.00
4484 48.1400 3384.00 3406.48 58.00
4485 48.1500 3425.00 3408.60 59.00
loop_
_pd_proc_info_excluded_regions
'from 0.01 to 3.300'
'from 48.16 to 78.048'
loop_
_refln_index_h
_refln_index_k
_refln_index_l
_refln_F_squared_calc
_refln_F_squared_meas
_refln_F_squared_sigma
_refln_observed_status
_refln_d_spacing
2 0 0 289.68 262.78 6.86 o 5.747087
1 0 1 596.29 629.28 10.18 o 4.143157
2 0 1 7166.56 7028.23 26.19 o 3.514448
2 1 0 2307.89 2340.54 18.29 o 3.365019
0 1 1 11370.99 11308.30 36.99 o 3.032768
1 1 1 29181.43 29328.19 41.85 o 2.932410
3 0 1 610.77 620.24 1.65 o 2.901192
4 0 0 61763.15 61886.96 123.46 o 2.873543
2 1 1 27.37 35.70 2.48 o 2.682214
4 0 1 420.97 400.71 6.16 o 2.412673
3 1 1 17081.29 17014.74 39.42 o 2.377955
4 1 0 5220.53 5280.68 15.88 o 2.362659
0 0 2 18418.94 17907.86 104.15 o 2.220875
1 0 2 11427.92 11413.06 59.11 o 2.180545
4 1 1 8105.15 8131.38 22.63 o 2.085921
0 2 0 53852.57 53584.85 135.49 o 2.075482
2 0 2 473.55 471.17 1.18 o 2.071579
5 0 1 5341.36 5211.30 42.06 o 2.041607
2 2 0 157.22 167.70 2.59 o 1.952087
1 1 2 6176.19 6212.90 25.20 o 1.930403
3 0 2 11497.10 11493.47 45.90 o 1.921416
6 0 0 1012.21 993.57 6.21 o 1.915696
1 2 1 331.62 335.32 2.72 o 1.855667
2 1 2 2755.64 2834.96 19.64 o 1.853573
5 1 1 21230.68 21148.84 60.53 o 1.832010
2 2 1 4192.35 4071.34 31.82 o 1.787113
6 0 1 4097.24 4068.25 22.46 o 1.759064
4 0 2 12136.73 12127.25 58.99 o 1.757224
3 1 2 2895.80 2947.30 16.46 o 1.743674
6 1 0 2891.66 2976.38 23.15 o 1.739395
3 2 1 410.51 400.52 1.47 o 1.688007
4 2 0 38060.40 36895.49 127.46 o 1.682510
6 1 1 154.70 146.30 2.58 o 1.619636
4 1 2 1826.15 1722.86 29.31 o 1.618199
5 0 2 6219.93 6025.42 78.14 o 1.597246
4 2 1 268.73 197.90 14.73 o 1.573411
7 0 1 1406.33 1234.41 44.89 o 1.540153
0 2 2 12208.56 12232.81 89.44 o 1.516384
1 2 2 7431.89 7528.94 46.32 o 1.503358
5 1 2 7234.84 7239.09 48.04 o 1.490695
1 0 3 5763.68 5612.97 49.33 o 1.468451
2 2 2 324.24 310.59 3.80 o 1.466205
5 2 1 3462.69 3415.38 29.74 o 1.455463
6 0 2 2382.52 2386.39 15.92 o 1.450596
7 1 1 4655.32 4685.86 30.40 o 1.443964
8 0 0 20965.55 21318.97 141.79 o 1.436772
2 0 3 5306.92 5338.88 29.15 o 1.433768
3 2 2 7651.22 7689.27 54.48 o 1.409970
6 2 0 736.74 736.47 5.02 o 1.407705
0 1 3 14989.86 15047.70 98.73 o 1.394530
1 1 3 1090.76 1113.78 7.90 o 1.384378
3 0 3 7742.85 7839.22 60.01 o 1.381052
6 1 2 707.79 747.74 11.33 o 1.369388
8 0 1 809.62 880.01 16.12 o 1.367032
8 1 0 9300.74 9774.97 100.37 o 1.357739
2 1 3 1.81 1.87 0.01 o 1.355204
2 3 0 784.02 807.49 4.91 o 1.345216
6 2 1 2749.15 2826.75 17.48 o 1.341924
4 2 2 8477.29 8713.98 54.12 o 1.341107
0 3 1 4697.83 4876.08 30.12 o 1.321042
7 0 2 7121.74 7384.28 45.86 o 1.320333
4 0 3 620.92 637.20 3.18 o 1.316150
1 3 1 12522.44 12811.06 68.52 o 1.312402
3 1 3 2.15 2.20 0.01 o 1.310428
8 1 1 3694.99 3793.61 48.18 o 1.298432
2 3 1 11.12 12.80 0.40 o 1.287467
5 2 2 4332.86 4551.63 45.70 o 1.265803
7 1 2 734.27 746.19 4.63 o 1.258217
4 1 3 11769.82 11800.63 57.80 o 1.254595
3 3 1 7700.88 7730.84 41.34 o 1.248890
4 3 0 2431.81 2433.55 13.77 o 1.246659
5 0 3 1673.24 1679.60 9.36 o 1.244754
7 2 1 1078.26 1182.73 19.02 o 1.236814
9 0 1 8203.08 8622.08 117.25 o 1.227401
8 0 2 3771.07 4077.27 48.92 o 1.206336
4 3 1 3739.34 3902.60 32.62 o 1.200279
1 2 3 4152.92 4336.27 34.66 o 1.198750
5 1 3 2381.04 2468.80 19.06 o 1.192301
6 2 2 1755.41 1815.20 17.42 o 1.188977
8 2 0 14960.87 15328.95 81.44 o 1.181329
2 2 3 3684.11 3773.48 19.32 o 1.179658
9 1 1 8730.42 8954.34 49.43 o 1.177024
6 0 3 3994.61 4051.69 23.27 o 1.171483
1 3 2 2848.30 2895.75 31.17 o 1.168297
8 1 2 3465.46 3688.54 45.85 o 1.158409
2 3 2 1510.02 1541.14 10.38 o 1.150603
3 2 3 5672.64 5724.13 35.41 o 1.149770
10 0 0 742.48 759.23 5.69 o 1.149417
5 3 1 10677.38 10655.38 67.98 o 1.145389
8 2 1 582.17 563.84 4.52 o 1.141642
6 1 3 16.44 16.05 0.42 o 1.127444
3 3 2 1361.17 1317.66 32.02 o 1.122818
6 3 0 1256.38 1214.11 20.62 o 1.121673
7 2 2 5111.36 4941.84 56.76 o 1.114018
10 0 1 1876.79 1816.78 21.44 o 1.112763
4 2 3 453.22 439.02 4.56 o 1.111502
0 0 4 154.03 149.13 1.44 o 1.110438
10 1 0 3264.05 3142.40 43.37 o 1.107733
9 0 2 2084.27 2006.18 27.03 o 1.107125
1 0 4 2692.45 2604.78 25.33 o 1.105292
7 0 3 4939.98 4763.81 85.01 o 1.099589
2 0 4 431.93 416.12 10.11 o 1.090273
6 3 1 73.75 71.31 2.93 o 1.087532
4 3 2 978.43 947.00 40.57 o 1.087097
10 1 1 219.09 214.97 4.05 o 1.074813
9 1 2 5639.54 5588.24 65.85 o 1.069730
1 1 4 180.32 174.70 1.60 o 1.068076
5 2 3 1226.86 1209.58 12.90 o 1.067489
3 0 4 1853.52 1795.91 14.21 o 1.066546
7 1 3 1065.67 1033.93 8.58 o 1.062928
9 2 1 6030.24 5754.67 40.47 o 1.056484
2 1 4 14306.89 13546.85 84.62 o 1.054505
5 3 2 3689.87 3429.62 36.27 o 1.045815
8 2 2 2807.87 2727.13 30.54 o 1.042960
0 4 0 18987.32 18207.41 208.38 o 1.037741
4 0 4 286.74 273.13 2.96 o 1.035789
3 1 4 7.38 6.91 0.09 o 1.032993
8 0 3 1385.49 1264.46 21.66 o 1.031092
7 3 1 2393.89 2140.88 44.25 o 1.029287
2 4 0 66.33 60.54 1.10 o 1.021226
10 0 2 2408.38 2225.91 44.80 o 1.020804
6 2 3 2927.46 2682.07 51.59 o 1.020189
11 0 1 708.24 645.38 14.80 o 1.017158
0 3 3 7969.95 7462.90 136.71 o 1.010923
1 3 3 638.57 588.86 9.29 o 1.007035
1 4 1 79.44 74.30 0.96 o 1.006645
10 2 0 577.66 536.27 7.85 o 1.005517
4 1 4 178.82 165.24 1.76 o 1.004974
6 3 2 422.22 386.67 4.76 o 1.001221
8 1 3 6059.98 5564.15 65.06 o 1.000682
5 0 4 2362.46 2168.11 23.90 o 0.999895
8 3 0 5124.34 4747.83 58.22 o 0.996641
2 3 3 0.73 0.67 0.01 o 0.995637
2 4 1 1471.30 1364.74 17.14 o 0.995259
10 1 2 6.82 6.31 0.17 o 0.991269
11 1 1 616.18 564.27 24.50 o 0.987930
10 2 1 1399.39 1352.47 17.59 o 0.980702
0 2 4 105.88 101.49 0.95 o 0.979109
3 3 3 0.28 0.27 0.00 o 0.977470
3 4 1 217.60 208.94 1.90 o 0.977113
9 2 2 1565.85 1497.13 14.32 o 0.976836
4 4 0 14518.05 13916.33 122.17 o 0.976043
1 2 4 2027.52 1941.94 16.85 o 0.975576
8 3 1 2000.94 1920.54 17.96 o 0.972461
5 1 4 602.98 576.11 5.08 o 0.972090
7 2 3 3749.11 3602.05 35.44 o 0.971648
9 0 3 66.45 63.79 0.97 o 0.967064
2 2 4 327.36 314.20 4.66 o 0.965202
6 0 4 2568.82 2473.90 36.77 o 0.960708
12 0 0 4531.77 4269.33 88.90 o 0.957848
7 3 2 390.17 373.40 5.32 o 0.955218
4 3 3 6490.64 6207.84 88.01 o 0.953630
4 4 1 103.97 99.43 1.36 o 0.953299
3 2 4 1402.14 1352.04 17.24 o 0.948623
11 0 2 3412.51 3318.25 65.00 o 0.945499
9 1 3 1700.89 1649.78 19.06 o 0.941842
0 4 2 4994.00 4848.85 50.88 o 0.940167
1 4 2 2909.71 2789.29 26.03 o 0.937038
12 0 1 732.08 695.60 7.25 o 0.936324
6 1 4 8137.48 7820.86 70.28 o 0.935967
12 1 0 7136.46 6824.56 77.37 o 0.933322
2 4 2 137.88 135.18 2.23 o 0.927834
4 2 4 212.52 207.83 3.02 o 0.926786
5 3 3 1389.13 1395.25 27.92 o 0.925397
5 4 1 1334.39 1334.56 23.49 o 0.925093
8 2 3 1056.56 1054.57 17.74 o 0.923417
11 1 2 104.16 104.53 1.75 o 0.921887
7 0 4 793.34 780.96 9.20 o 0.919846
9 3 1 5002.76 4898.13 64.35 o 0.918199
10 2 2 1848.23 1806.08 23.55 o 0.916005
12 1 1 1295.01 1257.35 18.43 o 0.913376
11 2 1 546.09 532.34 7.35 o 0.913368
3 4 2 3066.52 3006.03 38.61 o 0.913079
6 4 0 336.17 330.42 4.12 o 0.912463
8 3 2 2008.09 1990.80 34.25 o 0.909280
10 0 3 2541.35 2540.32 47.82 o 0.907933
5 2 4 1812.20 1913.32 53.06 o 0.900807
7 1 4 4.92 5.12 0.13 o 0.898061
6 3 3 8.69 8.97 0.22 o 0.894071
6 4 1 1114.47 1147.62 26.58 o 0.893798
4 4 2 3611.70 3717.75 88.50 o 0.893556
10 1 3 50.76 50.02 1.60 o 0.886964
1 0 5 5065.17 5151.28 109.69 o 0.885709
10 3 0 1865.18 1868.15 63.59 o 0.884146
12 0 2 425.70 454.67 20.53 o 0.879532
8 0 4 688.94 726.41 21.44 o 0.878612
2 0 5 966.39 991.69 19.01 o 0.877924
9 2 3 51.29 55.37 1.80 o 0.876579
6 2 4 1983.56 1986.21 27.93 o 0.871837
5 4 2 1844.48 1850.59 24.89 o 0.870204
12 2 0 3503.83 3504.76 48.47 o 0.869698
0 1 5 406.63 408.84 4.24 o 0.868680
13 0 1 6820.37 6846.40 94.09 o 0.867154
10 3 1 126.98 127.62 1.53 o 0.867134
1 1 5 74.38 74.88 0.70 o 0.866210
3 0 5 5542.58 5602.72 50.24 o 0.865393
9 3 2 3292.76 3295.90 37.21 o 0.864458
1 3 4 103.98 104.32 1.07 o 0.863584
7 3 3 624.49 641.45 7.16 o 0.860856
7 4 1 498.60 514.42 5.29 o 0.860612
12 1 2 2502.77 2556.16 30.67 o 0.860429
11 2 2 2647.34 2715.33 31.47 o 0.860423
8 1 4 282.87 290.55 2.88 o 0.859568
2 1 5 61.45 63.23 0.57 o 0.858923
2 3 4 8426.41 8704.30 97.10 o 0.856364
11 0 3 1510.97 1606.58 22.53 o 0.853722
12 2 1 568.52 607.96 9.25 o 0.853491
13 1 1 1926.37 2187.90 49.61 o 0.848830
4 0 5 52.69 56.75 0.73 o 0.848718
1 4 3 1834.70 2064.05 43.21 o 0.847478
3 1 5 925.22 991.70 13.71 o 0.847178
3 3 4 4.28 4.65 0.08 o 0.844722
6 4 2 787.81 855.11 15.02 o 0.844004
8 4 0 6590.83 7121.95 127.06 o 0.841255
7 2 4 619.22 670.44 11.81 o 0.840955
2 4 3 1596.56 1708.61 33.31 o 0.840651
9 0 4 1293.03 1398.92 24.39 o 0.837978
11 1 3 2060.81 2260.02 47.52 o 0.836220
10 2 3 1991.24 2167.62 41.24 o 0.831823
4 1 5 284.03 309.77 4.61 o 0.831516
3 4 3 2551.85 2753.35 48.84 o 0.829630
4 3 4 106.40 115.23 1.97 o 0.829193
5 0 5 2777.04 3046.38 47.34 o 0.828631
8 3 3 3633.88 3922.06 73.22 o 0.826777
8 4 1 260.31 283.20 5.00 o 0.826560
2 5 0 218.59 241.00 4.39 o 0.821664
13 0 2 413.44 500.22 16.26 o 0.821461
10 3 2 4.29 4.96 0.13 o 0.821444
9 1 4 924.05 1025.90 19.73 o 0.821408
14 0 0 124.36 152.49 5.42 o 0.821012
11 3 1 375.06 416.67 8.51 o 0.819541
0 5 1 1530.40 1663.46 24.54 o 0.816061
7 4 2 2307.38 2495.82 38.39 o 0.815894
4 4 3 205.62 221.06 3.42 o 0.814904
1 2 5 3971.40 4348.34 60.34 o 0.814631
1 5 1 4166.59 4524.08 65.62 o 0.814012
5 1 5 35.68 38.52 0.51 o 0.812599
5 3 4 367.00 396.24 5.87 o 0.810430
12 2 2 334.92 361.68 6.66 o 0.809818
8 2 4 548.69 590.41 8.54 o 0.809100
2 2 5 754.92 812.52 10.42 o 0.808562
2 5 1 3.58 3.85 0.06 o 0.807956
14 0 1 781.45 839.92 16.06 o 0.807337
6 0 5 464.49 482.90 5.59 o 0.805915
13 1 2 3458.99 3712.33 66.97 o 0.805833
14 1 0 2960.97 3158.76 57.71 o 0.805410
12 0 3 1345.76 1384.10 20.20 o 0.804224
13 2 1 5364.11 5435.35 71.29 o 0.800125
3 2 5 4355.99 4446.07 49.34 o 0.798741
10 0 4 3277.85 3326.58 40.13 o 0.798623
3 5 1 2607.91 2642.54 31.72 o 0.798157
4 5 0 832.66 844.35 9.90 o 0.797574
5 4 3 566.67 572.67 7.42 o 0.797074
9 3 3 1025.84 1038.86 14.47 o 0.792652
14 1 1 215.31 218.37 3.56 o 0.792487
9 4 1 2799.42 2819.55 35.74 o 0.792461
6 1 5 381.07 382.74 4.16 o 0.791142
12 1 3 2303.23 2301.38 29.19 o 0.789542
11 2 3 1182.84 1181.89 15.02 o 0.789537
6 3 4 4983.40 4987.78 60.95 o 0.789140
12 3 0 4355.29 4341.03 55.32 o 0.787553
8 4 2 1307.19 1301.96 17.07 o 0.786706
4 2 5 40.91 40.82 0.50 o 0.785574
4 5 1 1289.56 1289.63 17.34 o 0.785018
10 1 4 2650.73 2638.58 39.55 o 0.784240
7 0 5 3544.48 3514.25 56.72 o 0.781334
11 3 2 66.04 66.63 1.74 o 0.780646
9 2 4 1021.10 1026.13 27.85 o 0.777034
6 4 3 1394.23 1392.81 40.91 o 0.776794
1 5 2 996.81 997.07 27.16 o 0.775863
12 3 1 806.07 804.98 23.20 o 0.775458
2 5 2 535.78 522.84 11.24 o 0.770614
10 4 0 263.70 256.92 5.59 o 0.770258
14 0 2 1070.65 1046.44 24.55 o 0.770077
5 2 5 2212.99 2149.64 43.86 o 0.769564
5 5 1 3790.29 3671.39 79.44 o 0.769042
7 1 5 2281.10 2211.17 46.65 o 0.767850
7 3 4 2.34 2.25 0.06 o 0.766020
13 2 2 328.54 303.44 13.24 o 0.763810
14 2 0 92.89 86.05 4.13 o 0.763450
3 5 2 490.71 456.32 19.52 o 0.762098
6 5 0 456.37 424.19 16.09 o 0.761740
11 0 4 246.48 230.65 9.25 o 0.760980
13 0 3 61.04 57.68 2.47 o 0.759112
10 3 3 33.92 32.07 1.34 o 0.759098
10 4 1 679.49 643.47 24.52 o 0.758931
0 4 4 58.52 55.33 2.16 o 0.758192
14 1 2 404.81 381.96 15.32 o 0.757157
9 4 2 754.10 709.85 25.98 o 0.757135
1 4 4 973.67 912.03 33.52 o 0.756548
8 0 5 103.00 96.15 3.07 o 0.755587
15 0 1 88.55 82.91 3.40 o 0.755124
7 4 3 1781.06 1659.00 60.16 o 0.754712
14 2 1 627.09 583.69 23.75 o 0.752416
2 4 4 156.66 144.40 5.82 o 0.751679
6 2 5 367.13 339.13 10.73 o 0.751265
6 5 1 27.33 25.07 0.88 o 0.750779
4 5 2 353.80 323.75 12.35 o 0.750636
12 2 3 1073.09 971.71 42.58 o 0.749895
11 1 4 1.95 1.77 0.07 o 0.748506
0 3 5 247.89 223.70 7.35 o 0.747541
13 1 3 542.14 490.54 19.11 o 0.746728
1 3 5 53.17 48.36 1.61 o 0.745966
10 2 4 2603.89 2353.26 83.18 o 0.745348
3 4 4 685.57 617.99 23.08 o 0.743769
8 1 5 87.21 78.74 2.70 o 0.743372
15 1 1 48.37 43.70 1.87 o 0.742931
12 3 2 1547.91 1401.91 57.59 o 0.742264
8 3 4 167.74 152.05 6.11 o 0.741711
2 3 5 38.23 34.65 1.25 o 0.741297
0 0 6 30.40 27.42 0.81 o 0.740292
1 0 6 7.21 6.55 0.19 o 0.738761
5 5 2 1393.33 1263.27 50.88 o 0.736632
13 3 1 1204.45 1102.97 39.58 o 0.734779
2 0 6 83.97 76.00 1.92 o 0.734226
3 3 5 604.18 545.34 15.85 o 0.733707
4 4 4 118.97 107.93 3.40 o 0.733103
8 4 3 519.85 467.16 13.83 o 0.731431
7 2 5 2828.33 2550.68 62.76 o 0.731235
7 5 1 915.60 826.09 21.17 o 0.730786
9 0 5 1003.41 892.62 19.28 o 0.729275
10 4 2 885.64 784.40 18.83 o 0.727731
1 1 6 1373.19 1228.25 23.23 o 0.727332
3 0 6 245.70 220.22 4.13 o 0.726848
11 3 3 1302.37 1152.36 28.10 o 0.726554
11 4 1 253.58 225.13 5.15 o 0.726407
12 0 4 1032.27 919.80 20.64 o 0.725298
15 0 2 1516.61 1354.62 35.05 o 0.724373
0 5 3 3047.52 2715.16 63.84 o 0.724126
4 3 5 174.57 156.69 3.38 o 0.723462
2 1 6 3637.30 3283.43 63.78 o 0.723002
1 5 3 229.80 205.27 5.00 o 0.722693
14 2 2 845.61 760.96 20.11 o 0.721982
6 5 2 150.15 137.59 3.48 o 0.720535
5 4 4 897.83 835.56 23.43 o 0.720040
8 5 0 1936.85 1815.55 49.92 o 0.718822
2 5 3 0.35 0.33 0.01 o 0.718445
16 0 0 554.11 527.53 21.01 o 0.718386
9 1 5 77.11 72.42 2.00 o 0.718274
14 0 3 1454.41 1373.61 49.32 o 0.718010
4 0 6 80.21 75.38 1.96 o 0.716884
9 3 4 595.65 575.07 21.40 o 0.716775
3 1 6 1384.00 1307.91 37.04 o 0.715955
12 1 4 96.21 95.37 4.38 o 0.714473
11 2 4 202.33 200.44 9.09 o 0.714470
15 1 2 4.72 4.79 0.32 o 0.713589
13 2 3 45.78 45.90 2.82 o 0.712922
3 5 3 0.44 0.43 0.03 o 0.711529
5 3 5 17.79 17.08 0.64 o 0.710899
8 2 5 80.63 77.83 2.39 o 0.710001
15 2 1 68.94 65.25 2.60 o 0.709616
8 5 1 788.55 760.90 23.91 o 0.709590
16 0 1 473.97 446.08 18.62 o 0.709170
16 1 0 3397.56 3262.65 107.45 o 0.707863
14 1 3 106.38 101.59 3.11 o 0.707503
9 4 3 29.50 28.17 0.85 o 0.707485
4 1 6 95.47 91.97 2.32 o 0.706427
13 3 2 2249.61 2147.63 62.53 o 0.706356
14 3 0 1924.14 1837.79 52.21 o 0.706071
6 4 4 987.43 945.43 26.27 o 0.704985
5 0 6 48.04 46.26 1.15 o 0.704655
12 4 0 1805.36 1734.93 47.72 o 0.703852
10 0 5 75.43 72.67 1.90 o 0.702890
7 5 2 161.78 156.71 4.52 o 0.702807
4 5 3 2572.76 2488.34 81.60 o 0.702174
16 1 1 383.67 382.63 18.39 o 0.699042
11 4 2 1383.86 1355.73 52.07 o 0.698909
14 3 1 143.46 138.26 5.63 o 0.697315
0 2 6 28.04 27.29 0.77 o 0.697265
6 3 5 242.54 233.33 7.94 o 0.696399
1 2 6 6.89 6.67 0.19 o 0.695986
12 3 3 1512.01 1454.82 54.89 o 0.695307
12 4 1 293.12 283.01 9.77 o 0.695178
5 1 6 864.48 826.75 22.90 o 0.694717
10 1 5 517.75 494.70 14.85 o 0.693024
2 2 6 67.28 65.24 1.77 o 0.692189
0 6 0 5738.81 5509.44 160.43 o 0.691827
13 0 4 450.29 430.27 13.60 o 0.691688
10 3 4 1731.32 1651.00 53.14 o 0.691678
5 5 3 520.69 500.43 16.44 o 0.690671
6 0 6 519.94 503.93 12.96 o 0.690526
7 4 4 326.11 319.85 10.64 o 0.688354
9 2 5 827.64 810.86 21.74 o 0.688036
9 5 1 1963.11 1930.34 54.88 o 0.687663
2 6 0 18.60 18.26 0.48 o 0.686868
3 2 6 204.13 202.73 4.73 o 0.685998
12 2 4 846.29 851.80 23.94 o 0.684694
15 2 2 1246.99 1245.94 38.06 o 0.683915
8 5 2 777.78 784.13 21.54 o 0.683892
16 0 2 1.01 1.00 0.04 o 0.683516
10 4 3 1062.03 1068.91 30.51 o 0.683319
1 6 1 32.14 32.33 0.82 o 0.682379
13 1 4 867.41 869.01 23.47 o 0.682280
6 1 6 2272.48 2298.36 53.95 o 0.681165
15 0 3 130.48 131.66 4.03 o 0.680536
7 3 5 1509.89 1524.26 39.92 o 0.680355
16 2 0 461.10 475.68 16.42 o 0.678870
2 6 1 475.56 484.79 12.72 o 0.678800
14 2 3 1192.34 1233.50 41.71 o 0.678552
4 2 6 70.27 71.68 1.58 o 0.677602
6 5 3 4.65 4.80 0.15 o 0.677351
11 0 5 1260.83 1296.54 32.05 o 0.676816
7 0 6 678.91 686.80 14.61 o 0.674875
16 1 2 969.64 995.09 30.12 o 0.674434
1 4 5 2072.42 2098.71 52.95 o 0.673692
10 5 0 806.95 813.35 19.38 o 0.673004
3 6 1 53.54 53.90 1.28 o 0.672958
14 3 2 266.02 267.90 7.02 o 0.672883
4 6 0 4565.90 4592.83 102.96 o 0.672608
15 1 3 1668.03 1668.62 42.15 o 0.671570
16 2 1 387.80 387.11 9.88 o 0.671077
12 4 2 177.47 177.97 4.11 o 0.670962
8 4 4 311.44 311.67 7.24 o 0.670554
2 4 5 383.12 382.95 8.44 o 0.670247
17 0 1 3767.01 3729.11 106.43 o 0.668428
11 1 5 2769.25 2725.79 54.19 o 0.667995
5 2 6 36.58 36.10 0.69 o 0.667247
11 3 4 0.73 0.72 0.02 o 0.666789
7 1 6 838.84 830.56 15.32 o 0.666129
10 2 5 60.78 59.98 1.26 o 0.665747
13 3 3 346.02 341.39 8.05 o 0.665531
13 4 1 2809.95 2769.71 62.45 o 0.665418
10 5 1 55.99 55.25 1.19 o 0.665409
4 6 1 33.57 33.24 0.68 o 0.665027
3 4 5 2270.55 2247.84 49.51 o 0.664621
9 5 2 1400.46 1391.02 30.53 o 0.664198
1 5 4 49.05 48.55 1.16 o 0.663801
8 3 5 54.94 54.85 1.17 o 0.663152
15 3 1 40.11 40.15 0.96 o 0.662838
7 5 3 263.74 263.78 6.08 o 0.662560
0 6 2 1562.26 1591.99 39.68 o 0.660521
2 5 4 3486.60 3579.50 100.45 o 0.660505
14 0 4 2194.05 2260.32 62.71 o 0.660166
17 1 1 117.35 121.36 3.77 o 0.659927
1 6 2 958.07 995.73 27.39 o 0.659433
11 4 3 600.94 625.94 18.77 o 0.659291
8 0 6 264.40 276.85 7.21 o 0.658075
4 4 5 19.92 21.46 0.71 o 0.656978
13 2 4 366.69 398.17 17.12 o 0.656206
2 6 2 42.10 45.94 1.64 o 0.656201
5 6 1 459.47 503.84 19.67 o 0.655230
6 2 6 420.54 457.59 13.86 o 0.655214
3 5 4 3.48 4.13 0.23 o 0.655119
14 1 4 457.16 512.28 22.40 o 0.651972
9 4 4 537.08 600.71 26.93 o 0.651958
1 3 6 910.38 993.82 34.38 o 0.651689
12 0 5 66.45 72.62 2.67 o 0.651343
3 6 2 1035.80 1123.47 41.08 o 0.650919
6 6 0 95.41 103.00 3.59 o 0.650696
8 1 6 178.11 191.75 5.99 o 0.649958
16 2 2 0.60 0.63 0.03 o 0.649216
2 3 6 2407.36 2583.61 77.76 o 0.648569
4 5 4 39.24 41.29 1.47 o 0.647795
5 4 5 1204.71 1275.86 41.75 o 0.647527
17 0 2 23.52 24.65 0.95 o 0.646817
15 2 3 104.75 110.64 3.94 o 0.646661
8 5 3 1572.69 1671.36 56.13 o 0.646641
16 0 3 874.85 926.63 33.52 o 0.646323
9 3 5 44.46 47.40 1.58 o 0.645150
13 4 2 176.15 186.74 6.74 o 0.644088
10 5 2 3.13 3.32 0.12 o 0.644080
14 4 0 37.88 40.17 1.49 o 0.643872
6 6 1 390.21 410.20 13.41 o 0.643824
4 6 2 1164.66 1231.72 41.83 o 0.643733
12 1 5 5.29 5.53 0.18 o 0.643470
3 3 6 914.46 947.42 28.54 o 0.643468
11 2 5 1027.42 1076.84 36.13 o 0.643467
11 5 1 183.60 192.87 6.70 o 0.643161
12 3 4 55.57 58.04 2.33 o 0.642391
7 2 6 561.40 575.39 16.43 o 0.641798
15 3 2 3.54 3.67 0.15 o 0.641748
9 0 6 106.19 107.55 2.94 o 0.640472
17 1 2 1782.20 1748.34 68.24 o 0.639104
5 5 4 165.71 163.19 5.42 o 0.638730
16 1 3 709.80 694.92 24.07 o 0.638628
18 0 0 21.54 20.89 0.85 o 0.638565
16 3 0 2253.82 2211.36 71.62 o 0.637574
14 3 3 76.33 75.01 2.41 o 0.637311
14 4 1 347.08 341.63 10.75 o 0.637212
4 3 6 60.78 60.09 1.71 o 0.636524
6 4 5 191.68 189.13 5.81 o 0.636512
17 2 1 3085.69 3065.25 102.86 o 0.636246
12 4 3 579.16 577.54 18.55 o 0.635678
5 6 2 633.74 629.66 18.70 o 0.634835
1 0 7 257.11 251.48 5.74 o 0.633571
9 1 6 370.20 365.02 9.21 o 0.632982
10 4 4 1383.09 1363.24 47.78 o 0.632901
18 0 1 295.61 290.62 12.77 o 0.632067
18 1 0 1907.45 1862.12 71.92 o 0.631141
16 3 1 262.65 257.70 8.75 o 0.631106
7 6 1 140.77 137.79 4.09 o 0.631082
2 0 7 2786.72 2722.99 64.03 o 0.630703
15 0 4 77.64 75.96 2.43 o 0.630688
9 5 3 413.54 400.80 12.57 o 0.629917
14 2 4 1796.63 1734.02 54.46 o 0.629108
6 5 4 2164.88 2085.77 66.84 o 0.628150
5 3 6 587.20 567.05 15.81 o 0.627917
12 5 0 1853.52 1785.42 53.55 o 0.627349
8 2 6 223.28 215.57 5.95 o 0.627298
0 1 7 214.81 208.27 5.39 o 0.627249
13 0 5 307.79 297.22 8.88 o 0.626674
10 3 5 342.35 330.89 10.15 o 0.626667
1 1 7 105.64 102.15 2.73 o 0.626318
3 0 7 515.45 497.78 13.33 o 0.626009
1 6 3 615.25 594.36 19.46 o 0.625848
18 1 1 175.90 169.40 7.60 o 0.624864
6 6 2 251.63 242.11 8.65 o 0.624445
7 4 5 1519.70 1460.90 56.08 o 0.624192
11 5 2 32.68 31.44 1.26 o 0.623841
2 1 7 53.53 51.92 1.48 o 0.623547
15 1 4 1.84 1.78 0.08 o 0.623532
8 6 0 2299.31 2210.13 85.77 o 0.623329
2 6 3 599.02 579.22 25.36 o 0.623083
10 0 6 700.15 674.29 24.20 o 0.622377
12 2 5 52.83 51.32 2.23 o 0.621459
12 5 1 365.26 354.84 15.69 o 0.621184
13 1 5 20.98 20.20 0.97 o 0.619652
4 0 7 6.49 6.24 0.24 o 0.619609
3 1 7 10.76 10.33 0.40 o 0.619009
13 3 4 587.33 560.25 30.05 o 0.618689
3 6 3 852.64 815.18 42.79 o 0.618556
14 4 2 437.59 417.96 22.79 o 0.618407
6 3 6 1534.60 1459.16 70.56 o 0.617858
17 2 2 19.34 18.34 1.06 o 0.617524
8 6 1 92.43 87.85 4.45 o 0.617281
16 2 3 722.81 686.70 39.20 o 0.617094
7 5 4 0.24 0.23 0.02 o 0.616300
10 1 6 897.72 851.53 44.61 o 0.615497
17 0 3 92.37 85.57 6.21 o 0.615033
18 0 2 210.21 203.31 19.99 o 0.613701
11 4 4 118.55 111.13 9.47 o 0.613667
