#------------------------------------------------------------------------------
#$Date: 2016-06-17 04:50:27 +0300 (Fri, 17 Jun 2016) $
#$Revision: 183633 $
#$URL: file:///home/coder/svn-repositories/cod/cif/2/10/75/2107510.cif $
#------------------------------------------------------------------------------
#
# This file is available in the Crystallography Open Database (COD),
# http://www.crystallography.net/. The original data for this entry
# were provided by IUCr Journals, http://journals.iucr.org/.
#
# The file may be used within the scientific community so long as
# proper attribution is given to the journal article from which the
# data were obtained.
#
data_2107510
loop_
_publ_author_name
'Sist, Mattia'
'Zhang, Jiawei'
'Brummerstedt Iversen, Bo'
_publ_section_title
;
 Crystal structure and phase transition of thermoelectric SnSe
;
_journal_coeditor_code           GW5043
_journal_issue                   3
_journal_name_full               'Acta Crystallographica Section B'
_journal_page_first              310
_journal_page_last               316
_journal_paper_doi               10.1107/S2052520616003334
_journal_volume                  72
_journal_year                    2016
_chemical_formula_moiety         'Se1 Sn0.9816'
_chemical_formula_sum            'Se Sn0.9816'
_chemical_formula_weight         195.50
_chemical_name_common            'Tin Selenide'
_space_group_IT_number           62
_symmetry_cell_setting           orthorhombic
_symmetry_Int_Tables_number      62
_symmetry_space_group_name_Hall  '-P 2ac 2n'
_symmetry_space_group_name_H-M   'P n m a'
_cell_angle_alpha                90
_cell_angle_beta                 90
_cell_angle_gamma                90
_cell_formula_units_Z            4
_cell_length_a                   11.48933(12)
_cell_length_b                   4.14894(5)
_cell_length_c                   4.44118(7)
_cell_measurement_temperature    275(5)
_cell_volume                     211.705(5)
_computing_structure_refinement  'Jana2006, (Petricek,2014)'
_diffrn_ambient_temperature      275(5)
_diffrn_detector_type            'Image plate'
_diffrn_measurement_device_type  BL44B2
_diffrn_radiation_probe          x-ray
_diffrn_radiation_type           Synchrotron,monochromatic
_diffrn_radiation_wavelength     0.50023
_diffrn_source_type              'Spring8, BL44B2 beamline'
_exptl_absorpt_coefficient_mu    11.229
_exptl_absorpt_correction_type   none
_exptl_crystal_density_diffrn    6.134
_exptl_crystal_F_000             332.3
_pd_char_colour                  metallic_grey
_pd_meas_2theta_range_inc        0.01
_pd_meas_2theta_range_max        78.010
_pd_meas_2theta_range_min        0.010
_pd_meas_number_of_points        7801
_pd_proc_2theta_range_inc        0.01
_pd_proc_2theta_range_max        53.18
_pd_proc_2theta_range_min        4.02
_pd_proc_ls_background_function
'Manual background combined with 8 Chebyshev polynoms'
_pd_proc_ls_pref_orient_corr     none
_pd_proc_ls_profile_function     Pseudo-Voigt
_pd_proc_ls_prof_R_factor        0.0165
_pd_proc_ls_prof_wR_expected     0.0094
_pd_proc_ls_prof_wR_factor       0.0231
_pd_spec_mounting                capillary
_pd_spec_mount_mode              transmission
_refine_ls_goodness_of_fit_all   2.46
_refine_ls_number_constraints    0
_refine_ls_number_parameters     32
_refine_ls_number_restraints     0
_refine_ls_R_factor_all          0.0209
_refine_ls_R_factor_gt           0.0209
_refine_ls_shift/su_max          0.0242
_refine_ls_shift/su_mean         0.0084
_refine_ls_weighting_scheme      sigma
_refine_ls_wR_factor_all         0.0167
_refine_ls_wR_factor_gt          0.0167
_cod_data_source_file            gw5043sup1.cif
_cod_data_source_block           275
_cod_depositor_comments
;
The following automatic conversions were performed:

'_diffrn_radiation_probe' value 'X-ray' changed to 'x-ray' according
to
/usr/data/users/saulius/crontab/automatic-downloads/rss-feeds/IUCr/lib/dictionaries/cif_core.dic
dictionary named 'cif_core.dic' version 2.4.2 from 2011-04-26.

Automatic conversion script
Id: cif_fix_values 4268 2015-11-12 08:31:59Z antanas 

 Adding full bibliography for 2107508--2107520.cif.
;
_cod_original_cell_volume        211.705(4)
_cod_original_formula_sum        'Se1 Sn0.9816'
_cod_database_code               2107510
_cod_database_fobs_code          2107510
loop_
_space_group_symop_id
_space_group_symop_operation_xyz
1 x,y,z
2 -x+1/2,-y,z+1/2
3 -x,y+1/2,-z
4 x+1/2,-y+1/2,-z+1/2
5 -x,-y,-z
6 x+1/2,y,-z+1/2
7 x,-y+1/2,z
8 -x+1/2,y+1/2,z+1/2
loop_
_atom_site_label
_atom_site_type_symbol
_atom_site_fract_x
_atom_site_fract_y
_atom_site_fract_z
_atom_site_adp_type
_atom_site_U_iso_or_equiv
_atom_site_site_symmetry_multiplicity
_atom_site_occupancy
_atom_site_calc_flag
Sn Sn 0.11846(3) 0.25 0.10274(9) Uani 0.01406(17) 4 0.9816 d
Se Se 0.85505(4) 0.25 0.48208(11) Uani 0.0122(2) 4 1 d
loop_
_atom_site_aniso_label
_atom_site_aniso_type_symbol
_atom_site_aniso_U_11
_atom_site_aniso_U_22
_atom_site_aniso_U_33
_atom_site_aniso_U_12
_atom_site_aniso_U_13
_atom_site_aniso_U_23
Sn Sn 0.0132(3) 0.0129(3) 0.0161(3) 0 -0.0040(3) 0
Se Se 0.0128(3) 0.0123(4) 0.0116(4) 0 -0.0015(3) 0
loop_
_atom_type_symbol
_atom_type_scat_dispersion_real
_atom_type_scat_dispersion_imag
_atom_type_scat_source
Se 0.2899 1.2209 'International Tables Vol C tables 4.2.6.8 and 6.1.1.1'
Sn -1.5316 0.7679 'International Tables Vol C tables 4.2.6.8 and 6.1.1.1'
loop_
_geom_angle_atom_site_label_1
_geom_angle_atom_site_label_2
_geom_angle_atom_site_label_3
_geom_angle_site_symmetry_1
_geom_angle_site_symmetry_2
_geom_angle_site_symmetry_3
_geom_angle
Se Sn Se 4_455 1_555 3_656 89.009
Se Sn Se 4_455 1_555 3_655 78.632
Se Sn Se 3_645 1_555 3_655 76.848
Se Sn Se 3_646 1_555 3_656 95.971
Se Sn Se 3_656 1_555 3_655 92.417
Se Sn Se 4_455 1_555 1_455 158.786
Se Sn Sn 4_455 1_555 3_545 136.541
loop_
_geom_bond_atom_site_label_1
_geom_bond_atom_site_label_2
_geom_bond_site_symmetry_1
_geom_bond_site_symmetry_2
_geom_bond_distance
Sn Se 1_555 4_455 2.744
Sn Se 1_555 3_656 2.792
Sn Se 1_555 3_655 3.338
Sn Se 1_555 1_455 3.464
Sn Sn 1_555 3_545 3.542
Sn Se 1_555 1_454 4.094
loop_
_pd_proc_point_id
_pd_proc_2theta_corrected
_pd_proc_intensity_net
_pd_calc_intensity_net
_pd_proc_ls_weight
1 4.0300 7255.00 7060.31 85.00
2 4.0400 7253.00 7064.24 85.00
3 4.0500 7274.00 7068.14 85.00
4 4.0600 7328.00 7072.03 86.00
5 4.0700 7331.00 7075.90 86.00
6 4.0800 7271.00 7079.76 85.00
7 4.0900 7270.00 7083.60 85.00
8 4.1000 7276.00 7087.43 85.00
9 4.1100 7226.00 7091.23 85.00
10 4.1200 7244.00 7095.03 85.00
11 4.1300 7245.00 7098.80 85.00
12 4.1400 7272.00 7102.56 85.00
13 4.1500 7289.00 7106.31 85.00
14 4.1600 7279.00 7110.04 85.00
15 4.1700 7223.00 7113.75 85.00
16 4.1800 7304.00 7117.45 85.00
17 4.1900 7252.00 7121.13 85.00
18 4.2000 7238.00 7124.80 85.00
19 4.2100 7280.00 7128.45 85.00
20 4.2200 7290.00 7132.08 85.00
21 4.2300 7253.00 7135.71 85.00
22 4.2400 7298.00 7139.31 85.00
23 4.2500 7268.00 7142.90 85.00
24 4.2600 7241.00 7146.48 85.00
25 4.2700 7266.00 7150.04 85.00
26 4.2800 7265.00 7153.59 85.00
27 4.2900 7248.00 7157.12 85.00
28 4.3000 7291.00 7160.64 85.00
29 4.3100 7324.00 7164.15 86.00
30 4.3200 7239.00 7167.64 85.00
31 4.3300 7302.00 7171.11 85.00
32 4.3400 7235.00 7174.58 85.00
33 4.3500 7246.00 7178.02 85.00
34 4.3600 7269.00 7181.46 85.00
35 4.3700 7293.00 7184.88 85.00
36 4.3800 7276.00 7188.29 85.00
37 4.3900 7285.00 7191.69 85.00
38 4.4000 7281.00 7195.07 85.00
39 4.4100 7275.00 7198.45 85.00
40 4.4200 7298.00 7201.81 85.00
41 4.4300 7309.00 7205.15 85.00
42 4.4400 7315.00 7208.49 86.00
43 4.4500 7299.00 7211.81 85.00
44 4.4600 7256.00 7215.13 85.00
45 4.4700 7259.00 7218.43 85.00
46 4.4800 7287.00 7221.72 85.00
47 4.4900 7279.00 7225.01 85.00
48 4.5000 7238.00 7228.28 85.00
49 4.5100 7240.00 7231.55 85.00
50 4.5200 7289.00 7234.80 85.00
51 4.5300 7282.00 7238.05 85.00
52 4.5400 7379.00 7241.29 86.00
53 4.5500 7353.00 7244.53 86.00
54 4.5600 7287.00 7247.76 85.00
55 4.5700 7343.00 7250.98 86.00
56 4.5800 7318.00 7254.21 86.00
57 4.5900 7326.00 7257.43 86.00
58 4.6000 7390.00 7260.64 86.00
59 4.6100 7342.00 7263.86 86.00
60 4.6200 7311.00 7267.08 86.00
61 4.6300 7333.00 7270.30 86.00
62 4.6400 7356.00 7273.53 86.00
63 4.6500 7377.00 7276.77 86.00
64 4.6600 7440.00 7280.02 86.00
65 4.6700 7466.00 7283.28 86.00
66 4.6800 7440.00 7286.56 86.00
67 4.6900 7458.00 7289.86 86.00
68 4.7000 7416.00 7293.19 86.00
69 4.7100 7422.00 7296.55 86.00
70 4.7200 7378.00 7299.95 86.00
71 4.7300 7380.00 7303.39 86.00
72 4.7400 7314.00 7306.90 86.00
73 4.7500 7339.00 7310.47 86.00
74 4.7600 7304.00 7314.13 85.00
75 4.7700 7356.00 7317.88 86.00
76 4.7800 7374.00 7321.76 86.00
77 4.7900 7387.00 7325.79 86.00
78 4.8000 7321.00 7330.00 86.00
79 4.8100 7307.00 7334.44 85.00
80 4.8200 7358.00 7339.16 86.00
81 4.8300 7374.00 7344.24 86.00
82 4.8400 7407.00 7349.76 86.00
83 4.8500 7378.00 7355.86 86.00
84 4.8600 7343.00 7362.72 86.00
85 4.8700 7367.00 7370.59 86.00
86 4.8800 7340.00 7379.81 86.00
87 4.8900 7418.00 7390.91 86.00
88 4.9000 7447.00 7405.48 86.00
89 4.9100 7502.00 7423.23 87.00
90 4.9200 7497.00 7447.61 87.00
91 4.9300 7668.00 7487.25 88.00
92 4.9400 7779.00 7576.10 88.00
93 4.9500 8131.00 7825.55 90.00
94 4.9600 8758.00 8477.54 94.00
95 4.9700 9809.00 9788.92 99.00
96 4.9800 11206.00 11611.00 106.00
97 4.9900 12407.00 13004.50 111.00
98 5.0000 12045.00 12752.40 110.00
99 5.0100 10585.00 11112.30 103.00
100 5.0200 9012.00 9376.56 95.00
101 5.0300 8095.00 8261.36 90.00
102 5.0400 7625.00 7753.76 87.00
103 5.0500 7439.00 7571.19 86.00
104 5.0600 7426.00 7507.20 86.00
105 5.0700 7405.00 7478.40 86.00
106 5.0800 7403.00 7461.29 86.00
107 5.0900 7333.00 7449.82 86.00
108 5.1000 7321.00 7441.89 86.00
109 5.1100 7307.00 7436.39 85.00
110 5.1200 7364.00 7432.60 86.00
111 5.1300 7341.00 7430.06 86.00
112 5.1400 7346.00 7428.45 86.00
113 5.1500 7339.00 7427.54 86.00
114 5.1600 7288.00 7427.18 85.00
115 5.1700 7299.00 7427.24 85.00
116 5.1800 7274.00 7427.63 85.00
117 5.1900 7294.00 7428.29 85.00
118 5.2000 7310.00 7429.16 85.00
119 5.2100 7327.00 7430.21 86.00
120 5.2200 7221.00 7431.41 85.00
121 5.2300 7271.00 7432.72 85.00
122 5.2400 7296.00 7434.13 85.00
123 5.2500 7229.00 7435.62 85.00
124 5.2600 7255.00 7437.18 85.00
125 5.2700 7266.00 7438.80 85.00
126 5.2800 7280.00 7440.46 85.00
127 5.2900 7297.00 7442.17 85.00
128 5.3000 7293.00 7443.90 85.00
129 5.3100 7324.00 7445.67 86.00
130 5.3200 7384.00 7447.46 86.00
131 5.3300 7337.00 7449.27 86.00
132 5.3400 7309.00 7451.09 85.00
133 5.3500 7313.00 7452.93 86.00
134 5.3600 7332.00 7454.78 86.00
135 5.3700 7299.00 7456.64 85.00
136 5.3800 7358.00 7458.50 86.00
137 5.3900 7368.00 7460.37 86.00
138 5.4000 7307.00 7462.24 85.00
139 5.4100 7310.00 7464.11 85.00
140 5.4200 7318.00 7465.99 86.00
141 5.4300 7315.00 7467.87 86.00
142 5.4400 7387.00 7469.74 86.00
143 5.4500 7345.00 7471.61 86.00
144 5.4600 7339.00 7473.48 86.00
145 5.4700 7317.00 7475.35 86.00
146 5.4800 7296.00 7477.22 85.00
147 5.4900 7322.00 7479.08 86.00
148 5.5000 7387.00 7480.93 86.00
149 5.5100 7368.00 7482.78 86.00
150 5.5200 7295.00 7484.63 85.00
151 5.5300 7339.00 7486.47 86.00
152 5.5400 7342.00 7488.31 86.00
153 5.5500 7344.00 7490.14 86.00
154 5.5600 7369.00 7491.96 86.00
155 5.5700 7323.00 7493.78 86.00
156 5.5800 7276.00 7495.59 85.00
157 5.5900 7310.00 7497.39 85.00
158 5.6000 7352.00 7499.19 86.00
159 5.6100 7313.00 7500.98 86.00
160 5.6200 7334.00 7502.76 86.00
161 5.6300 7340.00 7504.54 86.00
162 5.6400 7354.00 7506.31 86.00
163 5.6500 7348.00 7508.07 86.00
164 5.6600 7351.00 7509.82 86.00
165 5.6700 7353.00 7511.57 86.00
166 5.6800 7355.00 7513.31 86.00
167 5.6900 7330.00 7515.04 86.00
168 5.7000 7302.00 7516.77 85.00
169 5.7100 7331.00 7518.49 86.00
170 5.7200 7288.00 7520.20 85.00
171 5.7300 7308.00 7521.90 85.00
172 5.7400 7385.00 7523.59 86.00
173 5.7500 7345.00 7525.28 86.00
174 5.7600 7309.00 7526.96 85.00
175 5.7700 7352.00 7528.63 86.00
176 5.7800 7335.00 7530.30 86.00
177 5.7900 7370.00 7531.96 86.00
178 5.8000 7383.00 7533.61 86.00
179 5.8100 7388.00 7535.25 86.00
180 5.8200 7325.00 7536.89 86.00
181 5.8300 7361.00 7538.51 86.00
182 5.8400 7341.00 7540.14 86.00
183 5.8500 7382.00 7541.75 86.00
184 5.8600 7412.00 7543.36 86.00
185 5.8700 7452.00 7544.96 86.00
186 5.8800 7330.00 7546.55 86.00
187 5.8900 7438.00 7548.14 86.00
188 5.9000 7390.00 7549.72 86.00
189 5.9100 7397.00 7551.29 86.00
190 5.9200 7353.00 7552.85 86.00
191 5.9300 7361.00 7554.41 86.00
192 5.9400 7352.00 7555.97 86.00
193 5.9500 7392.00 7557.51 86.00
194 5.9600 7378.00 7559.05 86.00
195 5.9700 7363.00 7559.83 86.00
196 5.9800 7432.00 7560.61 86.00
197 5.9900 7426.00 7561.38 86.00
198 6.0000 7366.00 7562.14 86.00
199 6.0100 7359.00 7562.90 86.00
200 6.0200 7393.00 7563.65 86.00
201 6.0300 7372.00 7564.39 86.00
202 6.0400 7420.00 7565.13 86.00
203 6.0500 7442.00 7565.87 86.00
204 6.0600 7404.00 7566.60 86.00
205 6.0700 7384.00 7567.33 86.00
206 6.0800 7372.00 7568.05 86.00
207 6.0900 7342.00 7568.76 86.00
208 6.1000 7429.00 7569.48 86.00
209 6.1100 7478.00 7570.19 86.00
210 6.1200 7437.00 7570.89 86.00
211 6.1300 7403.00 7571.59 86.00
212 6.1400 7424.00 7572.29 86.00
213 6.1500 7406.00 7572.99 86.00
214 6.1600 7456.00 7573.68 86.00
215 6.1700 7454.00 7574.37 86.00
216 6.1800 7385.00 7575.06 86.00
217 6.1900 7360.00 7575.75 86.00
218 6.2000 7395.00 7576.43 86.00
219 6.2100 7394.00 7577.12 86.00
220 6.2200 7445.00 7585.27 86.00
221 6.2300 7418.00 7586.03 86.00
222 6.2400 7462.00 7586.80 86.00
223 6.2500 7458.00 7587.56 86.00
224 6.2600 7451.00 7587.97 86.00
225 6.2700 7447.00 7588.75 86.00
226 6.2800 7446.00 7589.53 86.00
227 6.2900 7475.00 7590.32 86.00
228 6.3000 7409.00 7591.11 86.00
229 6.3100 7396.00 7591.91 86.00
230 6.3200 7403.00 7592.72 86.00
231 6.3300 7433.00 7593.54 86.00
232 6.3400 7454.00 7594.36 86.00
233 6.3500 7519.00 7595.19 87.00
234 6.3600 7422.00 7596.04 86.00
235 6.3700 7493.00 7596.90 87.00
236 6.3800 7451.00 7597.78 86.00
237 6.3900 7468.00 7598.67 86.00
238 6.4000 7510.00 7599.58 87.00
239 6.4100 7491.00 7600.50 87.00
240 6.4200 7461.00 7601.45 86.00
241 6.4300 7477.00 7602.43 86.00
242 6.4400 7501.00 7603.43 87.00
243 6.4500 7481.00 7604.46 86.00
244 6.4600 7554.00 7605.52 87.00
245 6.4700 7523.00 7606.62 87.00
246 6.4800 7448.00 7607.76 86.00
247 6.4900 7473.00 7608.94 86.00
248 6.5000 7438.00 7610.17 86.00
249 6.5100 7466.00 7611.46 86.00
250 6.5200 7528.00 7612.80 87.00
251 6.5300 7495.00 7614.21 87.00
252 6.5400 7502.00 7615.70 87.00
253 6.5500 7464.00 7617.27 86.00
254 6.5600 7519.00 7618.93 87.00
255 6.5700 7482.00 7620.69 86.00
256 6.5800 7512.00 7622.56 87.00
257 6.5900 7514.00 7624.57 87.00
258 6.6000 7506.00 7626.72 87.00
259 6.6100 7536.00 7629.04 87.00
260 6.6200 7524.00 7631.54 87.00
261 6.6300 7496.00 7634.26 87.00
262 6.6400 7575.00 7637.22 87.00
263 6.6500 7567.00 7640.45 87.00
264 6.6600 7530.00 7644.01 87.00
265 6.6700 7537.00 7647.94 87.00
266 6.6800 7550.00 7652.30 87.00
267 6.6900 7593.00 7657.17 87.00
268 6.7000 7610.00 7662.63 87.00
269 6.7100 7645.00 7668.79 87.00
270 6.7200 7570.00 7675.78 87.00
271 6.7300 7630.00 7686.22 87.00
272 6.7400 7620.00 7695.47 87.00
273 6.7500 7658.00 7706.19 88.00
274 6.7600 7656.00 7718.74 87.00
275 6.7700 7684.00 7733.57 88.00
276 6.7800 7647.00 7751.29 87.00
277 6.7900 7663.00 7772.70 88.00
278 6.8000 7741.00 7799.05 88.00
279 6.8100 7813.00 7832.37 88.00
280 6.8200 7865.00 7876.59 89.00
281 6.8300 7979.00 7939.94 89.00
282 6.8400 8011.00 8039.70 90.00
283 6.8500 8271.00 8209.02 91.00
284 6.8600 8553.00 8502.97 92.00
285 6.8700 9048.00 8996.16 95.00
286 6.8800 9770.00 9762.00 99.00
287 6.8900 10852.00 10831.00 104.00
288 6.9000 12098.00 12135.90 110.00
289 6.9100 13467.00 13456.00 116.00
290 6.9200 14480.00 14383.20 120.00
291 6.9300 14673.00 14475.40 121.00
292 6.9400 13967.00 13680.20 118.00
293 6.9500 12697.00 12399.20 113.00
294 6.9600 11231.00 11069.30 106.00
295 6.9700 10199.00 9946.73 101.00
296 6.9800 9490.00 9123.71 97.00
297 6.9900 8941.00 8584.08 95.00
298 7.0000 8578.00 8258.85 93.00
299 7.0100 8294.00 8071.37 91.00
300 7.0200 8123.00 7962.21 90.00
301 7.0300 8052.00 7894.34 90.00
302 7.0400 7992.00 7848.03 89.00
303 7.0500 7956.00 7813.77 89.00
304 7.0600 7952.00 7787.03 89.00
305 7.0700 7857.00 7765.55 89.00
306 7.0800 7830.00 7747.97 88.00
307 7.0900 7810.00 7733.42 88.00
308 7.1000 7770.00 7721.26 88.00
309 7.1100 7774.00 7711.01 88.00
310 7.1200 7789.00 7702.32 88.00
311 7.1300 7797.00 7694.91 88.00
312 7.1400 7774.00 7688.54 88.00
313 7.1500 7751.00 7683.06 88.00
314 7.1600 7728.00 7678.31 88.00
315 7.1700 7686.00 7674.19 88.00
316 7.1800 7718.00 7670.61 88.00
317 7.1900 7769.00 7667.49 88.00
318 7.2000 7719.00 7664.77 88.00
319 7.2100 7720.00 7662.40 88.00
320 7.2200 7707.00 7660.34 88.00
321 7.2300 7722.00 7658.54 88.00
322 7.2400 7762.00 7656.99 88.00
323 7.2500 7751.00 7655.65 88.00
324 7.2600 7705.00 7654.50 88.00
325 7.2700 7749.00 7653.53 88.00
326 7.2800 7727.00 7652.72 88.00
327 7.2900 7723.00 7652.06 88.00
328 7.3000 7778.00 7651.53 88.00
329 7.3100 7750.00 7651.12 88.00
330 7.3200 7694.00 7650.84 88.00
331 7.3300 7744.00 7650.66 88.00
332 7.3400 7691.00 7650.59 88.00
333 7.3500 7753.00 7650.61 88.00
334 7.3600 7763.00 7650.73 88.00
335 7.3700 7787.00 7650.95 88.00
336 7.3800 7745.00 7651.25 88.00
337 7.3900 7783.00 7651.64 88.00
338 7.4000 7718.00 7652.12 88.00
339 7.4100 7722.00 7652.68 88.00
340 7.4200 7730.00 7653.33 88.00
341 7.4300 7769.00 7654.07 88.00
342 7.4400 7709.00 7654.89 88.00
343 7.4500 7724.00 7655.79 88.00
344 7.4600 7746.00 7656.79 88.00
345 7.4700 7779.00 7657.87 88.00
346 7.4800 7799.00 7659.05 88.00
347 7.4900 7823.00 7660.33 88.00
348 7.5000 7755.00 7661.70 88.00
349 7.5100 7779.00 7663.18 88.00
350 7.5200 7797.00 7664.76 88.00
351 7.5300 7774.00 7666.46 88.00
352 7.5400 7809.00 7668.27 88.00
353 7.5500 7827.00 7670.21 88.00
354 7.5600 7805.00 7672.27 88.00
355 7.5700 7878.00 7674.48 89.00
356 7.5800 7964.00 7676.83 89.00
357 7.5900 8018.00 7679.33 90.00
358 7.6000 8092.00 7682.00 90.00
359 7.6100 8035.00 7684.84 90.00
360 7.6200 7955.00 7687.86 89.00
361 7.6300 7934.00 7691.09 89.00
362 7.6400 7875.00 7694.53 89.00
363 7.6500 7846.00 7698.20 89.00
364 7.6600 7905.00 7702.11 89.00
365 7.6700 7928.00 7706.29 89.00
366 7.6800 7890.00 7710.75 89.00
367 7.6900 7845.00 7715.52 89.00
368 7.7000 7858.00 7720.63 89.00
369 7.7100 7842.00 7726.10 89.00
370 7.7200 7910.00 7731.96 89.00
371 7.7300 7931.00 7738.26 89.00
372 7.7400 7918.00 7745.02 89.00
373 7.7500 7921.00 7752.30 89.00
374 7.7600 7906.00 7770.63 89.00
375 7.7700 7920.00 7779.22 89.00
376 7.7800 7976.00 7788.49 89.00
377 7.7900 8008.00 7798.52 89.00
378 7.8000 7929.00 7809.39 89.00
379 7.8100 7966.00 7821.19 89.00
380 7.8200 7993.00 7834.04 89.00
381 7.8300 8029.00 7848.04 90.00
382 7.8400 7966.00 7863.34 89.00
383 7.8500 8040.00 7880.10 90.00
384 7.8600 7999.00 7898.52 89.00
385 7.8700 8067.00 7918.80 90.00
386 7.8800 8072.00 7941.22 90.00
387 7.8900 8088.00 7966.07 90.00
388 7.9000 8120.00 7993.70 90.00
389 7.9100 8212.00 8024.56 91.00
390 7.9200 8140.00 8059.16 90.00
391 7.9300 8238.00 8098.11 91.00
392 7.9400 8289.00 8142.18 91.00
393 7.9500 8347.00 8192.29 91.00
394 7.9600 8431.00 8249.57 92.00
395 7.9700 8524.00 8315.46 92.00
396 7.9800 8502.00 8391.76 92.00
397 7.9900 8607.00 8480.74 93.00
398 8.0000 8757.00 8585.34 94.00
399 8.0100 8897.00 8709.40 94.00
400 8.0200 9184.00 8857.99 96.00
401 8.0300 9378.00 9037.98 97.00
402 8.0400 9604.00 9259.08 98.00
403 8.0500 10028.00 9587.10 100.00
404 8.0600 10556.00 9947.75 103.00
405 8.0700 11314.00 10445.30 106.00
406 8.0800 12435.00 11196.10 112.00
407 8.0900 14068.00 12440.30 119.00
408 8.1000 16455.00 14614.50 128.00
409 8.1100 20160.00 18378.40 142.00
410 8.1200 25657.00 24486.00 160.00
411 8.1300 33860.00 33434.70 184.00
412 8.1400 44832.00 44916.00 212.00
413 8.1500 56426.00 57193.60 238.00
414 8.1600 64775.00 66553.60 255.00
415 8.1700 66355.00 68365.90 258.00
416 8.1800 58989.00 61507.80 243.00
417 8.1900 46878.00 49831.40 217.00
418 8.2000 35204.00 37736.50 188.00
419 8.2100 26196.00 27696.60 162.00
420 8.2200 20018.00 20505.40 141.00
421 8.2300 16164.00 15912.80 127.00
422 8.2400 13676.00 13210.80 117.00
423 8.2500 12112.00 11674.70 110.00
424 8.2600 11089.00 10777.50 105.00
425 8.2700 10349.00 10210.00 102.00
426 8.2800 9757.00 9815.84 99.00
427 8.2900 9469.00 9522.20 97.00
428 8.3000 9211.00 9294.44 96.00
429 8.3100 9086.00 9114.38 95.00
430 8.3200 8996.00 8970.93 95.00
431 8.3300 8887.00 8856.63 94.00
432 8.3400 8732.00 8766.23 93.00
433 8.3500 8734.00 8696.04 93.00
434 8.3600 8654.00 8643.56 93.00
435 8.3700 8681.00 8607.23 93.00
436 8.3800 8709.00 8586.33 93.00
437 8.3900 8678.00 8581.00 93.00
438 8.4000 8655.00 8592.28 93.00
439 8.4100 8771.00 8622.39 94.00
440 8.4200 8867.00 8675.39 94.00
441 8.4300 9043.00 8758.95 95.00
442 8.4400 9335.00 8889.50 97.00
443 8.4500 9656.00 9104.85 98.00
444 8.4600 10165.00 9489.52 101.00
445 8.4700 10998.00 10208.80 105.00
446 8.4800 12309.00 11524.80 111.00
447 8.4900 14337.00 13740.20 120.00
448 8.5000 17457.00 17029.70 132.00
449 8.5100 21329.00 21176.20 146.00
450 8.5200 25183.00 25269.50 159.00
451 8.5300 27404.00 27557.40 166.00
452 8.5400 26537.00 26555.70 163.00
453 8.5500 22911.00 22983.00 151.00
454 8.5600 18527.00 18677.20 136.00
455 8.5700 14966.00 14947.20 122.00
456 8.5800 12419.00 12263.60 111.00
457 8.5900 10926.00 10581.20 105.00
458 8.6000 9978.00 9624.07 100.00
459 8.6100 9348.00 9099.43 97.00
460 8.6200 8964.00 8800.09 95.00
461 8.6300 8743.00 8611.22 94.00
462 8.6400 8567.00 8478.76 93.00
463 8.6500 8481.00 8378.92 92.00
464 8.6600 8345.00 8300.66 91.00
465 8.6700 8256.00 8237.93 91.00
466 8.6800 8284.00 8186.97 91.00
467 8.6900 8267.00 8145.10 91.00
468 8.7000 8162.00 8110.42 90.00
469 8.7100 8180.00 8081.49 90.00
470 8.7200 8156.00 8057.23 90.00
471 8.7300 8139.00 8036.82 90.00
472 8.7400 8163.00 8019.60 90.00
473 8.7500 8164.00 8005.08 90.00
474 8.7600 8064.00 7992.85 90.00
475 8.7700 8106.00 7982.59 90.00
476 8.7800 8107.00 7974.05 90.00
477 8.7900 8127.00 7967.02 90.00
478 8.8000 8157.00 7961.32 90.00
479 8.8100 8119.00 7956.81 90.00
480 8.8200 8005.00 7953.39 89.00
481 8.8300 8089.00 7950.95 90.00
482 8.8400 8101.00 7949.42 90.00
483 8.8500 8050.00 7948.73 90.00
484 8.8600 8136.00 7948.83 90.00
485 8.8700 8155.00 7949.68 90.00
486 8.8800 8086.00 7951.25 90.00
487 8.8900 8100.00 7953.51 90.00
488 8.9000 8133.00 7956.48 90.00
489 8.9100 8116.00 7960.06 90.00
490 8.9200 8113.00 7964.29 90.00
491 8.9300 8149.00 7969.16 90.00
492 8.9400 8138.00 7974.68 90.00
493 8.9500 8150.00 7980.86 90.00
494 8.9600 8166.00 7987.69 90.00
495 8.9700 8108.00 7994.42 90.00
496 8.9800 8199.00 8002.63 91.00
497 8.9900 8221.00 8011.57 91.00
498 9.0000 8191.00 8021.25 91.00
499 9.0100 8215.00 8031.71 91.00
500 9.0200 8256.00 8042.99 91.00
501 9.0300 8213.00 8055.14 91.00
502 9.0400 8261.00 8068.19 91.00
503 9.0500 8277.00 8082.22 91.00
504 9.0600 8193.00 8097.27 91.00
505 9.0700 8271.00 8113.44 91.00
506 9.0800 8269.00 8130.80 91.00
507 9.0900 8292.00 8149.43 91.00
508 9.1000 8363.00 8169.46 91.00
509 9.1100 8456.00 8191.00 92.00
510 9.1200 8346.00 8214.18 91.00
511 9.1300 8417.00 8239.16 92.00
512 9.1400 8395.00 8266.12 92.00
513 9.1500 8413.00 8295.28 92.00
514 9.1600 8439.00 8326.84 92.00
515 9.1700 8431.00 8361.11 92.00
516 9.1800 8429.00 8398.39 92.00
517 9.1900 8515.00 8439.05 92.00
518 9.2000 8542.00 8483.54 92.00
519 9.2100 8609.00 8532.36 93.00
520 9.2200 8621.00 8586.14 93.00
521 9.2300 8715.00 8645.61 93.00
522 9.2400 8704.00 8711.67 93.00
523 9.2500 8768.00 8785.40 94.00
524 9.2600 8851.00 8868.14 94.00
525 9.2700 8901.00 8961.54 94.00
526 9.2800 9026.00 9067.69 95.00
527 9.2900 9116.00 9189.20 95.00
528 9.3000 9181.00 9329.48 96.00
529 9.3100 9361.00 9492.93 97.00
530 9.3200 9557.00 9685.35 98.00
531 9.3300 9741.00 9914.56 99.00
532 9.3400 10043.00 10191.30 100.00
533 9.3500 10324.00 10530.70 102.00
534 9.3600 10766.00 10955.50 104.00
535 9.3700 11412.00 11504.60 107.00
536 9.3800 12315.00 12257.80 111.00
537 9.3900 13849.00 13400.30 118.00
538 9.4000 16177.00 15355.00 127.00
539 9.4100 20166.00 18960.80 142.00
540 9.4200 26340.00 25533.50 162.00
541 9.4300 36383.00 36483.80 191.00
542 9.4400 51354.00 52305.00 227.00
543 9.4500 69696.00 71085.80 264.00
544 9.4600 85852.00 86834.00 293.00
545 9.4700 89984.00 90374.10 300.00
546 9.4800 78618.00 79049.50 280.00
547 9.4900 59976.00 60753.60 245.00
548 9.5000 42428.00 43410.90 206.00
549 9.5100 29957.00 30512.10 173.00
550 9.5200 22630.00 22406.30 150.00
551 9.5300 18353.00 17923.50 135.00
552 9.5400 15856.00 15627.50 126.00
553 9.5500 14606.00 14465.30 121.00
554 9.5600 13789.00 13859.00 117.00
555 9.5700 13186.00 13545.90 115.00
556 9.5800 12873.00 13418.20 113.00
557 9.5900 12683.00 13431.20 113.00
558 9.6000 12610.00 13566.00 112.00
559 9.6100 12793.00 13816.20 113.00
560 9.6200 13029.00 14184.20 114.00
561 9.6300 13449.00 14680.10 116.00
562 9.6400 14091.00 15322.20 119.00
563 9.6500 14888.00 16138.90 122.00
564 9.6600 15793.00 17171.60 126.00
565 9.6700 17273.00 18480.50 131.00
566 9.6800 19233.00 20155.50 139.00
567 9.6900 22122.00 22344.20 149.00
568 9.7000 26212.00 25330.40 162.00
569 9.7100 32120.00 29746.90 179.00
570 9.7200 40929.00 37045.10 202.00
571 9.7300 55645.00 50244.50 236.00
572 9.7400 79787.00 74506.50 282.00
573 9.7500 118857.00 116383.00 345.00
574 9.7600 179704.00 180493.00 424.00
575 9.7700 262611.00 263773.00 512.00
576 9.7800 347657.00 348144.00 590.00
577 9.7900 401390.00 395677.00 634.00
578 9.8000 381642.00 373364.00 618.00
579 9.8100 302257.00 298045.00 550.00
580 9.8200 209933.00 211470.00 458.00
581 9.8300 138291.00 139451.00 372.00
582 9.8400 91301.00 89883.20 302.00
583 9.8500 63717.00 60373.20 252.00
584 9.8600 47227.00 44618.40 217.00
585 9.8700 37906.00 36732.30 195.00
586 9.8800 32925.00 32840.00 181.00
587 9.8900 30309.00 30806.60 174.00
588 9.9000 28827.00 29525.00 170.00
589 9.9100 28501.00 28661.70 169.00
590 9.9200 29514.00 28593.10 172.00
591 9.9300 32955.00 30357.70 182.00
592 9.9400 40974.00 36353.40 202.00
593 9.9500 56294.00 51526.60 237.00
594 9.9600 84262.00 82976.50 290.00
595 9.9700 133100.00 135040.00 365.00
596 9.9800 200298.00 199932.00 448.00
597 9.9900 250693.00 248250.00 501.00
598 10.0000 247963.00 240833.00 498.00
599 10.0100 189305.00 184349.00 435.00
600 10.0200 117814.00 119737.00 343.00
601 10.0300 67442.00 71118.00 260.00
602 10.0400 40659.00 42630.90 202.00
603 10.0500 27225.00 28557.40 165.00
604 10.0600 20554.00 21988.60 143.00
605 10.0700 16717.00 18610.70 129.00
606 10.0800 14442.00 16530.00 120.00
607 10.0900 13068.00 15061.40 114.00
608 10.1000 12130.00 13952.90 110.00
609 10.1100 11387.00 13087.60 107.00
610 10.1200 10923.00 12396.90 105.00
611 10.1300 10545.00 11828.00 103.00
612 10.1400 10158.00 11364.40 101.00
613 10.1500 9936.00 10976.30 100.00
614 10.1600 9783.00 10647.60 99.00
615 10.1700 9638.00 10366.10 98.00
616 10.1800 9502.00 10142.10 97.00
617 10.1900 9368.00 9930.37 97.00
618 10.2000 9175.00 9755.01 96.00
619 10.2100 9141.00 9590.81 96.00
620 10.2200 8998.00 9444.82 95.00
621 10.2300 8913.00 9314.31 94.00
622 10.2400 8909.00 9197.06 94.00
623 10.2500 8860.00 9091.23 94.00
624 10.2600 8720.00 8995.30 93.00
625 10.2700 8713.00 8908.03 93.00
626 10.2800 8597.00 8828.33 93.00
627 10.2900 8566.00 8755.32 93.00
628 10.3000 8559.00 8688.23 93.00
629 10.3100 8581.00 8626.41 93.00
630 10.3200 8432.00 8569.29 92.00
631 10.3300 8445.00 8516.39 92.00
632 10.3400 8369.00 8467.28 91.00
633 10.3500 8367.00 8419.18 91.00
634 10.3600 8375.00 8376.61 92.00
635 10.3700 8328.00 8336.86 91.00
636 10.3800 8245.00 8299.67 91.00
637 10.3900 8257.00 8264.81 91.00
638 10.4000 8299.00 8232.09 91.00
639 10.4100 8239.00 8201.34 91.00
640 10.4200 8254.00 8172.39 91.00
641 10.4300 8259.00 8145.11 91.00
642 10.4400 8193.00 8119.37 91.00
643 10.4500 8175.00 8095.06 90.00
644 10.4600 8148.00 8072.07 90.00
645 10.4700 8102.00 8050.31 90.00
646 10.4800 8119.00 8029.70 90.00
647 10.4900 8106.00 8010.17 90.00
648 10.5000 8092.00 7991.66 90.00
649 10.5100 8098.00 7974.09 90.00
650 10.5200 8062.00 7957.43 90.00
651 10.5300 8098.00 7941.62 90.00
652 10.5400 8126.00 7926.64 90.00
653 10.5500 8076.00 7912.46 90.00
654 10.5600 8015.00 7899.05 90.00
655 10.5700 8021.00 7886.41 90.00
656 10.5800 7996.00 7874.56 89.00
657 10.5900 7980.00 7863.51 89.00
658 10.6000 8022.00 7853.35 90.00
659 10.6100 8020.00 7844.23 90.00
660 10.6200 7924.00 7836.49 89.00
661 10.6300 7977.00 7830.95 89.00
662 10.6400 7974.00 7829.31 89.00
663 10.6500 8018.00 7834.62 90.00
664 10.6600 8029.00 7851.16 90.00
665 10.6700 8088.00 7883.01 90.00
666 10.6800 8105.00 7930.98 90.00
667 10.6900 8160.00 7988.28 90.00
668 10.7000 8192.00 8035.31 91.00
669 10.7100 8200.00 8042.33 91.00
670 10.7200 8176.00 7998.80 90.00
671 10.7300 8159.00 7928.65 90.00
672 10.7400 8029.00 7858.86 90.00
673 10.7500 7992.00 7802.64 89.00
674 10.7600 7986.00 7762.71 89.00
675 10.7700 7921.00 7736.31 89.00
676 10.7800 7952.00 7718.94 89.00
677 10.7900 7918.00 7706.78 89.00
678 10.8000 7808.00 7697.38 88.00
679 10.8100 7891.00 7689.47 89.00
680 10.8200 7857.00 7682.47 89.00
681 10.8300 7909.00 7676.09 89.00
682 10.8400 7889.00 7670.20 89.00
683 10.8500 7944.00 7664.71 89.00
684 10.8600 7943.00 7659.56 89.00
685 10.8700 7985.00 7654.71 89.00
686 10.8800 7980.00 7650.11 89.00
687 10.8900 7933.00 7645.76 89.00
688 10.9000 7955.00 7641.61 89.00
689 10.9100 7907.00 7637.67 89.00
690 10.9200 7835.00 7633.91 89.00
691 10.9300 7868.00 7630.32 89.00
692 10.9400 7865.00 7626.90 89.00
693 10.9500 7848.00 7623.64 89.00
694 10.9600 7874.00 7620.52 89.00
695 10.9700 7853.00 7617.56 89.00
696 10.9800 7748.00 7614.73 88.00
697 10.9900 7773.00 7612.03 88.00
698 11.0000 7794.00 7609.47 88.00
699 11.0100 7738.00 7607.04 88.00
700 11.0200 7767.00 7604.73 88.00
701 11.0300 7812.00 7602.55 88.00
702 11.0400 7755.00 7600.48 88.00
703 11.0500 7761.00 7598.54 88.00
704 11.0600 7761.00 7596.72 88.00
705 11.0700 7781.00 7595.01 88.00
706 11.0800 7750.00 7593.42 88.00
707 11.0900 7781.00 7591.94 88.00
708 11.1000 7700.00 7590.58 88.00
709 11.1100 7723.00 7589.34 88.00
710 11.1200 7738.00 7588.21 88.00
711 11.1300 7735.00 7587.19 88.00
712 11.1400 7773.00 7586.29 88.00
713 11.1500 7747.00 7585.51 88.00
714 11.1600 7636.00 7584.85 87.00
715 11.1700 7653.00 7584.30 87.00
716 11.1800 7717.00 7583.87 88.00
717 11.1900 7714.00 7573.28 88.00
718 11.2000 7728.00 7573.22 88.00
719 11.2100 7728.00 7573.28 88.00
720 11.2200 7664.00 7573.46 88.00
721 11.2300 7696.00 7573.78 88.00
722 11.2400 7694.00 7574.23 88.00
723 11.2500 7659.00 7574.81 88.00
724 11.2600 7646.00 7575.53 87.00
725 11.2700 7664.00 7576.39 88.00
726 11.2800 7624.00 7577.41 87.00
727 11.2900 7645.00 7578.57 87.00
728 11.3000 7662.00 7579.89 88.00
729 11.3100 7640.00 7581.37 87.00
730 11.3200 7677.00 7583.02 88.00
731 11.3300 7662.00 7584.84 88.00
732 11.3400 7598.00 7586.84 87.00
733 11.3500 7626.00 7589.04 87.00
734 11.3600 7636.00 7591.43 87.00
735 11.3700 7657.00 7594.02 88.00
736 11.3800 7667.00 7596.83 88.00
737 11.3900 7697.00 7599.87 88.00
738 11.4000 7691.00 7603.14 88.00
739 11.4100 7794.00 7606.66 88.00
740 11.4200 7793.00 7610.44 88.00
741 11.4300 7740.00 7614.50 88.00
742 11.4400 7761.00 7618.84 88.00
743 11.4500 7680.00 7596.62 88.00
744 11.4600 7626.00 7601.96 87.00
745 11.4700 7629.00 7607.64 87.00
746 11.4800 7654.00 7613.67 87.00
747 11.4900 7614.00 7620.08 87.00
748 11.5000 7707.00 7626.90 88.00
749 11.5100 7660.00 7634.15 88.00
750 11.5200 7665.00 7641.86 88.00
751 11.5300 7648.00 7650.06 87.00
752 11.5400 7631.00 7608.93 87.00
753 11.5500 7693.00 7618.79 88.00
754 11.5600 7674.00 7629.27 88.00
755 11.5700 7715.00 7640.39 88.00
756 11.5800 7684.00 7652.21 88.00
757 11.5900 7671.00 7664.79 88.00
758 11.6000 7668.00 7678.19 88.00
759 11.6100 7674.00 7692.49 88.00
760 11.6200 7770.00 7707.77 88.00
761 11.6300 7776.00 7724.10 88.00
762 11.6400 7673.00 7741.60 88.00
763 11.6500 7745.00 7760.37 88.00
764 11.6600 7757.00 7780.54 88.00
765 11.6700 7758.00 7802.25 88.00
766 11.6800 7804.00 7825.66 88.00
767 11.6900 7809.00 7850.96 88.00
768 11.7000 7768.00 7878.34 88.00
769 11.7100 7831.00 7908.07 88.00
770 11.7200 7862.00 7940.42 89.00
771 11.7300 7868.00 7975.71 89.00
772 11.7400 7931.00 8014.33 89.00
773 11.7500 7947.00 8056.74 89.00
774 11.7600 7955.00 8103.49 89.00
775 11.7700 7988.00 8176.38 89.00
776 11.7800 8054.00 8234.15 90.00
777 11.7900 8059.00 8298.78 90.00
778 11.8000 8166.00 8371.71 90.00
779 11.8100 8263.00 8454.63 91.00
780 11.8200 8282.00 8552.25 91.00
781 11.8300 8405.00 8670.89 92.00
782 11.8400 8574.00 8822.74 93.00
783 11.8500 8646.00 9026.66 93.00
784 11.8600 9003.00 9306.38 95.00
785 11.8700 9248.00 9682.31 96.00
786 11.8800 9646.00 10157.10 98.00
787 11.8900 10138.00 10695.10 101.00
788 11.9000 10703.00 11197.40 103.00
789 11.9100 11030.00 11520.00 105.00
790 11.9200 11149.00 11620.20 106.00
791 11.9300 11143.00 11628.60 106.00
792 11.9400 11189.00 11698.90 106.00
793 11.9500 11422.00 11922.70 107.00
794 11.9600 11971.00 12347.00 109.00
795 11.9700 12648.00 13005.40 112.00
796 11.9800 13867.00 13952.40 118.00
797 11.9900 15559.00 15316.80 125.00
798 12.0000 17796.00 17394.70 133.00
799 12.0100 21299.00 20792.80 146.00
800 12.0200 26675.00 26578.90 163.00
801 12.0300 34817.00 36283.20 187.00
802 12.0400 47692.00 51511.00 218.00
803 12.0500 66165.00 73057.30 257.00
804 12.0600 90778.00 99558.60 301.00
805 12.0700 118690.00 125656.00 345.00
806 12.0800 139050.00 140839.00 373.00
807 12.0900 139865.00 135964.00 374.00
808 12.1000 120744.00 114885.00 347.00
809 12.1100 93551.00 89310.70 306.00
810 12.1200 69208.00 67464.50 263.00
811 12.1300 53812.00 52483.00 232.00
812 12.1400 45051.00 44202.30 212.00
813 12.1500 40882.00 40437.80 202.00
814 12.1600 38738.00 38059.40 197.00
815 12.1700 35790.00 34560.20 189.00
816 12.1800 30700.00 29702.80 175.00
817 12.1900 25328.00 24629.80 159.00
818 12.2000 20411.00 20236.50 143.00
819 12.2100 16850.00 16860.90 130.00
820 12.2200 14409.00 14480.70 120.00
821 12.2300 12764.00 12890.30 113.00
822 12.2400 11531.00 11841.20 107.00
823 12.2500 10792.00 11127.30 104.00
824 12.2600 10212.00 10612.10 101.00
825 12.2700 9761.00 10216.80 99.00
826 12.2800 9508.00 9899.56 98.00
827 12.2900 9219.00 9637.68 96.00
828 12.3000 8959.00 9417.71 95.00
829 12.3100 8789.00 9230.83 94.00
830 12.3200 8659.00 9070.65 93.00
831 12.3300 8564.00 8932.36 93.00
832 12.3400 8514.00 8812.18 92.00
833 12.3500 8451.00 8707.18 92.00
834 12.3600 8330.00 8615.02 91.00
835 12.3700 8288.00 8533.79 91.00
836 12.3800 8242.00 8461.95 91.00
837 12.3900 8182.00 8398.22 90.00
838 12.4000 8173.00 8341.56 90.00
839 12.4100 8136.00 8291.11 90.00
840 12.4200 8041.00 8246.14 90.00
841 12.4300 8028.00 8206.03 90.00
842 12.4400 7977.00 8170.27 89.00
843 12.4500 7931.00 8138.43 89.00
844 12.4600 7962.00 8110.14 89.00
845 12.4700 7994.00 8085.08 89.00
846 12.4800 7875.00 8062.99 89.00
847 12.4900 7891.00 8043.64 89.00
848 12.5000 7869.00 8026.86 89.00
849 12.5100 7912.00 8012.48 89.00
850 12.5200 7925.00 8000.37 89.00
851 12.5300 7912.00 7990.41 89.00
852 12.5400 7851.00 7982.58 89.00
853 12.5500 7831.00 7976.80 88.00
854 12.5600 7816.00 7973.03 88.00
855 12.5700 7838.00 7971.25 89.00
856 12.5800 7946.00 7971.48 89.00
857 12.5900 7981.00 7973.75 89.00
858 12.6000 7894.00 7978.10 89.00
859 12.6100 7908.00 7984.61 89.00
860 12.6200 7909.00 7993.38 89.00
861 12.6300 7882.00 8004.55 89.00
862 12.6400 7952.00 8018.27 89.00
863 12.6500 7979.00 8034.74 89.00
864 12.6600 7923.00 8054.22 89.00
865 12.6700 8006.00 8076.99 89.00
866 12.6800 7988.00 8103.42 89.00
867 12.6900 8009.00 8133.94 89.00
868 12.7000 8079.00 8169.11 90.00
869 12.7100 8125.00 8209.63 90.00
870 12.7200 8113.00 8256.40 90.00
871 12.7300 8254.00 8310.69 91.00
872 12.7400 8302.00 8374.28 91.00
873 12.7500 8421.00 8449.83 92.00
874 12.7600 8537.00 8541.32 92.00
875 12.7700 8741.00 8654.77 93.00
876 12.7800 8834.00 8799.09 94.00
877 12.7900 9091.00 8987.17 95.00
878 12.8000 9328.00 9236.94 97.00
879 12.8100 9621.00 9571.99 98.00
880 12.8200 10042.00 10021.60 100.00
881 12.8300 10479.00 10619.20 102.00
882 12.8400 11099.00 11400.10 105.00
883 12.8500 11801.00 12395.90 109.00
884 12.8600 12819.00 13628.30 113.00
885 12.8700 13964.00 15101.60 118.00
886 12.8800 15593.00 16794.90 125.00
887 12.8900 17325.00 18652.10 132.00
888 12.9000 19359.00 20572.00 139.00
889 12.9100 21560.00 22397.10 147.00
890 12.9200 23484.00 23913.10 153.00
891 12.9300 24933.00 24878.80 158.00
892 12.9400 25471.00 25107.10 160.00
893 12.9500 24838.00 24557.40 158.00
894 12.9600 23230.00 23358.90 152.00
895 12.9700 21553.00 21741.70 147.00
896 12.9800 19592.00 19942.20 140.00
897 12.9900 17793.00 18149.10 133.00
898 13.0000 16469.00 16493.20 128.00
899 13.0100 15179.00 15057.60 123.00
900 13.0200 14185.00 13888.70 119.00
901 13.0300 13637.00 13007.70 117.00
902 13.0400 13169.00 12420.90 115.00
903 13.0500 12954.00 12127.50 114.00
904 13.0600 13031.00 12128.00 114.00
905 13.0700 13258.00 12427.70 115.00
906 13.0800 13663.00 13037.70 117.00
907 13.0900 14449.00 13971.00 120.00
908 13.1000 15383.00 15235.50 124.00
909 13.1100 16682.00 16824.60 129.00
910 13.1200 18424.00 18705.50 136.00
911 13.1300 20485.00 20808.50 143.00
912 13.1400 22568.00 23010.80 150.00
913 13.1500 25098.00 25123.30 158.00
914 13.1600 27167.00 26885.90 165.00
915 13.1700 28693.00 28002.20 169.00
916 13.1800 29100.00 28235.00 171.00
917 13.1900 28155.00 27523.10 168.00
918 13.2000 26049.00 26016.70 161.00
919 13.2100 23697.00 23992.70 154.00
920 13.2200 21019.00 21737.40 145.00
921 13.2300 18688.00 19477.70 137.00
922 13.2400 16738.00 17367.20 129.00
923 13.2500 15130.00 15496.90 123.00
924 13.2600 13681.00 13910.00 117.00
925 13.2700 12565.00 12613.40 112.00
926 13.2800 11762.00 11588.50 108.00
927 13.2900 11079.00 10800.90 105.00
928 13.3000 10622.00 10208.80 103.00
929 13.3100 10175.00 9770.32 101.00
930 13.3200 9763.00 9447.75 99.00
931 13.3300 9528.00 9209.82 98.00
932 13.3400 9324.00 9032.25 97.00
933 13.3500 9159.00 8897.45 96.00
934 13.3600 9073.00 8795.94 95.00
935 13.3700 8922.00 8713.69 94.00
936 13.3800 8756.00 8648.05 94.00
937 13.3900 8750.00 8595.45 94.00
938 13.4000 8720.00 8553.54 93.00
939 13.4100 8581.00 8520.75 93.00
940 13.4200 8597.00 8495.97 93.00
941 13.4300 8523.00 8478.48 92.00
942 13.4400 8497.00 8467.73 92.00
943 13.4500 8472.00 8463.37 92.00
944 13.4600 8453.00 8465.17 92.00
945 13.4700 8527.00 8473.03 92.00
946 13.4800 8580.00 8486.96 93.00
947 13.4900 8526.00 8507.05 92.00
948 13.5000 8535.00 8533.56 92.00
949 13.5100 8562.00 8566.80 93.00
950 13.5200 8572.00 8607.25 93.00
951 13.5300 8624.00 8655.51 93.00
952 13.5400 8702.00 8712.33 93.00
953 13.5500 8782.00 8778.71 94.00
954 13.5600 8792.00 8855.83 94.00
955 13.5700 8887.00 8945.18 94.00
956 13.5800 9017.00 9062.63 95.00
957 13.5900 9115.00 9182.55 95.00
958 13.6000 9259.00 9321.72 96.00
959 13.6100 9456.00 9483.76 97.00
960 13.6200 9565.00 9673.27 98.00
961 13.6300 9884.00 9898.45 99.00
962 13.6400 10145.00 10162.70 101.00
963 13.6500 10544.00 10478.60 103.00
964 13.6600 11004.00 10861.20 105.00
965 13.6700 11582.00 11333.50 108.00
966 13.6800 12163.00 11935.40 110.00
967 13.6900 13109.00 12742.30 114.00
968 13.7000 14458.00 13897.20 120.00
969 13.7100 16416.00 15655.20 128.00
970 13.7200 19030.00 18414.00 138.00
971 13.7300 22953.00 22686.20 152.00
972 13.7400 28250.00 28964.00 168.00
973 13.7500 35988.00 37466.10 190.00
974 13.7600 46010.00 47752.70 214.00
975 13.7700 56821.00 58160.50 238.00
976 13.7800 65648.00 65605.50 256.00
977 13.7900 68673.00 67838.70 262.00
978 13.8000 66742.00 66446.80 258.00
979 13.8100 64233.00 64838.00 253.00
980 13.8200 63563.00 65004.60 252.00
981 13.8300 65968.00 67030.00 257.00
982 13.8400 69657.00 69531.70 264.00
983 13.8500 71588.00 70328.40 268.00
984 13.8600 69084.00 67721.60 263.00
985 13.8700 62927.00 61685.80 251.00
986 13.8800 53969.00 53582.90 232.00
987 13.8900 44564.00 44977.80 211.00
988 13.9000 36278.00 36962.20 190.00
989 13.9100 29395.00 30116.40 171.00
990 13.9200 24252.00 24645.60 156.00
991 13.9300 20464.00 20508.50 143.00
992 13.9400 17717.00 17518.10 133.00
993 13.9500 15651.00 15428.80 125.00
994 13.9600 14193.00 14000.00 119.00
995 13.9700 13115.00 13034.60 115.00
996 13.9800 12304.00 12392.30 111.00
997 13.9900 11925.00 11990.30 109.00
998 14.0000 11620.00 11783.20 108.00
999 14.0100 11623.00 11841.50 108.00
1000 14.0200 11934.00 12242.10 109.00
1001 14.0300 12674.00 13133.40 113.00
1002 14.0400 13782.00 14668.90 117.00
1003 14.0500 15737.00 16911.90 125.00
1004 14.0600 18529.00 19690.30 136.00
1005 14.0700 21359.00 22380.40 146.00
1006 14.0800 23372.00 23788.40 153.00
1007 14.0900 23181.00 22944.10 152.00
1008 14.1000 20619.00 20339.30 144.00
1009 14.1100 17505.00 17245.80 132.00
1010 14.1200 14502.00 14507.50 120.00
1011 14.1300 12374.00 12429.60 111.00
1012 14.1400 11017.00 11007.10 105.00
1013 14.1500 10091.00 10102.40 100.00
1014 14.1600 9451.00 9540.37 97.00
1015 14.1700 9145.00 9181.47 96.00
1016 14.1800 8823.00 8936.10 94.00
1017 14.1900 8619.00 8754.86 93.00
1018 14.2000 8526.00 8612.73 92.00
1019 14.2100 8458.00 8496.95 92.00
1020 14.2200 8286.00 8400.47 91.00
1021 14.2300 8255.00 8318.85 91.00
1022 14.2400 8211.00 8249.03 91.00
1023 14.2500 8147.00 8188.74 90.00
1024 14.2600 8140.00 8136.29 90.00
1025 14.2700 8067.00 8090.39 90.00
1026 14.2800 8047.00 8050.00 90.00
1027 14.2900 8010.00 8014.33 89.00
1028 14.3000 8049.00 7982.73 90.00
1029 14.3100 8008.00 7954.67 89.00
1030 14.3200 8013.00 7929.74 90.00
1031 14.3300 8016.00 7907.59 90.00
1032 14.3400 7923.00 7887.92 89.00
1033 14.3500 7934.00 7879.86 89.00
1034 14.3600 7989.00 7864.59 89.00
1035 14.3700 8008.00 7851.21 89.00
1036 14.3800 8037.00 7840.46 90.00
1037 14.3900 8043.00 7830.49 90.00
1038 14.4000 8001.00 7822.07 89.00
1039 14.4100 8027.00 7815.13 90.00
1040 14.4200 8028.00 7809.60 90.00
1041 14.4300 7980.00 7805.46 89.00
1042 14.4400 7994.00 7802.66 89.00
1043 14.4500 8014.00 7801.19 90.00
1044 14.4600 7960.00 7801.05 89.00
1045 14.4700 7974.00 7802.25 89.00
1046 14.4800 7933.00 7804.79 89.00
1047 14.4900 7932.00 7818.12 89.00
1048 14.5000 7982.00 7823.55 89.00
1049 14.5100 7976.00 7830.48 89.00
1050 14.5200 7918.00 7838.96 89.00
1051 14.5300 7965.00 7849.11 89.00
1052 14.5400 8006.00 7861.02 89.00
1053 14.5500 8011.00 7874.83 90.00
1054 14.5600 8031.00 7890.71 90.00
1055 14.5700 8063.00 7908.85 90.00
1056 14.5800 8018.00 7929.49 90.00
1057 14.5900 8125.00 7952.95 90.00
1058 14.6000 8090.00 7979.63 90.00
1059 14.6100 8107.00 8010.08 90.00
1060 14.6200 8174.00 8045.05 90.00
1061 14.6300 8203.00 8085.58 91.00
1062 14.6400 8239.00 8133.03 91.00
1063 14.6500 8301.00 8189.06 91.00
1064 14.6600 8356.00 8255.58 91.00
1065 14.6700 8443.00 8334.52 92.00
1066 14.6800 8562.00 8427.44 93.00
1067 14.6900 8673.00 8535.27 93.00
1068 14.7000 8735.00 8657.60 93.00
1069 14.7100 8915.00 8792.39 94.00
1070 14.7200 9072.00 8935.28 95.00
1071 14.7300 9258.00 9081.53 96.00
1072 14.7400 9470.00 9231.54 97.00
1073 14.7500 9676.00 9397.23 98.00
1074 14.7600 9874.00 9602.23 99.00
1075 14.7700 10302.00 9878.40 101.00
1076 14.7800 10634.00 10265.30 103.00
1077 14.7900 11243.00 10811.50 106.00
1078 14.8000 12027.00 11575.30 110.00
1079 14.8100 12958.00 12622.20 114.00
1080 14.8200 14168.00 14017.00 119.00
1081 14.8300 15850.00 15813.40 126.00
1082 14.8400 17965.00 18039.20 134.00
1083 14.8500 20614.00 20676.50 144.00
1084 14.8600 23943.00 23639.40 155.00
1085 14.8700 27309.00 26738.40 165.00
1086 14.8800 30551.00 29658.90 175.00
1087 14.8900 33033.00 32002.60 182.00
1088 14.9000 34397.00 33458.40 185.00
1089 14.9100 34393.00 34005.70 185.00
1090 14.9200 33725.00 33905.90 184.00
1091 14.9300 32859.00 33481.60 181.00
1092 14.9400 32184.00 32914.90 179.00
1093 14.9500 31843.00 32190.20 178.00
1094 14.9600 31169.00 31161.00 177.00
1095 14.9700 29940.00 29696.70 173.00
1096 14.9800 27942.00 27815.70 167.00
1097 14.9900 25555.00 25686.70 160.00
1098 15.0000 22913.00 23491.00 151.00
1099 15.0100 20694.00 21277.60 144.00
1100 15.0200 18395.00 19001.40 136.00
1101 15.0300 16294.00 16773.80 128.00
1102 15.0400 14541.00 14809.50 121.00
1103 15.0500 13113.00 13215.30 115.00
1104 15.0600 12010.00 11991.90 110.00
1105 15.0700 11309.00 11085.60 106.00
1106 15.0800 10728.00 10424.30 104.00
1107 15.0900 10323.00 9941.63 102.00
1108 15.1000 9954.00 9585.49 100.00
1109 15.1100 9692.00 9318.30 98.00
1110 15.1200 9337.00 9113.53 97.00
1111 15.1300 9185.00 8952.87 96.00
1112 15.1400 9020.00 8823.99 95.00
1113 15.1500 8904.00 8718.56 94.00
1114 15.1600 8841.00 8631.11 94.00
1115 15.1700 8711.00 8557.92 93.00
1116 15.1800 8612.00 8496.48 93.00
1117 15.1900 8604.00 8445.01 93.00
1118 15.2000 8563.00 8402.21 93.00
1119 15.2100 8530.00 8367.07 92.00
1120 15.2200 8536.00 8338.88 92.00
1121 15.2300 8525.00 8317.04 92.00
1122 15.2400 8419.00 8301.14 92.00
1123 15.2500 8472.00 8290.89 92.00
1124 15.2600 8499.00 8286.09 92.00
1125 15.2700 8414.00 8286.68 92.00
1126 15.2800 8541.00 8292.66 92.00
1127 15.2900 8497.00 8304.18 92.00
1128 15.3000 8484.00 8321.49 92.00
1129 15.3100 8552.00 8344.98 92.00
1130 15.3200 8568.00 8375.21 93.00
1131 15.3300 8585.00 8412.98 93.00
1132 15.3400 8688.00 8459.44 93.00
1133 15.3500 8745.00 8516.30 94.00
1134 15.3600 8800.00 8586.12 94.00
1135 15.3700 8967.00 8673.01 95.00
1136 15.3800 9013.00 8783.32 95.00
1137 15.3900 9222.00 8926.87 96.00
1138 15.4000 9523.00 9118.31 98.00
1139 15.4100 9788.00 9378.14 99.00
1140 15.4200 10071.00 9733.21 100.00
1141 15.4300 10624.00 10215.30 103.00
1142 15.4400 11174.00 10856.80 106.00
1143 15.4500 11915.00 11684.10 109.00
1144 15.4600 12894.00 12707.40 114.00
1145 15.4700 14110.00 13908.90 119.00
1146 15.4800 15379.00 15225.60 124.00
1147 15.4900 16762.00 16529.70 129.00
1148 15.5000 17942.00 17621.30 134.00
1149 15.5100 18664.00 18280.50 137.00
1150 15.5200 18716.00 18380.80 137.00
1151 15.5300 18026.00 17963.30 134.00
1152 15.5400 16937.00 17210.50 130.00
1153 15.5500 15946.00 16336.60 126.00
1154 15.5600 15072.00 15525.30 123.00
1155 15.5700 14510.00 14897.10 120.00
1156 15.5800 14343.00 14528.40 120.00
1157 15.5900 14633.00 14476.80 121.00
1158 15.6000 15167.00 14811.80 123.00
1159 15.6100 16357.00 15658.10 128.00
1160 15.6200 18048.00 17254.80 134.00
1161 15.6300 20812.00 20017.80 144.00
1162 15.6400 25007.00 24560.80 158.00
1163 15.6500 31001.00 31618.70 176.00
1164 15.6600 39662.00 41809.40 199.00
1165 15.6700 51979.00 55233.10 228.00
1166 15.6800 67372.00 70852.70 260.00
1167 15.6900 83072.00 85580.10 288.00
1168 15.7000 93804.00 93870.80 306.00
1169 15.7100 92895.00 91124.80 305.00
1170 15.7200 80570.00 78972.50 284.00
1171 15.7300 64169.00 63206.30 253.00
1172 15.7400 48007.00 48313.60 219.00
1173 15.7500 35754.00 36280.60 189.00
1174 15.7600 27406.00 27509.60 166.00
1175 15.7700 21703.00 21582.50 147.00
1176 15.7800 17865.00 17771.80 134.00
1177 15.7900 15405.00 15357.50 124.00
1178 15.8000 13653.00 13783.90 117.00
1179 15.8100 12370.00 12712.30 111.00
1180 15.8200 11597.00 11933.10 108.00
1181 15.8300 10895.00 11338.00 104.00
1182 15.8400 10331.00 10868.20 102.00
1183 15.8500 9992.00 10490.40 100.00
1184 15.8600 9705.00 10183.10 99.00
1185 15.8700 9427.00 9931.86 97.00
1186 15.8800 9311.00 9726.09 96.00
1187 15.8900 9144.00 9558.02 96.00
1188 15.9000 8996.00 9421.95 95.00
1189 15.9100 8952.00 9313.68 95.00
1190 15.9200 8875.00 9230.26 94.00
1191 15.9300 8857.00 9169.83 94.00
1192 15.9400 8856.00 9131.50 94.00
1193 15.9500 8900.00 9115.46 94.00
1194 15.9600 8888.00 9123.30 94.00
1195 15.9700 8984.00 9158.79 95.00
1196 15.9800 9144.00 9229.42 96.00
1197 15.9900 9298.00 9349.15 96.00
1198 16.0000 9581.00 9542.42 98.00
1199 16.0100 9951.00 9848.66 100.00
1200 16.0200 10368.00 10325.50 102.00
1201 16.0300 11120.00 11044.30 105.00
1202 16.0400 12138.00 12088.10 110.00
1203 16.0500 13447.00 13515.90 116.00
1204 16.0600 15138.00 15337.30 123.00
1205 16.0700 17168.00 17468.00 131.00
1206 16.0800 19210.00 19657.70 139.00
1207 16.0900 21224.00 21426.80 146.00
1208 16.1000 21910.00 22156.80 148.00
1209 16.1100 21359.00 21522.00 146.00
1210 16.1200 19701.00 19818.10 140.00
1211 16.1300 17552.00 17660.80 132.00
1212 16.1400 15226.00 15545.20 123.00
1213 16.1500 13472.00 13731.30 116.00
1214 16.1600 12138.00 12313.70 110.00
1215 16.1700 11193.00 11286.60 106.00
1216 16.1800 10643.00 10592.80 103.00
1217 16.1900 10201.00 10155.80 101.00
1218 16.2000 9931.00 9904.54 100.00
1219 16.2100 9770.00 9784.88 99.00
1220 16.2200 9735.00 9763.43 99.00
1221 16.2300 9747.00 9825.73 99.00
1222 16.2400 9939.00 9973.47 100.00
1223 16.2500 10192.00 10222.40 101.00
1224 16.2600 10436.00 10602.30 102.00
1225 16.2700 11014.00 11158.60 105.00
1226 16.2800 11708.00 11955.70 108.00
1227 16.2900 12629.00 13077.90 112.00
1228 16.3000 14105.00 14625.90 119.00
1229 16.3100 15883.00 16694.80 126.00
1230 16.3200 18273.00 19337.20 135.00
1231 16.3300 21332.00 22492.30 146.00
1232 16.3400 24901.00 25890.20 158.00
1233 16.3500 28434.00 28908.30 169.00
1234 16.3600 30990.00 30645.50 176.00
1235 16.3700 31362.00 30588.40 177.00
1236 16.3800 29672.00 29061.30 172.00
1237 16.3900 27196.00 26725.60 165.00
1238 16.4000 24210.00 24149.80 156.00
1239 16.4100 21395.00 21733.70 146.00
1240 16.4200 19390.00 19709.60 139.00
1241 16.4300 17915.00 18177.80 134.00
1242 16.4400 16908.00 17161.20 130.00
1243 16.4500 16577.00 16639.00 129.00
1244 16.4600 16640.00 16561.80 129.00
1245 16.4700 17101.00 16849.70 131.00
1246 16.4800 17946.00 17383.70 134.00
1247 16.4900 18730.00 18002.20 137.00
1248 16.5000 19139.00 18532.30 138.00
1249 16.5100 19365.00 18864.00 139.00
1250 16.5200 19199.00 18983.20 139.00
1251 16.5300 18987.00 18887.80 138.00
1252 16.5400 18509.00 18435.80 136.00
1253 16.5500 17563.00 17428.70 133.00
1254 16.5600 15979.00 15926.70 126.00
1255 16.5700 14341.00 14264.70 120.00
1256 16.5800 12728.00 12735.50 113.00
1257 16.5900 11552.00 11494.90 107.00
1258 16.6000 10629.00 10558.00 103.00
1259 16.6100 10050.00 9898.93 100.00
1260 16.6200 9486.00 9437.08 97.00
1261 16.6300 9197.00 9121.22 96.00
1262 16.6400 8993.00 8901.35 95.00
1263 16.6500 8720.00 8742.63 93.00
1264 16.6600 8668.00 8623.17 93.00
1265 16.6700 8527.00 8530.15 92.00
1266 16.6800 8418.00 8455.85 92.00
1267 16.6900 8352.00 8396.29 91.00
1268 16.7000 8280.00 8348.42 91.00
1269 16.7100 8262.00 8310.33 91.00
1270 16.7200 8262.00 8280.64 91.00
1271 16.7300 8256.00 8255.71 91.00
1272 16.7400 8213.00 8240.15 91.00
1273 16.7500 8227.00 8230.77 91.00
1274 16.7600 8172.00 8227.18 90.00
1275 16.7700 8200.00 8229.17 91.00
1276 16.7800 8240.00 8236.64 91.00
1277 16.7900 8224.00 8249.60 91.00
1278 16.8000 8189.00 8268.16 90.00
1279 16.8100 8267.00 8292.54 91.00
1280 16.8200 8302.00 8323.10 91.00
1281 16.8300 8342.00 8360.30 91.00
1282 16.8400 8443.00 8404.73 92.00
1283 16.8500 8492.00 8457.17 92.00
1284 16.8600 8518.00 8518.57 92.00
1285 16.8700 8612.00 8590.13 93.00
1286 16.8800 8700.00 8673.29 93.00
1287 16.8900 8834.00 8769.90 94.00
1288 16.9000 8968.00 8882.25 95.00
1289 16.9100 9149.00 9013.27 96.00
1290 16.9200 9264.00 9166.78 96.00
1291 16.9300 9565.00 9348.03 98.00
1292 16.9400 9839.00 9564.45 99.00
1293 16.9500 10192.00 9827.25 101.00
1294 16.9600 10596.00 10153.70 103.00
1295 16.9700 11194.00 10570.20 106.00
1296 16.9800 11735.00 11118.50 108.00
1297 16.9900 12646.00 11860.50 112.00
1298 17.0000 13775.00 12886.60 117.00
1299 17.0100 15174.00 14312.10 123.00
1300 17.0200 17023.00 16284.10 130.00
1301 17.0300 19508.00 18956.70 140.00
1302 17.0400 22508.00 22463.60 150.00
1303 17.0500 26448.00 26876.30 163.00
1304 17.0600 31147.00 32179.50 176.00
1305 17.0700 36911.00 38226.60 192.00
1306 17.0800 43585.00 44626.60 209.00
1307 17.0900 50024.00 50580.10 224.00
1308 17.1000 54418.00 54849.90 233.00
1309 17.1100 56364.00 56150.20 237.00
1310 17.1200 54397.00 53982.40 233.00
1311 17.1300 49070.00 49051.50 222.00
1312 17.1400 42107.00 42698.00 205.00
1313 17.1500 35071.00 36110.00 187.00
1314 17.1600 28583.00 30042.00 169.00
1315 17.1700 23757.00 24864.30 154.00
1316 17.1800 20009.00 20697.20 141.00
1317 17.1900 17127.00 17497.30 131.00
1318 17.2000 15056.00 15132.40 123.00
1319 17.2100 13480.00 13430.00 116.00
1320 17.2200 12186.00 12220.40 110.00
1321 17.2300 11310.00 11357.10 106.00
1322 17.2400 10591.00 10729.10 103.00
1323 17.2500 10000.00 10257.60 100.00
1324 17.2600 9660.00 9890.75 98.00
1325 17.2700 9317.00 9595.69 97.00
1326 17.2800 9027.00 9352.02 95.00
1327 17.2900 8798.00 9146.76 94.00
1328 17.3000 8590.00 8971.53 93.00
1329 17.3100 8367.00 8820.46 91.00
1330 17.3200 8338.00 8689.18 91.00
1331 17.3300 8254.00 8574.47 91.00
1332 17.3400 8049.00 8473.58 90.00
1333 17.3500 7996.00 8384.69 89.00
1334 17.3600 7941.00 8305.94 89.00
1335 17.3700 7923.00 8235.96 89.00
1336 17.3800 7863.00 8173.56 89.00
1337 17.3900 7870.00 8117.80 89.00
1338 17.4000 7766.00 8067.83 88.00
1339 17.4100 7804.00 8023.00 88.00
1340 17.4200 7735.00 7982.71 88.00
1341 17.4300 7671.00 7946.50 88.00
1342 17.4400 7689.00 7913.94 88.00
1343 17.4500 7647.00 7884.68 87.00
1344 17.4600 7575.00 7858.44 87.00
1345 17.4700 7585.00 7834.98 87.00
1346 17.4800 7551.00 7814.07 87.00
1347 17.4900 7527.00 7795.56 87.00
1348 17.5000 7598.00 7779.31 87.00
1349 17.5100 7585.00 7765.18 87.00
1350 17.5200 7508.00 7753.18 87.00
1351 17.5300 7537.00 7743.22 87.00
1352 17.5400 7558.00 7735.31 87.00
1353 17.5500 7568.00 7729.45 87.00
1354 17.5600 7617.00 7725.71 87.00
1355 17.5700 7625.00 7724.19 87.00
1356 17.5800 7570.00 7725.03 87.00
1357 17.5900 7596.00 7728.44 87.00
1358 17.6000 7602.00 7734.73 87.00
1359 17.6100 7572.00 7746.14 87.00
1360 17.6200 7604.00 7759.63 87.00
1361 17.6300 7613.00 7777.95 87.00
1362 17.6400 7601.00 7802.49 87.00
1363 17.6500 7760.00 7835.55 88.00
1364 17.6600 7757.00 7880.62 88.00
1365 17.6700 7779.00 7943.09 88.00
1366 17.6800 7923.00 8030.80 89.00
1367 17.6900 8040.00 8154.58 90.00
1368 17.7000 8143.00 8328.06 90.00
1369 17.7100 8343.00 8566.91 91.00
1370 17.7200 8649.00 8886.34 93.00
1371 17.7300 8978.00 9297.34 95.00
1372 17.7400 9506.00 9801.29 97.00
1373 17.7500 10044.00 10382.30 100.00
1374 17.7600 10724.00 10997.20 104.00
1375 17.7700 11335.00 11561.90 106.00
1376 17.7800 11845.00 11957.80 109.00
1377 17.7900 12042.00 12080.80 110.00
1378 17.8000 11902.00 11904.30 109.00
1379 17.8100 11428.00 11491.60 107.00
1380 17.8200 10754.00 10951.70 104.00
1381 17.8300 10158.00 10371.80 101.00
1382 17.8400 9654.00 9846.75 98.00
1383 17.8500 9200.00 9397.85 96.00
1384 17.8600 8908.00 9038.68 94.00
1385 17.8700 8665.00 8770.24 93.00
1386 17.8800 8489.00 8586.62 92.00
1387 17.8900 8403.00 8479.91 92.00
1388 17.9000 8410.00 8443.53 92.00
1389 17.9100 8418.00 8474.86 92.00
1390 17.9200 8633.00 8577.13 93.00
1391 17.9300 8727.00 8758.36 93.00
1392 17.9400 8875.00 9030.39 94.00
1393 17.9500 9221.00 9405.99 96.00
1394 17.9600 9656.00 9894.31 98.00
1395 17.9700 10278.00 10496.20 101.00
1396 17.9800 11051.00 11198.00 105.00
1397 17.9900 11910.00 11963.50 109.00
1398 18.0000 12715.00 12720.60 113.00
1399 18.0100 13603.00 13365.50 117.00
1400 18.0200 14057.00 13759.00 119.00
1401 18.0300 14015.00 13792.50 118.00
1402 18.0400 13576.00 13453.20 117.00
1403 18.0500 12784.00 12833.20 113.00
1404 18.0600 11799.00 12068.90 109.00
1405 18.0700 10967.00 11277.30 105.00
1406 18.0800 10158.00 10535.50 101.00
1407 18.0900 9546.00 9885.71 98.00
1408 18.1000 9088.00 9344.60 95.00
1409 18.1100 8740.00 8912.82 93.00
1410 18.1200 8367.00 8580.18 91.00
1411 18.1300 8220.00 8331.19 91.00
1412 18.1400 8016.00 8148.44 90.00
1413 18.1500 7874.00 8015.67 89.00
1414 18.1600 7838.00 7919.25 89.00
1415 18.1700 7733.00 7864.62 88.00
1416 18.1800 7619.00 7813.06 87.00
1417 18.1900 7630.00 7775.71 87.00
1418 18.2000 7619.00 7750.22 87.00
1419 18.2100 7584.00 7736.06 87.00
1420 18.2200 7607.00 7734.05 87.00
1421 18.2300 7563.00 7745.98 87.00
1422 18.2400 7598.00 7773.94 87.00
1423 18.2500 7627.00 7819.56 87.00
1424 18.2600 7663.00 7882.81 88.00
1425 18.2700 7745.00 7960.59 88.00
1426 18.2800 7835.00 8044.44 89.00
1427 18.2900 7962.00 8118.08 89.00
1428 18.3000 8033.00 8158.36 90.00
1429 18.3100 8064.00 8146.86 90.00
1430 18.3200 7970.00 8085.17 89.00
1431 18.3300 7856.00 7990.94 89.00
1432 18.3400 7791.00 7891.16 88.00
1433 18.3500 7716.00 7798.22 88.00
1434 18.3600 7608.00 7719.33 87.00
1435 18.3700 7540.00 7655.30 87.00
1436 18.3800 7497.00 7608.08 87.00
1437 18.3900 7468.00 7574.02 86.00
1438 18.4000 7427.00 7550.26 86.00
1439 18.4100 7411.00 7534.06 86.00
1440 18.4200 7356.00 7523.20 86.00
1441 18.4300 7441.00 7516.03 86.00
1442 18.4400 7391.00 7511.49 86.00
1443 18.4500 7368.00 7508.88 86.00
1444 18.4600 7371.00 7507.82 86.00
1445 18.4700 7422.00 7508.08 86.00
1446 18.4800 7360.00 7509.54 86.00
1447 18.4900 7407.00 7512.14 86.00
1448 18.5000 7379.00 7515.87 86.00
1449 18.5100 7394.00 7520.78 86.00
1450 18.5200 7375.00 7526.92 86.00
1451 18.5300 7427.00 7534.40 86.00
1452 18.5400 7402.00 7543.40 86.00
1453 18.5500 7430.00 7554.14 86.00
1454 18.5600 7439.00 7566.91 86.00
1455 18.5700 7446.00 7582.17 86.00
1456 18.5800 7465.00 7598.35 86.00
1457 18.5900 7496.00 7620.89 87.00
1458 18.6000 7471.00 7648.15 86.00
1459 18.6100 7566.00 7685.68 87.00
1460 18.6200 7625.00 7738.09 87.00
1461 18.6300 7715.00 7815.05 88.00
1462 18.6400 7822.00 7930.83 88.00
1463 18.6500 8013.00 8103.03 90.00
1464 18.6600 8161.00 8347.48 90.00
1465 18.6700 8495.00 8669.55 92.00
1466 18.6800 8899.00 9048.50 94.00
1467 18.6900 9252.00 9411.78 96.00
1468 18.7000 9526.00 9621.17 98.00
1469 18.7100 9517.00 9562.80 98.00
1470 18.7200 9187.00 9284.46 96.00
1471 18.7300 8822.00 8934.81 94.00
1472 18.7400 8489.00 8618.22 92.00
1473 18.7500 8263.00 8375.67 91.00
1474 18.7600 8117.00 8211.82 90.00
1475 18.7700 8075.00 8114.66 90.00
1476 18.7800 7947.00 8067.24 89.00
1477 18.7900 8019.00 8054.09 90.00
1478 18.8000 7982.00 8064.30 89.00
1479 18.8100 7945.00 8091.46 89.00
1480 18.8200 8040.00 8132.69 90.00
1481 18.8300 8108.00 8187.33 90.00
1482 18.8400 8111.00 8256.35 90.00
1483 18.8500 8181.00 8342.15 90.00
1484 18.8600 8296.00 8449.10 91.00
1485 18.8700 8439.00 8584.60 92.00
1486 18.8800 8662.00 8761.19 93.00
1487 18.8900 8902.00 8999.17 94.00
1488 18.9000 9206.00 9330.19 96.00
1489 18.9100 9664.00 9810.11 98.00
1490 18.9200 10212.00 10474.20 101.00
1491 18.9300 11099.00 11397.10 105.00
1492 18.9400 12303.00 12635.70 111.00
1493 18.9500 13896.00 14218.50 118.00
1494 18.9600 15740.00 16117.90 125.00
1495 18.9700 18185.00 18202.40 135.00
1496 18.9800 20369.00 20177.30 143.00
1497 18.9900 22126.00 21559.20 149.00
1498 19.0000 22513.00 21866.60 150.00
1499 19.0100 21384.00 21005.40 146.00
1500 19.0200 19233.00 19364.60 139.00
1501 19.0300 17194.00 17472.70 131.00
1502 19.0400 15297.00 15711.90 124.00
1503 19.0500 13944.00 14284.00 118.00
1504 19.0600 13212.00 13278.70 115.00
1505 19.0700 12722.00 12727.00 113.00
1506 19.0800 12705.00 12638.90 113.00
1507 19.0900 13077.00 13022.20 114.00
1508 19.1000 13933.00 13888.10 118.00
1509 19.1100 15244.00 15242.20 123.00
1510 19.1200 17272.00 17058.40 131.00
1511 19.1300 19599.00 19239.90 140.00
1512 19.1400 22238.00 21552.60 149.00
1513 19.1500 24734.00 23556.60 157.00
1514 19.1600 25964.00 24645.30 161.00
1515 19.1700 25523.00 24386.90 160.00
1516 19.1800 23586.00 22906.30 154.00
1517 19.1900 20859.00 20769.10 144.00
1518 19.2000 18208.00 18542.50 135.00
1519 19.2100 16127.00 16586.80 127.00
1520 19.2200 14739.00 15078.60 121.00
1521 19.2300 13873.00 14085.60 118.00
1522 19.2400 13499.00 13615.30 116.00
1523 19.2500 13579.00 13644.90 117.00
1524 19.2600 13920.00 14136.30 118.00
1525 19.2700 14844.00 15041.40 122.00
1526 19.2800 16197.00 16295.50 127.00
1527 19.2900 17901.00 17798.60 134.00
1528 19.3000 19788.00 19387.20 141.00
1529 19.3100 21397.00 20801.10 146.00
1530 19.3200 22338.00 21700.70 149.00
1531 19.3300 22417.00 21791.50 150.00
1532 19.3400 21440.00 21015.50 146.00
1533 19.3500 19675.00 19593.00 140.00
1534 19.3600 17625.00 17859.20 133.00
1535 19.3700 15615.00 16096.50 125.00
1536 19.3800 13891.00 14479.70 118.00
1537 19.3900 12662.00 13095.60 113.00
1538 19.4000 11676.00 11972.40 108.00
1539 19.4100 10952.00 11101.80 105.00
1540 19.4200 10407.00 10454.60 102.00
1541 19.4300 10057.00 9991.72 100.00
1542 19.4400 9701.00 9673.70 98.00
1543 19.4500 9563.00 9465.86 98.00
1544 19.4600 9374.00 9341.23 97.00
1545 19.4700 9340.00 9280.48 97.00
1546 19.4800 9332.00 9270.89 97.00
1547 19.4900 9384.00 9304.55 97.00
1548 19.5000 9358.00 9376.65 97.00
1549 19.5100 9525.00 9484.08 98.00
1550 19.5200 9603.00 9624.35 98.00
1551 19.5300 9795.00 9794.97 99.00
1552 19.5400 9994.00 9992.83 100.00
1553 19.5500 10228.00 10214.10 101.00
1554 19.5600 10406.00 10452.40 102.00
1555 19.5700 10761.00 10703.30 104.00
1556 19.5800 11076.00 10957.10 105.00
1557 19.5900 11297.00 11202.60 106.00
1558 19.6000 11642.00 11426.90 108.00
1559 19.6100 11786.00 11616.30 109.00
1560 19.6200 11809.00 11758.00 109.00
1561 19.6300 11900.00 11838.00 109.00
1562 19.6400 11826.00 11849.00 109.00
1563 19.6500 11613.00 11776.90 108.00
1564 19.6600 11493.00 11620.80 107.00
1565 19.6700 11186.00 11403.80 106.00
1566 19.6800 10885.00 11167.60 104.00
1567 19.6900 10699.00 10956.00 103.00
1568 19.7000 10574.00 10806.50 103.00
1569 19.7100 10549.00 10751.70 103.00
1570 19.7200 10699.00 10822.40 103.00
1571 19.7300 10970.00 11047.40 105.00
1572 19.7400 11284.00 11450.70 106.00
1573 19.7500 11903.00 12046.70 109.00
1574 19.7600 12637.00 12826.30 112.00
1575 19.7700 13583.00 13750.10 117.00
1576 19.7800 14633.00 14720.30 121.00
1577 19.7900 15521.00 15565.80 125.00
1578 19.8000 15876.00 16074.10 126.00
1579 19.8100 15959.00 16117.70 126.00
1580 19.8200 15474.00 15760.90 124.00
1581 19.8300 14930.00 15194.90 122.00
1582 19.8400 14481.00 14600.30 120.00
1583 19.8500 14076.00 14073.30 119.00
1584 19.8600 13611.00 13645.90 117.00
1585 19.8700 13486.00 13309.20 116.00
1586 19.8800 13227.00 13095.10 115.00
1587 19.8900 13150.00 13070.10 115.00
1588 19.9000 13387.00 13321.70 116.00
1589 19.9100 13932.00 13927.80 118.00
1590 19.9200 14816.00 14928.70 122.00
1591 19.9300 16260.00 16293.20 128.00
1592 19.9400 17982.00 17859.40 134.00
1593 19.9500 19489.00 19251.40 140.00
1594 19.9600 20410.00 19929.90 143.00
1595 19.9700 20210.00 19589.70 142.00
1596 19.9800 18951.00 18515.20 138.00
1597 19.9900 17734.00 17302.40 133.00
1598 20.0000 16880.00 16440.80 130.00
1599 20.0100 16776.00 16271.20 130.00
1600 20.0200 17668.00 16991.10 133.00
1601 20.0300 19374.00 18675.20 139.00
1602 20.0400 21774.00 21164.70 148.00
1603 20.0500 24276.00 23829.20 156.00
1604 20.0600 25361.00 25361.30 159.00
1605 20.0700 24452.00 24620.90 156.00
1606 20.0800 22147.00 22115.40 149.00
1607 20.0900 19083.00 19193.20 138.00
1608 20.1000 16483.00 16658.60 128.00
1609 20.1100 14629.00 14739.30 121.00
1610 20.1200 13375.00 13384.80 116.00
1611 20.1300 12338.00 12446.60 111.00
1612 20.1400 11687.00 11774.40 108.00
1613 20.1500 11097.00 11258.00 105.00
1614 20.1600 10636.00 10834.10 103.00
1615 20.1700 10328.00 10471.20 102.00
1616 20.1800 10009.00 10155.70 100.00
1617 20.1900 9719.00 9881.52 99.00
1618 20.2000 9588.00 9645.46 98.00
1619 20.2100 9447.00 9445.29 97.00
1620 20.2200 9266.00 9279.12 96.00
1621 20.2300 9172.00 9144.88 96.00
1622 20.2400 9063.00 9040.72 95.00
1623 20.2500 9030.00 8964.75 95.00
1624 20.2600 9036.00 8915.38 95.00
1625 20.2700 9062.00 8891.37 95.00
1626 20.2800 8980.00 8892.19 95.00
1627 20.2900 9072.00 8918.55 95.00
1628 20.3000 9106.00 8972.10 95.00
1629 20.3100 9280.00 9057.77 96.00
1630 20.3200 9442.00 9184.45 97.00
1631 20.3300 9698.00 9367.14 98.00
1632 20.3400 9889.00 9629.57 99.00
1633 20.3500 10296.00 10006.00 101.00
1634 20.3600 10847.00 10541.90 104.00
1635 20.3700 11561.00 11290.20 108.00
1636 20.3800 12505.00 12304.70 112.00
1637 20.3900 13854.00 13625.10 118.00
1638 20.4000 15411.00 15261.10 124.00
1639 20.4100 17453.00 17162.10 132.00
1640 20.4200 19684.00 19177.30 140.00
1641 20.4300 21736.00 21002.70 147.00
1642 20.4400 22999.00 22194.40 152.00
1643 20.4500 23038.00 22366.50 152.00
1644 20.4600 21646.00 21490.80 147.00
1645 20.4700 19645.00 19915.70 140.00
1646 20.4800 17603.00 18078.70 133.00
1647 20.4900 15729.00 16296.20 125.00
1648 20.5000 14186.00 14743.90 119.00
1649 20.5100 13121.00 13500.50 115.00
1650 20.5200 12298.00 12584.40 111.00
1651 20.5300 11831.00 11974.90 109.00
1652 20.5400 11527.00 11632.60 107.00
1653 20.5500 11399.00 11512.40 107.00
1654 20.5600 11463.00 11573.00 107.00
1655 20.5700 11715.00 11780.50 108.00
1656 20.5800 11919.00 12107.70 109.00
1657 20.5900 12305.00 12532.70 111.00
1658 20.6000 12855.00 13034.70 113.00
1659 20.6100 13448.00 13592.00 116.00
1660 20.6200 14148.00 14178.20 119.00
1661 20.6300 14807.00 14760.60 122.00
1662 20.6400 15783.00 15298.80 126.00
1663 20.6500 16510.00 15747.00 128.00
1664 20.6600 16898.00 16059.40 130.00
1665 20.6700 16980.00 16201.00 130.00
1666 20.6800 16890.00 16158.30 130.00
1667 20.6900 16379.00 15944.50 128.00
1668 20.7000 15683.00 15595.20 125.00
1669 20.7100 15027.00 15158.50 123.00
1670 20.7200 14380.00 14683.50 120.00
1671 20.7300 13826.00 14213.00 118.00
1672 20.7400 13307.00 13780.60 115.00
1673 20.7500 12918.00 13410.40 114.00
1674 20.7600 12680.00 13117.50 113.00
1675 20.7700 12601.00 12909.40 112.00
1676 20.7800 12616.00 12786.30 112.00
1677 20.7900 12672.00 12741.50 113.00
1678 20.8000 12836.00 12762.40 113.00
1679 20.8100 13073.00 12832.00 114.00
1680 20.8200 13086.00 12929.30 114.00
1681 20.8300 13381.00 13031.50 116.00
1682 20.8400 13535.00 13117.80 116.00
1683 20.8500 13624.00 13166.40 117.00
1684 20.8600 13621.00 13158.30 117.00
1685 20.8700 13557.00 13078.40 116.00
1686 20.8800 13210.00 12919.30 115.00
1687 20.8900 12907.00 12683.70 114.00
1688 20.9000 12475.00 12383.80 112.00
1689 20.9100 12054.00 12038.60 110.00
1690 20.9200 11594.00 11669.50 108.00
1691 20.9300 11286.00 11296.30 106.00
1692 20.9400 10841.00 10936.20 104.00
1693 20.9500 10538.00 10602.60 103.00
1694 20.9600 10215.00 10306.20 101.00
1695 20.9700 10052.00 10055.20 100.00
1696 20.9800 9933.00 9855.48 100.00
1697 20.9900 9855.00 9711.17 99.00
1698 21.0000 9770.00 9624.59 99.00
1699 21.0100 9785.00 9595.42 99.00
1700 21.0200 9930.00 9620.54 100.00
1701 21.0300 10050.00 9692.28 100.00
1702 21.0400 10225.00 9795.89 101.00
1703 21.0500 10369.00 9909.20 102.00
1704 21.0600 10343.00 10009.40 102.00
1705 21.0700 10378.00 10083.60 102.00
1706 21.0800 10369.00 10125.20 102.00
1707 21.0900 10325.00 10112.40 102.00
1708 21.1000 10293.00 10012.10 101.00
1709 21.1100 10007.00 9832.47 100.00
1710 21.1200 9814.00 9635.01 99.00
1711 21.1300 9705.00 9481.45 99.00
1712 21.1400 9669.00 9409.16 98.00
1713 21.1500 9735.00 9442.39 99.00
1714 21.1600 10009.00 9606.03 100.00
1715 21.1700 10286.00 9932.93 101.00
1716 21.1800 10720.00 10464.80 104.00
1717 21.1900 11467.00 11243.90 107.00
1718 21.2000 12576.00 12297.70 112.00
1719 21.2100 13806.00 13607.50 117.00
1720 21.2200 15388.00 15064.20 124.00
1721 21.2300 16708.00 16389.00 129.00
1722 21.2400 17331.00 17138.40 132.00
1723 21.2500 17232.00 16945.20 131.00
1724 21.2600 16199.00 15925.90 127.00
1725 21.2700 14738.00 14526.60 121.00
1726 21.2800 13360.00 13138.50 116.00
1727 21.2900 12168.00 11959.20 110.00
1728 21.3000 11223.00 11050.90 106.00
1729 21.3100 10666.00 10404.60 103.00
1730 21.3200 10174.00 9979.72 101.00
1731 21.3300 9935.00 9726.53 100.00
1732 21.3400 9872.00 9600.77 99.00
1733 21.3500 9901.00 9570.07 100.00
1734 21.3600 9850.00 9615.82 99.00
1735 21.3700 10037.00 9732.14 100.00
1736 21.3800 10281.00 9924.58 101.00
1737 21.3900 10594.00 10209.80 103.00
1738 21.4000 11056.00 10615.80 105.00
1739 21.4100 11587.00 11181.60 108.00
1740 21.4200 12255.00 11955.40 111.00
1741 21.4300 13276.00 12989.00 115.00
1742 21.4400 14566.00 14329.30 121.00
1743 21.4500 16145.00 16003.80 127.00
1744 21.4600 18149.00 18001.60 135.00
1745 21.4700 20525.00 20237.70 143.00
1746 21.4800 22865.00 22509.20 151.00
1747 21.4900 25161.00 24449.60 159.00
1748 21.5000 26374.00 25581.30 162.00
1749 21.5100 26106.00 25527.70 162.00
1750 21.5200 24737.00 24282.80 157.00
1751 21.5300 22255.00 22227.20 149.00
1752 21.5400 19505.00 19857.00 140.00
1753 21.5500 17163.00 17549.40 131.00
1754 21.5600 15109.00 15511.10 123.00
1755 21.5700 13609.00 13824.70 117.00
1756 21.5800 12492.00 12497.60 112.00
1757 21.5900 11654.00 11495.40 108.00
1758 21.6000 10929.00 10762.60 105.00
1759 21.6100 10504.00 10239.20 102.00
1760 21.6200 10162.00 9870.49 101.00
1761 21.6300 9959.00 9609.68 100.00
1762 21.6400 9814.00 9428.82 99.00
1763 21.6500 9575.00 9303.20 98.00
1764 21.6600 9473.00 9218.86 97.00
1765 21.6700 9470.00 9167.57 97.00
1766 21.6800 9451.00 9145.36 97.00
1767 21.6900 9443.00 9151.36 97.00
1768 21.7000 9543.00 9187.37 98.00
1769 21.7100 9613.00 9257.97 98.00
1770 21.7200 9669.00 9370.59 98.00
1771 21.7300 9864.00 9536.10 99.00
1772 21.7400 10065.00 9768.54 100.00
1773 21.7500 10410.00 10084.90 102.00
1774 21.7600 10810.00 10503.80 104.00
1775 21.7700 11346.00 11042.90 107.00
1776 21.7800 11834.00 11715.40 109.00
1777 21.7900 12756.00 12525.70 113.00
1778 21.8000 13775.00 13461.80 117.00
1779 21.8100 14907.00 14484.40 122.00
1780 21.8200 16179.00 15526.60 127.00
1781 21.8300 17293.00 16468.70 132.00
1782 21.8400 17860.00 17164.40 134.00
1783 21.8500 18281.00 17494.60 135.00
1784 21.8600 18136.00 17447.90 135.00
1785 21.8700 17745.00 17145.20 133.00
1786 21.8800 17157.00 16776.60 131.00
1787 21.8900 16833.00 16518.30 130.00
1788 21.9000 16654.00 16494.90 129.00
1789 21.9100 17000.00 16778.70 130.00
1790 21.9200 17498.00 17398.80 132.00
1791 21.9300 18510.00 18344.10 136.00
1792 21.9400 19871.00 19562.20 141.00
1793 21.9500 21370.00 20954.70 146.00
1794 21.9600 22670.00 22340.40 151.00
1795 21.9700 23928.00 23496.40 155.00
1796 21.9800 24517.00 24158.80 157.00
1797 21.9900 24165.00 24130.20 155.00
1798 22.0000 23350.00 23379.10 153.00
1799 22.0100 21615.00 22053.10 147.00
1800 22.0200 19543.00 20391.40 140.00
1801 22.0300 17752.00 18619.50 133.00
1802 22.0400 16117.00 16902.00 127.00
1803 22.0500 14633.00 15338.50 121.00
1804 22.0600 13525.00 13980.90 116.00
1805 22.0700 12610.00 12846.60 112.00
1806 22.0800 11696.00 11931.90 108.00
1807 22.0900 11240.00 11218.80 106.00
1808 22.1000 10759.00 10683.10 104.00
1809 22.1100 10478.00 10299.10 102.00
1810 22.1200 10320.00 10046.40 102.00
1811 22.1300 10195.00 9912.24 101.00
1812 22.1400 10094.00 9895.70 100.00
1813 22.1500 10221.00 10007.40 101.00
1814 22.1600 10468.00 10267.30 102.00
1815 22.1700 10901.00 10698.20 104.00
1816 22.1800 11510.00 11314.80 107.00
1817 22.1900 12233.00 12106.00 111.00
1818 22.2000 13036.00 13006.20 114.00
1819 22.2100 13906.00 13849.30 118.00
1820 22.2200 14435.00 14357.20 120.00
1821 22.2300 14325.00 14280.30 120.00
1822 22.2400 13785.00 13632.80 117.00
1823 22.2500 12774.00 12676.50 113.00
1824 22.2600 11628.00 11679.20 108.00
1825 22.2700 10858.00 10793.40 104.00
1826 22.2800 10122.00 10074.50 101.00
1827 22.2900 9631.00 9525.45 98.00
1828 22.3000 9312.00 9123.89 96.00
1829 22.3100 9024.00 8838.00 95.00
1830 22.3200 8748.00 8634.02 94.00
1831 22.3300 8677.00 8489.35 93.00
1832 22.3400 8575.00 8382.88 93.00
1833 22.3500 8521.00 8301.65 92.00
1834 22.3600 8490.00 8237.90 92.00
1835 22.3700 8365.00 8184.38 91.00
1836 22.3800 8273.00 8142.38 91.00
1837 22.3900 8260.00 8107.61 91.00
1838 22.4000 8236.00 8078.54 91.00
1839 22.4100 8273.00 8053.97 91.00
1840 22.4200 8225.00 8032.99 91.00
1841 22.4300 8219.00 8015.00 91.00
1842 22.4400 8195.00 7999.68 91.00
1843 22.4500 8211.00 7986.88 91.00
1844 22.4600 8204.00 7976.55 91.00
1845 22.4700 8209.00 7968.64 91.00
1846 22.4800 8198.00 7963.08 91.00
1847 22.4900 8207.00 7959.82 91.00
1848 22.5000 8151.00 7958.82 90.00
1849 22.5100 8197.00 7960.04 91.00
1850 22.5200 8223.00 7963.46 91.00
1851 22.5300 8168.00 7969.10 90.00
1852 22.5400 8244.00 7977.00 91.00
1853 22.5500 8240.00 7987.24 91.00
1854 22.5600 8231.00 7999.92 91.00
1855 22.5700 8212.00 8015.22 91.00
1856 22.5800 8219.00 8033.38 91.00
1857 22.5900 8249.00 8054.67 91.00
1858 22.6000 8269.00 8079.46 91.00
1859 22.6100 8252.00 8107.10 91.00
1860 22.6200 8266.00 8140.51 91.00
1861 22.6300 8402.00 8179.36 92.00
1862 22.6400 8420.00 8224.82 92.00
1863 22.6500 8432.00 8278.59 92.00
1864 22.6600 8437.00 8343.24 92.00
1865 22.6700 8639.00 8422.59 93.00
1866 22.6800 8723.00 8522.47 93.00
1867 22.6900 8920.00 8651.28 94.00
1868 22.7000 9072.00 8820.69 95.00
1869 22.7100 9312.00 9045.52 96.00
1870 22.7200 9591.00 9343.18 98.00
1871 22.7300 10020.00 9731.92 100.00
1872 22.7400 10372.00 10227.00 102.00
1873 22.7500 11012.00 10836.70 105.00
1874 22.7600 11716.00 11554.90 108.00
1875 22.7700 12666.00 12351.70 113.00
1876 22.7800 13575.00 13157.10 117.00
1877 22.7900 14455.00 13850.00 120.00
1878 22.8000 14817.00 14276.60 122.00
1879 22.8100 14874.00 14330.00 122.00
1880 22.8200 14467.00 14033.80 120.00
1881 22.8300 13711.00 13526.60 117.00
1882 22.8400 13125.00 12970.30 115.00
1883 22.8500 12583.00 12484.90 112.00
1884 22.8600 12092.00 12141.20 110.00
1885 22.8700 11988.00 11974.80 109.00
1886 22.8800 11946.00 11999.10 109.00
1887 22.8900 12174.00 12213.50 110.00
1888 22.9000 12612.00 12607.40 112.00
1889 22.9100 13168.00 13162.10 115.00
1890 22.9200 13799.00 13850.10 117.00
1891 22.9300 14543.00 14634.40 121.00
1892 22.9400 15308.00 15472.20 124.00
1893 22.9500 16293.00 16323.40 128.00
1894 22.9600 17327.00 17159.70 132.00
1895 22.9700 18214.00 17957.20 135.00
1896 22.9800 19046.00 18684.40 138.00
1897 22.9900 19871.00 19296.30 141.00
1898 23.0000 20442.00 19747.30 143.00
1899 23.0100 20562.00 20017.10 143.00
1900 23.0200 20603.00 20100.10 144.00
1901 23.0300 20195.00 20048.40 142.00
1902 23.0400 19614.00 19932.50 140.00
1903 23.0500 19388.00 19827.00 139.00
1904 23.0600 19121.00 19791.90 138.00
1905 23.0700 19104.00 19860.50 138.00
1906 23.0800 19405.00 20030.80 139.00
1907 23.0900 19719.00 20259.50 140.00
1908 23.1000 19844.00 20459.20 141.00
1909 23.1100 20118.00 20511.20 142.00
1910 23.1200 20063.00 20305.40 142.00
1911 23.1300 19548.00 19792.20 140.00
1912 23.1400 18837.00 19005.20 137.00
1913 23.1500 17819.00 18032.10 133.00
1914 23.1600 16650.00 16969.50 129.00
1915 23.1700 15737.00 15893.30 125.00
1916 23.1800 14744.00 14856.60 121.00
1917 23.1900 13855.00 13894.40 118.00
1918 23.2000 13050.00 13028.90 114.00
1919 23.2100 12433.00 12271.00 112.00
1920 23.2200 11636.00 11623.70 108.00
1921 23.2300 11202.00 11081.10 106.00
1922 23.2400 10726.00 10641.40 104.00
1923 23.2500 10403.00 10293.80 102.00
1924 23.2600 10149.00 10030.00 101.00
1925 23.2700 10004.00 9842.48 100.00
1926 23.2800 9857.00 9724.47 99.00
1927 23.2900 9811.00 9669.30 99.00
1928 23.3000 9794.00 9669.71 99.00
1929 23.3100 9785.00 9714.72 99.00
1930 23.3200 9948.00 9787.21 100.00
1931 23.3300 10040.00 9860.21 100.00
1932 23.3400 10018.00 9898.17 100.00
1933 23.3500 10032.00 9869.42 100.00
1934 23.3600 9972.00 9765.83 100.00
1935 23.3700 9848.00 9608.26 99.00
1936 23.3800 9663.00 9430.42 98.00
1937 23.3900 9472.00 9261.46 97.00
1938 23.4000 9275.00 9120.08 96.00
1939 23.4100 9234.00 9017.39 96.00
1940 23.4200 9182.00 8960.99 96.00
1941 23.4300 9168.00 8959.10 96.00
1942 23.4400 9320.00 9024.47 97.00
1943 23.4500 9431.00 9177.92 97.00
1944 23.4600 9706.00 9450.33 99.00
1945 23.4700 10083.00 9880.28 100.00
1946 23.4800 10630.00 10506.60 103.00
1947 23.4900 11395.00 11351.70 107.00
1948 23.5000 12457.00 12391.80 112.00
1949 23.5100 13490.00 13501.00 116.00
1950 23.5200 14245.00 14379.80 119.00
1951 23.5300 14533.00 14627.70 121.00
1952 23.5400 14075.00 14094.60 119.00
1953 23.5500 13159.00 13061.30 115.00
1954 23.5600 12082.00 11920.70 110.00
1955 23.5700 11137.00 10906.20 106.00
1956 23.5800 10232.00 10099.30 101.00
1957 23.5900 9707.00 9503.72 99.00
1958 23.6000 9268.00 9081.09 96.00
1959 23.6100 9007.00 8790.86 95.00
1960 23.6200 8862.00 8592.71 94.00
1961 23.6300 8709.00 8455.09 93.00
1962 23.6400 8556.00 8356.49 92.00
1963 23.6500 8529.00 8281.67 92.00
1964 23.6600 8454.00 8225.90 92.00
1965 23.6700 8432.00 8182.77 92.00
1966 23.6800 8363.00 8149.34 91.00
1967 23.6900 8380.00 8123.72 92.00
1968 23.7000 8249.00 8104.60 91.00
1969 23.7100 8334.00 8091.06 91.00
1970 23.7200 8315.00 8082.47 91.00
1971 23.7300 8354.00 8078.39 91.00
1972 23.7400 8317.00 8078.54 91.00
1973 23.7500 8341.00 8082.81 91.00
1974 23.7600 8244.00 8091.23 91.00
1975 23.7700 8284.00 8103.98 91.00
1976 23.7800 8358.00 8121.48 91.00
1977 23.7900 8337.00 8144.41 91.00
1978 23.8000 8485.00 8173.86 92.00
1979 23.8100 8485.00 8211.51 92.00
1980 23.8200 8442.00 8259.86 92.00
1981 23.8300 8547.00 8322.42 92.00
1982 23.8400 8656.00 8403.81 93.00
1983 23.8500 8708.00 8509.78 93.00
1984 23.8600 8878.00 8646.81 94.00
1985 23.8700 9050.00 8821.50 95.00
1986 23.8800 9157.00 9039.36 96.00
1987 23.8900 9452.00 9303.48 97.00
1988 23.9000 9805.00 9612.23 99.00
1989 23.9100 10203.00 9955.90 101.00
1990 23.9200 10690.00 10311.60 103.00
1991 23.9300 11068.00 10640.40 105.00
1992 23.9400 11298.00 10895.50 106.00
1993 23.9500 11515.00 11048.70 107.00
1994 23.9600 11559.00 11116.60 108.00
1995 23.9700 11577.00 11154.50 108.00
1996 23.9800 11570.00 11225.80 108.00
1997 23.9900 11664.00 11378.50 108.00
1998 24.0000 11771.00 11640.60 108.00
1999 24.0100 12155.00 12022.20 110.00
2000 24.0200 12629.00 12517.70 112.00
2001 24.0300 13241.00 13105.20 115.00
2002 24.0400 13956.00 13744.90 118.00
2003 24.0500 14576.00 14376.30 121.00
2004 24.0600 15155.00 14923.70 123.00
2005 24.0700 15745.00 15311.20 125.00
2006 24.0800 15880.00 15484.80 126.00
2007 24.0900 15849.00 15428.60 126.00
2008 24.1000 15518.00 15164.70 125.00
2009 24.1100 14972.00 14743.00 122.00
2010 24.1200 14207.00 14227.60 119.00
2011 24.1300 13511.00 13682.10 116.00
2012 24.1400 12885.00 13159.40 114.00
2013 24.1500 12402.00 12696.30 111.00
2014 24.1600 12116.00 12314.30 110.00
2015 24.1700 11868.00 12022.10 109.00
2016 24.1800 11646.00 11818.80 108.00
2017 24.1900 11619.00 11695.90 108.00
2018 24.2000 11611.00 11647.00 108.00
2019 24.2100 11650.00 11640.60 108.00
2020 24.2200 11806.00 11667.20 109.00
2021 24.2300 11826.00 11714.30 109.00
2022 24.2400 11841.00 11775.80 109.00
2023 24.2500 11940.00 11851.90 109.00
2024 24.2600 11997.00 11943.60 110.00
2025 24.2700 12144.00 12044.90 110.00
2026 24.2800 12313.00 12134.40 111.00
2027 24.2900 12396.00 12174.60 111.00
2028 24.3000 12300.00 12127.30 111.00
2029 24.3100 12179.00 11983.30 110.00
2030 24.3200 11983.00 11777.00 109.00
2031 24.3300 11700.00 11567.90 108.00
2032 24.3400 11572.00 11414.30 108.00
2033 24.3500 11562.00 11361.30 108.00
2034 24.3600 11564.00 11442.90 108.00
2035 24.3700 11856.00 11685.60 109.00
2036 24.3800 12256.00 12111.00 111.00
2037 24.3900 12759.00 12732.40 113.00
2038 24.4000 13536.00 13563.60 116.00
2039 24.4100 14523.00 14592.30 121.00
2040 24.4200 15694.00 15793.30 125.00
2041 24.4300 17041.00 17105.70 131.00
2042 24.4400 18498.00 18421.70 136.00
2043 24.4500 19826.00 19588.60 141.00
2044 24.4600 21059.00 20451.20 145.00
2045 24.4700 21647.00 20940.80 147.00
2046 24.4800 21689.00 21132.60 147.00
2047 24.4900 21731.00 21204.70 147.00
2048 24.5000 21643.00 21348.60 147.00
2049 24.5100 21784.00 21702.40 148.00
2050 24.5200 22255.00 22307.90 149.00
2051 24.5300 23029.00 23052.60 152.00
2052 24.5400 23378.00 23611.20 153.00
2053 24.5500 23490.00 23518.30 153.00
2054 24.5600 22608.00 22505.70 150.00
2055 24.5700 20998.00 20772.00 145.00
2056 24.5800 19042.00 18780.40 138.00
2057 24.5900 17133.00 16904.90 131.00
2058 24.6000 15378.00 15330.70 124.00
2059 24.6100 14262.00 14108.20 119.00
2060 24.6200 13394.00 13220.10 116.00
2061 24.6300 12846.00 12616.50 113.00
2062 24.6400 12538.00 12237.70 112.00
2063 24.6500 12392.00 12026.10 111.00
2064 24.6600 12209.00 11935.20 110.00
2065 24.6700 12170.00 11932.00 110.00
2066 24.6800 12158.00 11996.50 110.00
2067 24.6900 12288.00 12115.70 111.00
2068 24.7000 12462.00 12275.10 112.00
2069 24.7100 12629.00 12445.90 112.00
2070 24.7200 12701.00 12580.50 113.00
2071 24.7300 12822.00 12608.80 113.00
2072 24.7400 12586.00 12472.10 112.00
2073 24.7500 12232.00 12162.40 111.00
2074 24.7600 11854.00 11730.10 109.00
2075 24.7700 11274.00 11249.40 106.00
2076 24.7800 10793.00 10781.50 104.00
2077 24.7900 10387.00 10363.90 102.00
2078 24.8000 10054.00 10014.70 100.00
2079 24.8100 9827.00 9740.05 99.00
2080 24.8200 9671.00 9539.05 98.00
2081 24.8300 9554.00 9409.75 98.00
2082 24.8400 9429.00 9348.59 97.00
2083 24.8500 9456.00 9354.09 97.00
2084 24.8600 9522.00 9427.13 98.00
2085 24.8700 9653.00 9570.66 98.00
2086 24.8800 9911.00 9788.47 100.00
2087 24.8900 10109.00 10082.70 101.00
2088 24.9000 10451.00 10451.10 102.00
2089 24.9100 10893.00 10881.40 104.00
2090 24.9200 11402.00 11344.80 107.00
2091 24.9300 11949.00 11786.20 109.00
2092 24.9400 12451.00 12124.40 112.00
2093 24.9500 12695.00 12275.70 113.00
2094 24.9600 12608.00 12203.70 112.00
2095 24.9700 12297.00 11950.70 111.00
2096 24.9800 11874.00 11604.50 109.00
2097 24.9900 11440.00 11251.80 107.00
2098 25.0000 11191.00 10954.00 106.00
2099 25.0100 10991.00 10747.10 105.00
2100 25.0200 10859.00 10651.10 104.00
2101 25.0300 10940.00 10675.90 105.00
2102 25.0400 11042.00 10825.90 105.00
2103 25.0500 11349.00 11101.40 107.00
2104 25.0600 11821.00 11499.50 109.00
2105 25.0700 12370.00 12014.20 111.00
2106 25.0800 12898.00 12633.90 114.00
2107 25.0900 13796.00 13338.40 117.00
2108 25.1000 14628.00 14092.80 121.00
2109 25.1100 15539.00 14843.50 125.00
2110 25.1200 16310.00 15522.70 128.00
2111 25.1300 16977.00 16070.00 130.00
2112 25.1400 17041.00 16455.60 131.00
2113 25.1500 17212.00 16690.30 131.00
2114 25.1600 16963.00 16825.40 130.00
2115 25.1700 16783.00 16943.20 130.00
2116 25.1800 16900.00 17120.70 130.00
2117 25.1900 16981.00 17398.40 130.00
2118 25.2000 17209.00 17773.20 131.00
2119 25.2100 17665.00 18195.00 133.00
2120 25.2200 18234.00 18573.40 135.00
2121 25.2300 18490.00 18788.90 136.00
2122 25.2400 18649.00 18729.20 137.00
2123 25.2500 18284.00 18340.40 135.00
2124 25.2600 17382.00 17651.30 132.00
2125 25.2700 16392.00 16756.30 128.00
2126 25.2800 15352.00 15767.00 124.00
2127 25.2900 14257.00 14776.50 119.00
2128 25.3000 13368.00 13843.10 116.00
2129 25.3100 12568.00 12994.00 112.00
2130 25.3200 11875.00 12233.10 109.00
2131 25.3300 11315.00 11554.80 106.00
2132 25.3400 10767.00 10955.60 104.00
2133 25.3500 10283.00 10435.90 101.00
2134 25.3600 9975.00 9996.01 100.00
2135 25.3700 9590.00 9631.80 98.00
2136 25.3800 9264.00 9335.35 96.00
2137 25.3900 9081.00 9096.02 95.00
2138 25.4000 8910.00 8904.51 94.00
2139 25.4100 8703.00 8750.93 93.00
2140 25.4200 8631.00 8627.25 93.00
2141 25.4300 8525.00 8526.82 92.00
2142 25.4400 8377.00 8444.40 92.00
2143 25.4500 8382.00 8375.91 92.00
2144 25.4600 8304.00 8318.36 91.00
2145 25.4700 8267.00 8269.50 91.00
2146 25.4800 8238.00 8227.71 91.00
2147 25.4900 8149.00 8191.84 90.00
2148 25.5000 8097.00 8161.05 90.00
2149 25.5100 8089.00 8134.73 90.00
2150 25.5200 8087.00 8111.31 90.00
2151 25.5300 8042.00 8092.71 90.00
2152 25.5400 8091.00 8077.58 90.00
2153 25.5500 8057.00 8063.22 90.00
2154 25.5600 8035.00 8054.71 90.00
2155 25.5700 8029.00 8049.50 90.00
2156 25.5800 7987.00 8047.74 89.00
2157 25.5900 8023.00 8049.72 90.00
2158 25.6000 8079.00 8055.94 90.00
2159 25.6100 8060.00 8067.19 90.00
2160 25.6200 8103.00 8084.65 90.00
2161 25.6300 8143.00 8109.97 90.00
2162 25.6400 8156.00 8145.41 90.00
2163 25.6500 8175.00 8193.83 90.00
2164 25.6600 8277.00 8258.47 91.00
2165 25.6700 8388.00 8343.31 92.00
2166 25.6800 8412.00 8451.65 92.00
2167 25.6900 8575.00 8586.06 93.00
2168 25.7000 8679.00 8747.41 93.00
2169 25.7100 8883.00 8933.64 94.00
2170 25.7200 9108.00 9137.65 95.00
2171 25.7300 9287.00 9345.14 96.00
2172 25.7400 9433.00 9532.44 97.00
2173 25.7500 9645.00 9670.11 98.00
2174 25.7600 9704.00 9734.13 99.00
2175 25.7700 9657.00 9719.28 98.00
2176 25.7800 9616.00 9640.65 98.00
2177 25.7900 9398.00 9523.14 97.00
2178 25.8000 9200.00 9389.99 96.00
2179 25.8100 9091.00 9263.00 95.00
2180 25.8200 8993.00 9156.52 95.00
2181 25.8300 8944.00 9081.28 95.00
2182 25.8400 8928.00 9049.83 94.00
2183 25.8500 8969.00 9069.94 95.00
2184 25.8600 8975.00 9150.90 95.00
2185 25.8700 9102.00 9302.76 95.00
2186 25.8800 9285.00 9536.02 96.00
2187 25.8900 9556.00 9860.58 98.00
2188 25.9000 9986.00 10284.10 100.00
2189 25.9100 10527.00 10808.50 103.00
2190 25.9200 11111.00 11424.50 105.00
2191 25.9300 11830.00 12105.20 109.00
2192 25.9400 12574.00 12792.30 112.00
2193 25.9500 13250.00 13393.00 115.00
2194 25.9600 13768.00 13805.80 117.00
2195 25.9700 13857.00 13952.20 118.00
2196 25.9800 13579.00 13829.30 117.00
2197 25.9900 13243.00 13472.20 115.00
2198 26.0000 12614.00 12938.90 112.00
2199 26.0100 12027.00 12323.60 110.00
2200 26.0200 11510.00 11732.20 107.00
2201 26.0300 11075.00 11240.00 105.00
2202 26.0400 10615.00 10884.80 103.00
2203 26.0500 10455.00 10680.80 102.00
2204 26.0600 10448.00 10627.90 102.00
2205 26.0700 10515.00 10716.00 103.00
2206 26.0800 10801.00 10922.70 104.00
2207 26.0900 11079.00 11206.00 105.00
2208 26.1000 11303.00 11491.60 106.00
2209 26.1100 11535.00 11676.00 107.00
2210 26.1200 11558.00 11672.00 108.00
2211 26.1300 11479.00 11471.00 107.00
2212 26.1400 11159.00 11139.80 106.00
2213 26.1500 10764.00 10762.50 104.00
2214 26.1600 10282.00 10401.20 101.00
2215 26.1700 9967.00 10089.20 100.00
2216 26.1800 9711.00 9839.68 99.00
2217 26.1900 9484.00 9653.45 97.00
2218 26.2000 9414.00 9525.63 97.00
2219 26.2100 9289.00 9448.72 96.00
2220 26.2200 9145.00 9414.73 96.00
2221 26.2300 9241.00 9415.86 96.00
2222 26.2400 9220.00 9444.73 96.00
2223 26.2500 9349.00 9493.85 97.00
2224 26.2600 9495.00 9555.02 97.00
2225 26.2700 9603.00 9618.52 98.00
2226 26.2800 9640.00 9672.95 98.00
2227 26.2900 9754.00 9705.80 99.00
2228 26.3000 9805.00 9705.70 99.00
2229 26.3100 9736.00 9665.43 99.00
2230 26.3200 9624.00 9584.30 98.00
2231 26.3300 9443.00 9468.33 97.00
2232 26.3400 9212.00 9327.75 96.00
2233 26.3500 9044.00 9173.98 95.00
2234 26.3600 8878.00 9017.06 94.00
2235 26.3700 8703.00 8864.74 93.00
2236 26.3800 8632.00 8722.32 93.00
2237 26.3900 8479.00 8593.19 92.00
2238 26.4000 8330.00 8479.10 91.00
2239 26.4100 8238.00 8380.79 91.00
2240 26.4200 8180.00 8297.82 90.00
2241 26.4300 8154.00 8229.98 90.00
2242 26.4400 8079.00 8175.92 90.00
2243 26.4500 8083.00 8134.35 90.00
2244 26.4600 7959.00 8104.02 89.00
2245 26.4700 7993.00 8083.78 89.00
2246 26.4800 8067.00 8072.81 90.00
2247 26.4900 8007.00 8074.51 89.00
2248 26.5000 8061.00 8081.20 90.00
2249 26.5100 8087.00 8097.17 90.00
2250 26.5200 8016.00 8123.25 90.00
2251 26.5300 8102.00 8160.56 90.00
2252 26.5400 8186.00 8210.14 90.00
2253 26.5500 8223.00 8272.72 91.00
2254 26.5600 8315.00 8348.08 91.00
2255 26.5700 8398.00 8434.50 92.00
2256 26.5800 8426.00 8527.46 92.00
2257 26.5900 8539.00 8618.49 92.00
2258 26.6000 8608.00 8694.25 93.00
2259 26.6100 8647.00 8738.52 93.00
2260 26.6200 8649.00 8738.48 93.00
2261 26.6300 8636.00 8692.26 93.00
2262 26.6400 8459.00 8610.38 92.00
2263 26.6500 8339.00 8509.21 91.00
2264 26.6600 8278.00 8403.62 91.00
2265 26.6700 8167.00 8303.73 90.00
2266 26.6800 8125.00 8215.10 90.00
2267 26.6900 8014.00 8140.15 90.00
2268 26.7000 7934.00 8079.32 89.00
2269 26.7100 7908.00 8031.85 89.00
2270 26.7200 7887.00 7996.29 89.00
2271 26.7300 7881.00 7970.93 89.00
2272 26.7400 7902.00 7954.02 89.00
2273 26.7500 7908.00 7944.00 89.00
2274 26.7600 7891.00 7939.59 89.00
2275 26.7700 7928.00 7939.81 89.00
2276 26.7800 7962.00 7944.03 89.00
2277 26.7900 7977.00 7950.46 89.00
2278 26.8000 7989.00 7961.79 89.00
2279 26.8100 8004.00 7976.73 89.00
2280 26.8200 7917.00 7995.67 89.00
2281 26.8300 7991.00 8019.24 89.00
2282 26.8400 7966.00 8048.35 89.00
2283 26.8500 8004.00 8084.15 89.00
2284 26.8600 8054.00 8128.14 90.00
2285 26.8700 8146.00 8181.79 90.00
2286 26.8800 8134.00 8246.52 90.00
2287 26.8900 8281.00 8323.32 91.00
2288 26.9000 8290.00 8412.14 91.00
2289 26.9100 8442.00 8510.87 92.00
2290 26.9200 8585.00 8615.16 93.00
2291 26.9300 8711.00 8722.21 93.00
2292 26.9400 8760.00 8837.37 94.00
2293 26.9500 8900.00 8976.40 94.00
2294 26.9600 9055.00 9159.54 95.00
2295 26.9700 9318.00 9405.87 97.00
2296 26.9800 9642.00 9731.39 98.00
2297 26.9900 10089.00 10147.60 100.00
2298 27.0000 10455.00 10660.10 102.00
2299 27.0100 11138.00 11263.80 106.00
2300 27.0200 11845.00 11936.60 109.00
2301 27.0300 12624.00 12627.90 112.00
2302 27.0400 13445.00 13250.20 116.00
2303 27.0500 13928.00 13687.90 118.00
2304 27.0600 13973.00 13845.90 118.00
2305 27.0700 13812.00 13710.30 118.00
2306 27.0800 13424.00 13354.60 116.00
2307 27.0900 12845.00 12886.10 113.00
2308 27.1000 12411.00 12390.90 111.00
2309 27.1100 11901.00 11919.00 109.00
2310 27.1200 11325.00 11494.10 106.00
2311 27.1300 10989.00 11126.30 105.00
2312 27.1400 10666.00 10819.80 103.00
2313 27.1500 10437.00 10574.70 102.00
2314 27.1600 10308.00 10386.10 102.00
2315 27.1700 10168.00 10253.00 101.00
2316 27.1800 10064.00 10166.30 100.00
2317 27.1900 10001.00 10118.70 100.00
2318 27.2000 10033.00 10102.40 100.00
2319 27.2100 9971.00 10110.30 100.00
2320 27.2200 10109.00 10135.70 101.00
2321 27.2300 10196.00 10174.40 101.00
2322 27.2400 10149.00 10225.60 101.00
2323 27.2500 10254.00 10293.30 101.00
2324 27.2600 10252.00 10385.20 101.00
2325 27.2700 10360.00 10511.70 102.00
2326 27.2800 10570.00 10684.30 103.00
2327 27.2900 10757.00 10915.30 104.00
2328 27.3000 10924.00 11217.30 105.00
2329 27.3100 11316.00 11602.90 106.00
2330 27.3200 11773.00 12083.60 109.00
2331 27.3300 12381.00 12668.60 111.00
2332 27.3400 13032.00 13362.10 114.00
2333 27.3500 13780.00 14160.90 117.00
2334 27.3600 14577.00 15048.60 121.00
2335 27.3700 15589.00 15988.60 125.00
2336 27.3800 16567.00 16913.40 129.00
2337 27.3900 17534.00 17721.80 132.00
2338 27.4000 18259.00 18297.10 135.00
2339 27.4100 18670.00 18555.90 137.00
2340 27.4200 18521.00 18494.10 136.00
2341 27.4300 18259.00 18181.80 135.00
2342 27.4400 17741.00 17710.10 133.00
2343 27.4500 17164.00 17153.30 131.00
2344 27.4600 16487.00 16558.60 128.00
2345 27.4700 15776.00 15954.20 126.00
2346 27.4800 14906.00 15356.50 122.00
2347 27.4900 14221.00 14776.80 119.00
2348 27.5000 13560.00 14222.30 116.00
2349 27.5100 12959.00 13698.10 114.00
2350 27.5200 12435.00 13207.20 112.00
2351 27.5300 11946.00 12752.20 109.00
2352 27.5400 11490.00 12335.10 107.00
2353 27.5500 11201.00 11958.90 106.00
2354 27.5600 10927.00 11627.10 105.00
2355 27.5700 10677.00 11343.90 103.00
2356 27.5800 10618.00 11114.40 103.00
2357 27.5900 10474.00 10943.90 102.00
2358 27.6000 10387.00 10837.70 102.00
2359 27.6100 10432.00 10800.10 102.00
2360 27.6200 10515.00 10833.90 103.00
2361 27.6300 10656.00 10939.20 103.00
2362 27.6400 10937.00 11111.50 105.00
2363 27.6500 11240.00 11339.20 106.00
2364 27.6600 11481.00 11600.00 107.00
2365 27.6700 11869.00 11858.20 109.00
2366 27.6800 12061.00 12067.70 110.00
2367 27.6900 12137.00 12194.50 110.00
2368 27.7000 12231.00 12227.80 111.00
2369 27.7100 12170.00 12192.10 110.00
2370 27.7200 11989.00 12128.20 109.00
2371 27.7300 11952.00 12067.50 109.00
2372 27.7400 11913.00 12021.80 109.00
2373 27.7500 11914.00 11972.00 109.00
2374 27.7600 11863.00 11883.80 109.00
2375 27.7700 11758.00 11729.80 108.00
2376 27.7800 11394.00 11511.30 107.00
2377 27.7900 11128.00 11259.10 105.00
2378 27.8000 10876.00 11013.60 104.00
2379 27.8100 10642.00 10806.70 103.00
2380 27.8200 10515.00 10655.20 103.00
2381 27.8300 10435.00 10566.00 102.00
2382 27.8400 10359.00 10536.10 102.00
2383 27.8500 10456.00 10557.50 102.00
2384 27.8600 10510.00 10618.20 103.00
2385 27.8700 10668.00 10702.70 103.00
2386 27.8800 10832.00 10796.90 104.00
2387 27.8900 10883.00 10872.40 104.00
2388 27.9000 10805.00 10915.80 104.00
2389 27.9100 10940.00 10912.20 105.00
2390 27.9200 10808.00 10855.00 104.00
2391 27.9300 10677.00 10746.00 103.00
2392 27.9400 10439.00 10594.70 102.00
2393 27.9500 10218.00 10414.80 101.00
2394 27.9600 9961.00 10220.80 100.00
2395 27.9700 9778.00 10025.70 99.00
2396 27.9800 9511.00 9840.17 98.00
2397 27.9900 9353.00 9672.31 97.00
2398 28.0000 9276.00 9528.26 96.00
2399 28.0100 9164.00 9412.31 96.00
2400 28.0200 9059.00 9327.34 95.00
2401 28.0300 9051.00 9275.12 95.00
2402 28.0400 9084.00 9255.86 95.00
2403 28.0500 9094.00 9268.39 95.00
2404 28.0600 9195.00 9309.96 96.00
2405 28.0700 9312.00 9376.23 96.00
2406 28.0800 9324.00 9461.39 97.00
2407 28.0900 9436.00 9557.93 97.00
2408 28.1000 9509.00 9659.23 98.00
2409 28.1100 9561.00 9754.89 98.00
2410 28.1200 9691.00 9832.28 98.00
2411 28.1300 9711.00 9876.33 99.00
2412 28.1400 9623.00 9872.81 98.00
2413 28.1500 9583.00 9814.24 98.00
2414 28.1600 9485.00 9704.21 97.00
2415 28.1700 9317.00 9556.27 97.00
2416 28.1800 9135.00 9388.19 96.00
2417 28.1900 8990.00 9216.58 95.00
2418 28.2000 8801.00 9053.92 94.00
2419 28.2100 8676.00 8907.99 93.00
2420 28.2200 8566.00 8785.08 93.00
2421 28.2300 8508.00 8687.61 92.00
2422 28.2400 8501.00 8617.35 92.00
2423 28.2500 8535.00 8575.57 92.00
2424 28.2600 8397.00 8563.41 92.00
2425 28.2700 8402.00 8582.29 92.00
2426 28.2800 8515.00 8634.05 92.00
2427 28.2900 8516.00 8720.84 92.00
2428 28.3000 8687.00 8844.87 93.00
2429 28.3100 8837.00 9007.79 94.00
2430 28.3200 8942.00 9209.99 95.00
2431 28.3300 9233.00 9448.89 96.00
2432 28.3400 9535.00 9718.11 98.00
2433 28.3500 9864.00 10008.10 99.00
2434 28.3600 10195.00 10283.30 101.00
2435 28.3700 10451.00 10512.50 102.00
2436 28.3800 10521.00 10655.90 103.00
2437 28.3900 10613.00 10688.30 103.00
2438 28.4000 10487.00 10611.00 102.00
2439 28.4100 10251.00 10448.10 101.00
2440 28.4200 10043.00 10234.40 100.00
2441 28.4300 9740.00 10002.70 99.00
2442 28.4400 9511.00 9778.88 98.00
2443 28.4500 9293.00 9579.61 96.00
2444 28.4600 9133.00 9411.79 96.00
2445 28.4700 9020.00 9271.52 95.00
2446 28.4800 8899.00 9145.21 94.00
2447 28.4900 8805.00 9019.01 94.00
2448 28.5000 8670.00 8892.43 93.00
2449 28.5100 8605.00 8778.38 93.00
2450 28.5200 8551.00 8690.29 92.00
2451 28.5300 8470.00 8635.79 92.00
2452 28.5400 8521.00 8618.30 92.00
2453 28.5500 8497.00 8639.21 92.00
2454 28.5600 8478.00 8699.58 92.00
2455 28.5700 8633.00 8800.56 93.00
2456 28.5800 8779.00 8943.11 94.00
2457 28.5900 8925.00 9127.43 94.00
2458 28.6000 9212.00 9352.03 96.00
2459 28.6100 9511.00 9611.50 98.00
2460 28.6200 9869.00 9896.46 99.00
2461 28.6300 10198.00 10187.10 101.00
2462 28.6400 10499.00 10453.30 102.00
2463 28.6500 10759.00 10655.50 104.00
2464 28.6600 10879.00 10755.90 104.00
2465 28.6700 10783.00 10736.30 104.00
2466 28.6800 10485.00 10608.70 102.00
2467 28.6900 10184.00 10408.90 101.00
2468 28.7000 9892.00 10178.60 99.00
2469 28.7100 9614.00 9952.30 98.00
2470 28.7200 9437.00 9752.18 97.00
2471 28.7300 9308.00 9589.76 96.00
2472 28.7400 9188.00 9468.42 96.00
2473 28.7500 9214.00 9385.34 96.00
2474 28.7600 9240.00 9333.21 96.00
2475 28.7700 9207.00 9302.20 96.00
2476 28.7800 9170.00 9284.96 96.00
2477 28.7900 9186.00 9277.24 96.00
2478 28.8000 9108.00 9282.26 95.00
2479 28.8100 9150.00 9297.08 96.00
2480 28.8200 9120.00 9327.39 95.00
2481 28.8300 9167.00 9376.64 96.00
2482 28.8400 9252.00 9451.05 96.00
2483 28.8500 9344.00 9557.20 97.00
2484 28.8600 9390.00 9701.56 97.00
2485 28.8700 9608.00 9888.55 98.00
2486 28.8800 9800.00 10119.60 99.00
2487 28.8900 10113.00 10392.90 101.00
2488 28.9000 10447.00 10702.80 102.00
2489 28.9100 10785.00 11038.60 104.00
2490 28.9200 11163.00 11383.30 106.00
2491 28.9300 11608.00 11712.50 108.00
2492 28.9400 11923.00 11995.50 109.00
2493 28.9500 12167.00 12201.00 110.00
2494 28.9600 12343.00 12306.00 111.00
2495 28.9700 12234.00 12304.20 111.00
2496 28.9800 11953.00 12208.90 109.00
2497 28.9900 11740.00 12047.10 108.00
2498 29.0000 11503.00 11851.30 107.00
2499 29.0100 11201.00 11650.20 106.00
2500 29.0200 11013.00 11465.60 105.00
2501 29.0300 10857.00 11310.50 104.00
2502 29.0400 10765.00 11189.90 104.00
2503 29.0500 10711.00 11101.00 103.00
2504 29.0600 10751.00 11033.90 104.00
2505 29.0700 10740.00 10973.80 104.00
2506 29.0800 10722.00 10901.80 104.00
2507 29.0900 10612.00 10806.80 103.00
2508 29.1000 10474.00 10679.40 102.00
2509 29.1100 10367.00 10520.00 102.00
2510 29.1200 10125.00 10333.80 101.00
2511 29.1300 9946.00 10128.60 100.00
2512 29.1400 9721.00 9912.64 99.00
2513 29.1500 9451.00 9693.95 97.00
2514 29.1600 9138.00 9480.06 96.00
2515 29.1700 9044.00 9277.46 95.00
2516 29.1800 8887.00 9090.84 94.00
2517 29.1900 8713.00 8923.15 93.00
2518 29.2000 8589.00 8775.73 93.00
2519 29.2100 8511.00 8647.99 92.00
2520 29.2200 8377.00 8541.08 92.00
2521 29.2300 8321.00 8452.96 91.00
2522 29.2400 8243.00 8382.56 91.00
2523 29.2500 8252.00 8328.94 91.00
2524 29.2600 8194.00 8291.69 91.00
2525 29.2700 8241.00 8269.88 91.00
2526 29.2800 8131.00 8265.71 90.00
2527 29.2900 8190.00 8278.42 90.00
2528 29.3000 8188.00 8307.51 90.00
2529 29.3100 8226.00 8350.93 91.00
2530 29.3200 8317.00 8403.35 91.00
2531 29.3300 8385.00 8454.00 92.00
2532 29.3400 8363.00 8486.81 91.00
2533 29.3500 8425.00 8487.55 92.00
2534 29.3600 8387.00 8454.59 92.00
2535 29.3700 8321.00 8400.22 91.00
2536 29.3800 8291.00 8340.48 91.00
2537 29.3900 8279.00 8286.58 91.00
2538 29.4000 8163.00 8244.63 90.00
2539 29.4100 8174.00 8216.53 90.00
2540 29.4200 8207.00 8202.58 91.00
2541 29.4300 8183.00 8202.45 90.00
2542 29.4400 8240.00 8215.83 91.00
2543 29.4500 8244.00 8242.83 91.00
2544 29.4600 8242.00 8284.10 91.00
2545 29.4700 8359.00 8340.99 91.00
2546 29.4800 8442.00 8415.36 92.00
2547 29.4900 8543.00 8509.40 92.00
2548 29.5000 8715.00 8625.33 93.00
2549 29.5100 8854.00 8764.75 94.00
2550 29.5200 8966.00 8928.21 95.00
2551 29.5300 9173.00 9113.85 96.00
2552 29.5400 9381.00 9316.11 97.00
2553 29.5500 9593.00 9524.32 98.00
2554 29.5600 9783.00 9724.77 99.00
2555 29.5700 9949.00 9906.86 100.00
2556 29.5800 10030.00 10071.30 100.00
2557 29.5900 10196.00 10232.30 101.00
2558 29.6000 10318.00 10410.40 102.00
2559 29.6100 10555.00 10624.40 103.00
2560 29.6200 10803.00 10885.90 104.00
2561 29.6300 11176.00 11199.40 106.00
2562 29.6400 11444.00 11561.80 107.00
2563 29.6500 11931.00 11962.60 109.00
2564 29.6600 12344.00 12382.30 111.00
2565 29.6700 12839.00 12791.90 113.00
2566 29.6800 13256.00 13155.30 115.00
2567 29.6900 13642.00 13439.20 117.00
2568 29.7000 13752.00 13622.70 117.00
2569 29.7100 13837.00 13702.70 118.00
2570 29.7200 13666.00 13691.30 117.00
2571 29.7300 13451.00 13606.90 116.00
2572 29.7400 13281.00 13475.20 115.00
2573 29.7500 13056.00 13322.20 114.00
2574 29.7600 12764.00 13171.40 113.00
2575 29.7700 12656.00 13040.60 112.00
2576 29.7800 12586.00 12939.90 112.00
2577 29.7900 12471.00 12869.70 112.00
2578 29.8000 12592.00 12820.90 112.00
2579 29.8100 12625.00 12774.90 112.00
2580 29.8200 12522.00 12706.50 112.00
2581 29.8300 12561.00 12589.50 112.00
2582 29.8400 12395.00 12404.10 111.00
2583 29.8500 12027.00 12143.70 110.00
2584 29.8600 11710.00 11816.70 108.00
2585 29.8700 11341.00 11443.90 106.00
2586 29.8800 10778.00 11050.60 104.00
2587 29.8900 10393.00 10660.90 102.00
2588 29.9000 10034.00 10292.00 100.00
2589 29.9100 9727.00 9955.40 99.00
2590 29.9200 9482.00 9656.73 97.00
2591 29.9300 9215.00 9398.09 96.00
2592 29.9400 8996.00 9178.61 95.00
2593 29.9500 8856.00 8996.01 94.00
2594 29.9600 8724.00 8846.76 93.00
2595 29.9700 8628.00 8726.82 93.00
2596 29.9800 8618.00 8631.98 93.00
2597 29.9900 8536.00 8558.15 92.00
2598 30.0000 8403.00 8501.58 92.00
2599 30.0100 8419.00 8458.94 92.00
2600 30.0200 8403.00 8427.45 92.00
2601 30.0300 8397.00 8404.78 92.00
2602 30.0400 8324.00 8388.93 91.00
2603 30.0500 8319.00 8378.83 91.00
2604 30.0600 8272.00 8373.41 91.00
2605 30.0700 8317.00 8372.12 91.00
2606 30.0800 8303.00 8374.70 91.00
2607 30.0900 8289.00 8381.04 91.00
2608 30.1000 8324.00 8391.05 91.00
2609 30.1100 8335.00 8404.61 91.00
2610 30.1200 8277.00 8421.41 91.00
2611 30.1300 8320.00 8440.99 91.00
2612 30.1400 8339.00 8462.77 91.00
2613 30.1500 8374.00 8486.01 92.00
2614 30.1600 8491.00 8509.99 92.00
2615 30.1700 8493.00 8534.13 92.00
2616 30.1800 8494.00 8558.53 92.00
2617 30.1900 8560.00 8584.03 93.00
2618 30.2000 8571.00 8612.92 93.00
2619 30.2100 8594.00 8649.16 93.00
2620 30.2200 8683.00 8698.52 93.00
2621 30.2300 8755.00 8768.18 94.00
2622 30.2400 8821.00 8865.76 94.00
2623 30.2500 8942.00 8997.34 95.00
2624 30.2600 9069.00 9162.76 95.00
2625 30.2700 9225.00 9351.61 96.00
2626 30.2800 9387.00 9527.71 97.00
2627 30.2900 9465.00 9640.25 97.00
2628 30.3000 9426.00 9667.50 97.00
2629 30.3100 9441.00 9646.83 97.00
2630 30.3200 9478.00 9638.47 97.00
2631 30.3300 9556.00 9683.50 98.00
2632 30.3400 9672.00 9798.80 98.00
2633 30.3500 9926.00 9986.20 100.00
2634 30.3600 10051.00 10238.50 100.00
2635 30.3700 10446.00 10542.50 102.00
2636 30.3800 10829.00 10879.10 104.00
2637 30.3900 11207.00 11221.60 106.00
2638 30.4000 11696.00 11534.00 108.00
2639 30.4100 11874.00 11770.90 109.00
2640 30.4200 11919.00 11886.80 109.00
2641 30.4300 11853.00 11854.20 109.00
2642 30.4400 11562.00 11677.50 108.00
2643 30.4500 11083.00 11391.30 105.00
2644 30.4600 10726.00 11043.80 104.00
2645 30.4700 10323.00 10678.80 102.00
2646 30.4800 9923.00 10328.30 100.00
2647 30.4900 9665.00 10011.60 98.00
2648 30.5000 9436.00 9738.43 97.00
2649 30.5100 9241.00 9511.87 96.00
2650 30.5200 9161.00 9331.01 96.00
2651 30.5300 9041.00 9191.95 95.00
2652 30.5400 8874.00 9089.21 94.00
2653 30.5500 8919.00 9016.59 94.00
2654 30.5600 8862.00 8967.88 94.00
2655 30.5700 8920.00 8937.65 94.00
2656 30.5800 8939.00 8921.82 95.00
2657 30.5900 8941.00 8918.15 95.00
2658 30.6000 8887.00 8926.38 94.00
2659 30.6100 8917.00 8948.03 94.00
2660 30.6200 8871.00 8985.79 94.00
2661 30.6300 8954.00 9042.61 95.00
2662 30.6400 9088.00 9120.69 95.00
2663 30.6500 9192.00 9219.87 96.00
2664 30.6600 9245.00 9335.58 96.00
2665 30.6700 9394.00 9456.10 97.00
2666 30.6800 9543.00 9561.28 98.00
2667 30.6900 9590.00 9627.24 98.00
2668 30.7000 9663.00 9639.47 98.00
2669 30.7100 9567.00 9604.07 98.00
2670 30.7200 9471.00 9544.51 97.00
2671 30.7300 9424.00 9487.70 97.00
2672 30.7400 9386.00 9452.74 97.00
2673 30.7500 9384.00 9457.23 97.00
2674 30.7600 9513.00 9495.63 98.00
2675 30.7700 9653.00 9571.80 98.00
2676 30.7800 9765.00 9681.51 99.00
2677 30.7900 9941.00 9817.68 100.00
2678 30.8000 10056.00 9971.34 100.00
2679 30.8100 10260.00 10133.70 101.00
2680 30.8200 10383.00 10297.80 102.00
2681 30.8300 10550.00 10460.20 103.00
2682 30.8400 10641.00 10619.20 103.00
2683 30.8500 10752.00 10772.70 104.00
2684 30.8600 10892.00 10917.10 104.00
2685 30.8700 11033.00 11048.40 105.00
2686 30.8800 11162.00 11165.70 106.00
2687 30.8900 11206.00 11274.50 106.00
2688 30.9000 11229.00 11385.10 106.00
2689 30.9100 11313.00 11509.90 106.00
2690 30.9200 11485.00 11658.30 107.00
2691 30.9300 11682.00 11834.10 108.00
2692 30.9400 12016.00 12034.40 110.00
2693 30.9500 12350.00 12248.60 111.00
2694 30.9600 12521.00 12460.60 112.00
2695 30.9700 12805.00 12648.70 113.00
2696 30.9800 12962.00 12791.10 114.00
2697 30.9900 13005.00 12869.20 114.00
2698 31.0000 12984.00 12871.90 114.00
2699 31.0100 12876.00 12802.00 113.00
2700 31.0200 12540.00 12680.60 112.00
2701 31.0300 12410.00 12541.00 111.00
2702 31.0400 12296.00 12415.00 111.00
2703 31.0500 12131.00 12326.90 110.00
2704 31.0600 12060.00 12291.50 110.00
2705 31.0700 12046.00 12310.30 110.00
2706 31.0800 11973.00 12363.50 109.00
2707 31.0900 12066.00 12400.30 110.00
2708 31.1000 11996.00 12342.50 110.00
2709 31.1100 11727.00 12122.80 108.00
2710 31.1200 11441.00 11738.80 107.00
2711 31.1300 10971.00 11254.80 105.00
2712 31.1400 10414.00 10751.10 102.00
2713 31.1500 10027.00 10286.40 100.00
2714 31.1600 9717.00 9880.98 99.00
2715 31.1700 9455.00 9544.55 97.00
2716 31.1800 9218.00 9274.28 96.00
2717 31.1900 9012.00 9062.90 95.00
2718 31.2000 8801.00 8901.91 94.00
2719 31.2100 8772.00 8782.79 94.00
2720 31.2200 8668.00 8698.24 93.00
2721 31.2300 8613.00 8642.50 93.00
2722 31.2400 8651.00 8611.38 93.00
2723 31.2500 8670.00 8601.51 93.00
2724 31.2600 8607.00 8612.06 93.00
2725 31.2700 8652.00 8641.25 93.00
2726 31.2800 8705.00 8688.15 93.00
2727 31.2900 8736.00 8751.87 93.00
2728 31.3000 8870.00 8832.03 94.00
2729 31.3100 8969.00 8927.66 95.00
2730 31.3200 9039.00 9037.62 95.00
2731 31.3300 9150.00 9159.25 96.00
2732 31.3400 9296.00 9287.85 96.00
2733 31.3500 9429.00 9415.57 97.00
2734 31.3600 9634.00 9531.65 98.00
2735 31.3700 9697.00 9623.97 98.00
2736 31.3800 9696.00 9682.94 98.00
2737 31.3900 9706.00 9704.98 99.00
2738 31.4000 9618.00 9693.34 98.00
2739 31.4100 9608.00 9655.45 98.00
2740 31.4200 9581.00 9599.15 98.00
2741 31.4300 9549.00 9530.45 98.00
2742 31.4400 9442.00 9453.21 97.00
2743 31.4500 9357.00 9370.88 97.00
2744 31.4600 9314.00 9287.91 97.00
2745 31.4700 9234.00 9210.22 96.00
2746 31.4800 9190.00 9143.96 96.00
2747 31.4900 9181.00 9094.57 96.00
2748 31.5000 9004.00 9066.38 95.00
2749 31.5100 9115.00 9063.01 95.00
2750 31.5200 9167.00 9087.92 96.00
2751 31.5300 9199.00 9144.27 96.00
2752 31.5400 9326.00 9234.16 97.00
2753 31.5500 9460.00 9358.51 97.00
2754 31.5600 9511.00 9516.56 98.00
2755 31.5700 9765.00 9705.46 99.00
2756 31.5800 9936.00 9920.30 100.00
2757 31.5900 10208.00 10151.90 101.00
2758 31.6000 10514.00 10386.30 103.00
2759 31.6100 10713.00 10604.60 104.00
2760 31.6200 10844.00 10785.20 104.00
2761 31.6300 10919.00 10909.80 104.00
2762 31.6400 10953.00 10970.70 105.00
2763 31.6500 10868.00 10974.50 104.00
2764 31.6600 10871.00 10938.80 104.00
2765 31.6700 10774.00 10883.90 104.00
2766 31.6800 10730.00 10824.60 104.00
2767 31.6900 10665.00 10766.00 103.00
2768 31.7000 10627.00 10705.10 103.00
2769 31.7100 10594.00 10637.90 103.00
2770 31.7200 10500.00 10568.30 102.00
2771 31.7300 10415.00 10510.20 102.00
2772 31.7400 10355.00 10482.00 102.00
2773 31.7500 10373.00 10498.70 102.00
2774 31.7600 10476.00 10565.50 102.00
2775 31.7700 10578.00 10675.30 103.00
2776 31.7800 10779.00 10806.30 104.00
2777 31.7900 10942.00 10921.00 105.00
2778 31.8000 10912.00 10974.20 104.00
2779 31.8100 10923.00 10934.20 105.00
2780 31.8200 10726.00 10800.30 104.00
2781 31.8300 10566.00 10599.70 103.00
2782 31.8400 10350.00 10369.00 102.00
2783 31.8500 10077.00 10139.00 100.00
2784 31.8600 9763.00 9931.44 99.00
2785 31.8700 9606.00 9759.52 98.00
2786 31.8800 9489.00 9629.78 97.00
2787 31.8900 9448.00 9543.58 97.00
2788 31.9000 9452.00 9498.19 97.00
2789 31.9100 9501.00 9487.08 97.00
2790 31.9200 9521.00 9499.76 98.00
2791 31.9300 9609.00 9522.01 98.00
2792 31.9400 9588.00 9537.59 98.00
2793 31.9500 9582.00 9532.01 98.00
2794 31.9600 9613.00 9496.78 98.00
2795 31.9700 9529.00 9430.98 98.00
2796 31.9800 9313.00 9338.97 97.00
2797 31.9900 9286.00 9226.89 96.00
2798 32.0000 9072.00 9100.86 95.00
2799 32.0100 8963.00 8966.83 95.00
2800 32.0200 8829.00 8830.96 94.00
2801 32.0300 8726.00 8699.18 93.00
2802 32.0400 8543.00 8576.43 92.00
2803 32.0500 8436.00 8466.08 92.00
2804 32.0600 8356.00 8370.20 91.00
2805 32.0700 8241.00 8289.42 91.00
2806 32.0800 8225.00 8223.65 91.00
2807 32.0900 8147.00 8172.24 90.00
2808 32.1000 8082.00 8134.28 90.00
2809 32.1100 8076.00 8108.73 90.00
2810 32.1200 8064.00 8094.46 90.00
2811 32.1300 8078.00 8090.40 90.00
2812 32.1400 8134.00 8095.49 90.00
2813 32.1500 8150.00 8108.64 90.00
2814 32.1600 8166.00 8128.78 90.00
2815 32.1700 8197.00 8154.72 91.00
2816 32.1800 8208.00 8185.17 91.00
2817 32.1900 8236.00 8218.69 91.00
2818 32.2000 8335.00 8253.45 91.00
2819 32.2100 8316.00 8287.03 91.00
2820 32.2200 8342.00 8317.79 91.00
2821 32.2300 8372.00 8342.92 91.00
2822 32.2400 8370.00 8360.08 91.00
2823 32.2500 8422.00 8367.57 92.00
2824 32.2600 8455.00 8364.61 92.00
2825 32.2700 8419.00 8351.62 92.00
2826 32.2800 8359.00 8330.06 91.00
2827 32.2900 8360.00 8302.18 91.00
2828 32.3000 8353.00 8270.57 91.00
2829 32.3100 8271.00 8237.80 91.00
2830 32.3200 8285.00 8206.30 91.00
2831 32.3300 8276.00 8178.18 91.00
2832 32.3400 8195.00 8155.46 91.00
2833 32.3500 8260.00 8139.86 91.00
2834 32.3600 8229.00 8132.59 91.00
2835 32.3700 8224.00 8136.36 91.00
2836 32.3800 8253.00 8152.33 91.00
2837 32.3900 8312.00 8182.21 91.00
2838 32.4000 8280.00 8227.64 91.00
2839 32.4100 8432.00 8290.12 92.00
2840 32.4200 8484.00 8370.84 92.00
2841 32.4300 8581.00 8470.64 93.00
2842 32.4400 8715.00 8589.67 93.00
2843 32.4500 8879.00 8726.96 94.00
2844 32.4600 8968.00 8880.48 95.00
2845 32.4700 9110.00 9045.95 95.00
2846 32.4800 9296.00 9216.79 96.00
2847 32.4900 9516.00 9382.73 98.00
2848 32.5000 9741.00 9530.77 99.00
2849 32.5100 9839.00 9644.91 99.00
2850 32.5200 9780.00 9710.18 99.00
2851 32.5300 9771.00 9716.80 99.00
2852 32.5400 9640.00 9663.94 98.00
2853 32.5500 9517.00 9560.12 98.00
2854 32.5600 9344.00 9420.18 97.00
2855 32.5700 9167.00 9260.05 96.00
2856 32.5800 8954.00 9093.96 95.00
2857 32.5900 8834.00 8932.29 94.00
2858 32.6000 8678.00 8782.21 93.00
2859 32.6100 8537.00 8647.44 92.00
2860 32.6200 8526.00 8530.81 92.00
2861 32.6300 8398.00 8432.78 92.00
2862 32.6400 8313.00 8352.99 91.00
2863 32.6500 8237.00 8290.45 91.00
2864 32.6600 8245.00 8243.63 91.00
2865 32.6700 8248.00 8210.89 91.00
2866 32.6800 8359.00 8190.53 91.00
2867 32.6900 8314.00 8180.68 91.00
2868 32.7000 8232.00 8179.72 91.00
2869 32.7100 8269.00 8185.95 91.00
2870 32.7200 8289.00 8198.48 91.00
2871 32.7300 8287.00 8215.95 91.00
2872 32.7400 8393.00 8237.36 92.00
2873 32.7500 8405.00 8261.78 92.00
2874 32.7600 8381.00 8288.38 92.00
2875 32.7700 8420.00 8316.45 92.00
2876 32.7800 8486.00 8345.39 92.00
2877 32.7900 8546.00 8377.40 92.00
2878 32.8000 8552.00 8406.75 92.00
2879 32.8100 8621.00 8435.73 93.00
2880 32.8200 8539.00 8463.88 92.00
2881 32.8300 8574.00 8490.43 93.00
2882 32.8400 8619.00 8514.26 93.00
2883 32.8500 8589.00 8533.57 93.00
2884 32.8600 8636.00 8545.92 93.00
2885 32.8700 8612.00 8548.49 93.00
2886 32.8800 8568.00 8538.79 93.00
2887 32.8900 8514.00 8515.69 92.00
2888 32.9000 8492.00 8480.04 92.00
2889 32.9100 8426.00 8434.65 92.00
2890 32.9200 8393.00 8383.33 92.00
2891 32.9300 8346.00 8329.91 91.00
2892 32.9400 8249.00 8277.65 91.00
2893 32.9500 8215.00 8229.03 91.00
2894 32.9600 8162.00 8185.69 90.00
2895 32.9700 8108.00 8148.77 90.00
2896 32.9800 8175.00 8118.50 90.00
2897 32.9900 8166.00 8096.03 90.00
2898 33.0000 8126.00 8080.90 90.00
2899 33.0100 8145.00 8072.73 90.00
2900 33.0200 8159.00 8070.65 90.00
2901 33.0300 8181.00 8073.15 90.00
2902 33.0400 8192.00 8077.66 91.00
2903 33.0500 8195.00 8081.43 91.00
2904 33.0600 8172.00 8081.30 90.00
2905 33.0700 8182.00 8075.85 90.00
2906 33.0800 8179.00 8065.78 90.00
2907 33.0900 8145.00 8053.00 90.00
2908 33.1000 8192.00 8039.74 91.00
2909 33.1100 8200.00 8027.37 91.00
2910 33.1200 8144.00 8016.78 90.00
2911 33.1300 8152.00 8008.51 90.00
2912 33.1400 8163.00 8002.89 90.00
2913 33.1500 8118.00 8000.15 90.00
2914 33.1600 8139.00 8000.51 90.00
2915 33.1700 8146.00 8004.15 90.00
2916 33.1800 8098.00 8014.53 90.00
2917 33.1900 8104.00 8025.85 90.00
2918 33.2000 8120.00 8041.59 90.00
2919 33.2100 8113.00 8062.81 90.00
2920 33.2200 8157.00 8089.95 90.00
2921 33.2300 8203.00 8123.64 91.00
2922 33.2400 8219.00 8164.44 91.00
2923 33.2500 8332.00 8212.89 91.00
2924 33.2600 8371.00 8269.47 91.00
2925 33.2700 8411.00 8334.56 92.00
2926 33.2800 8525.00 8408.51 92.00
2927 33.2900 8654.00 8491.39 93.00
2928 33.3000 8660.00 8583.29 93.00
2929 33.3100 8796.00 8683.80 94.00
2930 33.3200 8944.00 8792.41 95.00
2931 33.3300 9066.00 8908.20 95.00
2932 33.3400 9207.00 9030.49 96.00
2933 33.3500 9348.00 9158.47 97.00
2934 33.3600 9414.00 9291.78 97.00
2935 33.3700 9533.00 9430.44 98.00
2936 33.3800 9618.00 9573.90 98.00
2937 33.3900 9767.00 9720.61 99.00
2938 33.4000 9963.00 9866.31 100.00
2939 33.4100 10099.00 10004.80 100.00
2940 33.4200 10118.00 10126.20 101.00
2941 33.4300 10279.00 10219.60 101.00
2942 33.4400 10356.00 10276.60 102.00
2943 33.4500 10334.00 10298.30 102.00
2944 33.4600 10408.00 10296.00 102.00
2945 33.4700 10395.00 10291.40 102.00
2946 33.4800 10331.00 10310.50 102.00
2947 33.4900 10428.00 10376.30 102.00
2948 33.5000 10599.00 10504.50 103.00
2949 33.5100 10755.00 10698.50 104.00
2950 33.5200 10998.00 10945.80 105.00
2951 33.5300 11153.00 11193.40 106.00
2952 33.5400 11208.00 11367.10 106.00
2953 33.5500 11253.00 11396.20 106.00
2954 33.5600 11156.00 11275.00 106.00
2955 33.5700 10899.00 11067.00 104.00
2956 33.5800 10855.00 10849.50 104.00
2957 33.5900 10711.00 10672.00 103.00
2958 33.6000 10540.00 10552.60 103.00
2959 33.6100 10466.00 10489.40 102.00
2960 33.6200 10497.00 10469.70 102.00
2961 33.6300 10575.00 10473.80 103.00
2962 33.6400 10609.00 10479.40 103.00
2963 33.6500 10557.00 10466.00 103.00
2964 33.6600 10464.00 10421.30 102.00
2965 33.6700 10423.00 10345.30 102.00
2966 33.6800 10256.00 10248.80 101.00
2967 33.6900 10184.00 10148.80 101.00
2968 33.7000 10117.00 10062.50 101.00
2969 33.7100 10020.00 10004.50 100.00
2970 33.7200 9963.00 9986.31 100.00
2971 33.7300 10019.00 10015.90 100.00
2972 33.7400 10077.00 10098.50 100.00
2973 33.7500 10297.00 10235.80 101.00
2974 33.7600 10534.00 10425.20 103.00
2975 33.7700 10817.00 10658.30 104.00
2976 33.7800 11064.00 10917.40 105.00
2977 33.7900 11350.00 11173.50 107.00
2978 33.8000 11562.00 11385.90 108.00
2979 33.8100 11671.00 11511.00 108.00
2980 33.8200 11740.00 11520.90 108.00
2981 33.8300 11592.00 11419.60 108.00
2982 33.8400 11205.00 11241.20 106.00
2983 33.8500 11025.00 11031.80 105.00
2984 33.8600 10779.00 10831.20 104.00
2985 33.8700 10663.00 10665.90 103.00
2986 33.8800 10623.00 10549.80 103.00
2987 33.8900 10614.00 10488.00 103.00
2988 33.9000 10550.00 10479.20 103.00
2989 33.9100 10691.00 10518.10 103.00
2990 33.9200 10808.00 10595.20 104.00
2991 33.9300 10973.00 10697.90 105.00
2992 33.9400 11238.00 10810.80 106.00
2993 33.9500 11349.00 10915.80 107.00
2994 33.9600 11441.00 10994.80 107.00
2995 33.9700 11471.00 11031.50 107.00
2996 33.9800 11415.00 11015.20 107.00
2997 33.9900 11188.00 10944.00 106.00
2998 34.0000 11058.00 10823.70 105.00
2999 34.0100 10725.00 10666.50 104.00
3000 34.0200 10400.00 10487.20 102.00
3001 34.0300 10227.00 10298.70 101.00
3002 34.0400 9975.00 10113.20 100.00
3003 34.0500 9858.00 9936.16 99.00
3004 34.0600 9813.00 9772.67 99.00
3005 34.0700 9644.00 9621.30 98.00
3006 34.0800 9486.00 9478.89 97.00
3007 34.0900 9348.00 9340.62 97.00
3008 34.1000 9286.00 9202.58 96.00
3009 34.1100 9212.00 9064.90 96.00
3010 34.1200 9091.00 8930.21 95.00
3011 34.1300 8992.00 8803.58 95.00
3012 34.1400 8830.00 8689.87 94.00
3013 34.1500 8806.00 8592.73 94.00
3014 34.1600 8740.00 8514.19 93.00
3015 34.1700 8678.00 8455.47 93.00
3016 34.1800 8671.00 8417.41 93.00
3017 34.1900 8733.00 8400.97 93.00
3018 34.2000 8603.00 8407.44 93.00
3019 34.2100 8751.00 8438.51 94.00
3020 34.2200 8768.00 8496.13 94.00
3021 34.2300 8881.00 8582.14 94.00
3022 34.2400 9002.00 8697.38 95.00
3023 34.2500 9169.00 8840.91 96.00
3024 34.2600 9262.00 9006.79 96.00
3025 34.2700 9476.00 9181.28 97.00
3026 34.2800 9634.00 9340.94 98.00
3027 34.2900 9734.00 9457.33 99.00
3028 34.3000 9816.00 9512.27 99.00
3029 34.3100 9835.00 9508.93 99.00
3030 34.3200 9701.00 9465.61 98.00
3031 34.3300 9692.00 9399.00 98.00
3032 34.3400 9578.00 9318.77 98.00
3033 34.3500 9479.00 9226.22 97.00
3034 34.3600 9370.00 9122.94 97.00
3035 34.3700 9280.00 9013.66 96.00
3036 34.3800 9055.00 8906.87 95.00
3037 34.3900 8985.00 8806.84 95.00
3038 34.4000 8896.00 8720.07 94.00
3039 34.4100 8811.00 8649.57 94.00
3040 34.4200 8784.00 8596.76 94.00
3041 34.4300 8768.00 8561.83 94.00
3042 34.4400 8766.00 8544.20 94.00
3043 34.4500 8760.00 8542.77 94.00
3044 34.4600 8742.00 8555.84 93.00
3045 34.4700 8774.00 8581.30 94.00
3046 34.4800 8913.00 8616.80 94.00
3047 34.4900 8934.00 8660.25 95.00
3048 34.5000 8871.00 8710.47 94.00
3049 34.5100 8950.00 8767.50 95.00
3050 34.5200 9068.00 8832.50 95.00
3051 34.5300 9038.00 8907.17 95.00
3052 34.5400 9173.00 8992.73 96.00
3053 34.5500 9285.00 9089.57 96.00
3054 34.5600 9366.00 9196.27 97.00
3055 34.5700 9539.00 9309.70 98.00
3056 34.5800 9620.00 9424.46 98.00
3057 34.5900 9776.00 9533.38 99.00
3058 34.6000 9901.00 9627.27 100.00
3059 34.6100 9972.00 9696.16 100.00
3060 34.6200 9897.00 9730.69 99.00
3061 34.6300 9853.00 9724.26 99.00
3062 34.6400 9757.00 9675.58 99.00
3063 34.6500 9665.00 9589.97 98.00
3064 34.6600 9516.00 9477.85 98.00
3065 34.6700 9377.00 9351.95 97.00
3066 34.6800 9243.00 9223.87 96.00
3067 34.6900 9127.00 9102.58 96.00
3068 34.7000 9049.00 8994.17 95.00
3069 34.7100 9000.00 8902.26 95.00
3070 34.7200 8896.00 8828.78 94.00
3071 34.7300 8893.00 8774.23 94.00
3072 34.7400 8809.00 8738.22 94.00
3073 34.7500 8895.00 8719.61 94.00
3074 34.7600 8870.00 8716.60 94.00
3075 34.7700 8902.00 8726.57 94.00
3076 34.7800 8937.00 8745.78 95.00
3077 34.7900 8968.00 8769.11 95.00
3078 34.8000 8929.00 8789.96 94.00
3079 34.8100 8962.00 8800.80 95.00
3080 34.8200 8955.00 8795.66 95.00
3081 34.8300 8916.00 8771.04 94.00
3082 34.8400 8895.00 8728.05 94.00
3083 34.8500 8868.00 8671.74 94.00
3084 34.8600 8722.00 8609.14 93.00
3085 34.8700 8655.00 8547.27 93.00
3086 34.8800 8624.00 8492.26 93.00
3087 34.8900 8528.00 8447.94 92.00
3088 34.9000 8563.00 8416.94 93.00
3089 34.9100 8563.00 8402.27 93.00
3090 34.9200 8580.00 8404.45 93.00
3091 34.9300 8597.00 8423.89 93.00
3092 34.9400 8680.00 8460.50 93.00
3093 34.9500 8750.00 8513.40 94.00
3094 34.9600 8893.00 8581.01 94.00
3095 34.9700 8958.00 8660.59 95.00
3096 34.9800 9018.00 8748.12 95.00
3097 34.9900 9174.00 8838.01 96.00
3098 35.0000 9270.00 8924.15 96.00
3099 35.0100 9359.00 9000.96 97.00
3100 35.0200 9390.00 9065.77 97.00
3101 35.0300 9462.00 9119.83 97.00
3102 35.0400 9404.00 9167.72 97.00
3103 35.0500 9508.00 9215.18 98.00
3104 35.0600 9527.00 9266.57 98.00
3105 35.0700 9629.00 9323.18 98.00
3106 35.0800 9726.00 9382.22 99.00
3107 35.0900 9754.00 9437.14 99.00
3108 35.1000 9751.00 9479.19 99.00
3109 35.1100 9792.00 9501.07 99.00
3110 35.1200 9732.00 9500.51 99.00
3111 35.1300 9661.00 9481.93 98.00
3112 35.1400 9608.00 9454.69 98.00
3113 35.1500 9603.00 9429.13 98.00
3114 35.1600 9486.00 9414.33 97.00
3115 35.1700 9570.00 9415.18 98.00
3116 35.1800 9562.00 9432.88 98.00
3117 35.1900 9637.00 9464.62 98.00
3118 35.2000 9709.00 9503.41 99.00
3119 35.2100 9731.00 9538.31 99.00
3120 35.2200 9739.00 9555.69 99.00
3121 35.2300 9738.00 9542.41 99.00
3122 35.2400 9634.00 9490.15 98.00
3123 35.2500 9570.00 9398.62 98.00
3124 35.2600 9441.00 9275.44 97.00
3125 35.2700 9312.00 9132.13 96.00
3126 35.2800 9012.00 8981.29 95.00
3127 35.2900 8885.00 8832.96 94.00
3128 35.3000 8761.00 8693.86 94.00
3129 35.3100 8665.00 8568.23 93.00
3130 35.3200 8632.00 8458.25 93.00
3131 35.3300 8564.00 8364.88 93.00
3132 35.3400 8448.00 8288.00 92.00
3133 35.3500 8369.00 8226.97 91.00
3134 35.3600 8386.00 8180.54 92.00
3135 35.3700 8316.00 8147.89 91.00
3136 35.3800 8359.00 8127.51 91.00
3137 35.3900 8411.00 8117.86 92.00
3138 35.4000 8355.00 8117.90 91.00
3139 35.4100 8413.00 8126.09 92.00
3140 35.4200 8449.00 8141.12 92.00
3141 35.4300 8449.00 8161.35 92.00
3142 35.4400 8546.00 8184.84 92.00
3143 35.4500 8606.00 8209.17 93.00
3144 35.4600 8550.00 8231.58 92.00
3145 35.4700 8545.00 8249.44 92.00
3146 35.4800 8578.00 8261.30 93.00
3147 35.4900 8635.00 8267.42 93.00
3148 35.5000 8641.00 8269.75 93.00
3149 35.5100 8594.00 8271.17 93.00
3150 35.5200 8561.00 8274.45 93.00
3151 35.5300 8586.00 8281.52 93.00
3152 35.5400 8585.00 8293.32 93.00
3153 35.5500 8574.00 8310.28 93.00
3154 35.5600 8600.00 8332.78 93.00
3155 35.5700 8668.00 8361.66 93.00
3156 35.5800 8658.00 8398.32 93.00
3157 35.5900 8744.00 8444.55 94.00
3158 35.6000 8757.00 8502.36 94.00
3159 35.6100 8810.00 8573.47 94.00
3160 35.6200 8912.00 8660.20 94.00
3161 35.6300 9047.00 8761.25 95.00
3162 35.6400 9127.00 8877.86 96.00
3163 35.6500 9225.00 9009.47 96.00
3164 35.6600 9355.00 9154.69 97.00
3165 35.6700 9518.00 9310.72 98.00
3166 35.6800 9733.00 9473.84 99.00
3167 35.6900 9916.00 9638.61 100.00
3168 35.7000 10029.00 9797.97 100.00
3169 35.7100 10206.00 9944.48 101.00
3170 35.7200 10347.00 10071.10 102.00
3171 35.7300 10381.00 10173.00 102.00
3172 35.7400 10558.00 10248.00 103.00
3173 35.7500 10538.00 10296.30 103.00
3174 35.7600 10564.00 10319.30 103.00
3175 35.7700 10495.00 10318.90 102.00
3176 35.7800 10491.00 10296.50 102.00
3177 35.7900 10403.00 10252.70 102.00
3178 35.8000 10404.00 10188.50 102.00
3179 35.8100 10262.00 10105.00 101.00
3180 35.8200 10063.00 10004.30 100.00
3181 35.8300 9999.00 9889.60 100.00
3182 35.8400 9852.00 9764.90 99.00
3183 35.8500 9648.00 9634.92 98.00
3184 35.8600 9538.00 9504.14 98.00
3185 35.8700 9444.00 9376.67 97.00
3186 35.8800 9314.00 9255.87 97.00
3187 35.8900 9189.00 9144.28 96.00
3188 35.9000 9125.00 9043.76 96.00
3189 35.9100 9040.00 8955.41 95.00
3190 35.9200 9018.00 8881.01 95.00
3191 35.9300 8994.00 8817.89 95.00
3192 35.9400 8865.00 8766.31 94.00
3193 35.9500 8885.00 8726.13 94.00
3194 35.9600 8895.00 8695.32 94.00
3195 35.9700 8890.00 8671.75 94.00
3196 35.9800 8921.00 8653.42 94.00
3197 35.9900 8934.00 8637.84 95.00
3198 36.0000 8814.00 8623.21 94.00
3199 36.0100 8873.00 8609.03 94.00
3200 36.0200 8826.00 8596.38 94.00
3201 36.0300 8874.00 8587.62 94.00
3202 36.0400 8900.00 8585.83 94.00
3203 36.0500 8858.00 8594.36 94.00
3204 36.0600 8812.00 8616.68 94.00
3205 36.0700 8906.00 8656.26 94.00
3206 36.0800 8928.00 8716.02 94.00
3207 36.0900 8999.00 8797.58 95.00
3208 36.1000 9076.00 8900.11 95.00
3209 36.1100 9216.00 9020.99 96.00
3210 36.1200 9280.00 9158.63 96.00
3211 36.1300 9506.00 9315.13 97.00
3212 36.1400 9677.00 9494.19 98.00
3213 36.1500 9895.00 9693.28 99.00
3214 36.1600 10124.00 9898.73 101.00
3215 36.1700 10277.00 10084.00 101.00
3216 36.1800 10280.00 10215.80 101.00
3217 36.1900 10334.00 10264.90 102.00
3218 36.2000 10249.00 10218.50 101.00
3219 36.2100 10088.00 10085.80 100.00
3220 36.2200 9963.00 9893.84 100.00
3221 36.2300 9753.00 9677.55 99.00
3222 36.2400 9536.00 9464.96 98.00
3223 36.2500 9411.00 9272.86 97.00
3224 36.2600 9262.00 9108.73 96.00
3225 36.2700 9151.00 8974.91 96.00
3226 36.2800 9051.00 8871.61 95.00
3227 36.2900 8984.00 8798.57 95.00
3228 36.3000 8902.00 8755.15 94.00
3229 36.3100 8898.00 8741.04 94.00
3230 36.3200 8955.00 8756.16 95.00
3231 36.3300 8954.00 8800.95 95.00
3232 36.3400 9088.00 8876.52 95.00
3233 36.3500 9168.00 8983.82 96.00
3234 36.3600 9261.00 9125.53 96.00
3235 36.3700 9451.00 9302.85 97.00
3236 36.3800 9658.00 9516.31 98.00
3237 36.3900 9872.00 9765.10 99.00
3238 36.4000 10181.00 10045.00 101.00
3239 36.4100 10482.00 10347.50 102.00
3240 36.4200 10670.00 10656.30 103.00
3241 36.4300 10997.00 10946.70 105.00
3242 36.4400 11273.00 11187.90 106.00
3243 36.4500 11441.00 11351.40 107.00
3244 36.4600 11607.00 11422.90 108.00
3245 36.4700 11547.00 11409.00 107.00
3246 36.4800 11394.00 11331.50 107.00
3247 36.4900 11366.00 11216.00 107.00
3248 36.5000 11183.00 11082.60 106.00
3249 36.5100 11053.00 10943.50 105.00
3250 36.5200 10913.00 10804.30 104.00
3251 36.5300 10771.00 10666.20 104.00
3252 36.5400 10570.00 10529.00 103.00
3253 36.5500 10445.00 10391.60 102.00
3254 36.5600 10269.00 10253.10 101.00
3255 36.5700 10083.00 10112.80 100.00
3256 36.5800 10006.00 9970.42 100.00
3257 36.5900 9838.00 9826.26 99.00
3258 36.6000 9640.00 9681.48 98.00
3259 36.6100 9500.00 9538.30 97.00
3260 36.6200 9392.00 9399.75 97.00
3261 36.6300 9241.00 9269.34 96.00
3262 36.6400 9194.00 9150.11 96.00
3263 36.6500 9070.00 9044.84 95.00
3264 36.6600 8973.00 8955.53 95.00
3265 36.6700 8889.00 8883.83 94.00
3266 36.6800 8861.00 8830.76 94.00
3267 36.6900 8856.00 8797.06 94.00
3268 36.7000 8866.00 8783.34 94.00
3269 36.7100 8888.00 8789.68 94.00
3270 36.7200 8874.00 8815.92 94.00
3271 36.7300 8973.00 8861.51 95.00
3272 36.7400 9000.00 8925.31 95.00
3273 36.7500 9094.00 9006.65 95.00
3274 36.7600 9254.00 9100.56 96.00
3275 36.7700 9320.00 9203.89 97.00
3276 36.7800 9429.00 9310.84 97.00
3277 36.7900 9529.00 9414.08 98.00
3278 36.8000 9598.00 9505.79 98.00
3279 36.8100 9628.00 9579.42 98.00
3280 36.8200 9728.00 9632.59 99.00
3281 36.8300 9763.00 9668.54 99.00
3282 36.8400 9674.00 9695.22 98.00
3283 36.8500 9711.00 9722.56 99.00
3284 36.8600 9778.00 9759.80 99.00
3285 36.8700 9794.00 9814.21 99.00
3286 36.8800 9940.00 9890.38 100.00
3287 36.8900 10047.00 9990.28 100.00
3288 36.9000 10154.00 10112.90 101.00
3289 36.9100 10360.00 10254.00 102.00
3290 36.9200 10531.00 10405.20 103.00
3291 36.9300 10709.00 10554.50 103.00
3292 36.9400 10881.00 10687.10 104.00
3293 36.9500 11041.00 10787.70 105.00
3294 36.9600 10974.00 10844.70 105.00
3295 36.9700 11029.00 10853.80 105.00
3296 36.9800 10898.00 10818.50 104.00
3297 36.9900 10784.00 10748.60 104.00
3298 37.0000 10655.00 10656.30 103.00
3299 37.0100 10519.00 10553.10 103.00
3300 37.0200 10331.00 10447.50 102.00
3301 37.0300 10218.00 10343.60 101.00
3302 37.0400 10101.00 10243.00 101.00
3303 37.0500 10075.00 10143.70 100.00
3304 37.0600 10062.00 10044.00 100.00
3305 37.0700 9882.00 9942.82 99.00
3306 37.0800 9724.00 9840.85 99.00
3307 37.0900 9687.00 9739.67 98.00
3308 37.1000 9588.00 9641.67 98.00
3309 37.1100 9503.00 9549.27 97.00
3310 37.1200 9477.00 9464.73 97.00
3311 37.1300 9373.00 9389.70 97.00
3312 37.1400 9307.00 9324.88 96.00
3313 37.1500 9249.00 9269.81 96.00
3314 37.1600 9270.00 9222.83 96.00
3315 37.1700 9205.00 9181.34 96.00
3316 37.1800 9266.00 9142.27 96.00
3317 37.1900 9173.00 9102.48 96.00
3318 37.2000 9092.00 9059.35 95.00
3319 37.2100 9095.00 9010.86 95.00
3320 37.2200 9066.00 8956.69 95.00
3321 37.2300 9004.00 8897.08 95.00
3322 37.2400 8924.00 8833.38 94.00
3323 37.2500 8823.00 8767.31 94.00
3324 37.2600 8745.00 8700.85 94.00
3325 37.2700 8640.00 8635.71 93.00
3326 37.2800 8586.00 8573.17 93.00
3327 37.2900 8571.00 8514.21 93.00
3328 37.3000 8543.00 8459.04 92.00
3329 37.3100 8458.00 8408.40 92.00
3330 37.3200 8338.00 8361.48 91.00
3331 37.3300 8351.00 8318.99 91.00
3332 37.3400 8322.00 8280.13 91.00
3333 37.3500 8311.00 8244.63 91.00
3334 37.3600 8244.00 8212.16 91.00
3335 37.3700 8261.00 8182.51 91.00
3336 37.3800 8161.00 8155.59 90.00
3337 37.3900 8159.00 8131.43 90.00
3338 37.4000 8119.00 8110.29 90.00
3339 37.4100 8057.00 8092.59 90.00
3340 37.4200 8081.00 8078.91 90.00
3341 37.4300 8108.00 8070.12 90.00
3342 37.4400 8052.00 8066.68 90.00
3343 37.4500 8107.00 8069.80 90.00
3344 37.4600 8088.00 8079.92 90.00
3345 37.4700 8057.00 8097.65 90.00
3346 37.4800 8084.00 8123.47 90.00
3347 37.4900 8140.00 8157.64 90.00
3348 37.5000 8193.00 8200.18 91.00
3349 37.5100 8248.00 8250.75 91.00
3350 37.5200 8288.00 8308.44 91.00
3351 37.5300 8329.00 8371.72 91.00
3352 37.5400 8479.00 8438.07 92.00
3353 37.5500 8518.00 8504.14 92.00
3354 37.5600 8513.00 8565.57 92.00
3355 37.5700 8525.00 8617.65 92.00
3356 37.5800 8577.00 8656.15 93.00
3357 37.5900 8598.00 8678.40 93.00
3358 37.6000 8651.00 8683.59 93.00
3359 37.6100 8644.00 8673.51 93.00
3360 37.6200 8561.00 8650.00 93.00
3361 37.6300 8533.00 8615.03 92.00
3362 37.6400 8427.00 8570.04 92.00
3363 37.6500 8376.00 8516.23 92.00
3364 37.6600 8320.00 8455.36 91.00
3365 37.6700 8317.00 8389.79 91.00
3366 37.6800 8211.00 8322.58 91.00
3367 37.6900 8114.00 8257.01 90.00
3368 37.7000 8067.00 8196.02 90.00
3369 37.7100 8024.00 8141.86 90.00
3370 37.7200 8062.00 8096.17 90.00
3371 37.7300 8033.00 8059.93 90.00
3372 37.7400 7984.00 8033.69 89.00
3373 37.7500 8024.00 8017.77 90.00
3374 37.7600 7962.00 8012.91 89.00
3375 37.7700 8007.00 8017.91 89.00
3376 37.7800 8074.00 8033.42 90.00
3377 37.7900 8137.00 8059.40 90.00
3378 37.8000 8052.00 8095.89 90.00
3379 37.8100 8086.00 8142.89 90.00
3380 37.8200 8164.00 8200.41 90.00
3381 37.8300 8262.00 8268.33 91.00
3382 37.8400 8357.00 8346.17 91.00
3383 37.8500 8414.00 8434.06 92.00
3384 37.8600 8466.00 8530.84 92.00
3385 37.8700 8613.00 8635.38 93.00
3386 37.8800 8701.00 8745.48 93.00
3387 37.8900 8851.00 8858.29 94.00
3388 37.9000 8952.00 8969.38 95.00
3389 37.9100 9014.00 9073.14 95.00
3390 37.9200 9043.00 9163.17 95.00
3391 37.9300 9178.00 9234.49 96.00
3392 37.9400 9186.00 9284.85 96.00
3393 37.9500 9273.00 9314.76 96.00
3394 37.9600 9333.00 9325.93 97.00
3395 37.9700 9277.00 9319.65 96.00
3396 37.9800 9176.00 9296.68 96.00
3397 37.9900 9133.00 9257.70 96.00
3398 38.0000 9022.00 9203.79 95.00
3399 38.0100 8981.00 9136.74 95.00
3400 38.0200 8946.00 9058.89 95.00
3401 38.0300 8815.00 8972.81 94.00
3402 38.0400 8676.00 8880.97 93.00
3403 38.0500 8580.00 8785.96 93.00
3404 38.0600 8486.00 8689.96 92.00
3405 38.0700 8366.00 8594.75 91.00
3406 38.0800 8306.00 8502.89 91.00
3407 38.0900 8247.00 8413.65 91.00
3408 38.1000 8105.00 8329.15 90.00
3409 38.1100 8071.00 8250.23 90.00
3410 38.1200 8000.00 8177.36 89.00
3411 38.1300 7951.00 8111.29 89.00
3412 38.1400 7922.00 8052.20 89.00
3413 38.1500 7856.00 8000.34 89.00
3414 38.1600 7820.00 7955.70 88.00
3415 38.1700 7805.00 7918.29 88.00
3416 38.1800 7810.00 7887.95 88.00
3417 38.1900 7802.00 7864.35 88.00
3418 38.2000 7780.00 7847.01 88.00
3419 38.2100 7815.00 7835.13 88.00
3420 38.2200 7730.00 7827.59 88.00
3421 38.2300 7751.00 7822.82 88.00
3422 38.2400 7709.00 7819.09 88.00
3423 38.2500 7712.00 7814.87 88.00
3424 38.2600 7748.00 7809.35 88.00
3425 38.2700 7759.00 7802.59 88.00
3426 38.2800 7690.00 7795.31 88.00
3427 38.2900 7712.00 7788.36 88.00
3428 38.3000 7683.00 7782.34 88.00
3429 38.3100 7681.00 7777.43 88.00
3430 38.3200 7663.00 7773.43 88.00
3431 38.3300 7690.00 7769.91 88.00
3432 38.3400 7627.00 7767.63 87.00
3433 38.3500 7642.00 7763.93 87.00
3434 38.3600 7678.00 7759.96 88.00
3435 38.3700 7651.00 7755.95 87.00
3436 38.3800 7689.00 7752.29 88.00
3437 38.3900 7687.00 7749.54 88.00
3438 38.4000 7642.00 7748.26 87.00
3439 38.4100 7644.00 7749.02 87.00
3440 38.4200 7662.00 7752.32 88.00
3441 38.4300 7639.00 7758.56 87.00
3442 38.4400 7733.00 7768.06 88.00
3443 38.4500 7687.00 7780.75 88.00
3444 38.4600 7681.00 7796.92 88.00
3445 38.4700 7761.00 7816.16 88.00
3446 38.4800 7790.00 7838.10 88.00
3447 38.4900 7747.00 7862.31 88.00
3448 38.5000 7867.00 7888.55 89.00
3449 38.5100 7850.00 7916.84 89.00
3450 38.5200 7880.00 7947.54 89.00
3451 38.5300 7859.00 7981.44 89.00
3452 38.5400 7933.00 8018.83 89.00
3453 38.5500 7960.00 8060.05 89.00
3454 38.5600 8054.00 8104.37 90.00
3455 38.5700 8033.00 8149.98 90.00
3456 38.5800 8087.00 8193.52 90.00
3457 38.5900 8125.00 8230.80 90.00
3458 38.6000 8176.00 8257.86 90.00
3459 38.6100 8154.00 8272.76 90.00
3460 38.6200 8220.00 8275.94 91.00
3461 38.6300 8217.00 8269.94 91.00
3462 38.6400 8124.00 8258.29 90.00
3463 38.6500 8105.00 8244.70 90.00
3464 38.6600 8122.00 8232.29 90.00
3465 38.6700 8112.00 8223.21 90.00
3466 38.6800 8169.00 8218.15 90.00
3467 38.6900 8132.00 8216.11 90.00
3468 38.7000 8084.00 8214.53 90.00
3469 38.7100 8119.00 8209.85 90.00
3470 38.7200 8123.00 8198.74 90.00
3471 38.7300 8078.00 8179.22 90.00
3472 38.7400 8099.00 8151.36 90.00
3473 38.7500 8066.00 8117.27 90.00
3474 38.7600 7933.00 8080.31 89.00
3475 38.7700 7974.00 8044.18 89.00
3476 38.7800 7882.00 8012.04 89.00
3477 38.7900 7894.00 7986.04 89.00
3478 38.8000 7868.00 7967.56 89.00
3479 38.8100 7870.00 7956.58 89.00
3480 38.8200 7823.00 7952.09 88.00
3481 38.8300 7863.00 7952.06 89.00
3482 38.8400 7824.00 7953.73 88.00
3483 38.8500 7822.00 7954.36 88.00
3484 38.8600 7868.00 7952.29 89.00
3485 38.8700 7859.00 7947.53 89.00
3486 38.8800 7776.00 7941.46 88.00
3487 38.8900 7782.00 7935.95 88.00
3488 38.9000 7833.00 7932.61 89.00
3489 38.9100 7797.00 7932.37 88.00
3490 38.9200 7842.00 7935.54 89.00
3491 38.9300 7802.00 7941.71 88.00
3492 38.9400 7803.00 7949.87 88.00
3493 38.9500 7845.00 7958.38 89.00
3494 38.9600 7844.00 7965.12 89.00
3495 38.9700 7830.00 7967.73 88.00
3496 38.9800 7865.00 7964.16 89.00
3497 38.9900 7915.00 7953.39 89.00
3498 39.0000 7834.00 7935.90 89.00
3499 39.0100 7764.00 7913.62 88.00
3500 39.0200 7734.00 7889.33 88.00
3501 39.0300 7684.00 7865.86 88.00
3502 39.0400 7712.00 7845.65 88.00
3503 39.0500 7675.00 7830.60 88.00
3504 39.0600 7632.00 7821.92 87.00
3505 39.0700 7633.00 7820.46 87.00
3506 39.0800 7679.00 7826.58 88.00
3507 39.0900 7649.00 7840.38 87.00
3508 39.1000 7715.00 7861.60 88.00
3509 39.1100 7802.00 7889.63 88.00
3510 39.1200 7796.00 7923.50 88.00
3511 39.1300 7835.00 7961.72 89.00
3512 39.1400 7899.00 8002.51 89.00
3513 39.1500 7878.00 8044.67 89.00
3514 39.1600 7963.00 8084.94 89.00
3515 39.1700 8027.00 8122.82 90.00
3516 39.1800 7999.00 8157.63 89.00
3517 39.1900 8089.00 8188.77 90.00
3518 39.2000 8064.00 8215.48 90.00
3519 39.2100 8133.00 8236.57 90.00
3520 39.2200 8127.00 8251.10 90.00
3521 39.2300 8120.00 8257.56 90.00
3522 39.2400 7999.00 8257.01 89.00
3523 39.2500 8086.00 8249.76 90.00
3524 39.2600 8091.00 8237.48 90.00
3525 39.2700 8002.00 8222.19 89.00
3526 39.2800 8085.00 8205.82 90.00
3527 39.2900 8029.00 8189.84 90.00
3528 39.3000 7955.00 8175.11 89.00
3529 39.3100 8011.00 8162.04 90.00
3530 39.3200 7960.00 8150.69 89.00
3531 39.3300 8009.00 8141.58 89.00
3532 39.3400 8031.00 8134.60 90.00
3533 39.3500 8027.00 8130.15 90.00
3534 39.3600 7949.00 8127.32 89.00
3535 39.3700 7953.00 8124.52 89.00
3536 39.3800 7983.00 8119.30 89.00
3537 39.3900 7978.00 8108.71 89.00
3538 39.4000 8036.00 8089.97 90.00
3539 39.4100 7987.00 8061.44 89.00
3540 39.4200 7903.00 8023.09 89.00
3541 39.4300 7892.00 7977.15 89.00
3542 39.4400 7818.00 7926.41 88.00
3543 39.4500 7707.00 7874.08 88.00
3544 39.4600 7727.00 7822.81 88.00
3545 39.4700 7723.00 7774.47 88.00
3546 39.4800 7607.00 7730.53 87.00
3547 39.4900 7636.00 7691.60 87.00
3548 39.5000 7591.00 7658.00 87.00
3549 39.5100 7544.00 7629.81 87.00
3550 39.5200 7532.00 7606.91 87.00
3551 39.5300 7555.00 7589.09 87.00
3552 39.5400 7451.00 7576.15 86.00
3553 39.5500 7475.00 7567.81 86.00
3554 39.5600 7476.00 7564.50 86.00
3555 39.5700 7459.00 7564.63 86.00
3556 39.5800 7525.00 7568.69 87.00
3557 39.5900 7544.00 7576.51 87.00
3558 39.6000 7484.00 7587.93 87.00
3559 39.6100 7532.00 7602.84 87.00
3560 39.6200 7566.00 7621.10 87.00
3561 39.6300 7556.00 7642.26 87.00
3562 39.6400 7620.00 7666.70 87.00
3563 39.6500 7655.00 7693.80 87.00
3564 39.6600 7625.00 7723.19 87.00
3565 39.6700 7684.00 7754.22 88.00
3566 39.6800 7726.00 7786.18 88.00
3567 39.6900 7720.00 7818.11 88.00
3568 39.7000 7782.00 7849.03 88.00
3569 39.7100 7841.00 7878.08 89.00
3570 39.7200 7779.00 7904.71 88.00
3571 39.7300 7782.00 7928.84 88.00
3572 39.7400 7800.00 7950.93 88.00
3573 39.7500 7846.00 7971.79 89.00
3574 39.7600 7877.00 7992.30 89.00
3575 39.7700 7912.00 8013.16 89.00
3576 39.7800 7877.00 8034.52 89.00
3577 39.7900 7910.00 8055.51 89.00
3578 39.8000 7982.00 8075.55 89.00
3579 39.8100 7948.00 8092.65 89.00
3580 39.8200 7991.00 8105.26 89.00
3581 39.8300 7986.00 8112.59 89.00
3582 39.8400 7979.00 8114.96 89.00
3583 39.8500 7984.00 8113.81 89.00
3584 39.8600 7935.00 8111.16 89.00
3585 39.8700 7977.00 8109.09 89.00
3586 39.8800 8007.00 8109.33 89.00
3587 39.8900 7930.00 8113.08 89.00
3588 39.9000 7938.00 8121.06 89.00
3589 39.9100 7970.00 8133.65 89.00
3590 39.9200 8029.00 8150.90 90.00
3591 39.9300 8057.00 8172.63 90.00
3592 39.9400 8134.00 8198.59 90.00
3593 39.9500 8158.00 8228.06 90.00
3594 39.9600 8153.00 8260.09 90.00
3595 39.9700 8220.00 8293.31 91.00
3596 39.9800 8222.00 8326.02 91.00
3597 39.9900 8259.00 8356.17 91.00
3598 40.0000 8322.00 8381.69 91.00
3599 40.0100 8354.00 8400.72 91.00
3600 40.0200 8337.00 8412.07 91.00
3601 40.0300 8396.00 8415.30 92.00
3602 40.0400 8275.00 8410.80 91.00
3603 40.0500 8267.00 8399.56 91.00
3604 40.0600 8278.00 8383.04 91.00
3605 40.0700 8249.00 8362.87 91.00
3606 40.0800 8149.00 8340.73 90.00
3607 40.0900 8163.00 8318.22 90.00
3608 40.1000 8128.00 8296.66 90.00
3609 40.1100 8089.00 8277.71 90.00
3610 40.1200 8121.00 8262.33 90.00
3611 40.1300 8135.00 8251.42 90.00
3612 40.1400 8046.00 8245.61 90.00
3613 40.1500 8085.00 8245.46 90.00
3614 40.1600 8093.00 8251.20 90.00
3615 40.1700 8104.00 8262.84 90.00
3616 40.1800 8190.00 8280.08 90.00
3617 40.1900 8229.00 8302.30 91.00
3618 40.2000 8195.00 8328.54 91.00
3619 40.2100 8235.00 8357.65 91.00
3620 40.2200 8220.00 8388.43 91.00
3621 40.2300 8303.00 8419.79 91.00
3622 40.2400 8397.00 8450.91 92.00
3623 40.2500 8437.00 8481.04 92.00
3624 40.2600 8402.00 8509.27 92.00
3625 40.2700 8412.00 8534.38 92.00
3626 40.2800 8400.00 8555.00 92.00
3627 40.2900 8395.00 8570.08 92.00
3628 40.3000 8479.00 8579.58 92.00
3629 40.3100 8480.00 8584.77 92.00
3630 40.3200 8427.00 8588.14 92.00
3631 40.3300 8382.00 8592.61 92.00
3632 40.3400 8376.00 8600.93 92.00
3633 40.3500 8347.00 8614.71 91.00
3634 40.3600 8413.00 8636.03 92.00
3635 40.3700 8509.00 8664.54 92.00
3636 40.3800 8503.00 8698.96 92.00
3637 40.3900 8529.00 8736.37 92.00
3638 40.4000 8590.00 8771.83 93.00
3639 40.4100 8590.00 8798.96 93.00
3640 40.4200 8620.00 8811.79 93.00
3641 40.4300 8642.00 8807.24 93.00
3642 40.4400 8570.00 8786.37 93.00
3643 40.4500 8575.00 8753.39 93.00
3644 40.4600 8524.00 8713.53 92.00
3645 40.4700 8498.00 8671.57 92.00
3646 40.4800 8485.00 8631.00 92.00
3647 40.4900 8462.00 8594.09 92.00
3648 40.5000 8388.00 8561.95 92.00
3649 40.5100 8431.00 8534.69 92.00
3650 40.5200 8385.00 8511.57 92.00
3651 40.5300 8394.00 8491.03 92.00
3652 40.5400 8340.00 8470.83 91.00
3653 40.5500 8348.00 8448.54 91.00
3654 40.5600 8275.00 8424.04 91.00
3655 40.5700 8310.00 8393.50 91.00
3656 40.5800 8216.00 8360.08 91.00
3657 40.5900 8226.00 8326.22 91.00
3658 40.6000 8178.00 8294.42 90.00
3659 40.6100 8172.00 8266.85 90.00
3660 40.6200 8098.00 8244.27 90.00
3661 40.6300 8075.00 8226.69 90.00
3662 40.6400 8099.00 8213.36 90.00
3663 40.6500 8114.00 8203.09 90.00
3664 40.6600 8096.00 8194.54 90.00
3665 40.6700 8133.00 8186.66 90.00
3666 40.6800 8086.00 8178.92 90.00
3667 40.6900 8066.00 8171.47 90.00
3668 40.7000 8070.00 8164.98 90.00
3669 40.7100 8020.00 8160.25 90.00
3670 40.7200 8077.00 8157.97 90.00
3671 40.7300 8115.00 8158.37 90.00
3672 40.7400 8032.00 8161.00 90.00
3673 40.7500 8050.00 8164.54 90.00
3674 40.7600 8053.00 8166.61 90.00
3675 40.7700 8083.00 8164.21 90.00
3676 40.7800 8116.00 8155.00 90.00
3677 40.7900 8093.00 8139.08 90.00
3678 40.8000 8042.00 8116.13 90.00
3679 40.8100 8001.00 8088.70 89.00
3680 40.8200 7986.00 8058.68 89.00
3681 40.8300 7928.00 8027.62 89.00
3682 40.8400 8030.00 7996.50 90.00
3683 40.8500 7942.00 7965.81 89.00
3684 40.8600 7869.00 7935.62 89.00
3685 40.8700 7881.00 7905.93 89.00
3686 40.8800 7830.00 7876.80 88.00
3687 40.8900 7818.00 7848.35 88.00
3688 40.9000 7784.00 7820.88 88.00
3689 40.9100 7769.00 7794.65 88.00
3690 40.9200 7692.00 7769.94 88.00
3691 40.9300 7684.00 7746.87 88.00
3692 40.9400 7663.00 7725.46 88.00
3693 40.9500 7642.00 7705.67 87.00
3694 40.9600 7653.00 7687.31 87.00
3695 40.9700 7627.00 7670.15 87.00
3696 40.9800 7603.00 7653.98 87.00
3697 40.9900 7531.00 7638.56 87.00
3698 41.0000 7544.00 7623.66 87.00
3699 41.0100 7591.00 7609.20 87.00
3700 41.0200 7594.00 7595.19 87.00
3701 41.0300 7560.00 7581.73 87.00
3702 41.0400 7501.00 7568.95 87.00
3703 41.0500 7550.00 7557.01 87.00
3704 41.0600 7472.00 7546.01 86.00
3705 41.0700 7489.00 7536.02 87.00
3706 41.0800 7512.00 7527.17 87.00
3707 41.0900 7483.00 7519.43 87.00
3708 41.1000 7446.00 7512.88 86.00
3709 41.1100 7514.00 7507.61 87.00
3710 41.1200 7463.00 7503.73 86.00
3711 41.1300 7458.00 7501.42 86.00
3712 41.1400 7517.00 7500.85 87.00
3713 41.1500 7504.00 7502.14 87.00
3714 41.1600 7441.00 7505.41 86.00
3715 41.1700 7477.00 7510.74 86.00
3716 41.1800 7500.00 7518.21 87.00
3717 41.1900 7524.00 7527.89 87.00
3718 41.2000 7554.00 7539.83 87.00
3719 41.2100 7556.00 7554.11 87.00
3720 41.2200 7588.00 7570.79 87.00
3721 41.2300 7600.00 7590.01 87.00
3722 41.2400 7646.00 7611.84 87.00
3723 41.2500 7622.00 7636.44 87.00
3724 41.2600 7686.00 7663.88 88.00
3725 41.2700 7688.00 7694.31 88.00
3726 41.2800 7690.00 7727.81 88.00
3727 41.2900 7754.00 7764.31 88.00
3728 41.3000 7790.00 7803.59 88.00
3729 41.3100 7840.00 7845.00 89.00
3730 41.3200 7914.00 7887.86 89.00
3731 41.3300 7939.00 7932.34 89.00
3732 41.3400 7965.00 7980.30 89.00
3733 41.3500 7997.00 8034.99 89.00
3734 41.3600 8086.00 8098.94 90.00
3735 41.3700 8103.00 8172.20 90.00
3736 41.3800 8238.00 8250.81 91.00
3737 41.3900 8286.00 8326.54 91.00
3738 41.4000 8233.00 8388.73 91.00
3739 41.4100 8346.00 8429.55 91.00
3740 41.4200 8379.00 8448.85 92.00
3741 41.4300 8340.00 8454.10 91.00
3742 41.4400 8402.00 8455.35 92.00
3743 41.4500 8422.00 8460.09 92.00
3744 41.4600 8358.00 8471.27 91.00
3745 41.4700 8432.00 8487.58 92.00
3746 41.4800 8444.00 8504.81 92.00
3747 41.4900 8428.00 8517.65 92.00
3748 41.5000 8463.00 8521.05 92.00
3749 41.5100 8481.00 8512.38 92.00
3750 41.5200 8436.00 8491.45 92.00
3751 41.5300 8394.00 8460.22 92.00
3752 41.5400 8319.00 8421.99 91.00
3753 41.5500 8282.00 8380.03 91.00
3754 41.5600 8210.00 8336.90 91.00
3755 41.5700 8168.00 8294.47 90.00
3756 41.5800 8098.00 8254.33 90.00
3757 41.5900 8078.00 8216.39 90.00
3758 41.6000 8057.00 8182.06 90.00
3759 41.6100 8118.00 8152.21 90.00
3760 41.6200 8126.00 8127.55 90.00
3761 41.6300 8051.00 8108.54 90.00
3762 41.6400 7986.00 8095.23 89.00
3763 41.6500 8000.00 8087.41 89.00
3764 41.6600 8024.00 8084.77 90.00
3765 41.6700 7996.00 8086.91 89.00
3766 41.6800 8069.00 8093.41 90.00
3767 41.6900 8062.00 8103.64 90.00
3768 41.7000 8044.00 8116.63 90.00
3769 41.7100 8086.00 8130.84 90.00
3770 41.7200 8062.00 8144.10 90.00
3771 41.7300 8089.00 8153.70 90.00
3772 41.7400 8119.00 8156.72 90.00
3773 41.7500 8111.00 8150.63 90.00
3774 41.7600 8024.00 8134.01 90.00
3775 41.7700 8020.00 8106.97 90.00
3776 41.7800 7976.00 8071.17 89.00
3777 41.7900 7963.00 8029.44 89.00
3778 41.8000 7923.00 7984.92 89.00
3779 41.8100 7869.00 7940.68 89.00
3780 41.8200 7790.00 7899.21 88.00
3781 41.8300 7778.00 7862.48 88.00
3782 41.8400 7759.00 7831.66 88.00
3783 41.8500 7760.00 7807.95 88.00
3784 41.8600 7784.00 7791.71 88.00
3785 41.8700 7780.00 7783.18 88.00
3786 41.8800 7718.00 7782.36 88.00
3787 41.8900 7774.00 7788.85 88.00
3788 41.9000 7762.00 7801.87 88.00
3789 41.9100 7773.00 7820.13 88.00
3790 41.9200 7808.00 7841.54 88.00
3791 41.9300 7827.00 7863.09 88.00
3792 41.9400 7800.00 7881.16 88.00
3793 41.9500 7782.00 7891.74 88.00
3794 41.9600 7795.00 7892.66 88.00
3795 41.9700 7825.00 7883.74 88.00
3796 41.9800 7835.00 7867.53 89.00
3797 41.9900 7803.00 7846.89 88.00
3798 42.0000 7743.00 7824.80 88.00
3799 42.0100 7766.00 7803.65 88.00
3800 42.0200 7733.00 7785.11 88.00
3801 42.0300 7689.00 7770.23 88.00
3802 42.0400 7758.00 7759.61 88.00
3803 42.0500 7725.00 7753.54 88.00
3804 42.0600 7739.00 7752.10 88.00
3805 42.0700 7720.00 7755.32 88.00
3806 42.0800 7746.00 7763.20 88.00
3807 42.0900 7734.00 7775.78 88.00
3808 42.1000 7803.00 7792.98 88.00
3809 42.1100 7793.00 7814.61 88.00
3810 42.1200 7805.00 7840.17 88.00
3811 42.1300 7845.00 7869.01 89.00
3812 42.1400 7894.00 7899.85 89.00
3813 42.1500 7901.00 7930.91 89.00
3814 42.1600 7985.00 7959.92 89.00
3815 42.1700 8021.00 7984.27 90.00
3816 42.1800 8037.00 8001.62 90.00
3817 42.1900 7988.00 8010.42 89.00
3818 42.2000 7996.00 8010.36 89.00
3819 42.2100 7971.00 8002.88 89.00
3820 42.2200 7988.00 7990.11 89.00
3821 42.2300 7943.00 7974.67 89.00
3822 42.2400 7879.00 7959.07 89.00
3823 42.2500 7895.00 7945.28 89.00
3824 42.2600 7833.00 7934.72 89.00
3825 42.2700 7860.00 7928.39 89.00
3826 42.2800 7864.00 7927.08 89.00
3827 42.2900 7899.00 7930.93 89.00
3828 42.3000 7888.00 7939.96 89.00
3829 42.3100 7922.00 7954.01 89.00
3830 42.3200 8007.00 7972.73 89.00
3831 42.3300 8016.00 7995.57 90.00
3832 42.3400 8071.00 8021.97 90.00
3833 42.3500 8087.00 8050.96 90.00
3834 42.3600 8049.00 8081.39 90.00
3835 42.3700 8147.00 8111.84 90.00
3836 42.3800 8154.00 8140.25 90.00
3837 42.3900 8194.00 8165.30 91.00
3838 42.4000 8247.00 8184.73 91.00
3839 42.4100 8282.00 8196.93 91.00
3840 42.4200 8189.00 8200.88 90.00
3841 42.4300 8208.00 8196.42 91.00
3842 42.4400 8174.00 8184.18 90.00
3843 42.4500 8116.00 8165.43 90.00
3844 42.4600 8135.00 8141.65 90.00
3845 42.4700 8126.00 8114.38 90.00
3846 42.4800 8046.00 8085.00 90.00
3847 42.4900 8009.00 8054.82 89.00
3848 42.5000 7975.00 8025.07 89.00
3849 42.5100 7961.00 7996.98 89.00
3850 42.5200 7961.00 7971.65 89.00
3851 42.5300 7959.00 7950.05 89.00
3852 42.5400 7890.00 7932.92 89.00
3853 42.5500 7886.00 7920.69 89.00
3854 42.5600 7936.00 7913.53 89.00
3855 42.5700 7876.00 7911.34 89.00
3856 42.5800 7925.00 7913.73 89.00
3857 42.5900 7928.00 7920.07 89.00
3858 42.6000 7961.00 7929.46 89.00
3859 42.6100 7976.00 7940.83 89.00
3860 42.6200 7998.00 7952.93 89.00
3861 42.6300 7999.00 7964.49 89.00
3862 42.6400 8114.00 7974.30 90.00
3863 42.6500 8128.00 7981.33 90.00
3864 42.6600 8029.00 7984.77 90.00
3865 42.6700 8009.00 7984.11 89.00
3866 42.6800 8041.00 7979.15 90.00
3867 42.6900 7955.00 7970.22 89.00
3868 42.7000 8011.00 7957.87 90.00
3869 42.7100 7950.00 7942.99 89.00
3870 42.7200 7908.00 7926.75 89.00
3871 42.7300 7894.00 7910.38 89.00
3872 42.7400 7871.00 7895.14 89.00
3873 42.7500 7859.00 7882.16 89.00
3874 42.7600 7895.00 7872.50 89.00
3875 42.7700 7921.00 7866.93 89.00
3876 42.7800 7848.00 7866.39 89.00
3877 42.7900 7875.00 7872.16 89.00
3878 42.8000 7857.00 7883.28 89.00
3879 42.8100 7921.00 7900.77 89.00
3880 42.8200 7968.00 7924.79 89.00
3881 42.8300 7969.00 7955.27 89.00
3882 42.8400 7960.00 7991.94 89.00
3883 42.8500 8050.00 8034.20 90.00
3884 42.8600 8069.00 8081.29 90.00
3885 42.8700 8103.00 8132.11 90.00
3886 42.8800 8212.00 8185.11 91.00
3887 42.8900 8266.00 8238.13 91.00
3888 42.9000 8274.00 8288.29 91.00
3889 42.9100 8334.00 8331.99 91.00
3890 42.9200 8347.00 8365.72 91.00
3891 42.9300 8359.00 8386.88 91.00
3892 42.9400 8339.00 8394.73 91.00
3893 42.9500 8376.00 8390.35 92.00
3894 42.9600 8258.00 8376.08 91.00
3895 42.9700 8320.00 8354.67 91.00
3896 42.9800 8254.00 8328.73 91.00
3897 42.9900 8242.00 8300.53 91.00
3898 43.0000 8275.00 8271.79 91.00
3899 43.0100 8282.00 8243.81 91.00
3900 43.0200 8201.00 8217.29 91.00
3901 43.0300 8130.00 8192.63 90.00
3902 43.0400 8177.00 8170.06 90.00
3903 43.0500 8159.00 8149.69 90.00
3904 43.0600 8158.00 8132.57 90.00
3905 43.0700 8201.00 8116.92 91.00
3906 43.0800 8088.00 8103.67 90.00
3907 43.0900 8116.00 8092.70 90.00
3908 43.1000 8072.00 8083.78 90.00
3909 43.1100 8121.00 8076.58 90.00
3910 43.1200 8133.00 8070.68 90.00
3911 43.1300 8113.00 8065.64 90.00
3912 43.1400 8078.00 8061.12 90.00
3913 43.1500 8097.00 8056.91 90.00
3914 43.1600 8075.00 8053.03 90.00
3915 43.1700 8109.00 8049.70 90.00
3916 43.1800 8118.00 8047.34 90.00
3917 43.1900 8123.00 8046.41 90.00
3918 43.2000 8038.00 8047.30 90.00
3919 43.2100 8067.00 8050.19 90.00
3920 43.2200 8027.00 8054.86 90.00
3921 43.2300 8080.00 8060.56 90.00
3922 43.2400 8075.00 8065.91 90.00
3923 43.2500 8084.00 8068.94 90.00
3924 43.2600 8058.00 8068.09 90.00
3925 43.2700 8076.00 8059.99 90.00
3926 43.2800 8054.00 8043.99 90.00
3927 43.2900 8018.00 8020.55 90.00
3928 43.3000 7956.00 7990.84 89.00
3929 43.3100 7965.00 7957.05 89.00
3930 43.3200 7842.00 7921.51 89.00
3931 43.3300 7869.00 7886.37 89.00
3932 43.3400 7842.00 7853.20 89.00
3933 43.3500 7826.00 7823.09 88.00
3934 43.3600 7813.00 7796.66 88.00
3935 43.3700 7817.00 7774.24 88.00
3936 43.3800 7785.00 7756.04 88.00
3937 43.3900 7837.00 7742.10 89.00
3938 43.4000 7828.00 7732.52 88.00
3939 43.4100 7818.00 7727.36 88.00
3940 43.4200 7871.00 7726.86 89.00
3941 43.4300 7854.00 7731.21 89.00
3942 43.4400 7766.00 7740.69 88.00
3943 43.4500 7860.00 7755.62 89.00
3944 43.4600 7874.00 7776.31 89.00
3945 43.4700 7937.00 7803.21 89.00
3946 43.4800 7975.00 7836.55 89.00
3947 43.4900 8001.00 7876.43 89.00
3948 43.5000 8016.00 7922.67 90.00
3949 43.5100 8059.00 7974.90 90.00
3950 43.5200 8168.00 8031.76 90.00
3951 43.5300 8177.00 8090.95 90.00
3952 43.5400 8279.00 8149.21 91.00
3953 43.5500 8332.00 8202.61 91.00
3954 43.5600 8308.00 8247.67 91.00
3955 43.5700 8370.00 8282.82 91.00
3956 43.5800 8427.00 8308.64 92.00
3957 43.5900 8362.00 8327.33 91.00
3958 43.6000 8473.00 8341.27 92.00
3959 43.6100 8493.00 8352.35 92.00
3960 43.6200 8391.00 8361.87 92.00
3961 43.6300 8457.00 8370.52 92.00
3962 43.6400 8421.00 8378.77 92.00
3963 43.6500 8435.00 8386.93 92.00
3964 43.6600 8509.00 8394.97 92.00
3965 43.6700 8463.00 8403.31 92.00
3966 43.6800 8413.00 8412.03 92.00
3967 43.6900 8470.00 8421.37 92.00
3968 43.7000 8474.00 8431.36 92.00
3969 43.7100 8460.00 8441.57 92.00
3970 43.7200 8518.00 8450.84 92.00
3971 43.7300 8509.00 8457.29 92.00
3972 43.7400 8406.00 8458.47 92.00
3973 43.7500 8471.00 8452.09 92.00
3974 43.7600 8444.00 8436.70 92.00
3975 43.7700 8383.00 8412.25 92.00
3976 43.7800 8334.00 8379.82 91.00
3977 43.7900 8352.00 8341.49 91.00
3978 43.8000 8241.00 8299.67 91.00
3979 43.8100 8252.00 8256.92 91.00
3980 43.8200 8164.00 8215.66 90.00
3981 43.8300 8146.00 8178.10 90.00
3982 43.8400 8169.00 8146.08 90.00
3983 43.8500 8179.00 8121.14 90.00
3984 43.8600 8119.00 8104.65 90.00
3985 43.8700 8149.00 8097.82 90.00
3986 43.8800 8135.00 8101.78 90.00
3987 43.8900 8153.00 8117.54 90.00
3988 43.9000 8261.00 8145.95 91.00
3989 43.9100 8305.00 8187.48 91.00
3990 43.9200 8309.00 8241.83 91.00
3991 43.9300 8384.00 8307.35 92.00
3992 43.9400 8434.00 8379.57 92.00
3993 43.9500 8539.00 8449.88 92.00
3994 43.9600 8559.00 8505.87 93.00
3995 43.9700 8589.00 8534.82 93.00
3996 43.9800 8511.00 8530.68 92.00
3997 43.9900 8516.00 8498.02 92.00
3998 44.0000 8483.00 8448.57 92.00
3999 44.0100 8392.00 8394.53 92.00
4000 44.0200 8422.00 8344.46 92.00
4001 44.0300 8378.00 8303.31 92.00
4002 44.0400 8271.00 8272.43 91.00
4003 44.0500 8286.00 8252.72 91.00
4004 44.0600 8287.00 8244.05 91.00
4005 44.0700 8244.00 8245.96 91.00
4006 44.0800 8324.00 8257.75 91.00
4007 44.0900 8363.00 8278.73 91.00
4008 44.1000 8340.00 8308.05 91.00
4009 44.1100 8450.00 8344.49 92.00
4010 44.1200 8474.00 8386.64 92.00
4011 44.1300 8499.00 8432.63 92.00
4012 44.1400 8529.00 8480.17 92.00
4013 44.1500 8633.00 8526.53 93.00
4014 44.1600 8602.00 8568.72 93.00
4015 44.1700 8664.00 8603.82 93.00
4016 44.1800 8660.00 8629.39 93.00
4017 44.1900 8737.00 8643.88 93.00
4018 44.2000 8717.00 8646.63 93.00
4019 44.2100 8720.00 8637.82 93.00
4020 44.2200 8617.00 8618.24 93.00
4021 44.2300 8645.00 8588.92 93.00
4022 44.2400 8508.00 8551.09 92.00
4023 44.2500 8506.00 8506.07 92.00
4024 44.2600 8440.00 8455.32 92.00
4025 44.2700 8382.00 8400.35 92.00
4026 44.2800 8268.00 8342.82 91.00
4027 44.2900 8235.00 8284.55 91.00
4028 44.3000 8225.00 8227.20 91.00
4029 44.3100 8115.00 8172.47 90.00
4030 44.3200 8160.00 8121.57 90.00
4031 44.3300 8092.00 8076.14 90.00
4032 44.3400 8037.00 8036.81 90.00
4033 44.3500 8065.00 8004.28 90.00
4034 44.3600 8009.00 7979.51 89.00
4035 44.3700 7997.00 7961.88 89.00
4036 44.3800 8084.00 7952.20 90.00
4037 44.3900 8100.00 7950.81 90.00
4038 44.4000 8039.00 7958.07 90.00
4039 44.4100 8088.00 7974.30 90.00
4040 44.4200 8134.00 7999.76 90.00
4041 44.4300 8149.00 8034.49 90.00
4042 44.4400 8282.00 8078.27 91.00
4043 44.4500 8302.00 8130.38 91.00
4044 44.4600 8349.00 8189.70 91.00
4045 44.4700 8437.00 8254.21 92.00
4046 44.4800 8538.00 8321.12 92.00
4047 44.4900 8625.00 8386.55 93.00
4048 44.5000 8696.00 8445.95 93.00
4049 44.5100 8741.00 8494.28 93.00
4050 44.5200 8662.00 8527.13 93.00
4051 44.5300 8636.00 8541.56 93.00
4052 44.5400 8603.00 8536.67 93.00
4053 44.5500 8516.00 8513.62 92.00
4054 44.5600 8530.00 8475.04 92.00
4055 44.5700 8445.00 8424.21 92.00
4056 44.5800 8291.00 8364.52 91.00
4057 44.5900 8260.00 8299.06 91.00
4058 44.6000 8183.00 8230.43 90.00
4059 44.6100 8161.00 8160.53 90.00
4060 44.6200 8108.00 8090.90 90.00
4061 44.6300 8038.00 8022.85 90.00
4062 44.6400 7948.00 7957.44 89.00
4063 44.6500 7915.00 7895.65 89.00
4064 44.6600 7886.00 7838.22 89.00
4065 44.6700 7864.00 7785.77 89.00
4066 44.6800 7806.00 7738.53 88.00
4067 44.6900 7705.00 7696.61 88.00
4068 44.7000 7667.00 7659.90 88.00
4069 44.7100 7717.00 7628.33 88.00
4070 44.7200 7661.00 7601.54 88.00
4071 44.7300 7635.00 7579.19 87.00
4072 44.7400 7653.00 7560.93 87.00
4073 44.7500 7628.00 7546.35 87.00
4074 44.7600 7579.00 7535.04 87.00
4075 44.7700 7592.00 7526.56 87.00
4076 44.7800 7606.00 7520.44 87.00
4077 44.7900 7593.00 7516.19 87.00
4078 44.8000 7589.00 7513.22 87.00
4079 44.8100 7602.00 7511.13 87.00
4080 44.8200 7591.00 7509.38 87.00
4081 44.8300 7573.00 7507.58 87.00
4082 44.8400 7622.00 7505.43 87.00
4083 44.8500 7604.00 7502.81 87.00
4084 44.8600 7634.00 7499.66 87.00
4085 44.8700 7593.00 7496.06 87.00
4086 44.8800 7546.00 7492.10 87.00
4087 44.8900 7560.00 7487.88 87.00
4088 44.9000 7565.00 7483.54 87.00
4089 44.9100 7561.00 7479.20 87.00
4090 44.9200 7581.00 7475.01 87.00
4091 44.9300 7564.00 7471.18 87.00
4092 44.9400 7514.00 7467.77 87.00
4093 44.9500 7554.00 7465.29 87.00
4094 44.9600 7552.00 7463.82 87.00
4095 44.9700 7533.00 7463.68 87.00
4096 44.9800 7545.00 7465.06 87.00
4097 44.9900 7530.00 7468.18 87.00
4098 45.0000 7487.00 7473.21 87.00
4099 45.0100 7486.00 7480.31 87.00
4100 45.0200 7557.00 7489.57 87.00
4101 45.0300 7583.00 7501.08 87.00
4102 45.0400 7645.00 7514.83 87.00
4103 45.0500 7648.00 7530.79 87.00
4104 45.0600 7613.00 7548.78 87.00
4105 45.0700 7686.00 7568.61 88.00
4106 45.0800 7642.00 7589.89 87.00
4107 45.0900 7674.00 7612.00 88.00
4108 45.1000 7718.00 7634.50 88.00
4109 45.1100 7793.00 7656.46 88.00
4110 45.1200 7743.00 7677.05 88.00
4111 45.1300 7785.00 7695.37 88.00
4112 45.1400 7786.00 7710.99 88.00
4113 45.1500 7774.00 7723.50 88.00
4114 45.1600 7795.00 7732.94 88.00
4115 45.1700 7804.00 7739.54 88.00
4116 45.1800 7791.00 7743.74 88.00
4117 45.1900 7753.00 7745.94 88.00
4118 45.2000 7726.00 7746.52 88.00
4119 45.2100 7781.00 7745.79 88.00
4120 45.2200 7763.00 7744.04 88.00
4121 45.2300 7780.00 7741.54 88.00
4122 45.2400 7774.00 7738.61 88.00
4123 45.2500 7745.00 7735.60 88.00
4124 45.2600 7781.00 7732.89 88.00
4125 45.2700 7783.00 7730.84 88.00
4126 45.2800 7823.00 7729.79 88.00
4127 45.2900 7813.00 7730.00 88.00
4128 45.3000 7793.00 7731.66 88.00
4129 45.3100 7820.00 7734.85 88.00
4130 45.3200 7837.00 7739.63 89.00
4131 45.3300 7810.00 7745.96 88.00
4132 45.3400 7856.00 7753.75 89.00
4133 45.3500 7863.00 7762.90 89.00
4134 45.3600 7846.00 7773.27 89.00
4135 45.3700 7882.00 7784.74 89.00
4136 45.3800 7893.00 7797.19 89.00
4137 45.3900 7876.00 7810.50 89.00
4138 45.4000 7911.00 7824.54 89.00
4139 45.4100 7926.00 7839.18 89.00
4140 45.4200 7886.00 7854.17 89.00
4141 45.4300 7957.00 7869.35 89.00
4142 45.4400 7945.00 7884.41 89.00
4143 45.4500 7920.00 7899.02 89.00
4144 45.4600 7998.00 7912.92 89.00
4145 45.4700 8022.00 7925.81 90.00
4146 45.4800 7958.00 7937.42 89.00
4147 45.4900 8031.00 7947.32 90.00
4148 45.5000 7987.00 7954.93 89.00
4149 45.5100 8027.00 7959.45 90.00
4150 45.5200 8018.00 7959.97 90.00
4151 45.5300 7997.00 7955.57 89.00
4152 45.5400 7942.00 7945.67 89.00
4153 45.5500 8012.00 7930.23 90.00
4154 45.5600 7961.00 7909.92 89.00
4155 45.5700 7930.00 7885.99 89.00
4156 45.5800 7896.00 7860.29 89.00
4157 45.5900 7870.00 7835.18 89.00
4158 45.6000 7796.00 7811.49 88.00
4159 45.6100 7859.00 7790.90 89.00
4160 45.6200 7813.00 7774.23 88.00
4161 45.6300 7807.00 7762.08 88.00
4162 45.6400 7865.00 7754.50 89.00
4163 45.6500 7855.00 7751.50 89.00
4164 45.6600 7795.00 7752.72 88.00
4165 45.6700 7812.00 7757.65 88.00
4166 45.6800 7802.00 7765.61 88.00
4167 45.6900 7841.00 7775.78 89.00
4168 45.7000 7891.00 7787.15 89.00
4169 45.7100 7888.00 7798.66 89.00
4170 45.7200 7914.00 7809.11 89.00
4171 45.7300 7935.00 7817.54 89.00
4172 45.7400 7955.00 7822.92 89.00
4173 45.7500 7950.00 7824.53 89.00
4174 45.7600 7946.00 7822.39 89.00
4175 45.7700 7882.00 7815.42 89.00
4176 45.7800 7842.00 7804.24 89.00
4177 45.7900 7824.00 7789.26 88.00
4178 45.8000 7809.00 7771.04 88.00
4179 45.8100 7766.00 7750.30 88.00
4180 45.8200 7807.00 7727.70 88.00
4181 45.8300 7751.00 7703.95 88.00
4182 45.8400 7672.00 7679.57 88.00
4183 45.8500 7679.00 7655.25 88.00
4184 45.8600 7645.00 7631.35 87.00
4185 45.8700 7631.00 7608.28 87.00
4186 45.8800 7664.00 7586.39 88.00
4187 45.8900 7665.00 7565.96 88.00
4188 45.9000 7578.00 7547.27 87.00
4189 45.9100 7564.00 7530.55 87.00
4190 45.9200 7505.00 7516.07 87.00
4191 45.9300 7581.00 7504.09 87.00
4192 45.9400 7564.00 7494.89 87.00
4193 45.9500 7584.00 7488.80 87.00
4194 45.9600 7485.00 7486.19 87.00
4195 45.9700 7570.00 7487.48 87.00
4196 45.9800 7513.00 7493.16 87.00
4197 45.9900 7566.00 7503.76 87.00
4198 46.0000 7596.00 7519.84 87.00
4199 46.0100 7666.00 7541.94 88.00
4200 46.0200 7659.00 7570.56 88.00
4201 46.0300 7678.00 7606.09 88.00
4202 46.0400 7769.00 7648.52 88.00
4203 46.0500 7747.00 7697.39 88.00
4204 46.0600 7849.00 7751.19 89.00
4205 46.0700 7925.00 7807.17 89.00
4206 46.0800 7843.00 7860.98 89.00
4207 46.0900 7922.00 7907.38 89.00
4208 46.1000 7949.00 7941.41 89.00
4209 46.1100 7958.00 7960.47 89.00
4210 46.1200 7996.00 7965.18 89.00
4211 46.1300 7909.00 7958.86 89.00
4212 46.1400 7912.00 7945.95 89.00
4213 46.1500 7876.00 7930.72 89.00
4214 46.1600 7919.00 7916.77 89.00
4215 46.1700 7872.00 7906.59 89.00
4216 46.1800 7963.00 7901.70 89.00
4217 46.1900 7949.00 7902.71 89.00
4218 46.2000 7906.00 7909.47 89.00
4219 46.2100 7933.00 7921.42 89.00
4220 46.2200 8025.00 7937.95 90.00
4221 46.2300 7986.00 7958.69 89.00
4222 46.2400 8072.00 7983.66 90.00
4223 46.2500 8096.00 8013.12 90.00
4224 46.2600 8062.00 8047.13 90.00
4225 46.2700 8149.00 8085.11 90.00
4226 46.2800 8160.00 8125.29 90.00
4227 46.2900 8162.00 8164.18 90.00
4228 46.3000 8237.00 8196.73 91.00
4229 46.3100 8222.00 8217.01 91.00
4230 46.3200 8175.00 8220.01 90.00
4231 46.3300 8143.00 8203.34 90.00
4232 46.3400 8069.00 8168.29 90.00
4233 46.3500 8078.00 8119.08 90.00
4234 46.3600 8023.00 8061.45 90.00
4235 46.3700 7966.00 8000.48 89.00
4236 46.3800 7878.00 7940.29 89.00
4237 46.3900 7866.00 7883.52 89.00
4238 46.4000 7808.00 7831.87 88.00
4239 46.4100 7761.00 7786.18 88.00
4240 46.4200 7744.00 7746.83 88.00
4241 46.4300 7755.00 7713.75 88.00
4242 46.4400 7644.00 7686.74 87.00
4243 46.4500 7666.00 7665.48 88.00
4244 46.4600 7643.00 7649.64 87.00
4245 46.4700 7635.00 7638.81 87.00
4246 46.4800 7700.00 7632.58 88.00
4247 46.4900 7661.00 7630.61 88.00
4248 46.5000 7647.00 7632.42 87.00
4249 46.5100 7706.00 7637.86 88.00
4250 46.5200 7701.00 7645.62 88.00
4251 46.5300 7644.00 7655.30 87.00
4252 46.5400 7702.00 7666.07 88.00
4253 46.5500 7683.00 7676.97 88.00
4254 46.5600 7693.00 7687.07 88.00
4255 46.5700 7760.00 7695.70 88.00
4256 46.5800 7772.00 7702.51 88.00
4257 46.5900 7737.00 7707.57 88.00
4258 46.6000 7797.00 7711.59 88.00
4259 46.6100 7761.00 7715.39 88.00
4260 46.6200 7755.00 7719.88 88.00
4261 46.6300 7765.00 7725.75 88.00
4262 46.6400 7797.00 7733.42 88.00
4263 46.6500 7783.00 7743.33 88.00
4264 46.6600 7769.00 7756.01 88.00
4265 46.6700 7813.00 7771.96 88.00
4266 46.6800 7787.00 7791.04 88.00
4267 46.6900 7842.00 7811.93 89.00
4268 46.7000 7799.00 7831.86 88.00
4269 46.7100 7839.00 7847.29 89.00
4270 46.7200 7838.00 7855.29 89.00
4271 46.7300 7833.00 7855.19 89.00
4272 46.7400 7810.00 7848.92 88.00
4273 46.7500 7774.00 7840.02 88.00
4274 46.7600 7821.00 7831.98 88.00
4275 46.7700 7822.00 7827.33 88.00
4276 46.7800 7897.00 7827.45 89.00
4277 46.7900 7848.00 7832.79 89.00
4278 46.8000 7831.00 7843.22 88.00
4279 46.8100 7872.00 7858.47 89.00
4280 46.8200 7927.00 7877.26 89.00
4281 46.8300 7933.00 7898.91 89.00
4282 46.8400 8000.00 7922.40 89.00
4283 46.8500 7986.00 7946.61 89.00
4284 46.8600 7939.00 7970.40 89.00
4285 46.8700 8011.00 7992.88 90.00
4286 46.8800 8004.00 8013.26 89.00
4287 46.8900 8021.00 8031.06 90.00
4288 46.9000 8018.00 8045.95 90.00
4289 46.9100 7995.00 8057.58 89.00
4290 46.9200 8012.00 8065.44 90.00
4291 46.9300 8058.00 8068.82 90.00
4292 46.9400 8042.00 8066.88 90.00
4293 46.9500 8089.00 8059.04 90.00
4294 46.9600 8037.00 8045.11 90.00
4295 46.9700 8018.00 8025.56 90.00
4296 46.9800 7973.00 8001.39 89.00
4297 46.9900 7906.00 7973.92 89.00
4298 47.0000 7888.00 7944.50 89.00
4299 47.0100 7875.00 7914.30 89.00
4300 47.0200 7899.00 7884.31 89.00
4301 47.0300 7813.00 7855.22 88.00
4302 47.0400 7798.00 7827.54 88.00
4303 47.0500 7755.00 7801.68 88.00
4304 47.0600 7776.00 7777.91 88.00
4305 47.0700 7757.00 7756.46 88.00
4306 47.0800 7756.00 7737.48 88.00
4307 47.0900 7736.00 7721.05 88.00
4308 47.1000 7644.00 7707.23 87.00
4309 47.1100 7668.00 7695.96 88.00
4310 47.1200 7678.00 7687.04 88.00
4311 47.1300 7697.00 7680.65 88.00
4312 47.1400 7718.00 7676.59 88.00
4313 47.1500 7707.00 7674.86 88.00
4314 47.1600 7646.00 7675.44 87.00
4315 47.1700 7702.00 7678.25 88.00
4316 47.1800 7697.00 7683.02 88.00
4317 47.1900 7684.00 7689.43 88.00
4318 47.2000 7739.00 7696.66 88.00
4319 47.2100 7736.00 7703.80 88.00
4320 47.2200 7680.00 7709.99 88.00
4321 47.2300 7710.00 7714.63 88.00
4322 47.2400 7686.00 7717.50 88.00
4323 47.2500 7741.00 7718.53 88.00
4324 47.2600 7760.00 7717.68 88.00
4325 47.2700 7775.00 7714.93 88.00
4326 47.2800 7670.00 7710.25 88.00
4327 47.2900 7700.00 7703.69 88.00
4328 47.3000 7632.00 7695.33 87.00
4329 47.3100 7650.00 7685.28 87.00
4330 47.3200 7677.00 7673.52 88.00
4331 47.3300 7670.00 7660.25 88.00
4332 47.3400 7589.00 7645.39 87.00
4333 47.3500 7593.00 7628.97 87.00
4334 47.3600 7610.00 7611.08 87.00
4335 47.3700 7542.00 7591.92 87.00
4336 47.3800 7590.00 7571.78 87.00
4337 47.3900 7516.00 7550.90 87.00
4338 47.4000 7534.00 7530.01 87.00
4339 47.4100 7471.00 7509.38 86.00
4340 47.4200 7504.00 7489.42 87.00
4341 47.4300 7443.00 7470.44 86.00
4342 47.4400 7479.00 7452.67 86.00
4343 47.4500 7464.00 7436.30 86.00
4344 47.4600 7437.00 7421.40 86.00
4345 47.4700 7456.00 7407.95 86.00
4346 47.4800 7389.00 7396.07 86.00
4347 47.4900 7400.00 7385.67 86.00
4348 47.5000 7474.00 7376.71 86.00
4349 47.5100 7402.00 7369.17 86.00
4350 47.5200 7343.00 7363.12 86.00
4351 47.5300 7366.00 7358.60 86.00
4352 47.5400 7394.00 7355.70 86.00
4353 47.5500 7414.00 7354.56 86.00
4354 47.5600 7460.00 7355.34 86.00
4355 47.5700 7436.00 7358.11 86.00
4356 47.5800 7387.00 7363.14 86.00
4357 47.5900 7386.00 7370.46 86.00
4358 47.6000 7399.00 7380.09 86.00
4359 47.6100 7415.00 7392.13 86.00
4360 47.6200 7419.00 7406.50 86.00
4361 47.6300 7463.00 7423.09 86.00
4362 47.6400 7449.00 7441.73 86.00
4363 47.6500 7455.00 7462.09 86.00
4364 47.6600 7504.00 7483.76 87.00
4365 47.6700 7536.00 7506.12 87.00
4366 47.6800 7609.00 7528.49 87.00
4367 47.6900 7635.00 7549.97 87.00
4368 47.7000 7560.00 7569.65 87.00
4369 47.7100 7639.00 7586.56 87.00
4370 47.7200 7625.00 7600.16 87.00
4371 47.7300 7631.00 7609.91 87.00
4372 47.7400 7622.00 7615.74 87.00
4373 47.7500 7661.00 7617.87 88.00
4374 47.7600 7604.00 7616.81 87.00
4375 47.7700 7607.00 7613.19 87.00
4376 47.7800 7597.00 7607.63 87.00
4377 47.7900 7598.00 7600.63 87.00
4378 47.8000 7613.00 7592.43 87.00
4379 47.8100 7600.00 7583.03 87.00
4380 47.8200 7533.00 7572.16 87.00
4381 47.8300 7577.00 7559.45 87.00
4382 47.8400 7537.00 7544.50 87.00
4383 47.8500 7468.00 7527.24 86.00
4384 47.8600 7502.00 7507.88 87.00
4385 47.8700 7455.00 7486.99 86.00
4386 47.8800 7446.00 7465.39 86.00
4387 47.8900 7429.00 7443.86 86.00
4388 47.9000 7411.00 7423.12 86.00
4389 47.9100 7412.00 7403.74 86.00
4390 47.9200 7425.00 7385.87 86.00
4391 47.9300 7370.00 7369.71 86.00
4392 47.9400 7332.00 7355.35 86.00
4393 47.9500 7336.00 7342.74 86.00
4394 47.9600 7333.00 7331.83 86.00
4395 47.9700 7341.00 7322.50 86.00
4396 47.9800 7371.00 7314.69 86.00
4397 47.9900 7389.00 7308.29 86.00
4398 48.0000 7285.00 7303.20 85.00
4399 48.0100 7318.00 7299.38 86.00
4400 48.0200 7317.00 7296.82 86.00
4401 48.0300 7360.00 7295.56 86.00
4402 48.0400 7380.00 7295.68 86.00
4403 48.0500 7314.00 7297.30 86.00
4404 48.0600 7302.00 7300.54 85.00
4405 48.0700 7356.00 7305.43 86.00
4406 48.0800 7362.00 7311.95 86.00
4407 48.0900 7348.00 7319.97 86.00
4408 48.1000 7369.00 7329.22 86.00
4409 48.1100 7406.00 7339.31 86.00
4410 48.1200 7377.00 7349.80 86.00
4411 48.1300 7372.00 7360.15 86.00
4412 48.1400 7363.00 7370.57 86.00
4413 48.1500 7389.00 7380.02 86.00
4414 48.1600 7432.00 7388.59 86.00
4415 48.1700 7445.00 7396.03 86.00
4416 48.1800 7399.00 7401.86 86.00
4417 48.1900 7421.00 7405.51 86.00
4418 48.2000 7428.00 7406.55 86.00
4419 48.2100 7401.00 7404.82 86.00
4420 48.2200 7433.00 7400.53 86.00
4421 48.2300 7362.00 7394.18 86.00
4422 48.2400 7349.00 7386.58 86.00
4423 48.2500 7362.00 7378.51 86.00
4424 48.2600 7354.00 7370.70 86.00
4425 48.2700 7344.00 7363.90 86.00
4426 48.2800 7368.00 7358.54 86.00
4427 48.2900 7375.00 7355.33 86.00
4428 48.3000 7306.00 7353.72 85.00
4429 48.3100 7339.00 7354.08 86.00
4430 48.3200 7324.00 7356.23 86.00
4431 48.3300 7333.00 7359.77 86.00
4432 48.3400 7376.00 7364.10 86.00
4433 48.3500 7397.00 7368.39 86.00
4434 48.3600 7345.00 7371.72 86.00
4435 48.3700 7353.00 7373.19 86.00
4436 48.3800 7376.00 7372.12 86.00
4437 48.3900 7342.00 7368.28 86.00
4438 48.4000 7378.00 7361.92 86.00
4439 48.4100 7360.00 7353.72 86.00
4440 48.4200 7316.00 7344.61 86.00
4441 48.4300 7311.00 7335.53 86.00
4442 48.4400 7292.00 7327.33 85.00
4443 48.4500 7289.00 7320.71 85.00
4444 48.4600 7340.00 7316.10 86.00
4445 48.4700 7338.00 7313.83 86.00
4446 48.4800 7269.00 7314.04 85.00
4447 48.4900 7258.00 7316.77 85.00
4448 48.5000 7290.00 7321.96 85.00
4449 48.5100 7282.00 7329.48 85.00
4450 48.5200 7320.00 7339.03 86.00
4451 48.5300 7316.00 7350.48 86.00
4452 48.5400 7287.00 7363.34 85.00
4453 48.5500 7360.00 7377.19 86.00
4454 48.5600 7421.00 7391.49 86.00
4455 48.5700 7354.00 7405.74 86.00
4456 48.5800 7419.00 7419.46 86.00
4457 48.5900 7451.00 7432.31 86.00
4458 48.6000 7429.00 7444.06 86.00
4459 48.6100 7423.00 7454.65 86.00
4460 48.6200 7432.00 7464.14 86.00
4461 48.6300 7465.00 7472.59 86.00
4462 48.6400 7455.00 7480.01 86.00
4463 48.6500 7496.00 7486.13 87.00
4464 48.6600 7424.00 7490.37 86.00
4465 48.6700 7446.00 7491.85 86.00
4466 48.6800 7451.00 7489.71 86.00
4467 48.6900 7438.00 7483.57 86.00
4468 48.7000 7486.00 7473.83 87.00
4469 48.7100 7437.00 7461.58 86.00
4470 48.7200 7342.00 7448.24 86.00
4471 48.7300 7357.00 7435.14 86.00
4472 48.7400 7320.00 7423.30 86.00
4473 48.7500 7378.00 7413.37 86.00
4474 48.7600 7366.00 7405.76 86.00
4475 48.7700 7379.00 7400.66 86.00
4476 48.7800 7330.00 7398.19 86.00
4477 48.7900 7406.00 7398.33 86.00
4478 48.8000 7390.00 7401.07 86.00
4479 48.8100 7390.00 7406.29 86.00
4480 48.8200 7443.00 7413.97 86.00
4481 48.8300 7407.00 7423.89 86.00
4482 48.8400 7414.00 7435.88 86.00
4483 48.8500 7446.00 7449.60 86.00
4484 48.8600 7423.00 7464.68 86.00
4485 48.8700 7429.00 7480.60 86.00
4486 48.8800 7485.00 7496.82 87.00
4487 48.8900 7516.00 7512.76 87.00
4488 48.9000 7527.00 7528.00 87.00
4489 48.9100 7573.00 7542.31 87.00
4490 48.9200 7578.00 7555.64 87.00
4491 48.9300 7566.00 7568.02 87.00
4492 48.9400 7609.00 7579.49 87.00
4493 48.9500 7608.00 7589.93 87.00
4494 48.9600 7584.00 7599.11 87.00
4495 48.9700 7586.00 7606.74 87.00
4496 48.9800 7604.00 7612.45 87.00
4497 48.9900 7621.00 7615.91 87.00
4498 49.0000 7610.00 7616.83 87.00
4499 49.0100 7593.00 7615.05 87.00
4500 49.0200 7552.00 7610.73 87.00
4501 49.0300 7543.00 7603.55 87.00
4502 49.0400 7538.00 7593.92 87.00
4503 49.0500 7552.00 7582.14 87.00
4504 49.0600 7516.00 7568.56 87.00
4505 49.0700 7510.00 7553.53 87.00
4506 49.0800 7406.00 7537.49 86.00
4507 49.0900 7425.00 7520.74 86.00
4508 49.1000 7423.00 7503.63 86.00
4509 49.1100 7392.00 7486.46 86.00
4510 49.1200 7439.00 7469.49 86.00
4511 49.1300 7401.00 7453.00 86.00
4512 49.1400 7324.00 7437.17 86.00
4513 49.1500 7352.00 7422.27 86.00
4514 49.1600 7344.00 7408.46 86.00
4515 49.1700 7290.00 7395.93 85.00
4516 49.1800 7354.00 7384.77 86.00
4517 49.1900 7285.00 7375.13 85.00
4518 49.2000 7284.00 7367.03 85.00
4519 49.2100 7251.00 7360.43 85.00
4520 49.2200 7302.00 7355.29 85.00
4521 49.2300 7260.00 7351.45 85.00
4522 49.2400 7323.00 7348.76 86.00
4523 49.2500 7318.00 7347.01 86.00
4524 49.2600 7275.00 7345.93 85.00
4525 49.2700 7305.00 7345.24 85.00
4526 49.2800 7275.00 7344.66 85.00
4527 49.2900 7302.00 7344.30 85.00
4528 49.3000 7343.00 7343.13 86.00
4529 49.3100 7330.00 7341.33 86.00
4530 49.3200 7291.00 7338.73 85.00
4531 49.3300 7267.00 7335.24 85.00
4532 49.3400 7251.00 7330.85 85.00
4533 49.3500 7266.00 7325.57 85.00
4534 49.3600 7304.00 7319.49 85.00
4535 49.3700 7302.00 7312.77 85.00
4536 49.3800 7211.00 7305.62 85.00
4537 49.3900 7263.00 7298.29 85.00
4538 49.4000 7242.00 7291.06 85.00
4539 49.4100 7226.00 7284.17 85.00
4540 49.4200 7232.00 7278.01 85.00
4541 49.4300 7272.00 7272.76 85.00
4542 49.4400 7185.00 7268.63 85.00
4543 49.4500 7224.00 7265.76 85.00
4544 49.4600 7214.00 7264.27 85.00
4545 49.4700 7246.00 7264.21 85.00
4546 49.4800 7269.00 7265.63 85.00
4547 49.4900 7273.00 7268.53 85.00
4548 49.5000 7209.00 7272.85 85.00
4549 49.5100 7236.00 7278.54 85.00
4550 49.5200 7242.00 7285.47 85.00
4551 49.5300 7239.00 7293.50 85.00
4552 49.5400 7326.00 7302.44 86.00
4553 49.5500 7310.00 7312.06 85.00
4554 49.5600 7253.00 7322.12 85.00
4555 49.5700 7294.00 7332.37 85.00
4556 49.5800 7338.00 7342.57 86.00
4557 49.5900 7302.00 7352.52 85.00
4558 49.6000 7356.00 7362.08 86.00
4559 49.6100 7324.00 7371.14 86.00
4560 49.6200 7315.00 7379.60 86.00
4561 49.6300 7332.00 7387.36 86.00
4562 49.6400 7373.00 7394.30 86.00
4563 49.6500 7378.00 7400.26 86.00
4564 49.6600 7389.00 7405.08 86.00
4565 49.6700 7426.00 7408.64 86.00
4566 49.6800 7346.00 7410.81 86.00
4567 49.6900 7353.00 7411.58 86.00
4568 49.7000 7309.00 7410.96 85.00
4569 49.7100 7287.00 7408.99 85.00
4570 49.7200 7355.00 7405.78 86.00
4571 49.7300 7341.00 7401.45 86.00
4572 49.7400 7313.00 7396.09 86.00
4573 49.7500 7336.00 7389.81 86.00
4574 49.7600 7292.00 7382.70 85.00
4575 49.7700 7294.00 7374.72 85.00
4576 49.7800 7338.00 7365.85 86.00
4577 49.7900 7361.00 7356.01 86.00
4578 49.8000 7233.00 7345.11 85.00
4579 49.8100 7276.00 7332.93 85.00
4580 49.8200 7241.00 7319.70 85.00
4581 49.8300 7228.00 7305.29 85.00
4582 49.8400 7254.00 7289.83 85.00
4583 49.8500 7226.00 7273.52 85.00
4584 49.8600 7166.00 7256.65 85.00
4585 49.8700 7218.00 7239.56 85.00
4586 49.8800 7162.00 7222.61 85.00
4587 49.8900 7150.00 7206.09 85.00
4588 49.9000 7139.00 7190.29 84.00
4589 49.9100 7159.00 7175.42 85.00
4590 49.9200 7108.00 7161.69 84.00
4591 49.9300 7100.00 7149.26 84.00
4592 49.9400 7150.00 7138.24 85.00
4593 49.9500 7122.00 7128.69 84.00
4594 49.9600 7147.00 7120.63 85.00
4595 49.9700 7126.00 7114.07 84.00
4596 49.9800 7095.00 7109.00 84.00
4597 49.9900 7067.00 7105.41 84.00
4598 50.0000 7129.00 7103.25 84.00
4599 50.0100 7102.00 7102.50 84.00
4600 50.0200 7119.00 7103.14 84.00
4601 50.0300 7103.00 7105.11 84.00
4602 50.0400 7071.00 7108.39 84.00
4603 50.0500 7097.00 7112.91 84.00
4604 50.0600 7119.00 7118.59 84.00
4605 50.0700 7084.00 7125.33 84.00
4606 50.0800 7131.00 7132.95 84.00
4607 50.0900 7165.00 7141.25 85.00
4608 50.1000 7133.00 7149.84 84.00
4609 50.1100 7168.00 7158.56 85.00
4610 50.1200 7207.00 7166.91 85.00
4611 50.1300 7148.00 7174.44 85.00
4612 50.1400 7178.00 7180.81 85.00
4613 50.1500 7201.00 7185.72 85.00
4614 50.1600 7169.00 7189.08 85.00
4615 50.1700 7189.00 7190.88 85.00
4616 50.1800 7158.00 7191.25 85.00
4617 50.1900 7176.00 7190.61 85.00
4618 50.2000 7244.00 7189.11 85.00
4619 50.2100 7174.00 7187.02 85.00
4620 50.2200 7126.00 7184.63 84.00
4621 50.2300 7181.00 7182.22 85.00
4622 50.2400 7182.00 7180.13 85.00
4623 50.2500 7207.00 7178.70 85.00
4624 50.2600 7214.00 7178.21 85.00
4625 50.2700 7215.00 7178.79 85.00
4626 50.2800 7168.00 7180.74 85.00
4627 50.2900 7221.00 7184.03 85.00
4628 50.3000 7169.00 7188.57 85.00
4629 50.3100 7216.00 7194.22 85.00
4630 50.3200 7250.00 7200.82 85.00
4631 50.3300 7241.00 7208.20 85.00
4632 50.3400 7192.00 7216.41 85.00
4633 50.3500 7250.00 7225.53 85.00
4634 50.3600 7283.00 7235.70 85.00
4635 50.3700 7250.00 7247.14 85.00
4636 50.3800 7271.00 7259.95 85.00
4637 50.3900 7284.00 7274.29 85.00
4638 50.4000 7285.00 7290.16 85.00
4639 50.4100 7343.00 7307.62 86.00
4640 50.4200 7304.00 7326.62 85.00
4641 50.4300 7360.00 7347.13 86.00
4642 50.4400 7419.00 7369.06 86.00
4643 50.4500 7455.00 7392.31 86.00
4644 50.4600 7411.00 7416.69 86.00
4645 50.4700 7467.00 7441.92 86.00
4646 50.4800 7515.00 7467.61 87.00
4647 50.4900 7510.00 7493.18 87.00
4648 50.5000 7577.00 7517.90 87.00
4649 50.5100 7569.00 7540.86 87.00
4650 50.5200 7541.00 7561.07 87.00
4651 50.5300 7542.00 7577.60 87.00
4652 50.5400 7558.00 7589.56 87.00
4653 50.5500 7542.00 7596.30 87.00
4654 50.5600 7616.00 7597.39 87.00
4655 50.5700 7539.00 7592.69 87.00
4656 50.5800 7525.00 7582.48 87.00
4657 50.5900 7510.00 7567.29 87.00
4658 50.6000 7505.00 7548.21 87.00
4659 50.6100 7481.00 7526.30 86.00
4660 50.6200 7492.00 7502.80 87.00
4661 50.6300 7433.00 7478.88 86.00
4662 50.6400 7373.00 7455.72 86.00
4663 50.6500 7400.00 7434.14 86.00
4664 50.6600 7353.00 7414.76 86.00
4665 50.6700 7394.00 7398.10 86.00
4666 50.6800 7414.00 7384.29 86.00
4667 50.6900 7438.00 7373.30 86.00
4668 50.7000 7325.00 7364.90 86.00
4669 50.7100 7343.00 7359.12 86.00
4670 50.7200 7364.00 7354.63 86.00
4671 50.7300 7365.00 7351.10 86.00
4672 50.7400 7348.00 7347.63 86.00
4673 50.7500 7381.00 7343.24 86.00
4674 50.7600 7305.00 7336.99 85.00
4675 50.7700 7286.00 7328.04 85.00
4676 50.7800 7339.00 7316.30 86.00
4677 50.7900 7284.00 7302.11 85.00
4678 50.8000 7339.00 7286.26 86.00
4679 50.8100 7285.00 7269.81 85.00
4680 50.8200 7257.00 7253.65 85.00
4681 50.8300 7283.00 7238.52 85.00
4682 50.8400 7237.00 7225.29 85.00
4683 50.8500 7185.00 7213.49 85.00
4684 50.8600 7293.00 7203.66 85.00
4685 50.8700 7239.00 7195.71 85.00
4686 50.8800 7236.00 7189.97 85.00
4687 50.8900 7210.00 7186.29 85.00
4688 50.9000 7262.00 7184.58 85.00
4689 50.9100 7209.00 7184.82 85.00
4690 50.9200 7291.00 7186.89 85.00
4691 50.9300 7258.00 7190.69 85.00
4692 50.9400 7197.00 7196.23 85.00
4693 50.9500 7210.00 7203.36 85.00
4694 50.9600 7237.00 7211.98 85.00
4695 50.9700 7204.00 7221.98 85.00
4696 50.9800 7266.00 7233.25 85.00
4697 50.9900 7286.00 7245.64 85.00
4698 51.0000 7246.00 7259.01 85.00
4699 51.0100 7276.00 7273.13 85.00
4700 51.0200 7282.00 7287.85 85.00
4701 51.0300 7355.00 7302.88 86.00
4702 51.0400 7359.00 7317.92 86.00
4703 51.0500 7401.00 7332.65 86.00
4704 51.0600 7330.00 7346.79 86.00
4705 51.0700 7355.00 7360.10 86.00
4706 51.0800 7327.00 7372.38 86.00
4707 51.0900 7354.00 7383.52 86.00
4708 51.1000 7416.00 7393.38 86.00
4709 51.1100 7390.00 7401.75 86.00
4710 51.1200 7355.00 7408.43 86.00
4711 51.1300 7388.00 7413.12 86.00
4712 51.1400 7401.00 7415.62 86.00
4713 51.1500 7436.00 7415.80 86.00
4714 51.1600 7467.00 7413.67 86.00
4715 51.1700 7445.00 7409.35 86.00
4716 51.1800 7362.00 7403.06 86.00
4717 51.1900 7369.00 7395.11 86.00
4718 51.2000 7377.00 7385.83 86.00
4719 51.2100 7320.00 7375.57 86.00
4720 51.2200 7384.00 7364.79 86.00
4721 51.2300 7363.00 7353.87 86.00
4722 51.2400 7279.00 7343.18 85.00
4723 51.2500 7297.00 7332.98 85.00
4724 51.2600 7319.00 7323.49 86.00
4725 51.2700 7260.00 7314.81 85.00
4726 51.2800 7305.00 7306.96 85.00
4727 51.2900 7301.00 7299.88 85.00
4728 51.3000 7285.00 7293.42 85.00
4729 51.3100 7285.00 7287.50 85.00
4730 51.3200 7251.00 7281.92 85.00
4731 51.3300 7239.00 7276.52 85.00
4732 51.3400 7285.00 7271.17 85.00
4733 51.3500 7273.00 7265.92 85.00
4734 51.3600 7241.00 7260.84 85.00
4735 51.3700 7212.00 7256.12 85.00
4736 51.3800 7207.00 7252.05 85.00
4737 51.3900 7244.00 7248.93 85.00
4738 51.4000 7244.00 7247.07 85.00
4739 51.4100 7290.00 7246.74 85.00
4740 51.4200 7212.00 7248.15 85.00
4741 51.4300 7258.00 7251.44 85.00
4742 51.4400 7221.00 7256.69 85.00
4743 51.4500 7241.00 7263.90 85.00
4744 51.4600 7254.00 7272.92 85.00
4745 51.4700 7295.00 7283.69 85.00
4746 51.4800 7243.00 7295.91 85.00
4747 51.4900 7329.00 7309.21 86.00
4748 51.5000 7309.00 7323.13 85.00
4749 51.5100 7359.00 7337.11 86.00
4750 51.5200 7358.00 7350.58 86.00
4751 51.5300 7376.00 7362.95 86.00
4752 51.5400 7355.00 7373.64 86.00
4753 51.5500 7337.00 7382.37 86.00
4754 51.5600 7354.00 7388.93 86.00
4755 51.5700 7340.00 7392.89 86.00
4756 51.5800 7385.00 7394.28 86.00
4757 51.5900 7374.00 7393.05 86.00
4758 51.6000 7329.00 7389.10 86.00
4759 51.6100 7334.00 7382.49 86.00
4760 51.6200 7340.00 7373.25 86.00
4761 51.6300 7311.00 7361.50 86.00
4762 51.6400 7339.00 7347.58 86.00
4763 51.6500 7342.00 7331.87 86.00
4764 51.6600 7289.00 7314.84 85.00
4765 51.6700 7271.00 7297.04 85.00
4766 51.6800 7275.00 7278.95 85.00
4767 51.6900 7250.00 7261.06 85.00
4768 51.7000 7214.00 7243.78 85.00
4769 51.7100 7229.00 7227.45 85.00
4770 51.7200 7162.00 7212.32 85.00
4771 51.7300 7177.00 7198.63 85.00
4772 51.7400 7132.00 7186.48 84.00
4773 51.7500 7147.00 7175.93 85.00
4774 51.7600 7189.00 7166.99 85.00
4775 51.7700 7159.00 7159.62 85.00
4776 51.7800 7140.00 7153.76 84.00
4777 51.7900 7155.00 7149.26 85.00
4778 51.8000 7163.00 7145.99 85.00
4779 51.8100 7170.00 7144.01 85.00
4780 51.8200 7209.00 7142.60 85.00
4781 51.8300 7181.00 7141.77 85.00
4782 51.8400 7140.00 7141.25 84.00
4783 51.8500 7191.00 7140.68 85.00
4784 51.8600 7187.00 7139.94 85.00
4785 51.8700 7178.00 7138.68 85.00
4786 51.8800 7193.00 7136.76 85.00
4787 51.8900 7211.00 7134.12 85.00
4788 51.9000 7153.00 7130.85 85.00
4789 51.9100 7139.00 7127.12 84.00
4790 51.9200 7179.00 7123.24 85.00
4791 51.9300 7194.00 7119.51 85.00
4792 51.9400 7157.00 7116.28 85.00
4793 51.9500 7165.00 7113.83 85.00
4794 51.9600 7088.00 7112.42 84.00
4795 51.9700 7125.00 7112.28 84.00
4796 51.9800 7158.00 7113.56 85.00
4797 51.9900 7145.00 7116.43 85.00
4798 52.0000 7132.00 7121.02 84.00
4799 52.0100 7198.00 7127.42 85.00
4800 52.0200 7167.00 7135.73 85.00
4801 52.0300 7162.00 7145.97 85.00
4802 52.0400 7170.00 7158.15 85.00
4803 52.0500 7177.00 7172.20 85.00
4804 52.0600 7251.00 7187.87 85.00
4805 52.0700 7249.00 7204.80 85.00
4806 52.0800 7221.00 7222.53 85.00
4807 52.0900 7247.00 7240.66 85.00
4808 52.1000 7251.00 7258.77 85.00
4809 52.1100 7263.00 7276.59 85.00
4810 52.1200 7330.00 7293.57 86.00
4811 52.1300 7342.00 7308.73 86.00
4812 52.1400 7306.00 7320.75 85.00
4813 52.1500 7338.00 7328.24 86.00
4814 52.1600 7310.00 7330.30 85.00
4815 52.1700 7333.00 7326.85 86.00
4816 52.1800 7347.00 7318.64 86.00
4817 52.1900 7331.00 7306.87 86.00
4818 52.2000 7260.00 7292.80 85.00
4819 52.2100 7262.00 7277.49 85.00
4820 52.2200 7238.00 7261.79 85.00
4821 52.2300 7209.00 7246.32 85.00
4822 52.2400 7266.00 7231.51 85.00
4823 52.2500 7225.00 7217.65 85.00
4824 52.2600 7192.00 7204.93 85.00
4825 52.2700 7212.00 7193.42 85.00
4826 52.2800 7204.00 7183.11 85.00
4827 52.2900 7199.00 7173.97 85.00
4828 52.3000 7199.00 7165.90 85.00
4829 52.3100 7235.00 7158.77 85.00
4830 52.3200 7108.00 7152.47 84.00
4831 52.3300 7171.00 7146.80 85.00
4832 52.3400 7174.00 7141.63 85.00
4833 52.3500 7212.00 7136.76 85.00
4834 52.3600 7172.00 7132.05 85.00
4835 52.3700 7195.00 7127.32 85.00
4836 52.3800 7091.00 7122.46 84.00
4837 52.3900 7092.00 7117.40 84.00
4838 52.4000 7119.00 7112.09 84.00
4839 52.4100 7126.00 7106.63 84.00
4840 52.4200 7135.00 7101.01 84.00
4841 52.4300 7105.00 7095.44 84.00
4842 52.4400 7073.00 7089.98 84.00
4843 52.4500 7095.00 7084.75 84.00
4844 52.4600 7096.00 7079.87 84.00
4845 52.4700 7107.00 7075.43 84.00
4846 52.4800 7112.00 7071.55 84.00
4847 52.4900 7106.00 7068.29 84.00
4848 52.5000 7054.00 7065.77 84.00
4849 52.5100 7054.00 7064.09 84.00
4850 52.5200 7075.00 7063.30 84.00
4851 52.5300 7072.00 7063.50 84.00
4852 52.5400 7108.00 7064.75 84.00
4853 52.5500 7091.00 7067.09 84.00
4854 52.5600 7044.00 7070.50 84.00
4855 52.5700 7059.00 7074.91 84.00
4856 52.5800 7086.00 7080.14 84.00
4857 52.5900 7123.00 7085.93 84.00
4858 52.6000 7129.00 7091.84 84.00
4859 52.6100 7112.00 7097.44 84.00
4860 52.6200 7081.00 7102.23 84.00
4861 52.6300 7124.00 7105.82 84.00
4862 52.6400 7099.00 7107.94 84.00
4863 52.6500 7080.00 7108.50 84.00
4864 52.6600 7145.00 7107.52 85.00
4865 52.6700 7161.00 7105.50 85.00
4866 52.6800 7085.00 7102.84 84.00
4867 52.6900 7109.00 7100.08 84.00
4868 52.7000 7132.00 7097.76 84.00
4869 52.7100 7111.00 7096.37 84.00
4870 52.7200 7128.00 7096.29 84.00
4871 52.7300 7121.00 7097.82 84.00
4872 52.7400 7092.00 7101.20 84.00
4873 52.7500 7112.00 7106.58 84.00
4874 52.7600 7129.00 7114.07 84.00
4875 52.7700 7109.00 7123.75 84.00
4876 52.7800 7188.00 7135.65 85.00
4877 52.7900 7239.00 7149.71 85.00
4878 52.8000 7142.00 7165.83 85.00
4879 52.8100 7177.00 7183.81 85.00
4880 52.8200 7217.00 7203.30 85.00
4881 52.8300 7231.00 7223.81 85.00
4882 52.8400 7303.00 7244.64 85.00
4883 52.8500 7316.00 7264.90 86.00
4884 52.8600 7261.00 7283.51 85.00
4885 52.8700 7239.00 7299.31 85.00
4886 52.8800 7291.00 7311.17 85.00
4887 52.8900 7290.00 7318.31 85.00
4888 52.9000 7343.00 7320.39 86.00
4889 52.9100 7315.00 7317.58 86.00
4890 52.9200 7262.00 7310.51 85.00
4891 52.9300 7272.00 7300.07 85.00
4892 52.9400 7248.00 7287.03 85.00
4893 52.9500 7234.00 7272.27 85.00
4894 52.9600 7245.00 7256.29 85.00
4895 52.9700 7207.00 7239.48 85.00
4896 52.9800 7145.00 7222.13 85.00
4897 52.9900 7158.00 7204.54 85.00
4898 53.0000 7151.00 7186.86 85.00
4899 53.0100 7097.00 7169.51 84.00
4900 53.0200 7080.00 7152.76 84.00
4901 53.0300 7109.00 7136.82 84.00
4902 53.0400 7081.00 7121.91 84.00
4903 53.0500 7098.00 7108.14 84.00
4904 53.0600 7092.00 7095.61 84.00
4905 53.0700 7096.00 7084.33 84.00
4906 53.0800 7103.00 7074.31 84.00
4907 53.0900 7105.00 7065.55 84.00
4908 53.1000 7023.00 7058.05 84.00
4909 53.1100 7084.00 7051.78 84.00
4910 53.1200 7033.00 7047.00 84.00
4911 53.1300 7078.00 7043.14 84.00
4912 53.1400 7073.00 7040.41 84.00
4913 53.1500 7129.00 7038.74 84.00
4914 53.1600 7023.00 7038.04 84.00
4915 53.1700 7087.00 7038.23 84.00
4916 53.1800 7064.00 7039.21 84.00
4917 53.1900 7099.00 7040.87 84.00
loop_
_pd_proc_info_excluded_regions
'from 0.01 to 4.010'
'from 53.19 to 78.088'
loop_
_refln_index_h
_refln_index_k
_refln_index_l
_refln_F_squared_calc
_refln_F_squared_meas
_refln_F_squared_sigma
_refln_observed_status
_refln_d_spacing
2 0 0 296.27 263.66 4.20 o 5.744666
1 0 1 597.60 615.42 6.23 o 4.142469
2 0 1 7097.89 6896.55 16.50 o 3.513613
2 1 0 2319.90 2341.10 11.47 o 3.363455
0 1 1 11279.17 11168.75 23.47 o 3.031798
1 1 1 29129.54 29456.94 26.75 o 2.931453
3 0 1 613.96 631.56 1.22 o 2.900333
4 0 0 61409.06 61885.96 78.72 o 2.872333
2 1 1 28.69 38.14 2.26 o 2.681297
4 0 1 429.17 379.82 4.27 o 2.411865
3 1 1 16914.41 16647.43 24.86 o 2.377101
4 1 0 5264.71 5453.06 10.36 o 2.361613
0 0 2 18374.98 17891.36 65.99 o 2.220591
1 0 2 11225.02 11260.79 37.09 o 2.180243
4 1 1 8002.36 7941.79 14.91 o 2.085142
0 2 0 53672.56 53499.99 87.22 o 2.074470
2 0 2 489.78 487.49 0.78 o 2.071234
5 0 1 5368.04 5160.38 26.30 o 2.040874
2 2 0 158.85 168.30 1.69 o 1.951150
1 1 2 6060.02 6087.48 15.69 o 1.929990
3 0 2 11294.71 11299.15 28.67 o 1.921028
6 0 0 1021.28 1007.78 4.37 o 1.914889
1 2 1 338.56 341.18 1.77 o 1.854883
2 1 2 2710.98 2767.92 12.52 o 1.853146
5 1 1 21097.51 20856.62 38.00 o 1.831306
2 2 1 4153.48 4080.98 20.07 o 1.786357
6 0 1 4021.35 3952.93 13.84 o 1.758404
4 0 2 12039.88 11906.30 37.52 o 1.756806
3 1 2 2814.32 2846.03 10.65 o 1.743234
6 1 0 2915.93 2991.56 14.76 o 1.738642
3 2 1 402.30 399.37 0.93 o 1.687294
4 2 0 37727.70 37178.90 81.06 o 1.681728
6 1 1 160.78 152.08 1.67 o 1.619000
4 1 2 1802.30 1703.90 18.21 o 1.617753
5 0 2 6053.33 5935.21 48.54 o 1.596815
4 2 1 273.35 217.83 9.83 o 1.572747
7 0 1 1374.46 1275.18 28.45 o 1.539559
0 2 2 12116.79 12072.59 56.10 o 1.515899
1 2 2 7288.18 7446.80 29.59 o 1.502874
5 1 2 7091.18 7073.59 29.70 o 1.490252
1 0 3 5602.32 5525.61 31.86 o 1.468256
2 2 2 332.76 326.88 2.57 o 1.465726
5 2 1 3483.96 3432.76 19.15 o 1.454848
6 0 2 2438.94 2447.53 10.74 o 1.450166
7 1 1 4510.57 4657.84 19.75 o 1.443389
8 0 0 20488.03 20838.16 89.91 o 1.436167
2 0 3 5089.29 5170.69 17.87 o 1.433559
3 2 2 7508.27 7578.47 34.03 o 1.409500
6 2 0 733.87 736.39 3.20 o 1.407069
0 1 3 14536.16 14514.54 60.85 o 1.394295
1 1 3 1127.67 1148.80 5.29 o 1.384140
3 0 3 7508.74 7570.43 38.23 o 1.380823
6 1 2 664.57 712.38 7.57 o 1.368953
8 0 1 816.32 907.72 11.24 o 1.366495
8 1 0 9244.74 9632.97 62.27 o 1.357158
2 1 3 1.40 1.47 0.01 o 1.354957
2 3 0 813.51 831.06 3.21 o 1.344566
6 2 1 2698.90 2751.29 10.78 o 1.341358
4 2 2 8367.64 8523.63 33.54 o 1.340648
0 3 1 4647.66 4846.82 19.56 o 1.320440
7 0 2 6941.50 7233.60 29.31 o 1.319913
4 0 3 598.20 604.67 1.92 o 1.315901
1 3 1 12405.87 12431.04 42.71 o 1.311805
3 1 3 1.62 1.63 0.01 o 1.310168
8 1 1 3597.15 3686.05 29.86 o 1.297909
2 3 1 11.73 13.33 0.29 o 1.286882
5 2 2 4208.54 4371.90 28.49 o 1.265359
7 1 2 696.14 702.64 2.85 o 1.257797
4 1 3 11376.42 11267.74 35.58 o 1.254323
3 3 1 7586.06 7497.92 26.02 o 1.248326
4 3 0 2429.05 2384.61 8.82 o 1.246066
5 0 3 1589.41 1563.47 5.70 o 1.244488
7 2 1 1039.71 1111.21 12.83 o 1.236292
9 0 1 8147.65 8294.24 71.42 o 1.226912
8 0 2 3676.22 3895.27 30.81 o 1.205933
4 3 1 3682.92 3771.98 20.23 o 1.199739
1 2 3 4019.53 4111.10 21.23 o 1.198449
5 1 3 2435.62 2476.17 12.43 o 1.192019
6 2 2 1783.13 1809.16 11.65 o 1.188551
8 2 0 14583.98 14789.12 50.54 o 1.180806
2 2 3 3538.54 3593.44 11.78 o 1.179356
9 1 1 8525.23 8675.63 31.40 o 1.176546
6 0 3 3823.09 3881.01 14.37 o 1.171204
1 3 2 2797.73 2896.69 20.35 o 1.167845
8 1 2 3362.21 3556.69 29.14 o 1.158008
2 3 2 1454.93 1473.22 6.52 o 1.150156
3 2 3 5473.45 5496.43 22.06 o 1.149466
10 0 0 725.72 732.26 3.51 o 1.148933
5 3 1 10516.97 10413.57 42.36 o 1.144877
8 2 1 585.75 563.32 3.00 o 1.141160
6 1 3 13.40 12.91 0.22 o 1.127155
3 3 2 1327.11 1257.18 20.08 o 1.122380
6 3 0 1288.84 1209.62 13.82 o 1.121152
7 2 2 4979.66 4735.34 34.99 o 1.113610
10 0 1 1809.07 1725.24 13.09 o 1.112315
4 2 3 435.26 416.40 2.75 o 1.111197
0 0 4 107.50 102.52 0.64 o 1.110295
10 1 0 3265.08 3122.73 29.24 o 1.107262
9 0 2 1987.48 1893.63 16.53 o 1.106739
1 0 4 2602.17 2496.17 15.42 o 1.105147
7 0 3 4681.64 4503.29 52.24 o 1.099304
2 0 4 430.45 406.72 6.54 o 1.090121
6 3 1 77.14 69.80 1.93 o 1.087049
4 3 2 954.00 866.62 24.63 o 1.086671
10 1 1 224.02 219.48 2.82 o 1.074374
9 1 2 5472.65 5437.24 40.72 o 1.069347
1 1 4 164.70 161.10 0.98 o 1.067911
5 2 3 1162.75 1151.05 7.94 o 1.067184
3 0 4 1754.72 1705.16 9.11 o 1.066385
7 1 3 1057.65 1026.54 5.58 o 1.062636
9 2 1 5977.94 5741.03 25.71 o 1.056038
2 1 4 13587.50 12949.55 52.20 o 1.054335
5 3 2 3615.26 3418.05 24.28 o 1.045403
8 2 2 2725.34 2665.86 19.37 o 1.042571
0 4 0 18742.62 18000.05 135.68 o 1.037235
4 0 4 227.83 217.52 1.51 o 1.035617
3 1 4 6.93 6.51 0.06 o 1.032816
8 0 3 1320.42 1212.84 13.22 o 1.030804
7 3 1 2319.04 2083.43 28.38 o 1.028832
2 4 0 64.71 58.85 0.69 o 1.020730
10 0 2 2414.62 2219.36 28.55 o 1.020437
6 2 3 2805.20 2567.56 31.58 o 1.019885
11 0 1 659.12 599.84 9.00 o 1.016745
0 3 3 7700.70 7264.17 85.65 o 1.010599
1 3 3 644.30 601.55 6.23 o 1.006712
1 4 1 87.56 83.29 0.70 o 1.006173
10 2 0 556.43 519.81 5.09 o 1.005078
4 1 4 178.90 167.71 1.15 o 1.004788
6 3 2 386.87 360.74 2.85 o 1.000824
8 1 3 5801.68 5413.53 40.41 o 1.000391
5 0 4 2313.04 2147.61 15.12 o 0.999711
8 3 0 5046.46 4712.88 37.39 o 0.996187
2 3 3 0.59 0.54 0.00 o 0.995315
2 4 1 1460.13 1358.77 11.19 o 0.994794
10 1 2 12.54 11.34 0.20 o 0.990906
11 1 1 574.59 529.03 15.91 o 0.987524
10 2 1 1348.91 1358.14 11.50 o 0.980288
0 2 4 75.41 73.99 0.45 o 0.978905
3 3 3 0.28 0.27 0.00 o 0.977151
3 4 1 199.78 196.02 1.12 o 0.976658
9 2 2 1489.65 1459.29 8.86 o 0.976465
4 4 0 14260.78 13931.45 77.04 o 0.975575
1 2 4 1953.39 1906.59 10.42 o 0.975371
8 3 1 1944.18 1889.06 11.27 o 0.972034
5 1 4 557.78 542.44 3.00 o 0.971895
7 2 3 3532.86 3424.06 21.23 o 0.971347
9 0 3 54.14 51.79 0.51 o 0.966778
2 2 4 324.68 310.21 3.04 o 0.964995
6 0 4 2534.96 2456.09 24.66 o 0.960514
12 0 0 4293.63 4097.90 57.42 o 0.957444
7 3 2 372.32 354.67 3.24 o 0.954837
4 3 3 6252.26 5947.66 54.33 o 0.953314
4 4 1 105.06 100.03 0.88 o 0.952857
3 2 4 1324.56 1282.86 10.53 o 0.948414
11 0 2 3276.32 3270.72 41.02 o 0.945151
9 1 3 1716.41 1716.10 12.79 o 0.941554
0 4 2 4881.04 4876.45 32.90 o 0.939769
1 4 2 2840.37 2772.40 16.52 o 0.936641
12 0 1 724.89 708.18 4.79 o 0.935942
6 1 4 7597.06 7426.93 42.41 o 0.935765
12 1 0 6923.62 6664.64 50.06 o 0.932926
2 4 2 138.38 134.21 1.53 o 0.927441
4 2 4 171.70 166.40 1.58 o 0.926573
5 3 3 1395.72 1408.04 18.52 o 0.925085
5 4 1 1347.41 1358.75 16.12 o 0.924667
8 2 3 1003.80 1018.05 11.57 o 0.923121
11 1 2 93.24 94.49 1.05 o 0.921542
7 0 4 728.90 724.84 5.48 o 0.919644
9 3 1 4839.08 4804.20 40.88 o 0.917797
10 2 2 1839.39 1814.97 14.98 o 0.915653
12 1 1 1230.53 1203.43 11.52 o 0.912999
11 2 1 502.22 491.85 4.42 o 0.912983
3 4 2 3000.19 2947.34 24.43 o 0.912693
6 4 0 322.67 317.36 2.54 o 0.912032
8 3 2 1924.16 1904.83 21.54 o 0.908915
10 0 3 2418.62 2393.71 30.09 o 0.907651
5 2 4 1767.82 1851.82 36.58 o 0.900590
7 1 4 3.24 3.35 0.05 o 0.897852
6 3 3 7.38 7.52 0.12 o 0.893766
6 4 1 1095.39 1122.98 16.56 o 0.893388
4 4 2 3512.56 3590.25 54.36 o 0.893179
10 1 3 43.86 45.67 0.95 o 0.886681
1 0 5 4687.61 4838.26 65.15 o 0.885594
10 3 0 1872.97 2002.05 43.51 o 0.883750
12 0 2 401.94 439.58 13.42 o 0.879202
8 0 4 611.73 660.36 12.94 o 0.878403
2 0 5 895.16 948.61 12.35 o 0.877805
9 2 3 42.41 47.40 1.05 o 0.876289
6 2 4 1948.28 1977.65 17.96 o 0.871617
5 4 2 1781.06 1800.04 15.62 o 0.869836
12 2 0 3317.31 3349.29 29.92 o 0.869321
0 1 5 416.82 423.57 2.88 o 0.868555
13 0 1 6621.03 6646.75 58.75 o 0.866798
10 3 1 130.44 131.28 1.02 o 0.866756
1 1 5 49.17 49.98 0.30 o 0.866084
3 0 5 5190.39 5281.29 30.99 o 0.865269
9 3 2 3190.82 3226.15 23.83 o 0.864110
1 3 4 96.42 97.47 0.65 o 0.863351
7 3 3 617.95 641.43 4.69 o 0.860557
7 4 1 461.61 479.69 3.25 o 0.860220
12 1 2 2354.71 2439.88 19.22 o 0.860102
11 2 2 2542.21 2639.63 20.06 o 0.860088
8 1 4 276.44 285.53 1.84 o 0.859354
2 1 5 62.54 64.42 0.38 o 0.858795
2 3 4 7950.24 8298.49 60.14 o 0.856131
11 0 3 1352.12 1447.11 13.55 o 0.853446
12 2 1 561.97 600.06 6.17 o 0.853131
4 0 5 46.12 50.14 0.43 o 0.848588
13 1 1 1817.20 2095.78 31.17 o 0.848479
1 4 3 1752.69 2022.01 27.97 o 0.847165
3 1 5 810.69 888.23 8.20 o 0.847045
3 3 4 4.48 4.98 0.06 o 0.844488
6 4 2 782.94 861.62 10.06 o 0.843647
8 4 0 6379.99 6941.90 80.88 o 0.840864
7 2 4 568.76 619.52 7.03 o 0.840733
2 4 3 1542.14 1666.86 20.89 o 0.840339
9 0 4 1277.41 1391.26 15.76 o 0.837765
11 1 3 2005.91 2186.37 30.60 o 0.835943
10 2 3 1895.93 2134.21 26.30 o 0.831541
4 1 5 293.98 325.99 3.13 o 0.831377
3 4 3 2423.60 2696.67 30.74 o 0.829321
4 3 4 103.84 115.41 1.27 o 0.828959
5 0 5 2491.22 2792.58 27.87 o 0.828494
8 3 3 3469.58 3811.72 46.27 o 0.826484
8 4 1 260.38 288.51 3.33 o 0.826186
2 5 0 243.59 277.82 3.47 o 0.821265
9 1 4 857.27 983.15 12.95 o 0.821191
13 0 2 378.76 480.50 10.44 o 0.821148
10 3 2 8.24 10.08 0.19 o 0.821112
14 0 0 111.50 144.41 3.59 o 0.820667
11 3 1 355.23 410.61 5.60 o 0.819185
0 5 1 1506.83 1636.86 15.56 o 0.815673
7 4 2 2245.36 2425.68 23.87 o 0.815549
4 4 3 195.54 210.09 2.09 o 0.814600
1 2 5 3664.90 4013.28 36.08 o 0.814481
1 5 1 4066.66 4418.20 40.99 o 0.813625
5 1 5 48.40 52.70 0.45 o 0.812454
5 3 4 340.08 365.11 3.62 o 0.810197
12 2 2 315.93 343.99 4.48 o 0.809500
8 2 4 489.90 520.86 5.02 o 0.808877
2 2 5 695.14 742.29 6.19 o 0.808410
2 5 1 3.83 4.10 0.04 o 0.807573
14 0 1 732.87 784.69 10.03 o 0.807004
6 0 5 415.73 439.23 3.38 o 0.805770
13 1 2 3295.93 3527.58 41.85 o 0.805523
14 1 0 2893.45 3080.43 37.34 o 0.805068
12 0 3 1259.55 1327.33 12.80 o 0.803955
13 2 1 5191.34 5346.32 45.04 o 0.799788
3 2 5 4063.78 4195.00 29.92 o 0.798586
10 0 4 3171.52 3266.27 25.38 o 0.798408
3 5 1 2543.86 2618.55 20.20 o 0.797779
4 5 0 816.01 839.45 6.33 o 0.797189
5 4 3 533.80 545.81 4.55 o 0.796775
9 3 3 1020.26 1052.19 9.69 o 0.792367
14 1 1 214.72 222.29 2.33 o 0.792158
9 4 1 2758.27 2817.38 23.49 o 0.792104
6 1 5 385.50 390.19 2.74 o 0.790991
12 1 3 2172.37 2196.33 18.06 o 0.789274
11 2 3 1051.29 1062.88 8.76 o 0.789263
6 3 4 4625.35 4682.47 37.23 o 0.788908
12 3 0 4189.70 4236.23 35.43 o 0.787204
8 4 2 1253.26 1268.03 10.82 o 0.786373
4 2 5 35.38 35.80 0.29 o 0.785416
4 5 1 1264.45 1276.08 11.51 o 0.784648
10 1 4 2377.31 2376.61 23.81 o 0.784023
7 0 5 3300.45 3276.62 35.34 o 0.781182
11 3 2 59.88 60.82 1.09 o 0.780329
9 2 4 1005.15 968.58 17.75 o 0.776811
6 4 3 1341.38 1276.57 25.48 o 0.776500
1 5 2 981.87 939.34 17.39 o 0.775519
12 3 1 765.07 728.61 14.24 o 0.775122
2 5 2 494.53 462.53 6.66 o 0.770273
10 4 0 242.71 226.64 3.27 o 0.769905
14 0 2 1040.30 983.27 15.10 o 0.769779
5 2 5 1983.09 1840.70 25.02 o 0.769403
5 5 1 3669.13 3419.88 49.06 o 0.768681
7 1 5 2082.12 1932.13 27.07 o 0.767693
7 3 4 1.20 1.09 0.02 o 0.765788
13 2 2 300.13 251.28 8.46 o 0.763508
14 2 0 80.98 67.62 2.51 o 0.763121
3 5 2 481.95 411.02 12.76 o 0.761761
6 5 0 482.61 415.47 11.48 o 0.761376
11 0 4 218.76 191.17 5.37 o 0.760764
13 0 3 65.55 57.86 1.69 o 0.758850
10 3 3 30.17 26.61 0.76 o 0.758822
10 4 1 655.05 579.76 14.91 o 0.758591
0 4 4 46.86 41.71 1.10 o 0.757949
14 1 2 424.07 381.49 10.11 o 0.756862
9 4 2 712.40 636.13 15.62 o 0.756815
1 4 4 929.35 831.16 20.60 o 0.756305
8 0 5 87.48 76.81 1.66 o 0.755429
15 0 1 71.99 64.44 1.78 o 0.754812
7 4 3 1648.51 1460.62 35.57 o 0.754425
14 2 1 587.85 509.50 14.71 o 0.752099
2 4 4 153.18 129.61 3.66 o 0.751437
6 2 5 326.53 280.34 6.10 o 0.751100
6 5 1 28.90 24.48 0.61 o 0.750428
4 5 2 336.23 282.47 7.59 o 0.750304
12 2 3 1001.48 826.64 25.67 o 0.749629
11 1 4 0.48 0.40 0.01 o 0.748289
0 3 5 250.22 208.09 4.74 o 0.747367
13 1 3 540.37 449.40 11.91 o 0.746467
1 3 5 37.88 31.68 0.72 o 0.745791
10 2 4 2508.47 2092.47 50.36 o 0.745126
3 4 4 643.50 544.99 13.74 o 0.743528
8 1 5 95.25 79.47 1.86 o 0.743210
15 1 1 44.03 37.10 1.11 o 0.742622
12 3 2 1437.95 1210.82 34.04 o 0.741962
8 3 4 159.33 134.32 3.72 o 0.741481
2 3 5 38.54 32.64 0.81 o 0.741122
0 0 6 14.71 12.46 0.26 o 0.740197
1 0 6 1.71 1.46 0.03 o 0.738666
5 5 2 1364.56 1163.71 32.72 o 0.736307
13 3 1 1125.76 987.94 24.16 o 0.734462
2 0 6 77.88 68.09 1.19 o 0.734128
3 3 5 532.76 466.79 9.21 o 0.733531
4 4 4 102.30 89.98 1.91 o 0.732863
8 4 3 489.29 432.34 8.69 o 0.731152
7 2 5 2622.38 2324.45 38.24 o 0.731066
7 5 1 888.34 790.73 13.66 o 0.730447
9 0 5 855.00 756.42 10.99 o 0.729112
10 4 2 862.85 763.61 12.36 o 0.727424
1 1 6 1219.07 1082.54 13.61 o 0.727230
3 0 6 197.83 175.82 2.19 o 0.726748
11 3 3 1258.03 1108.74 18.03 o 0.726286
11 4 1 224.51 198.15 3.07 o 0.726083
12 0 4 941.06 835.08 12.40 o 0.725083
15 0 2 1424.85 1262.07 21.53 o 0.724090
0 5 3 2924.02 2598.88 40.36 o 0.723835
4 3 5 178.04 158.69 2.28 o 0.723285
2 1 6 3310.67 2950.60 38.02 o 0.722899
1 5 3 221.92 196.84 3.21 o 0.722403
14 2 2 815.77 727.82 12.99 o 0.721694
6 5 2 129.96 116.99 2.02 o 0.720218
5 4 4 866.65 784.33 14.88 o 0.719803
8 5 0 1873.20 1699.73 32.94 o 0.718484
2 5 3 0.33 0.30 0.01 o 0.718157
9 1 5 82.04 74.33 1.39 o 0.718108
16 0 0 500.08 458.66 12.79 o 0.718083
14 0 3 1367.92 1245.43 30.46 o 0.717757
4 0 6 55.31 50.17 0.89 o 0.716779
9 3 4 550.93 503.34 12.89 o 0.716548
3 1 6 1228.73 1121.65 21.79 o 0.715849
12 1 4 88.59 82.14 2.65 o 0.714258
11 2 4 180.18 167.23 5.48 o 0.714250
15 1 2 3.30 3.02 0.15 o 0.713308
13 2 3 48.29 44.87 2.09 o 0.712665
3 5 3 0.66 0.63 0.03 o 0.711243
5 3 5 23.44 22.15 0.55 o 0.710721
8 2 5 67.55 63.81 1.31 o 0.709829
15 2 1 55.22 52.64 1.37 o 0.709317
8 5 1 763.48 722.89 15.05 o 0.709262
16 0 1 457.83 437.04 11.84 o 0.708877
16 1 0 3187.38 3019.45 65.44 o 0.707564
14 1 3 94.76 89.20 1.78 o 0.707251
9 4 3 25.68 24.15 0.47 o 0.707213
4 1 6 102.10 95.56 1.58 o 0.706316
13 3 2 2139.10 2004.72 37.86 o 0.706067
14 3 0 1874.87 1756.29 32.69 o 0.705761
6 4 4 956.58 891.94 16.13 o 0.704750
5 0 6 63.93 59.78 0.96 o 0.704546
12 4 0 1706.60 1587.04 29.35 o 0.703535
10 0 5 58.29 54.04 0.93 o 0.702722
7 5 2 156.48 144.81 2.86 o 0.702498
4 5 3 2462.16 2258.03 50.65 o 0.701891
16 1 1 351.56 325.49 10.83 o 0.698751
11 4 2 1329.75 1246.84 32.94 o 0.698614
0 2 6 14.85 14.21 0.28 o 0.697147
14 3 1 143.45 136.17 3.73 o 0.697015
6 3 5 243.15 233.73 5.29 o 0.696219
1 2 6 2.03 1.95 0.04 o 0.695868
12 3 3 1424.15 1386.93 35.18 o 0.695047
12 4 1 288.35 282.15 6.49 o 0.694870
5 1 6 753.07 731.96 13.31 o 0.694602
10 1 5 517.89 511.11 9.97 o 0.692855
2 2 6 62.01 61.62 1.10 o 0.692070
0 6 0 5580.29 5575.66 106.09 o 0.691490
13 0 4 451.17 450.17 9.25 o 0.691475
10 3 4 1547.50 1539.89 32.59 o 0.691453
6 0 6 475.54 474.80 8.08 o 0.690412
5 5 3 506.24 508.60 10.88 o 0.690392
7 4 4 299.34 301.66 6.70 o 0.688122
9 2 5 707.11 710.77 12.80 o 0.687863
9 5 1 1864.65 1866.42 36.33 o 0.687347
2 6 0 17.07 16.95 0.30 o 0.686534
3 2 6 165.17 165.17 2.56 o 0.685876
12 2 4 771.14 770.63 14.47 o 0.684477
15 2 2 1172.32 1161.14 23.93 o 0.683641
8 5 2 726.29 725.73 13.31 o 0.683592
16 0 2 0.95 0.94 0.02 o 0.683247
10 4 3 1012.45 1010.80 19.42 o 0.683054
13 1 4 799.09 799.03 14.47 o 0.682067
1 6 1 38.45 38.39 0.66 o 0.682053
6 1 6 2039.67 2055.33 32.51 o 0.681046
15 0 3 94.09 94.06 1.94 o 0.680291
7 3 5 1375.09 1380.70 24.18 o 0.680174
16 2 0 417.95 430.05 10.21 o 0.678579
2 6 1 473.30 488.31 8.79 o 0.678476
14 2 3 1120.86 1158.68 27.25 o 0.678303
4 2 6 49.90 51.83 0.78 o 0.677478
6 5 3 4.34 4.57 0.10 o 0.677077
11 0 5 1145.16 1204.90 20.40 o 0.676647
7 0 6 589.48 611.16 8.65 o 0.674756
16 1 2 868.99 931.69 18.68 o 0.674167
1 4 5 1896.25 1979.10 32.68 o 0.673503
10 5 0 814.62 852.70 13.36 o 0.672691
3 6 1 42.82 44.83 0.70 o 0.672637
14 3 2 277.17 288.05 4.92 o 0.672607
4 6 0 4422.85 4618.02 66.89 o 0.672283
15 1 3 1568.62 1622.24 26.86 o 0.671327
16 2 1 374.09 384.75 6.42 o 0.670794
12 4 2 167.13 172.28 2.61 o 0.670679
8 4 4 282.51 290.44 4.40 o 0.670324
2 4 5 346.43 356.86 5.13 o 0.670058
17 0 1 3537.93 3666.40 70.60 o 0.668151
11 1 5 2529.37 2586.88 33.10 o 0.667823
5 2 6 48.44 49.66 0.61 o 0.667121
11 3 4 0.05 0.05 0.00 o 0.666568
7 1 6 728.71 755.63 9.09 o 0.666005
10 2 5 46.59 48.26 0.66 o 0.665572
13 3 3 341.17 349.61 5.40 o 0.665280
13 4 1 2695.05 2776.53 40.77 o 0.665124
10 5 1 57.93 60.05 0.84 o 0.665105
4 6 1 33.61 35.25 0.47 o 0.664710
3 4 5 2094.44 2182.71 31.22 o 0.664433
9 5 2 1353.52 1423.99 20.51 o 0.663907
1 5 4 46.85 49.36 0.76 o 0.663563
8 3 5 59.32 62.01 0.85 o 0.662971
15 3 1 38.61 40.53 0.63 o 0.662554
7 5 3 259.21 270.95 4.07 o 0.662292
2 5 4 3246.65 3458.83 62.78 o 0.660268
0 6 2 1490.11 1569.44 26.17 o 0.660220
14 0 4 2061.59 2200.15 39.48 o 0.659957
17 1 1 101.50 108.87 2.20 o 0.659652
1 6 2 928.73 1001.21 18.20 o 0.659133
11 4 3 522.94 564.63 10.99 o 0.659034
8 0 6 226.51 244.66 4.19 o 0.657950
4 4 5 16.57 17.51 0.40 o 0.656789
13 2 4 366.32 393.90 11.99 o 0.655992
2 6 2 40.82 43.35 1.12 o 0.655902
6 2 6 382.29 404.12 8.47 o 0.655084
5 6 1 465.58 510.56 14.15 o 0.654919
3 5 4 4.11 4.76 0.19 o 0.654883
14 1 4 375.79 417.40 12.27 o 0.651763
9 4 4 523.29 580.04 17.57 o 0.651733
1 3 6 803.06 887.48 20.83 o 0.651553
12 0 5 52.72 58.11 1.46 o 0.651172
3 6 2 1008.94 1104.95 27.30 o 0.650623
6 6 0 85.63 93.32 2.19 o 0.650383
8 1 6 190.05 206.65 4.32 o 0.649830
16 2 2 0.50 0.54 0.02 o 0.648955
2 3 6 2175.71 2361.10 47.62 o 0.648433
4 5 4 36.34 39.12 0.94 o 0.647561
5 4 5 1076.29 1160.67 25.53 o 0.647339
17 0 2 18.82 20.21 0.52 o 0.646560
15 2 3 74.67 80.88 1.94 o 0.646420
8 5 3 1494.01 1625.03 36.65 o 0.646379
16 0 3 798.78 865.97 20.79 o 0.646087
9 3 5 45.88 49.50 1.09 o 0.644968
13 4 2 159.59 171.88 4.26 o 0.643817
10 5 2 5.65 6.09 0.14 o 0.643799
14 4 0 29.81 32.13 0.82 o 0.643584
6 6 1 384.21 415.29 9.18 o 0.643520
4 6 2 1106.63 1197.48 27.72 o 0.643441
3 3 6 804.83 865.81 17.58 o 0.643330
12 1 5 8.45 9.17 0.20 o 0.643297
11 2 5 929.11 1006.18 22.89 o 0.643291
11 5 1 179.02 194.59 4.68 o 0.642869
12 3 4 48.85 53.46 1.47 o 0.642175
7 2 6 487.13 516.24 10.07 o 0.641665
15 3 2 2.58 2.79 0.08 o 0.641484
9 0 6 121.67 126.38 2.29 o 0.640343
17 1 2 1654.15 1720.80 45.45 o 0.638850
5 5 4 154.09 156.98 3.45 o 0.638498
16 1 3 657.43 672.42 15.45 o 0.638393
18 0 0 24.89 25.74 0.70 o 0.638296
16 3 0 2099.71 2115.24 44.81 o 0.637297
14 3 3 68.95 69.38 1.46 o 0.637068
14 4 1 324.93 327.69 6.71 o 0.636932
4 3 6 64.09 65.27 1.22 o 0.636384
6 4 5 167.26 168.50 3.39 o 0.636324
17 2 1 2888.54 2888.67 64.09 o 0.635978
12 4 3 536.01 538.34 11.45 o 0.635429
5 6 2 606.39 611.72 11.99 o 0.634548
1 0 7 238.05 239.33 3.61 o 0.633489
9 1 6 309.99 311.69 5.25 o 0.632850
10 4 4 1315.54 1319.31 31.08 o 0.632679
18 0 1 266.81 272.88 7.95 o 0.631804
18 1 0 1798.25 1831.41 47.74 o 0.630874
16 3 1 240.66 243.06 5.58 o 0.630835
7 6 1 120.51 120.91 2.40 o 0.630785
2 0 7 2383.90 2375.51 37.03 o 0.630620
15 0 4 67.85 68.14 1.43 o 0.630482
9 5 3 400.15 399.40 8.27 o 0.629661
14 2 4 1681.84 1666.88 34.61 o 0.628899
6 5 4 1986.69 1964.72 41.53 o 0.627921
5 3 6 510.08 507.44 9.30 o 0.627777
0 1 7 141.64 141.22 2.40 o 0.627164
8 2 6 192.20 190.61 3.44 o 0.627162
12 5 0 1754.25 1737.88 34.76 o 0.627061
13 0 5 248.49 246.19 4.85 o 0.626502
10 3 5 339.56 336.66 6.83 o 0.626486
1 1 7 100.95 100.42 1.75 o 0.626232
3 0 7 491.52 489.00 8.54 o 0.625924
1 6 3 575.32 565.66 12.35 o 0.625583
18 1 1 169.73 167.92 5.10 o 0.624604
6 6 2 241.58 238.58 5.81 o 0.624163
7 4 5 1391.42 1373.72 35.47 o 0.624004
11 5 2 30.33 30.22 0.82 o 0.623569
2 1 7 48.53 48.39 0.91 o 0.623460
15 1 4 4.26 4.27 0.12 o 0.623326
8 6 0 2203.06 2203.10 56.80 o 0.623033
2 6 3 583.61 585.25 17.10 o 0.622820
10 0 6 622.35 625.70 15.00 o 0.622244
12 2 5 41.20 41.73 1.19 o 0.621282
12 5 1 345.95 350.42 10.33 o 0.620902
4 0 7 7.64 7.73 0.19 o 0.619521
13 1 5 19.55 19.80 0.62 o 0.619479
3 1 7 10.98 11.13 0.28 o 0.618920
13 3 4 538.44 551.40 19.20 o 0.618477
3 6 3 788.56 809.90 27.84 o 0.618294
14 4 2 413.22 424.12 14.93 o 0.618146
6 3 6 1369.32 1414.66 44.35 o 0.617715
17 2 2 15.40 15.65 0.59 o 0.617274
8 6 1 91.68 94.46 3.11 o 0.616992
16 2 3 658.42 670.87 24.94 o 0.616862
7 5 4 0.01 0.01 0.00 o 0.616074
10 1 6 784.39 798.52 24.35 o 0.615362
17 0 3 89.75 91.78 4.06 o 0.614805
18 0 2 194.88 200.56 10.34 o 0.613456
11 4 4 106.55 108.27 4.73 o 0.613449
4 1 7 169.18 167.76 4.84 o 0.612728
16 3 2 567.65 577.02 26.39 o 0.612568
7 6 2 825.25 830.17 33.86 o 0.612523
13 4 3 19.56 19.80 0.92 o 0.612444
10 5 3 17.44 17.68 0.77 o 0.612429
4 6 3 67.39 67.60 2.89 o 0.612121
9 2 6 96.93 96.12 3.43 o 0.611856
5 0 7 25.84 25.10 0.75 o 0.611571
8 4 5 32.46 31.71 1.27 o 0.610641
15 3 3 1041.70 1010.44 44.37 o 0.610435
15 4 1 25.94 25.20 1.03 o 0.610315
18 2 0 23.24 22.27 1.08 o 0.610070
17 1 3 68.45 63.92 2.70 o 0.608164
11 3 5 1715.92 1620.08 57.89 o 0.607798
18 1 2 547.16 511.65 21.24 o 0.606858
7 3 6 483.15 461.17 13.27 o 0.606426
0 5 5 99.27 94.88 3.24 o 0.606360
1 2 7 194.22 181.50 4.73 o 0.605869
1 5 5 26.83 25.69 0.82 o 0.605517
5 1 7 123.52 114.88 2.99 o 0.605034
5 6 3 191.85 179.89 5.45 o 0.604449
18 2 1 222.01 210.13 7.11 o 0.604395
11 0 6 768.34 714.23 19.50 o 0.603922
12 5 2 597.25 553.19 17.19 o 0.603462
2 2 7 1967.42 1818.68 47.43 o 0.603358
15 2 4 58.45 54.25 1.73 o 0.603237
8 5 4 56.04 52.15 1.70 o 0.603203
2 5 5 16.40 15.24 0.49 o 0.603010
16 0 4 822.93 764.55 24.45 o 0.602966
14 0 5 4.53 4.18 0.13 o 0.602773
0 4 6 14.17 13.05 0.40 o 0.602511
9 6 1 994.70 919.32 27.67 o 0.602402
6 0 7 1591.46 1465.29 38.46 o 0.602258
1 4 6 2.60 2.39 0.08 o 0.601684
17 3 1 67.79 62.23 2.12 o 0.601618
8 6 2 432.36 385.62 13.54 o 0.599870
13 2 5 213.87 190.28 6.73 o 0.599748
13 5 1 483.56 426.34 16.05 o 0.599406
3 2 7 401.44 365.52 9.92 o 0.599241
2 4 6 32.89 29.34 1.00 o 0.599224
19 0 1 3.52 3.08 0.17 o 0.599173
3 5 5 263.75 232.22 9.75 o 0.598899
11 1 6 220.27 193.37 6.61 o 0.597624
16 1 4 0.81 0.72 0.05 o 0.596698
14 1 5 360.71 319.64 12.39 o 0.596510
9 4 5 417.88 370.44 14.80 o 0.596487
6 1 7 323.60 286.09 9.76 o 0.596011
10 2 6 508.75 451.60 16.73 o 0.596009
14 3 4 265.01 234.59 9.96 o 0.595615
6 6 3 528.18 468.41 19.47 o 0.595452
3 4 6 100.09 89.02 3.55 o 0.595191
11 5 3 554.28 492.88 21.24 o 0.594937
12 4 4 443.74 394.69 17.64 o 0.594275
8 3 6 121.80 109.24 4.41 o 0.594139
15 4 2 682.02 606.12 27.99 o 0.593728
4 2 7 5.87 5.32 0.20 o 0.593615
4 5 5 71.89 63.85 3.03 o 0.593284
19 1 1 15.28 13.28 0.84 o 0.593021
10 6 0 64.09 57.88 2.58 o 0.592463
7 0 7 482.19 451.48 15.55 o 0.591781
16 4 0 253.20 247.06 13.67 o 0.590403
14 4 3 643.79 639.75 36.84 o 0.590222
4 4 6 36.50 36.65 1.48 o 0.589678
2 7 0 111.00 110.23 4.07 o 0.589576
9 5 4 255.08 259.38 12.89 o 0.589549
17 2 3 70.35 71.17 4.01 o 0.589462
12 3 5 5.60 5.68 0.23 o 0.589134
18 2 2 157.46 160.40 6.85 o 0.588273
0 7 1 453.64 448.10 13.75 o 0.587497
10 6 1 253.95 250.64 7.82 o 0.587260
0 6 4 33.13 32.67 1.10 o 0.586962
1 7 1 1145.88 1132.88 33.81 o 0.586730
5 2 7 21.39 21.30 0.60 o 0.586611
9 6 2 262.20 259.14 7.96 o 0.586435
5 5 5 4.88 4.81 0.18 o 0.586291
1 6 4 336.22 331.68 10.64 o 0.586198
18 0 3 661.39 651.82 21.79 o 0.586135
7 1 7 24.33 24.30 0.67 o 0.585852
17 3 2 1144.70 1127.73 36.28 o 0.585712
12 0 6 424.53 423.67 12.22 o 0.585602
16 3 3 460.88 454.84 14.48 o 0.585360
7 6 3 559.22 554.68 17.08 o 0.585321
16 4 1 212.91 210.53 6.56 o 0.585254
2 7 1 1.30 1.29 0.04 o 0.584449
2 6 4 53.50 53.03 1.71 o 0.583922
13 5 2 1003.74 997.50 30.99 o 0.583670
14 5 0 876.63 872.37 26.45 o 0.583497
19 0 2 602.73 595.04 24.21 o 0.583455
5 4 6 22.12 21.92 0.64 o 0.582810
10 4 5 24.92 24.97 0.85 o 0.581776
9 3 6 219.52 218.44 6.65 o 0.581078
3 7 1 751.90 751.10 23.17 o 0.580704
4 7 0 226.40 226.17 7.00 o 0.580476
18 1 3 130.48 130.72 5.07 o 0.580372
8 0 7 9.40 9.28 0.26 o 0.580347
3 6 4 240.56 240.61 8.70 o 0.580188
15 0 5 160.36 160.11 5.38 o 0.580067
12 1 6 107.57 106.95 3.31 o 0.579855
11 2 6 639.39 635.37 19.62 o 0.579850
18 3 0 1231.35 1218.66 44.96 o 0.579547
16 2 4 683.70 672.59 23.91 o 0.579004
14 2 5 3.77 3.72 0.12 o 0.578833
14 5 1 70.83 69.69 2.31 o 0.578525
6 2 7 1322.51 1301.61 35.56 o 0.578377
6 5 5 106.96 104.70 3.54 o 0.578070
19 1 2 2.43 2.36 0.09 o 0.577770
12 5 3 676.91 653.86 21.50 o 0.577399
17 0 4 96.79 93.62 3.18 o 0.577302
0 3 7 107.66 104.88 2.93 o 0.576667
1 3 7 65.23 63.57 1.82 o 0.575942
19 2 1 2.92 2.81 0.11 o 0.575643
4 7 1 391.52 379.78 12.01 o 0.575581
13 4 4 204.48 196.73 7.30 o 0.575346
10 5 4 723.89 696.44 25.81 o 0.575333
4 6 4 57.22 55.20 2.06 o 0.575078
8 1 7 228.40 224.41 6.54 o 0.574751
6 4 6 207.69 202.63 6.96 o 0.574733
18 3 1 120.07 115.90 4.52 o 0.574675
15 1 5 1876.72 1832.25 65.64 o 0.574479
20 0 0 17.37 16.64 0.75 o 0.574467
8 6 3 180.52 176.58 6.52 o 0.574250
2 3 7 32.90 32.47 1.02 o 0.573784
15 3 4 3.49 3.42 0.14 o 0.573680
10 6 2 289.00 288.59 10.82 o 0.572439
1 7 2 321.28 320.21 11.20 o 0.571948
17 1 4 517.48 526.35 22.98 o 0.571793
11 6 1 66.46 66.25 2.41 o 0.571784
13 3 5 11.65 11.93 0.50 o 0.570676
16 4 2 0.04 0.04 0.01 o 0.570580
3 3 7 6.91 6.99 0.24 o 0.570239
2 7 2 117.77 121.91 4.77 o 0.569834
20 0 1 234.73 240.98 11.74 o 0.569720
5 7 1 1055.23 1100.03 42.61 o 0.569188
7 2 7 397.52 409.85 14.64 o 0.569079
20 1 0 1056.24 1082.88 51.18 o 0.569038
15 4 3 39.12 40.42 1.76 o 0.568855
7 5 5 657.14 678.58 28.86 o 0.568787
5 6 4 319.07 329.39 14.15 o 0.568702
9 0 7 10.62 11.05 0.40 o 0.568156
13 0 6 90.00 92.83 3.63 o 0.567465
10 3 6 545.63 561.84 22.31 o 0.567453
11 4 5 516.94 528.08 23.14 o 0.566719
3 7 2 164.10 168.03 6.85 o 0.566361
6 7 0 189.16 193.98 7.71 o 0.566203
7 4 6 284.34 291.72 12.42 o 0.565607
4 3 7 126.25 127.47 4.41 o 0.565385
20 1 1 82.43 85.65 5.51 o 0.564424
14 5 2 129.54 132.98 6.30 o 0.564340
18 2 3 553.68 568.27 30.94 o 0.564052
12 2 6 356.58 352.72 14.46 o 0.563577
9 1 7 43.12 42.95 1.70 o 0.562902
9 6 3 13.43 13.13 0.59 o 0.562431
13 1 6 95.29 94.12 3.99 o 0.562230
17 3 3 46.86 45.57 2.16 o 0.561793
17 4 1 1632.88 1592.84 73.57 o 0.561700
19 2 2 508.63 493.17 24.16 o 0.561663
6 7 1 10.15 9.99 0.44 o 0.561657
4 7 2 92.85 91.18 4.05 o 0.561605
6 6 4 348.10 340.88 16.06 o 0.561190
18 3 2 373.47 362.11 18.07 o 0.560764
11 5 4 0.07 0.07 0.01 o 0.560758
12 6 0 677.20 663.15 31.16 o 0.560576
13 5 3 149.36 144.58 7.47 o 0.559991
19 0 3 28.07 26.69 1.52 o 0.559801
5 3 7 80.64 78.63 3.84 o 0.559323
8 2 7 7.19 6.98 0.36 o 0.558888
