#------------------------------------------------------------------------------
#$Date: 2016-06-17 04:50:27 +0300 (Fri, 17 Jun 2016) $
#$Revision: 183633 $
#$URL: file:///home/coder/svn-repositories/cod/cif/2/10/75/2107518.cif $
#------------------------------------------------------------------------------
#
# This file is available in the Crystallography Open Database (COD),
# http://www.crystallography.net/. The original data for this entry
# were provided by IUCr Journals, http://journals.iucr.org/.
#
# The file may be used within the scientific community so long as
# proper attribution is given to the journal article from which the
# data were obtained.
#
data_2107518
loop_
_publ_author_name
'Sist, Mattia'
'Zhang, Jiawei'
'Brummerstedt Iversen, Bo'
_publ_section_title
;
 Crystal structure and phase transition of thermoelectric SnSe
;
_journal_coeditor_code           GW5043
_journal_issue                   3
_journal_name_full               'Acta Crystallographica Section B'
_journal_page_first              310
_journal_page_last               316
_journal_paper_doi               10.1107/S2052520616003334
_journal_volume                  72
_journal_year                    2016
_chemical_formula_moiety         'Se1 Sn0.9816'
_chemical_formula_sum            'Se Sn0.9816'
_chemical_formula_weight         195.50
_chemical_name_common            'Tin Selenide'
_space_group_IT_number           62
_symmetry_cell_setting           orthorhombic
_symmetry_Int_Tables_number      62
_symmetry_space_group_name_Hall  '-P 2ac 2n'
_symmetry_space_group_name_H-M   'P n m a'
_cell_angle_alpha                90
_cell_angle_beta                 90
_cell_angle_gamma                90
_cell_formula_units_Z            4
_cell_length_a                   11.67175(14)
_cell_length_b                   4.26761(6)
_cell_length_c                   4.33976(7)
_cell_measurement_temperature    755(5)
_cell_volume                     216.166(5)
_computing_structure_refinement  'Jana2006, (Petricek,2014)'
_diffrn_ambient_temperature      755(5)
_diffrn_detector_type            'Image plate'
_diffrn_measurement_device_type  BL44B2
_diffrn_radiation_probe          x-ray
_diffrn_radiation_type           Synchrotron,monochromatic
_diffrn_radiation_wavelength     0.50021
_diffrn_source_type              'Spring8, BL44B2 beamline'
_exptl_absorpt_coefficient_mu    10.995
_exptl_absorpt_correction_type   none
_exptl_crystal_density_diffrn    6.007
_exptl_crystal_F_000             332.3
_pd_char_colour                  metallic_grey
_pd_meas_2theta_range_inc        0.01
_pd_meas_2theta_range_max        77.970
_pd_meas_2theta_range_min        0.010
_pd_meas_number_of_points        7797
_pd_proc_2theta_range_inc        0.01
_pd_proc_2theta_range_max        34.48
_pd_proc_2theta_range_min        4.02
_pd_proc_ls_background_function
'Manual background combined with 8 Chebyshev polynoms'
_pd_proc_ls_pref_orient_corr     none
_pd_proc_ls_profile_function     Pseudo-Voigt
_pd_proc_ls_prof_R_factor        0.0195
_pd_proc_ls_prof_wR_expected     0.0132
_pd_proc_ls_prof_wR_factor       0.0261
_pd_spec_mounting                capillary
_pd_spec_mount_mode              transmission
_refine_ls_goodness_of_fit_all   1.99
_refine_ls_number_constraints    0
_refine_ls_number_parameters     27
_refine_ls_number_restraints     0
_refine_ls_R_factor_all          0.0417
_refine_ls_R_factor_gt           0.0381
_refine_ls_shift/su_max          0.0462
_refine_ls_shift/su_mean         0.0138
_refine_ls_weighting_scheme      sigma
_refine_ls_wR_factor_all         0.0146
_refine_ls_wR_factor_gt          0.0140
_cod_data_source_file            gw5043sup1.cif
_cod_data_source_block           755
_cod_depositor_comments
;
The following automatic conversions were performed:

'_diffrn_radiation_probe' value 'X-ray' changed to 'x-ray' according
to
/usr/data/users/saulius/crontab/automatic-downloads/rss-feeds/IUCr/lib/dictionaries/cif_core.dic
dictionary named 'cif_core.dic' version 2.4.2 from 2011-04-26.

Automatic conversion script
Id: cif_fix_values 4268 2015-11-12 08:31:59Z antanas 

 Adding full bibliography for 2107508--2107520.cif.
;
_cod_original_cell_volume        216.166(6)
_cod_original_formula_sum        'Se1 Sn0.9816'
_cod_database_code               2107518
_cod_database_fobs_code          2107518
loop_
_space_group_symop_id
_space_group_symop_operation_xyz
1 x,y,z
2 -x+1/2,-y,z+1/2
3 -x,y+1/2,-z
4 x+1/2,-y+1/2,-z+1/2
5 -x,-y,-z
6 x+1/2,y,-z+1/2
7 x,-y+1/2,z
8 -x+1/2,y+1/2,z+1/2
loop_
_atom_site_label
_atom_site_type_symbol
_atom_site_fract_x
_atom_site_fract_y
_atom_site_fract_z
_atom_site_adp_type
_atom_site_U_iso_or_equiv
_atom_site_site_symmetry_multiplicity
_atom_site_occupancy
_atom_site_calc_flag
Sn Sn 0.12231(6) 0.25 0.05985(16) Uani 0.0475(4) 4 0.9816 d
Se Se 0.85591(7) 0.25 0.4881(2) Uani 0.0351(5) 4 1 d
loop_
_atom_site_aniso_label
_atom_site_aniso_type_symbol
_atom_site_aniso_U_11
_atom_site_aniso_U_22
_atom_site_aniso_U_33
_atom_site_aniso_U_12
_atom_site_aniso_U_13
_atom_site_aniso_U_23
Sn Sn 0.0419(6) 0.0498(8) 0.0508(7) 0 -0.0100(7) 0
Se Se 0.0339(7) 0.0331(9) 0.0383(9) 0 -0.0028(7) 0
loop_
_atom_type_symbol
_atom_type_scat_dispersion_real
_atom_type_scat_dispersion_imag
_atom_type_scat_source
Se 0.2899 1.2209 'International Tables Vol C tables 4.2.6.8 and 6.1.1.1'
Sn -1.5316 0.7679 'International Tables Vol C tables 4.2.6.8 and 6.1.1.1'
loop_
_geom_angle_atom_site_label_1
_geom_angle_atom_site_label_2
_geom_angle_atom_site_label_3
_geom_angle_site_symmetry_1
_geom_angle_site_symmetry_2
_geom_angle_site_symmetry_3
_geom_angle
Se Sn Se 4_455 1_555 3_656 87.948
Se Sn Se 4_455 1_555 3_655 82.211
Se Sn Se 3_645 1_555 3_655 83.482
Se Sn Se 3_646 1_555 3_656 94.334
Se Sn Se 3_656 1_555 3_655 90.291
Se Sn Se 4_455 1_555 1_455 153.496
Se Sn Sn 4_455 1_555 3_545 141.203
loop_
_geom_bond_atom_site_label_1
_geom_bond_atom_site_label_2
_geom_bond_site_symmetry_1
_geom_bond_site_symmetry_2
_geom_bond_distance
Sn Se 1_555 4_455 2.734
Sn Se 1_555 3_656 2.910
Sn Se 1_555 3_655 3.205
Sn Se 1_555 1_455 3.622
Sn Sn 1_555 3_545 3.602
Sn Se 1_555 1_454 3.978
loop_
_pd_proc_point_id
_pd_proc_2theta_corrected
_pd_proc_intensity_net
_pd_calc_intensity_net
_pd_proc_ls_weight
1 4.0300 3098.00 3142.27 56.00
2 4.0400 3094.00 3141.90 56.00
3 4.0500 3086.00 3141.55 56.00
4 4.0600 3114.00 3141.23 56.00
5 4.0700 3102.00 3140.92 56.00
6 4.0800 3071.00 3140.64 55.00
7 4.0900 3100.00 3140.38 56.00
8 4.1000 3110.00 3140.13 56.00
9 4.1100 3124.00 3139.91 56.00
10 4.1200 3100.00 3139.71 56.00
11 4.1300 3127.00 3139.53 56.00
12 4.1400 3091.00 3139.37 56.00
13 4.1500 3116.00 3139.23 56.00
14 4.1600 3123.00 3139.11 56.00
15 4.1700 3125.00 3139.02 56.00
16 4.1800 3106.00 3138.94 56.00
17 4.1900 3147.00 3138.88 56.00
18 4.2000 3131.00 3138.84 56.00
19 4.2100 3131.00 3138.82 56.00
20 4.2200 3114.00 3138.82 56.00
21 4.2300 3122.00 3138.84 56.00
22 4.2400 3136.00 3138.88 56.00
23 4.2500 3142.00 3138.94 56.00
24 4.2600 3135.00 3139.02 56.00
25 4.2700 3130.00 3139.12 56.00
26 4.2800 3134.00 3139.23 56.00
27 4.2900 3121.00 3139.37 56.00
28 4.3000 3147.00 3139.53 56.00
29 4.3100 3122.00 3139.70 56.00
30 4.3200 3120.00 3139.90 56.00
31 4.3300 3135.00 3140.11 56.00
32 4.3400 3109.00 3140.34 56.00
33 4.3500 3105.00 3140.59 56.00
34 4.3600 3137.00 3140.86 56.00
35 4.3700 3147.00 3141.15 56.00
36 4.3800 3155.00 3141.46 56.00
37 4.3900 3141.00 3141.79 56.00
38 4.4000 3126.00 3142.14 56.00
39 4.4100 3135.00 3142.50 56.00
40 4.4200 3136.00 3142.89 56.00
41 4.4300 3155.00 3143.30 56.00
42 4.4400 3149.00 3143.72 56.00
43 4.4500 3163.00 3144.17 56.00
44 4.4600 3181.00 3144.63 56.00
45 4.4700 3153.00 3145.12 56.00
46 4.4800 3147.00 3145.63 56.00
47 4.4900 3148.00 3146.16 56.00
48 4.5000 3128.00 3146.71 56.00
49 4.5100 3153.00 3147.28 56.00
50 4.5200 3161.00 3147.88 56.00
51 4.5300 3178.00 3148.50 56.00
52 4.5400 3177.00 3149.14 56.00
53 4.5500 3149.00 3149.81 56.00
54 4.5600 3133.00 3150.51 56.00
55 4.5700 3172.00 3151.23 56.00
56 4.5800 3159.00 3151.98 56.00
57 4.5900 3185.00 3152.77 56.00
58 4.6000 3207.00 3153.58 57.00
59 4.6100 3198.00 3154.43 57.00
60 4.6200 3148.00 3155.32 56.00
61 4.6300 3178.00 3156.25 56.00
62 4.6400 3176.00 3157.23 56.00
63 4.6500 3148.00 3158.25 56.00
64 4.6600 3176.00 3159.33 56.00
65 4.6700 3213.00 3160.47 57.00
66 4.6800 3169.00 3161.69 56.00
67 4.6900 3186.00 3162.98 56.00
68 4.7000 3166.00 3164.36 56.00
69 4.7100 3163.00 3165.86 56.00
70 4.7200 3214.00 3167.48 57.00
71 4.7300 3158.00 3169.25 56.00
72 4.7400 3194.00 3171.20 57.00
73 4.7500 3181.00 3173.38 56.00
74 4.7600 3187.00 3175.84 56.00
75 4.7700 3186.00 3178.65 56.00
76 4.7800 3238.00 3181.92 57.00
77 4.7900 3231.00 3185.78 57.00
78 4.8000 3227.00 3190.43 57.00
79 4.8100 3236.00 3196.16 57.00
80 4.8200 3202.00 3203.41 57.00
81 4.8300 3257.00 3212.87 57.00
82 4.8400 3276.00 3225.72 57.00
83 4.8500 3349.00 3244.72 58.00
84 4.8600 3425.00 3281.26 59.00
85 4.8700 3656.00 3388.28 60.00
86 4.8800 4069.00 3744.29 64.00
87 4.8900 4945.00 4688.50 70.00
88 4.9000 6421.00 6378.85 80.00
89 4.9100 7738.00 8118.12 88.00
90 4.9200 7615.00 8421.68 87.00
91 4.9300 6349.00 6956.83 80.00
92 4.9400 4790.00 5129.71 69.00
93 4.9500 3841.00 3954.86 62.00
94 4.9600 3491.00 3464.16 59.00
95 4.9700 3362.00 3311.86 58.00
96 4.9800 3267.00 3265.46 57.00
97 4.9900 3230.00 3245.26 57.00
98 5.0000 3242.00 3233.02 57.00
99 5.0100 3213.00 3224.71 57.00
100 5.0200 3206.00 3218.88 57.00
101 5.0300 3204.00 3214.74 57.00
102 5.0400 3156.00 3211.80 56.00
103 5.0500 3154.00 3209.72 56.00
104 5.0600 3179.00 3208.28 56.00
105 5.0700 3206.00 3207.33 57.00
106 5.0800 3203.00 3206.76 57.00
107 5.0900 3200.00 3206.48 57.00
108 5.1000 3195.00 3206.44 57.00
109 5.1100 3185.00 3206.59 56.00
110 5.1200 3191.00 3206.90 56.00
111 5.1300 3178.00 3207.34 56.00
112 5.1400 3220.00 3207.88 57.00
113 5.1500 3210.00 3208.52 57.00
114 5.1600 3209.00 3209.24 57.00
115 5.1700 3224.00 3210.02 57.00
116 5.1800 3218.00 3210.87 57.00
117 5.1900 3225.00 3211.76 57.00
118 5.2000 3215.00 3212.71 57.00
119 5.2100 3195.00 3213.69 57.00
120 5.2200 3216.00 3214.71 57.00
121 5.2300 3200.00 3215.76 57.00
122 5.2400 3199.00 3216.85 57.00
123 5.2500 3216.00 3217.96 57.00
124 5.2600 3252.00 3219.09 57.00
125 5.2700 3237.00 3220.25 57.00
126 5.2800 3223.00 3221.43 57.00
127 5.2900 3239.00 3222.63 57.00
128 5.3000 3255.00 3223.84 57.00
129 5.3100 3231.00 3225.08 57.00
130 5.3200 3273.00 3226.33 57.00
131 5.3300 3224.00 3227.60 57.00
132 5.3400 3241.00 3228.88 57.00
133 5.3500 3234.00 3230.17 57.00
134 5.3600 3234.00 3231.48 57.00
135 5.3700 3271.00 3232.80 57.00
136 5.3800 3252.00 3234.13 57.00
137 5.3900 3247.00 3235.47 57.00
138 5.4000 3246.00 3236.83 57.00
139 5.4100 3253.00 3238.19 57.00
140 5.4200 3259.00 3239.56 57.00
141 5.4300 3241.00 3240.95 57.00
142 5.4400 3242.00 3242.34 57.00
143 5.4500 3257.00 3244.48 57.00
144 5.4600 3226.00 3245.90 57.00
145 5.4700 3277.00 3247.33 57.00
146 5.4800 3254.00 3248.77 57.00
147 5.4900 3264.00 3250.21 57.00
148 5.5000 3281.00 3251.67 57.00
149 5.5100 3284.00 3253.13 57.00
150 5.5200 3263.00 3254.60 57.00
151 5.5300 3278.00 3256.08 57.00
152 5.5400 3292.00 3257.57 57.00
153 5.5500 3265.00 3259.06 57.00
154 5.5600 3288.00 3260.56 57.00
155 5.5700 3290.00 3262.07 57.00
156 5.5800 3285.00 3263.58 57.00
157 5.5900 3259.00 3265.10 57.00
158 5.6000 3279.00 3266.63 57.00
159 5.6100 3269.00 3268.16 57.00
160 5.6200 3304.00 3269.70 57.00
161 5.6300 3289.00 3271.25 57.00
162 5.6400 3266.00 3272.80 57.00
163 5.6500 3271.00 3274.36 57.00
164 5.6600 3263.00 3275.92 57.00
165 5.6700 3277.00 3277.49 57.00
166 5.6800 3300.00 3279.07 57.00
167 5.6900 3310.00 3280.65 58.00
168 5.7000 3279.00 3282.24 57.00
169 5.7100 3327.00 3283.83 58.00
170 5.7200 3294.00 3285.43 57.00
171 5.7300 3302.00 3287.03 57.00
172 5.7400 3332.00 3288.64 58.00
173 5.7500 3325.00 3290.25 58.00
174 5.7600 3284.00 3291.87 57.00
175 5.7700 3342.00 3293.49 58.00
176 5.7800 3308.00 3295.12 58.00
177 5.7900 3336.00 3296.75 58.00
178 5.8000 3336.00 3298.39 58.00
179 5.8100 3331.00 3300.04 58.00
180 5.8200 3294.00 3301.68 57.00
181 5.8300 3321.00 3303.34 58.00
182 5.8400 3289.00 3304.99 57.00
183 5.8500 3294.00 3306.65 57.00
184 5.8600 3317.00 3308.32 58.00
185 5.8700 3322.00 3309.99 58.00
186 5.8800 3319.00 3311.66 58.00
187 5.8900 3323.00 3313.34 58.00
188 5.9000 3317.00 3315.03 58.00
189 5.9100 3329.00 3316.71 58.00
190 5.9200 3341.00 3318.40 58.00
191 5.9300 3366.00 3320.10 58.00
192 5.9400 3346.00 3321.80 58.00
193 5.9500 3342.00 3323.50 58.00
194 5.9600 3340.00 3325.21 58.00
195 5.9700 3329.00 3326.92 58.00
196 5.9800 3373.00 3328.64 58.00
197 5.9900 3348.00 3330.36 58.00
198 6.0000 3339.00 3332.08 58.00
199 6.0100 3339.00 3333.81 58.00
200 6.0200 3359.00 3335.54 58.00
201 6.0300 3331.00 3337.27 58.00
202 6.0400 3357.00 3339.01 58.00
203 6.0500 3336.00 3340.75 58.00
204 6.0600 3324.00 3343.09 58.00
205 6.0700 3343.00 3345.17 58.00
206 6.0800 3350.00 3347.52 58.00
207 6.0900 3375.00 3349.88 58.00
208 6.1000 3390.00 3352.24 58.00
209 6.1100 3375.00 3354.60 58.00
210 6.1200 3375.00 3356.96 58.00
211 6.1300 3378.00 3359.33 58.00
212 6.1400 3375.00 3361.71 58.00
213 6.1500 3375.00 3364.08 58.00
214 6.1600 3389.00 3366.46 58.00
215 6.1700 3401.00 3368.85 58.00
216 6.1800 3371.00 3371.24 58.00
217 6.1900 3394.00 3373.63 58.00
218 6.2000 3401.00 3376.02 58.00
219 6.2100 3384.00 3378.42 58.00
220 6.2200 3422.00 3380.83 58.00
221 6.2300 3408.00 3383.23 58.00
222 6.2400 3400.00 3385.65 58.00
223 6.2500 3384.00 3388.06 58.00
224 6.2600 3398.00 3390.48 58.00
225 6.2700 3400.00 3392.91 58.00
226 6.2800 3376.00 3395.33 58.00
227 6.2900 3409.00 3397.77 58.00
228 6.3000 3404.00 3400.21 58.00
229 6.3100 3430.00 3402.65 59.00
230 6.3200 3405.00 3405.10 58.00
231 6.3300 3407.00 3407.55 58.00
232 6.3400 3416.00 3410.01 58.00
233 6.3500 3422.00 3412.47 58.00
234 6.3600 3382.00 3414.94 58.00
235 6.3700 3415.00 3417.42 58.00
236 6.3800 3406.00 3419.90 58.00
237 6.3900 3426.00 3422.39 59.00
238 6.4000 3453.00 3424.88 59.00
239 6.4100 3455.00 3427.38 59.00
240 6.4200 3422.00 3429.89 58.00
241 6.4300 3436.00 3432.41 59.00
242 6.4400 3426.00 3434.93 59.00
243 6.4500 3421.00 3437.46 58.00
244 6.4600 3479.00 3440.01 59.00
245 6.4700 3445.00 3442.56 59.00
246 6.4800 3423.00 3445.12 59.00
247 6.4900 3432.00 3447.69 59.00
248 6.5000 3458.00 3450.28 59.00
249 6.5100 3461.00 3452.88 59.00
250 6.5200 3456.00 3455.49 59.00
251 6.5300 3480.00 3458.11 59.00
252 6.5400 3457.00 3460.75 59.00
253 6.5500 3448.00 3463.41 59.00
254 6.5600 3461.00 3466.08 59.00
255 6.5700 3458.00 3468.77 59.00
256 6.5800 3485.00 3471.49 59.00
257 6.5900 3504.00 3474.22 59.00
258 6.6000 3467.00 3476.98 59.00
259 6.6100 3501.00 3479.77 59.00
260 6.6200 3480.00 3482.58 59.00
261 6.6300 3487.00 3485.43 59.00
262 6.6400 3490.00 3488.31 59.00
263 6.6500 3498.00 3491.23 59.00
264 6.6600 3458.00 3494.19 59.00
265 6.6700 3467.00 3497.20 59.00
266 6.6800 3470.00 3500.25 59.00
267 6.6900 3493.00 3504.46 59.00
268 6.7000 3476.00 3507.65 59.00
269 6.7100 3502.00 3510.91 59.00
270 6.7200 3475.00 3514.25 59.00
271 6.7300 3503.00 3517.68 59.00
272 6.7400 3509.00 3521.21 59.00
273 6.7500 3500.00 3524.85 59.00
274 6.7600 3526.00 3528.63 59.00
275 6.7700 3514.00 3532.54 59.00
276 6.7800 3520.00 3537.51 59.00
277 6.7900 3530.00 3541.81 59.00
278 6.8000 3524.00 3546.32 59.00
279 6.8100 3536.00 3551.10 59.00
280 6.8200 3523.00 3556.18 59.00
281 6.8300 3553.00 3561.62 60.00
282 6.8400 3541.00 3567.50 60.00
283 6.8500 3558.00 3573.88 60.00
284 6.8600 3545.00 3580.88 60.00
285 6.8700 3568.00 3588.62 60.00
286 6.8800 3576.00 3597.29 60.00
287 6.8900 3588.00 3607.09 60.00
288 6.9000 3563.00 3618.33 60.00
289 6.9100 3595.00 3631.38 60.00
290 6.9200 3596.00 3646.78 60.00
291 6.9300 3620.00 3665.27 60.00
292 6.9400 3710.00 3687.88 61.00
293 6.9500 3711.00 3716.19 61.00
294 6.9600 3714.00 3752.94 61.00
295 6.9700 3809.00 3804.10 62.00
296 6.9800 3912.00 3885.18 63.00
297 6.9900 4080.00 4036.36 64.00
298 7.0000 4388.00 4345.99 66.00
299 7.0100 4978.00 4961.44 71.00
300 7.0200 5905.00 6040.09 77.00
301 7.0300 7397.00 7609.99 86.00
302 7.0400 9192.00 9385.54 96.00
303 7.0500 10696.00 10636.70 103.00
304 7.0600 10657.00 10516.10 103.00
305 7.0700 9185.00 9121.94 96.00
306 7.0800 7352.00 7346.93 86.00
307 7.0900 6002.00 5851.02 77.00
308 7.1000 5046.00 4858.13 71.00
309 7.1100 4472.00 4307.54 67.00
310 7.1200 4172.00 4036.33 65.00
311 7.1300 4028.00 3905.46 63.00
312 7.1400 3899.00 3835.72 62.00
313 7.1500 3829.00 3792.32 62.00
314 7.1600 3800.00 3761.97 62.00
315 7.1700 3739.00 3739.51 61.00
316 7.1800 3745.00 3722.44 61.00
317 7.1900 3698.00 3709.30 61.00
318 7.2000 3670.00 3699.11 61.00
319 7.2100 3659.00 3691.18 60.00
320 7.2200 3636.00 3685.00 60.00
321 7.2300 3639.00 3680.19 60.00
322 7.2400 3660.00 3676.49 60.00
323 7.2500 3646.00 3673.68 60.00
324 7.2600 3655.00 3671.59 60.00
325 7.2700 3646.00 3670.10 60.00
326 7.2800 3635.00 3669.11 60.00
327 7.2900 3645.00 3668.53 60.00
328 7.3000 3679.00 3668.31 61.00
329 7.3100 3664.00 3668.39 61.00
330 7.3200 3646.00 3668.72 60.00
331 7.3300 3621.00 3669.28 60.00
332 7.3400 3607.00 3670.02 60.00
333 7.3500 3628.00 3670.94 60.00
334 7.3600 3680.00 3671.99 61.00
335 7.3700 3665.00 3673.18 61.00
336 7.3800 3636.00 3674.48 60.00
337 7.3900 3645.00 3675.88 60.00
338 7.4000 3639.00 3677.37 60.00
339 7.4100 3659.00 3678.94 60.00
340 7.4200 3680.00 3680.58 61.00
341 7.4300 3656.00 3682.29 60.00
342 7.4400 3665.00 3684.06 61.00
343 7.4500 3669.00 3685.88 61.00
344 7.4600 3638.00 3687.75 60.00
345 7.4700 3639.00 3689.67 60.00
346 7.4800 3695.00 3691.63 61.00
347 7.4900 3645.00 3693.62 60.00
348 7.5000 3655.00 3695.66 60.00
349 7.5100 3634.00 3697.72 60.00
350 7.5200 3648.00 3699.82 60.00
351 7.5300 3671.00 3701.95 61.00
352 7.5400 3694.00 3704.11 61.00
353 7.5500 3690.00 3706.30 61.00
354 7.5600 3667.00 3708.51 61.00
355 7.5700 3663.00 3710.75 61.00
356 7.5800 3625.00 3713.01 60.00
357 7.5900 3641.00 3715.30 60.00
358 7.6000 3662.00 3717.62 61.00
359 7.6100 3733.00 3719.95 61.00
360 7.6200 3684.00 3722.31 61.00
361 7.6300 3687.00 3724.70 61.00
362 7.6400 3662.00 3727.11 61.00
363 7.6500 3695.00 3729.54 61.00
364 7.6600 3693.00 3732.00 61.00
365 7.6700 3708.00 3734.49 61.00
366 7.6800 3684.00 3737.00 61.00
367 7.6900 3696.00 3739.54 61.00
368 7.7000 3685.00 3742.11 61.00
369 7.7100 3660.00 3744.71 60.00
370 7.7200 3710.00 3747.35 61.00
371 7.7300 3701.00 3750.01 61.00
372 7.7400 3733.00 3752.12 61.00
373 7.7500 3727.00 3754.26 61.00
374 7.7600 3719.00 3756.44 61.00
375 7.7700 3715.00 3758.67 61.00
376 7.7800 3736.00 3760.94 61.00
377 7.7900 3737.00 3763.27 61.00
378 7.8000 3732.00 3765.64 61.00
379 7.8100 3751.00 3768.08 61.00
380 7.8200 3707.00 3770.58 61.00
381 7.8300 3735.00 3773.14 61.00
382 7.8400 3775.00 3775.79 61.00
383 7.8500 3772.00 3778.51 61.00
384 7.8600 3721.00 3781.33 61.00
385 7.8700 3772.00 3784.24 61.00
386 7.8800 3717.00 3787.27 61.00
387 7.8900 3772.00 3790.41 61.00
388 7.9000 3781.00 3793.70 61.00
389 7.9100 3791.00 3797.13 62.00
390 7.9200 3764.00 3800.73 61.00
391 7.9300 3776.00 3804.52 61.00
392 7.9400 3776.00 3808.53 61.00
393 7.9500 3773.00 3812.77 61.00
394 7.9600 3821.00 3817.29 62.00
395 7.9700 3809.00 3822.12 62.00
396 7.9800 3779.00 3827.31 61.00
397 7.9900 3816.00 3832.91 62.00
398 8.0000 3797.00 3838.98 62.00
399 8.0100 3839.00 3845.61 62.00
400 8.0200 3865.00 3852.89 62.00
401 8.0300 3835.00 3860.94 62.00
402 8.0400 3850.00 3869.89 62.00
403 8.0500 3882.00 3879.94 62.00
404 8.0600 3896.00 3891.30 62.00
405 8.0700 3876.00 3904.27 62.00
406 8.0800 3892.00 3919.23 62.00
407 8.0900 3937.00 3936.66 63.00
408 8.1000 3929.00 3957.23 63.00
409 8.1100 3975.00 3981.82 63.00
410 8.1200 4015.00 4011.68 63.00
411 8.1300 4072.00 4048.56 64.00
412 8.1400 4134.00 4095.11 64.00
413 8.1500 4215.00 4155.91 65.00
414 8.1600 4320.00 4240.90 66.00
415 8.1700 4524.00 4377.51 67.00
416 8.1800 4844.00 4630.39 70.00
417 8.1900 5477.00 5147.25 74.00
418 8.2000 6476.00 6162.47 80.00
419 8.2100 7983.00 7899.30 89.00
420 8.2200 10247.00 10326.20 101.00
421 8.2300 12568.00 12857.60 112.00
422 8.2400 13673.00 14211.30 117.00
423 8.2500 12600.00 13365.80 112.00
424 8.2600 10319.00 11084.20 102.00
425 8.2700 8290.00 8788.82 91.00
426 8.2800 7165.00 7324.59 85.00
427 8.2900 7022.00 7000.68 84.00
428 8.3000 7784.00 7806.85 88.00
429 8.3100 9253.00 9479.83 96.00
430 8.3200 11109.00 11383.60 105.00
431 8.3300 12094.00 12389.60 110.00
432 8.3400 11622.00 11609.00 108.00
433 8.3500 9959.00 9628.30 100.00
434 8.3600 7906.00 7567.75 89.00
435 8.3700 6284.00 6023.16 79.00
436 8.3800 5299.00 5089.23 73.00
437 8.3900 4720.00 4604.30 69.00
438 8.4000 4404.00 4367.46 66.00
439 8.4100 4227.00 4243.93 65.00
440 8.4200 4098.00 4168.73 64.00
441 8.4300 4059.00 4116.25 64.00
442 8.4400 4022.00 4099.43 63.00
443 8.4500 4000.00 4069.10 63.00
444 8.4600 3920.00 4045.10 63.00
445 8.4700 3921.00 4025.86 63.00
446 8.4800 3932.00 4010.26 63.00
447 8.4900 3921.00 3997.50 63.00
448 8.5000 3941.00 3986.99 63.00
449 8.5100 3955.00 3978.29 63.00
450 8.5200 3926.00 3971.06 63.00
451 8.5300 3935.00 3965.03 63.00
452 8.5400 3921.00 3960.02 63.00
453 8.5500 3885.00 3955.84 62.00
454 8.5600 3902.00 3962.36 62.00
455 8.5700 3947.00 3959.66 63.00
456 8.5800 3869.00 3957.49 62.00
457 8.5900 3932.00 3955.77 63.00
458 8.6000 3925.00 3954.45 63.00
459 8.6100 3912.00 3953.48 63.00
460 8.6200 3933.00 3952.82 63.00
461 8.6300 3942.00 3952.43 63.00
462 8.6400 3919.00 3952.28 63.00
463 8.6500 3930.00 3952.36 63.00
464 8.6600 3920.00 3951.90 63.00
465 8.6700 3925.00 3952.36 63.00
466 8.6800 3923.00 3952.99 63.00
467 8.6900 3945.00 3953.76 63.00
468 8.7000 3931.00 3954.68 63.00
469 8.7100 3946.00 3955.73 63.00
470 8.7200 3952.00 3956.89 63.00
471 8.7300 3935.00 3958.18 63.00
472 8.7400 3920.00 3959.57 63.00
473 8.7500 3969.00 3961.06 63.00
474 8.7600 3929.00 3962.65 63.00
475 8.7700 3924.00 3964.33 63.00
476 8.7800 3928.00 3966.11 63.00
477 8.7900 3916.00 3967.97 63.00
478 8.8000 3984.00 3969.92 63.00
479 8.8100 3979.00 3971.96 63.00
480 8.8200 3955.00 3974.08 63.00
481 8.8300 3991.00 3976.03 63.00
482 8.8400 3986.00 3978.07 63.00
483 8.8500 3987.00 3980.19 63.00
484 8.8600 4034.00 3982.39 64.00
485 8.8700 4059.00 3984.68 64.00
486 8.8800 4008.00 3987.05 63.00
487 8.8900 3998.00 3989.51 63.00
488 8.9000 3970.00 3992.06 63.00
489 8.9100 4004.00 3994.70 63.00
490 8.9200 4041.00 3997.44 64.00
491 8.9300 4071.00 4000.27 64.00
492 8.9400 4017.00 4003.20 63.00
493 8.9500 4048.00 4006.24 64.00
494 8.9600 4056.00 4009.39 64.00
495 8.9700 4070.00 4012.65 64.00
496 8.9800 4092.00 4016.03 64.00
497 8.9900 4059.00 4019.54 64.00
498 9.0000 4060.00 4023.18 64.00
499 9.0100 4087.00 4026.96 64.00
500 9.0200 4084.00 4030.89 64.00
501 9.0300 4108.00 4034.97 64.00
502 9.0400 4126.00 4039.22 64.00
503 9.0500 4175.00 4043.65 65.00
504 9.0600 4140.00 4048.27 64.00
505 9.0700 4141.00 4053.09 64.00
506 9.0800 4112.00 4058.13 64.00
507 9.0900 4170.00 4063.40 65.00
508 9.1000 4210.00 4068.93 65.00
509 9.1100 4211.00 4074.73 65.00
510 9.1200 4181.00 4080.84 65.00
511 9.1300 4182.00 4087.26 65.00
512 9.1400 4179.00 4094.05 65.00
513 9.1500 4213.00 4101.22 65.00
514 9.1600 4255.00 4108.83 65.00
515 9.1700 4226.00 4116.91 65.00
516 9.1800 4253.00 4125.52 65.00
517 9.1900 4278.00 4134.73 65.00
518 9.2000 4271.00 4144.61 65.00
519 9.2100 4287.00 4155.25 65.00
520 9.2200 4355.00 4166.74 66.00
521 9.2300 4343.00 4179.24 66.00
522 9.2400 4355.00 4192.88 66.00
523 9.2500 4362.00 4207.87 66.00
524 9.2600 4406.00 4224.47 66.00
525 9.2700 4442.00 4242.98 67.00
526 9.2800 4445.00 4263.82 67.00
527 9.2900 4510.00 4287.53 67.00
528 9.3000 4486.00 4314.85 67.00
529 9.3100 4565.00 4346.81 68.00
530 9.3200 4590.00 4384.83 68.00
531 9.3300 4610.00 4430.99 68.00
532 9.3400 4706.00 4488.47 69.00
533 9.3500 4831.00 4562.32 70.00
534 9.3600 4914.00 4662.43 70.00
535 9.3700 5155.00 4816.85 72.00
536 9.3800 5560.00 5124.36 75.00
537 9.3900 6366.00 5885.90 80.00
538 9.4000 8079.00 7724.64 90.00
539 9.4100 11241.00 11282.00 106.00
540 9.4200 15984.00 16187.60 126.00
541 9.4300 20228.00 19962.70 142.00
542 9.4400 19818.00 19186.30 141.00
543 9.4500 14915.00 14718.30 122.00
544 9.4600 10049.00 10140.60 100.00
545 9.4700 7303.00 7215.33 85.00
546 9.4800 6059.00 5860.20 78.00
547 9.4900 5571.00 5360.97 75.00
548 9.5000 5363.00 5194.15 73.00
549 9.5100 5351.00 5141.19 73.00
550 9.5200 5371.00 5136.56 73.00
551 9.5300 5388.00 5162.27 73.00
552 9.5400 5425.00 5212.33 74.00
553 9.5500 5507.00 5284.65 74.00
554 9.5600 5575.00 5379.19 75.00
555 9.5700 5672.00 5497.55 75.00
556 9.5800 5849.00 5642.88 76.00
557 9.5900 5990.00 5820.00 77.00
558 9.6000 6157.00 6035.89 78.00
559 9.6100 6344.00 6300.26 80.00
560 9.6200 6707.00 6626.77 82.00
561 9.6300 6989.00 7034.86 84.00
562 9.6400 7516.00 7552.58 87.00
563 9.6500 8178.00 8221.64 90.00
564 9.6600 9021.00 9106.63 95.00
565 9.6700 10477.00 10320.50 102.00
566 9.6800 12865.00 12125.40 113.00
567 9.6900 17205.00 15346.90 131.00
568 9.7000 25761.00 22603.50 161.00
569 9.7100 42788.00 40258.20 207.00
570 9.7200 75391.00 77894.90 275.00
571 9.7300 133592.00 139716.00 366.00
572 9.7400 208238.00 209090.00 456.00
573 9.7500 246253.00 240201.00 496.00
574 9.7600 208279.00 202121.00 456.00
575 9.7700 132263.00 132741.00 364.00
576 9.7800 72638.00 75301.90 270.00
577 9.7900 45162.00 44268.40 213.00
578 9.8000 39041.00 37204.70 198.00
579 9.8100 49870.00 49481.90 223.00
580 9.8200 76213.00 76871.00 276.00
581 9.8300 105330.00 107394.00 325.00
582 9.8400 114342.00 116896.00 338.00
583 9.8500 97206.00 94072.90 312.00
584 9.8600 62794.00 59896.10 251.00
585 9.8700 33144.00 33323.40 182.00
586 9.8800 18177.00 18730.30 135.00
587 9.8900 11822.00 12381.90 109.00
588 9.9000 8900.00 9780.93 94.00
589 9.9100 7478.00 8501.31 86.00
590 9.9200 6703.00 7677.67 82.00
591 9.9300 6191.00 7067.87 79.00
592 9.9400 5910.00 6598.79 77.00
593 9.9500 5684.00 6233.40 75.00
594 9.9600 5458.00 5945.12 74.00
595 9.9700 5335.00 5713.67 73.00
596 9.9800 5247.00 5524.24 72.00
597 9.9900 5159.00 5366.52 72.00
598 10.0000 5082.00 5233.34 71.00
599 10.0100 4997.00 5119.67 71.00
600 10.0200 4943.00 5021.77 70.00
601 10.0300 4886.00 4936.79 70.00
602 10.0400 4831.00 4862.52 70.00
603 10.0500 4762.00 4797.18 69.00
604 10.0600 4791.00 4739.40 69.00
605 10.0700 4751.00 4688.03 69.00
606 10.0800 4707.00 4642.15 69.00
607 10.0900 4683.00 4601.01 68.00
608 10.1000 4619.00 4563.96 68.00
609 10.1100 4625.00 4530.49 68.00
610 10.1200 4607.00 4500.15 68.00
611 10.1300 4580.00 4472.56 68.00
612 10.1400 4522.00 4447.41 67.00
613 10.1500 4558.00 4424.41 68.00
614 10.1600 4512.00 4403.33 67.00
615 10.1700 4482.00 4383.97 67.00
616 10.1800 4475.00 4366.14 67.00
617 10.1900 4472.00 4349.70 67.00
618 10.2000 4422.00 4334.51 66.00
619 10.2100 4432.00 4320.45 67.00
620 10.2200 4416.00 4307.41 66.00
621 10.2300 4410.00 4295.29 66.00
622 10.2400 4424.00 4284.03 67.00
623 10.2500 4395.00 4273.54 66.00
624 10.2600 4330.00 4263.76 66.00
625 10.2700 4359.00 4254.62 66.00
626 10.2800 4347.00 4246.08 66.00
627 10.2900 4332.00 4238.09 66.00
628 10.3000 4352.00 4230.61 66.00
629 10.3100 4335.00 4223.59 66.00
630 10.3200 4323.00 4217.01 66.00
631 10.3300 4320.00 4211.57 66.00
632 10.3400 4274.00 4205.77 65.00
633 10.3500 4279.00 4200.31 65.00
634 10.3600 4290.00 4195.17 65.00
635 10.3700 4276.00 4190.33 65.00
636 10.3800 4231.00 4185.77 65.00
637 10.3900 4236.00 4181.47 65.00
638 10.4000 4272.00 4177.42 65.00
639 10.4100 4257.00 4173.60 65.00
640 10.4200 4262.00 4169.99 65.00
641 10.4300 4215.00 4166.58 65.00
642 10.4400 4194.00 4163.36 65.00
643 10.4500 4210.00 4160.32 65.00
644 10.4600 4220.00 4157.45 65.00
645 10.4700 4242.00 4154.73 65.00
646 10.4800 4247.00 4152.17 65.00
647 10.4900 4212.00 4149.76 65.00
648 10.5000 4203.00 4147.48 65.00
649 10.5100 4204.00 4145.34 65.00
650 10.5200 4187.00 4143.33 65.00
651 10.5300 4148.00 4141.44 64.00
652 10.5400 4199.00 4148.28 65.00
653 10.5500 4208.00 4146.78 65.00
654 10.5600 4119.00 4145.41 64.00
655 10.5700 4144.00 4144.23 64.00
656 10.5800 4121.00 4143.34 64.00
657 10.5900 4155.00 4143.06 64.00
658 10.6000 4145.00 4144.14 64.00
659 10.6100 4143.00 4147.67 64.00
660 10.6200 4093.00 4154.25 64.00
661 10.6300 4105.00 4162.33 64.00
662 10.6400 4128.00 4166.90 64.00
663 10.6500 4145.00 4162.91 64.00
664 10.6600 4163.00 4153.46 65.00
665 10.6700 4123.00 4144.37 64.00
666 10.6800 4099.00 4140.12 64.00
667 10.6900 4141.00 4136.65 64.00
668 10.7000 4122.00 4134.82 64.00
669 10.7100 4113.00 4132.36 64.00
670 10.7200 4114.00 4131.62 64.00
671 10.7300 4090.00 4131.04 64.00
672 10.7400 4078.00 4130.56 64.00
673 10.7500 4081.00 4130.16 64.00
674 10.7600 4066.00 4129.82 64.00
675 10.7700 4071.00 4129.54 64.00
676 10.7800 4087.00 4129.32 64.00
677 10.7900 4086.00 4129.14 64.00
678 10.8000 4059.00 4129.01 64.00
679 10.8100 4061.00 4128.92 64.00
680 10.8200 4057.00 4128.87 64.00
681 10.8300 4080.00 4128.86 64.00
682 10.8400 4100.00 4128.88 64.00
683 10.8500 4083.00 4128.94 64.00
684 10.8600 4097.00 4129.03 64.00
685 10.8700 4073.00 4129.16 64.00
686 10.8800 4080.00 4129.32 64.00
687 10.8900 4101.00 4129.51 64.00
688 10.9000 4158.00 4129.73 64.00
689 10.9100 4129.00 4129.98 64.00
690 10.9200 4093.00 4130.26 64.00
691 10.9300 4091.00 4130.57 64.00
692 10.9400 4084.00 4130.91 64.00
693 10.9500 4058.00 4131.28 64.00
694 10.9600 4065.00 4131.67 64.00
695 10.9700 4113.00 4132.10 64.00
696 10.9800 4097.00 4132.55 64.00
697 10.9900 4091.00 4133.03 64.00
698 11.0000 4062.00 4133.54 64.00
699 11.0100 4091.00 4133.42 64.00
700 11.0200 4150.00 4133.33 64.00
701 11.0300 4097.00 4133.27 64.00
702 11.0400 4092.00 4133.23 64.00
703 11.0500 4108.00 4133.23 64.00
704 11.0600 4032.00 4133.25 63.00
705 11.0700 4050.00 4111.08 64.00
706 11.0800 4046.00 4111.50 64.00
707 11.0900 4041.00 4115.49 64.00
708 11.1000 4026.00 4115.98 63.00
709 11.1100 4016.00 4116.50 63.00
710 11.1200 4032.00 4117.04 63.00
711 11.1300 4025.00 4107.85 63.00
712 11.1400 4045.00 4108.60 64.00
713 11.1500 4045.00 4109.36 64.00
714 11.1600 4034.00 4110.16 64.00
715 11.1700 4043.00 4110.98 64.00
716 11.1800 4033.00 4111.83 64.00
717 11.1900 4051.00 4112.71 64.00
718 11.2000 4049.00 4113.62 64.00
719 11.2100 4067.00 4114.57 64.00
720 11.2200 4026.00 4115.55 63.00
721 11.2300 4035.00 4116.57 64.00
722 11.2400 4019.00 4117.62 63.00
723 11.2500 4048.00 4118.72 64.00
724 11.2600 4054.00 4119.86 64.00
725 11.2700 4046.00 4121.05 64.00
726 11.2800 4011.00 4122.28 63.00
727 11.2900 4044.00 4123.57 64.00
728 11.3000 3996.00 4124.91 63.00
729 11.3100 4036.00 4126.31 64.00
730 11.3200 4047.00 4127.77 64.00
731 11.3300 4016.00 4129.30 63.00
732 11.3400 3980.00 4130.89 63.00
733 11.3500 4024.00 4132.56 63.00
734 11.3600 4017.00 4134.31 63.00
735 11.3700 4034.00 4136.14 64.00
736 11.3800 4123.00 4138.06 64.00
737 11.3900 4084.00 4140.07 64.00
738 11.4000 4065.00 4142.19 64.00
739 11.4100 4053.00 4144.41 64.00
740 11.4200 4043.00 4146.75 64.00
741 11.4300 4067.00 4149.22 64.00
742 11.4400 4071.00 4151.83 64.00
743 11.4500 4048.00 4154.56 64.00
744 11.4600 4032.00 4157.47 63.00
745 11.4700 4052.00 4160.54 64.00
746 11.4800 4034.00 4163.80 64.00
747 11.4900 4074.00 4167.25 64.00
748 11.5000 4073.00 4170.92 64.00
749 11.5100 4088.00 4174.83 64.00
750 11.5200 4076.00 4178.98 64.00
751 11.5300 4065.00 4183.42 64.00
752 11.5400 4082.00 4188.15 64.00
753 11.5500 4085.00 4193.22 64.00
754 11.5600 4118.00 4198.65 64.00
755 11.5700 4137.00 4204.49 64.00
756 11.5800 4125.00 4210.76 64.00
757 11.5900 4140.00 4217.52 64.00
758 11.6000 4121.00 4224.82 64.00
759 11.6100 4109.00 4232.72 64.00
760 11.6200 4160.00 4241.29 64.00
761 11.6300 4148.00 4250.60 64.00
762 11.6400 4146.00 4260.76 64.00
763 11.6500 4170.00 4271.86 65.00
764 11.6600 4144.00 4284.03 64.00
765 11.6700 4183.00 4297.41 65.00
766 11.6800 4241.00 4312.17 65.00
767 11.6900 4239.00 4328.52 65.00
768 11.7000 4222.00 4346.68 65.00
769 11.7100 4246.00 4366.94 65.00
770 11.7200 4270.00 4389.66 65.00
771 11.7300 4308.00 4415.25 66.00
772 11.7400 4338.00 4444.22 66.00
773 11.7500 4376.00 4477.21 66.00
774 11.7600 4402.00 4515.05 66.00
775 11.7700 4428.00 4558.75 67.00
776 11.7800 4452.00 4609.72 67.00
777 11.7900 4513.00 4669.96 67.00
778 11.8000 4614.00 4742.70 68.00
779 11.8100 4681.00 4833.24 68.00
780 11.8200 4753.00 4949.64 69.00
781 11.8300 4919.00 5101.76 70.00
782 11.8400 5140.00 5298.90 72.00
783 11.8500 5420.00 5548.51 74.00
784 11.8600 5768.00 5863.31 76.00
785 11.8700 6205.00 6298.24 79.00
786 11.8800 6824.00 6993.22 83.00
787 11.8900 7918.00 8116.77 89.00
788 11.9000 9475.00 9753.49 97.00
789 11.9100 11613.00 11800.60 108.00
790 11.9200 14076.00 13949.40 119.00
791 11.9300 17056.00 16211.10 131.00
792 11.9400 21216.00 20187.10 146.00
793 11.9500 29246.00 28692.50 171.00
794 11.9600 43134.00 43373.20 208.00
795 11.9700 61701.00 61854.00 248.00
796 11.9800 75164.00 75018.00 274.00
797 11.9900 72521.00 71419.40 269.00
798 12.0000 54710.00 54210.50 234.00
799 12.0100 35093.00 35490.20 187.00
800 12.0200 21094.00 21733.30 145.00
801 12.0300 13507.00 13763.50 116.00
802 12.0400 9656.00 9826.99 98.00
803 12.0500 7572.00 7967.35 87.00
804 12.0600 6412.00 6995.81 80.00
805 12.0700 5779.00 6394.01 76.00
806 12.0800 5384.00 5972.10 73.00
807 12.0900 5120.00 5657.63 72.00
808 12.1000 4983.00 5415.84 71.00
809 12.1100 4837.00 5225.96 70.00
810 12.1200 4685.00 5075.25 68.00
811 12.1300 4635.00 4952.19 68.00
812 12.1400 4566.00 4851.06 68.00
813 12.1500 4500.00 4766.99 67.00
814 12.1600 4533.00 4696.38 67.00
815 12.1700 4467.00 4636.52 67.00
816 12.1800 4411.00 4585.37 66.00
817 12.1900 4389.00 4541.33 66.00
818 12.2000 4378.00 4503.16 66.00
819 12.2100 4353.00 4469.88 66.00
820 12.2200 4373.00 4440.70 66.00
821 12.2300 4385.00 4414.99 66.00
822 12.2400 4329.00 4392.24 66.00
823 12.2500 4315.00 4372.02 66.00
824 12.2600 4291.00 4353.98 66.00
825 12.2700 4266.00 4337.84 65.00
826 12.2800 4285.00 4323.34 65.00
827 12.2900 4298.00 4310.29 66.00
828 12.3000 4227.00 4298.50 65.00
829 12.3100 4241.00 4287.84 65.00
830 12.3200 4187.00 4278.18 65.00
831 12.3300 4213.00 4269.40 65.00
832 12.3400 4259.00 4261.42 65.00
833 12.3500 4225.00 4254.14 65.00
834 12.3600 4219.00 4247.51 65.00
835 12.3700 4176.00 4241.46 65.00
836 12.3800 4181.00 4235.94 65.00
837 12.3900 4236.00 4230.90 65.00
838 12.4000 4227.00 4226.29 65.00
839 12.4100 4203.00 4222.08 65.00
840 12.4200 4194.00 4219.26 65.00
841 12.4300 4210.00 4215.77 65.00
842 12.4400 4176.00 4212.60 65.00
843 12.4500 4185.00 4209.72 65.00
844 12.4600 4171.00 4207.12 65.00
845 12.4700 4214.00 4204.77 65.00
846 12.4800 4179.00 4202.66 65.00
847 12.4900 4176.00 4200.77 65.00
848 12.5000 4167.00 4199.10 65.00
849 12.5100 4199.00 4197.62 65.00
850 12.5200 4209.00 4196.34 65.00
851 12.5300 4182.00 4195.24 65.00
852 12.5400 4164.00 4194.32 65.00
853 12.5500 4207.00 4193.57 65.00
854 12.5600 4202.00 4192.98 65.00
855 12.5700 4200.00 4192.55 65.00
856 12.5800 4226.00 4192.28 65.00
857 12.5900 4227.00 4192.16 65.00
858 12.6000 4193.00 4192.19 65.00
859 12.6100 4191.00 4192.37 65.00
860 12.6200 4189.00 4192.70 65.00
861 12.6300 4178.00 4193.17 65.00
862 12.6400 4220.00 4193.80 65.00
863 12.6500 4205.00 4194.57 65.00
864 12.6600 4196.00 4195.49 65.00
865 12.6700 4171.00 4196.57 65.00
866 12.6800 4185.00 4197.64 65.00
867 12.6900 4175.00 4198.88 65.00
868 12.7000 4200.00 4200.28 65.00
869 12.7100 4210.00 4201.85 65.00
870 12.7200 4178.00 4203.60 65.00
871 12.7300 4188.00 4205.53 65.00
872 12.7400 4187.00 4207.66 65.00
873 12.7500 4203.00 4209.98 65.00
874 12.7600 4193.00 4212.52 65.00
875 12.7700 4200.00 4215.29 65.00
876 12.7800 4189.00 4218.29 65.00
877 12.7900 4211.00 4221.55 65.00
878 12.8000 4198.00 4225.08 65.00
879 12.8100 4189.00 4228.90 65.00
880 12.8200 4230.00 4233.03 65.00
881 12.8300 4263.00 4237.49 65.00
882 12.8400 4196.00 4242.32 65.00
883 12.8500 4215.00 4247.54 65.00
884 12.8600 4227.00 4253.18 65.00
885 12.8700 4215.00 4259.30 65.00
886 12.8800 4256.00 4265.92 65.00
887 12.8900 4284.00 4273.10 65.00
888 12.9000 4242.00 4280.90 65.00
889 12.9100 4290.00 4289.38 65.00
890 12.9200 4284.00 4298.62 65.00
891 12.9300 4296.00 4308.70 66.00
892 12.9400 4291.00 4319.72 66.00
893 12.9500 4303.00 4331.79 66.00
894 12.9600 4292.00 4345.07 66.00
895 12.9700 4320.00 4359.69 66.00
896 12.9800 4309.00 4375.84 66.00
897 12.9900 4314.00 4393.76 66.00
898 13.0000 4354.00 4413.69 66.00
899 13.0100 4400.00 4435.96 66.00
900 13.0200 4380.00 4460.95 66.00
901 13.0300 4416.00 4489.11 66.00
902 13.0400 4462.00 4521.03 67.00
903 13.0500 4502.00 4557.42 67.00
904 13.0600 4567.00 4599.16 68.00
905 13.0700 4587.00 4647.41 68.00
906 13.0800 4560.00 4703.74 68.00
907 13.0900 4644.00 4770.44 68.00
908 13.1000 4700.00 4851.08 69.00
909 13.1100 4835.00 4951.77 70.00
910 13.1200 5041.00 5083.29 71.00
911 13.1300 5227.00 5264.68 72.00
912 13.1400 5481.00 5527.75 74.00
913 13.1500 5917.00 5921.76 77.00
914 13.1600 6411.00 6514.99 80.00
915 13.1700 7267.00 7389.76 85.00
916 13.1800 8425.00 8626.09 92.00
917 13.1900 9959.00 10274.70 100.00
918 13.2000 11904.00 12321.30 109.00
919 13.2100 14431.00 14647.50 120.00
920 13.2200 16979.00 16984.00 130.00
921 13.2300 19091.00 18876.40 138.00
922 13.2400 19991.00 19769.20 141.00
923 13.2500 19149.00 19332.70 138.00
924 13.2600 16960.00 17754.90 130.00
925 13.2700 14638.00 15568.00 121.00
926 13.2800 12394.00 13277.90 111.00
927 13.2900 10666.00 11210.40 103.00
928 13.3000 9366.00 9526.61 97.00
929 13.3100 8470.00 8270.85 92.00
930 13.3200 7795.00 7412.07 88.00
931 13.3300 7411.00 6881.83 86.00
932 13.3400 7187.00 6606.21 85.00
933 13.3500 7230.00 6531.69 85.00
934 13.3600 7386.00 6632.42 86.00
935 13.3700 7707.00 6931.56 88.00
936 13.3800 8285.00 7501.23 91.00
937 13.3900 9315.00 8465.54 97.00
938 13.4000 10707.00 9987.30 103.00
939 13.4100 12774.00 12229.90 113.00
940 13.4200 15761.00 15292.40 126.00
941 13.4300 19470.00 19122.30 140.00
942 13.4400 23652.00 23408.90 154.00
943 13.4500 27970.00 27501.50 167.00
944 13.4600 30998.00 30318.80 176.00
945 13.4700 31447.00 30779.70 177.00
946 13.4800 29146.00 28674.90 171.00
947 13.4900 24737.00 24879.50 157.00
948 13.5000 19929.00 20542.60 141.00
949 13.5100 15606.00 16478.10 125.00
950 13.5200 12206.00 13102.30 110.00
951 13.5300 9794.00 10543.50 99.00
952 13.5400 8239.00 8745.89 91.00
953 13.5500 7143.00 7562.56 85.00
954 13.5600 6449.00 6825.45 80.00
955 13.5700 6049.00 6397.47 78.00
956 13.5800 5911.00 6202.08 77.00
957 13.5900 5951.00 6246.28 77.00
958 13.6000 6290.00 6634.44 79.00
959 13.6100 7162.00 7531.96 85.00
960 13.6200 8535.00 9026.76 92.00
961 13.6300 10373.00 10894.70 102.00
962 13.6400 11836.00 12321.30 109.00
963 13.6500 11866.00 12158.70 109.00
964 13.6600 10383.00 10493.40 102.00
965 13.6700 8349.00 8493.16 91.00
966 13.6800 6618.00 6898.05 81.00
967 13.6900 5738.00 5879.34 76.00
968 13.7000 5181.00 5317.70 72.00
969 13.7100 4918.00 5024.64 70.00
970 13.7200 4787.00 4861.77 69.00
971 13.7300 4668.00 4757.73 68.00
972 13.7400 4578.00 4682.81 68.00
973 13.7500 4579.00 4625.23 68.00
974 13.7600 4559.00 4579.66 68.00
975 13.7700 4517.00 4543.09 67.00
976 13.7800 4526.00 4513.59 67.00
977 13.7900 4512.00 4489.89 67.00
978 13.8000 4485.00 4471.11 67.00
979 13.8100 4506.00 4456.70 67.00
980 13.8200 4464.00 4446.37 67.00
981 13.8300 4533.00 4440.05 67.00
982 13.8400 4524.00 4437.87 67.00
983 13.8500 4526.00 4440.27 67.00
984 13.8600 4535.00 4447.96 67.00
985 13.8700 4570.00 4462.17 68.00
986 13.8800 4586.00 4484.84 68.00
987 13.8900 4669.00 4519.46 68.00
988 13.9000 4755.00 4573.45 69.00
989 13.9100 4858.00 4665.17 70.00
990 13.9200 5085.00 4846.45 71.00
991 13.9300 5438.00 5194.98 74.00
992 13.9400 6088.00 5857.43 78.00
993 13.9500 7083.00 6958.83 84.00
994 13.9600 8632.00 8467.16 93.00
995 13.9700 9962.00 9989.58 100.00
996 13.9800 10530.00 10650.60 103.00
997 13.9900 9926.00 9877.03 100.00
998 14.0000 8480.00 8322.76 92.00
999 14.0100 6932.00 6834.26 83.00
1000 14.0200 5959.00 5766.46 77.00
1001 14.0300 5354.00 5132.35 73.00
1002 14.0400 5017.00 4802.27 71.00
1003 14.0500 4814.00 4640.72 69.00
1004 14.0600 4722.00 4562.34 69.00
1005 14.0700 4668.00 4527.33 68.00
1006 14.0800 4671.00 4520.03 68.00
1007 14.0900 4689.00 4533.39 68.00
1008 14.1000 4686.00 4561.41 68.00
1009 14.1100 4722.00 4595.67 69.00
1010 14.1200 4728.00 4623.59 69.00
1011 14.1300 4799.00 4630.08 69.00
1012 14.1400 4751.00 4606.08 69.00
1013 14.1500 4726.00 4556.28 69.00
1014 14.1600 4574.00 4494.06 68.00
1015 14.1700 4518.00 4431.58 67.00
1016 14.1800 4460.00 4376.26 67.00
1017 14.1900 4459.00 4331.38 67.00
1018 14.2000 4488.00 4297.46 67.00
1019 14.2100 4435.00 4273.27 67.00
1020 14.2200 4430.00 4256.88 67.00
1021 14.2300 4417.00 4246.37 66.00
1022 14.2400 4403.00 4240.37 66.00
1023 14.2500 4396.00 4238.29 66.00
1024 14.2600 4433.00 4240.38 67.00
1025 14.2700 4413.00 4247.68 66.00
1026 14.2800 4404.00 4261.68 66.00
1027 14.2900 4475.00 4283.81 67.00
1028 14.3000 4506.00 4314.60 67.00
1029 14.3100 4507.00 4352.76 67.00
1030 14.3200 4584.00 4393.94 68.00
1031 14.3300 4608.00 4429.53 68.00
1032 14.3400 4629.00 4447.43 68.00
1033 14.3500 4645.00 4439.00 68.00
1034 14.3600 4565.00 4407.47 68.00
1035 14.3700 4506.00 4364.50 67.00
1036 14.3800 4476.00 4320.78 67.00
1037 14.3900 4422.00 4282.54 66.00
1038 14.4000 4430.00 4252.39 67.00
1039 14.4100 4387.00 4230.44 66.00
1040 14.4200 4398.00 4215.47 66.00
1041 14.4300 4374.00 4205.70 66.00
1042 14.4400 4389.00 4199.46 66.00
1043 14.4500 4382.00 4195.43 66.00
1044 14.4600 4368.00 4192.76 66.00
1045 14.4700 4339.00 4190.92 66.00
1046 14.4800 4343.00 4189.65 66.00
1047 14.4900 4355.00 4188.78 66.00
1048 14.5000 4411.00 4188.23 66.00
1049 14.5100 4394.00 4187.96 66.00
1050 14.5200 4364.00 4187.93 66.00
1051 14.5300 4381.00 4188.13 66.00
1052 14.5400 4377.00 4188.53 66.00
1053 14.5500 4405.00 4189.15 66.00
1054 14.5600 4438.00 4189.98 67.00
1055 14.5700 4425.00 4190.29 67.00
1056 14.5800 4371.00 4190.82 66.00
1057 14.5900 4355.00 4191.61 66.00
1058 14.6000 4370.00 4199.59 66.00
1059 14.6100 4410.00 4201.04 66.00
1060 14.6200 4432.00 4202.86 67.00
1061 14.6300 4436.00 4205.12 67.00
1062 14.6400 4421.00 4207.91 66.00
1063 14.6500 4436.00 4211.37 67.00
1064 14.6600 4458.00 4215.68 67.00
1065 14.6700 4443.00 4221.12 67.00
1066 14.6800 4471.00 4228.07 67.00
1067 14.6900 4496.00 4237.19 67.00
1068 14.7000 4457.00 4249.74 67.00
1069 14.7100 4512.00 4268.85 67.00
1070 14.7200 4541.00 4303.22 67.00
1071 14.7300 4602.00 4374.05 68.00
1072 14.7400 4781.00 4519.47 69.00
1073 14.7500 5049.00 4779.91 71.00
1074 14.7600 5359.00 5152.16 73.00
1075 14.7700 5659.00 5521.97 75.00
1076 14.7800 5723.00 5637.81 76.00
1077 14.7900 5554.00 5388.61 75.00
1078 14.8000 5215.00 5000.01 72.00
1079 14.8100 4864.00 4675.06 70.00
1080 14.8200 4632.00 4472.85 68.00
1081 14.8300 4544.00 4371.03 67.00
1082 14.8400 4542.00 4326.45 67.00
1083 14.8500 4520.00 4307.94 67.00
1084 14.8600 4553.00 4300.62 67.00
1085 14.8700 4562.00 4298.95 68.00
1086 14.8800 4549.00 4301.04 67.00
1087 14.8900 4506.00 4306.18 67.00
1088 14.9000 4563.00 4314.14 68.00
1089 14.9100 4588.00 4324.94 68.00
1090 14.9200 4603.00 4338.82 68.00
1091 14.9300 4619.00 4356.26 68.00
1092 14.9400 4595.00 4378.10 68.00
1093 14.9500 4635.00 4405.76 68.00
1094 14.9600 4706.00 4441.96 69.00
1095 14.9700 4727.00 4491.93 69.00
1096 14.9800 4859.00 4565.67 70.00
1097 14.9900 4983.00 4680.61 71.00
1098 15.0000 5166.00 4863.40 72.00
1099 15.0100 5485.00 5147.78 74.00
1100 15.0200 5901.00 5565.26 77.00
1101 15.0300 6496.00 6128.93 81.00
1102 15.0400 7318.00 6810.57 86.00
1103 15.0500 8071.00 7512.59 90.00
1104 15.0600 8385.00 8042.71 92.00
1105 15.0700 8372.00 8178.39 91.00
1106 15.0800 7823.00 7879.74 88.00
1107 15.0900 7122.00 7349.86 84.00
1108 15.1000 6622.00 6830.17 81.00
1109 15.1100 6375.00 6473.44 80.00
1110 15.1200 6351.00 6346.71 80.00
1111 15.1300 6560.00 6454.94 81.00
1112 15.1400 6965.00 6755.75 83.00
1113 15.1500 7485.00 7166.61 87.00
1114 15.1600 7834.00 7563.80 89.00
1115 15.1700 7905.00 7799.57 89.00
1116 15.1800 7702.00 7778.99 88.00
1117 15.1900 7322.00 7539.01 86.00
1118 15.2000 6937.00 7185.48 83.00
1119 15.2100 6616.00 6787.79 81.00
1120 15.2200 6261.00 6358.57 79.00
1121 15.2300 5866.00 5919.88 77.00
1122 15.2400 5567.00 5525.97 75.00
1123 15.2500 5316.00 5214.92 73.00
1124 15.2600 5120.00 4993.09 72.00
1125 15.2700 4989.00 4848.40 71.00
1126 15.2800 4918.00 4762.05 70.00
1127 15.2900 4923.00 4715.90 70.00
1128 15.3000 4829.00 4696.11 69.00
1129 15.3100 4861.00 4693.85 70.00
1130 15.3200 4858.00 4704.43 70.00
1131 15.3300 4934.00 4725.82 70.00
1132 15.3400 4978.00 4757.64 71.00
1133 15.3500 5012.00 4800.50 71.00
1134 15.3600 5008.00 4855.78 71.00
1135 15.3700 5088.00 4925.66 71.00
1136 15.3800 5123.00 5013.31 72.00
1137 15.3900 5276.00 5123.17 73.00
1138 15.4000 5373.00 5261.55 73.00
1139 15.4100 5590.00 5437.45 75.00
1140 15.4200 5786.00 5664.24 76.00
1141 15.4300 6109.00 5963.49 78.00
1142 15.4400 6569.00 6375.52 81.00
1143 15.4500 7420.00 6991.27 86.00
1144 15.4600 8698.00 8028.03 93.00
1145 15.4700 10860.00 9957.50 104.00
1146 15.4800 14397.00 13596.70 120.00
1147 15.4900 20576.00 19935.10 143.00
1148 15.5000 29708.00 29474.90 172.00
1149 15.5100 41126.00 41089.10 203.00
1150 15.5200 49884.00 50521.40 223.00
1151 15.5300 50904.00 51209.70 226.00
1152 15.5400 42638.00 42547.00 206.00
1153 15.5500 30673.00 30888.50 175.00
1154 15.5600 20173.00 20971.70 142.00
1155 15.5700 13547.00 14229.20 116.00
1156 15.5800 9865.00 10297.90 99.00
1157 15.5900 7868.00 8201.98 89.00
1158 15.6000 6706.00 7083.32 82.00
1159 15.6100 6039.00 6429.25 78.00
1160 15.6200 5653.00 5997.74 75.00
1161 15.6300 5421.00 5687.17 74.00
1162 15.6400 5273.00 5453.06 73.00
1163 15.6500 5125.00 5271.93 72.00
1164 15.6600 5027.00 5129.07 71.00
1165 15.6700 4926.00 5014.53 70.00
1166 15.6800 4835.00 4922.14 70.00
1167 15.6900 4837.00 4848.19 70.00
1168 15.7000 4827.00 4790.63 69.00
1169 15.7100 4784.00 4748.89 69.00
1170 15.7200 4766.00 4724.69 69.00
1171 15.7300 4762.00 4723.62 69.00
1172 15.7400 4781.00 4756.59 69.00
1173 15.7500 4861.00 4840.00 70.00
1174 15.7600 5028.00 4991.97 71.00
1175 15.7700 5252.00 5223.52 72.00
1176 15.7800 5617.00 5524.91 75.00
1177 15.7900 5986.00 5847.42 77.00
1178 15.8000 6274.00 6084.03 79.00
1179 15.8100 6374.00 6103.38 80.00
1180 15.8200 6205.00 5881.44 79.00
1181 15.8300 5901.00 5538.51 77.00
1182 15.8400 5439.00 5193.27 74.00
1183 15.8500 5116.00 4905.20 72.00
1184 15.8600 4872.00 4697.40 70.00
1185 15.8700 4716.00 4559.25 69.00
1186 15.8800 4656.00 4472.77 68.00
1187 15.8900 4621.00 4418.94 68.00
1188 15.9000 4540.00 4384.25 67.00
1189 15.9100 4537.00 4360.48 67.00
1190 15.9200 4542.00 4342.70 67.00
1191 15.9300 4488.00 4328.86 67.00
1192 15.9400 4477.00 4317.81 67.00
1193 15.9500 4454.00 4308.91 67.00
1194 15.9600 4468.00 4301.76 67.00
1195 15.9700 4466.00 4296.08 67.00
1196 15.9800 4463.00 4291.67 67.00
1197 15.9900 4453.00 4288.39 67.00
1198 16.0000 4475.00 4286.16 67.00
1199 16.0100 4509.00 4284.91 67.00
1200 16.0200 4452.00 4284.10 67.00
1201 16.0300 4480.00 4284.77 67.00
1202 16.0400 4470.00 4286.43 67.00
1203 16.0500 4497.00 4289.15 67.00
1204 16.0600 4468.00 4293.03 67.00
1205 16.0700 4492.00 4298.24 67.00
1206 16.0800 4501.00 4305.00 67.00
1207 16.0900 4508.00 4313.64 67.00
1208 16.1000 4496.00 4324.63 67.00
1209 16.1100 4518.00 4338.73 67.00
1210 16.1200 4570.00 4357.27 68.00
1211 16.1300 4568.00 4383.15 68.00
1212 16.1400 4650.00 4422.78 68.00
1213 16.1500 4708.00 4489.34 69.00
1214 16.1600 4800.00 4604.35 69.00
1215 16.1700 4961.00 4792.84 70.00
1216 16.1800 5266.00 5068.09 73.00
1217 16.1900 5597.00 5407.21 75.00
1218 16.2000 5854.00 5719.17 77.00
1219 16.2100 6090.00 5895.38 78.00
1220 16.2200 6221.00 5992.03 79.00
1221 16.2300 6344.00 6140.35 80.00
1222 16.2400 6501.00 6327.38 81.00
1223 16.2500 6509.00 6370.47 81.00
1224 16.2600 6348.00 6126.58 80.00
1225 16.2700 5983.00 5711.73 77.00
1226 16.2800 5534.00 5308.17 74.00
1227 16.2900 5224.00 5003.18 72.00
1228 16.3000 4977.00 4809.88 71.00
1229 16.3100 4875.00 4706.22 70.00
1230 16.3200 4711.00 4661.20 69.00
1231 16.3300 4693.00 4650.47 69.00
1232 16.3400 4691.00 4659.91 68.00
1233 16.3500 4715.00 4683.14 69.00
1234 16.3600 4719.00 4718.12 69.00
1235 16.3700 4825.00 4764.96 69.00
1236 16.3800 4827.00 4825.29 69.00
1237 16.3900 4898.00 4902.37 70.00
1238 16.4000 4990.00 5002.44 71.00
1239 16.4100 5112.00 5137.06 71.00
1240 16.4200 5337.00 5327.26 73.00
1241 16.4300 5580.00 5609.41 75.00
1242 16.4400 5943.00 6040.18 77.00
1243 16.4500 6509.00 6697.68 81.00
1244 16.4600 7444.00 7671.15 86.00
1245 16.4700 8733.00 9037.45 93.00
1246 16.4800 10549.00 10822.50 103.00
1247 16.4900 12911.00 12952.60 114.00
1248 16.5000 15373.00 15189.40 124.00
1249 16.5100 17490.00 17064.70 132.00
1250 16.5200 18359.00 17947.30 135.00
1251 16.5300 17562.00 17468.00 133.00
1252 16.5400 15583.00 15904.70 125.00
1253 16.5500 13330.00 13900.50 115.00
1254 16.5600 11460.00 11991.00 107.00
1255 16.5700 10154.00 10468.40 101.00
1256 16.5800 9437.00 9437.12 97.00
1257 16.5900 9119.00 8871.13 95.00
1258 16.6000 9165.00 8655.14 96.00
1259 16.6100 9161.00 8643.04 96.00
1260 16.6200 9166.00 8774.68 96.00
1261 16.6300 9445.00 9155.33 97.00
1262 16.6400 10101.00 9973.69 101.00
1263 16.6500 11382.00 11390.90 107.00
1264 16.6600 13323.00 13478.90 115.00
1265 16.6700 15792.00 16161.30 126.00
1266 16.6800 18586.00 19137.00 136.00
1267 16.6900 21093.00 21778.10 145.00
1268 16.7000 22439.00 23174.00 150.00
1269 16.7100 22227.00 22654.80 149.00
1270 16.7200 20364.00 20447.80 143.00
1271 16.7300 17417.00 17418.60 132.00
1272 16.7400 14192.00 14345.20 119.00
1273 16.7500 11488.00 11663.00 107.00
1274 16.7600 9302.00 9542.23 96.00
1275 16.7700 7786.00 7991.31 88.00
1276 16.7800 6738.00 6925.26 82.00
1277 16.7900 6092.00 6220.89 78.00
1278 16.8000 5545.00 5761.02 74.00
1279 16.8100 5276.00 5454.65 73.00
1280 16.8200 5034.00 5240.91 71.00
1281 16.8300 4870.00 5083.03 70.00
1282 16.8400 4775.00 4960.34 69.00
1283 16.8500 4667.00 4861.25 68.00
1284 16.8600 4558.00 4779.25 68.00
1285 16.8700 4542.00 4710.26 67.00
1286 16.8800 4481.00 4651.57 67.00
1287 16.8900 4451.00 4601.17 67.00
1288 16.9000 4422.00 4557.56 66.00
1289 16.9100 4405.00 4519.56 66.00
1290 16.9200 4354.00 4486.25 66.00
1291 16.9300 4356.00 4456.88 66.00
1292 16.9400 4338.00 4430.85 66.00
1293 16.9500 4307.00 4407.66 66.00
1294 16.9600 4335.00 4386.93 66.00
1295 16.9700 4317.00 4368.31 66.00
1296 16.9800 4307.00 4351.51 66.00
1297 16.9900 4265.00 4336.32 65.00
1298 17.0000 4284.00 4322.53 65.00
1299 17.0100 4247.00 4309.98 65.00
1300 17.0200 4260.00 4298.51 65.00
1301 17.0300 4237.00 4288.02 65.00
1302 17.0400 4207.00 4278.39 65.00
1303 17.0500 4199.00 4269.54 65.00
1304 17.0600 4209.00 4261.38 65.00
1305 17.0700 4205.00 4253.84 65.00
1306 17.0800 4201.00 4246.87 65.00
1307 17.0900 4211.00 4240.41 65.00
1308 17.1000 4208.00 4234.40 65.00
1309 17.1100 4167.00 4228.83 65.00
1310 17.1200 4184.00 4223.63 65.00
1311 17.1300 4161.00 4218.79 65.00
1312 17.1400 4195.00 4207.56 65.00
1313 17.1500 4167.00 4203.41 65.00
1314 17.1600 4109.00 4199.54 64.00
1315 17.1700 4149.00 4195.92 64.00
1316 17.1800 4138.00 4192.54 64.00
1317 17.1900 4137.00 4189.36 64.00
1318 17.2000 4157.00 4186.28 64.00
1319 17.2100 4153.00 4182.97 64.00
1320 17.2200 4078.00 4180.36 64.00
1321 17.2300 4087.00 4177.91 64.00
1322 17.2400 4099.00 4175.61 64.00
1323 17.2500 4123.00 4173.45 64.00
1324 17.2600 4096.00 4171.42 64.00
1325 17.2700 4115.00 4169.52 64.00
1326 17.2800 4067.00 4167.74 64.00
1327 17.2900 4099.00 4166.07 64.00
1328 17.3000 4089.00 4164.50 64.00
1329 17.3100 4078.00 4163.04 64.00
1330 17.3200 4126.00 4161.67 64.00
1331 17.3300 4126.00 4160.39 64.00
1332 17.3400 4097.00 4159.21 64.00
1333 17.3500 4079.00 4158.11 64.00
1334 17.3600 4041.00 4157.09 64.00
1335 17.3700 4048.00 4158.02 64.00
1336 17.3800 4080.00 4157.19 64.00
1337 17.3900 4083.00 4156.44 64.00
1338 17.4000 4077.00 4155.77 64.00
1339 17.4100 4071.00 4155.18 64.00
1340 17.4200 4050.00 4154.67 64.00
1341 17.4300 4063.00 4154.25 64.00
1342 17.4400 4110.00 4153.93 64.00
1343 17.4500 4083.00 4153.72 64.00
1344 17.4600 4019.00 4153.62 63.00
1345 17.4700 4039.00 4153.68 64.00
1346 17.4800 4086.00 4154.52 64.00
1347 17.4900 4051.00 4155.74 64.00
1348 17.5000 4079.00 4157.63 64.00
1349 17.5100 4067.00 4160.73 64.00
1350 17.5200 4041.00 4165.70 64.00
1351 17.5300 4077.00 4174.31 64.00
1352 17.5400 4057.00 4183.50 64.00
1353 17.5500 4054.00 4192.37 64.00
1354 17.5600 4090.00 4196.42 64.00
1355 17.5700 4112.00 4193.19 64.00
1356 17.5800 4054.00 4186.09 64.00
1357 17.5900 4064.00 4179.33 64.00
1358 17.6000 4085.00 4174.71 64.00
1359 17.6100 4069.00 4172.02 64.00
1360 17.6200 4078.00 4171.62 64.00
1361 17.6300 4078.00 4172.44 64.00
1362 17.6400 4056.00 4174.06 64.00
1363 17.6500 4039.00 4176.23 64.00
1364 17.6600 4055.00 4178.88 64.00
1365 17.6700 4073.00 4182.03 64.00
1366 17.6800 4057.00 4185.73 64.00
1367 17.6900 4090.00 4190.07 64.00
1368 17.7000 4065.00 4195.20 64.00
1369 17.7100 4087.00 4201.29 64.00
1370 17.7200 4057.00 4208.62 64.00
1371 17.7300 4084.00 4217.58 64.00
1372 17.7400 4100.00 4228.84 64.00
1373 17.7500 4130.00 4243.64 64.00
1374 17.7600 4106.00 4264.33 64.00
1375 17.7700 4163.00 4295.33 65.00
1376 17.7800 4202.00 4344.17 65.00
1377 17.7900 4286.00 4421.91 65.00
1378 17.8000 4441.00 4541.84 67.00
1379 17.8100 4615.00 4714.77 68.00
1380 17.8200 4845.00 4943.70 70.00
1381 17.8300 5161.00 5210.92 72.00
1382 17.8400 5487.00 5465.71 74.00
1383 17.8500 5706.00 5616.90 76.00
1384 17.8600 5650.00 5584.49 75.00
1385 17.8700 5381.00 5389.03 73.00
1386 17.8800 5003.00 5125.63 71.00
1387 17.8900 4720.00 4872.97 69.00
1388 17.9000 4512.00 4668.27 67.00
1389 17.9100 4354.00 4520.95 66.00
1390 17.9200 4290.00 4425.37 65.00
1391 17.9300 4251.00 4369.37 65.00
1392 17.9400 4164.00 4341.35 65.00
1393 17.9500 4171.00 4330.21 65.00
1394 17.9600 4179.00 4329.33 65.00
1395 17.9700 4196.00 4332.63 65.00
1396 17.9800 4202.00 4334.10 65.00
1397 17.9900 4200.00 4331.48 65.00
1398 18.0000 4184.00 4327.28 65.00
1399 18.0100 4202.00 4326.90 65.00
1400 18.0200 4192.00 4335.62 65.00
1401 18.0300 4236.00 4358.94 65.00
1402 18.0400 4308.00 4403.53 66.00
1403 18.0500 4369.00 4477.20 66.00
1404 18.0600 4443.00 4587.27 67.00
1405 18.0700 4631.00 4737.61 68.00
1406 18.0800 4821.00 4923.95 69.00
1407 18.0900 5150.00 5127.53 72.00
1408 18.1000 5345.00 5307.32 73.00
1409 18.1100 5471.00 5401.53 74.00
1410 18.1200 5313.00 5365.27 73.00
1411 18.1300 5108.00 5216.64 71.00
1412 18.1400 4795.00 5016.46 69.00
1413 18.1500 4575.00 4817.24 68.00
1414 18.1600 4420.00 4648.15 66.00
1415 18.1700 4320.00 4516.71 66.00
1416 18.1800 4188.00 4422.84 65.00
1417 18.1900 4160.00 4359.77 64.00
1418 18.2000 4129.00 4318.96 64.00
1419 18.2100 4133.00 4292.80 64.00
1420 18.2200 4086.00 4275.65 64.00
1421 18.2300 4087.00 4263.89 64.00
1422 18.2400 4069.00 4255.41 64.00
1423 18.2500 4086.00 4249.03 64.00
1424 18.2600 4075.00 4244.13 64.00
1425 18.2700 4075.00 4240.31 64.00
1426 18.2800 4072.00 4237.34 64.00
1427 18.2900 4088.00 4235.06 64.00
1428 18.3000 4030.00 4233.36 63.00
1429 18.3100 4045.00 4232.13 64.00
1430 18.3200 4102.00 4231.33 64.00
1431 18.3300 4115.00 4230.89 64.00
1432 18.3400 4099.00 4230.79 64.00
1433 18.3500 4096.00 4231.01 64.00
1434 18.3600 4059.00 4231.54 64.00
1435 18.3700 4069.00 4232.39 64.00
1436 18.3800 4053.00 4233.58 64.00
1437 18.3900 4097.00 4235.15 64.00
1438 18.4000 4080.00 4237.21 64.00
1439 18.4100 4097.00 4239.91 64.00
1440 18.4200 4074.00 4243.65 64.00
1441 18.4300 4094.00 4249.29 64.00
1442 18.4400 4097.00 4258.65 64.00
1443 18.4500 4107.00 4274.84 64.00
1444 18.4600 4154.00 4301.73 64.00
1445 18.4700 4220.00 4341.76 65.00
1446 18.4800 4213.00 4391.97 65.00
1447 18.4900 4290.00 4437.73 65.00
1448 18.5000 4286.00 4451.75 65.00
1449 18.5100 4307.00 4423.52 66.00
1450 18.5200 4254.00 4376.48 65.00
1451 18.5300 4216.00 4333.55 65.00
1452 18.5400 4167.00 4303.17 65.00
1453 18.5500 4148.00 4285.27 64.00
1454 18.5600 4155.00 4276.37 64.00
1455 18.5700 4167.00 4272.80 65.00
1456 18.5800 4154.00 4272.06 64.00
1457 18.5900 4176.00 4272.84 65.00
1458 18.6000 4148.00 4275.34 64.00
1459 18.6100 4145.00 4277.74 64.00
1460 18.6200 4192.00 4280.73 65.00
1461 18.6300 4165.00 4284.25 65.00
1462 18.6400 4197.00 4288.30 65.00
1463 18.6500 4222.00 4292.89 65.00
1464 18.6600 4230.00 4298.05 65.00
1465 18.6700 4216.00 4303.84 65.00
1466 18.6800 4170.00 4310.33 65.00
1467 18.6900 4178.00 4317.60 65.00
1468 18.7000 4281.00 4325.78 65.00
1469 18.7100 4270.00 4335.02 65.00
1470 18.7200 4236.00 4345.50 65.00
1471 18.7300 4250.00 4357.23 65.00
1472 18.7400 4238.00 4370.96 65.00
1473 18.7500 4257.00 4386.86 65.00
1474 18.7600 4305.00 4405.40 66.00
1475 18.7700 4317.00 4427.25 66.00
1476 18.7800 4303.00 4453.27 66.00
1477 18.7900 4336.00 4484.60 66.00
1478 18.8000 4368.00 4522.90 66.00
1479 18.8100 4404.00 4570.39 66.00
1480 18.8200 4467.00 4630.37 67.00
1481 18.8300 4533.00 4707.82 67.00
1482 18.8400 4619.00 4811.39 68.00
1483 18.8500 4748.00 4958.98 69.00
1484 18.8600 4967.00 5193.48 70.00
1485 18.8700 5366.00 5614.67 73.00
1486 18.8800 6050.00 6417.47 78.00
1487 18.8900 7304.00 7877.69 85.00
1488 18.9000 9344.00 10221.10 97.00
1489 18.9100 12493.00 13309.80 112.00
1490 18.9200 15780.00 16193.50 126.00
1491 18.9300 17270.00 16971.00 131.00
1492 18.9400 15560.00 14930.70 125.00
1493 18.9500 12147.00 11769.80 110.00
1494 18.9600 8846.00 9006.08 94.00
1495 18.9700 6913.00 7125.90 83.00
1496 18.9800 5819.00 6042.90 76.00
1497 18.9900 5275.00 5481.84 73.00
1498 19.0000 5064.00 5199.68 71.00
1499 19.0100 4911.00 5055.67 70.00
1500 19.0200 4786.00 4992.54 69.00
1501 19.0300 4817.00 5005.03 69.00
1502 19.0400 4958.00 5126.02 70.00
1503 19.0500 5244.00 5417.01 72.00
1504 19.0600 5738.00 5932.35 76.00
1505 19.0700 6541.00 6660.96 81.00
1506 19.0800 7327.00 7399.35 86.00
1507 19.0900 7778.00 7688.88 88.00
1508 19.1000 7477.00 7251.26 86.00
1509 19.1100 6566.00 6451.91 81.00
1510 19.1200 5720.00 5712.71 76.00
1511 19.1300 5100.00 5192.50 71.00
1512 19.1400 4775.00 4880.88 69.00
1513 19.1500 4615.00 4713.63 68.00
1514 19.1600 4551.00 4625.84 67.00
1515 19.1700 4519.00 4576.81 67.00
1516 19.1800 4515.00 4547.10 67.00
1517 19.1900 4492.00 4528.69 67.00
1518 19.2000 4438.00 4518.27 67.00
1519 19.2100 4448.00 4514.47 67.00
1520 19.2200 4433.00 4516.87 67.00
1521 19.2300 4494.00 4525.97 67.00
1522 19.2400 4486.00 4543.58 67.00
1523 19.2500 4574.00 4573.74 68.00
1524 19.2600 4573.00 4624.07 68.00
1525 19.2700 4670.00 4706.91 68.00
1526 19.2800 4770.00 4839.11 69.00
1527 19.2900 4966.00 5038.49 70.00
1528 19.3000 5255.00 5316.55 72.00
1529 19.3100 5601.00 5666.73 75.00
1530 19.3200 5972.00 6048.00 77.00
1531 19.3300 6346.00 6362.74 80.00
1532 19.3400 6496.00 6474.83 81.00
1533 19.3500 6339.00 6328.65 80.00
1534 19.3600 5952.00 6021.63 77.00
1535 19.3700 5620.00 5693.45 75.00
1536 19.3800 5287.00 5434.59 73.00
1537 19.3900 5164.00 5289.67 72.00
1538 19.4000 5180.00 5277.77 72.00
1539 19.4100 5282.00 5402.65 73.00
1540 19.4200 5551.00 5653.82 75.00
1541 19.4300 5878.00 5999.55 77.00
1542 19.4400 6214.00 6368.77 79.00
1543 19.4500 6482.00 6632.17 81.00
1544 19.4600 6554.00 6647.46 81.00
1545 19.4700 6456.00 6398.05 80.00
1546 19.4800 6167.00 6011.06 79.00
1547 19.4900 5717.00 5618.72 76.00
1548 19.5000 5356.00 5292.29 73.00
1549 19.5100 5078.00 5056.39 71.00
1550 19.5200 4919.00 4911.33 70.00
1551 19.5300 4826.00 4846.05 69.00
1552 19.5400 4851.00 4844.60 70.00
1553 19.5500 4865.00 4889.15 70.00
1554 19.5600 4902.00 4936.11 70.00
1555 19.5700 4888.00 4941.92 70.00
1556 19.5800 4869.00 4897.07 70.00
1557 19.5900 4765.00 4840.65 69.00
1558 19.6000 4743.00 4804.99 69.00
1559 19.6100 4752.00 4803.30 69.00
1560 19.6200 4751.00 4841.68 69.00
1561 19.6300 4866.00 4930.81 70.00
1562 19.6400 5019.00 5096.70 71.00
1563 19.6500 5263.00 5386.52 73.00
1564 19.6600 5700.00 5861.66 75.00
1565 19.6700 6383.00 6571.26 80.00
1566 19.6800 7279.00 7507.93 85.00
1567 19.6900 8322.00 8534.72 91.00
1568 19.7000 9168.00 9332.75 96.00
1569 19.7100 9825.00 9696.50 99.00
1570 19.7200 10256.00 9926.87 101.00
1571 19.7300 10612.00 10344.80 103.00
1572 19.7400 10718.00 10705.90 104.00
1573 19.7500 10475.00 10306.30 102.00
1574 19.7600 9456.00 9051.83 97.00
1575 19.7700 8136.00 7619.41 90.00
1576 19.7800 6728.00 6473.27 82.00
1577 19.7900 5733.00 5717.39 76.00
1578 19.8000 5193.00 5283.96 72.00
1579 19.8100 4961.00 5059.49 70.00
1580 19.8200 4823.00 4954.73 69.00
1581 19.8300 4788.00 4921.29 69.00
1582 19.8400 4824.00 4939.26 69.00
1583 19.8500 4924.00 5000.37 70.00
1584 19.8600 4981.00 5096.05 71.00
1585 19.8700 5134.00 5208.96 72.00
1586 19.8800 5278.00 5305.53 73.00
1587 19.8900 5353.00 5339.56 73.00
1588 19.9000 5266.00 5284.45 73.00
1589 19.9100 5157.00 5161.70 72.00
1590 19.9200 4953.00 5016.06 70.00
1591 19.9300 4826.00 4881.03 69.00
1592 19.9400 4744.00 4772.88 69.00
1593 19.9500 4682.00 4696.91 68.00
1594 19.9600 4691.00 4652.74 68.00
1595 19.9700 4683.00 4637.74 68.00
1596 19.9800 4684.00 4650.00 68.00
1597 19.9900 4707.00 4687.68 69.00
1598 20.0000 4733.00 4748.94 69.00
1599 20.0100 4834.00 4829.61 70.00
1600 20.0200 4960.00 4920.12 70.00
1601 20.0300 5042.00 5001.59 71.00
1602 20.0400 5078.00 5046.54 71.00
1603 20.0500 5043.00 5034.56 71.00
1604 20.0600 5024.00 4971.69 71.00
1605 20.0700 4938.00 4882.91 70.00
1606 20.0800 4859.00 4791.81 70.00
1607 20.0900 4729.00 4709.24 69.00
1608 20.1000 4640.00 4641.69 68.00
1609 20.1100 4607.00 4590.03 68.00
1610 20.1200 4530.00 4552.46 67.00
1611 20.1300 4529.00 4526.08 67.00
1612 20.1400 4492.00 4507.99 67.00
1613 20.1500 4523.00 4495.88 67.00
1614 20.1600 4499.00 4488.14 67.00
1615 20.1700 4465.00 4483.86 67.00
1616 20.1800 4452.00 4482.48 67.00
1617 20.1900 4460.00 4483.73 67.00
1618 20.2000 4495.00 4487.56 67.00
1619 20.2100 4508.00 4494.12 67.00
1620 20.2200 4502.00 4503.78 67.00
1621 20.2300 4541.00 4517.21 67.00
1622 20.2400 4535.00 4535.67 67.00
1623 20.2500 4566.00 4561.67 68.00
1624 20.2600 4599.00 4600.56 68.00
1625 20.2700 4664.00 4663.75 68.00
1626 20.2800 4712.00 4772.77 69.00
1627 20.2900 4873.00 4960.65 70.00
1628 20.3000 5115.00 5263.80 72.00
1629 20.3100 5534.00 5699.74 74.00
1630 20.3200 6087.00 6228.17 78.00
1631 20.3300 6617.00 6687.38 81.00
1632 20.3400 6777.00 6800.12 82.00
1633 20.3500 6498.00 6477.61 81.00
1634 20.3600 5982.00 5960.89 77.00
1635 20.3700 5441.00 5481.77 74.00
1636 20.3800 5123.00 5128.94 72.00
1637 20.3900 4911.00 4906.75 70.00
1638 20.4000 4777.00 4784.82 69.00
1639 20.4100 4733.00 4728.26 69.00
1640 20.4200 4711.00 4711.51 69.00
1641 20.4300 4734.00 4720.37 69.00
1642 20.4400 4782.00 4748.89 69.00
1643 20.4500 4774.00 4794.20 69.00
1644 20.4600 4838.00 4854.56 70.00
1645 20.4700 4874.00 4927.68 70.00
1646 20.4800 4970.00 5009.97 70.00
1647 20.4900 5055.00 5093.83 71.00
1648 20.5000 5171.00 5174.47 72.00
1649 20.5100 5223.00 5238.85 72.00
1650 20.5200 5218.00 5275.02 72.00
1651 20.5300 5236.00 5274.75 72.00
1652 20.5400 5167.00 5237.71 72.00
1653 20.5500 5090.00 5171.56 71.00
1654 20.5600 5017.00 5087.96 71.00
1655 20.5700 4931.00 4997.88 70.00
1656 20.5800 4801.00 4909.66 69.00
1657 20.5900 4753.00 4828.70 69.00
1658 20.6000 4722.00 4758.08 69.00
1659 20.6100 4665.00 4699.09 68.00
1660 20.6200 4663.00 4651.77 68.00
1661 20.6300 4698.00 4615.22 69.00
1662 20.6400 4641.00 4588.09 68.00
1663 20.6500 4642.00 4568.77 68.00
1664 20.6600 4623.00 4555.22 68.00
1665 20.6700 4634.00 4547.03 68.00
1666 20.6800 4678.00 4542.61 68.00
1667 20.6900 4706.00 4541.15 69.00
1668 20.7000 4663.00 4542.11 68.00
1669 20.7100 4660.00 4545.40 68.00
1670 20.7200 4653.00 4550.47 68.00
1671 20.7300 4602.00 4557.61 68.00
1672 20.7400 4700.00 4567.07 69.00
1673 20.7500 4677.00 4579.27 68.00
1674 20.7600 4685.00 4594.89 68.00
1675 20.7700 4671.00 4614.99 68.00
1676 20.7800 4723.00 4641.44 69.00
1677 20.7900 4768.00 4677.57 69.00
1678 20.8000 4812.00 4729.55 69.00
1679 20.8100 4900.00 4808.00 70.00
1680 20.8200 5006.00 4929.45 71.00
1681 20.8300 5170.00 5114.41 72.00
1682 20.8400 5355.00 5379.40 73.00
1683 20.8500 5675.00 5726.52 75.00
1684 20.8600 6054.00 6131.62 78.00
1685 20.8700 6398.00 6501.62 80.00
1686 20.8800 6543.00 6652.86 81.00
1687 20.8900 6596.00 6477.87 81.00
1688 20.9000 6394.00 6106.19 80.00
1689 20.9100 6035.00 5724.62 78.00
1690 20.9200 5745.00 5429.37 76.00
1691 20.9300 5495.00 5245.09 74.00
1692 20.9400 5344.00 5163.15 73.00
1693 20.9500 5307.00 5163.73 73.00
1694 20.9600 5417.00 5228.76 74.00
1695 20.9700 5500.00 5346.18 74.00
1696 20.9800 5707.00 5508.38 76.00
1697 20.9900 5939.00 5708.11 77.00
1698 21.0000 6154.00 5933.99 78.00
1699 21.0100 6375.00 6166.75 80.00
1700 21.0200 6586.00 6377.87 81.00
1701 21.0300 6735.00 6535.92 82.00
1702 21.0400 6792.00 6616.35 82.00
1703 21.0500 6777.00 6612.24 82.00
1704 21.0600 6504.00 6541.96 81.00
1705 21.0700 6349.00 6443.08 80.00
1706 21.0800 6162.00 6356.66 78.00
1707 21.0900 6140.00 6315.27 78.00
1708 21.1000 6107.00 6337.83 78.00
1709 21.1100 6239.00 6426.47 79.00
1710 21.1200 6340.00 6564.08 80.00
1711 21.1300 6515.00 6724.72 81.00
1712 21.1400 6774.00 6899.11 82.00
1713 21.1500 7044.00 7094.13 84.00
1714 21.1600 7373.00 7304.69 86.00
1715 21.1700 7584.00 7500.21 87.00
1716 21.1800 7747.00 7632.47 88.00
1717 21.1900 7795.00 7657.05 88.00
1718 21.2000 7714.00 7559.66 88.00
1719 21.2100 7422.00 7364.47 86.00
1720 21.2200 7149.00 7116.98 85.00
1721 21.2300 6911.00 6861.12 83.00
1722 21.2400 6642.00 6629.02 81.00
1723 21.2500 6543.00 6439.98 81.00
1724 21.2600 6426.00 6304.88 80.00
1725 21.2700 6330.00 6230.76 80.00
1726 21.2800 6352.00 6226.61 80.00
1727 21.2900 6455.00 6310.31 80.00
1728 21.3000 6585.00 6519.50 81.00
1729 21.3100 6953.00 6925.82 83.00
1730 21.3200 7566.00 7642.89 87.00
1731 21.3300 8541.00 8809.21 92.00
1732 21.3400 10217.00 10525.10 101.00
1733 21.3500 12478.00 12739.00 112.00
1734 21.3600 14897.00 15030.50 122.00
1735 21.3700 16681.00 16415.90 129.00
1736 21.3800 16557.00 15990.90 129.00
1737 21.3900 14804.00 14202.20 122.00
1738 21.4000 12393.00 12197.30 111.00
1739 21.4100 10556.00 10662.30 103.00
1740 21.4200 9475.00 9786.65 97.00
1741 21.4300 9241.00 9504.99 96.00
1742 21.4400 9423.00 9641.16 97.00
1743 21.4500 9869.00 9981.09 99.00
1744 21.4600 10334.00 10313.70 102.00
1745 21.4700 10597.00 10448.60 103.00
1746 21.4800 10450.00 10271.80 102.00
1747 21.4900 10082.00 9791.52 100.00
1748 21.5000 9324.00 9114.13 97.00
1749 21.5100 8543.00 8365.93 92.00
1750 21.5200 7735.00 7641.04 88.00
1751 21.5300 7079.00 6994.74 84.00
1752 21.5400 6440.00 6451.96 80.00
1753 21.5500 6020.00 6017.74 78.00
1754 21.5600 5696.00 5683.87 75.00
1755 21.5700 5490.00 5434.97 74.00
1756 21.5800 5316.00 5253.82 73.00
1757 21.5900 5187.00 5121.49 72.00
1758 21.6000 5065.00 5025.01 71.00
1759 21.6100 5034.00 4953.03 71.00
1760 21.6200 4963.00 4897.83 70.00
1761 21.6300 4931.00 4854.24 70.00
1762 21.6400 4930.00 4818.98 70.00
1763 21.6500 4873.00 4790.00 70.00
1764 21.6600 4870.00 4766.03 70.00
1765 21.6700 4855.00 4746.28 70.00
1766 21.6800 4818.00 4730.31 69.00
1767 21.6900 4821.00 4717.92 69.00
1768 21.7000 4852.00 4709.22 70.00
1769 21.7100 4815.00 4704.79 69.00
1770 21.7200 4776.00 4705.91 69.00
1771 21.7300 4786.00 4714.96 69.00
1772 21.7400 4814.00 4735.62 69.00
1773 21.7500 4840.00 4772.76 70.00
1774 21.7600 4892.00 4831.49 70.00
1775 21.7700 4948.00 4915.37 70.00
1776 21.7800 4989.00 5023.44 71.00
1777 21.7900 5149.00 5146.10 72.00
1778 21.8000 5233.00 5258.72 72.00
1779 21.8100 5296.00 5321.07 73.00
1780 21.8200 5319.00 5301.99 73.00
1781 21.8300 5242.00 5213.54 72.00
1782 21.8400 5070.00 5098.03 71.00
1783 21.8500 5001.00 4992.47 71.00
1784 21.8600 4904.00 4919.08 70.00
1785 21.8700 4930.00 4891.23 70.00
1786 21.8800 5003.00 4917.44 71.00
1787 21.8900 5053.00 5000.38 71.00
1788 21.9000 5167.00 5131.24 72.00
1789 21.9100 5366.00 5276.63 73.00
1790 21.9200 5406.00 5364.53 74.00
1791 21.9300 5429.00 5324.31 74.00
1792 21.9400 5318.00 5178.22 73.00
1793 21.9500 5163.00 5005.79 72.00
1794 21.9600 4989.00 4857.55 71.00
1795 21.9700 4876.00 4748.80 70.00
1796 21.9800 4761.00 4676.78 69.00
1797 21.9900 4745.00 4632.01 69.00
1798 22.0000 4707.00 4604.60 69.00
1799 22.0100 4703.00 4587.19 69.00
1800 22.0200 4674.00 4575.41 68.00
1801 22.0300 4654.00 4566.93 68.00
1802 22.0400 4615.00 4560.63 68.00
1803 22.0500 4643.00 4555.91 68.00
1804 22.0600 4649.00 4552.43 68.00
1805 22.0700 4675.00 4549.95 68.00
1806 22.0800 4651.00 4548.12 68.00
1807 22.0900 4652.00 4547.32 68.00
1808 22.1000 4658.00 4547.27 68.00
1809 22.1100 4657.00 4547.96 68.00
1810 22.1200 4671.00 4549.42 68.00
1811 22.1300 4653.00 4551.71 68.00
1812 22.1400 4654.00 4554.95 68.00
1813 22.1500 4645.00 4559.32 68.00
1814 22.1600 4678.00 4565.10 68.00
1815 22.1700 4690.00 4572.67 68.00
1816 22.1800 4694.00 4582.45 69.00
1817 22.1900 4711.00 4595.49 69.00
1818 22.2000 4685.00 4612.75 68.00
1819 22.2100 4720.00 4635.64 69.00
1820 22.2200 4755.00 4665.89 69.00
1821 22.2300 4773.00 4705.39 69.00
1822 22.2400 4835.00 4755.97 70.00
1823 22.2500 4877.00 4819.05 70.00
1824 22.2600 4889.00 4895.30 70.00
1825 22.2700 4977.00 4986.82 71.00
1826 22.2800 5094.00 5085.99 71.00
1827 22.2900 5215.00 5189.86 72.00
1828 22.3000 5361.00 5288.45 73.00
1829 22.3100 5503.00 5366.72 74.00
1830 22.3200 5506.00 5407.91 74.00
1831 22.3300 5521.00 5401.15 74.00
1832 22.3400 5418.00 5348.84 74.00
1833 22.3500 5367.00 5264.90 73.00
1834 22.3600 5269.00 5166.63 73.00
1835 22.3700 5185.00 5068.01 72.00
1836 22.3800 5079.00 4978.15 71.00
1837 22.3900 5034.00 4902.02 71.00
1838 22.4000 4973.00 4841.75 71.00
1839 22.4100 4926.00 4797.51 70.00
1840 22.4200 4941.00 4768.38 70.00
1841 22.4300 4951.00 4752.86 70.00
1842 22.4400 4896.00 4749.86 70.00
1843 22.4500 4892.00 4758.68 70.00
1844 22.4600 4901.00 4779.78 70.00
1845 22.4700 4928.00 4814.99 70.00
1846 22.4800 5031.00 4867.81 71.00
1847 22.4900 5103.00 4943.46 71.00
1848 22.5000 5147.00 5048.70 72.00
1849 22.5100 5287.00 5191.22 73.00
1850 22.5200 5407.00 5378.30 74.00
1851 22.5300 5605.00 5615.07 75.00
1852 22.5400 5955.00 5901.88 77.00
1853 22.5500 6221.00 6232.07 79.00
1854 22.5600 6511.00 6589.84 81.00
1855 22.5700 6850.00 6948.27 83.00
1856 22.5800 7251.00 7267.59 85.00
1857 22.5900 7492.00 7499.42 87.00
1858 22.6000 7726.00 7608.29 88.00
1859 22.6100 7726.00 7596.16 88.00
1860 22.6200 7652.00 7490.35 87.00
1861 22.6300 7524.00 7292.31 87.00
1862 22.6400 7219.00 6965.89 85.00
1863 22.6500 6766.00 6526.79 82.00
1864 22.6600 6239.00 6068.75 79.00
1865 22.6700 5779.00 5670.27 76.00
1866 22.6800 5389.00 5359.85 73.00
1867 22.6900 5175.00 5135.33 72.00
1868 22.7000 4984.00 4980.69 71.00
1869 22.7100 4904.00 4876.66 70.00
1870 22.7200 4837.00 4806.39 70.00
1871 22.7300 4803.00 4757.64 69.00
1872 22.7400 4813.00 4722.72 69.00
1873 22.7500 4791.00 4696.78 69.00
1874 22.7600 4779.00 4678.09 69.00
1875 22.7700 4719.00 4665.34 69.00
1876 22.7800 4775.00 4658.55 69.00
1877 22.7900 4773.00 4658.42 69.00
1878 22.8000 4740.00 4665.91 69.00
1879 22.8100 4773.00 4681.66 69.00
1880 22.8200 4774.00 4704.95 69.00
1881 22.8300 4822.00 4732.20 69.00
1882 22.8400 4858.00 4754.98 70.00
1883 22.8500 4871.00 4761.52 70.00
1884 22.8600 4846.00 4747.17 70.00
1885 22.8700 4833.00 4720.77 70.00
1886 22.8800 4779.00 4695.07 69.00
1887 22.8900 4759.00 4678.36 69.00
1888 22.9000 4753.00 4674.41 69.00
1889 22.9100 4805.00 4683.87 69.00
1890 22.9200 4775.00 4704.68 69.00
1891 22.9300 4807.00 4731.44 69.00
1892 22.9400 4822.00 4754.21 69.00
1893 22.9500 4852.00 4760.53 70.00
1894 22.9600 4869.00 4744.98 70.00
1895 22.9700 4818.00 4714.81 69.00
1896 22.9800 4753.00 4681.26 69.00
1897 22.9900 4744.00 4651.63 69.00
1898 23.0000 4745.00 4629.49 69.00
1899 23.0100 4748.00 4614.08 69.00
1900 23.0200 4764.00 4605.16 69.00
1901 23.0300 4719.00 4601.39 69.00
1902 23.0400 4689.00 4601.54 68.00
1903 23.0500 4737.00 4604.68 69.00
1904 23.0600 4740.00 4610.30 69.00
1905 23.0700 4724.00 4618.17 69.00
1906 23.0800 4746.00 4628.41 69.00
1907 23.0900 4781.00 4641.35 69.00
1908 23.1000 4772.00 4657.56 69.00
1909 23.1100 4787.00 4677.96 69.00
1910 23.1200 4805.00 4703.96 69.00
1911 23.1300 4868.00 4737.89 70.00
1912 23.1400 4944.00 4783.64 70.00
1913 23.1500 4985.00 4848.21 71.00
1914 23.1600 5012.00 4943.95 71.00
1915 23.1700 5212.00 5091.22 72.00
1916 23.1800 5389.00 5318.54 73.00
1917 23.1900 5741.00 5656.60 76.00
1918 23.2000 6149.00 6122.52 78.00
1919 23.2100 6681.00 6690.62 82.00
1920 23.2200 7178.00 7251.61 85.00
1921 23.2300 7600.00 7598.62 87.00
1922 23.2400 7772.00 7639.61 88.00
1923 23.2500 7794.00 7513.72 88.00
1924 23.2600 7594.00 7355.35 87.00
1925 23.2700 7346.00 7188.92 86.00
1926 23.2800 7030.00 6989.51 84.00
1927 23.2900 6663.00 6740.66 82.00
1928 23.3000 6252.00 6452.69 79.00
1929 23.3100 5936.00 6151.08 77.00
1930 23.3200 5636.00 5860.09 75.00
1931 23.3300 5420.00 5597.07 74.00
1932 23.3400 5205.00 5371.20 72.00
1933 23.3500 5087.00 5185.69 71.00
1934 23.3600 4968.00 5039.12 70.00
1935 23.3700 4889.00 4927.26 70.00
1936 23.3800 4878.00 4844.34 70.00
1937 23.3900 4818.00 4784.37 69.00
1938 23.4000 4778.00 4741.93 69.00
1939 23.4100 4761.00 4712.70 69.00
1940 23.4200 4747.00 4693.61 69.00
1941 23.4300 4756.00 4682.79 69.00
1942 23.4400 4774.00 4679.30 69.00
1943 23.4500 4789.00 4682.93 69.00
1944 23.4600 4797.00 4693.80 69.00
1945 23.4700 4745.00 4712.09 69.00
1946 23.4800 4802.00 4737.67 69.00
1947 23.4900 4840.00 4769.79 70.00
1948 23.5000 4905.00 4806.56 70.00
1949 23.5100 4918.00 4844.16 70.00
1950 23.5200 4948.00 4876.19 70.00
1951 23.5300 5039.00 4894.35 71.00
1952 23.5400 5034.00 4892.01 71.00
1953 23.5500 5027.00 4868.74 71.00
1954 23.5600 4985.00 4830.69 71.00
1955 23.5700 4958.00 4786.17 70.00
1956 23.5800 4884.00 4741.94 70.00
1957 23.5900 4837.00 4702.09 70.00
1958 23.6000 4786.00 4668.67 69.00
1959 23.6100 4741.00 4642.27 69.00
1960 23.6200 4742.00 4622.65 69.00
1961 23.6300 4760.00 4609.01 69.00
1962 23.6400 4728.00 4600.35 69.00
1963 23.6500 4733.00 4595.71 69.00
1964 23.6600 4706.00 4594.26 69.00
1965 23.6700 4706.00 4595.42 69.00
1966 23.6800 4731.00 4598.83 69.00
1967 23.6900 4722.00 4604.36 69.00
1968 23.7000 4727.00 4612.07 69.00
1969 23.7100 4746.00 4622.24 69.00
1970 23.7200 4711.00 4635.38 69.00
1971 23.7300 4749.00 4652.39 69.00
1972 23.7400 4838.00 4674.93 70.00
1973 23.7500 4831.00 4705.88 70.00
1974 23.7600 4806.00 4750.23 69.00
1975 23.7700 4871.00 4815.82 70.00
1976 23.7800 4973.00 4913.80 71.00
1977 23.7900 5061.00 5056.79 71.00
1978 23.8000 5281.00 5256.62 73.00
1979 23.8100 5536.00 5517.96 74.00
1980 23.8200 5866.00 5830.11 77.00
1981 23.8300 6224.00 6152.45 79.00
1982 23.8400 6536.00 6399.95 81.00
1983 23.8500 6641.00 6470.36 81.00
1984 23.8600 6557.00 6338.51 81.00
1985 23.8700 6308.00 6089.13 79.00
1986 23.8800 5945.00 5829.52 77.00
1987 23.8900 5720.00 5628.32 76.00
1988 23.9000 5596.00 5519.37 75.00
1989 23.9100 5635.00 5517.47 75.00
1990 23.9200 5731.00 5626.60 76.00
1991 23.9300 5920.00 5842.16 77.00
1992 23.9400 6195.00 6148.47 79.00
1993 23.9500 6473.00 6510.84 80.00
1994 23.9600 6813.00 6860.53 83.00
1995 23.9700 7069.00 7089.28 84.00
1996 23.9800 7167.00 7095.98 85.00
1997 23.9900 7051.00 6875.68 84.00
1998 24.0000 6698.00 6524.21 82.00
1999 24.0100 6354.00 6149.81 80.00
2000 24.0200 6044.00 5821.29 78.00
2001 24.0300 5726.00 5571.29 76.00
2002 24.0400 5566.00 5411.59 75.00
2003 24.0500 5448.00 5342.62 74.00
2004 24.0600 5436.00 5357.16 74.00
2005 24.0700 5510.00 5440.07 74.00
2006 24.0800 5677.00 5561.84 75.00
2007 24.0900 5773.00 5668.40 76.00
2008 24.1000 5833.00 5696.73 76.00
2009 24.1100 5744.00 5640.69 76.00
2010 24.1200 5627.00 5562.68 75.00
2011 24.1300 5572.00 5531.97 75.00
2012 24.1400 5642.00 5602.00 75.00
2013 24.1500 5872.00 5823.59 77.00
2014 24.1600 6277.00 6249.68 79.00
2015 24.1700 6938.00 6921.04 83.00
2016 24.1800 7730.00 7832.60 88.00
2017 24.1900 8792.00 8865.77 94.00
2018 24.2000 9494.00 9688.05 97.00
2019 24.2100 9781.00 9828.36 99.00
2020 24.2200 9418.00 9189.06 97.00
2021 24.2300 8510.00 8183.37 92.00
2022 24.2400 7409.00 7209.62 86.00
2023 24.2500 6543.00 6434.04 81.00
2024 24.2600 5962.00 5881.58 77.00
2025 24.2700 5570.00 5517.29 75.00
2026 24.2800 5318.00 5288.93 73.00
2027 24.2900 5172.00 5149.10 72.00
2028 24.3000 5025.00 5065.06 71.00
2029 24.3100 4998.00 5018.44 71.00
2030 24.3200 5000.00 5001.24 71.00
2031 24.3300 4994.00 5011.96 71.00
2032 24.3400 5080.00 5053.27 71.00
2033 24.3500 5151.00 5129.89 72.00
2034 24.3600 5190.00 5248.03 72.00
2035 24.3700 5333.00 5411.73 73.00
2036 24.3800 5575.00 5620.48 75.00
2037 24.3900 5814.00 5864.52 76.00
2038 24.4000 6102.00 6121.84 78.00
2039 24.4100 6364.00 6364.75 80.00
2040 24.4200 6581.00 6572.87 81.00
2041 24.4300 6816.00 6726.54 83.00
2042 24.4400 6924.00 6795.85 83.00
2043 24.4500 6823.00 6754.45 83.00
2044 24.4600 6618.00 6604.32 81.00
2045 24.4700 6434.00 6378.65 80.00
2046 24.4800 6040.00 6119.74 78.00
2047 24.4900 5844.00 5865.52 76.00
2048 24.5000 5580.00 5637.01 75.00
2049 24.5100 5479.00 5446.06 74.00
2050 24.5200 5389.00 5297.84 73.00
2051 24.5300 5311.00 5193.02 73.00
2052 24.5400 5221.00 5131.06 72.00
2053 24.5500 5247.00 5111.14 72.00
2054 24.5600 5267.00 5133.51 73.00
2055 24.5700 5324.00 5199.79 73.00
2056 24.5800 5454.00 5313.15 74.00
2057 24.5900 5670.00 5475.98 75.00
2058 24.6000 5810.00 5687.62 76.00
2059 24.6100 6075.00 5939.60 78.00
2060 24.6200 6307.00 6212.04 79.00
2061 24.6300 6503.00 6479.71 81.00
2062 24.6400 6717.00 6736.91 82.00
2063 24.6500 6923.00 7001.10 83.00
2064 24.6600 7129.00 7286.64 84.00
2065 24.6700 7401.00 7579.60 86.00
2066 24.6800 7706.00 7830.15 88.00
2067 24.6900 7886.00 7966.10 89.00
2068 24.7000 7981.00 7931.70 89.00
2069 24.7100 7786.00 7730.89 88.00
2070 24.7200 7431.00 7426.75 86.00
2071 24.7300 7107.00 7097.48 84.00
2072 24.7400 6777.00 6797.24 82.00
2073 24.7500 6528.00 6541.26 81.00
2074 24.7600 6314.00 6329.68 79.00
2075 24.7700 6190.00 6183.18 79.00
2076 24.7800 6178.00 6115.09 79.00
2077 24.7900 6219.00 6096.89 79.00
2078 24.8000 6193.00 6060.99 79.00
2079 24.8100 6055.00 5946.14 78.00
2080 24.8200 5846.00 5758.87 76.00
2081 24.8300 5608.00 5555.03 75.00
2082 24.8400 5366.00 5379.16 73.00
2083 24.8500 5255.00 5248.39 72.00
2084 24.8600 5149.00 5161.65 72.00
2085 24.8700 5121.00 5107.92 72.00
2086 24.8800 5111.00 5071.15 71.00
2087 24.8900 5092.00 5035.14 71.00
2088 24.9000 4980.00 4989.04 71.00
2089 24.9100 4893.00 4931.13 70.00
2090 24.9200 4826.00 4866.61 69.00
2091 24.9300 4780.00 4802.00 69.00
2092 24.9400 4708.00 4741.93 69.00
2093 24.9500 4691.00 4688.89 68.00
2094 24.9600 4635.00 4643.79 68.00
2095 24.9700 4593.00 4606.54 68.00
2096 24.9800 4594.00 4576.43 68.00
2097 24.9900 4564.00 4552.45 68.00
2098 25.0000 4568.00 4533.51 68.00
2099 25.0100 4530.00 4518.54 67.00
2100 25.0200 4501.00 4506.73 67.00
2101 25.0300 4517.00 4497.06 67.00
2102 25.0400 4501.00 4489.67 67.00
2103 25.0500 4518.00 4483.95 67.00
2104 25.0600 4530.00 4479.72 67.00
2105 25.0700 4551.00 4476.96 67.00
2106 25.0800 4505.00 4475.68 67.00
2107 25.0900 4517.00 4475.95 67.00
2108 25.1000 4499.00 4477.81 67.00
2109 25.1100 4496.00 4481.27 67.00
2110 25.1200 4546.00 4486.26 67.00
2111 25.1300 4544.00 4492.59 67.00
2112 25.1400 4567.00 4499.92 68.00
2113 25.1500 4535.00 4507.83 67.00
2114 25.1600 4587.00 4515.98 68.00
2115 25.1700 4579.00 4524.70 68.00
2116 25.1800 4605.00 4535.41 68.00
2117 25.1900 4632.00 4550.40 68.00
2118 25.2000 4641.00 4571.96 68.00
2119 25.2100 4697.00 4601.28 69.00
2120 25.2200 4756.00 4637.53 69.00
2121 25.2300 4786.00 4676.38 69.00
2122 25.2400 4854.00 4708.69 70.00
2123 25.2500 4845.00 4721.86 70.00
2124 25.2600 4776.00 4708.63 69.00
2125 25.2700 4726.00 4671.97 69.00
2126 25.2800 4669.00 4624.68 68.00
2127 25.2900 4582.00 4577.52 68.00
2128 25.3000 4566.00 4536.55 68.00
2129 25.3100 4520.00 4504.31 67.00
2130 25.3200 4451.00 4481.40 67.00
2131 25.3300 4453.00 4467.46 67.00
2132 25.3400 4432.00 4461.89 67.00
2133 25.3500 4414.00 4464.01 66.00
2134 25.3600 4466.00 4473.15 67.00
2135 25.3700 4492.00 4488.22 67.00
2136 25.3800 4492.00 4506.94 67.00
2137 25.3900 4525.00 4524.65 67.00
2138 25.4000 4492.00 4533.99 67.00
2139 25.4100 4538.00 4528.94 67.00
2140 25.4200 4473.00 4510.82 67.00
2141 25.4300 4469.00 4486.67 67.00
2142 25.4400 4428.00 4462.79 67.00
2143 25.4500 4389.00 4442.41 66.00
2144 25.4600 4401.00 4426.56 66.00
2145 25.4700 4388.00 4415.08 66.00
2146 25.4800 4378.00 4407.28 66.00
2147 25.4900 4368.00 4402.30 66.00
2148 25.5000 4355.00 4399.39 66.00
2149 25.5100 4359.00 4398.01 66.00
2150 25.5200 4349.00 4397.82 66.00
2151 25.5300 4369.00 4398.71 66.00
2152 25.5400 4374.00 4400.68 66.00
2153 25.5500 4387.00 4403.91 66.00
2154 25.5600 4375.00 4408.61 66.00
2155 25.5700 4356.00 4415.69 66.00
2156 25.5800 4363.00 4426.23 66.00
2157 25.5900 4387.00 4442.26 66.00
2158 25.6000 4428.00 4466.93 67.00
2159 25.6100 4450.00 4504.00 67.00
2160 25.6200 4519.00 4558.76 67.00
2161 25.6300 4573.00 4633.48 68.00
2162 25.6400 4653.00 4725.32 68.00
2163 25.6500 4753.00 4825.83 69.00
2164 25.6600 4811.00 4927.40 69.00
2165 25.6700 4921.00 5016.09 70.00
2166 25.6800 4904.00 5069.90 70.00
2167 25.6900 4945.00 5091.42 70.00
2168 25.7000 4968.00 5105.82 70.00
2169 25.7100 4958.00 5116.01 70.00
2170 25.7200 4932.00 5091.10 70.00
2171 25.7300 4849.00 5006.13 70.00
2172 25.7400 4706.00 4880.26 69.00
2173 25.7500 4581.00 4751.06 68.00
2174 25.7600 4470.00 4641.11 67.00
2175 25.7700 4422.00 4556.81 66.00
2176 25.7800 4412.00 4496.56 66.00
2177 25.7900 4362.00 4455.44 66.00
2178 25.8000 4304.00 4427.95 66.00
2179 25.8100 4282.00 4409.32 65.00
2180 25.8200 4290.00 4396.21 65.00
2181 25.8300 4304.00 4386.55 66.00
2182 25.8400 4291.00 4379.20 66.00
2183 25.8500 4313.00 4373.58 66.00
2184 25.8600 4280.00 4369.43 65.00
2185 25.8700 4296.00 4366.67 66.00
2186 25.8800 4289.00 4365.54 65.00
2187 25.8900 4279.00 4366.43 65.00
2188 25.9000 4305.00 4370.05 66.00
2189 25.9100 4323.00 4377.34 66.00
2190 25.9200 4310.00 4389.29 66.00
2191 25.9300 4309.00 4406.55 66.00
2192 25.9400 4330.00 4428.86 66.00
2193 25.9500 4381.00 4454.02 66.00
2194 25.9600 4437.00 4476.32 67.00
2195 25.9700 4439.00 4486.77 67.00
2196 25.9800 4388.00 4479.22 66.00
2197 25.9900 4378.00 4457.32 66.00
2198 26.0000 4368.00 4430.21 66.00
2199 26.0100 4335.00 4404.87 66.00
2200 26.0200 4343.00 4384.43 66.00
2201 26.0300 4301.00 4369.70 66.00
2202 26.0400 4280.00 4360.28 65.00
2203 26.0500 4269.00 4355.29 65.00
2204 26.0600 4226.00 4353.69 65.00
2205 26.0700 4237.00 4354.50 65.00
2206 26.0800 4285.00 4356.65 65.00
2207 26.0900 4261.00 4358.80 65.00
2208 26.1000 4245.00 4359.39 65.00
2209 26.1100 4210.00 4357.47 65.00
2210 26.1200 4253.00 4353.19 65.00
2211 26.1300 4265.00 4348.44 65.00
2212 26.1400 4259.00 4344.58 65.00
2213 26.1500 4276.00 4341.99 65.00
2214 26.1600 4219.00 4342.51 65.00
2215 26.1700 4222.00 4346.53 65.00
2216 26.1800 4244.00 4355.10 65.00
2217 26.1900 4276.00 4369.34 65.00
2218 26.2000 4352.00 4390.16 66.00
2219 26.2100 4375.00 4417.77 66.00
2220 26.2200 4369.00 4450.83 66.00
2221 26.2300 4434.00 4485.09 67.00
2222 26.2400 4432.00 4511.89 67.00
2223 26.2500 4469.00 4520.27 67.00
2224 26.2600 4425.00 4505.67 67.00
2225 26.2700 4405.00 4474.84 66.00
2226 26.2800 4299.00 4438.76 66.00
2227 26.2900 4277.00 4405.06 65.00
2228 26.3000 4241.00 4377.17 65.00
2229 26.3100 4290.00 4355.89 65.00
2230 26.3200 4259.00 4340.71 65.00
2231 26.3300 4263.00 4330.54 65.00
2232 26.3400 4239.00 4324.22 65.00
2233 26.3500 4230.00 4320.78 65.00
2234 26.3600 4252.00 4319.61 65.00
2235 26.3700 4221.00 4320.39 65.00
2236 26.3800 4258.00 4323.05 65.00
2237 26.3900 4284.00 4327.63 65.00
2238 26.4000 4262.00 4334.20 65.00
2239 26.4100 4285.00 4342.74 65.00
2240 26.4200 4312.00 4353.05 66.00
2241 26.4300 4302.00 4364.64 66.00
2242 26.4400 4326.00 4376.12 66.00
2243 26.4500 4360.00 4386.80 66.00
2244 26.4600 4305.00 4394.28 66.00
2245 26.4700 4305.00 4396.56 66.00
2246 26.4800 4336.00 4393.95 66.00
2247 26.4900 4282.00 4387.45 65.00
2248 26.5000 4310.00 4379.23 66.00
2249 26.5100 4300.00 4371.24 66.00
2250 26.5200 4295.00 4364.86 66.00
2251 26.5300 4258.00 4360.43 65.00
2252 26.5400 4251.00 4357.60 65.00
2253 26.5500 4229.00 4356.05 65.00
2254 26.5600 4259.00 4356.16 65.00
2255 26.5700 4282.00 4358.70 65.00
2256 26.5800 4247.00 4363.82 65.00
2257 26.5900 4276.00 4371.38 65.00
2258 26.6000 4290.00 4381.03 65.00
2259 26.6100 4322.00 4392.32 66.00
2260 26.6200 4351.00 4404.73 66.00
2261 26.6300 4391.00 4417.68 66.00
2262 26.6400 4342.00 4430.56 66.00
2263 26.6500 4375.00 4442.79 66.00
2264 26.6600 4367.00 4453.98 66.00
2265 26.6700 4404.00 4464.15 66.00
2266 26.6800 4410.00 4473.33 66.00
2267 26.6900 4419.00 4482.28 66.00
2268 26.7000 4412.00 4491.56 66.00
2269 26.7100 4373.00 4501.69 66.00
2270 26.7200 4411.00 4512.97 66.00
2271 26.7300 4455.00 4525.38 67.00
2272 26.7400 4475.00 4538.67 67.00
2273 26.7500 4530.00 4552.41 67.00
2274 26.7600 4486.00 4566.29 67.00
2275 26.7700 4539.00 4581.08 67.00
2276 26.7800 4507.00 4597.02 67.00
2277 26.7900 4504.00 4617.41 67.00
2278 26.8000 4544.00 4646.42 67.00
2279 26.8100 4575.00 4688.31 68.00
2280 26.8200 4612.00 4746.29 68.00
2281 26.8300 4707.00 4819.62 69.00
2282 26.8400 4761.00 4899.48 69.00
2283 26.8500 4837.00 4964.98 70.00
2284 26.8600 4916.00 4992.39 70.00
2285 26.8700 4870.00 4982.76 70.00
2286 26.8800 4830.00 4967.29 69.00
2287 26.8900 4856.00 4979.28 70.00
2288 26.9000 4914.00 5036.88 70.00
2289 26.9100 4995.00 5142.12 71.00
2290 26.9200 5151.00 5279.65 72.00
2291 26.9300 5275.00 5411.23 73.00
2292 26.9400 5313.00 5478.24 73.00
2293 26.9500 5320.00 5437.18 73.00
2294 26.9600 5173.00 5301.84 72.00
2295 26.9700 5032.00 5125.75 71.00
2296 26.9800 4911.00 4955.21 70.00
2297 26.9900 4746.00 4814.08 69.00
2298 27.0000 4585.00 4709.85 68.00
2299 27.0100 4517.00 4642.06 67.00
2300 27.0200 4465.00 4605.52 67.00
2301 27.0300 4464.00 4594.18 67.00
2302 27.0400 4507.00 4601.40 67.00
2303 27.0500 4514.00 4622.15 67.00
2304 27.0600 4526.00 4652.34 67.00
2305 27.0700 4596.00 4688.36 68.00
2306 27.0800 4623.00 4726.58 68.00
2307 27.0900 4688.00 4762.94 68.00
2308 27.1000 4767.00 4792.91 69.00
2309 27.1100 4776.00 4811.88 69.00
2310 27.1200 4735.00 4816.27 69.00
2311 27.1300 4736.00 4804.73 69.00
2312 27.1400 4706.00 4778.50 69.00
2313 27.1500 4671.00 4740.79 68.00
2314 27.1600 4633.00 4695.61 68.00
2315 27.1700 4593.00 4646.98 68.00
2316 27.1800 4514.00 4598.33 67.00
2317 27.1900 4465.00 4552.80 67.00
2318 27.2000 4438.00 4512.46 67.00
2319 27.2100 4416.00 4478.95 66.00
2320 27.2200 4407.00 4453.64 66.00
2321 27.2300 4404.00 4437.71 66.00
2322 27.2400 4355.00 4432.23 66.00
2323 27.2500 4366.00 4437.82 66.00
2324 27.2600 4387.00 4454.37 66.00
2325 27.2700 4424.00 4480.25 67.00
2326 27.2800 4503.00 4511.11 67.00
2327 27.2900 4516.00 4538.48 67.00
2328 27.3000 4500.00 4551.22 67.00
2329 27.3100 4500.00 4543.08 67.00
2330 27.3200 4471.00 4518.62 67.00
2331 27.3300 4465.00 4487.80 67.00
2332 27.3400 4402.00 4458.43 66.00
2333 27.3500 4410.00 4434.69 66.00
2334 27.3600 4376.00 4418.76 66.00
2335 27.3700 4358.00 4411.94 66.00
2336 27.3800 4365.00 4415.44 66.00
2337 27.3900 4391.00 4431.26 66.00
2338 27.4000 4444.00 4463.31 67.00
2339 27.4100 4513.00 4518.27 67.00
2340 27.4200 4511.00 4605.84 67.00
2341 27.4300 4616.00 4737.36 68.00
2342 27.4400 4834.00 4922.76 70.00
2343 27.4500 5087.00 5164.61 71.00
2344 27.4600 5381.00 5448.14 73.00
2345 27.4700 5689.00 5723.48 75.00
2346 27.4800 5795.00 5896.88 76.00
2347 27.4900 5778.00 5885.43 76.00
2348 27.5000 5618.00 5710.29 75.00
2349 27.5100 5332.00 5470.80 73.00
2350 27.5200 5126.00 5247.79 72.00
2351 27.5300 4946.00 5075.84 70.00
2352 27.5400 4817.00 4958.75 69.00
2353 27.5500 4764.00 4884.48 69.00
2354 27.5600 4700.00 4834.58 69.00
2355 27.5700 4693.00 4792.73 69.00
2356 27.5800 4659.00 4750.80 68.00
2357 27.5900 4640.00 4708.14 68.00
2358 27.6000 4567.00 4668.31 68.00
2359 27.6100 4530.00 4633.47 67.00
2360 27.6200 4476.00 4604.55 67.00
2361 27.6300 4491.00 4581.15 67.00
2362 27.6400 4494.00 4562.15 67.00
2363 27.6500 4465.00 4546.18 67.00
2364 27.6600 4428.00 4531.96 67.00
2365 27.6700 4425.00 4518.26 67.00
2366 27.6800 4393.00 4503.96 66.00
2367 27.6900 4399.00 4488.05 66.00
2368 27.7000 4405.00 4469.87 66.00
2369 27.7100 4335.00 4449.19 66.00
2370 27.7200 4320.00 4426.64 66.00
2371 27.7300 4335.00 4402.98 66.00
2372 27.7400 4314.00 4378.71 66.00
2373 27.7500 4324.00 4355.75 66.00
2374 27.7600 4323.00 4334.29 66.00
2375 27.7700 4295.00 4314.87 66.00
2376 27.7800 4282.00 4297.79 65.00
2377 27.7900 4285.00 4283.24 65.00
2378 27.8000 4280.00 4271.33 65.00
2379 27.8100 4254.00 4262.13 65.00
2380 27.8200 4291.00 4255.62 66.00
2381 27.8300 4285.00 4251.95 65.00
2382 27.8400 4302.00 4251.11 66.00
2383 27.8500 4303.00 4253.05 66.00
2384 27.8600 4316.00 4258.04 66.00
2385 27.8700 4299.00 4266.39 66.00
2386 27.8800 4382.00 4277.35 66.00
2387 27.8900 4408.00 4291.19 66.00
2388 27.9000 4359.00 4307.71 66.00
2389 27.9100 4421.00 4326.51 66.00
2390 27.9200 4440.00 4346.99 67.00
2391 27.9300 4486.00 4368.23 67.00
2392 27.9400 4536.00 4388.93 67.00
2393 27.9500 4526.00 4407.41 67.00
2394 27.9600 4493.00 4421.71 67.00
2395 27.9700 4530.00 4429.97 67.00
2396 27.9800 4489.00 4430.92 67.00
2397 27.9900 4483.00 4424.44 67.00
2398 28.0000 4452.00 4411.56 67.00
2399 28.0100 4414.00 4394.12 66.00
2400 28.0200 4373.00 4374.26 66.00
2401 28.0300 4354.00 4353.96 66.00
2402 28.0400 4301.00 4334.95 66.00
2403 28.0500 4294.00 4318.58 66.00
2404 28.0600 4287.00 4305.90 65.00
2405 28.0700 4322.00 4297.56 66.00
2406 28.0800 4269.00 4293.56 65.00
2407 28.0900 4272.00 4293.18 65.00
2408 28.1000 4281.00 4296.60 65.00
2409 28.1100 4313.00 4307.02 66.00
2410 28.1200 4335.00 4327.23 66.00
2411 28.1300 4364.00 4359.40 66.00
2412 28.1400 4391.00 4402.44 66.00
2413 28.1500 4423.00 4450.67 67.00
2414 28.1600 4483.00 4491.43 67.00
2415 28.1700 4494.00 4507.77 67.00
2416 28.1800 4498.00 4492.29 67.00
2417 28.1900 4459.00 4455.28 67.00
2418 28.2000 4377.00 4413.24 66.00
2419 28.2100 4345.00 4377.62 66.00
2420 28.2200 4332.00 4354.06 66.00
2421 28.2300 4322.00 4344.26 66.00
2422 28.2400 4358.00 4347.51 66.00
2423 28.2500 4363.00 4361.11 66.00
2424 28.2600 4341.00 4380.15 66.00
2425 28.2700 4373.00 4397.27 66.00
2426 28.2800 4372.00 4404.56 66.00
2427 28.2900 4382.00 4399.29 66.00
2428 28.3000 4419.00 4386.55 66.00
2429 28.3100 4388.00 4374.79 66.00
2430 28.3200 4323.00 4371.00 66.00
2431 28.3300 4403.00 4379.72 66.00
2432 28.3400 4341.00 4403.69 66.00
2433 28.3500 4397.00 4444.20 66.00
2434 28.3600 4499.00 4500.92 67.00
2435 28.3700 4566.00 4571.11 68.00
2436 28.3800 4608.00 4648.22 68.00
2437 28.3900 4674.00 4720.47 68.00
2438 28.4000 4750.00 4772.97 69.00
2439 28.4100 4725.00 4795.96 69.00
2440 28.4200 4751.00 4791.17 69.00
2441 28.4300 4700.00 4766.89 69.00
2442 28.4400 4648.00 4730.85 68.00
2443 28.4500 4627.00 4689.09 68.00
2444 28.4600 4582.00 4647.10 68.00
2445 28.4700 4558.00 4609.49 68.00
2446 28.4800 4542.00 4579.86 67.00
2447 28.4900 4523.00 4561.65 67.00
2448 28.5000 4527.00 4559.20 67.00
2449 28.5100 4540.00 4577.72 67.00
2450 28.5200 4593.00 4621.62 68.00
2451 28.5300 4676.00 4691.25 68.00
2452 28.5400 4799.00 4772.60 69.00
2453 28.5500 4844.00 4829.83 70.00
2454 28.5600 4802.00 4816.04 69.00
2455 28.5700 4712.00 4732.00 69.00
2456 28.5800 4603.00 4626.75 68.00
2457 28.5900 4519.00 4540.13 67.00
2458 28.6000 4478.00 4490.00 67.00
2459 28.6100 4476.00 4484.32 67.00
2460 28.6200 4482.00 4528.19 67.00
2461 28.6300 4604.00 4624.33 68.00
2462 28.6400 4767.00 4768.12 69.00
2463 28.6500 4889.00 4934.03 70.00
2464 28.6600 5073.00 5055.21 71.00
2465 28.6700 5038.00 5047.21 71.00
2466 28.6800 4879.00 4910.36 70.00
2467 28.6900 4717.00 4728.05 69.00
2468 28.7000 4520.00 4564.48 67.00
2469 28.7100 4470.00 4441.66 67.00
2470 28.7200 4394.00 4359.29 66.00
2471 28.7300 4359.00 4308.87 66.00
2472 28.7400 4311.00 4280.61 66.00
2473 28.7500 4311.00 4266.81 66.00
2474 28.7600 4268.00 4262.75 65.00
2475 28.7700 4283.00 4266.09 65.00
2476 28.7800 4320.00 4275.98 66.00
2477 28.7900 4333.00 4292.35 66.00
2478 28.8000 4347.00 4315.47 66.00
2479 28.8100 4341.00 4345.70 66.00
2480 28.8200 4399.00 4383.44 66.00
2481 28.8300 4403.00 4428.88 66.00
2482 28.8400 4470.00 4482.01 67.00
2483 28.8500 4524.00 4542.52 67.00
2484 28.8600 4561.00 4609.55 68.00
2485 28.8700 4701.00 4681.49 69.00
2486 28.8800 4721.00 4755.45 69.00
2487 28.8900 4832.00 4827.04 70.00
2488 28.9000 4876.00 4890.01 70.00
2489 28.9100 4995.00 4936.57 71.00
2490 28.9200 4950.00 4960.86 70.00
2491 28.9300 4985.00 4965.94 71.00
2492 28.9400 4966.00 4962.83 70.00
2493 28.9500 4940.00 4963.51 70.00
2494 28.9600 4997.00 4975.39 71.00
2495 28.9700 5015.00 4999.90 71.00
2496 28.9800 4982.00 5030.70 71.00
2497 28.9900 4995.00 5052.94 71.00
2498 29.0000 4975.00 5048.85 71.00
2499 29.0100 4968.00 5008.34 70.00
2500 29.0200 4844.00 4933.56 70.00
2501 29.0300 4737.00 4836.64 69.00
2502 29.0400 4597.00 4733.29 68.00
2503 29.0500 4545.00 4635.50 67.00
2504 29.0600 4439.00 4548.69 67.00
2505 29.0700 4417.00 4472.87 66.00
2506 29.0800 4373.00 4406.23 66.00
2507 29.0900 4364.00 4348.46 66.00
2508 29.1000 4256.00 4300.45 65.00
2509 29.1100 4245.00 4262.46 65.00
2510 29.1200 4223.00 4234.36 65.00
2511 29.1300 4205.00 4213.92 65.00
2512 29.1400 4240.00 4200.28 65.00
2513 29.1500 4252.00 4192.28 65.00
2514 29.1600 4213.00 4188.99 65.00
2515 29.1700 4174.00 4189.61 65.00
2516 29.1800 4206.00 4193.37 65.00
2517 29.1900 4233.00 4199.36 65.00
2518 29.2000 4230.00 4206.31 65.00
2519 29.2100 4241.00 4212.44 65.00
2520 29.2200 4224.00 4215.74 65.00
2521 29.2300 4244.00 4214.92 65.00
2522 29.2400 4251.00 4210.25 65.00
2523 29.2500 4247.00 4203.28 65.00
2524 29.2600 4266.00 4195.89 65.00
2525 29.2700 4252.00 4189.55 65.00
2526 29.2800 4220.00 4185.33 65.00
2527 29.2900 4229.00 4184.07 65.00
2528 29.3000 4225.00 4186.64 65.00
2529 29.3100 4245.00 4193.93 65.00
2530 29.3200 4259.00 4206.66 65.00
2531 29.3300 4282.00 4224.95 65.00
2532 29.3400 4295.00 4247.38 66.00
2533 29.3500 4330.00 4269.67 66.00
2534 29.3600 4328.00 4284.09 66.00
2535 29.3700 4372.00 4284.85 66.00
2536 29.3800 4372.00 4273.57 66.00
2537 29.3900 4350.00 4257.88 66.00
2538 29.4000 4312.00 4244.00 66.00
2539 29.4100 4286.00 4234.66 65.00
2540 29.4200 4265.00 4230.15 65.00
2541 29.4300 4285.00 4229.60 65.00
2542 29.4400 4287.00 4231.77 65.00
2543 29.4500 4313.00 4235.65 66.00
2544 29.4600 4289.00 4241.11 65.00
2545 29.4700 4288.00 4249.30 65.00
2546 29.4800 4265.00 4262.46 65.00
2547 29.4900 4286.00 4283.22 65.00
2548 29.5000 4322.00 4313.11 66.00
2549 29.5100 4372.00 4349.94 66.00
2550 29.5200 4354.00 4383.39 66.00
2551 29.5300 4400.00 4393.65 66.00
2552 29.5400 4343.00 4367.40 66.00
2553 29.5500 4328.00 4315.70 66.00
2554 29.5600 4297.00 4259.36 66.00
2555 29.5700 4240.00 4210.62 65.00
2556 29.5800 4171.00 4173.08 65.00
2557 29.5900 4161.00 4146.20 65.00
2558 29.6000 4154.00 4127.83 64.00
2559 29.6100 4143.00 4115.59 64.00
2560 29.6200 4161.00 4107.47 65.00
2561 29.6300 4165.00 4102.08 65.00
2562 29.6400 4123.00 4098.57 64.00
2563 29.6500 4146.00 4096.42 64.00
2564 29.6600 4146.00 4095.39 64.00
2565 29.6700 4140.00 4095.35 64.00
2566 29.6800 4163.00 4096.28 65.00
2567 29.6900 4194.00 4098.30 65.00
2568 29.7000 4151.00 4101.67 64.00
2569 29.7100 4160.00 4106.60 64.00
2570 29.7200 4149.00 4114.54 64.00
2571 29.7300 4211.00 4126.54 65.00
2572 29.7400 4223.00 4144.63 65.00
2573 29.7500 4258.00 4171.44 65.00
2574 29.7600 4305.00 4209.82 66.00
2575 29.7700 4335.00 4261.64 66.00
2576 29.7800 4399.00 4325.51 66.00
2577 29.7900 4486.00 4392.47 67.00
2578 29.8000 4564.00 4440.82 68.00
2579 29.8100 4547.00 4444.48 67.00
2580 29.8200 4508.00 4402.75 67.00
2581 29.8300 4432.00 4340.97 67.00
2582 29.8400 4358.00 4281.30 66.00
2583 29.8500 4296.00 4233.66 66.00
2584 29.8600 4278.00 4200.23 65.00
2585 29.8700 4261.00 4179.81 65.00
2586 29.8800 4217.00 4170.10 65.00
2587 29.8900 4233.00 4168.87 65.00
2588 29.9000 4229.00 4174.34 65.00
2589 29.9100 4247.00 4185.15 65.00
2590 29.9200 4263.00 4200.10 65.00
2591 29.9300 4280.00 4217.67 65.00
2592 29.9400 4287.00 4236.47 65.00
2593 29.9500 4311.00 4255.33 66.00
2594 29.9600 4313.00 4273.52 66.00
2595 29.9700 4359.00 4290.30 66.00
2596 29.9800 4397.00 4304.91 66.00
2597 29.9900 4396.00 4317.10 66.00
2598 30.0000 4415.00 4327.38 66.00
2599 30.0100 4385.00 4336.60 66.00
2600 30.0200 4402.00 4345.29 66.00
2601 30.0300 4421.00 4353.56 66.00
2602 30.0400 4490.00 4361.46 67.00
2603 30.0500 4485.00 4369.02 67.00
2604 30.0600 4475.00 4375.62 67.00
2605 30.0700 4464.00 4379.66 67.00
2606 30.0800 4474.00 4378.94 67.00
2607 30.0900 4476.00 4371.91 67.00
2608 30.1000 4455.00 4358.74 67.00
2609 30.1100 4442.00 4341.42 67.00
2610 30.1200 4383.00 4322.86 66.00
2611 30.1300 4362.00 4305.90 66.00
2612 30.1400 4332.00 4292.81 66.00
2613 30.1500 4328.00 4285.35 66.00
2614 30.1600 4358.00 4285.00 66.00
2615 30.1700 4324.00 4293.20 66.00
2616 30.1800 4328.00 4311.73 66.00
2617 30.1900 4377.00 4342.96 66.00
2618 30.2000 4419.00 4390.12 66.00
2619 30.2100 4507.00 4457.14 67.00
2620 30.2200 4596.00 4547.99 68.00
2621 30.2300 4683.00 4665.17 68.00
2622 30.2400 4810.00 4807.01 69.00
2623 30.2500 4944.00 4962.28 70.00
2624 30.2600 5104.00 5101.90 71.00
2625 30.2700 5190.00 5179.73 72.00
2626 30.2800 5182.00 5166.81 72.00
2627 30.2900 5106.00 5081.16 71.00
2628 30.3000 4939.00 4960.68 70.00
2629 30.3100 4841.00 4833.37 70.00
2630 30.3200 4718.00 4715.34 69.00
2631 30.3300 4640.00 4614.89 68.00
2632 30.3400 4563.00 4534.55 68.00
2633 30.3500 4496.00 4473.79 67.00
2634 30.3600 4450.00 4430.40 67.00
2635 30.3700 4438.00 4401.38 67.00
2636 30.3800 4433.00 4383.29 67.00
2637 30.3900 4409.00 4372.41 66.00
2638 30.4000 4437.00 4365.14 67.00
2639 30.4100 4412.00 4358.02 66.00
2640 30.4200 4390.00 4346.99 66.00
2641 30.4300 4381.00 4327.90 66.00
2642 30.4400 4366.00 4300.52 66.00
2643 30.4500 4335.00 4269.59 66.00
2644 30.4600 4320.00 4240.98 66.00
2645 30.4700 4309.00 4217.95 66.00
2646 30.4800 4245.00 4201.86 65.00
2647 30.4900 4268.00 4193.11 65.00
2648 30.5000 4260.00 4192.12 65.00
2649 30.5100 4252.00 4199.46 65.00
2650 30.5200 4293.00 4216.38 66.00
2651 30.5300 4294.00 4244.66 66.00
2652 30.5400 4286.00 4286.10 65.00
2653 30.5500 4371.00 4341.32 66.00
2654 30.5600 4438.00 4407.79 67.00
2655 30.5700 4501.00 4477.16 67.00
2656 30.5800 4561.00 4532.84 68.00
2657 30.5900 4600.00 4552.62 68.00
2658 30.6000 4600.00 4529.60 68.00
2659 30.6100 4543.00 4480.59 67.00
2660 30.6200 4489.00 4426.14 67.00
2661 30.6300 4473.00 4377.17 67.00
2662 30.6400 4440.00 4336.99 67.00
2663 30.6500 4380.00 4305.67 66.00
2664 30.6600 4318.00 4282.20 66.00
2665 30.6700 4312.00 4265.43 66.00
2666 30.6800 4310.00 4254.68 66.00
2667 30.6900 4338.00 4249.62 66.00
2668 30.7000 4352.00 4250.54 66.00
2669 30.7100 4367.00 4258.34 66.00
2670 30.7200 4335.00 4274.44 66.00
2671 30.7300 4361.00 4300.55 66.00
2672 30.7400 4376.00 4338.16 66.00
2673 30.7500 4435.00 4388.03 67.00
2674 30.7600 4515.00 4449.46 67.00
2675 30.7700 4559.00 4519.44 68.00
2676 30.7800 4609.00 4591.29 68.00
2677 30.7900 4741.00 4653.55 69.00
2678 30.8000 4759.00 4691.82 69.00
2679 30.8100 4777.00 4695.89 69.00
2680 30.8200 4742.00 4667.24 69.00
2681 30.8300 4699.00 4618.03 69.00
2682 30.8400 4589.00 4562.82 68.00
2683 30.8500 4543.00 4512.41 67.00
2684 30.8600 4475.00 4472.82 67.00
2685 30.8700 4495.00 4446.45 67.00
2686 30.8800 4473.00 4433.43 67.00
2687 30.8900 4499.00 4432.31 67.00
2688 30.9000 4488.00 4440.80 67.00
2689 30.9100 4491.00 4456.65 67.00
2690 30.9200 4488.00 4478.69 67.00
2691 30.9300 4543.00 4507.48 67.00
2692 30.9400 4601.00 4545.12 68.00
2693 30.9500 4623.00 4593.46 68.00
2694 30.9600 4637.00 4653.24 68.00
2695 30.9700 4699.00 4722.08 69.00
2696 30.9800 4770.00 4793.38 69.00
2697 30.9900 4832.00 4854.89 70.00
2698 31.0000 4916.00 4890.57 70.00
2699 31.0100 4909.00 4887.09 70.00
2700 31.0200 4844.00 4842.40 70.00
2701 31.0300 4815.00 4767.02 69.00
2702 31.0400 4714.00 4676.87 69.00
2703 31.0500 4650.00 4585.72 68.00
2704 31.0600 4591.00 4502.26 68.00
2705 31.0700 4496.00 4431.23 67.00
2706 31.0800 4409.00 4374.37 66.00
2707 31.0900 4370.00 4332.27 66.00
2708 31.1000 4353.00 4304.86 66.00
2709 31.1100 4346.00 4292.20 66.00
2710 31.1200 4355.00 4295.14 66.00
2711 31.1300 4371.00 4315.68 66.00
2712 31.1400 4383.00 4356.72 66.00
2713 31.1500 4423.00 4421.33 67.00
2714 31.1600 4497.00 4510.71 67.00
2715 31.1700 4653.00 4621.03 68.00
2716 31.1800 4796.00 4736.89 69.00
2717 31.1900 4826.00 4824.69 69.00
2718 31.2000 4864.00 4844.54 70.00
2719 31.2100 4832.00 4788.47 70.00
2720 31.2200 4707.00 4689.08 69.00
2721 31.2300 4633.00 4583.54 68.00
2722 31.2400 4504.00 4492.69 67.00
2723 31.2500 4467.00 4424.25 67.00
2724 31.2600 4400.00 4379.26 66.00
2725 31.2700 4385.00 4355.80 66.00
2726 31.2800 4362.00 4351.74 66.00
2727 31.2900 4385.00 4365.99 66.00
2728 31.3000 4450.00 4397.71 67.00
2729 31.3100 4508.00 4443.99 67.00
2730 31.3200 4514.00 4496.79 67.00
2731 31.3300 4587.00 4541.03 68.00
2732 31.3400 4625.00 4559.33 68.00
2733 31.3500 4632.00 4543.16 68.00
2734 31.3600 4616.00 4499.70 68.00
2735 31.3700 4528.00 4444.48 67.00
2736 31.3800 4446.00 4390.17 67.00
2737 31.3900 4428.00 4343.73 67.00
2738 31.4000 4346.00 4308.07 66.00
2739 31.4100 4366.00 4284.01 66.00
2740 31.4200 4334.00 4271.32 66.00
2741 31.4300 4302.00 4269.24 66.00
2742 31.4400 4313.00 4276.58 66.00
2743 31.4500 4334.00 4291.39 66.00
2744 31.4600 4329.00 4310.23 66.00
2745 31.4700 4348.00 4327.54 66.00
2746 31.4800 4387.00 4335.29 66.00
2747 31.4900 4390.00 4328.27 66.00
2748 31.5000 4368.00 4308.02 66.00
2749 31.5100 4320.00 4281.21 66.00
2750 31.5200 4312.00 4254.77 66.00
2751 31.5300 4307.00 4233.05 66.00
2752 31.5400 4271.00 4218.03 65.00
2753 31.5500 4244.00 4210.16 65.00
2754 31.5600 4206.00 4208.98 65.00
2755 31.5700 4199.00 4213.52 65.00
2756 31.5800 4217.00 4222.37 65.00
2757 31.5900 4230.00 4233.69 65.00
2758 31.6000 4296.00 4245.20 66.00
2759 31.6100 4309.00 4254.44 66.00
2760 31.6200 4290.00 4258.91 65.00
2761 31.6300 4292.00 4257.10 66.00
2762 31.6400 4267.00 4249.08 65.00
2763 31.6500 4244.00 4236.41 65.00
2764 31.6600 4246.00 4221.14 65.00
2765 31.6700 4255.00 4205.30 65.00
2766 31.6800 4206.00 4190.36 65.00
2767 31.6900 4205.00 4177.18 65.00
2768 31.7000 4198.00 4166.29 65.00
2769 31.7100 4209.00 4157.82 65.00
2770 31.7200 4238.00 4151.70 65.00
2771 31.7300 4251.00 4147.73 65.00
2772 31.7400 4215.00 4145.63 65.00
2773 31.7500 4215.00 4145.11 65.00
2774 31.7600 4209.00 4146.17 65.00
2775 31.7700 4186.00 4149.00 65.00
2776 31.7800 4167.00 4153.97 65.00
2777 31.7900 4204.00 4161.74 65.00
2778 31.8000 4174.00 4173.20 65.00
2779 31.8100 4233.00 4189.36 65.00
2780 31.8200 4249.00 4211.42 65.00
2781 31.8300 4245.00 4240.60 65.00
2782 31.8400 4304.00 4277.96 66.00
2783 31.8500 4343.00 4324.29 66.00
2784 31.8600 4359.00 4379.76 66.00
2785 31.8700 4394.00 4443.61 66.00
2786 31.8800 4478.00 4513.49 67.00
2787 31.8900 4529.00 4584.87 67.00
2788 31.9000 4632.00 4650.28 68.00
2789 31.9100 4672.00 4699.85 68.00
2790 31.9200 4674.00 4724.23 68.00
2791 31.9300 4670.00 4719.11 68.00
2792 31.9400 4650.00 4687.58 68.00
2793 31.9500 4569.00 4637.46 68.00
2794 31.9600 4542.00 4576.81 67.00
2795 31.9700 4462.00 4511.62 67.00
2796 31.9800 4353.00 4446.24 66.00
2797 31.9900 4337.00 4384.23 66.00
2798 32.0000 4263.00 4328.41 65.00
2799 32.0100 4256.00 4280.39 65.00
2800 32.0200 4230.00 4240.56 65.00
2801 32.0300 4199.00 4208.48 65.00
2802 32.0400 4154.00 4183.26 64.00
2803 32.0500 4144.00 4163.81 64.00
2804 32.0600 4104.00 4149.22 64.00
2805 32.0700 4139.00 4138.16 64.00
2806 32.0800 4157.00 4130.22 64.00
2807 32.0900 4121.00 4124.71 64.00
2808 32.1000 4089.00 4121.21 64.00
2809 32.1100 4139.00 4119.45 64.00
2810 32.1200 4081.00 4119.20 64.00
2811 32.1300 4110.00 4120.28 64.00
2812 32.1400 4133.00 4122.50 64.00
2813 32.1500 4141.00 4125.50 64.00
2814 32.1600 4110.00 4128.86 64.00
2815 32.1700 4141.00 4131.82 64.00
2816 32.1800 4116.00 4133.48 64.00
2817 32.1900 4145.00 4133.07 64.00
2818 32.2000 4160.00 4130.33 64.00
2819 32.2100 4141.00 4125.72 64.00
2820 32.2200 4129.00 4120.07 64.00
2821 32.2300 4096.00 4114.17 64.00
2822 32.2400 4121.00 4108.58 64.00
2823 32.2500 4097.00 4103.63 64.00
2824 32.2600 4089.00 4099.45 64.00
2825 32.2700 4094.00 4096.08 64.00
2826 32.2800 4066.00 4093.48 64.00
2827 32.2900 4049.00 4091.56 64.00
2828 32.3000 4085.00 4090.21 64.00
2829 32.3100 4068.00 4089.35 64.00
2830 32.3200 4067.00 4088.91 64.00
2831 32.3300 4082.00 4088.86 64.00
2832 32.3400 4053.00 4089.17 64.00
2833 32.3500 4064.00 4089.87 64.00
2834 32.3600 4071.00 4090.99 64.00
2835 32.3700 4039.00 4092.61 64.00
2836 32.3800 4085.00 4094.87 64.00
2837 32.3900 4076.00 4097.92 64.00
2838 32.4000 4064.00 4101.91 64.00
2839 32.4100 4090.00 4107.12 64.00
2840 32.4200 4078.00 4113.71 64.00
2841 32.4300 4115.00 4121.88 64.00
2842 32.4400 4120.00 4131.65 64.00
2843 32.4500 4157.00 4143.22 64.00
2844 32.4600 4113.00 4156.36 64.00
2845 32.4700 4134.00 4170.59 64.00
2846 32.4800 4205.00 4185.25 65.00
2847 32.4900 4203.00 4199.03 65.00
2848 32.5000 4222.00 4210.34 65.00
2849 32.5100 4229.00 4217.29 65.00
2850 32.5200 4208.00 4218.61 65.00
2851 32.5300 4155.00 4214.19 64.00
2852 32.5400 4192.00 4205.19 65.00
2853 32.5500 4135.00 4193.44 64.00
2854 32.5600 4163.00 4180.74 65.00
2855 32.5700 4158.00 4168.42 64.00
2856 32.5800 4087.00 4157.37 64.00
2857 32.5900 4094.00 4148.09 64.00
2858 32.6000 4074.00 4140.80 64.00
2859 32.6100 4103.00 4135.56 64.00
2860 32.6200 4124.00 4132.30 64.00
2861 32.6300 4140.00 4130.92 64.00
2862 32.6400 4095.00 4131.32 64.00
2863 32.6500 4116.00 4133.46 64.00
2864 32.6600 4109.00 4137.47 64.00
2865 32.6700 4104.00 4143.69 64.00
2866 32.6800 4088.00 4152.63 64.00
2867 32.6900 4107.00 4164.94 64.00
2868 32.7000 4098.00 4181.02 64.00
2869 32.7100 4121.00 4200.66 64.00
2870 32.7200 4168.00 4222.09 65.00
2871 32.7300 4197.00 4241.11 65.00
2872 32.7400 4229.00 4252.29 65.00
2873 32.7500 4233.00 4253.96 65.00
2874 32.7600 4190.00 4250.62 65.00
2875 32.7700 4217.00 4248.49 65.00
2876 32.7800 4187.00 4251.39 65.00
2877 32.7900 4246.00 4260.27 65.00
2878 32.8000 4255.00 4273.76 65.00
2879 32.8100 4264.00 4289.23 65.00
2880 32.8200 4276.00 4302.14 65.00
2881 32.8300 4269.00 4306.68 65.00
2882 32.8400 4254.00 4298.53 65.00
2883 32.8500 4297.00 4278.48 66.00
2884 32.8600 4261.00 4251.89 65.00
2885 32.8700 4217.00 4224.52 65.00
2886 32.8800 4140.00 4200.03 64.00
2887 32.8900 4135.00 4180.02 64.00
2888 32.9000 4118.00 4164.89 64.00
2889 32.9100 4134.00 4154.41 64.00
2890 32.9200 4119.00 4148.19 64.00
2891 32.9300 4112.00 4145.59 64.00
2892 32.9400 4070.00 4146.31 64.00
2893 32.9500 4126.00 4150.18 64.00
2894 32.9600 4106.00 4157.37 64.00
2895 32.9700 4105.00 4168.41 64.00
2896 32.9800 4132.00 4184.31 64.00
2897 32.9900 4166.00 4206.64 65.00
2898 33.0000 4150.00 4237.34 64.00
2899 33.0100 4220.00 4278.23 65.00
2900 33.0200 4244.00 4330.03 65.00
2901 33.0300 4277.00 4390.71 65.00
2902 33.0400 4377.00 4452.64 66.00
2903 33.0500 4402.00 4498.78 66.00
2904 33.0600 4395.00 4505.66 66.00
2905 33.0700 4387.00 4466.38 66.00
2906 33.0800 4326.00 4401.93 66.00
2907 33.0900 4253.00 4337.30 65.00
2908 33.1000 4218.00 4285.23 65.00
2909 33.1100 4221.00 4248.72 65.00
2910 33.1200 4180.00 4226.29 65.00
2911 33.1300 4157.00 4214.51 64.00
2912 33.1400 4142.00 4208.90 64.00
2913 33.1500 4172.00 4204.68 65.00
2914 33.1600 4163.00 4197.96 65.00
2915 33.1700 4162.00 4187.33 65.00
2916 33.1800 4091.00 4173.99 64.00
2917 33.1900 4078.00 4160.10 64.00
2918 33.2000 4078.00 4147.30 64.00
2919 33.2100 4095.00 4136.39 64.00
2920 33.2200 4090.00 4127.65 64.00
2921 33.2300 4069.00 4121.00 64.00
2922 33.2400 4065.00 4116.24 64.00
2923 33.2500 4031.00 4113.02 63.00
2924 33.2600 4064.00 4111.27 64.00
2925 33.2700 4045.00 4110.70 64.00
2926 33.2800 4064.00 4111.19 64.00
2927 33.2900 4018.00 4112.67 63.00
2928 33.3000 4009.00 4115.23 63.00
2929 33.3100 4046.00 4118.99 64.00
2930 33.3200 4072.00 4124.23 64.00
2931 33.3300 4078.00 4131.32 64.00
2932 33.3400 4124.00 4140.73 64.00
2933 33.3500 4125.00 4153.00 64.00
2934 33.3600 4093.00 4168.93 64.00
2935 33.3700 4129.00 4188.33 64.00
2936 33.3800 4104.00 4211.38 64.00
2937 33.3900 4126.00 4236.93 64.00
2938 33.4000 4192.00 4262.43 65.00
2939 33.4100 4235.00 4285.48 65.00
2940 33.4200 4180.00 4306.48 65.00
2941 33.4300 4254.00 4328.22 65.00
2942 33.4400 4266.00 4350.98 65.00
2943 33.4500 4276.00 4368.74 65.00
2944 33.4600 4299.00 4371.16 66.00
2945 33.4700 4324.00 4353.31 66.00
2946 33.4800 4280.00 4322.31 65.00
2947 33.4900 4257.00 4289.32 65.00
2948 33.5000 4229.00 4261.83 65.00
2949 33.5100 4208.00 4242.57 65.00
2950 33.5200 4193.00 4231.30 65.00
2951 33.5300 4185.00 4226.40 65.00
2952 33.5400 4188.00 4225.73 65.00
2953 33.5500 4210.00 4227.18 65.00
2954 33.5600 4195.00 4228.77 65.00
2955 33.5700 4177.00 4228.80 65.00
2956 33.5800 4239.00 4226.23 65.00
2957 33.5900 4188.00 4220.87 65.00
2958 33.6000 4164.00 4213.35 65.00
2959 33.6100 4148.00 4204.86 64.00
2960 33.6200 4131.00 4196.62 64.00
2961 33.6300 4134.00 4189.71 64.00
2962 33.6400 4173.00 4184.92 65.00
2963 33.6500 4156.00 4182.91 64.00
2964 33.6600 4140.00 4184.23 64.00
2965 33.6700 4127.00 4189.51 64.00
2966 33.6800 4159.00 4199.53 64.00
2967 33.6900 4158.00 4215.28 64.00
2968 33.7000 4221.00 4238.39 65.00
2969 33.7100 4228.00 4270.69 65.00
2970 33.7200 4271.00 4314.06 65.00
2971 33.7300 4337.00 4369.87 66.00
2972 33.7400 4390.00 4437.57 66.00
2973 33.7500 4464.00 4512.58 67.00
2974 33.7600 4527.00 4581.95 67.00
2975 33.7700 4581.00 4623.46 68.00
2976 33.7800 4584.00 4619.05 68.00
2977 33.7900 4550.00 4573.79 67.00
2978 33.8000 4473.00 4509.32 67.00
2979 33.8100 4414.00 4443.65 66.00
2980 33.8200 4417.00 4385.22 66.00
2981 33.8300 4328.00 4336.73 66.00
2982 33.8400 4223.00 4297.94 65.00
2983 33.8500 4209.00 4266.41 65.00
2984 33.8600 4203.00 4239.72 65.00
2985 33.8700 4205.00 4216.27 65.00
2986 33.8800 4183.00 4194.99 65.00
2987 33.8900 4164.00 4175.94 65.00
2988 33.9000 4129.00 4159.41 64.00
2989 33.9100 4144.00 4145.73 64.00
2990 33.9200 4113.00 4134.98 64.00
2991 33.9300 4121.00 4127.13 64.00
2992 33.9400 4106.00 4121.93 64.00
2993 33.9500 4140.00 4118.84 64.00
2994 33.9600 4121.00 4116.95 64.00
2995 33.9700 4133.00 4115.23 64.00
2996 33.9800 4149.00 4113.23 64.00
2997 33.9900 4157.00 4111.46 64.00
2998 34.0000 4157.00 4110.82 64.00
2999 34.0100 4173.00 4112.14 65.00
3000 34.0200 4127.00 4116.11 64.00
3001 34.0300 4187.00 4123.21 65.00
3002 34.0400 4190.00 4133.63 65.00
3003 34.0500 4217.00 4147.02 65.00
3004 34.0600 4252.00 4162.27 65.00
3005 34.0700 4273.00 4177.19 65.00
3006 34.0800 4261.00 4188.51 65.00
3007 34.0900 4276.00 4193.01 65.00
3008 34.1000 4277.00 4189.57 65.00
3009 34.1100 4258.00 4179.86 65.00
3010 34.1200 4237.00 4166.98 65.00
3011 34.1300 4215.00 4153.68 65.00
3012 34.1400 4158.00 4141.73 64.00
3013 34.1500 4141.00 4132.03 64.00
3014 34.1600 4134.00 4124.99 64.00
3015 34.1700 4172.00 4120.64 65.00
3016 34.1800 4161.00 4118.87 65.00
3017 34.1900 4178.00 4119.45 65.00
3018 34.2000 4136.00 4122.01 64.00
3019 34.2100 4159.00 4126.44 64.00
3020 34.2200 4165.00 4132.08 65.00
3021 34.2300 4169.00 4137.75 65.00
3022 34.2400 4182.00 4141.37 65.00
3023 34.2500 4203.00 4140.52 65.00
3024 34.2600 4153.00 4134.02 64.00
3025 34.2700 4165.00 4123.24 65.00
3026 34.2800 4134.00 4110.71 64.00
3027 34.2900 4134.00 4098.35 64.00
3028 34.3000 4139.00 4087.01 64.00
3029 34.3100 4130.00 4076.93 64.00
3030 34.3200 4110.00 4067.96 64.00
3031 34.3300 4110.00 4059.86 64.00
3032 34.3400 4112.00 4052.35 64.00
3033 34.3500 4102.00 4045.20 64.00
3034 34.3600 4135.00 4038.25 64.00
3035 34.3700 4135.00 4031.40 64.00
3036 34.3800 4079.00 4024.68 64.00
3037 34.3900 4077.00 4018.10 64.00
3038 34.4000 4082.00 4011.74 64.00
3039 34.4100 4032.00 4005.63 63.00
3040 34.4200 4077.00 3999.83 64.00
3041 34.4300 4068.00 3994.36 64.00
3042 34.4400 4041.00 3989.23 64.00
3043 34.4500 4060.00 3984.48 64.00
3044 34.4600 4043.00 3980.11 64.00
3045 34.4700 4038.00 3976.21 64.00
3046 34.4800 4097.00 3972.81 64.00
3047 34.4900 4055.00 3970.00 64.00
loop_
_pd_proc_info_excluded_regions
'from 0.01 to 4.010'
'from 34.49 to 78.048'
loop_
_refln_index_h
_refln_index_k
_refln_index_l
_refln_F_squared_calc
_refln_F_squared_meas
_refln_F_squared_sigma
_refln_observed_status
_refln_d_spacing
2 0 0 586.71 525.82 7.29 o 5.835875
1 0 1 1217.24 1215.86 11.33 o 4.067687
2 0 1 2295.63 2182.38 15.90 o 3.482420
2 1 0 1898.22 1888.25 15.17 o 3.444805
0 1 1 3716.13 3770.26 22.84 o 3.042845
1 1 1 30592.46 30636.03 41.49 o 2.944430
4 0 0 56338.45 56485.94 110.28 o 2.917938
3 0 1 27.79 27.30 0.13 o 2.896889
2 1 1 5.29 3.82 1.15 o 2.698112
4 0 1 90.97 86.45 1.05 o 2.421475
4 1 0 2819.47 2834.12 8.56 o 2.408722
3 1 1 16060.18 16122.98 38.53 o 2.396841
0 0 2 30082.59 29292.34 128.38 o 2.169882
0 2 0 42483.53 42678.10 138.57 o 2.133804
1 0 2 4122.69 4137.55 13.40 o 2.133329
4 1 1 2396.53 2242.06 19.01 o 2.106067
5 0 1 4306.87 4391.51 44.71 o 2.055811
2 0 2 387.79 506.17 23.30 o 2.033844
2 2 0 278.04 458.10 38.96 o 2.004045
6 0 0 1932.90 2225.01 72.26 o 1.945292
1 1 2 2011.54 2107.39 23.17 o 1.908192
3 0 2 3840.35 3801.83 39.55 o 1.895069
1 2 1 375.09 374.29 4.71 o 1.889597
5 1 1 20608.05 20537.78 58.55 o 1.852113
2 1 2 1.80 1.60 0.05 o 1.836001
2 2 1 977.23 1099.13 22.58 o 1.819420
6 0 1 1020.73 1127.60 21.06 o 1.775115
6 1 0 1842.40 2047.78 35.79 o 1.770073
4 0 2 18991.76 18839.55 90.09 o 1.741210
3 1 2 1018.39 1006.07 4.86 o 1.731983
4 2 0 27106.11 26547.99 105.40 o 1.722403
3 2 1 75.40 73.29 0.33 o 1.718043
6 1 1 21.75 0.15 0.32 < 1.638984
4 1 2 1090.92 1021.26 31.43 o 1.612184
4 2 1 44.70 19.73 4.05 o 1.600922
5 0 2 2046.21 1775.12 64.39 o 1.589304
7 0 1 263.73 83.20 37.74 < 1.556464
0 2 2 15769.85 15284.85 100.51 o 1.521422
1 2 2 2040.70 2015.37 33.63 o 1.508659
5 1 2 1794.72 1714.48 33.31 o 1.489376
5 2 1 1996.78 1923.65 35.61 o 1.480483
2 2 2 225.19 212.71 10.35 o 1.472215
7 1 1 3041.14 3064.82 26.17 o 1.462247
8 0 0 14263.37 14659.90 124.79 o 1.458969
6 0 2 1651.18 1521.62 54.18 o 1.448444
6 2 0 1180.29 1241.92 55.74 o 1.437564
1 0 3 222.90 231.48 10.43 o 1.435604
3 2 2 1925.88 1854.83 39.77 o 1.416935
2 0 3 2728.70 2571.33 88.55 o 1.404094
8 0 1 127.49 129.85 2.81 o 1.382911
2 3 0 129.80 136.98 2.62 o 1.382069
8 1 0 3639.76 3781.09 76.86 o 1.380523
6 1 2 87.92 90.58 1.43 o 1.371596
0 1 3 5698.99 5713.59 69.52 o 1.370020
6 2 1 494.55 488.67 5.42 o 1.364642
1 1 3 4314.91 4302.66 41.72 o 1.360678
3 0 3 781.90 791.25 4.54 o 1.355896
0 3 1 874.03 875.74 4.74 o 1.351767
4 2 2 10388.56 10373.93 59.01 o 1.349056
1 3 1 8162.46 8275.83 43.12 o 1.342791
2 1 3 1.20 1.25 0.02 o 1.333760
7 0 2 1777.38 1817.54 70.05 o 1.322130
2 3 1 0.97 1.03 0.03 o 1.316901
8 1 1 802.96 891.39 37.04 o 1.315563
4 0 3 117.57 130.43 4.46 o 1.296060
3 1 3 1521.69 1709.46 55.95 o 1.292241
4 3 0 903.41 937.02 11.49 o 1.278677
3 3 1 4312.43 4463.14 54.60 o 1.276890
5 2 2 1087.19 1125.73 14.64 o 1.274604
7 1 2 228.91 307.39 17.52 o 1.262911
7 2 1 262.02 356.40 29.87 o 1.257476
9 0 1 3967.89 4086.08 55.38 o 1.242566
4 1 3 4115.29 4115.40 51.63 o 1.240131
5 0 3 44.62 49.71 2.45 o 1.229626
4 3 1 626.39 825.11 48.08 o 1.226544
8 0 2 5315.69 5712.60 108.31 o 1.210737
8 2 0 7833.90 8214.50 120.67 o 1.204361
6 2 2 1025.16 1088.74 21.65 o 1.198421
9 1 1 6712.42 6787.34 70.27 o 1.193025
1 2 3 173.72 175.46 1.82 o 1.191117
1 3 2 483.08 485.49 7.79 o 1.183540
5 1 3 4244.68 4295.61 64.81 o 1.181558
2 2 3 1364.77 1363.35 16.00 o 1.172935
5 3 1 6525.00 6527.65 66.07 o 1.169789
10 0 0 1257.51 1271.19 16.51 o 1.167175
2 3 2 64.93 65.97 0.90 o 1.165698
8 1 2 1560.32 1587.57 24.73 o 1.164770
6 0 3 1519.13 1573.15 34.63 o 1.160807
8 2 1 70.29 72.11 2.23 o 1.160501
6 3 0 265.25 340.06 27.07 o 1.148268
3 2 3 555.85 679.99 57.05 o 1.144398
3 3 2 239.25 201.55 35.38 o 1.137673
10 0 1 282.57 228.65 12.07 o 1.127122
10 1 0 1338.66 1062.03 51.63 o 1.125828
7 2 2 947.18 734.80 36.32 o 1.123877
6 1 3 5.49 4.08 0.25 o 1.120110
9 0 2 552.05 268.68 89.27 o 1.113195
6 3 1 4.59 2.15 0.74 < 1.110068
4 2 3 66.99 19.20 16.78 < 1.107732
4 3 2 414.56 235.10 54.06 o 1.101630
7 0 3 507.16 179.26 76.97 < 1.092679
10 1 1 16.17 5.95 2.48 < 1.089755
0 0 4 1684.97 1204.14 89.19 o 1.084941
1 0 4 1508.16 1263.01 38.95 o 1.080284
9 1 2 875.32 739.05 25.25 o 1.077152
9 2 1 2220.49 1915.43 56.69 o 1.073774
0 4 0 7197.92 6094.54 222.56 o 1.066902
2 0 4 132.32 113.17 3.77 o 1.066664
5 2 3 19.08 16.21 0.81 o 1.065390
5 3 2 486.88 409.94 31.73 o 1.059958
7 1 3 70.61 61.14 3.29 o 1.058533
8 2 2 3060.29 2791.93 67.49 o 1.053034
7 3 1 833.66 750.62 17.77 o 1.050046
2 4 0 69.79 62.17 1.43 o 1.049508
1 1 4 470.94 418.54 10.45 o 1.047252
3 0 4 1254.25 1020.53 45.80 o 1.045067
2 1 4 977.44 1106.25 78.53 o 1.034830
1 4 1 3.28 3.44 0.23 o 1.031995
11 0 1 74.59 71.40 4.52 o 1.030708
10 0 2 1190.29 1136.04 68.68 o 1.027906
8 0 3 199.29 191.47 13.08 o 1.027241
10 2 0 833.17 787.06 51.11 o 1.023995
2 4 1 124.43 115.98 4.25 o 1.020102
6 2 3 798.41 735.38 31.37 o 1.019687
8 3 0 1370.67 1286.86 45.66 o 1.018522
4 0 4 1067.44 1008.41 30.44 o 1.016922
3 1 4 248.70 237.38 6.43 o 1.015074
6 3 2 0.75 0.72 0.04 o 1.014921
0 3 3 1737.78 1680.19 64.78 o 1.014282
1 3 3 1553.43 1524.27 62.49 o 1.010473
4 4 0 4918.21 4720.63 120.92 o 1.002023
11 1 1 158.32 155.69 4.57 o 1.001901
3 4 1 116.05 111.20 2.87 o 1.001162
10 1 2 298.38 284.22 8.04 o 0.999326
2 3 3 0.14 0.13 0.00 o 0.999301
8 1 3 1639.39 1564.66 42.80 o 0.998716
10 2 1 151.99 139.57 5.18 o 0.996627
8 3 1 243.66 272.24 29.02 o 0.991579
4 1 4 118.00 147.06 11.92 o 0.989225
9 2 2 317.68 412.58 24.23 o 0.986959
5 0 4 1011.37 1138.13 78.89 o 0.983868
3 3 3 534.64 555.81 51.10 o 0.981477
4 4 1 7.82 9.59 0.71 o 0.976335
12 0 0 1867.25 2427.06 161.65 o 0.972646
7 2 3 363.12 474.95 33.53 o 0.972577
7 3 2 56.24 71.38 4.60 o 0.968440
0 2 4 1069.28 1358.83 74.24 o 0.967108
9 0 3 332.71 416.10 21.92 o 0.965630
1 2 4 865.28 1016.53 48.23 o 0.963805
5 1 4 497.86 514.77 14.29 o 0.958720
4 3 3 1296.41 1316.16 37.92 o 0.958052
0 4 2 3169.79 3248.50 92.95 o 0.957429
1 4 2 344.27 356.07 11.41 o 0.954224
2 2 4 82.39 85.27 2.71 o 0.954096
11 0 2 488.79 548.50 32.91 o 0.953206
12 0 1 67.04 75.65 4.61 o 0.949100
12 1 0 1602.41 1814.12 105.59 o 0.948327
6 0 4 639.50 730.05 33.10 o 0.947534
5 4 1 267.05 303.19 13.36 o 0.946973
2 4 2 57.01 64.32 2.55 o 0.944798
9 1 3 1818.10 2009.17 80.58 o 0.941821
3 2 4 715.98 752.15 21.32 o 0.938546
9 3 1 2433.04 2536.20 83.80 o 0.935828
6 4 0 328.38 342.53 10.27 o 0.935447
11 1 2 24.47 25.68 1.07 o 0.930283
5 3 3 1595.95 1671.94 70.33 o 0.930262
3 4 2 323.00 343.73 12.42 o 0.929692
11 2 1 68.55 73.42 2.82 o 0.928104
12 1 1 165.85 186.46 9.73 o 0.926465
10 2 2 769.65 872.39 46.20 o 0.926057
8 2 3 118.33 133.76 6.80 o 0.925571
6 1 4 320.55 358.78 15.28 o 0.925009
8 3 2 636.54 735.49 55.13 o 0.922002
4 2 4 680.73 798.19 66.97 o 0.918001
6 4 1 72.92 73.60 5.05 o 0.914444
4 4 2 2157.13 1988.11 93.50 o 0.909710
7 0 4 592.59 546.24 25.50 o 0.909379
10 0 3 542.22 495.58 23.79 o 0.908369
10 3 0 358.63 314.36 93.17 o 0.902323
6 3 3 0.75 0.59 0.30 < 0.899371
5 2 4 595.91 460.61 94.34 o 0.893466
7 1 4 75.66 57.43 7.51 o 0.889410
10 1 3 5.10 3.75 0.59 o 0.888465
12 0 2 669.57 515.16 72.72 o 0.887558
5 4 2 203.99 159.46 19.89 o 0.885817
12 2 0 1074.76 887.96 111.89 o 0.885036
10 3 1 4.12 3.18 0.40 o 0.883429
7 4 1 146.73 105.92 10.02 o 0.880007
9 2 3 203.06 147.58 14.42 o 0.879741
13 0 1 1771.14 1296.45 128.13 o 0.879209
9 3 2 276.75 203.58 21.80 o 0.876675
8 0 4 249.70 178.28 19.83 o 0.870605
11 2 2 276.59 195.99 23.83 o 0.870315
12 1 2 694.71 506.87 56.37 o 0.868964
12 2 1 39.71 30.32 3.19 o 0.867187
7 3 3 20.52 16.25 1.82 o 0.866549
6 2 4 403.84 315.75 29.60 o 0.865992
1 0 5 360.47 302.85 16.42 o 0.865563
8 4 0 1574.24 1405.98 80.19 o 0.861201
13 1 1 1108.71 1006.38 59.54 o 0.861124
1 3 4 136.33 123.88 7.21 o 0.860327
6 4 2 274.10 252.02 14.71 o 0.859021
2 0 5 169.96 158.29 8.55 o 0.858509
1 4 3 69.91 74.10 10.74 o 0.856320
11 0 3 81.79 96.91 11.67 o 0.855584
2 3 4 418.77 558.64 63.28 o 0.853400
8 1 4 171.23 220.83 22.12 o 0.853036
0 1 5 820.21 1091.27 100.20 o 0.850540
2 4 3 208.25 257.99 28.51 o 0.849488
1 1 5 153.46 201.20 20.99 o 0.848291
3 0 5 462.43 593.51 70.40 o 0.847128
8 4 1 14.11 22.11 4.60 o 0.844729
2 5 0 7.75 10.76 1.96 o 0.844537
