#------------------------------------------------------------------------------
#$Date: 2016-06-17 04:50:27 +0300 (Fri, 17 Jun 2016) $
#$Revision: 183633 $
#$URL: file:///home/coder/svn-repositories/cod/cif/2/10/75/2107517.cif $
#------------------------------------------------------------------------------
#
# This file is available in the Crystallography Open Database (COD),
# http://www.crystallography.net/. The original data for this entry
# were provided by IUCr Journals, http://journals.iucr.org/.
#
# The file may be used within the scientific community so long as
# proper attribution is given to the journal article from which the
# data were obtained.
#
data_2107517
loop_
_publ_author_name
'Sist, Mattia'
'Zhang, Jiawei'
'Brummerstedt Iversen, Bo'
_publ_section_title
;
 Crystal structure and phase transition of thermoelectric SnSe
;
_journal_coeditor_code           GW5043
_journal_issue                   3
_journal_name_full               'Acta Crystallographica Section B'
_journal_page_first              310
_journal_page_last               316
_journal_paper_doi               10.1107/S2052520616003334
_journal_volume                  72
_journal_year                    2016
_chemical_formula_moiety         'Se1 Sn0.9816'
_chemical_formula_sum            'Se Sn0.9816'
_chemical_formula_weight         195.50
_chemical_name_common            'Tin Selenide'
_space_group_IT_number           62
_symmetry_cell_setting           orthorhombic
_symmetry_Int_Tables_number      62
_symmetry_space_group_name_Hall  '-P 2ac 2n'
_symmetry_space_group_name_H-M   'P n m a'
_cell_angle_alpha                90
_cell_angle_beta                 90
_cell_angle_gamma                90
_cell_formula_units_Z            4
_cell_length_a                   11.64398(13)
_cell_length_b                   4.24224(5)
_cell_length_c                   4.36522(7)
_cell_measurement_temperature    705(5)
_cell_volume                     215.627(5)
_computing_structure_refinement  'Jana2006, (Petricek,2014)'
_diffrn_ambient_temperature      705(5)
_diffrn_detector_type            'Image plate'
_diffrn_measurement_device_type  BL44B2
_diffrn_radiation_probe          x-ray
_diffrn_radiation_type           Synchrotron,monochromatic
_diffrn_radiation_wavelength     0.50021
_diffrn_source_type              'Spring8, BL44B2 beamline'
_exptl_absorpt_coefficient_mu    11.023
_exptl_absorpt_correction_type   none
_exptl_crystal_density_diffrn    6.022
_exptl_crystal_F_000             332.3
_pd_char_colour                  metallic_grey
_pd_meas_2theta_range_inc        0.01
_pd_meas_2theta_range_max        77.970
_pd_meas_2theta_range_min        0.010
_pd_meas_number_of_points        7797
_pd_proc_2theta_range_inc        0.01
_pd_proc_2theta_range_max        34.48
_pd_proc_2theta_range_min        4.02
_pd_proc_ls_background_function
'Manual background combined with 8 Chebyshev polynoms'
_pd_proc_ls_pref_orient_corr     none
_pd_proc_ls_profile_function     Pseudo-Voigt
_pd_proc_ls_prof_R_factor        0.0180
_pd_proc_ls_prof_wR_expected     0.0131
_pd_proc_ls_prof_wR_factor       0.0237
_pd_spec_mounting                capillary
_pd_spec_mount_mode              transmission
_refine_ls_goodness_of_fit_all   1.81
_refine_ls_number_constraints    0
_refine_ls_number_parameters     32
_refine_ls_number_restraints     0
_refine_ls_R_factor_all          0.0314
_refine_ls_R_factor_gt           0.0307
_refine_ls_shift/su_max          0.0114
_refine_ls_shift/su_mean         0.0021
_refine_ls_weighting_scheme      sigma
_refine_ls_wR_factor_all         0.0132
_refine_ls_wR_factor_gt          0.0128
_cod_data_source_file            gw5043sup1.cif
_cod_data_source_block           705
_cod_depositor_comments
;
The following automatic conversions were performed:

'_diffrn_radiation_probe' value 'X-ray' changed to 'x-ray' according
to
/usr/data/users/saulius/crontab/automatic-downloads/rss-feeds/IUCr/lib/dictionaries/cif_core.dic
dictionary named 'cif_core.dic' version 2.4.2 from 2011-04-26.

Automatic conversion script
Id: cif_fix_values 4268 2015-11-12 08:31:59Z antanas 

 Adding full bibliography for 2107508--2107520.cif.
;
_cod_original_formula_sum        'Se1 Sn0.9816'
_cod_database_code               2107517
_cod_database_fobs_code          2107517
loop_
_space_group_symop_id
_space_group_symop_operation_xyz
1 x,y,z
2 -x+1/2,-y,z+1/2
3 -x,y+1/2,-z
4 x+1/2,-y+1/2,-z+1/2
5 -x,-y,-z
6 x+1/2,y,-z+1/2
7 x,-y+1/2,z
8 -x+1/2,y+1/2,z+1/2
loop_
_atom_site_label
_atom_site_type_symbol
_atom_site_fract_x
_atom_site_fract_y
_atom_site_fract_z
_atom_site_adp_type
_atom_site_U_iso_or_equiv
_atom_site_site_symmetry_multiplicity
_atom_site_occupancy
_atom_site_calc_flag
Sn Sn 0.12148(6) 0.25 0.07350(13) Uani 0.0416(3) 4 0.9816 d
Se Se 0.85571(7) 0.25 0.48517(16) Uani 0.0326(4) 4 1 d
loop_
_atom_site_aniso_label
_atom_site_aniso_type_symbol
_atom_site_aniso_U_11
_atom_site_aniso_U_22
_atom_site_aniso_U_33
_atom_site_aniso_U_12
_atom_site_aniso_U_13
_atom_site_aniso_U_23
Sn Sn 0.0386(5) 0.0417(7) 0.0446(6) 0 -0.0088(5) 0
Se Se 0.0299(6) 0.0330(7) 0.0348(7) 0 -0.0007(6) 0
loop_
_atom_type_symbol
_atom_type_scat_dispersion_real
_atom_type_scat_dispersion_imag
_atom_type_scat_source
Se 0.2899 1.2209 'International Tables Vol C tables 4.2.6.8 and 6.1.1.1'
Sn -1.5316 0.7679 'International Tables Vol C tables 4.2.6.8 and 6.1.1.1'
loop_
_geom_angle_atom_site_label_1
_geom_angle_atom_site_label_2
_geom_angle_atom_site_label_3
_geom_angle_site_symmetry_1
_geom_angle_site_symmetry_2
_geom_angle_site_symmetry_3
_geom_angle
Se Sn Se 4_455 1_555 3_656 88.321
Se Sn Se 4_455 1_555 3_655 81.266
Se Sn Se 3_645 1_555 3_655 81.697
Se Sn Se 3_646 1_555 3_656 94.968
Se Sn Se 3_656 1_555 3_655 90.789
Se Sn Se 4_455 1_555 1_455 155.221
Se Sn Sn 4_455 1_555 3_545 140.094
loop_
_geom_bond_atom_site_label_1
_geom_bond_atom_site_label_2
_geom_bond_site_symmetry_1
_geom_bond_site_symmetry_2
_geom_bond_distance
Sn Se 1_555 4_455 2.739
Sn Se 1_555 3_656 2.878
Sn Se 1_555 3_655 3.243
Sn Se 1_555 1_455 3.579
Sn Sn 1_555 3_545 3.594
Sn Se 1_555 1_454 4.021
loop_
_pd_proc_point_id
_pd_proc_2theta_corrected
_pd_proc_intensity_net
_pd_calc_intensity_net
_pd_proc_ls_weight
1 4.0200 3101.00 3173.48 56.00
2 4.0300 3079.00 3172.50 55.00
3 4.0400 3116.00 3171.54 56.00
4 4.0500 3128.00 3170.61 56.00
5 4.0600 3109.00 3169.70 56.00
6 4.0700 3091.00 3168.82 56.00
7 4.0800 3103.00 3167.96 56.00
8 4.0900 3088.00 3167.12 56.00
9 4.1000 3103.00 3166.30 56.00
10 4.1100 3133.00 3165.51 56.00
11 4.1200 3137.00 3164.74 56.00
12 4.1300 3121.00 3163.99 56.00
13 4.1400 3124.00 3163.26 56.00
14 4.1500 3120.00 3162.56 56.00
15 4.1600 3129.00 3161.87 56.00
16 4.1700 3112.00 3161.21 56.00
17 4.1800 3133.00 3160.58 56.00
18 4.1900 3125.00 3159.96 56.00
19 4.2000 3108.00 3159.36 56.00
20 4.2100 3096.00 3158.79 56.00
21 4.2200 3120.00 3158.24 56.00
22 4.2300 3136.00 3157.71 56.00
23 4.2400 3137.00 3157.20 56.00
24 4.2500 3125.00 3156.71 56.00
25 4.2600 3113.00 3156.24 56.00
26 4.2700 3131.00 3155.80 56.00
27 4.2800 3092.00 3155.37 56.00
28 4.2900 3160.00 3154.97 56.00
29 4.3000 3155.00 3154.58 56.00
30 4.3100 3111.00 3154.22 56.00
31 4.3200 3132.00 3153.88 56.00
32 4.3300 3131.00 3153.56 56.00
33 4.3400 3115.00 3153.26 56.00
34 4.3500 3151.00 3152.98 56.00
35 4.3600 3138.00 3152.72 56.00
36 4.3700 3101.00 3152.48 56.00
37 4.3800 3127.00 3152.26 56.00
38 4.3900 3130.00 3152.06 56.00
39 4.4000 3148.00 3151.89 56.00
40 4.4100 3181.00 3151.73 56.00
41 4.4200 3160.00 3151.60 56.00
42 4.4300 3153.00 3151.48 56.00
43 4.4400 3162.00 3151.39 56.00
44 4.4500 3137.00 3151.32 56.00
45 4.4600 3146.00 3151.27 56.00
46 4.4700 3142.00 3151.24 56.00
47 4.4800 3134.00 3151.24 56.00
48 4.4900 3134.00 3151.25 56.00
49 4.5000 3126.00 3151.29 56.00
50 4.5100 3112.00 3151.36 56.00
51 4.5200 3117.00 3151.44 56.00
52 4.5300 3166.00 3151.55 56.00
53 4.5400 3156.00 3151.69 56.00
54 4.5500 3152.00 3151.85 56.00
55 4.5600 3145.00 3152.04 56.00
56 4.5700 3146.00 3152.26 56.00
57 4.5800 3156.00 3152.50 56.00
58 4.5900 3185.00 3152.78 56.00
59 4.6000 3161.00 3153.09 56.00
60 4.6100 3144.00 3153.43 56.00
61 4.6200 3150.00 3153.81 56.00
62 4.6300 3144.00 3154.23 56.00
63 4.6400 3163.00 3154.69 56.00
64 4.6500 3170.00 3155.20 56.00
65 4.6600 3179.00 3155.76 56.00
66 4.6700 3161.00 3156.38 56.00
67 4.6800 3137.00 3157.07 56.00
68 4.6900 3130.00 3157.83 56.00
69 4.7000 3152.00 3158.67 56.00
70 4.7100 3191.00 3159.61 56.00
71 4.7200 3184.00 3160.66 56.00
72 4.7300 3166.00 3161.85 56.00
73 4.7400 3173.00 3163.20 56.00
74 4.7500 3184.00 3164.75 56.00
75 4.7600 3181.00 3166.54 56.00
76 4.7700 3227.00 3168.63 57.00
77 4.7800 3196.00 3171.11 57.00
78 4.7900 3213.00 3174.09 57.00
79 4.8000 3225.00 3177.74 57.00
80 4.8100 3223.00 3182.28 57.00
81 4.8200 3236.00 3188.07 57.00
82 4.8300 3248.00 3195.65 57.00
83 4.8400 3294.00 3205.90 57.00
84 4.8500 3275.00 3220.75 57.00
85 4.8600 3386.00 3247.18 58.00
86 4.8700 3509.00 3316.92 59.00
87 4.8800 3867.00 3543.09 62.00
88 4.8900 4495.00 4173.42 67.00
89 4.9000 5573.00 5425.71 75.00
90 4.9100 6825.00 6993.84 83.00
91 4.9200 7237.00 7799.06 85.00
92 4.9300 6418.00 7026.01 80.00
93 4.9400 5018.00 5461.89 71.00
94 4.9500 3998.00 4197.56 63.00
95 4.9600 3567.00 3556.05 60.00
96 4.9700 3352.00 3325.24 58.00
97 4.9800 3248.00 3254.86 57.00
98 4.9900 3224.00 3229.11 57.00
99 5.0000 3241.00 3215.25 57.00
100 5.0100 3214.00 3206.05 57.00
101 5.0200 3229.00 3199.56 57.00
102 5.0300 3189.00 3194.86 56.00
103 5.0400 3197.00 3191.42 57.00
104 5.0500 3164.00 3188.89 56.00
105 5.0600 3169.00 3187.01 56.00
106 5.0700 3208.00 3185.64 57.00
107 5.0800 3217.00 3184.65 57.00
108 5.0900 3186.00 3183.97 56.00
109 5.1000 3187.00 3183.52 56.00
110 5.1100 3202.00 3183.27 57.00
111 5.1200 3188.00 3183.18 56.00
112 5.1300 3229.00 3183.22 57.00
113 5.1400 3199.00 3183.37 57.00
114 5.1500 3196.00 3183.61 57.00
115 5.1600 3203.00 3183.94 57.00
116 5.1700 3204.00 3184.33 57.00
117 5.1800 3208.00 3184.78 57.00
118 5.1900 3237.00 3185.29 57.00
119 5.2000 3223.00 3185.84 57.00
120 5.2100 3223.00 3186.43 57.00
121 5.2200 3209.00 3187.06 57.00
122 5.2300 3206.00 3187.72 57.00
123 5.2400 3240.00 3188.42 57.00
124 5.2500 3245.00 3189.14 57.00
125 5.2600 3203.00 3189.89 57.00
126 5.2700 3191.00 3190.66 56.00
127 5.2800 3215.00 3191.45 57.00
128 5.2900 3215.00 3192.27 57.00
129 5.3000 3238.00 3193.10 57.00
130 5.3100 3234.00 3193.95 57.00
131 5.3200 3244.00 3194.82 57.00
132 5.3300 3221.00 3195.70 57.00
133 5.3400 3223.00 3196.60 57.00
134 5.3500 3228.00 3197.52 57.00
135 5.3600 3258.00 3198.45 57.00
136 5.3700 3224.00 3199.39 57.00
137 5.3800 3212.00 3200.97 57.00
138 5.3900 3209.00 3201.94 57.00
139 5.4000 3207.00 3202.93 57.00
140 5.4100 3213.00 3203.93 57.00
141 5.4200 3219.00 3204.94 57.00
142 5.4300 3249.00 3205.96 57.00
143 5.4400 3230.00 3206.99 57.00
144 5.4500 3207.00 3208.04 57.00
145 5.4600 3240.00 3209.09 57.00
146 5.4700 3212.00 3210.15 57.00
147 5.4800 3245.00 3211.22 57.00
148 5.4900 3227.00 3212.30 57.00
149 5.5000 3270.00 3213.40 57.00
150 5.5100 3202.00 3214.49 57.00
151 5.5200 3256.00 3215.60 57.00
152 5.5300 3219.00 3216.72 57.00
153 5.5400 3235.00 3217.84 57.00
154 5.5500 3252.00 3218.98 57.00
155 5.5600 3251.00 3220.12 57.00
156 5.5700 3229.00 3221.27 57.00
157 5.5800 3232.00 3222.43 57.00
158 5.5900 3251.00 3223.59 57.00
159 5.6000 3242.00 3224.77 57.00
160 5.6100 3284.00 3225.95 57.00
161 5.6200 3277.00 3227.13 57.00
162 5.6300 3231.00 3228.33 57.00
163 5.6400 3270.00 3229.53 57.00
164 5.6500 3250.00 3230.74 57.00
165 5.6600 3258.00 3231.95 57.00
166 5.6700 3290.00 3233.18 57.00
167 5.6800 3291.00 3234.41 57.00
168 5.6900 3245.00 3235.64 57.00
169 5.7000 3268.00 3236.89 57.00
170 5.7100 3258.00 3238.13 57.00
171 5.7200 3234.00 3239.39 57.00
172 5.7300 3291.00 3240.65 57.00
173 5.7400 3310.00 3241.92 58.00
174 5.7500 3273.00 3243.19 57.00
175 5.7600 3297.00 3244.47 57.00
176 5.7700 3255.00 3245.76 57.00
177 5.7800 3270.00 3247.05 57.00
178 5.7900 3263.00 3248.35 57.00
179 5.8000 3323.00 3249.65 58.00
180 5.8100 3278.00 3250.96 57.00
181 5.8200 3267.00 3252.27 57.00
182 5.8300 3288.00 3253.60 57.00
183 5.8400 3283.00 3254.92 57.00
184 5.8500 3291.00 3256.25 57.00
185 5.8600 3285.00 3257.59 57.00
186 5.8700 3284.00 3258.93 57.00
187 5.8800 3293.00 3260.28 57.00
188 5.8900 3264.00 3261.63 57.00
189 5.9000 3299.00 3262.99 57.00
190 5.9100 3319.00 3264.35 58.00
191 5.9200 3296.00 3265.72 57.00
192 5.9300 3282.00 3267.09 57.00
193 5.9400 3298.00 3268.47 57.00
194 5.9500 3282.00 3269.85 57.00
195 5.9600 3304.00 3271.24 57.00
196 5.9700 3317.00 3272.63 58.00
197 5.9800 3339.00 3274.03 58.00
198 5.9900 3296.00 3275.43 57.00
199 6.0000 3317.00 3276.84 58.00
200 6.0100 3315.00 3278.25 58.00
201 6.0200 3300.00 3279.66 57.00
202 6.0300 3329.00 3281.09 58.00
203 6.0400 3314.00 3282.51 58.00
204 6.0500 3319.00 3283.94 58.00
205 6.0600 3306.00 3285.38 57.00
206 6.0700 3308.00 3286.82 58.00
207 6.0800 3305.00 3288.26 57.00
208 6.0900 3353.00 3289.71 58.00
209 6.1000 3352.00 3291.16 58.00
210 6.1100 3350.00 3292.39 58.00
211 6.1200 3341.00 3294.84 58.00
212 6.1300 3330.00 3297.30 58.00
213 6.1400 3375.00 3299.76 58.00
214 6.1500 3370.00 3302.23 58.00
215 6.1600 3352.00 3304.71 58.00
216 6.1700 3328.00 3307.18 58.00
217 6.1800 3332.00 3309.67 58.00
218 6.1900 3308.00 3312.15 58.00
219 6.2000 3344.00 3314.65 58.00
220 6.2100 3359.00 3317.14 58.00
221 6.2200 3385.00 3319.64 58.00
222 6.2300 3327.00 3322.15 58.00
223 6.2400 3357.00 3324.66 58.00
224 6.2500 3341.00 3327.18 58.00
225 6.2600 3351.00 3329.70 58.00
226 6.2700 3384.00 3332.23 58.00
227 6.2800 3362.00 3334.76 58.00
228 6.2900 3347.00 3337.30 58.00
229 6.3000 3391.00 3339.85 58.00
230 6.3100 3340.00 3342.40 58.00
231 6.3200 3371.00 3344.95 58.00
232 6.3300 3407.00 3347.51 58.00
233 6.3400 3375.00 3350.08 58.00
234 6.3500 3393.00 3352.66 58.00
235 6.3600 3384.00 3355.24 58.00
236 6.3700 3387.00 3357.83 58.00
237 6.3800 3398.00 3360.43 58.00
238 6.3900 3389.00 3363.03 58.00
239 6.4000 3424.00 3365.65 59.00
240 6.4100 3400.00 3368.27 58.00
241 6.4200 3398.00 3370.90 58.00
242 6.4300 3375.00 3373.54 58.00
243 6.4400 3393.00 3376.19 58.00
244 6.4500 3421.00 3378.86 58.00
245 6.4600 3395.00 3381.53 58.00
246 6.4700 3386.00 3384.21 58.00
247 6.4800 3400.00 3386.91 58.00
248 6.4900 3364.00 3389.62 58.00
249 6.5000 3387.00 3392.35 58.00
250 6.5100 3436.00 3395.09 59.00
251 6.5200 3432.00 3397.85 59.00
252 6.5300 3420.00 3400.62 58.00
253 6.5400 3425.00 3403.42 59.00
254 6.5500 3413.00 3406.23 58.00
255 6.5600 3431.00 3409.07 59.00
256 6.5700 3444.00 3411.93 59.00
257 6.5800 3427.00 3414.82 59.00
258 6.5900 3437.00 3417.74 59.00
259 6.6000 3441.00 3420.69 59.00
260 6.6100 3409.00 3423.68 58.00
261 6.6200 3436.00 3428.33 59.00
262 6.6300 3435.00 3431.41 59.00
263 6.6400 3446.00 3434.55 59.00
264 6.6500 3415.00 3437.73 58.00
265 6.6600 3425.00 3440.98 59.00
266 6.6700 3408.00 3444.28 58.00
267 6.6800 3450.00 3447.67 59.00
268 6.6900 3478.00 3451.13 59.00
269 6.7000 3450.00 3454.68 59.00
270 6.7100 3439.00 3458.34 59.00
271 6.7200 3453.00 3462.11 59.00
272 6.7300 3447.00 3466.02 59.00
273 6.7400 3492.00 3470.08 59.00
274 6.7500 3504.00 3474.32 59.00
275 6.7600 3478.00 3478.77 59.00
276 6.7700 3481.00 3483.45 59.00
277 6.7800 3465.00 3488.42 59.00
278 6.7900 3450.00 3494.64 59.00
279 6.8000 3504.00 3500.34 59.00
280 6.8100 3528.00 3506.51 59.00
281 6.8200 3513.00 3513.25 59.00
282 6.8300 3485.00 3520.67 59.00
283 6.8400 3521.00 3528.95 59.00
284 6.8500 3510.00 3538.27 59.00
285 6.8600 3509.00 3548.93 59.00
286 6.8700 3557.00 3561.27 60.00
287 6.8800 3542.00 3575.81 60.00
288 6.8900 3541.00 3593.22 60.00
289 6.9000 3583.00 3614.52 60.00
290 6.9100 3619.00 3641.28 60.00
291 6.9200 3644.00 3676.46 60.00
292 6.9300 3740.00 3727.01 61.00
293 6.9400 3835.00 3811.02 62.00
294 6.9500 3989.00 3972.30 63.00
295 6.9600 4311.00 4297.89 66.00
296 6.9700 4889.00 4914.87 70.00
297 6.9800 5817.00 5930.73 76.00
298 6.9900 7246.00 7310.17 85.00
299 7.0000 8731.00 8737.01 93.00
300 7.0100 9544.00 9554.06 98.00
301 7.0200 9303.00 9186.32 96.00
302 7.0300 7969.00 7916.01 89.00
303 7.0400 6549.00 6464.90 81.00
304 7.0500 5407.00 5291.17 74.00
305 7.0600 4702.00 4527.44 69.00
306 7.0700 4262.00 4106.36 65.00
307 7.0800 4012.00 3897.51 63.00
308 7.0900 3826.00 3794.97 62.00
309 7.1000 3778.00 3739.33 61.00
310 7.1100 3706.00 3704.33 61.00
311 7.1200 3703.00 3679.81 61.00
312 7.1300 3657.00 3661.69 60.00
313 7.1400 3632.00 3647.98 60.00
314 7.1500 3608.00 3637.52 60.00
315 7.1600 3585.00 3629.49 60.00
316 7.1700 3632.00 3623.34 60.00
317 7.1800 3587.00 3618.64 60.00
318 7.1900 3563.00 3615.10 60.00
319 7.2000 3586.00 3612.49 60.00
320 7.2100 3573.00 3610.63 60.00
321 7.2200 3569.00 3609.38 60.00
322 7.2300 3575.00 3608.64 60.00
323 7.2400 3552.00 3608.32 60.00
324 7.2500 3572.00 3608.35 60.00
325 7.2600 3566.00 3608.69 60.00
326 7.2700 3587.00 3609.28 60.00
327 7.2800 3587.00 3610.10 60.00
328 7.2900 3584.00 3611.10 60.00
329 7.3000 3581.00 3612.27 60.00
330 7.3100 3602.00 3613.58 60.00
331 7.3200 3566.00 3615.02 60.00
332 7.3300 3553.00 3616.57 60.00
333 7.3400 3586.00 3618.22 60.00
334 7.3500 3607.00 3619.96 60.00
335 7.3600 3583.00 3621.78 60.00
336 7.3700 3582.00 3623.67 60.00
337 7.3800 3547.00 3625.62 60.00
338 7.3900 3573.00 3627.63 60.00
339 7.4000 3571.00 3629.70 60.00
340 7.4100 3608.00 3631.81 60.00
341 7.4200 3587.00 3633.97 60.00
342 7.4300 3563.00 3636.17 60.00
343 7.4400 3576.00 3638.41 60.00
344 7.4500 3593.00 3640.69 60.00
345 7.4600 3627.00 3643.00 60.00
346 7.4700 3643.00 3645.34 60.00
347 7.4800 3621.00 3647.72 60.00
348 7.4900 3620.00 3650.12 60.00
349 7.5000 3628.00 3652.55 60.00
350 7.5100 3588.00 3655.02 60.00
351 7.5200 3631.00 3657.50 60.00
352 7.5300 3621.00 3660.02 60.00
353 7.5400 3666.00 3662.56 61.00
354 7.5500 3603.00 3665.13 60.00
355 7.5600 3615.00 3667.72 60.00
356 7.5700 3592.00 3670.34 60.00
357 7.5800 3625.00 3672.98 60.00
358 7.5900 3653.00 3675.65 60.00
359 7.6000 3626.00 3678.35 60.00
360 7.6100 3637.00 3681.08 60.00
361 7.6200 3646.00 3683.84 60.00
362 7.6300 3617.00 3686.62 60.00
363 7.6400 3633.00 3689.44 60.00
364 7.6500 3660.00 3691.44 60.00
365 7.6600 3654.00 3693.47 60.00
366 7.6700 3640.00 3695.53 60.00
367 7.6800 3660.00 3697.64 60.00
368 7.6900 3641.00 3699.78 60.00
369 7.7000 3656.00 3701.97 60.00
370 7.7100 3662.00 3704.20 61.00
371 7.7200 3616.00 3706.49 60.00
372 7.7300 3617.00 3708.82 60.00
373 7.7400 3643.00 3711.21 60.00
374 7.7500 3654.00 3713.66 60.00
375 7.7600 3665.00 3716.18 61.00
376 7.7700 3671.00 3718.77 61.00
377 7.7800 3664.00 3721.44 61.00
378 7.7900 3665.00 3724.19 61.00
379 7.8000 3674.00 3727.03 61.00
380 7.8100 3655.00 3729.97 60.00
381 7.8200 3707.00 3733.03 61.00
382 7.8300 3697.00 3736.21 61.00
383 7.8400 3694.00 3739.52 61.00
384 7.8500 3648.00 3742.98 60.00
385 7.8600 3699.00 3746.60 61.00
386 7.8700 3706.00 3750.41 61.00
387 7.8800 3713.00 3754.43 61.00
388 7.8900 3736.00 3758.68 61.00
389 7.9000 3719.00 3763.18 61.00
390 7.9100 3702.00 3767.98 61.00
391 7.9200 3732.00 3773.11 61.00
392 7.9300 3687.00 3778.63 61.00
393 7.9400 3741.00 3784.57 61.00
394 7.9500 3749.00 3791.01 61.00
395 7.9600 3771.00 3798.04 61.00
396 7.9700 3751.00 3805.72 61.00
397 7.9800 3782.00 3814.20 61.00
398 7.9900 3758.00 3823.59 61.00
399 8.0000 3780.00 3834.08 61.00
400 8.0100 3815.00 3845.88 62.00
401 8.0200 3834.00 3859.25 62.00
402 8.0300 3814.00 3874.53 62.00
403 8.0400 3851.00 3892.17 62.00
404 8.0500 3841.00 3912.73 62.00
405 8.0600 3865.00 3936.98 62.00
406 8.0700 3912.00 3965.92 63.00
407 8.0800 3971.00 4000.94 63.00
408 8.0900 4043.00 4044.00 64.00
409 8.1000 4093.00 4097.92 64.00
410 8.1100 4159.00 4167.15 64.00
411 8.1200 4286.00 4262.21 65.00
412 8.1300 4527.00 4398.72 67.00
413 8.1400 4800.00 4630.93 69.00
414 8.1500 5315.00 5085.25 73.00
415 8.1600 6294.00 6008.97 79.00
416 8.1700 7895.00 7746.66 89.00
417 8.1800 10475.00 10545.40 102.00
418 8.1900 14020.00 14191.60 118.00
419 8.2000 17317.00 17622.40 132.00
420 8.2100 18367.00 18913.70 136.00
421 8.2200 16437.00 17050.10 128.00
422 8.2300 12741.00 13465.20 113.00
423 8.2400 9406.00 9970.75 97.00
424 8.2500 7188.00 7430.08 85.00
425 8.2600 5882.00 5930.28 77.00
426 8.2700 5190.00 5182.12 72.00
427 8.2800 4906.00 4859.82 70.00
428 8.2900 4818.00 4763.33 69.00
429 8.3000 4934.00 4838.17 70.00
430 8.3100 5377.00 5155.65 73.00
431 8.3200 6045.00 5885.94 78.00
432 8.3300 7200.00 7210.83 85.00
433 8.3400 8873.00 9132.60 94.00
434 8.3500 10663.00 11232.40 103.00
435 8.3600 12074.00 12514.00 110.00
436 8.3700 11882.00 12003.10 109.00
437 8.3800 10243.00 10102.90 101.00
438 8.3900 8116.00 7984.52 90.00
439 8.4000 6394.00 6299.08 80.00
440 8.4100 5301.00 5236.43 73.00
441 8.4200 4733.00 4667.14 69.00
442 8.4300 4407.00 4387.19 66.00
443 8.4400 4196.00 4245.22 65.00
444 8.4500 4062.00 4162.64 64.00
445 8.4600 3997.00 4106.94 63.00
446 8.4700 3942.00 4065.81 63.00
447 8.4800 3923.00 4034.12 63.00
448 8.4900 3938.00 4009.12 63.00
449 8.5000 3937.00 3989.12 63.00
450 8.5100 3888.00 3972.91 62.00
451 8.5200 3879.00 3959.65 62.00
452 8.5300 3884.00 3958.69 62.00
453 8.5400 3852.00 3949.78 62.00
454 8.5500 3872.00 3942.39 62.00
455 8.5600 3860.00 3936.25 62.00
456 8.5700 3832.00 3931.15 62.00
457 8.5800 3894.00 3926.91 62.00
458 8.5900 3850.00 3923.41 62.00
459 8.6000 3890.00 3920.55 62.00
460 8.6100 3882.00 3918.22 62.00
461 8.6200 3884.00 3916.37 62.00
462 8.6300 3869.00 3914.93 62.00
463 8.6400 3868.00 3913.85 62.00
464 8.6500 3853.00 3913.09 62.00
465 8.6600 3864.00 3912.01 62.00
466 8.6700 3899.00 3911.80 62.00
467 8.6800 3868.00 3911.83 62.00
468 8.6900 3865.00 3912.07 62.00
469 8.7000 3872.00 3912.50 62.00
470 8.7100 3851.00 3913.11 62.00
471 8.7200 3875.00 3913.89 62.00
472 8.7300 3903.00 3914.82 62.00
473 8.7400 3895.00 3915.89 62.00
474 8.7500 3853.00 3917.10 62.00
475 8.7600 3897.00 3918.44 62.00
476 8.7700 3885.00 3919.90 62.00
477 8.7800 3900.00 3921.47 62.00
478 8.7900 3895.00 3923.16 62.00
479 8.8000 3912.00 3924.97 63.00
480 8.8100 3898.00 3926.87 62.00
481 8.8200 3915.00 3928.89 63.00
482 8.8300 3897.00 3931.01 62.00
483 8.8400 3924.00 3933.23 63.00
484 8.8500 3895.00 3935.56 62.00
485 8.8600 3927.00 3937.57 63.00
486 8.8700 3926.00 3939.70 63.00
487 8.8800 3948.00 3941.93 63.00
488 8.8900 3927.00 3944.26 63.00
489 8.9000 3974.00 3946.71 63.00
490 8.9100 3978.00 3949.27 63.00
491 8.9200 3984.00 3951.94 63.00
492 8.9300 3938.00 3954.74 63.00
493 8.9400 3975.00 3957.66 63.00
494 8.9500 3973.00 3960.71 63.00
495 8.9600 3984.00 3963.90 63.00
496 8.9700 4049.00 3967.23 64.00
497 8.9800 4016.00 3970.71 63.00
498 8.9900 4014.00 3974.34 63.00
499 9.0000 4032.00 3978.14 63.00
500 9.0100 4052.00 3982.12 64.00
501 9.0200 4063.00 3986.28 64.00
502 9.0300 4123.00 3990.65 64.00
503 9.0400 4084.00 3995.22 64.00
504 9.0500 4074.00 4000.02 64.00
505 9.0600 4089.00 4005.07 64.00
506 9.0700 4067.00 4010.38 64.00
507 9.0800 4126.00 4015.98 64.00
508 9.0900 4129.00 4021.89 64.00
509 9.1000 4104.00 4028.13 64.00
510 9.1100 4087.00 4034.74 64.00
511 9.1200 4104.00 4041.75 64.00
512 9.1300 4128.00 4049.20 64.00
513 9.1400 4140.00 4057.15 64.00
514 9.1500 4187.00 4065.63 65.00
515 9.1600 4185.00 4074.72 65.00
516 9.1700 4168.00 4084.48 65.00
517 9.1800 4216.00 4095.01 65.00
518 9.1900 4210.00 4106.40 65.00
519 9.2000 4247.00 4118.77 65.00
520 9.2100 4274.00 4132.28 65.00
521 9.2200 4316.00 4147.10 66.00
522 9.2300 4263.00 4163.45 65.00
523 9.2400 4350.00 4181.60 66.00
524 9.2500 4320.00 4201.91 66.00
525 9.2600 4341.00 4224.82 66.00
526 9.2700 4384.00 4250.90 66.00
527 9.2800 4434.00 4280.93 67.00
528 9.2900 4453.00 4315.91 67.00
529 9.3000 4517.00 4357.28 67.00
530 9.3100 4537.00 4407.00 67.00
531 9.3200 4620.00 4467.93 68.00
532 9.3300 4719.00 4544.35 69.00
533 9.3400 4803.00 4642.97 69.00
534 9.3500 4943.00 4776.28 70.00
535 9.3600 5217.00 4976.85 72.00
536 9.3700 5752.00 5353.96 76.00
537 9.3800 6764.00 6245.14 82.00
538 9.3900 8861.00 8404.90 94.00
539 9.4000 12773.00 12801.00 113.00
540 9.4100 19091.00 19503.20 138.00
541 9.4200 25995.00 26109.80 161.00
542 9.4300 27894.00 27693.50 167.00
543 9.4400 22913.00 22666.70 151.00
544 9.4500 15476.00 15587.40 124.00
545 9.4600 10152.00 10167.60 101.00
546 9.4700 7366.00 7221.28 86.00
547 9.4800 6187.00 5975.77 79.00
548 9.4900 5641.00 5514.33 75.00
549 9.5000 5438.00 5337.83 74.00
550 9.5100 5400.00 5265.81 73.00
551 9.5200 5349.00 5245.69 73.00
552 9.5300 5320.00 5261.20 73.00
553 9.5400 5385.00 5305.88 73.00
554 9.5500 5465.00 5377.13 74.00
555 9.5600 5556.00 5474.72 75.00
556 9.5700 5665.00 5600.34 75.00
557 9.5800 5817.00 5757.55 76.00
558 9.5900 5966.00 5951.97 77.00
559 9.6000 6175.00 6191.77 79.00
560 9.6100 6430.00 6488.57 80.00
561 9.6200 6738.00 6858.95 82.00
562 9.6300 7205.00 7326.65 85.00
563 9.6400 7807.00 7926.54 88.00
564 9.6500 8531.00 8711.56 92.00
565 9.6600 9762.00 9770.09 99.00
566 9.6700 11609.00 11287.50 108.00
567 9.6800 15013.00 13793.10 123.00
568 9.6900 21408.00 18932.90 146.00
569 9.7000 33736.00 30953.90 184.00
570 9.7100 57319.00 57382.20 239.00
571 9.7200 101258.00 104845.00 318.00
572 9.7300 164672.00 168293.00 406.00
573 9.7400 222236.00 219498.00 471.00
574 9.7500 222239.00 216384.00 471.00
575 9.7600 165008.00 162362.00 406.00
576 9.7700 98082.00 100320.00 313.00
577 9.7800 54866.00 55890.80 234.00
578 9.7900 33159.00 32541.60 182.00
579 9.8000 25298.00 23953.70 159.00
580 9.8100 26443.00 25045.00 163.00
581 9.8200 36235.00 35912.30 190.00
582 9.8300 57174.00 58588.50 239.00
583 9.8400 88124.00 89483.10 297.00
584 9.8500 110802.00 112683.00 333.00
585 9.8600 108313.00 107149.00 329.00
586 9.8700 81802.00 77972.90 286.00
587 9.8800 48067.00 47210.60 219.00
588 9.8900 25774.00 26352.50 161.00
589 9.9000 15143.00 15681.80 123.00
590 9.9100 10303.00 11060.80 102.00
591 9.9200 8045.00 9021.56 90.00
592 9.9300 6909.00 7921.98 83.00
593 9.9400 6258.00 7199.98 79.00
594 9.9500 5871.00 6675.58 77.00
595 9.9600 5625.00 6277.78 75.00
596 9.9700 5395.00 5966.09 73.00
597 9.9800 5254.00 5716.08 72.00
598 9.9900 5147.00 5511.74 72.00
599 10.0000 5040.00 5342.22 71.00
600 10.0100 4936.00 5199.77 70.00
601 10.0200 4879.00 5078.75 70.00
602 10.0300 4809.00 4974.96 69.00
603 10.0400 4778.00 4885.16 69.00
604 10.0500 4695.00 4806.88 69.00
605 10.0600 4672.00 4738.19 68.00
606 10.0700 4641.00 4677.55 68.00
607 10.0800 4621.00 4623.71 68.00
608 10.0900 4552.00 4575.68 67.00
609 10.1000 4565.00 4532.63 68.00
610 10.1100 4552.00 4493.89 67.00
611 10.1200 4518.00 4458.89 67.00
612 10.1300 4474.00 4427.15 67.00
613 10.1400 4459.00 4398.29 67.00
614 10.1500 4417.00 4371.97 66.00
615 10.1600 4384.00 4347.88 66.00
616 10.1700 4413.00 4325.78 66.00
617 10.1800 4410.00 4305.47 66.00
618 10.1900 4375.00 4286.74 66.00
619 10.2000 4373.00 4269.45 66.00
620 10.2100 4349.00 4253.45 66.00
621 10.2200 4346.00 4238.61 66.00
622 10.2300 4352.00 4224.82 66.00
623 10.2400 4306.00 4212.00 66.00
624 10.2500 4253.00 4200.05 65.00
625 10.2600 4284.00 4188.90 65.00
626 10.2700 4285.00 4178.47 65.00
627 10.2800 4238.00 4168.76 65.00
628 10.2900 4270.00 4160.41 65.00
629 10.3000 4281.00 4151.84 65.00
630 10.3100 4228.00 4143.79 65.00
631 10.3200 4241.00 4136.23 65.00
632 10.3300 4209.00 4129.11 65.00
633 10.3400 4217.00 4122.40 65.00
634 10.3500 4231.00 4116.07 65.00
635 10.3600 4205.00 4110.10 65.00
636 10.3700 4164.00 4104.46 65.00
637 10.3800 4137.00 4099.13 64.00
638 10.3900 4190.00 4094.08 65.00
639 10.4000 4195.00 4089.31 65.00
640 10.4100 4214.00 4084.78 65.00
641 10.4200 4166.00 4080.49 65.00
642 10.4300 4123.00 4076.43 64.00
643 10.4400 4120.00 4072.57 64.00
644 10.4500 4139.00 4068.90 64.00
645 10.4600 4129.00 4065.42 64.00
646 10.4700 4169.00 4070.44 65.00
647 10.4800 4116.00 4067.41 64.00
648 10.4900 4125.00 4064.54 64.00
649 10.5000 4120.00 4061.83 64.00
650 10.5100 4074.00 4059.26 64.00
651 10.5200 4093.00 4056.83 64.00
652 10.5300 4115.00 4054.55 64.00
653 10.5400 4120.00 4054.13 64.00
654 10.5500 4050.00 4052.15 64.00
655 10.5600 4099.00 4050.32 64.00
656 10.5700 4051.00 4048.70 64.00
657 10.5800 4083.00 4047.43 64.00
658 10.5900 4098.00 4046.88 64.00
659 10.6000 4080.00 4047.78 64.00
660 10.6100 4071.00 4051.02 64.00
661 10.6200 4078.00 4056.81 64.00
662 10.6300 4063.00 4063.38 64.00
663 10.6400 4093.00 4066.13 64.00
664 10.6500 4067.00 4061.37 64.00
665 10.6600 4095.00 4052.31 64.00
666 10.6700 4049.00 4043.73 64.00
667 10.6800 4053.00 4037.62 64.00
668 10.6900 4017.00 4033.90 63.00
669 10.7000 4048.00 4031.67 64.00
670 10.7100 4052.00 4030.17 64.00
671 10.7200 4060.00 4029.00 64.00
672 10.7300 4023.00 4028.00 63.00
673 10.7400 4044.00 4025.00 64.00
674 10.7500 4012.00 4024.21 63.00
675 10.7600 4021.00 4023.49 63.00
676 10.7700 4058.00 4022.84 64.00
677 10.7800 4017.00 4022.24 63.00
678 10.7900 4028.00 4022.48 63.00
679 10.8000 4032.00 4021.98 63.00
680 10.8100 4008.00 4021.53 63.00
681 10.8200 4031.00 4021.12 63.00
682 10.8300 4052.00 4020.75 64.00
683 10.8400 4041.00 4020.41 64.00
684 10.8500 4007.00 4020.12 63.00
685 10.8600 3991.00 4019.86 63.00
686 10.8700 4011.00 4019.64 63.00
687 10.8800 3995.00 4019.45 63.00
688 10.8900 4029.00 4019.29 63.00
689 10.9000 4038.00 4019.17 64.00
690 10.9100 4032.00 4019.07 63.00
691 10.9200 3983.00 4019.01 63.00
692 10.9300 3990.00 4018.98 63.00
693 10.9400 3978.00 4018.99 63.00
694 10.9500 4004.00 4019.02 63.00
695 10.9600 3965.00 4019.08 63.00
696 10.9700 3971.00 4019.17 63.00
697 10.9800 3977.00 4019.29 63.00
698 10.9900 3966.00 4019.44 63.00
699 11.0000 3983.00 4019.62 63.00
700 11.0100 3995.00 4019.83 63.00
701 11.0200 3962.00 4020.07 63.00
702 11.0300 3959.00 4020.33 63.00
703 11.0400 3984.00 4020.63 63.00
704 11.0500 3985.00 4020.96 63.00
705 11.0600 3971.00 4021.32 63.00
706 11.0700 3982.00 4021.70 63.00
707 11.0800 3952.00 4022.12 63.00
708 11.0900 3935.00 4022.57 63.00
709 11.1000 3959.00 4023.06 63.00
710 11.1100 3954.00 4001.67 63.00
711 11.1200 3983.00 4002.54 63.00
712 11.1300 3980.00 4003.43 63.00
713 11.1400 3988.00 4004.35 63.00
714 11.1500 3959.00 4005.30 63.00
715 11.1600 3953.00 4006.28 63.00
716 11.1700 3942.00 4007.29 63.00
717 11.1800 3969.00 3998.46 63.00
718 11.1900 3965.00 3999.69 63.00
719 11.2000 3982.00 4000.94 63.00
720 11.2100 3955.00 4002.24 63.00
721 11.2200 3972.00 4006.73 63.00
722 11.2300 3942.00 4008.12 63.00
723 11.2400 3927.00 4009.56 63.00
724 11.2500 3958.00 4011.03 63.00
725 11.2600 3965.00 4012.55 63.00
726 11.2700 3933.00 4014.12 63.00
727 11.2800 3957.00 4015.28 63.00
728 11.2900 3935.00 4016.50 63.00
729 11.3000 3968.00 4017.77 63.00
730 11.3100 3943.00 4019.10 63.00
731 11.3200 3954.00 4020.50 63.00
732 11.3300 3927.00 4021.96 63.00
733 11.3400 3945.00 4023.49 63.00
734 11.3500 3941.00 4025.10 63.00
735 11.3600 3956.00 4026.79 63.00
736 11.3700 4003.00 4028.56 63.00
737 11.3800 3992.00 4030.43 63.00
738 11.3900 3977.00 4032.40 63.00
739 11.4000 3976.00 4034.47 63.00
740 11.4100 3956.00 4036.65 63.00
741 11.4200 3982.00 4038.95 63.00
742 11.4300 3977.00 4041.38 63.00
743 11.4400 3984.00 4043.95 63.00
744 11.4500 3939.00 4046.67 63.00
745 11.4600 3993.00 4049.55 63.00
746 11.4700 3986.00 4052.56 63.00
747 11.4800 3968.00 4055.80 63.00
748 11.4900 4000.00 4059.24 63.00
749 11.5000 3997.00 4062.90 63.00
750 11.5100 3980.00 4066.79 63.00
751 11.5200 4014.00 4070.95 63.00
752 11.5300 3998.00 4075.38 63.00
753 11.5400 3996.00 4080.12 63.00
754 11.5500 4018.00 4085.19 63.00
755 11.5600 4031.00 4090.64 63.00
756 11.5700 4029.00 4096.48 63.00
757 11.5800 4013.00 4102.77 63.00
758 11.5900 4011.00 4109.55 63.00
759 11.6000 4005.00 4116.87 63.00
760 11.6100 4081.00 4124.78 64.00
761 11.6200 4057.00 4133.37 64.00
762 11.6300 4041.00 4142.70 64.00
763 11.6400 4089.00 4152.86 64.00
764 11.6500 4090.00 4163.95 64.00
765 11.6600 4080.00 4176.10 64.00
766 11.6700 4137.00 4189.44 64.00
767 11.6800 4104.00 4204.14 64.00
768 11.6900 4141.00 4220.37 64.00
769 11.7000 4139.00 4238.38 64.00
770 11.7100 4175.00 4258.43 65.00
771 11.7200 4191.00 4280.85 65.00
772 11.7300 4237.00 4306.04 65.00
773 11.7400 4239.00 4334.49 65.00
774 11.7500 4249.00 4366.81 65.00
775 11.7600 4293.00 4403.80 66.00
776 11.7700 4314.00 4446.61 66.00
777 11.7800 4387.00 4497.08 66.00
778 11.7900 4448.00 4558.60 67.00
779 11.8000 4518.00 4637.21 67.00
780 11.8100 4571.00 4741.86 68.00
781 11.8200 4732.00 4881.62 69.00
782 11.8300 4828.00 5059.11 69.00
783 11.8400 5042.00 5261.37 71.00
784 11.8500 5239.00 5454.19 72.00
785 11.8600 5359.00 5614.12 73.00
786 11.8700 5532.00 5780.90 74.00
787 11.8800 5816.00 6023.14 76.00
788 11.8900 6219.00 6410.85 79.00
789 11.9000 7021.00 7042.51 84.00
790 11.9100 8221.00 8093.41 91.00
791 11.9200 10242.00 9888.10 101.00
792 11.9300 13485.00 13024.10 116.00
793 11.9400 19104.00 18507.70 138.00
794 11.9500 27647.00 27578.60 166.00
795 11.9600 40653.00 40820.60 202.00
796 11.9700 57415.00 57012.40 240.00
797 11.9800 71673.00 71203.40 268.00
798 11.9900 73980.00 73773.70 272.00
799 12.0000 62854.00 61451.10 251.00
800 12.0100 43816.00 43403.70 209.00
801 12.0200 27596.00 27854.60 166.00
802 12.0300 17394.00 17532.00 132.00
803 12.0400 11806.00 11816.70 109.00
804 12.0500 8769.00 8973.54 94.00
805 12.0600 7142.00 7545.98 85.00
806 12.0700 6189.00 6735.86 79.00
807 12.0800 5629.00 6202.61 75.00
808 12.0900 5284.00 5816.36 73.00
809 12.1000 5030.00 5522.95 71.00
810 12.1100 4822.00 5294.15 69.00
811 12.1200 4708.00 5112.31 69.00
812 12.1300 4631.00 4965.53 68.00
813 12.1400 4548.00 4845.42 67.00
814 12.1500 4476.00 4745.96 67.00
815 12.1600 4462.00 4662.69 67.00
816 12.1700 4376.00 4592.32 66.00
817 12.1800 4334.00 4532.35 66.00
818 12.1900 4318.00 4480.85 66.00
819 12.2000 4310.00 4436.30 66.00
820 12.2100 4301.00 4397.53 66.00
821 12.2200 4299.00 4363.59 66.00
822 12.2300 4222.00 4333.74 65.00
823 12.2400 4206.00 4307.34 65.00
824 12.2500 4210.00 4283.91 65.00
825 12.2600 4182.00 4263.03 65.00
826 12.2700 4219.00 4244.35 65.00
827 12.2800 4177.00 4227.58 65.00
828 12.2900 4178.00 4212.50 65.00
829 12.3000 4164.00 4198.88 65.00
830 12.3100 4127.00 4186.56 64.00
831 12.3200 4173.00 4175.38 65.00
832 12.3300 4158.00 4165.24 64.00
833 12.3400 4155.00 4156.00 64.00
834 12.3500 4137.00 4147.58 64.00
835 12.3600 4130.00 4139.91 64.00
836 12.3700 4104.00 4132.90 64.00
837 12.3800 4144.00 4127.50 64.00
838 12.3900 4120.00 4121.66 64.00
839 12.4000 4117.00 4116.32 64.00
840 12.4100 4073.00 4111.43 64.00
841 12.4200 4073.00 4106.97 64.00
842 12.4300 4074.00 4102.90 64.00
843 12.4400 4138.00 4099.20 64.00
844 12.4500 4120.00 4095.82 64.00
845 12.4600 4100.00 4092.76 64.00
846 12.4700 4088.00 4090.00 64.00
847 12.4800 4096.00 4087.51 64.00
848 12.4900 4090.00 4085.28 64.00
849 12.5000 4089.00 4083.30 64.00
850 12.5100 4133.00 4081.55 64.00
851 12.5200 4096.00 4080.03 64.00
852 12.5300 4071.00 4078.72 64.00
853 12.5400 4082.00 4077.62 64.00
854 12.5500 4077.00 4076.72 64.00
855 12.5600 4098.00 4076.02 64.00
856 12.5700 4124.00 4075.52 64.00
857 12.5800 4123.00 4075.20 64.00
858 12.5900 4054.00 4075.07 64.00
859 12.6000 4084.00 4075.12 64.00
860 12.6100 4071.00 4075.36 64.00
861 12.6200 4087.00 4075.79 64.00
862 12.6300 4077.00 4076.41 64.00
863 12.6400 4086.00 4077.23 64.00
864 12.6500 4041.00 4078.23 64.00
865 12.6600 4058.00 4079.44 64.00
866 12.6700 4068.00 4080.86 64.00
867 12.6800 4090.00 4082.50 64.00
868 12.6900 4139.00 4084.35 64.00
869 12.7000 4100.00 4086.45 64.00
870 12.7100 4075.00 4088.79 64.00
871 12.7200 4122.00 4091.39 64.00
872 12.7300 4072.00 4094.27 64.00
873 12.7400 4099.00 4097.44 64.00
874 12.7500 4084.00 4100.93 64.00
875 12.7600 4106.00 4104.76 64.00
876 12.7700 4092.00 4108.96 64.00
877 12.7800 4140.00 4113.55 64.00
878 12.7900 4108.00 4118.57 64.00
879 12.8000 4157.00 4124.06 64.00
880 12.8100 4162.00 4130.08 65.00
881 12.8200 4188.00 4136.65 65.00
882 12.8300 4165.00 4143.86 65.00
883 12.8400 4183.00 4151.77 65.00
884 12.8500 4160.00 4160.45 64.00
885 12.8600 4205.00 4170.00 65.00
886 12.8700 4195.00 4180.54 65.00
887 12.8800 4196.00 4192.18 65.00
888 12.8900 4179.00 4205.08 65.00
889 12.9000 4201.00 4219.41 65.00
890 12.9100 4212.00 4235.40 65.00
891 12.9200 4268.00 4253.29 65.00
892 12.9300 4283.00 4273.39 65.00
893 12.9400 4301.00 4296.07 66.00
894 12.9500 4259.00 4321.81 65.00
895 12.9600 4295.00 4351.15 66.00
896 12.9700 4311.00 4384.83 66.00
897 12.9800 4369.00 4423.76 66.00
898 12.9900 4462.00 4469.18 67.00
899 13.0000 4486.00 4522.86 67.00
900 13.0100 4509.00 4587.52 67.00
901 13.0200 4651.00 4667.74 68.00
902 13.0300 4730.00 4771.46 69.00
903 13.0400 4886.00 4912.65 70.00
904 13.0500 5154.00 5114.77 72.00
905 13.0600 5392.00 5414.62 73.00
906 13.0700 5799.00 5864.49 76.00
907 13.0800 6428.00 6529.97 80.00
908 13.0900 7244.00 7479.56 85.00
909 13.1000 8431.00 8765.73 92.00
910 13.1100 10051.00 10398.00 100.00
911 13.1200 11958.00 12313.50 109.00
912 13.1300 14105.00 14339.90 119.00
913 13.1400 16139.00 16160.30 127.00
914 13.1500 17381.00 17325.20 132.00
915 13.1600 17445.00 17439.30 132.00
916 13.1700 16214.00 16463.50 127.00
917 13.1800 14282.00 14752.10 120.00
918 13.1900 12153.00 12765.20 110.00
919 13.2000 10377.00 10847.10 102.00
920 13.2100 8935.00 9193.25 95.00
921 13.2200 7899.00 7883.90 89.00
922 13.2300 7165.00 6920.67 85.00
923 13.2400 6616.00 6257.65 81.00
924 13.2500 6166.00 5829.74 79.00
925 13.2600 5939.00 5573.59 77.00
926 13.2700 5735.00 5440.54 76.00
927 13.2800 5766.00 5401.73 76.00
928 13.2900 5785.00 5448.28 76.00
929 13.3000 5898.00 5588.82 77.00
930 13.3100 6106.00 5844.95 78.00
931 13.3200 6504.00 6244.09 81.00
932 13.3300 6989.00 6812.24 84.00
933 13.3400 7782.00 7549.29 88.00
934 13.3500 8759.00 8431.00 94.00
935 13.3600 9683.00 9381.11 98.00
936 13.3700 10611.00 10256.50 103.00
937 13.3800 11266.00 10850.50 106.00
938 13.3900 11130.00 10977.80 105.00
939 13.4000 10556.00 10618.80 103.00
940 13.4100 9718.00 9942.67 99.00
941 13.4200 8851.00 9175.58 94.00
942 13.4300 8224.00 8499.30 91.00
943 13.4400 8015.00 8043.86 90.00
944 13.4500 8073.00 7915.26 90.00
945 13.4600 8579.00 8223.71 93.00
946 13.4700 9513.00 9099.03 98.00
947 13.4800 10985.00 10681.60 105.00
948 13.4900 13136.00 13081.10 115.00
949 13.5000 16161.00 16299.50 127.00
950 13.5100 19881.00 20127.30 141.00
951 13.5200 24029.00 24056.30 155.00
952 13.5300 27339.00 27126.30 165.00
953 13.5400 28324.00 28183.00 168.00
954 13.5500 26714.00 26729.10 163.00
955 13.5600 23321.00 23454.50 153.00
956 13.5700 19051.00 19532.30 138.00
957 13.5800 15232.00 15853.10 123.00
958 13.5900 12436.00 12918.50 112.00
959 13.6000 10730.00 10986.40 104.00
960 13.6100 9939.00 10206.00 100.00
961 13.6200 10364.00 10658.80 102.00
962 13.6300 11900.00 12259.90 109.00
963 13.6400 14247.00 14530.50 119.00
964 13.6500 15973.00 16284.50 126.00
965 13.6600 15746.00 15989.70 125.00
966 13.6700 13487.00 13683.10 116.00
967 13.6800 10613.00 10839.80 103.00
968 13.6900 8139.00 8475.78 90.00
969 13.7000 6625.00 6880.31 81.00
970 13.7100 5716.00 5945.08 76.00
971 13.7200 5263.00 5432.92 73.00
972 13.7300 4943.00 5143.94 70.00
973 13.7400 4789.00 4961.90 69.00
974 13.7500 4661.00 4833.08 68.00
975 13.7600 4625.00 4734.99 68.00
976 13.7700 4600.00 4657.59 68.00
977 13.7800 4522.00 4595.51 67.00
978 13.7900 4498.00 4545.36 67.00
979 13.8000 4478.00 4504.86 67.00
980 13.8100 4448.00 4472.47 67.00
981 13.8200 4454.00 4447.15 67.00
982 13.8300 4479.00 4428.29 67.00
983 13.8400 4467.00 4415.66 67.00
984 13.8500 4449.00 4409.39 67.00
985 13.8600 4487.00 4416.61 67.00
986 13.8700 4505.00 4425.74 67.00
987 13.8800 4556.00 4444.46 67.00
988 13.8900 4623.00 4477.04 68.00
989 13.9000 4720.00 4532.14 69.00
990 13.9100 4768.00 4631.07 69.00
991 13.9200 5000.00 4823.02 71.00
992 13.9300 5401.00 5201.77 73.00
993 13.9400 6095.00 5898.27 78.00
994 13.9500 7229.00 7014.80 85.00
995 13.9600 8628.00 8493.00 93.00
996 13.9700 9947.00 9932.79 100.00
997 13.9800 10546.00 10512.30 103.00
998 13.9900 9850.00 9756.10 99.00
999 14.0000 8552.00 8294.12 92.00
1000 14.0100 7132.00 6899.55 84.00
1001 14.0200 6160.00 5900.36 78.00
1002 14.0300 5548.00 5312.18 74.00
1003 14.0400 5218.00 5011.05 72.00
1004 14.0500 5021.00 4856.20 71.00
1005 14.0600 4900.00 4750.85 70.00
1006 14.0700 4794.00 4652.27 69.00
1007 14.0800 4703.00 4553.74 69.00
1008 14.0900 4551.00 4460.98 67.00
1009 14.1000 4499.00 4379.55 67.00
1010 14.1100 4396.00 4312.11 66.00
1011 14.1200 4398.00 4258.81 66.00
1012 14.1300 4380.00 4218.16 66.00
1013 14.1400 4361.00 4187.80 66.00
1014 14.1500 4318.00 4165.19 66.00
1015 14.1600 4297.00 4148.09 66.00
1016 14.1700 4310.00 4134.79 66.00
1017 14.1800 4295.00 4124.11 66.00
1018 14.1900 4316.00 4115.29 66.00
1019 14.2000 4296.00 4107.83 66.00
1020 14.2100 4254.00 4101.45 65.00
1021 14.2200 4269.00 4095.95 65.00
1022 14.2300 4196.00 4091.21 65.00
1023 14.2400 4246.00 4087.13 65.00
1024 14.2500 4291.00 4083.65 66.00
1025 14.2600 4247.00 4080.72 65.00
1026 14.2700 4255.00 4078.33 65.00
1027 14.2800 4248.00 4076.49 65.00
1028 14.2900 4255.00 4075.23 65.00
1029 14.3000 4252.00 4074.68 65.00
1030 14.3100 4283.00 4075.10 65.00
1031 14.3200 4261.00 4076.98 65.00
1032 14.3300 4263.00 4081.13 65.00
1033 14.3400 4285.00 4088.80 65.00
1034 14.3500 4299.00 4101.55 66.00
1035 14.3600 4353.00 4120.94 66.00
1036 14.3700 4379.00 4147.90 66.00
1037 14.3800 4416.00 4181.86 66.00
1038 14.3900 4413.00 4219.76 66.00
1039 14.4000 4456.00 4254.75 67.00
1040 14.4100 4455.00 4276.08 67.00
1041 14.4200 4466.00 4274.31 67.00
1042 14.4300 4474.00 4250.11 67.00
1043 14.4400 4424.00 4213.58 67.00
1044 14.4500 4339.00 4175.13 66.00
1045 14.4600 4320.00 4140.66 66.00
1046 14.4700 4283.00 4113.34 65.00
1047 14.4800 4314.00 4093.50 66.00
1048 14.4900 4314.00 4080.09 66.00
1049 14.5000 4301.00 4071.53 66.00
1050 14.5100 4271.00 4066.25 65.00
1051 14.5200 4303.00 4063.07 66.00
1052 14.5300 4247.00 4061.19 65.00
1053 14.5400 4283.00 4060.13 65.00
1054 14.5500 4284.00 4059.64 65.00
1055 14.5600 4291.00 4066.41 66.00
1056 14.5700 4255.00 4066.81 65.00
1057 14.5800 4258.00 4067.55 65.00
1058 14.5900 4279.00 4068.62 65.00
1059 14.6000 4304.00 4070.03 66.00
1060 14.6100 4320.00 4071.77 66.00
1061 14.6200 4306.00 4073.88 66.00
1062 14.6300 4280.00 4076.38 65.00
1063 14.6400 4317.00 4079.33 66.00
1064 14.6500 4303.00 4082.77 66.00
1065 14.6600 4289.00 4086.80 65.00
1066 14.6700 4325.00 4091.53 66.00
1067 14.6800 4345.00 4097.10 66.00
1068 14.6900 4316.00 4103.73 66.00
1069 14.7000 4317.00 4111.74 66.00
1070 14.7100 4350.00 4121.56 66.00
1071 14.7200 4352.00 4133.99 66.00
1072 14.7300 4404.00 4150.67 66.00
1073 14.7400 4416.00 4175.91 66.00
1074 14.7500 4446.00 4220.72 67.00
1075 14.7600 4568.00 4308.13 68.00
1076 14.7700 4698.00 4472.16 69.00
1077 14.7800 4941.00 4737.16 70.00
1078 14.7900 5288.00 5076.18 73.00
1079 14.8000 5527.00 5358.88 74.00
1080 14.8100 5461.00 5377.50 74.00
1081 14.8200 5275.00 5125.35 73.00
1082 14.8300 4954.00 4808.78 70.00
1083 14.8400 4717.00 4564.36 69.00
1084 14.8500 4600.00 4423.13 68.00
1085 14.8600 4584.00 4362.77 68.00
1086 14.8700 4531.00 4350.10 67.00
1087 14.8800 4563.00 4362.85 68.00
1088 14.8900 4585.00 4391.80 68.00
1089 14.9000 4670.00 4436.36 68.00
1090 14.9100 4772.00 4502.11 69.00
1091 14.9200 4896.00 4601.67 70.00
1092 14.9300 5006.00 4757.51 71.00
1093 14.9400 5295.00 5004.07 73.00
1094 14.9500 5630.00 5385.37 75.00
1095 14.9600 6295.00 5944.17 79.00
1096 14.9700 7084.00 6702.96 84.00
1097 14.9800 8063.00 7636.49 90.00
1098 14.9900 9118.00 8638.64 95.00
1099 15.0000 10098.00 9485.07 100.00
1100 15.0100 10264.00 9873.42 101.00
1101 15.0200 9859.00 9664.77 99.00
1102 15.0300 9071.00 9061.68 95.00
1103 15.0400 8281.00 8403.59 91.00
1104 15.0500 7784.00 7934.40 88.00
1105 15.0600 7703.00 7765.20 88.00
1106 15.0700 7976.00 7900.07 89.00
1107 15.0800 8491.00 8254.71 92.00
1108 15.0900 9127.00 8664.65 96.00
1109 15.1000 9279.00 8907.99 96.00
1110 15.1100 8927.00 8801.72 94.00
1111 15.1200 8270.00 8334.08 91.00
1112 15.1300 7436.00 7652.44 86.00
1113 15.1400 6663.00 6924.99 82.00
1114 15.1500 6088.00 6263.34 78.00
1115 15.1600 5634.00 5721.27 75.00
1116 15.1700 5317.00 5313.00 73.00
1117 15.1800 5124.00 5028.94 72.00
1118 15.1900 5004.00 4848.50 71.00
1119 15.2000 4934.00 4751.11 70.00
1120 15.2100 4939.00 4722.33 70.00
1121 15.2200 4991.00 4754.19 71.00
1122 15.2300 5010.00 4840.23 71.00
1123 15.2400 5127.00 4967.10 72.00
1124 15.2500 5276.00 5103.36 73.00
1125 15.2600 5368.00 5190.75 73.00
1126 15.2700 5358.00 5170.98 73.00
1127 15.2800 5198.00 5056.55 72.00
1128 15.2900 5044.00 4907.83 71.00
1129 15.3000 4919.00 4774.23 70.00
1130 15.3100 4821.00 4677.29 69.00
1131 15.3200 4775.00 4620.52 69.00
1132 15.3300 4804.00 4598.16 69.00
1133 15.3400 4813.00 4601.81 69.00
1134 15.3500 4761.00 4624.45 69.00
1135 15.3600 4812.00 4661.99 69.00
1136 15.3700 4856.00 4713.08 70.00
1137 15.3800 4947.00 4778.41 70.00
1138 15.3900 5031.00 4860.19 71.00
1139 15.4000 5116.00 4961.96 72.00
1140 15.4100 5187.00 5088.95 72.00
1141 15.4200 5347.00 5248.60 73.00
1142 15.4300 5549.00 5451.70 74.00
1143 15.4400 5882.00 5715.15 77.00
1144 15.4500 6310.00 6068.96 79.00
1145 15.4600 6904.00 6576.23 83.00
1146 15.4700 7808.00 7380.54 88.00
1147 15.4800 9451.00 8792.51 97.00
1148 15.4900 12042.00 11378.40 110.00
1149 15.5000 16570.00 15920.40 129.00
1150 15.5100 23628.00 23085.20 154.00
1151 15.5200 33276.00 32734.90 182.00
1152 15.5300 42790.00 42923.60 207.00
1153 15.5400 48492.00 48942.70 220.00
1154 15.5500 46196.00 46306.40 215.00
1155 15.5600 37419.00 37174.70 193.00
1156 15.5700 26682.00 26960.30 163.00
1157 15.5800 18188.00 18720.80 135.00
1158 15.5900 12809.00 13194.30 113.00
1159 15.6000 9766.00 9940.05 99.00
1160 15.6100 7957.00 8143.58 89.00
1161 15.6200 6907.00 7121.13 83.00
1162 15.6300 6177.00 6472.86 79.00
1163 15.6400 5691.00 6014.89 75.00
1164 15.6500 5353.00 5670.98 73.00
1165 15.6600 5120.00 5406.69 72.00
1166 15.6700 4946.00 5202.36 70.00
1167 15.6800 4841.00 5043.85 70.00
1168 15.6900 4806.00 4920.28 69.00
1169 15.7000 4714.00 4823.27 69.00
1170 15.7100 4685.00 4746.76 68.00
1171 15.7200 4616.00 4686.65 68.00
1172 15.7300 4622.00 4640.30 68.00
1173 15.7400 4628.00 4606.35 68.00
1174 15.7500 4643.00 4584.76 68.00
1175 15.7600 4631.00 4577.49 68.00
1176 15.7700 4651.00 4590.04 68.00
1177 15.7800 4763.00 4632.33 69.00
1178 15.7900 4830.00 4728.02 69.00
1179 15.8000 5005.00 4903.86 71.00
1180 15.8100 5315.00 5190.07 73.00
1181 15.8200 5699.00 5601.88 75.00
1182 15.8300 6204.00 6118.96 79.00
1183 15.8400 6748.00 6651.48 82.00
1184 15.8500 7147.00 7012.30 85.00
1185 15.8600 7214.00 6996.55 85.00
1186 15.8700 6854.00 6604.39 83.00
1187 15.8800 6261.00 6048.63 79.00
1188 15.8900 5684.00 5511.06 75.00
1189 15.9000 5239.00 5078.72 72.00
1190 15.9100 4876.00 4770.86 70.00
1191 15.9200 4693.00 4570.99 69.00
1192 15.9300 4608.00 4447.86 68.00
1193 15.9400 4521.00 4372.96 67.00
1194 15.9500 4413.00 4325.63 66.00
1195 15.9600 4423.00 4293.59 67.00
1196 15.9700 4413.00 4270.45 66.00
1197 15.9800 4380.00 4253.00 66.00
1198 15.9900 4389.00 4238.83 66.00
1199 16.0000 4376.00 4228.61 66.00
1200 16.0100 4335.00 4220.97 66.00
1201 16.0200 4340.00 4215.54 66.00
1202 16.0300 4368.00 4212.05 66.00
1203 16.0400 4354.00 4210.36 66.00
1204 16.0500 4389.00 4210.40 66.00
1205 16.0600 4372.00 4212.15 66.00
1206 16.0700 4361.00 4215.70 66.00
1207 16.0800 4328.00 4221.21 66.00
1208 16.0900 4351.00 4228.94 66.00
1209 16.1000 4367.00 4239.32 66.00
1210 16.1100 4421.00 4253.00 66.00
1211 16.1200 4432.00 4271.13 67.00
1212 16.1300 4414.00 4296.00 66.00
1213 16.1400 4478.00 4332.79 67.00
1214 16.1500 4549.00 4392.85 67.00
1215 16.1600 4639.00 4497.61 68.00
1216 16.1700 4839.00 4677.86 70.00
1217 16.1800 5111.00 4961.64 71.00
1218 16.1900 5468.00 5347.05 74.00
1219 16.2000 5821.00 5761.76 76.00
1220 16.2100 6078.00 6023.36 78.00
1221 16.2200 6078.00 5965.74 78.00
1222 16.2300 5880.00 5699.19 77.00
1223 16.2400 5652.00 5459.71 75.00
1224 16.2500 5488.00 5386.52 74.00
1225 16.2600 5711.00 5518.32 76.00
1226 16.2700 5935.00 5815.72 77.00
1227 16.2800 6286.00 6158.30 79.00
1228 16.2900 6486.00 6342.71 81.00
1229 16.3000 6397.00 6223.36 80.00
1230 16.3100 6053.00 5895.46 78.00
1231 16.3200 5703.00 5545.22 76.00
1232 16.3300 5346.00 5278.82 73.00
1233 16.3400 5174.00 5128.90 72.00
1234 16.3500 5167.00 5092.12 72.00
1235 16.3600 5205.00 5157.93 72.00
1236 16.3700 5319.00 5328.92 73.00
1237 16.3800 5585.00 5631.41 75.00
1238 16.3900 6000.00 6116.82 77.00
1239 16.4000 6641.00 6853.08 81.00
1240 16.4100 7617.00 7905.54 87.00
1241 16.4200 8976.00 9309.13 95.00
1242 16.4300 10712.00 11029.90 103.00
1243 16.4400 12803.00 12919.90 113.00
1244 16.4500 14832.00 14656.50 122.00
1245 16.4600 16054.00 15740.50 127.00
1246 16.4700 16006.00 15735.80 127.00
1247 16.4800 14601.00 14669.00 121.00
1248 16.4900 12648.00 13010.50 112.00
1249 16.5000 10821.00 11268.80 104.00
1250 16.5100 9415.00 9771.70 97.00
1251 16.5200 8502.00 8671.84 92.00
1252 16.5300 7973.00 7997.31 89.00
1253 16.5400 7807.00 7683.17 88.00
1254 16.5500 7707.00 7590.50 88.00
1255 16.5600 7668.00 7525.35 88.00
1256 16.5700 7311.00 7318.27 86.00
1257 16.5800 6858.00 6945.17 83.00
1258 16.5900 6349.00 6504.93 80.00
1259 16.6000 5946.00 6096.88 77.00
1260 16.6100 5615.00 5773.51 75.00
1261 16.6200 5482.00 5551.38 74.00
1262 16.6300 5347.00 5426.21 73.00
1263 16.6400 5346.00 5385.12 73.00
1264 16.6500 5486.00 5416.64 74.00
1265 16.6600 5654.00 5518.82 75.00
1266 16.6700 5855.00 5706.19 77.00
1267 16.6800 6231.00 6016.62 79.00
1268 16.6900 6753.00 6518.42 82.00
1269 16.7000 7601.00 7312.52 87.00
1270 16.7100 8767.00 8523.91 94.00
1271 16.7200 10378.00 10273.20 102.00
1272 16.7300 12447.00 12628.50 112.00
1273 16.7400 15218.00 15537.00 123.00
1274 16.7500 18235.00 18741.30 135.00
1275 16.7600 21219.00 21667.30 146.00
1276 16.7700 23043.00 23417.20 152.00
1277 16.7800 22905.00 23230.20 151.00
1278 16.7900 20862.00 21197.00 144.00
1279 16.8000 17913.00 18154.50 134.00
1280 16.8100 14570.00 14950.50 121.00
1281 16.8200 11729.00 12098.70 108.00
1282 16.8300 9518.00 9819.55 98.00
1283 16.8400 7910.00 8139.83 89.00
1284 16.8500 6774.00 6978.80 82.00
1285 16.8600 6036.00 6210.22 78.00
1286 16.8700 5494.00 5710.00 74.00
1287 16.8800 5181.00 5379.43 72.00
1288 16.8900 4929.00 5151.35 70.00
1289 16.9000 4768.00 4984.78 69.00
1290 16.9100 4639.00 4856.56 68.00
1291 16.9200 4477.00 4753.84 67.00
1292 16.9300 4414.00 4669.38 66.00
1293 16.9400 4387.00 4598.71 66.00
1294 16.9500 4363.00 4538.90 66.00
1295 16.9600 4273.00 4487.79 65.00
1296 16.9700 4252.00 4443.75 65.00
1297 16.9800 4258.00 4405.56 65.00
1298 16.9900 4220.00 4372.22 65.00
1299 17.0000 4213.00 4342.96 65.00
1300 17.0100 4191.00 4317.13 65.00
1301 17.0200 4177.00 4294.22 65.00
1302 17.0300 4179.00 4273.81 65.00
1303 17.0400 4152.00 4255.56 64.00
1304 17.0500 4118.00 4239.17 64.00
1305 17.0600 4130.00 4224.39 64.00
1306 17.0700 4149.00 4211.03 64.00
1307 17.0800 4107.00 4198.92 64.00
1308 17.0900 4063.00 4187.91 64.00
1309 17.1000 4075.00 4177.86 64.00
1310 17.1100 4040.00 4168.68 64.00
1311 17.1200 4071.00 4160.28 64.00
1312 17.1300 4086.00 4152.56 64.00
1313 17.1400 4069.00 4145.47 64.00
1314 17.1500 4064.00 4138.93 64.00
1315 17.1600 4044.00 4132.90 64.00
1316 17.1700 4038.00 4127.33 64.00
1317 17.1800 4100.00 4122.18 64.00
1318 17.1900 4063.00 4117.41 64.00
1319 17.2000 4053.00 4112.99 64.00
1320 17.2100 4012.00 4108.88 63.00
1321 17.2200 4049.00 4104.21 64.00
1322 17.2300 3999.00 4100.67 63.00
1323 17.2400 4013.00 4090.98 63.00
1324 17.2500 4017.00 4088.00 63.00
1325 17.2600 4020.00 4085.24 63.00
1326 17.2700 4019.00 4082.68 63.00
1327 17.2800 3993.00 4080.30 63.00
1328 17.2900 3984.00 4078.10 63.00
1329 17.3000 4008.00 4076.06 63.00
1330 17.3100 4039.00 4075.84 64.00
1331 17.3200 4008.00 4074.12 63.00
1332 17.3300 3987.00 4072.54 63.00
1333 17.3400 3997.00 4071.09 63.00
1334 17.3500 3998.00 4069.77 63.00
1335 17.3600 4028.00 4068.57 63.00
1336 17.3700 4020.00 4067.49 63.00
1337 17.3800 3990.00 4066.52 63.00
1338 17.3900 3955.00 4065.66 63.00
1339 17.4000 3960.00 4064.91 63.00
1340 17.4100 3974.00 4064.28 63.00
1341 17.4200 3931.00 4063.75 63.00
1342 17.4300 3965.00 4065.15 63.00
1343 17.4400 3990.00 4064.87 63.00
1344 17.4500 3927.00 4064.71 63.00
1345 17.4600 3944.00 4064.68 63.00
1346 17.4700 3969.00 4064.79 63.00
1347 17.4800 3950.00 4065.07 63.00
1348 17.4900 3979.00 4065.79 63.00
1349 17.5000 3965.00 4066.79 63.00
1350 17.5100 3952.00 4068.20 63.00
1351 17.5200 3953.00 4070.31 63.00
1352 17.5300 3994.00 4073.59 63.00
1353 17.5400 3983.00 4078.61 63.00
1354 17.5500 3980.00 4085.78 63.00
1355 17.5600 4009.00 4094.90 63.00
1356 17.5700 3948.00 4104.38 63.00
1357 17.5800 3962.00 4110.62 63.00
1358 17.5900 3962.00 4109.82 63.00
1359 17.6000 3946.00 4104.92 63.00
1360 17.6100 4014.00 4099.38 63.00
1361 17.6200 4005.00 4095.61 63.00
1362 17.6300 3934.00 4094.32 63.00
1363 17.6400 3949.00 4095.35 63.00
1364 17.6500 3935.00 4098.28 63.00
1365 17.6600 3993.00 4102.75 63.00
1366 17.6700 4010.00 4108.61 63.00
1367 17.6800 4000.00 4115.96 63.00
1368 17.6900 4015.00 4125.14 63.00
1369 17.7000 4022.00 4136.80 63.00
1370 17.7100 4002.00 4152.20 63.00
1371 17.7200 4027.00 4173.71 63.00
1372 17.7300 4094.00 4205.66 64.00
1373 17.7400 4137.00 4255.23 64.00
1374 17.7500 4184.00 4332.87 65.00
1375 17.7600 4317.00 4451.05 66.00
1376 17.7700 4490.00 4620.74 67.00
1377 17.7800 4752.00 4845.14 69.00
1378 17.7900 5071.00 5111.30 71.00
1379 17.8000 5350.00 5377.46 73.00
1380 17.8100 5581.00 5563.51 75.00
1381 17.8200 5617.00 5582.16 75.00
1382 17.8300 5398.00 5424.28 73.00
1383 17.8400 5109.00 5170.02 71.00
1384 17.8500 4797.00 4904.67 69.00
1385 17.8600 4542.00 4677.13 67.00
1386 17.8700 4356.00 4504.27 66.00
1387 17.8800 4241.00 4384.33 65.00
1388 17.8900 4188.00 4307.63 65.00
1389 17.9000 4123.00 4261.82 64.00
1390 17.9100 4100.00 4236.22 64.00
1391 17.9200 4094.00 4223.40 64.00
1392 17.9300 4054.00 4219.12 64.00
1393 17.9400 4088.00 4221.56 64.00
1394 17.9500 4091.00 4230.75 64.00
1395 17.9600 4099.00 4248.46 64.00
1396 17.9700 4119.00 4278.55 64.00
1397 17.9800 4149.00 4327.44 64.00
1398 17.9900 4230.00 4404.29 65.00
1399 18.0000 4380.00 4520.26 66.00
1400 18.0100 4483.00 4685.73 67.00
1401 18.0200 4764.00 4905.57 69.00
1402 18.0300 5077.00 5173.08 71.00
1403 18.0400 5376.00 5467.42 73.00
1404 18.0500 5680.00 5748.26 75.00
1405 18.0600 5956.00 5944.83 77.00
1406 18.0700 5943.00 5974.90 77.00
1407 18.0800 5782.00 5816.86 76.00
1408 18.0900 5391.00 5536.74 73.00
1409 18.1000 5060.00 5223.09 71.00
1410 18.1100 4700.00 4935.42 69.00
1411 18.1200 4488.00 4700.35 67.00
1412 18.1300 4322.00 4523.71 66.00
1413 18.1400 4235.00 4399.51 65.00
1414 18.1500 4168.00 4317.61 65.00
1415 18.1600 4101.00 4263.24 64.00
1416 18.1700 4042.00 4227.55 64.00
1417 18.1800 4035.00 4203.36 64.00
1418 18.1900 4012.00 4186.13 63.00
1419 18.2000 3984.00 4173.25 63.00
1420 18.2100 4007.00 4163.23 63.00
1421 18.2200 4002.00 4155.24 63.00
1422 18.2300 3979.00 4148.79 63.00
1423 18.2400 3985.00 4143.55 63.00
1424 18.2500 3970.00 4139.28 63.00
1425 18.2600 3944.00 4135.82 63.00
1426 18.2700 3997.00 4133.02 63.00
1427 18.2800 3953.00 4130.80 63.00
1428 18.2900 3955.00 4129.06 63.00
1429 18.3000 3990.00 4127.74 63.00
1430 18.3100 3974.00 4126.81 63.00
1431 18.3200 3996.00 4126.22 63.00
1432 18.3300 4020.00 4125.95 63.00
1433 18.3400 3995.00 4125.98 63.00
1434 18.3500 3965.00 4126.31 63.00
1435 18.3600 3985.00 4126.94 63.00
1436 18.3700 4009.00 4127.88 63.00
1437 18.3800 4019.00 4129.17 63.00
1438 18.3900 4014.00 4130.85 63.00
1439 18.4000 3998.00 4132.99 63.00
1440 18.4100 3995.00 4135.72 63.00
1441 18.4200 4013.00 4139.25 63.00
1442 18.4300 4013.00 4143.99 63.00
1443 18.4400 4032.00 4150.87 63.00
1444 18.4500 4046.00 4161.87 64.00
1445 18.4600 4088.00 4180.62 64.00
1446 18.4700 4043.00 4212.50 64.00
1447 18.4800 4125.00 4262.73 64.00
1448 18.4900 4156.00 4332.37 64.00
1449 18.5000 4251.00 4411.40 65.00
1450 18.5100 4331.00 4470.75 66.00
1451 18.5200 4322.00 4468.96 66.00
1452 18.5300 4256.00 4410.27 65.00
1453 18.5400 4238.00 4335.14 65.00
1454 18.5500 4138.00 4271.35 64.00
1455 18.5600 4116.00 4227.29 64.00
1456 18.5700 4094.00 4201.20 64.00
1457 18.5800 4117.00 4187.70 64.00
1458 18.5900 4064.00 4181.59 64.00
1459 18.6000 4042.00 4179.44 64.00
1460 18.6100 4042.00 4179.46 64.00
1461 18.6200 4070.00 4180.82 64.00
1462 18.6300 4099.00 4183.18 64.00
1463 18.6400 4109.00 4186.37 64.00
1464 18.6500 4081.00 4190.33 64.00
1465 18.6600 4083.00 4195.03 64.00
1466 18.6700 4083.00 4200.51 64.00
1467 18.6800 4122.00 4206.80 64.00
1468 18.6900 4148.00 4213.99 64.00
1469 18.7000 4136.00 4222.18 64.00
1470 18.7100 4119.00 4231.52 64.00
1471 18.7200 4140.00 4242.21 64.00
1472 18.7300 4172.00 4254.48 65.00
1473 18.7400 4146.00 4268.64 64.00
1474 18.7500 4188.00 4285.10 65.00
1475 18.7600 4191.00 4304.08 65.00
1476 18.7700 4197.00 4326.90 65.00
1477 18.7800 4241.00 4354.19 65.00
1478 18.7900 4287.00 4387.20 65.00
1479 18.8000 4315.00 4427.68 66.00
1480 18.8100 4341.00 4478.18 66.00
1481 18.8200 4411.00 4542.38 66.00
1482 18.8300 4428.00 4626.44 67.00
1483 18.8400 4595.00 4742.13 68.00
1484 18.8500 4743.00 4916.18 69.00
1485 18.8600 5007.00 5210.34 71.00
1486 18.8700 5508.00 5750.60 74.00
1487 18.8800 6406.00 6735.82 80.00
1488 18.8900 7791.00 8383.75 88.00
1489 18.9000 10069.00 10745.80 100.00
1490 18.9100 12758.00 13429.00 113.00
1491 18.9200 14771.00 15234.70 122.00
1492 18.9300 14846.00 14762.90 122.00
1493 18.9400 12689.00 12443.80 113.00
1494 18.9500 9866.00 9816.97 99.00
1495 18.9600 7704.00 7743.82 88.00
1496 18.9700 6331.00 6401.88 80.00
1497 18.9800 5521.00 5649.95 74.00
1498 18.9900 5135.00 5267.96 72.00
1499 19.0000 4963.00 5086.85 70.00
1500 19.0100 4792.00 5019.69 69.00
1501 19.0200 4873.00 5045.39 70.00
1502 19.0300 4998.00 5192.10 71.00
1503 19.0400 5343.00 5526.46 73.00
1504 19.0500 5970.00 6127.32 77.00
1505 19.0600 6840.00 7026.90 83.00
1506 19.0700 8017.00 8109.19 90.00
1507 19.0800 8944.00 8966.26 95.00
1508 19.0900 9095.00 8993.90 95.00
1509 19.1000 8345.00 8152.19 91.00
1510 19.1100 7155.00 7037.96 85.00
1511 19.1200 6045.00 6083.58 78.00
1512 19.1300 5303.00 5419.73 73.00
1513 19.1400 4923.00 5018.18 70.00
1514 19.1500 4688.00 4793.69 68.00
1515 19.1600 4582.00 4674.77 68.00
1516 19.1700 4533.00 4609.44 67.00
1517 19.1800 4513.00 4573.14 67.00
1518 19.1900 4472.00 4555.56 67.00
1519 19.2000 4448.00 4553.50 67.00
1520 19.2100 4478.00 4567.88 67.00
1521 19.2200 4536.00 4603.78 67.00
1522 19.2300 4632.00 4671.72 68.00
1523 19.2400 4743.00 4788.74 69.00
1524 19.2500 4899.00 4977.66 70.00
1525 19.2600 5144.00 5262.12 72.00
1526 19.2700 5486.00 5657.03 74.00
1527 19.2800 6049.00 6153.59 78.00
1528 19.2900 6672.00 6698.21 82.00
1529 19.3000 7192.00 7163.24 85.00
1530 19.3100 7389.00 7360.37 86.00
1531 19.3200 7234.00 7181.93 85.00
1532 19.3300 6712.00 6727.47 82.00
1533 19.3400 6110.00 6186.25 78.00
1534 19.3500 5574.00 5689.27 75.00
1535 19.3600 5220.00 5293.22 72.00
1536 19.3700 4888.00 5008.32 70.00
1537 19.3800 4731.00 4820.69 69.00
1538 19.3900 4650.00 4707.31 68.00
1539 19.4000 4620.00 4646.24 68.00
1540 19.4100 4629.00 4622.25 68.00
1541 19.4200 4618.00 4628.75 68.00
1542 19.4300 4600.00 4667.87 68.00
1543 19.4400 4698.00 4753.00 69.00
1544 19.4500 4845.00 4893.21 70.00
1545 19.4600 5064.00 5108.96 71.00
1546 19.4700 5349.00 5410.96 73.00
1547 19.4800 5687.00 5791.65 75.00
1548 19.4900 6063.00 6209.45 78.00
1549 19.5000 6438.00 6567.35 80.00
1550 19.5100 6632.00 6724.77 81.00
1551 19.5200 6603.00 6608.90 81.00
1552 19.5300 6430.00 6304.12 80.00
1553 19.5400 6066.00 5954.58 78.00
1554 19.5500 5703.00 5649.30 76.00
1555 19.5600 5409.00 5403.20 74.00
1556 19.5700 5183.00 5189.06 72.00
1557 19.5800 4989.00 4998.29 71.00
1558 19.5900 4829.00 4848.44 69.00
1559 19.6000 4743.00 4747.36 69.00
1560 19.6100 4636.00 4690.23 68.00
1561 19.6200 4632.00 4668.60 68.00
1562 19.6300 4597.00 4675.45 68.00
1563 19.6400 4648.00 4708.43 68.00
1564 19.6500 4763.00 4772.81 69.00
1565 19.6600 4846.00 4885.12 70.00
1566 19.6700 4974.00 5077.05 71.00
1567 19.6800 5276.00 5395.00 73.00
1568 19.6900 5688.00 5889.15 75.00
1569 19.7000 6393.00 6587.14 80.00
1570 19.7100 7310.00 7453.06 85.00
1571 19.7200 8229.00 8323.41 91.00
1572 19.7300 8779.00 8888.97 94.00
1573 19.7400 9185.00 9002.64 96.00
1574 19.7500 9207.00 8987.88 96.00
1575 19.7600 9493.00 9250.35 97.00
1576 19.7700 9986.00 9853.81 100.00
1577 19.7800 10412.00 10379.50 102.00
1578 19.7900 10273.00 10126.50 101.00
1579 19.8000 9527.00 9055.71 98.00
1580 19.8100 8195.00 7810.92 91.00
1581 19.8200 6951.00 6830.90 83.00
1582 19.8300 6232.00 6221.83 79.00
1583 19.8400 5819.00 5913.04 76.00
1584 19.8500 5657.00 5765.45 75.00
1585 19.8600 5535.00 5649.04 74.00
1586 19.8700 5382.00 5500.85 73.00
1587 19.8800 5229.00 5328.37 72.00
1588 19.8900 5152.00 5162.07 72.00
1589 19.9000 4977.00 5022.40 71.00
1590 19.9100 4874.00 4916.17 70.00
1591 19.9200 4842.00 4840.97 70.00
1592 19.9300 4822.00 4789.03 69.00
1593 19.9400 4787.00 4750.60 69.00
1594 19.9500 4790.00 4717.00 69.00
1595 19.9600 4735.00 4682.99 69.00
1596 19.9700 4671.00 4647.08 68.00
1597 19.9800 4613.00 4610.41 68.00
1598 19.9900 4582.00 4575.06 68.00
1599 20.0000 4580.00 4543.14 68.00
1600 20.0100 4521.00 4516.63 67.00
1601 20.0200 4536.00 4497.02 67.00
1602 20.0300 4482.00 4486.38 67.00
1603 20.0400 4504.00 4486.93 67.00
1604 20.0500 4485.00 4501.16 67.00
1605 20.0600 4536.00 4531.27 67.00
1606 20.0700 4592.00 4578.34 68.00
1607 20.0800 4654.00 4641.01 68.00
1608 20.0900 4696.00 4713.65 69.00
1609 20.1000 4789.00 4783.69 69.00
1610 20.1100 4826.00 4830.69 69.00
1611 20.1200 4858.00 4835.03 70.00
1612 20.1300 4841.00 4794.91 70.00
1613 20.1400 4804.00 4728.18 69.00
1614 20.1500 4678.00 4655.81 68.00
1615 20.1600 4616.00 4591.29 68.00
1616 20.1700 4546.00 4540.88 67.00
1617 20.1800 4528.00 4506.15 67.00
1618 20.1900 4521.00 4486.16 67.00
1619 20.2000 4501.00 4478.80 67.00
1620 20.2100 4473.00 4482.02 67.00
1621 20.2200 4522.00 4494.42 67.00
1622 20.2300 4545.00 4515.75 67.00
1623 20.2400 4554.00 4547.52 67.00
1624 20.2500 4589.00 4593.64 68.00
1625 20.2600 4660.00 4662.91 68.00
1626 20.2700 4713.00 4772.72 69.00
1627 20.2800 4912.00 4953.45 70.00
1628 20.2900 5120.00 5248.37 72.00
1629 20.3000 5513.00 5703.00 74.00
1630 20.3100 6120.00 6339.57 78.00
1631 20.3200 6904.00 7112.16 83.00
1632 20.3300 7642.00 7836.13 87.00
1633 20.3400 8038.00 8170.94 90.00
1634 20.3500 7855.00 7934.27 89.00
1635 20.3600 7351.00 7367.44 86.00
1636 20.3700 6730.00 6787.31 82.00
1637 20.3800 6233.00 6339.14 79.00
1638 20.3900 5898.00 6039.93 77.00
1639 20.4000 5738.00 5848.37 76.00
1640 20.4100 5599.00 5709.05 75.00
1641 20.4200 5456.00 5581.08 74.00
1642 20.4300 5354.00 5446.72 73.00
1643 20.4400 5196.00 5305.28 72.00
1644 20.4500 5030.00 5163.96 71.00
1645 20.4600 4897.00 5029.76 70.00
1646 20.4700 4842.00 4907.89 70.00
1647 20.4800 4756.00 4801.40 69.00
1648 20.4900 4721.00 4711.50 69.00
1649 20.5000 4640.00 4637.87 68.00
1650 20.5100 4612.00 4579.26 68.00
1651 20.5200 4595.00 4533.72 68.00
1652 20.5300 4519.00 4499.09 67.00
1653 20.5400 4544.00 4471.55 67.00
1654 20.5500 4533.00 4452.46 67.00
1655 20.5600 4541.00 4438.51 67.00
1656 20.5700 4460.00 4428.43 67.00
1657 20.5800 4510.00 4421.24 67.00
1658 20.5900 4492.00 4416.25 67.00
1659 20.6000 4513.00 4414.29 67.00
1660 20.6100 4527.00 4412.47 67.00
1661 20.6200 4506.00 4411.89 67.00
1662 20.6300 4514.00 4412.39 67.00
1663 20.6400 4542.00 4413.92 67.00
1664 20.6500 4521.00 4417.26 67.00
1665 20.6600 4489.00 4420.78 67.00
1666 20.6700 4540.00 4425.31 67.00
1667 20.6800 4543.00 4430.91 67.00
1668 20.6900 4528.00 4437.65 67.00
1669 20.7000 4544.00 4445.63 67.00
1670 20.7100 4541.00 4454.98 67.00
1671 20.7200 4546.00 4465.90 67.00
1672 20.7300 4600.00 4478.64 68.00
1673 20.7400 4566.00 4493.52 68.00
1674 20.7500 4618.00 4511.01 68.00
1675 20.7600 4631.00 4531.06 68.00
1676 20.7700 4623.00 4556.12 68.00
1677 20.7800 4668.00 4586.96 68.00
1678 20.7900 4750.00 4625.88 69.00
1679 20.8000 4803.00 4676.33 69.00
1680 20.8100 4838.00 4743.48 70.00
1681 20.8200 4903.00 4834.35 70.00
1682 20.8300 5022.00 4957.85 71.00
1683 20.8400 5176.00 5124.13 72.00
1684 20.8500 5383.00 5343.60 73.00
1685 20.8600 5675.00 5625.06 75.00
1686 20.8700 5947.00 5975.79 77.00
1687 20.8800 6387.00 6413.40 80.00
1688 20.8900 6927.00 6964.42 83.00
1689 20.9000 7658.00 7631.61 88.00
1690 20.9100 8430.00 8359.82 92.00
1691 20.9200 9019.00 9001.42 95.00
1692 20.9300 9376.00 9320.12 97.00
1693 20.9400 9368.00 9172.78 97.00
1694 20.9500 8878.00 8678.87 94.00
1695 20.9600 8208.00 8058.10 91.00
1696 20.9700 7512.00 7460.67 87.00
1697 20.9800 6895.00 6959.43 83.00
1698 20.9900 6436.00 6579.87 80.00
1699 21.0000 6138.00 6321.78 78.00
1700 21.0100 5964.00 6174.74 77.00
1701 21.0200 5996.00 6125.53 77.00
1702 21.0300 6043.00 6160.14 78.00
1703 21.0400 6223.00 6261.94 79.00
1704 21.0500 6356.00 6409.06 80.00
1705 21.0600 6607.00 6572.13 81.00
1706 21.0700 6835.00 6714.32 83.00
1707 21.0800 6963.00 6798.67 83.00
1708 21.0900 7027.00 6803.21 84.00
1709 21.1000 6942.00 6732.83 83.00
1710 21.1100 6729.00 6614.92 82.00
1711 21.1200 6627.00 6483.35 81.00
1712 21.1300 6489.00 6365.02 81.00
1713 21.1400 6419.00 6274.82 80.00
1714 21.1500 6425.00 6215.68 80.00
1715 21.1600 6364.00 6179.19 80.00
1716 21.1700 6286.00 6142.74 79.00
1717 21.1800 6226.00 6069.78 79.00
1718 21.1900 6083.00 5933.45 78.00
1719 21.2000 5938.00 5747.99 77.00
1720 21.2100 5760.00 5554.04 76.00
1721 21.2200 5547.00 5383.94 74.00
1722 21.2300 5377.00 5253.15 73.00
1723 21.2400 5261.00 5165.71 73.00
1724 21.2500 5200.00 5120.05 72.00
1725 21.2600 5155.00 5112.67 72.00
1726 21.2700 5242.00 5141.29 72.00
1727 21.2800 5287.00 5208.03 73.00
1728 21.2900 5390.00 5323.67 73.00
1729 21.3000 5528.00 5514.63 74.00
1730 21.3100 5769.00 5831.98 76.00
1731 21.3200 6289.00 6357.79 79.00
1732 21.3300 7075.00 7196.47 84.00
1733 21.3400 8205.00 8441.98 91.00
1734 21.3500 9767.00 10111.70 99.00
1735 21.3600 11801.00 12038.90 109.00
1736 21.3700 13575.00 13701.90 117.00
1737 21.3800 14417.00 14266.50 120.00
1738 21.3900 13754.00 13385.90 117.00
1739 21.4000 12025.00 11687.30 110.00
1740 21.4100 10083.00 9936.27 100.00
1741 21.4200 8554.00 8501.83 92.00
1742 21.4300 7461.00 7463.51 86.00
1743 21.4400 6885.00 6775.60 83.00
1744 21.4500 6470.00 6352.60 80.00
1745 21.4600 6278.00 6119.85 79.00
1746 21.4700 6151.00 6030.03 78.00
1747 21.4800 6154.00 6063.87 78.00
1748 21.4900 6243.00 6221.09 79.00
1749 21.5000 6473.00 6509.59 80.00
1750 21.5100 6890.00 6936.09 83.00
1751 21.5200 7422.00 7496.02 86.00
1752 21.5300 8011.00 8166.47 90.00
1753 21.5400 8893.00 8892.98 94.00
1754 21.5500 9606.00 9576.54 98.00
1755 21.5600 10199.00 10070.60 101.00
1756 21.5700 10435.00 10225.00 102.00
1757 21.5800 10250.00 9978.56 101.00
1758 21.5900 9597.00 9408.10 98.00
1759 21.6000 8790.00 8665.60 94.00
1760 21.6100 7932.00 7891.41 89.00
1761 21.6200 7201.00 7173.97 85.00
1762 21.6300 6603.00 6559.13 81.00
1763 21.6400 6063.00 6062.14 78.00
1764 21.6500 5722.00 5679.91 76.00
1765 21.6600 5457.00 5397.85 74.00
1766 21.6700 5238.00 5196.88 72.00
1767 21.6800 5122.00 5057.87 72.00
1768 21.6900 5053.00 4965.09 71.00
1769 21.7000 4944.00 4907.67 70.00
1770 21.7100 4919.00 4879.72 70.00
1771 21.7200 4868.00 4881.18 70.00
1772 21.7300 4882.00 4914.25 70.00
1773 21.7400 4987.00 4982.50 71.00
1774 21.7500 5101.00 5087.20 71.00
1775 21.7600 5238.00 5223.08 72.00
1776 21.7700 5364.00 5371.73 73.00
1777 21.7800 5495.00 5494.10 74.00
1778 21.7900 5544.00 5536.42 74.00
1779 21.8000 5544.00 5470.46 74.00
1780 21.8100 5401.00 5324.54 73.00
1781 21.8200 5244.00 5152.09 72.00
1782 21.8300 4995.00 4991.51 71.00
1783 21.8400 4877.00 4860.61 70.00
1784 21.8500 4805.00 4763.97 69.00
1785 21.8600 4756.00 4699.57 69.00
1786 21.8700 4754.00 4663.06 69.00
1787 21.8800 4728.00 4651.31 69.00
1788 21.8900 4729.00 4665.04 69.00
1789 21.9000 4836.00 4710.04 70.00
1790 21.9100 4940.00 4796.17 70.00
1791 21.9200 5020.00 4932.87 71.00
1792 21.9300 5197.00 5121.39 72.00
1793 21.9400 5413.00 5341.36 74.00
1794 21.9500 5548.00 5530.56 74.00
1795 21.9600 5625.00 5588.71 75.00
1796 21.9700 5585.00 5471.41 75.00
1797 21.9800 5419.00 5252.82 74.00
1798 21.9900 5158.00 5027.03 72.00
1799 22.0000 4948.00 4841.12 70.00
1800 22.0100 4799.00 4706.56 69.00
1801 22.0200 4700.00 4617.58 69.00
1802 22.0300 4640.00 4562.27 68.00
1803 22.0400 4612.00 4528.89 68.00
1804 22.0500 4592.00 4508.86 68.00
1805 22.0600 4604.00 4497.01 68.00
1806 22.0700 4597.00 4490.68 68.00
1807 22.0800 4604.00 4488.67 68.00
1808 22.0900 4583.00 4490.53 68.00
1809 22.1000 4571.00 4496.23 68.00
1810 22.1100 4630.00 4505.99 68.00
1811 22.1200 4595.00 4520.12 68.00
1812 22.1300 4600.00 4538.98 68.00
1813 22.1400 4662.00 4562.85 68.00
1814 22.1500 4639.00 4591.86 68.00
1815 22.1600 4687.00 4626.15 68.00
1816 22.1700 4745.00 4665.82 69.00
1817 22.1800 4755.00 4710.00 69.00
1818 22.1900 4805.00 4758.28 69.00
1819 22.2000 4876.00 4806.36 70.00
1820 22.2100 4931.00 4849.70 70.00
1821 22.2200 4972.00 4876.80 71.00
1822 22.2300 5042.00 4882.60 71.00
1823 22.2400 5000.00 4862.44 71.00
1824 22.2500 4917.00 4821.68 70.00
1825 22.2600 4928.00 4768.71 70.00
1826 22.2700 4827.00 4711.75 69.00
1827 22.2800 4797.00 4656.82 69.00
1828 22.2900 4746.00 4607.50 69.00
1829 22.3000 4696.00 4565.59 69.00
1830 22.3100 4643.00 4531.59 68.00
1831 22.3200 4632.00 4505.17 68.00
1832 22.3300 4587.00 4485.48 68.00
1833 22.3400 4597.00 4471.38 68.00
1834 22.3500 4650.00 4461.77 68.00
1835 22.3600 4625.00 4455.58 68.00
1836 22.3700 4587.00 4451.99 68.00
1837 22.3800 4596.00 4450.36 68.00
1838 22.3900 4554.00 4450.25 67.00
1839 22.4000 4592.00 4451.39 68.00
1840 22.4100 4620.00 4453.62 68.00
1841 22.4200 4623.00 4456.86 68.00
1842 22.4300 4587.00 4461.12 68.00
1843 22.4400 4590.00 4466.42 68.00
1844 22.4500 4577.00 4472.87 68.00
1845 22.4600 4566.00 4480.57 68.00
1846 22.4700 4614.00 4489.73 68.00
1847 22.4800 4624.00 4500.56 68.00
1848 22.4900 4633.00 4513.37 68.00
1849 22.5000 4645.00 4528.58 68.00
1850 22.5100 4663.00 4546.74 68.00
1851 22.5200 4711.00 4568.86 69.00
1852 22.5300 4750.00 4595.72 69.00
1853 22.5400 4774.00 4629.41 69.00
1854 22.5500 4769.00 4673.05 69.00
1855 22.5600 4847.00 4732.00 70.00
1856 22.5700 4954.00 4815.19 70.00
1857 22.5800 5065.00 4936.73 71.00
1858 22.5900 5288.00 5116.03 73.00
1859 22.6000 5463.00 5375.66 74.00
1860 22.6100 5803.00 5735.61 76.00
1861 22.6200 6239.00 6202.31 79.00
1862 22.6300 6757.00 6751.16 82.00
1863 22.6400 7404.00 7301.47 86.00
1864 22.6500 7905.00 7729.26 89.00
1865 22.6600 8127.00 7973.62 90.00
1866 22.6700 8157.00 8079.79 90.00
1867 22.6800 8175.00 8086.06 90.00
1868 22.6900 8032.00 7973.18 90.00
1869 22.7000 7813.00 7716.94 88.00
1870 22.7100 7459.00 7338.65 86.00
1871 22.7200 7013.00 6897.39 84.00
1872 22.7300 6505.00 6453.44 81.00
1873 22.7400 6069.00 6047.06 78.00
1874 22.7500 5682.00 5699.55 75.00
1875 22.7600 5409.00 5418.90 74.00
1876 22.7700 5257.00 5204.97 73.00
1877 22.7800 5096.00 5052.37 71.00
1878 22.7900 4990.00 4953.03 71.00
1879 22.8000 4968.00 4897.44 70.00
1880 22.8100 4978.00 4875.13 71.00
1881 22.8200 4943.00 4873.50 70.00
1882 22.8300 4973.00 4875.55 71.00
1883 22.8400 4969.00 4861.96 70.00
1884 22.8500 4874.00 4823.59 70.00
1885 22.8600 4822.00 4768.98 69.00
1886 22.8700 4747.00 4712.50 69.00
1887 22.8800 4708.00 4663.34 69.00
1888 22.8900 4746.00 4625.01 69.00
1889 22.9000 4701.00 4597.53 69.00
1890 22.9100 4679.00 4580.61 68.00
1891 22.9200 4638.00 4572.53 68.00
1892 22.9300 4634.00 4572.43 68.00
1893 22.9400 4649.00 4580.22 68.00
1894 22.9500 4710.00 4596.50 69.00
1895 22.9600 4692.00 4622.08 68.00
1896 22.9700 4742.00 4657.22 69.00
1897 22.9800 4782.00 4701.03 69.00
1898 22.9900 4820.00 4747.97 69.00
1899 23.0000 4869.00 4789.05 70.00
1900 23.0100 4911.00 4812.10 70.00
1901 23.0200 4901.00 4812.11 70.00
1902 23.0300 4872.00 4797.65 70.00
1903 23.0400 4858.00 4782.92 70.00
1904 23.0500 4857.00 4779.12 70.00
1905 23.0600 4867.00 4793.69 70.00
1906 23.0700 4929.00 4832.32 70.00
1907 23.0800 4959.00 4900.47 70.00
1908 23.0900 5028.00 5003.99 71.00
1909 23.1000 5182.00 5149.16 72.00
1910 23.1100 5345.00 5341.81 73.00
1911 23.1200 5586.00 5586.10 75.00
1912 23.1300 5883.00 5882.04 77.00
1913 23.1400 6216.00 6223.84 79.00
1914 23.1500 6575.00 6595.80 81.00
1915 23.1600 7042.00 6968.95 84.00
1916 23.1700 7391.00 7297.91 86.00
1917 23.1800 7632.00 7527.85 87.00
1918 23.1900 7734.00 7617.80 88.00
1919 23.2000 7553.00 7572.33 87.00
1920 23.2100 7289.00 7449.14 85.00
1921 23.2200 7068.00 7330.85 84.00
1922 23.2300 6964.00 7285.08 83.00
1923 23.2400 6987.00 7329.64 84.00
1924 23.2500 7114.00 7392.89 84.00
1925 23.2600 7048.00 7297.16 84.00
1926 23.2700 6802.00 6920.78 82.00
1927 23.2800 6460.00 6380.35 80.00
1928 23.2900 5948.00 5858.24 77.00
1929 23.3000 5543.00 5442.30 74.00
1930 23.3100 5285.00 5145.42 73.00
1931 23.3200 5030.00 4946.49 71.00
1932 23.3300 4874.00 4819.44 70.00
1933 23.3400 4833.00 4736.64 70.00
1934 23.3500 4761.00 4679.97 69.00
1935 23.3600 4709.00 4638.70 69.00
1936 23.3700 4728.00 4607.02 69.00
1937 23.3800 4692.00 4581.78 68.00
1938 23.3900 4636.00 4561.18 68.00
1939 23.4000 4640.00 4544.13 68.00
1940 23.4100 4613.00 4529.92 68.00
1941 23.4200 4580.00 4518.11 68.00
1942 23.4300 4612.00 4508.35 68.00
1943 23.4400 4609.00 4500.40 68.00
1944 23.4500 4578.00 4494.10 68.00
1945 23.4600 4597.00 4489.34 68.00
1946 23.4700 4586.00 4485.95 68.00
1947 23.4800 4607.00 4484.22 68.00
1948 23.4900 4615.00 4484.17 68.00
1949 23.5000 4598.00 4486.13 68.00
1950 23.5100 4570.00 4490.64 68.00
1951 23.5200 4613.00 4498.58 68.00
1952 23.5300 4586.00 4511.15 68.00
1953 23.5400 4627.00 4529.94 68.00
1954 23.5500 4667.00 4556.73 68.00
1955 23.5600 4717.00 4593.32 69.00
1956 23.5700 4747.00 4641.06 69.00
1957 23.5800 4806.00 4700.35 69.00
1958 23.5900 4852.00 4769.92 70.00
1959 23.6000 4947.00 4845.88 70.00
1960 23.6100 5067.00 4920.33 71.00
1961 23.6200 5112.00 4980.74 71.00
1962 23.6300 5094.00 5012.33 71.00
1963 23.6400 5176.00 5005.85 72.00
1964 23.6500 5142.00 4964.67 72.00
1965 23.6600 5100.00 4901.99 71.00
1966 23.6700 5030.00 4832.36 71.00
1967 23.6800 4941.00 4766.37 70.00
1968 23.6900 4843.00 4710.07 70.00
1969 23.7000 4782.00 4666.39 69.00
1970 23.7100 4725.00 4636.28 69.00
1971 23.7200 4710.00 4619.83 69.00
1972 23.7300 4746.00 4617.14 69.00
1973 23.7400 4720.00 4629.39 69.00
1974 23.7500 4771.00 4660.12 69.00
1975 23.7600 4793.00 4714.43 69.00
1976 23.7700 4874.00 4801.14 70.00
1977 23.7800 4986.00 4929.72 71.00
1978 23.7900 5184.00 5107.58 72.00
1979 23.8000 5387.00 5334.88 73.00
1980 23.8100 5665.00 5596.89 75.00
1981 23.8200 5918.00 5851.19 77.00
1982 23.8300 6162.00 6020.09 78.00
1983 23.8400 6185.00 6026.90 79.00
1984 23.8500 6108.00 5870.72 78.00
1985 23.8600 5791.00 5627.59 76.00
1986 23.8700 5501.00 5376.03 74.00
1987 23.8800 5265.00 5159.13 73.00
1988 23.8900 5073.00 4992.41 71.00
1989 23.9000 4995.00 4875.99 71.00
1990 23.9100 4917.00 4802.82 70.00
1991 23.9200 4880.00 4763.48 70.00
1992 23.9300 4853.00 4750.50 70.00
1993 23.9400 4917.00 4759.06 70.00
1994 23.9500 4891.00 4788.62 70.00
1995 23.9600 4994.00 4842.89 71.00
1996 23.9700 5078.00 4929.63 71.00
1997 23.9800 5181.00 5059.78 72.00
1998 23.9900 5295.00 5245.59 73.00
1999 24.0000 5618.00 5497.51 75.00
2000 24.0100 5898.00 5819.39 77.00
2001 24.0200 6279.00 6202.26 79.00
2002 24.0300 6696.00 6614.05 82.00
2003 24.0400 7038.00 6986.93 84.00
2004 24.0500 7271.00 7223.21 85.00
2005 24.0600 7378.00 7252.37 86.00
2006 24.0700 7241.00 7100.51 85.00
2007 24.0800 7062.00 6866.32 84.00
2008 24.0900 6864.00 6637.82 83.00
2009 24.1000 6664.00 6447.31 82.00
2010 24.1100 6382.00 6272.41 80.00
2011 24.1200 6234.00 6078.38 79.00
2012 24.1300 5994.00 5875.05 77.00
2013 24.1400 5841.00 5704.92 76.00
2014 24.1500 5762.00 5599.31 76.00
2015 24.1600 5707.00 5570.65 76.00
2016 24.1700 5761.00 5624.15 76.00
2017 24.1800 5922.00 5768.21 77.00
2018 24.1900 6141.00 6023.06 78.00
2019 24.2000 6542.00 6425.14 81.00
2020 24.2100 7083.00 7015.04 84.00
2021 24.2200 7742.00 7802.87 88.00
2022 24.2300 8555.00 8710.21 92.00
2023 24.2400 9299.00 9491.52 96.00
2024 24.2500 9608.00 9756.21 98.00
2025 24.2600 9357.00 9328.88 97.00
2026 24.2700 8689.00 8489.13 93.00
2027 24.2800 7731.00 7616.58 88.00
2028 24.2900 6867.00 6916.06 83.00
2029 24.3000 6315.00 6445.64 79.00
2030 24.3100 6051.00 6190.25 78.00
2031 24.3200 5998.00 6104.61 77.00
2032 24.3300 6063.00 6133.58 78.00
2033 24.3400 6151.00 6223.98 78.00
2034 24.3500 6296.00 6324.93 79.00
2035 24.3600 6418.00 6388.92 80.00
2036 24.3700 6405.00 6380.90 80.00
2037 24.3800 6316.00 6292.87 79.00
2038 24.3900 6147.00 6146.53 78.00
2039 24.4000 5931.00 5978.32 77.00
2040 24.4100 5740.00 5821.51 76.00
2041 24.4200 5637.00 5697.78 75.00
2042 24.4300 5589.00 5614.75 75.00
2043 24.4400 5565.00 5563.67 75.00
2044 24.4500 5586.00 5516.88 75.00
2045 24.4600 5521.00 5441.44 74.00
2046 24.4700 5399.00 5331.87 73.00
2047 24.4800 5331.00 5215.37 73.00
2048 24.4900 5163.00 5124.31 72.00
2049 24.5000 5119.00 5075.12 72.00
2050 24.5100 5136.00 5074.47 72.00
2051 24.5200 5163.00 5123.18 72.00
2052 24.5300 5218.00 5215.08 72.00
2053 24.5400 5348.00 5339.62 73.00
2054 24.5500 5499.00 5476.35 74.00
2055 24.5600 5628.00 5591.83 75.00
2056 24.5700 5680.00 5644.86 75.00
2057 24.5800 5617.00 5610.72 75.00
2058 24.5900 5443.00 5502.51 74.00
2059 24.6000 5319.00 5358.04 73.00
2060 24.6100 5156.00 5212.12 72.00
2061 24.6200 5072.00 5085.48 71.00
2062 24.6300 5023.00 4987.57 71.00
2063 24.6400 4972.00 4921.08 71.00
2064 24.6500 4927.00 4885.49 70.00
2065 24.6600 4963.00 4879.38 70.00
2066 24.6700 4993.00 4902.35 71.00
2067 24.6800 5068.00 4956.50 71.00
2068 24.6900 5191.00 5047.19 72.00
2069 24.7000 5295.00 5183.09 73.00
2070 24.7100 5464.00 5376.65 74.00
2071 24.7200 5696.00 5641.63 75.00
2072 24.7300 5979.00 5991.77 77.00
2073 24.7400 6430.00 6437.68 80.00
2074 24.7500 6994.00 6981.82 84.00
2075 24.7600 7610.00 7609.18 87.00
2076 24.7700 8288.00 8275.24 91.00
2077 24.7800 8968.00 8891.11 95.00
2078 24.7900 9374.00 9323.22 97.00
2079 24.8000 9564.00 9429.13 98.00
2080 24.8100 9355.00 9150.31 97.00
2081 24.8200 8719.00 8582.65 93.00
2082 24.8300 7902.00 7893.77 89.00
2083 24.8400 7216.00 7210.38 85.00
2084 24.8500 6490.00 6599.43 81.00
2085 24.8600 6020.00 6090.22 78.00
2086 24.8700 5647.00 5687.51 75.00
2087 24.8800 5365.00 5381.69 73.00
2088 24.8900 5099.00 5156.16 71.00
2089 24.9000 4978.00 4993.65 71.00
2090 24.9100 4860.00 4878.45 70.00
2091 24.9200 4790.00 4797.79 69.00
2092 24.9300 4759.00 4741.55 69.00
2093 24.9400 4689.00 4701.53 68.00
2094 24.9500 4635.00 4670.35 68.00
2095 24.9600 4634.00 4641.40 68.00
2096 24.9700 4591.00 4610.87 68.00
2097 24.9800 4566.00 4579.16 68.00
2098 24.9900 4578.00 4548.80 68.00
2099 25.0000 4538.00 4521.72 67.00
2100 25.0100 4491.00 4498.74 67.00
2101 25.0200 4476.00 4479.91 67.00
2102 25.0300 4470.00 4464.88 67.00
2103 25.0400 4488.00 4453.17 67.00
2104 25.0500 4458.00 4444.31 67.00
2105 25.0600 4434.00 4437.97 67.00
2106 25.0700 4423.00 4434.03 67.00
2107 25.0800 4466.00 4432.66 67.00
2108 25.0900 4433.00 4434.37 67.00
2109 25.1000 4473.00 4440.26 67.00
2110 25.1100 4516.00 4451.84 67.00
2111 25.1200 4536.00 4470.84 67.00
2112 25.1300 4571.00 4500.28 68.00
2113 25.1400 4616.00 4542.79 68.00
2114 25.1500 4656.00 4598.27 68.00
2115 25.1600 4821.00 4666.97 69.00
2116 25.1700 4919.00 4745.05 70.00
2117 25.1800 5011.00 4823.00 71.00
2118 25.1900 5074.00 4884.02 71.00
2119 25.2000 5099.00 4908.54 71.00
2120 25.2100 5018.00 4887.84 71.00
2121 25.2200 4918.00 4832.21 70.00
2122 25.2300 4829.00 4761.42 69.00
2123 25.2400 4697.00 4691.47 69.00
2124 25.2500 4616.00 4630.61 68.00
2125 25.2600 4536.00 4581.14 67.00
2126 25.2700 4525.00 4541.67 67.00
2127 25.2800 4483.00 4509.30 67.00
2128 25.2900 4490.00 4481.37 67.00
2129 25.3000 4462.00 4456.54 67.00
2130 25.3100 4396.00 4434.46 66.00
2131 25.3200 4378.00 4415.22 66.00
2132 25.3300 4341.00 4398.92 66.00
2133 25.3400 4362.00 4385.65 66.00
2134 25.3500 4369.00 4375.47 66.00
2135 25.3600 4346.00 4368.57 66.00
2136 25.3700 4303.00 4365.33 66.00
2137 25.3800 4352.00 4366.36 66.00
2138 25.3900 4315.00 4372.75 66.00
2139 25.4000 4374.00 4385.64 66.00
2140 25.4100 4413.00 4406.11 66.00
2141 25.4200 4433.00 4434.45 67.00
2142 25.4300 4437.00 4469.25 67.00
2143 25.4400 4477.00 4505.66 67.00
2144 25.4500 4481.00 4533.60 67.00
2145 25.4600 4471.00 4540.56 67.00
2146 25.4700 4493.00 4522.11 67.00
2147 25.4800 4487.00 4487.03 67.00
2148 25.4900 4409.00 4447.76 66.00
2149 25.5000 4389.00 4412.30 66.00
2150 25.5100 4335.00 4383.86 66.00
2151 25.5200 4297.00 4362.95 66.00
2152 25.5300 4363.00 4348.72 66.00
2153 25.5400 4312.00 4339.76 66.00
2154 25.5500 4304.00 4334.87 66.00
2155 25.5600 4302.00 4332.93 66.00
2156 25.5700 4295.00 4333.28 66.00
2157 25.5800 4295.00 4335.61 66.00
2158 25.5900 4324.00 4339.97 66.00
2159 25.6000 4304.00 4346.74 66.00
2160 25.6100 4282.00 4356.77 65.00
2161 25.6200 4308.00 4371.58 66.00
2162 25.6300 4352.00 4393.58 66.00
2163 25.6400 4362.00 4426.11 66.00
2164 25.6500 4454.00 4472.85 67.00
2165 25.6600 4516.00 4538.75 67.00
2166 25.6700 4553.00 4625.42 67.00
2167 25.6800 4659.00 4729.19 68.00
2168 25.6900 4750.00 4844.32 69.00
2169 25.7000 4891.00 4977.77 70.00
2170 25.7100 5074.00 5142.81 71.00
2171 25.7200 5244.00 5331.31 72.00
2172 25.7300 5394.00 5495.65 73.00
2173 25.7400 5448.00 5559.48 74.00
2174 25.7500 5407.00 5478.93 74.00
2175 25.7600 5232.00 5290.51 72.00
2176 25.7700 5008.00 5067.91 71.00
2177 25.7800 4799.00 4863.37 69.00
2178 25.7900 4617.00 4698.45 68.00
2179 25.8000 4491.00 4576.00 67.00
2180 25.8100 4375.00 4490.28 66.00
2181 25.8200 4367.00 4432.50 66.00
2182 25.8300 4326.00 4394.18 66.00
2183 25.8400 4274.00 4368.60 65.00
2184 25.8500 4223.00 4351.24 65.00
2185 25.8600 4225.00 4339.45 65.00
2186 25.8700 4248.00 4331.89 65.00
2187 25.8800 4253.00 4328.19 65.00
2188 25.8900 4292.00 4328.71 66.00
2189 25.9000 4290.00 4334.36 65.00
2190 25.9100 4243.00 4346.36 65.00
2191 25.9200 4274.00 4365.94 65.00
2192 25.9300 4298.00 4393.61 66.00
2193 25.9400 4381.00 4428.42 66.00
2194 25.9500 4438.00 4466.06 67.00
2195 25.9600 4444.00 4496.99 67.00
2196 25.9700 4453.00 4508.32 67.00
2197 25.9800 4449.00 4494.07 67.00
2198 25.9900 4385.00 4462.11 66.00
2199 26.0000 4345.00 4425.65 66.00
2200 26.0100 4306.00 4393.62 66.00
2201 26.0200 4268.00 4369.56 65.00
2202 26.0300 4251.00 4353.51 65.00
2203 26.0400 4256.00 4343.35 65.00
2204 26.0500 4247.00 4335.63 65.00
2205 26.0600 4269.00 4327.17 65.00
2206 26.0700 4281.00 4316.73 65.00
2207 26.0800 4238.00 4305.10 65.00
2208 26.0900 4209.00 4293.74 65.00
2209 26.1000 4183.00 4283.66 65.00
2210 26.1100 4177.00 4275.34 65.00
2211 26.1200 4192.00 4269.29 65.00
2212 26.1300 4192.00 4264.45 65.00
2213 26.1400 4170.00 4261.01 65.00
2214 26.1500 4155.00 4258.68 64.00
2215 26.1600 4130.00 4257.25 64.00
2216 26.1700 4140.00 4256.36 64.00
2217 26.1800 4165.00 4256.56 65.00
2218 26.1900 4231.00 4257.69 65.00
2219 26.2000 4191.00 4260.01 65.00
2220 26.2100 4165.00 4263.96 65.00
2221 26.2200 4213.00 4270.29 65.00
2222 26.2300 4185.00 4280.01 65.00
2223 26.2400 4206.00 4294.44 65.00
2224 26.2500 4245.00 4314.95 65.00
2225 26.2600 4278.00 4342.58 65.00
2226 26.2700 4294.00 4377.50 66.00
2227 26.2800 4344.00 4417.80 66.00
2228 26.2900 4384.00 4458.47 66.00
2229 26.3000 4403.00 4488.69 66.00
2230 26.3100 4460.00 4500.45 67.00
2231 26.3200 4450.00 4492.25 67.00
2232 26.3300 4392.00 4473.84 66.00
2233 26.3400 4411.00 4456.06 66.00
2234 26.3500 4375.00 4445.04 66.00
2235 26.3600 4378.00 4442.42 66.00
2236 26.3700 4430.00 4446.77 67.00
2237 26.3800 4401.00 4454.45 66.00
2238 26.3900 4389.00 4460.59 66.00
2239 26.4000 4408.00 4460.82 66.00
2240 26.4100 4410.00 4453.28 66.00
2241 26.4200 4386.00 4439.33 66.00
2242 26.4300 4369.00 4422.16 66.00
2243 26.4400 4312.00 4404.92 66.00
2244 26.4500 4282.00 4389.86 65.00
2245 26.4600 4282.00 4377.79 65.00
2246 26.4700 4253.00 4370.17 65.00
2247 26.4800 4297.00 4366.57 66.00
2248 26.4900 4289.00 4366.75 65.00
2249 26.5000 4309.00 4370.39 66.00
2250 26.5100 4258.00 4377.18 65.00
2251 26.5200 4261.00 4386.88 65.00
2252 26.5300 4284.00 4399.30 65.00
2253 26.5400 4330.00 4414.21 66.00
2254 26.5500 4334.00 4431.19 66.00
2255 26.5600 4345.00 4449.54 66.00
2256 26.5700 4342.00 4468.07 66.00
2257 26.5800 4383.00 4484.95 66.00
2258 26.5900 4363.00 4497.94 66.00
2259 26.6000 4433.00 4504.80 67.00
2260 26.6100 4409.00 4504.92 66.00
2261 26.6200 4407.00 4498.51 66.00
2262 26.6300 4361.00 4485.72 66.00
2263 26.6400 4362.00 4468.90 66.00
2264 26.6500 4323.00 4449.34 66.00
2265 26.6600 4322.00 4427.84 66.00
2266 26.6700 4314.00 4406.07 66.00
2267 26.6800 4292.00 4385.12 66.00
2268 26.6900 4264.00 4365.68 65.00
2269 26.7000 4270.00 4348.53 65.00
2270 26.7100 4231.00 4334.00 65.00
2271 26.7200 4227.00 4322.39 65.00
2272 26.7300 4271.00 4313.96 65.00
2273 26.7400 4241.00 4308.98 65.00
2274 26.7500 4210.00 4307.82 65.00
2275 26.7600 4253.00 4311.23 65.00
2276 26.7700 4241.00 4320.50 65.00
2277 26.7800 4259.00 4337.83 65.00
2278 26.7900 4335.00 4366.55 66.00
2279 26.8000 4367.00 4410.96 66.00
2280 26.8100 4383.00 4475.75 66.00
2281 26.8200 4482.00 4564.59 67.00
2282 26.8300 4561.00 4677.69 68.00
2283 26.8400 4729.00 4807.89 69.00
2284 26.8500 4869.00 4933.98 70.00
2285 26.8600 4956.00 5017.21 70.00
2286 26.8700 4924.00 5021.04 70.00
2287 26.8800 4903.00 4948.26 70.00
2288 26.8900 4745.00 4838.36 69.00
2289 26.9000 4653.00 4730.80 68.00
2290 26.9100 4557.00 4646.11 68.00
2291 26.9200 4496.00 4594.24 67.00
2292 26.9300 4499.00 4578.93 67.00
2293 26.9400 4527.00 4601.84 67.00
2294 26.9500 4543.00 4664.01 67.00
2295 26.9600 4715.00 4765.79 69.00
2296 26.9700 4882.00 4905.19 70.00
2297 26.9800 5005.00 5074.11 71.00
2298 26.9900 5154.00 5252.23 72.00
2299 27.0000 5326.00 5399.67 73.00
2300 27.0100 5312.00 5463.42 73.00
2301 27.0200 5326.00 5412.35 73.00
2302 27.0300 5220.00 5267.82 72.00
2303 27.0400 5036.00 5081.77 71.00
2304 27.0500 4817.00 4897.45 69.00
2305 27.0600 4672.00 4737.58 68.00
2306 27.0700 4535.00 4610.10 67.00
2307 27.0800 4483.00 4514.84 67.00
2308 27.0900 4409.00 4447.55 66.00
2309 27.1000 4381.00 4402.28 66.00
2310 27.1100 4288.00 4373.79 65.00
2311 27.1200 4317.00 4357.34 66.00
2312 27.1300 4297.00 4349.93 66.00
2313 27.1400 4330.00 4349.93 66.00
2314 27.1500 4297.00 4356.74 66.00
2315 27.1600 4326.00 4370.33 66.00
2316 27.1700 4316.00 4390.93 66.00
2317 27.1800 4349.00 4418.81 66.00
2318 27.1900 4341.00 4454.12 66.00
2319 27.2000 4459.00 4496.71 67.00
2320 27.2100 4502.00 4545.99 67.00
2321 27.2200 4569.00 4600.84 68.00
2322 27.2300 4579.00 4659.27 68.00
2323 27.2400 4659.00 4718.16 68.00
2324 27.2500 4751.00 4773.81 69.00
2325 27.2600 4804.00 4821.29 69.00
2326 27.2700 4889.00 4856.19 70.00
2327 27.2800 4851.00 4876.33 70.00
2328 27.2900 4840.00 4883.20 70.00
2329 27.3000 4839.00 4881.95 70.00
2330 27.3100 4800.00 4879.53 69.00
2331 27.3200 4809.00 4882.08 69.00
2332 27.3300 4871.00 4892.36 70.00
2333 27.3400 4839.00 4907.23 70.00
2334 27.3500 4815.00 4915.13 69.00
2335 27.3600 4805.00 4900.17 69.00
2336 27.3700 4766.00 4854.87 69.00
2337 27.3800 4718.00 4789.31 69.00
2338 27.3900 4660.00 4721.89 68.00
2339 27.4000 4586.00 4667.16 68.00
2340 27.4100 4563.00 4633.18 68.00
2341 27.4200 4554.00 4624.40 67.00
2342 27.4300 4583.00 4644.24 68.00
2343 27.4400 4604.00 4696.60 68.00
2344 27.4500 4688.00 4786.29 68.00
2345 27.4600 4777.00 4917.92 69.00
2346 27.4700 4920.00 5093.80 70.00
2347 27.4800 5140.00 5309.31 72.00
2348 27.4900 5392.00 5545.48 73.00
2349 27.5000 5597.00 5756.97 75.00
2350 27.5100 5756.00 5872.00 76.00
2351 27.5200 5724.00 5836.23 76.00
2352 27.5300 5488.00 5669.41 74.00
2353 27.5400 5299.00 5442.76 73.00
2354 27.5500 5046.00 5216.86 71.00
2355 27.5600 4826.00 5022.30 69.00
2356 27.5700 4748.00 4869.56 69.00
2357 27.5800 4684.00 4758.68 68.00
2358 27.5900 4562.00 4684.70 68.00
2359 27.6000 4523.00 4641.69 67.00
2360 27.6100 4510.00 4623.00 67.00
2361 27.6200 4555.00 4622.80 67.00
2362 27.6300 4595.00 4635.40 68.00
2363 27.6400 4613.00 4654.31 68.00
2364 27.6500 4596.00 4671.20 68.00
2365 27.6600 4634.00 4677.09 68.00
2366 27.6700 4627.00 4666.13 68.00
2367 27.6800 4617.00 4639.25 68.00
2368 27.6900 4585.00 4603.42 68.00
2369 27.7000 4536.00 4567.05 67.00
2370 27.7100 4522.00 4536.68 67.00
2371 27.7200 4501.00 4516.17 67.00
2372 27.7300 4503.00 4507.33 67.00
2373 27.7400 4538.00 4510.52 67.00
2374 27.7500 4587.00 4525.10 68.00
2375 27.7600 4577.00 4549.64 68.00
2376 27.7700 4635.00 4582.05 68.00
2377 27.7800 4708.00 4619.56 69.00
2378 27.7900 4746.00 4658.72 69.00
2379 27.8000 4807.00 4695.31 69.00
2380 27.8100 4860.00 4724.61 70.00
2381 27.8200 4865.00 4742.03 70.00
2382 27.8300 4815.00 4744.05 69.00
2383 27.8400 4780.00 4728.88 69.00
2384 27.8500 4736.00 4698.92 69.00
2385 27.8600 4647.00 4657.32 68.00
2386 27.8700 4585.00 4607.66 68.00
2387 27.8800 4506.00 4554.14 67.00
2388 27.8900 4430.00 4500.40 67.00
2389 27.9000 4362.00 4448.68 66.00
2390 27.9100 4364.00 4400.62 66.00
2391 27.9200 4321.00 4357.21 66.00
2392 27.9300 4289.00 4318.96 65.00
2393 27.9400 4281.00 4286.01 65.00
2394 27.9500 4237.00 4258.23 65.00
2395 27.9600 4207.00 4235.26 65.00
2396 27.9700 4180.00 4216.98 65.00
2397 27.9800 4194.00 4202.23 65.00
2398 27.9900 4188.00 4190.84 65.00
2399 28.0000 4174.00 4182.37 65.00
2400 28.0100 4152.00 4176.58 64.00
2401 28.0200 4133.00 4172.83 64.00
2402 28.0300 4133.00 4171.41 64.00
2403 28.0400 4135.00 4172.17 64.00
2404 28.0500 4174.00 4175.25 65.00
2405 28.0600 4172.00 4180.94 65.00
2406 28.0700 4172.00 4189.75 65.00
2407 28.0800 4160.00 4202.41 64.00
2408 28.0900 4180.00 4219.94 65.00
2409 28.1000 4191.00 4243.43 65.00
2410 28.1100 4248.00 4273.74 65.00
2411 28.1200 4309.00 4310.82 66.00
2412 28.1300 4314.00 4352.83 66.00
2413 28.1400 4368.00 4396.34 66.00
2414 28.1500 4368.00 4438.60 66.00
2415 28.1600 4412.00 4476.21 66.00
2416 28.1700 4478.00 4499.10 67.00
2417 28.1800 4459.00 4493.93 67.00
2418 28.1900 4398.00 4458.95 66.00
2419 28.2000 4344.00 4407.91 66.00
2420 28.2100 4299.00 4356.26 66.00
2421 28.2200 4241.00 4312.98 65.00
2422 28.2300 4264.00 4281.40 65.00
2423 28.2400 4222.00 4261.95 65.00
2424 28.2500 4219.00 4253.89 65.00
2425 28.2600 4203.00 4256.35 65.00
2426 28.2700 4243.00 4268.98 65.00
2427 28.2800 4260.00 4292.21 65.00
2428 28.2900 4335.00 4327.22 66.00
2429 28.3000 4356.00 4375.54 66.00
2430 28.3100 4368.00 4438.44 66.00
2431 28.3200 4441.00 4515.95 67.00
2432 28.3300 4523.00 4605.75 67.00
2433 28.3400 4662.00 4701.03 68.00
2434 28.3500 4723.00 4787.85 69.00
2435 28.3600 4783.00 4845.32 69.00
2436 28.3700 4789.00 4854.31 69.00
2437 28.3800 4745.00 4812.25 69.00
2438 28.3900 4614.00 4735.55 68.00
2439 28.4000 4583.00 4646.24 68.00
2440 28.4100 4468.00 4560.72 67.00
2441 28.4200 4441.00 4487.98 67.00
2442 28.4300 4355.00 4432.06 66.00
2443 28.4400 4324.00 4394.11 66.00
2444 28.4500 4312.00 4373.93 66.00
2445 28.4600 4324.00 4370.90 66.00
2446 28.4700 4366.00 4384.98 66.00
2447 28.4800 4443.00 4417.49 67.00
2448 28.4900 4421.00 4471.77 66.00
2449 28.5000 4526.00 4552.86 67.00
2450 28.5100 4615.00 4666.46 68.00
2451 28.5200 4771.00 4812.41 69.00
2452 28.5300 4989.00 4981.92 71.00
2453 28.5400 5149.00 5142.46 72.00
2454 28.5500 5223.00 5229.09 72.00
2455 28.5600 5166.00 5185.73 72.00
2456 28.5700 4966.00 5039.05 70.00
2457 28.5800 4828.00 4864.30 69.00
2458 28.5900 4697.00 4712.89 69.00
2459 28.6000 4572.00 4606.07 68.00
2460 28.6100 4502.00 4550.16 67.00
2461 28.6200 4530.00 4545.25 67.00
2462 28.6300 4584.00 4587.51 68.00
2463 28.6400 4635.00 4666.68 68.00
2464 28.6500 4806.00 4756.71 69.00
2465 28.6600 4847.00 4806.74 70.00
2466 28.6700 4772.00 4769.84 69.00
2467 28.6800 4667.00 4659.53 68.00
2468 28.6900 4518.00 4528.44 67.00
2469 28.7000 4426.00 4412.63 67.00
2470 28.7100 4350.00 4323.80 66.00
2471 28.7200 4292.00 4261.36 66.00
2472 28.7300 4249.00 4220.04 65.00
2473 28.7400 4228.00 4193.63 65.00
2474 28.7500 4183.00 4176.92 65.00
2475 28.7600 4197.00 4166.44 65.00
2476 28.7700 4196.00 4160.04 65.00
2477 28.7800 4201.00 4156.61 65.00
2478 28.7900 4147.00 4155.92 64.00
2479 28.8000 4194.00 4157.13 65.00
2480 28.8100 4177.00 4160.61 65.00
2481 28.8200 4225.00 4166.65 65.00
2482 28.8300 4238.00 4175.81 65.00
2483 28.8400 4234.00 4188.99 65.00
2484 28.8500 4219.00 4207.50 65.00
2485 28.8600 4271.00 4233.09 65.00
2486 28.8700 4297.00 4267.94 66.00
2487 28.8800 4358.00 4314.52 66.00
2488 28.8900 4397.00 4375.34 66.00
2489 28.9000 4472.00 4452.58 67.00
2490 28.9100 4496.00 4547.52 67.00
2491 28.9200 4698.00 4659.66 69.00
2492 28.9300 4778.00 4785.15 69.00
2493 28.9400 4962.00 4915.03 70.00
2494 28.9500 5102.00 5033.69 71.00
2495 28.9600 5135.00 5121.45 72.00
2496 28.9700 5133.00 5163.59 72.00
2497 28.9800 5117.00 5161.33 72.00
2498 28.9900 5036.00 5131.62 71.00
2499 29.0000 4991.00 5093.44 71.00
2500 29.0100 4991.00 5057.75 71.00
2501 29.0200 4979.00 5029.35 71.00
2502 29.0300 4946.00 5010.87 70.00
2503 29.0400 4979.00 5001.67 71.00
2504 29.0500 4942.00 4996.97 70.00
2505 29.0600 5011.00 4988.37 71.00
2506 29.0700 5018.00 4969.03 71.00
2507 29.0800 4972.00 4935.39 71.00
2508 29.0900 4902.00 4888.44 70.00
2509 29.1000 4887.00 4832.65 70.00
2510 29.1100 4775.00 4773.29 69.00
2511 29.1200 4736.00 4714.33 69.00
2512 29.1300 4721.00 4656.97 69.00
2513 29.1400 4634.00 4599.53 68.00
2514 29.1500 4565.00 4539.75 68.00
2515 29.1600 4520.00 4478.39 67.00
2516 29.1700 4453.00 4419.46 67.00
2517 29.1800 4404.00 4367.21 66.00
2518 29.1900 4372.00 4324.12 66.00
2519 29.2000 4308.00 4291.10 66.00
2520 29.2100 4293.00 4267.87 66.00
2521 29.2200 4277.00 4254.09 65.00
2522 29.2300 4258.00 4248.79 65.00
2523 29.2400 4257.00 4251.10 65.00
2524 29.2500 4334.00 4260.15 66.00
2525 29.2600 4317.00 4275.06 66.00
2526 29.2700 4305.00 4294.80 66.00
2527 29.2800 4354.00 4318.05 66.00
2528 29.2900 4374.00 4342.99 66.00
2529 29.3000 4445.00 4367.18 67.00
2530 29.3100 4457.00 4387.55 67.00
2531 29.3200 4481.00 4401.10 67.00
2532 29.3300 4458.00 4406.29 67.00
2533 29.3400 4449.00 4404.50 67.00
2534 29.3500 4409.00 4399.60 66.00
2535 29.3600 4428.00 4395.88 67.00
2536 29.3700 4446.00 4395.66 67.00
2537 29.3800 4444.00 4397.36 67.00
2538 29.3900 4418.00 4394.34 66.00
2539 29.4000 4430.00 4377.40 67.00
2540 29.4100 4377.00 4342.95 66.00
2541 29.4200 4366.00 4297.31 66.00
2542 29.4300 4308.00 4250.35 66.00
2543 29.4400 4295.00 4208.92 66.00
2544 29.4500 4182.00 4176.10 65.00
2545 29.4600 4202.00 4152.86 65.00
2546 29.4700 4131.00 4139.29 64.00
2547 29.4800 4119.00 4135.17 64.00
2548 29.4900 4188.00 4140.12 65.00
2549 29.5000 4213.00 4153.25 65.00
2550 29.5100 4213.00 4172.24 65.00
2551 29.5200 4216.00 4191.43 65.00
2552 29.5300 4220.00 4200.97 65.00
2553 29.5400 4221.00 4192.83 65.00
2554 29.5500 4215.00 4169.84 65.00
2555 29.5600 4152.00 4141.83 64.00
2556 29.5700 4127.00 4115.86 64.00
2557 29.5800 4112.00 4095.24 64.00
2558 29.5900 4094.00 4080.08 64.00
2559 29.6000 4130.00 4069.66 64.00
2560 29.6100 4170.00 4062.91 65.00
2561 29.6200 4145.00 4058.83 64.00
2562 29.6300 4113.00 4056.68 64.00
2563 29.6400 4106.00 4055.98 64.00
2564 29.6500 4107.00 4056.55 64.00
2565 29.6600 4109.00 4058.40 64.00
2566 29.6700 4148.00 4061.77 64.00
2567 29.6800 4155.00 4067.05 64.00
2568 29.6900 4133.00 4074.87 64.00
2569 29.7000 4132.00 4086.00 64.00
2570 29.7100 4188.00 4101.32 65.00
2571 29.7200 4214.00 4121.64 65.00
2572 29.7300 4254.00 4147.58 65.00
2573 29.7400 4262.00 4179.07 65.00
2574 29.7500 4264.00 4214.94 65.00
2575 29.7600 4325.00 4252.18 66.00
2576 29.7700 4366.00 4284.88 66.00
2577 29.7800 4419.00 4306.20 66.00
2578 29.7900 4422.00 4312.59 66.00
2579 29.8000 4395.00 4307.83 66.00
2580 29.8100 4333.00 4300.90 66.00
2581 29.8200 4388.00 4300.89 66.00
2582 29.8300 4369.00 4314.03 66.00
2583 29.8400 4428.00 4342.78 67.00
2584 29.8500 4455.00 4384.15 67.00
2585 29.8600 4485.00 4425.86 67.00
2586 29.8700 4492.00 4446.46 67.00
2587 29.8800 4475.00 4434.08 67.00
2588 29.8900 4476.00 4402.40 67.00
2589 29.9000 4447.00 4371.80 67.00
2590 29.9100 4420.00 4353.56 66.00
2591 29.9200 4379.00 4350.03 66.00
2592 29.9300 4340.00 4359.29 66.00
2593 29.9400 4376.00 4377.33 66.00
2594 29.9500 4390.00 4398.97 66.00
2595 29.9600 4446.00 4418.55 67.00
2596 29.9700 4502.00 4430.78 67.00
2597 29.9800 4471.00 4432.08 67.00
2598 29.9900 4462.00 4421.45 67.00
2599 30.0000 4441.00 4400.36 67.00
2600 30.0100 4380.00 4371.98 66.00
2601 30.0200 4357.00 4340.37 66.00
2602 30.0300 4345.00 4309.56 66.00
2603 30.0400 4336.00 4282.51 66.00
2604 30.0500 4301.00 4260.95 66.00
2605 30.0600 4262.00 4245.40 65.00
2606 30.0700 4260.00 4235.63 65.00
2607 30.0800 4240.00 4230.80 65.00
2608 30.0900 4292.00 4229.60 66.00
2609 30.1000 4264.00 4230.39 65.00
2610 30.1100 4275.00 4231.48 65.00
2611 30.1200 4269.00 4231.47 65.00
2612 30.1300 4244.00 4229.61 65.00
2613 30.1400 4256.00 4226.05 65.00
2614 30.1500 4260.00 4221.73 65.00
2615 30.1600 4238.00 4218.12 65.00
2616 30.1700 4251.00 4217.11 65.00
2617 30.1800 4289.00 4221.00 65.00
2618 30.1900 4272.00 4232.82 65.00
2619 30.2000 4302.00 4256.57 66.00
2620 30.2100 4347.00 4297.28 66.00
2621 30.2200 4387.00 4360.52 66.00
2622 30.2300 4431.00 4451.09 67.00
2623 30.2400 4587.00 4570.47 68.00
2624 30.2500 4731.00 4712.32 69.00
2625 30.2600 4894.00 4853.90 70.00
2626 30.2700 4975.00 4950.42 71.00
2627 30.2800 5005.00 4957.39 71.00
2628 30.2900 4886.00 4876.93 70.00
2629 30.3000 4752.00 4756.19 69.00
2630 30.3100 4608.00 4640.25 68.00
2631 30.3200 4587.00 4552.01 68.00
2632 30.3300 4531.00 4498.41 67.00
2633 30.3400 4505.00 4478.32 67.00
2634 30.3500 4503.00 4486.78 67.00
2635 30.3600 4511.00 4516.72 67.00
2636 30.3700 4554.00 4559.54 67.00
2637 30.3800 4661.00 4605.04 68.00
2638 30.3900 4709.00 4642.24 69.00
2639 30.4000 4718.00 4662.88 69.00
2640 30.4100 4671.00 4665.49 68.00
2641 30.4200 4685.00 4655.10 68.00
2642 30.4300 4655.00 4637.59 68.00
2643 30.4400 4621.00 4614.66 68.00
2644 30.4500 4623.00 4585.41 68.00
2645 30.4600 4573.00 4551.96 68.00
2646 30.4700 4515.00 4519.39 67.00
2647 30.4800 4521.00 4490.43 67.00
2648 30.4900 4487.00 4463.58 67.00
2649 30.5000 4488.00 4435.24 67.00
2650 30.5100 4445.00 4402.99 67.00
2651 30.5200 4424.00 4367.20 67.00
2652 30.5300 4363.00 4330.94 66.00
2653 30.5400 4353.00 4297.24 66.00
2654 30.5500 4312.00 4268.62 66.00
2655 30.5600 4297.00 4246.94 66.00
2656 30.5700 4341.00 4233.73 66.00
2657 30.5800 4273.00 4230.75 65.00
2658 30.5900 4248.00 4239.71 65.00
2659 30.6000 4293.00 4262.21 66.00
2660 30.6100 4339.00 4298.94 66.00
2661 30.6200 4390.00 4349.32 66.00
2662 30.6300 4452.00 4412.06 67.00
2663 30.6400 4472.00 4482.36 67.00
2664 30.6500 4529.00 4545.74 67.00
2665 30.6600 4593.00 4579.63 68.00
2666 30.6700 4585.00 4573.07 68.00
2667 30.6800 4585.00 4541.20 68.00
2668 30.6900 4537.00 4509.81 67.00
2669 30.7000 4547.00 4495.98 67.00
2670 30.7100 4474.00 4506.52 67.00
2671 30.7200 4542.00 4541.75 67.00
2672 30.7300 4561.00 4597.65 68.00
2673 30.7400 4639.00 4666.41 68.00
2674 30.7500 4758.00 4735.96 69.00
2675 30.7600 4834.00 4791.18 70.00
2676 30.7700 4811.00 4818.44 69.00
2677 30.7800 4803.00 4812.23 69.00
2678 30.7900 4775.00 4776.90 69.00
2679 30.8000 4721.00 4721.47 69.00
2680 30.8100 4669.00 4654.20 68.00
2681 30.8200 4594.00 4581.21 68.00
2682 30.8300 4478.00 4507.53 67.00
2683 30.8400 4476.00 4437.22 67.00
2684 30.8500 4378.00 4373.36 66.00
2685 30.8600 4352.00 4317.62 66.00
2686 30.8700 4269.00 4270.50 65.00
2687 30.8800 4270.00 4231.66 65.00
2688 30.8900 4280.00 4200.40 65.00
2689 30.9000 4242.00 4175.79 65.00
2690 30.9100 4174.00 4156.95 65.00
2691 30.9200 4212.00 4143.31 65.00
2692 30.9300 4204.00 4133.66 65.00
2693 30.9400 4220.00 4127.78 65.00
2694 30.9500 4169.00 4125.16 65.00
2695 30.9600 4208.00 4125.72 65.00
2696 30.9700 4205.00 4129.57 65.00
2697 30.9800 4234.00 4137.10 65.00
2698 30.9900 4273.00 4149.05 65.00
2699 31.0000 4304.00 4166.51 66.00
2700 31.0100 4276.00 4190.91 65.00
2701 31.0200 4322.00 4223.87 66.00
2702 31.0300 4351.00 4267.11 66.00
2703 31.0400 4357.00 4322.09 66.00
2704 31.0500 4486.00 4389.68 67.00
2705 31.0600 4514.00 4469.60 67.00
2706 31.0700 4587.00 4559.78 68.00
2707 31.0800 4705.00 4655.22 69.00
2708 31.0900 4766.00 4746.65 69.00
2709 31.1000 4849.00 4820.99 70.00
2710 31.1100 4932.00 4864.83 70.00
2711 31.1200 4950.00 4872.33 70.00
2712 31.1300 4914.00 4850.31 70.00
2713 31.1400 4871.00 4814.97 70.00
2714 31.1500 4795.00 4783.75 69.00
2715 31.1600 4836.00 4769.92 70.00
2716 31.1700 4830.00 4780.10 69.00
2717 31.1800 4883.00 4813.29 70.00
2718 31.1900 4915.00 4857.71 70.00
2719 31.2000 4930.00 4888.97 70.00
2720 31.2100 4939.00 4881.22 70.00
2721 31.2200 4913.00 4830.40 70.00
2722 31.2300 4888.00 4756.63 70.00
2723 31.2400 4778.00 4682.48 69.00
2724 31.2500 4683.00 4620.35 68.00
2725 31.2600 4635.00 4573.86 68.00
2726 31.2700 4578.00 4542.64 68.00
2727 31.2800 4575.00 4525.10 68.00
2728 31.2900 4574.00 4519.50 68.00
2729 31.3000 4548.00 4523.89 67.00
2730 31.3100 4510.00 4535.85 67.00
2731 31.3200 4520.00 4552.36 67.00
2732 31.3300 4540.00 4570.61 67.00
2733 31.3400 4559.00 4588.86 68.00
2734 31.3500 4594.00 4606.81 68.00
2735 31.3600 4615.00 4624.13 68.00
2736 31.3700 4628.00 4636.47 68.00
2737 31.3800 4639.00 4632.26 68.00
2738 31.3900 4568.00 4598.60 68.00
2739 31.4000 4546.00 4535.45 67.00
2740 31.4100 4526.00 4457.01 67.00
2741 31.4200 4441.00 4380.42 67.00
2742 31.4300 4339.00 4315.58 66.00
2743 31.4400 4286.00 4265.94 65.00
2744 31.4500 4264.00 4231.57 65.00
2745 31.4600 4220.00 4211.11 65.00
2746 31.4700 4267.00 4202.66 65.00
2747 31.4800 4222.00 4204.42 65.00
2748 31.4900 4244.00 4214.92 65.00
2749 31.5000 4263.00 4232.48 65.00
2750 31.5100 4297.00 4255.37 66.00
2751 31.5200 4324.00 4280.87 66.00
2752 31.5300 4388.00 4305.32 66.00
2753 31.5400 4352.00 4323.24 66.00
2754 31.5500 4354.00 4328.13 66.00
2755 31.5600 4388.00 4315.89 66.00
2756 31.5700 4296.00 4288.43 66.00
2757 31.5800 4297.00 4252.39 66.00
2758 31.5900 4293.00 4214.64 66.00
2759 31.6000 4222.00 4179.66 65.00
2760 31.6100 4164.00 4149.60 65.00
2761 31.6200 4153.00 4125.10 64.00
2762 31.6300 4130.00 4105.99 64.00
2763 31.6400 4130.00 4091.65 64.00
2764 31.6500 4111.00 4081.28 64.00
2765 31.6600 4143.00 4074.11 64.00
2766 31.6700 4087.00 4069.46 64.00
2767 31.6800 4133.00 4066.80 64.00
2768 31.6900 4094.00 4065.76 64.00
2769 31.7000 4091.00 4066.10 64.00
2770 31.7100 4109.00 4067.67 64.00
2771 31.7200 4115.00 4070.39 64.00
2772 31.7300 4090.00 4074.16 64.00
2773 31.7400 4122.00 4079.05 64.00
2774 31.7500 4103.00 4084.83 64.00
2775 31.7600 4126.00 4091.44 64.00
2776 31.7700 4176.00 4098.70 65.00
2777 31.7800 4173.00 4106.36 65.00
2778 31.7900 4109.00 4114.10 64.00
2779 31.8000 4148.00 4121.56 64.00
2780 31.8100 4146.00 4128.54 64.00
2781 31.8200 4178.00 4135.04 65.00
2782 31.8300 4213.00 4141.36 65.00
2783 31.8400 4172.00 4148.11 65.00
2784 31.8500 4169.00 4156.03 65.00
2785 31.8600 4168.00 4165.77 65.00
2786 31.8700 4179.00 4177.81 65.00
2787 31.8800 4212.00 4192.35 65.00
2788 31.8900 4275.00 4209.27 65.00
2789 31.9000 4251.00 4228.45 65.00
2790 31.9100 4243.00 4249.12 65.00
2791 31.9200 4299.00 4270.21 66.00
2792 31.9300 4310.00 4290.59 66.00
2793 31.9400 4353.00 4310.22 66.00
2794 31.9500 4351.00 4331.12 66.00
2795 31.9600 4382.00 4356.47 66.00
2796 31.9700 4386.00 4389.02 66.00
2797 31.9800 4370.00 4429.86 66.00
2798 31.9900 4442.00 4477.57 67.00
2799 32.0000 4471.00 4527.73 67.00
2800 32.0100 4564.00 4572.45 68.00
2801 32.0200 4589.00 4601.27 68.00
2802 32.0300 4564.00 4604.84 68.00
2803 32.0400 4567.00 4579.99 68.00
2804 32.0500 4468.00 4531.77 67.00
2805 32.0600 4483.00 4469.89 67.00
2806 32.0700 4404.00 4403.86 66.00
2807 32.0800 4345.00 4340.37 66.00
2808 32.0900 4217.00 4283.26 65.00
2809 32.1000 4225.00 4234.28 65.00
2810 32.1100 4157.00 4193.64 64.00
2811 32.1200 4165.00 4161.21 65.00
2812 32.1300 4134.00 4136.01 64.00
2813 32.1400 4132.00 4116.76 64.00
2814 32.1500 4082.00 4102.38 64.00
2815 32.1600 4102.00 4091.83 64.00
2816 32.1700 4041.00 4084.25 64.00
2817 32.1800 4102.00 4079.04 64.00
2818 32.1900 4104.00 4075.66 64.00
2819 32.2000 4039.00 4073.89 64.00
2820 32.2100 4090.00 4073.59 64.00
2821 32.2200 4068.00 4074.71 64.00
2822 32.2300 4072.00 4077.26 64.00
2823 32.2400 4070.00 4081.26 64.00
2824 32.2500 4066.00 4086.68 64.00
2825 32.2600 4089.00 4093.46 64.00
2826 32.2700 4101.00 4101.37 64.00
2827 32.2800 4107.00 4109.99 64.00
2828 32.2900 4099.00 4118.65 64.00
2829 32.3000 4115.00 4126.53 64.00
2830 32.3100 4142.00 4133.10 64.00
2831 32.3200 4164.00 4138.46 65.00
2832 32.3300 4101.00 4143.56 64.00
2833 32.3400 4158.00 4149.58 64.00
2834 32.3500 4132.00 4157.54 64.00
2835 32.3600 4166.00 4168.00 65.00
2836 32.3700 4184.00 4180.97 65.00
2837 32.3800 4180.00 4195.89 65.00
2838 32.3900 4155.00 4211.49 64.00
2839 32.4000 4216.00 4225.83 65.00
2840 32.4100 4220.00 4236.31 65.00
2841 32.4200 4199.00 4240.68 65.00
2842 32.4300 4227.00 4237.48 65.00
2843 32.4400 4211.00 4227.01 65.00
2844 32.4500 4166.00 4211.06 65.00
2845 32.4600 4144.00 4192.05 64.00
2846 32.4700 4113.00 4172.17 64.00
2847 32.4800 4087.00 4153.03 64.00
2848 32.4900 4147.00 4135.58 64.00
2849 32.5000 4087.00 4120.39 64.00
2850 32.5100 4081.00 4107.62 64.00
2851 32.5200 4085.00 4097.21 64.00
2852 32.5300 4040.00 4088.92 64.00
2853 32.5400 4043.00 4082.38 64.00
2854 32.5500 4091.00 4077.20 64.00
2855 32.5600 4050.00 4072.94 64.00
2856 32.5700 4009.00 4069.35 63.00
2857 32.5800 4037.00 4066.21 64.00
2858 32.5900 4026.00 4063.27 63.00
2859 32.6000 4049.00 4060.85 64.00
2860 32.6100 4075.00 4058.77 64.00
2861 32.6200 4057.00 4057.16 64.00
2862 32.6300 4015.00 4055.99 63.00
2863 32.6400 4022.00 4055.32 63.00
2864 32.6500 4021.00 4055.23 63.00
2865 32.6600 4035.00 4055.82 64.00
2866 32.6700 4058.00 4057.27 64.00
2867 32.6800 4047.00 4059.84 64.00
2868 32.6900 4023.00 4063.91 63.00
2869 32.7000 4037.00 4069.93 64.00
2870 32.7100 4061.00 4078.34 64.00
2871 32.7200 4067.00 4089.50 64.00
2872 32.7300 4099.00 4103.34 64.00
2873 32.7400 4110.00 4119.03 64.00
2874 32.7500 4097.00 4134.09 64.00
2875 32.7600 4130.00 4144.34 64.00
2876 32.7700 4105.00 4146.02 64.00
2877 32.7800 4099.00 4139.91 64.00
2878 32.7900 4153.00 4129.66 64.00
2879 32.8000 4107.00 4119.97 64.00
2880 32.8100 4062.00 4113.43 64.00
2881 32.8200 4083.00 4111.27 64.00
2882 32.8300 4074.00 4114.02 64.00
2883 32.8400 4077.00 4121.96 64.00
2884 32.8500 4082.00 4135.28 64.00
2885 32.8600 4120.00 4154.06 64.00
2886 32.8700 4093.00 4178.15 64.00
2887 32.8800 4184.00 4206.89 65.00
2888 32.8900 4171.00 4238.75 65.00
2889 32.9000 4240.00 4270.67 65.00
2890 32.9100 4260.00 4297.76 65.00
2891 32.9200 4309.00 4313.85 66.00
2892 32.9300 4280.00 4314.15 65.00
2893 32.9400 4262.00 4298.65 65.00
2894 32.9500 4220.00 4272.58 65.00
2895 32.9600 4197.00 4242.86 65.00
2896 32.9700 4196.00 4214.80 65.00
2897 32.9800 4160.00 4191.31 64.00
2898 32.9900 4089.00 4173.55 64.00
2899 33.0000 4133.00 4161.50 64.00
2900 33.0100 4094.00 4154.70 64.00
2901 33.0200 4104.00 4152.07 64.00
2902 33.0300 4136.00 4152.95 64.00
2903 33.0400 4142.00 4157.70 64.00
2904 33.0500 4093.00 4168.15 64.00
2905 33.0600 4154.00 4187.31 64.00
2906 33.0700 4173.00 4218.33 65.00
2907 33.0800 4205.00 4263.75 65.00
2908 33.0900 4268.00 4323.64 65.00
2909 33.1000 4308.00 4392.51 66.00
2910 33.1100 4364.00 4453.64 66.00
2911 33.1200 4421.00 4480.46 66.00
2912 33.1300 4389.00 4458.98 66.00
2913 33.1400 4386.00 4405.35 66.00
2914 33.1500 4345.00 4345.99 66.00
2915 33.1600 4272.00 4296.76 65.00
2916 33.1700 4210.00 4262.64 65.00
2917 33.1800 4224.00 4243.32 65.00
2918 33.1900 4155.00 4236.30 64.00
2919 33.2000 4172.00 4238.04 65.00
2920 33.2100 4215.00 4244.22 65.00
2921 33.2200 4187.00 4249.77 65.00
2922 33.2300 4176.00 4249.73 65.00
2923 33.2400 4183.00 4241.52 65.00
2924 33.2500 4166.00 4226.32 65.00
2925 33.2600 4186.00 4207.72 65.00
2926 33.2700 4179.00 4189.20 65.00
2927 33.2800 4148.00 4172.97 64.00
2928 33.2900 4079.00 4159.98 64.00
2929 33.3000 4118.00 4150.42 64.00
2930 33.3100 4104.00 4144.37 64.00
2931 33.3200 4139.00 4141.41 64.00
2932 33.3300 4124.00 4141.16 64.00
2933 33.3400 4140.00 4143.62 64.00
2934 33.3500 4090.00 4147.95 64.00
2935 33.3600 4112.00 4154.48 64.00
2936 33.3700 4104.00 4163.43 64.00
2937 33.3800 4129.00 4175.31 64.00
2938 33.3900 4128.00 4190.91 64.00
2939 33.4000 4177.00 4211.29 65.00
2940 33.4100 4168.00 4237.55 65.00
2941 33.4200 4207.00 4270.62 65.00
2942 33.4300 4211.00 4310.54 65.00
2943 33.4400 4287.00 4355.63 65.00
2944 33.4500 4336.00 4401.96 66.00
2945 33.4600 4382.00 4444.71 66.00
2946 33.4700 4405.00 4479.98 66.00
2947 33.4800 4468.00 4502.94 67.00
2948 33.4900 4467.00 4505.22 67.00
2949 33.5000 4435.00 4480.17 67.00
2950 33.5100 4415.00 4431.71 66.00
2951 33.5200 4347.00 4372.33 66.00
2952 33.5300 4265.00 4313.63 65.00
2953 33.5400 4203.00 4261.92 65.00
2954 33.5500 4175.00 4219.49 65.00
2955 33.5600 4135.00 4186.36 64.00
2956 33.5700 4164.00 4161.54 65.00
2957 33.5800 4131.00 4143.57 64.00
2958 33.5900 4123.00 4130.82 64.00
2959 33.6000 4097.00 4121.65 64.00
2960 33.6100 4066.00 4114.46 64.00
2961 33.6200 4081.00 4108.16 64.00
2962 33.6300 4095.00 4102.37 64.00
2963 33.6400 4064.00 4097.28 64.00
2964 33.6500 4063.00 4093.54 64.00
2965 33.6600 4043.00 4091.37 64.00
2966 33.6700 4042.00 4090.84 64.00
2967 33.6800 4081.00 4092.22 64.00
2968 33.6900 4107.00 4095.44 64.00
2969 33.7000 4082.00 4100.50 64.00
2970 33.7100 4055.00 4107.26 64.00
2971 33.7200 4081.00 4115.48 64.00
2972 33.7300 4069.00 4124.66 64.00
2973 33.7400 4080.00 4134.36 64.00
2974 33.7500 4135.00 4144.52 64.00
2975 33.7600 4104.00 4156.31 64.00
2976 33.7700 4137.00 4172.17 64.00
2977 33.7800 4134.00 4195.56 64.00
2978 33.7900 4143.00 4228.79 64.00
2979 33.8000 4256.00 4274.21 65.00
2980 33.8100 4319.00 4331.72 66.00
2981 33.8200 4416.00 4396.91 66.00
2982 33.8300 4395.00 4457.85 66.00
2983 33.8400 4442.00 4495.79 67.00
2984 33.8500 4457.00 4498.26 67.00
2985 33.8600 4440.00 4472.33 67.00
2986 33.8700 4406.00 4436.67 66.00
2987 33.8800 4398.00 4405.73 66.00
2988 33.8900 4330.00 4385.63 66.00
2989 33.9000 4345.00 4376.91 66.00
2990 33.9100 4347.00 4377.37 66.00
2991 33.9200 4390.00 4384.26 66.00
2992 33.9300 4420.00 4394.65 66.00
2993 33.9400 4421.00 4406.64 66.00
2994 33.9500 4445.00 4419.29 67.00
2995 33.9600 4445.00 4432.18 67.00
2996 33.9700 4488.00 4445.09 67.00
2997 33.9800 4482.00 4458.11 67.00
2998 33.9900 4554.00 4471.38 67.00
2999 34.0000 4581.00 4484.45 68.00
3000 34.0100 4595.00 4494.44 68.00
3001 34.0200 4620.00 4495.65 68.00
3002 34.0300 4596.00 4481.88 68.00
3003 34.0400 4520.00 4451.25 67.00
3004 34.0500 4509.00 4408.06 67.00
3005 34.0600 4435.00 4359.54 67.00
3006 34.0700 4389.00 4311.93 66.00
3007 34.0800 4305.00 4268.85 66.00
3008 34.0900 4248.00 4231.88 65.00
3009 34.1000 4179.00 4201.16 65.00
3010 34.1100 4215.00 4176.12 65.00
3011 34.1200 4198.00 4155.81 65.00
3012 34.1300 4174.00 4139.19 65.00
3013 34.1400 4179.00 4125.26 65.00
3014 34.1500 4152.00 4113.18 64.00
3015 34.1600 4153.00 4102.32 64.00
3016 34.1700 4148.00 4092.31 64.00
3017 34.1800 4134.00 4082.97 64.00
3018 34.1900 4087.00 4074.31 64.00
3019 34.2000 4066.00 4066.44 64.00
3020 34.2100 4066.00 4059.67 64.00
3021 34.2200 4102.00 4054.27 64.00
3022 34.2300 4091.00 4050.72 64.00
3023 34.2400 4067.00 4049.55 64.00
3024 34.2500 4041.00 4051.26 64.00
3025 34.2600 4058.00 4056.22 64.00
3026 34.2700 4061.00 4064.45 64.00
3027 34.2800 4104.00 4075.12 64.00
3028 34.2900 4109.00 4085.83 64.00
3029 34.3000 4129.00 4092.16 64.00
3030 34.3100 4052.00 4089.48 64.00
3031 34.3200 4063.00 4076.94 64.00
3032 34.3300 4049.00 4058.30 64.00
3033 34.3400 4056.00 4038.35 64.00
3034 34.3500 4086.00 4020.07 64.00
3035 34.3600 4072.00 4004.66 64.00
3036 34.3700 4055.00 3992.28 64.00
3037 34.3800 4051.00 3982.63 64.00
3038 34.3900 4000.00 3975.23 63.00
3039 34.4000 4028.00 3969.61 63.00
3040 34.4100 4031.00 3965.36 63.00
3041 34.4200 3993.00 3962.05 63.00
3042 34.4300 3978.00 3959.74 63.00
3043 34.4400 4011.00 3958.13 63.00
3044 34.4500 4023.00 3957.20 63.00
3045 34.4600 4011.00 3956.81 63.00
3046 34.4700 4023.00 3956.79 63.00
3047 34.4800 4014.00 3956.87 63.00
loop_
_pd_proc_info_excluded_regions
'from 0.01 to 4.010'
'from 34.49 to 78.048'
loop_
_refln_index_h
_refln_index_k
_refln_index_l
_refln_F_squared_calc
_refln_F_squared_meas
_refln_F_squared_sigma
_refln_observed_status
_refln_d_spacing
2 0 0 518.25 465.32 7.12 o 5.821988
1 0 1 1026.65 1032.46 10.69 o 4.087426
2 0 1 3428.07 3304.15 19.02 o 3.492540
2 1 0 2011.55 1966.69 16.13 o 3.428593
0 1 1 5661.45 5667.41 26.63 o 3.042264
1 1 1 29826.03 29902.77 40.81 o 2.943457
4 0 0 56922.67 57092.86 112.71 o 2.910994
3 0 1 98.83 98.50 0.22 o 2.900565
2 1 1 5.12 5.84 0.85 o 2.696332
4 0 1 154.67 138.47 2.80 o 2.421875
4 1 0 3216.56 3249.89 7.79 o 2.400245
3 1 1 15918.53 16033.75 37.25 o 2.394389
0 0 2 26161.62 25525.81 122.26 o 2.182608
1 0 2 6126.93 6298.06 39.57 o 2.145246
0 2 0 43879.30 43533.33 149.13 o 2.121121
4 1 1 3647.07 3522.32 20.57 o 2.103260
5 0 1 4341.31 4496.99 43.77 o 2.054686
2 0 2 397.80 412.28 4.47 o 2.043713
2 2 0 242.01 436.45 38.80 o 1.992972
6 0 0 1748.70 2016.68 64.51 o 1.940663
1 1 2 2941.96 3094.99 23.68 o 1.914392
3 0 2 5470.58 5511.54 43.30 o 1.902441
1 2 1 390.82 460.53 12.27 o 1.882712
5 1 1 20241.48 20285.68 58.03 o 1.849205
2 1 2 164.50 162.54 0.53 o 1.841193
2 2 1 1570.60 1685.92 25.30 o 1.812958
6 0 1 1606.34 1734.38 33.38 o 1.773314
6 1 0 1953.89 2105.07 35.13 o 1.764770
4 0 2 16587.21 16336.49 85.46 o 1.746270
3 1 2 1446.31 1400.05 11.45 o 1.735881
4 2 0 28370.03 27746.68 110.59 o 1.714296
3 2 1 97.55 95.03 0.40 o 1.712159
6 1 1 22.89 0.29 0.52 < 1.636122
4 1 2 1166.04 1086.55 30.87 o 1.614809
4 2 1 79.81 73.09 1.69 o 1.595660
5 0 2 3154.06 2848.88 65.30 o 1.592511
7 0 1 439.13 221.09 39.69 o 1.554393
0 2 2 14141.30 13567.99 95.41 o 1.521132
1 2 2 3192.17 3153.12 38.06 o 1.508316
5 1 2 2797.84 2727.83 40.75 o 1.490922
5 2 1 2182.34 2139.13 36.36 o 1.475811
2 2 2 229.64 228.31 4.40 o 1.471728
7 1 1 3132.62 3171.42 26.25 o 1.459504
8 0 0 14857.26 15333.32 129.53 o 1.455497
6 0 2 1744.89 1787.02 18.20 o 1.450282
1 0 3 798.57 807.12 14.28 o 1.443842
6 2 0 1058.33 1093.08 51.72 o 1.431810
3 2 2 2896.16 2751.71 35.76 o 1.416252
2 0 3 3522.30 3333.10 41.16 o 1.411651
8 0 1 217.30 219.35 2.82 o 1.380765
8 1 0 4359.99 4400.12 41.92 o 1.376720
0 1 3 8097.02 8116.78 70.56 o 1.376361
2 3 0 285.43 287.49 2.40 o 1.374129
6 1 2 1.80 1.81 0.02 o 1.372305
1 1 3 3121.48 3195.19 32.20 o 1.366845
3 0 3 1617.45 1703.54 19.59 o 1.362475
6 2 1 840.00 911.79 13.70 o 1.360494
4 2 2 9383.79 9393.01 62.47 o 1.348166
0 3 1 1481.02 1481.86 9.19 o 1.345257
2 1 3 0.00 0.00 0.00 o 1.339440
1 3 1 8446.32 8594.65 67.05 o 1.336367
7 0 2 2448.82 2525.74 72.83 o 1.322999
8 1 1 1218.22 1336.51 43.47 o 1.312969
2 3 1 1.08 1.20 0.04 o 1.310721
4 0 3 197.91 243.66 11.82 o 1.301532
3 1 3 834.84 1032.53 50.29 o 1.297214
5 2 2 1758.99 1817.80 20.34 o 1.273527
4 3 0 1035.44 1068.74 11.21 o 1.271948
3 3 1 4634.85 4779.56 50.24 o 1.271074
7 1 2 342.60 364.48 13.28 o 1.263005
7 2 1 340.02 386.98 17.94 o 1.253779
4 1 3 5810.49 5647.81 58.78 o 1.244288
9 0 1 4357.56 4148.30 52.84 o 1.240440
5 0 3 14.63 14.60 0.33 o 1.234000
4 3 1 1060.49 1339.28 56.23 o 1.221163
8 0 2 4678.66 5148.11 118.50 o 1.210938
8 2 0 8506.64 9014.08 115.67 o 1.200123
6 2 2 1078.44 1144.64 14.81 o 1.197194
1 2 3 509.72 516.48 4.71 o 1.193564
9 1 1 6794.25 6744.53 64.22 o 1.190587
5 1 3 3471.60 3453.93 35.31 o 1.184889
1 3 2 822.75 829.84 15.84 o 1.180656
2 2 3 1902.64 1946.48 45.33 o 1.175186
5 3 1 6747.45 6832.53 61.77 o 1.164869
8 1 2 1750.11 1769.47 16.20 o 1.164428
10 0 0 1201.82 1214.87 11.36 o 1.164397
6 0 3 2115.63 2142.26 19.31 o 1.164180
2 3 2 136.78 138.22 1.32 o 1.162859
8 2 1 125.76 122.59 4.17 o 1.157186
3 2 3 1036.76 1221.36 59.70 o 1.146356
6 3 0 420.30 476.38 24.30 o 1.142864
3 3 2 402.08 335.36 42.59 o 1.134905
10 0 1 492.94 449.82 15.50 o 1.125060
10 1 0 1479.20 1343.26 42.99 o 1.122868
6 1 3 0.01 0.01 0.00 o 1.122673
7 2 2 1382.19 1253.45 40.23 o 1.122543
9 0 2 861.92 564.69 85.10 o 1.112939
4 2 3 117.89 76.83 12.69 o 1.109340
6 3 1 5.65 1.94 1.02 < 1.105600
4 3 2 439.86 330.06 35.52 o 1.098954
7 0 3 974.92 699.27 64.25 o 1.095192
0 0 4 702.84 476.95 36.21 o 1.091304
10 1 1 20.13 12.73 1.38 o 1.087467
1 0 4 1994.79 1220.96 111.79 o 1.086542
9 1 2 1475.98 1278.48 53.74 o 1.076510
2 0 4 154.54 139.28 3.49 o 1.072623
9 2 1 2556.80 2324.04 68.34 o 1.070780
5 2 3 10.38 9.36 0.35 o 1.066629
0 4 0 8152.70 7400.57 226.52 o 1.060561
7 1 3 0.27 0.24 0.01 o 1.060424
5 3 2 876.63 794.51 25.20 o 1.057387
1 1 4 493.60 436.62 8.60 o 1.052567
8 2 2 2803.62 2466.98 55.95 o 1.051630
3 0 4 1477.22 1308.53 26.45 o 1.050567
7 3 1 983.58 882.50 28.50 o 1.046001
2 4 0 59.70 58.56 1.83 o 1.043390
2 1 4 2256.09 2300.10 78.97 o 1.039898
8 0 3 329.74 283.05 21.11 o 1.029042
11 0 1 145.68 125.68 9.92 o 1.028729
10 0 2 1337.18 1149.36 86.22 o 1.027343
1 4 1 22.44 19.60 1.11 o 1.026567
4 0 4 406.44 360.84 13.25 o 1.021857
10 2 0 787.06 697.52 29.42 o 1.020714
6 2 3 1204.21 1067.20 44.88 o 1.020568
3 1 4 229.76 213.59 6.09 o 1.019763
2 4 1 254.88 243.98 6.30 o 1.014804
8 3 0 1652.63 1603.42 43.85 o 1.014232
0 3 3 2736.58 2654.45 84.52 o 1.014088
6 3 2 3.23 3.17 0.10 o 1.012463
1 3 3 1190.11 1183.84 48.60 o 1.010264
8 1 3 2272.18 2230.67 52.86 o 1.000041
11 1 1 168.40 163.92 4.14 o 0.999754
2 3 3 0.05 0.05 0.00 o 0.999046
10 1 2 185.68 182.41 4.22 o 0.998482
4 4 0 5673.83 5633.08 119.72 o 0.996486
3 4 1 77.61 77.07 1.69 o 0.996066
10 2 1 286.51 294.63 9.23 o 0.993904
4 1 4 112.24 111.98 2.77 o 0.993442
5 0 4 1447.64 1600.96 71.04 o 0.988183
8 3 1 411.43 458.73 23.51 o 0.987917
9 2 2 517.93 582.98 34.13 o 0.985518
3 3 3 319.66 363.97 46.65 o 0.981152
7 2 3 640.25 767.02 45.52 o 0.973132
4 4 1 16.08 18.30 0.84 o 0.971495
0 2 4 466.44 523.75 22.47 o 0.970401
12 0 0 2015.89 2254.64 124.42 o 0.970331
1 2 4 1202.72 1320.13 57.41 o 0.967049
9 0 3 158.57 172.83 7.92 o 0.966855
7 3 2 103.80 112.10 5.88 o 0.966098
5 1 4 615.26 650.22 22.21 o 0.962417
4 3 3 2028.91 2082.31 70.52 o 0.957643
2 2 4 96.97 100.32 2.83 o 0.957196
0 4 2 3094.93 3202.03 92.30 o 0.953908
11 0 2 669.44 701.11 25.82 o 0.952439
6 0 4 772.17 807.62 24.74 o 0.951221
1 4 2 627.80 666.35 23.70 o 0.950723
12 0 1 114.46 121.39 6.06 o 0.947212
12 1 0 2084.97 2126.45 89.32 o 0.945903
9 1 3 1630.21 1646.47 52.00 o 0.942682
5 4 1 381.74 387.45 11.71 o 0.942422
3 2 4 888.96 904.22 28.64 o 0.941423
2 4 2 57.47 58.35 1.94 o 0.941356
9 3 1 2587.59 2791.22 73.45 o 0.932506
6 4 0 287.97 307.40 7.33 o 0.930655
5 3 3 1366.71 1472.59 40.29 o 0.929761
11 1 2 48.14 51.47 1.42 o 0.929306
6 1 4 927.50 974.98 22.65 o 0.928174
3 4 2 572.43 597.99 17.37 o 0.926342
8 2 3 204.09 211.49 7.30 o 0.925840
11 2 1 106.93 109.79 3.98 o 0.925612
10 2 2 860.87 869.90 35.34 o 0.924602
12 1 1 250.40 250.37 10.86 o 0.924448
4 2 4 271.59 293.20 15.44 o 0.920597
8 3 2 709.83 809.27 60.28 o 0.919776
7 0 4 605.66 644.07 49.19 o 0.912463
6 4 1 158.14 155.10 7.90 o 0.910199
10 0 3 866.09 847.33 42.38 o 0.909138
4 4 2 2132.50 2054.19 99.94 o 0.906479
10 3 0 485.97 439.31 54.88 o 0.898877
6 3 3 0.11 0.10 0.02 o 0.898777
5 2 4 892.79 759.03 89.78 o 0.895745
7 1 4 73.76 58.69 8.92 o 0.892061
10 1 3 0.48 0.35 0.11 o 0.888954
12 0 2 567.79 394.96 95.38 o 0.886657
5 4 2 379.71 301.34 32.55 o 0.882725
12 2 0 1227.86 981.13 109.04 o 0.882385
10 3 1 6.28 5.17 0.38 o 0.880405
9 2 3 101.36 84.89 6.34 o 0.879769
13 0 1 2140.51 1784.41 143.96 o 0.877410
7 4 1 132.39 108.10 7.95 o 0.876068
9 3 2 533.53 441.37 35.78 o 0.874561
8 0 4 55.31 44.62 3.28 o 0.873135
1 0 5 792.78 657.74 38.42 o 0.870600
11 2 2 403.71 340.74 23.04 o 0.868866
6 2 4 492.03 415.55 27.31 o 0.867941
12 1 2 845.57 723.23 48.72 o 0.867903
7 3 3 0.04 0.03 0.00 o 0.865870
12 2 1 70.99 60.57 6.21 o 0.864892
2 0 5 75.15 66.51 3.22 o 0.863390
1 3 4 168.40 148.24 10.93 o 0.861576
13 1 1 1163.68 1076.51 61.79 o 0.859225
8 4 0 1922.38 1974.63 76.08 o 0.857148
6 4 2 285.04 297.35 11.82 o 0.856079
11 0 3 192.82 204.54 8.50 o 0.855996
8 1 4 169.68 179.50 7.13 o 0.855209
0 1 5 923.45 961.54 36.00 o 0.855123
1 4 3 143.12 161.18 7.50 o 0.854749
2 3 4 908.15 1016.32 45.94 o 0.854587
1 1 5 35.04 38.42 1.65 o 0.852826
3 0 5 913.06 1033.40 46.47 o 0.851762
2 4 3 375.07 404.34 69.75 o 0.847923
2 1 5 8.11 9.11 1.39 o 0.846045
