#------------------------------------------------------------------------------
#$Date: 2016-02-16 22:30:59 +0200 (Tue, 16 Feb 2016) $
#$Revision: 176467 $
#$URL: svn://www.crystallography.net/cod/cif/4/00/07/4000747.cif $
#------------------------------------------------------------------------------
#
# This file is available in the Crystallography Open Database (COD),
# http://www.crystallography.net/
#
# All data on this site have been placed in the public domain by the
# contributors.
#
data_4000747
loop_
_publ_author_name
'Riyadi, Syarif'
'Giriyapura, Shivakumara'
'de Groot, Robert A.'
'Caretta, Antonio'
'van Loosdrecht, Paul H. M.'
'Palstra, Thomas T. M.'
'Blake, Graeme R.'
_publ_section_title
;
 Ferromagnetic Order from p-Electrons in Rubidium Oxide
;
_journal_issue                   6
_journal_name_full               'Chemistry of Materials'
_journal_page_first              1578
_journal_paper_doi               10.1021/cm103433r
_journal_volume                  23
_journal_year                    2011
_chemical_formula_sum            'O6.88 Rb4'
_chemical_formula_weight         451.95
_chemical_name_systematic        ' ?'
_space_group_IT_number           69
_symmetry_cell_setting           orthorhombic
_symmetry_space_group_name_Hall  '-F 2 2'
_symmetry_space_group_name_H-M   'F m m m'
_audit_creation_date             2010-12-01T11:01
_audit_creation_method           'from EXP file using GSAS2CIF'
_audit_update_record
' 2010-12-01T11:01  Initial CIF as created by GSAS2CIF'
_cell_angle_alpha                90.0
_cell_angle_beta                 90.0
_cell_angle_gamma                90.0
_cell_formula_units_Z            1
_cell_length_a                   6.30280(29)
_cell_length_b                   6.25587(23)
_cell_length_c                   5.81797(7)
_cell_measurement_temperature    20
_cell_volume                     229.400(14)
_computing_structure_refinement  GSAS
_diffrn_ambient_temperature      20
_diffrn_radiation_polarisn_ratio 0.7
_diffrn_radiation_probe          x-ray
_diffrn_radiation_wavelength     1.54059
_exptl_absorpt_correction_T_max  1.00000
_exptl_absorpt_correction_T_min  1.00000
_exptl_absorpt_process_details
;   GSAS Absorption/surface roughness correction: function number 4
 Flat plate transmission absorption correction
Terms =      0.0000         0.0000    
Correction is not refined.
;
_pd_block_id                     2010-12-01T11:01|RBO2-D_20K|graeme|D8
_pd_calc_method                  'Rietveld Refinement'
_pd_char_colour                  yellow
_pd_instr_location               ' ?'
_pd_meas_2theta_range_inc        0.005
_pd_meas_2theta_range_max        70.0
_pd_meas_2theta_range_min        10.01
_pd_meas_number_of_points        11999
_pd_phase_name                   RbO2_lowT
_pd_proc_2theta_range_inc        0.005
_pd_proc_2theta_range_max        71.3375
_pd_proc_2theta_range_min        11.3475
_pd_proc_info_datetime           2010-12-01T11:01:08
_pd_proc_info_excluded_regions   ' ?'
_pd_proc_ls_background_function
;   GSAS Background function number 1 with 12 terms.
 Shifted Chebyshev function of 1st kind
      1:    505.106     2:    6.02265     3:   -10.7949     4:    5.24962    
      5:    1.92834     6:    4.40346     7:   0.684686     8:   -2.09726    
      9:   0.559522    10:    2.20724    11:   -2.70845    12:   5.564340E-02
;
_pd_proc_ls_peak_cutoff          0.00100
_pd_proc_ls_profile_function
;
 CW Profile function number 4 with  18 terms
 Pseudovoigt profile coefficients as parameterized in
 P. Thompson, D.E. Cox & J.B. Hastings (1987). J. Appl. Cryst.,20,79-83.
 Asymmetry correction of L.W. Finger, D.E. Cox & A. P. Jephcoat (1994).
 J. Appl. Cryst.,27,892-900.
 Microstrain broadening by P.W. Stephens,  (1999). J. Appl. Cryst.,32,281-289.
 Peak tails are ignored  where the intensity is below 0.0010 times the peak
   Aniso. broadening axis   1.0   1.0   0.0
;
_pd_proc_ls_prof_R_factor        0.0101
_pd_proc_ls_prof_wR_expected     0.0431
_pd_proc_ls_prof_wR_factor       0.0143
_pd_proc_number_of_points        11999
_pd_spec_mounting                ' ?'
_refine_ls_goodness_of_fit_all   0.33
_refine_ls_matrix_type           full
_refine_ls_number_parameters     27
_refine_ls_number_restraints     1
_refine_ls_R_Fsqd_factor         0.03820
_refine_ls_shift/su_max          0.06
_refine_ls_shift/su_mean         0.01
_reflns_d_resolution_high        1.434
_reflns_d_resolution_low         3.530
_reflns_limit_h_max              4
_reflns_limit_h_min              0
_reflns_limit_k_max              4
_reflns_limit_k_min              0
_reflns_limit_l_max              4
_reflns_limit_l_min              0
_reflns_number_total             15
_cod_data_source_file            cm103433r_si_002.cif
_cod_data_source_block           RBO2-D_20K_publ
_cod_depositor_comments
;
The following automatic conversions were performed:

'_geom_bond_publ_flag' value 'N' changed to 'n' according to
/home/saulius/struct/CIF-dictionaries/cif_core.dic dictionary named
'cif_core.dic' version 2.4.1 from 2010-06-29 (98
times).

'_geom_angle_publ_flag' value 'N' changed to 'n' according
to /home/saulius/struct/CIF-dictionaries/cif_core.dic dictionary
named 'cif_core.dic' version 2.4.1 from 2010-06-29 (510 times).

Automatic conversion script
Id: cif_fix_values 1715 2011-07-08 13:25:40Z adriana 

 Adding full bibliography for 4000747.cif.
;
_cod_original_cell_volume        229.400(6)
_cod_original_formula_sum        'O6.88 Rb4.00'
_cod_database_code               4000747
#BEGIN Tags that were not found in dictionaries:
_gsas_exptl_extinct_corr_t_min   1.00000
_gsas_exptl_extinct_corr_t_max   1.00000
#END Tags that were not found in dictionaries
loop_
_symmetry_equiv_pos_site_id
_symmetry_equiv_pos_as_xyz
1 +x,+y,+z
2 -x,+y,+z
3 +x,-y,+z
4 -x,-y,+z
-1 -x,-y,-z
-2 +x,-y,-z
-3 -x,+y,-z
-4 +x,+y,-z
101 +x,+y+1/2,+z+1/2
102 -x,+y+1/2,+z+1/2
103 +x,-y+1/2,+z+1/2
104 -x,-y+1/2,+z+1/2
-101 -x,-y+1/2,-z+1/2
-102 +x,-y+1/2,-z+1/2
-103 -x,+y+1/2,-z+1/2
-104 +x,+y+1/2,-z+1/2
201 +x+1/2,+y,+z+1/2
202 -x+1/2,+y,+z+1/2
203 +x+1/2,-y,+z+1/2
204 -x+1/2,-y,+z+1/2
-201 -x+1/2,-y,-z+1/2
-202 +x+1/2,-y,-z+1/2
-203 -x+1/2,+y,-z+1/2
-204 +x+1/2,+y,-z+1/2
301 +x+1/2,+y+1/2,+z
302 -x+1/2,+y+1/2,+z
303 +x+1/2,-y+1/2,+z
304 -x+1/2,-y+1/2,+z
-301 -x+1/2,-y+1/2,-z
-302 +x+1/2,-y+1/2,-z
-303 -x+1/2,+y+1/2,-z
-304 +x+1/2,+y+1/2,-z
loop_
_atom_site_type_symbol
_atom_site_label
_atom_site_fract_x
_atom_site_fract_y
_atom_site_fract_z
_atom_site_occupancy
_atom_site_thermal_displace_type
_atom_site_U_iso_or_equiv
_atom_site_symmetry_multiplicity
Rb Rb 0.0548(7) 0.0518(5) 0.0 0.25 Uiso 0.0117(7) 16
O Oa 0.3989(7) 0.5287(26) 0.5 0.43 Uiso 0.0194(12) 16
loop_
_atom_type_symbol
_atom_type_number_in_cell
_atom_type_scat_dispersion_real
_atom_type_scat_dispersion_imag
_atom_type_scat_Cromer_Mann_a1
_atom_type_scat_Cromer_Mann_a2
_atom_type_scat_Cromer_Mann_a3
_atom_type_scat_Cromer_Mann_a4
_atom_type_scat_Cromer_Mann_b1
_atom_type_scat_Cromer_Mann_b2
_atom_type_scat_Cromer_Mann_b3
_atom_type_scat_Cromer_Mann_b4
_atom_type_scat_Cromer_Mann_c
_atom_type_scat_source
Rb 4.0 -0.469 1.608 17.1784 1.78880 9.64350 17.3151 5.13990 0.27480 1.52920
164.934 3.48730 International_Tables_Vol_C
O 6.88 0.049 0.032 3.04850 13.2771 2.28680 5.70110 1.54630 0.32390 0.86700
32.9089 0.25080 International_Tables_Vol_C
loop_
_geom_angle_atom_site_label_1
_geom_angle_atom_site_label_2
_geom_angle_atom_site_label_3
_geom_angle
_geom_angle_site_symmetry_1
_geom_angle_site_symmetry_3
_geom_angle_publ_flag
Rb Rb Rb 90.0 2_555 3_555 n
Rb Rb Rb 43.2(6) 2_555 4_555 n
Rb Rb Rb 90.0 2_555 101_544 n
Rb Rb Rb 90.0 2_555 101_545 n
Rb Rb Rb 90.0 2_555 101_554 n
Rb Rb Rb 90.0 2_555 101_555 n
Rb Rb Rb 80.81(11) 2_555 102_544 n
Rb Rb Rb 80.81(11) 2_555 102_545 n
Rb Rb Rb 80.81(11) 2_555 102_554 n
Rb Rb Rb 80.81(11) 2_555 102_555 n
Rb Rb Rb 90.0 2_555 103_544 n
Rb Rb Rb 90.0 2_555 103_545 n
Rb Rb Rb 90.0 2_555 103_554 n
Rb Rb Rb 90.0 2_555 103_555 n
Rb Rb Rb 81.75(11) 2_555 104_544 n
Rb Rb Rb 81.75(11) 2_555 104_545 n
Rb Rb Rb 79.76(12) 2_555 104_554 n
Rb Rb Rb 79.76(12) 2_555 104_555 n
Rb Rb Rb 42.7093(14) 2_555 201_454 n
Rb Rb Rb 42.7094(14) 2_555 201_455 n
Rb Rb Rb 137.2906(14) 2_555 201_554 n
Rb Rb Rb 137.2906(14) 2_555 201_555 n
Rb Rb Rb 37.13(6) 2_555 202_454 n
Rb Rb Rb 37.13(6) 2_555 202_455 n
Rb Rb Rb 46.8(6) 3_555 4_555 n
Rb Rb Rb 42.9229(11) 3_555 101_544 n
Rb Rb Rb 42.9229(11) 3_555 101_545 n
Rb Rb Rb 137.0771(11) 3_555 101_554 n
Rb Rb Rb 137.0771(11) 3_555 101_555 n
Rb Rb Rb 43.707(19) 3_555 102_544 n
Rb Rb Rb 43.707(19) 3_555 102_545 n
Rb Rb Rb 136.292(19) 3_555 102_554 n
Rb Rb Rb 136.292(19) 3_555 102_555 n
Rb Rb Rb 37.61(5) 3_555 103_544 n
Rb Rb Rb 37.61(5) 3_555 103_545 n
Rb Rb Rb 130.45(7) 3_555 103_554 n
Rb Rb Rb 130.45(7) 3_555 103_555 n
Rb Rb Rb 38.38(6) 3_555 104_544 n
Rb Rb Rb 38.38(6) 3_555 104_545 n
Rb Rb Rb 129.68(6) 3_555 104_554 n
Rb Rb Rb 129.68(6) 3_555 104_555 n
Rb Rb Rb 90.0 3_555 201_454 n
Rb Rb Rb 90.0 3_555 201_455 n
Rb Rb Rb 90.0 3_555 201_554 n
Rb Rb Rb 90.0 3_555 201_555 n
Rb Rb Rb 90.0 3_555 202_454 n
Rb Rb Rb 90.0 3_555 202_455 n
Rb Rb Rb 59.9(4) 4_555 101_544 n
Rb Rb Rb 59.9(4) 4_555 101_545 n
Rb Rb Rb 120.1(4) 4_555 101_554 n
Rb Rb Rb 120.1(4) 4_555 101_555 n
Rb Rb Rb 52.35(23) 4_555 102_544 n
Rb Rb Rb 52.35(23) 4_555 102_545 n
Rb Rb Rb 112.2(5) 4_555 102_554 n
Rb Rb Rb 112.2(5) 4_555 102_555 n
Rb Rb Rb 57.2(4) 4_555 103_544 n
Rb Rb Rb 57.2(4) 4_555 103_545 n
Rb Rb Rb 116.34(28) 4_555 103_554 n
Rb Rb Rb 116.34(28) 4_555 103_555 n
Rb Rb Rb 50.15(31) 4_555 104_544 n
Rb Rb Rb 50.15(31) 4_555 104_545 n
Rb Rb Rb 107.9(4) 4_555 104_554 n
Rb Rb Rb 107.9(4) 4_555 104_555 n
Rb Rb Rb 57.6(4) 4_555 201_454 n
Rb Rb Rb 57.6(4) 4_555 201_455 n
Rb Rb Rb 122.4(4) 4_555 201_554 n
Rb Rb Rb 122.4(4) 4_555 201_555 n
Rb Rb Rb 54.4(4) 4_555 202_454 n
Rb Rb Rb 54.4(4) 4_555 202_455 n
Rb Rb Rb 85.8458(22) 101_544 101_545 n
Rb Rb Rb 94.1542(22) 101_544 101_554 n
Rb Rb Rb 180.0 101_544 101_555 n
Rb Rb Rb 9.19(11) 101_544 102_544 n
Rb Rb Rb 85.8992(26) 101_544 102_545 n
Rb Rb Rb 94.1008(26) 101_544 102_554 n
Rb Rb Rb 170.81(11) 101_544 102_555 n
Rb Rb Rb 5.31(5) 101_544 103_544 n
Rb Rb Rb 80.54(5) 101_544 103_545 n
Rb Rb Rb 87.53(7) 101_544 103_554 n
Rb Rb Rb 173.38(7) 101_544 103_555 n
Rb Rb Rb 9.80(7) 101_544 104_544 n
Rb Rb Rb 80.64(5) 101_544 104_545 n
Rb Rb Rb 87.57(7) 101_544 104_554 n
Rb Rb Rb 167.82(8) 101_544 104_555 n
Rb Rb Rb 62.4891(10) 101_544 201_454 n
Rb Rb Rb 117.5109(10) 101_544 201_455 n
Rb Rb Rb 62.4891(10) 101_544 201_554 n
Rb Rb Rb 117.5109(10) 101_544 201_555 n
Rb Rb Rb 65.73(4) 101_544 202_454 n
Rb Rb Rb 114.27(4) 101_544 202_455 n
Rb Rb Rb 180.0 101_545 101_554 n
Rb Rb Rb 94.1542(22) 101_545 101_555 n
Rb Rb Rb 85.8992(26) 101_545 102_544 n
Rb Rb Rb 9.19(11) 101_545 102_545 n
Rb Rb Rb 170.81(11) 101_545 102_554 n
Rb Rb Rb 94.1008(26) 101_545 102_555 n
Rb Rb Rb 80.54(5) 101_545 103_544 n
Rb Rb Rb 5.31(5) 101_545 103_545 n
Rb Rb Rb 173.38(7) 101_545 103_554 n
Rb Rb Rb 87.53(7) 101_545 103_555 n
Rb Rb Rb 80.64(5) 101_545 104_544 n
Rb Rb Rb 9.80(7) 101_545 104_545 n
Rb Rb Rb 167.82(8) 101_545 104_554 n
Rb Rb Rb 87.57(7) 101_545 104_555 n
Rb Rb Rb 117.5109(10) 101_545 201_454 n
Rb Rb Rb 62.4891(10) 101_545 201_455 n
Rb Rb Rb 117.5109(10) 101_545 201_554 n
Rb Rb Rb 62.4891(10) 101_545 201_555 n
Rb Rb Rb 114.27(4) 101_545 202_454 n
Rb Rb Rb 65.73(4) 101_545 202_455 n
Rb Rb Rb 85.8458(22) 101_554 101_555 n
Rb Rb Rb 94.1008(26) 101_554 102_544 n
Rb Rb Rb 170.81(11) 101_554 102_545 n
Rb Rb Rb 9.19(11) 101_554 102_554 n
Rb Rb Rb 85.8992(26) 101_554 102_555 n
Rb Rb Rb 99.46(5) 101_554 103_544 n
Rb Rb Rb 174.69(5) 101_554 103_545 n
Rb Rb Rb 6.63(7) 101_554 103_554 n
Rb Rb Rb 92.47(7) 101_554 103_555 n
Rb Rb Rb 99.36(5) 101_554 104_544 n
Rb Rb Rb 170.20(7) 101_554 104_545 n
Rb Rb Rb 12.18(8) 101_554 104_554 n
Rb Rb Rb 92.43(7) 101_554 104_555 n
Rb Rb Rb 62.4891(10) 101_554 201_454 n
Rb Rb Rb 117.5109(10) 101_554 201_455 n
Rb Rb Rb 62.4891(10) 101_554 201_554 n
Rb Rb Rb 117.5109(10) 101_554 201_555 n
Rb Rb Rb 65.73(4) 101_554 202_454 n
Rb Rb Rb 114.27(4) 101_554 202_455 n
Rb Rb Rb 170.81(11) 101_555 102_544 n
Rb Rb Rb 94.1008(26) 101_555 102_545 n
Rb Rb Rb 85.8992(26) 101_555 102_554 n
Rb Rb Rb 9.19(11) 101_555 102_555 n
Rb Rb Rb 174.69(5) 101_555 103_544 n
Rb Rb Rb 99.46(5) 101_555 103_545 n
Rb Rb Rb 92.47(7) 101_555 103_554 n
Rb Rb Rb 6.63(7) 101_555 103_555 n
Rb Rb Rb 170.20(7) 101_555 104_544 n
Rb Rb Rb 99.36(5) 101_555 104_545 n
Rb Rb Rb 92.43(7) 101_555 104_554 n
Rb Rb Rb 12.18(8) 101_555 104_555 n
Rb Rb Rb 117.5109(10) 101_555 201_454 n
Rb Rb Rb 62.4891(10) 101_555 201_455 n
Rb Rb Rb 117.5109(10) 101_555 201_554 n
Rb Rb Rb 62.4891(10) 101_555 201_555 n
Rb Rb Rb 114.27(4) 101_555 202_454 n
Rb Rb Rb 65.73(4) 101_555 202_455 n
Rb Rb Rb 84.486(33) 102_544 102_545 n
Rb Rb Rb 92.59(4) 102_544 102_554 n
Rb Rb Rb 161.63(22) 102_544 102_555 n
Rb Rb Rb 10.60(8) 102_544 103_544 n
Rb Rb Rb 80.66(5) 102_544 103_545 n
Rb Rb Rb 87.56(7) 102_544 103_554 n
Rb Rb Rb 168.69(7) 102_544 103_555 n
Rb Rb Rb 5.33(5) 102_544 104_544 n
Rb Rb Rb 79.424(32) 102_544 104_545 n
Rb Rb Rb 85.97(5) 102_544 104_554 n
Rb Rb Rb 159.48(20) 102_544 104_555 n
Rb Rb Rb 55.02(9) 102_544 201_454 n
Rb Rb Rb 109.80(10) 102_544 201_455 n
Rb Rb Rb 70.20(10) 102_544 201_554 n
Rb Rb Rb 124.98(9) 102_544 201_555 n
Rb Rb Rb 57.79(6) 102_544 202_454 n
Rb Rb Rb 106.17(14) 102_544 202_455 n
Rb Rb Rb 161.63(22) 102_545 102_554 n
Rb Rb Rb 92.59(4) 102_545 102_555 n
Rb Rb Rb 80.66(5) 102_545 103_544 n
Rb Rb Rb 10.60(8) 102_545 103_545 n
Rb Rb Rb 168.69(7) 102_545 103_554 n
Rb Rb Rb 87.56(7) 102_545 103_555 n
Rb Rb Rb 79.424(32) 102_545 104_544 n
Rb Rb Rb 5.33(5) 102_545 104_545 n
Rb Rb Rb 159.48(20) 102_545 104_554 n
Rb Rb Rb 85.97(5) 102_545 104_555 n
Rb Rb Rb 109.80(10) 102_545 201_454 n
Rb Rb Rb 55.02(9) 102_545 201_455 n
Rb Rb Rb 124.98(9) 102_545 201_554 n
Rb Rb Rb 70.20(10) 102_545 201_555 n
Rb Rb Rb 106.17(14) 102_545 202_454 n
Rb Rb Rb 57.79(6) 102_545 202_455 n
Rb Rb Rb 84.486(33) 102_554 102_555 n
Rb Rb Rb 99.34(5) 102_554 103_544 n
Rb Rb Rb 169.40(8) 102_554 103_545 n
Rb Rb Rb 11.31(7) 102_554 103_554 n
Rb Rb Rb 92.44(7) 102_554 103_555 n
Rb Rb Rb 97.92(8) 102_554 104_544 n
Rb Rb Rb 161.78(20) 102_554 104_545 n
Rb Rb Rb 6.61(7) 102_554 104_554 n
Rb Rb Rb 90.77(10) 102_554 104_555 n
Rb Rb Rb 55.02(9) 102_554 201_454 n
Rb Rb Rb 109.80(10) 102_554 201_455 n
Rb Rb Rb 70.20(10) 102_554 201_554 n
Rb Rb Rb 124.98(9) 102_554 201_555 n
Rb Rb Rb 57.79(6) 102_554 202_454 n
Rb Rb Rb 106.17(14) 102_554 202_455 n
Rb Rb Rb 169.40(8) 102_555 103_544 n
Rb Rb Rb 99.34(5) 102_555 103_545 n
Rb Rb Rb 92.44(7) 102_555 103_554 n
Rb Rb Rb 11.31(7) 102_555 103_555 n
Rb Rb Rb 161.78(20) 102_555 104_544 n
Rb Rb Rb 97.92(8) 102_555 104_545 n
Rb Rb Rb 90.77(10) 102_555 104_554 n
Rb Rb Rb 6.61(7) 102_555 104_555 n
Rb Rb Rb 109.80(10) 102_555 201_454 n
Rb Rb Rb 55.02(9) 102_555 201_455 n
Rb Rb Rb 124.98(9) 102_555 201_554 n
Rb Rb Rb 70.20(10) 102_555 201_555 n
Rb Rb Rb 106.17(14) 102_555 202_454 n
Rb Rb Rb 57.79(6) 102_555 202_455 n
Rb Rb Rb 75.23(10) 103_544 103_545 n
Rb Rb Rb 92.839(27) 103_544 103_554 n
Rb Rb Rb 168.07(12) 103_544 103_555 n
Rb Rb Rb 8.25(11) 103_544 104_544 n
Rb Rb Rb 75.38(10) 103_544 104_545 n
Rb Rb Rb 92.793(26) 103_544 104_554 n
Rb Rb Rb 164.32(7) 103_544 104_555 n
Rb Rb Rb 65.545(28) 103_544 201_454 n
Rb Rb Rb 114.455(28) 103_544 201_455 n
Rb Rb Rb 65.545(28) 103_544 201_554 n
Rb Rb Rb 114.455(28) 103_544 201_555 n
Rb Rb Rb 68.383(22) 103_544 202_454 n
Rb Rb Rb 111.617(22) 103_544 202_455 n
Rb Rb Rb 168.07(12) 103_545 103_554 n
Rb Rb Rb 92.839(27) 103_545 103_555 n
Rb Rb Rb 75.38(10) 103_545 104_544 n
Rb Rb Rb 8.25(11) 103_545 104_545 n
Rb Rb Rb 164.32(7) 103_545 104_554 n
Rb Rb Rb 92.793(26) 103_545 104_555 n
Rb Rb Rb 114.455(28) 103_545 201_454 n
Rb Rb Rb 65.545(28) 103_545 201_455 n
Rb Rb Rb 114.455(28) 103_545 201_554 n
Rb Rb Rb 65.545(28) 103_545 201_555 n
Rb Rb Rb 111.617(22) 103_545 202_454 n
Rb Rb Rb 68.383(22) 103_545 202_455 n
Rb Rb Rb 99.10(15) 103_554 103_555 n
Rb Rb Rb 92.809(26) 103_554 104_544 n
Rb Rb Rb 165.53(7) 103_554 104_545 n
Rb Rb Rb 10.24(12) 103_554 104_554 n
Rb Rb Rb 98.95(15) 103_554 104_555 n
Rb Rb Rb 58.93(4) 103_554 201_454 n
Rb Rb Rb 121.07(4) 103_554 201_455 n
Rb Rb Rb 58.93(4) 103_554 201_554 n
Rb Rb Rb 121.07(4) 103_554 201_555 n
Rb Rb Rb 62.66(7) 103_554 202_454 n
Rb Rb Rb 117.34(7) 103_554 202_455 n
Rb Rb Rb 165.53(7) 103_555 104_544 n
Rb Rb Rb 92.809(26) 103_555 104_545 n
Rb Rb Rb 98.95(15) 103_555 104_554 n
Rb Rb Rb 10.24(12) 103_555 104_555 n
Rb Rb Rb 121.07(4) 103_555 201_454 n
Rb Rb Rb 58.93(4) 103_555 201_455 n
Rb Rb Rb 121.07(4) 103_555 201_554 n
Rb Rb Rb 58.93(4) 103_555 201_555 n
Rb Rb Rb 117.34(7) 103_555 202_454 n
Rb Rb Rb 62.66(7) 103_555 202_455 n
Rb Rb Rb 74.32(8) 104_544 104_545 n
Rb Rb Rb 91.302(25) 104_544 104_554 n
Rb Rb Rb 158.02(15) 104_544 104_555 n
Rb Rb Rb 59.00(11) 104_544 201_454 n
Rb Rb Rb 107.72(7) 104_544 201_455 n
Rb Rb Rb 72.28(7) 104_544 201_554 n
Rb Rb Rb 121.00(11) 104_544 201_555 n
Rb Rb Rb 61.38(8) 104_544 202_454 n
Rb Rb Rb 104.49(11) 104_544 202_455 n
Rb Rb Rb 158.02(15) 104_545 104_554 n
Rb Rb Rb 91.302(25) 104_545 104_555 n
Rb Rb Rb 107.72(7) 104_545 201_454 n
Rb Rb Rb 59.00(11) 104_545 201_455 n
Rb Rb Rb 121.00(11) 104_545 201_554 n
Rb Rb Rb 72.28(7) 104_545 201_555 n
Rb Rb Rb 104.49(11) 104_545 202_454 n
Rb Rb Rb 61.38(8) 104_545 202_455 n
Rb Rb Rb 96.98(18) 104_554 104_555 n
Rb Rb Rb 50.31(7) 104_554 201_454 n
Rb Rb Rb 112.16(13) 104_554 201_455 n
Rb Rb Rb 67.84(13) 104_554 201_554 n
Rb Rb Rb 129.69(7) 104_554 201_555 n
Rb Rb Rb 53.57(5) 104_554 202_454 n
Rb Rb Rb 108.07(17) 104_554 202_455 n
Rb Rb Rb 112.16(13) 104_555 201_454 n
Rb Rb Rb 50.31(7) 104_555 201_455 n
Rb Rb Rb 129.69(7) 104_555 201_554 n
Rb Rb Rb 67.84(13) 104_555 201_555 n
Rb Rb Rb 108.07(17) 104_555 202_454 n
Rb Rb Rb 53.57(5) 104_555 202_455 n
Rb Rb Rb 85.4187(27) 201_454 201_455 n
Rb Rb Rb 94.5813(27) 201_454 201_554 n
Rb Rb Rb 180.0 201_454 201_555 n
Rb Rb Rb 5.58(6) 201_454 202_454 n
Rb Rb Rb 79.84(6) 201_454 202_455 n
Rb Rb Rb 180.0 201_455 201_554 n
Rb Rb Rb 94.5813(27) 201_455 201_555 n
Rb Rb Rb 79.84(6) 201_455 202_454 n
Rb Rb Rb 5.58(6) 201_455 202_455 n
Rb Rb Rb 85.4187(27) 201_554 201_555 n
Rb Rb Rb 100.16(6) 201_554 202_454 n
Rb Rb Rb 174.42(6) 201_554 202_455 n
Rb Rb Rb 174.42(6) 201_555 202_454 n
Rb Rb Rb 100.16(6) 201_555 202_455 n
Rb Rb Rb 74.26(12) 202_454 202_455 n
Rb Oa Rb 0.92(11) 101_555 102_555 n
Rb Oa Rb 16.87(16) 101_555 103_555 n
Rb Oa Rb 13.79(22) 101_555 104_555 n
Rb Oa Rb 112.0(6) 101_555 201_555 n
Rb Oa Rb 102.9(5) 101_555 201_565 n
Rb Oa Rb 99.4(6) 101_555 202_555 n
Rb Oa Rb 91.3(4) 101_555 202_565 n
Rb Oa Rb 106.7(5) 101_555 203_565 n
Rb Oa Rb 92.5(4) 101_555 204_565 n
Rb Oa Rb 108.41(8) 101_555 301_555 n
Rb Oa Rb 108.41(8) 101_555 301_556 n
Rb Oa Rb 95.52(10) 101_555 302_555 n
Rb Oa Rb 95.52(10) 101_555 302_556 n
Rb Oa Rb 109.02(14) 101_555 303_555 n
Rb Oa Rb 109.02(14) 101_555 303_556 n
Rb Oa Rb 96.28(20) 101_555 304_555 n
Rb Oa Rb 96.28(20) 101_555 304_556 n
Rb Oa Oa 176.2(5) 101_555 2_655 n
Rb Oa Oa 93.8(5) 101_555 3_565 n
Rb Oa Oa 168.1(19) 101_555 4_665 n
Rb Oa Rb 15.95(14) 102_555 103_555 n
Rb Oa Rb 12.87(15) 102_555 104_555 n
Rb Oa Rb 111.1(5) 102_555 201_555 n
Rb Oa Rb 103.8(4) 102_555 201_565 n
Rb Oa Rb 98.5(5) 102_555 202_555 n
Rb Oa Rb 92.20(27) 102_555 202_565 n
Rb Oa Rb 107.6(4) 102_555 203_565 n
Rb Oa Rb 93.45(26) 102_555 204_565 n
Rb Oa Rb 108.48(8) 102_555 301_555 n
Rb Oa Rb 108.48(8) 102_555 301_556 n
Rb Oa Rb 95.57(11) 102_555 302_555 n
Rb Oa Rb 95.57(11) 102_555 302_556 n
Rb Oa Rb 108.88(13) 102_555 303_555 n
Rb Oa Rb 108.88(13) 102_555 303_556 n
Rb Oa Rb 96.13(18) 102_555 304_555 n
Rb Oa Rb 96.13(18) 102_555 304_556 n
Rb Oa Oa 177.11(35) 102_555 2_655 n
Rb Oa Oa 92.89(35) 102_555 3_565 n
Rb Oa Oa 167.2(18) 102_555 4_665 n
Rb Oa Rb 3.08(10) 103_555 104_555 n
Rb Oa Rb 95.2(6) 103_555 201_555 n
Rb Oa Rb 119.8(4) 103_555 201_565 n
Rb Oa Rb 82.5(5) 103_555 202_555 n
Rb Oa Rb 108.16(33) 103_555 202_565 n
Rb Oa Rb 123.6(4) 103_555 203_565 n
Rb Oa Rb 109.41(33) 103_555 204_565 n
Rb Oa Rb 108.79(15) 103_555 301_555 n
Rb Oa Rb 108.79(15) 103_555 301_556 n
Rb Oa Rb 96.22(20) 103_555 302_555 n
Rb Oa Rb 96.22(20) 103_555 302_556 n
Rb Oa Rb 105.73(25) 103_555 303_555 n
Rb Oa Rb 105.73(25) 103_555 303_556 n
Rb Oa Rb 93.30(27) 103_555 304_555 n
Rb Oa Rb 93.30(27) 103_555 304_556 n
Rb Oa Oa 166.9(4) 103_555 2_655 n
Rb Oa Oa 76.9(4) 103_555 3_565 n
Rb Oa Oa 151.2(19) 103_555 4_665 n
Rb Oa Rb 98.3(5) 104_555 201_555 n
Rb Oa Rb 116.69(33) 104_555 201_565 n
Rb Oa Rb 85.6(4) 104_555 202_555 n
Rb Oa Rb 105.08(26) 104_555 202_565 n
Rb Oa Rb 120.5(4) 104_555 203_565 n
Rb Oa Rb 106.32(26) 104_555 204_565 n
Rb Oa Rb 108.84(13) 104_555 301_555 n
Rb Oa Rb 108.84(13) 104_555 301_556 n
Rb Oa Rb 96.13(18) 104_555 302_555 n
Rb Oa Rb 96.13(18) 104_555 302_556 n
Rb Oa Rb 106.44(21) 104_555 303_555 n
Rb Oa Rb 106.44(21) 104_555 303_556 n
Rb Oa Rb 93.87(23) 104_555 304_555 n
Rb Oa Rb 93.87(23) 104_555 304_556 n
Rb Oa Oa 170.02(31) 104_555 2_655 n
Rb Oa Oa 80.02(31) 104_555 3_565 n
Rb Oa Oa 154.3(18) 104_555 4_665 n
Rb Oa Rb 145.05(18) 201_555 201_565 n
Rb Oa Rb 12.64(14) 201_555 202_555 n
Rb Oa Rb 156.67(23) 201_555 202_565 n
Rb Oa Rb 141.24(16) 201_555 203_565 n
Rb Oa Rb 155.42(25) 201_555 204_565 n
Rb Oa Rb 86.83(25) 201_555 301_555 n
Rb Oa Rb 86.83(25) 201_555 301_556 n
Rb Oa Rb 90.90(26) 201_555 302_555 n
Rb Oa Rb 90.90(26) 201_555 302_556 n
Rb Oa Rb 75.38(23) 201_555 303_555 n
Rb Oa Rb 75.38(23) 201_555 303_556 n
Rb Oa Rb 78.94(26) 201_555 304_555 n
Rb Oa Rb 78.94(26) 201_555 304_556 n
Rb Oa Oa 71.77(16) 201_555 2_655 n
Rb Oa Oa 18.23(16) 201_555 3_565 n
Rb Oa Oa 56.1(13) 201_555 4_665 n
Rb Oa Rb 157.70(12) 201_565 202_555 n
Rb Oa Rb 11.62(18) 201_565 202_565 n
Rb Oa Rb 3.81(4) 201_565 203_565 n
Rb Oa Rb 10.37(21) 201_565 204_565 n
Rb Oa Rb 82.13(31) 201_565 301_555 n
Rb Oa Rb 82.13(31) 201_565 301_556 n
Rb Oa Rb 85.6(4) 201_565 302_555 n
Rb Oa Rb 85.6(4) 201_565 302_556 n
Rb Oa Rb 93.67(31) 201_565 303_555 n
Rb Oa Rb 93.67(31) 201_565 303_556 n
Rb Oa Rb 97.71(33) 201_565 304_555 n
Rb Oa Rb 97.71(33) 201_565 304_556 n
Rb Oa Oa 73.28(8) 201_565 2_655 n
Rb Oa Oa 163.28(8) 201_565 3_565 n
Rb Oa Oa 89.0(15) 201_565 4_665 n
Rb Oa Rb 169.32(27) 202_555 202_565 n
Rb Oa Rb 153.89(10) 202_555 203_565 n
Rb Oa Rb 168.07(29) 202_555 204_565 n
Rb Oa Rb 90.90(26) 202_555 301_555 n
Rb Oa Rb 90.90(26) 202_555 301_556 n
Rb Oa Rb 92.26(30) 202_555 302_555 n
Rb Oa Rb 92.26(30) 202_555 302_556 n
Rb Oa Rb 78.95(26) 202_555 303_555 n
Rb Oa Rb 78.95(26) 202_555 303_556 n
Rb Oa Rb 79.72(30) 202_555 304_555 n
Rb Oa Rb 79.72(30) 202_555 304_556 n
Rb Oa Oa 84.41(17) 202_555 2_655 n
Rb Oa Oa 5.59(17) 202_555 3_565 n
Rb Oa Oa 68.7(13) 202_555 4_665 n
Rb Oa Rb 15.43(18) 202_565 203_565 n
Rb Oa Rb 1.248(31) 202_565 204_565 n
Rb Oa Rb 85.69(35) 202_565 301_555 n
Rb Oa Rb 85.69(35) 202_565 301_556 n
Rb Oa Rb 86.7(4) 202_565 302_555 n
Rb Oa Rb 86.7(4) 202_565 302_556 n
Rb Oa Rb 97.64(33) 202_565 303_555 n
Rb Oa Rb 97.64(33) 202_565 303_556 n
Rb Oa Rb 99.22(33) 202_565 304_555 n
Rb Oa Rb 99.22(33) 202_565 304_556 n
Rb Oa Oa 84.90(10) 202_565 2_655 n
Rb Oa Oa 174.90(10) 202_565 3_565 n
Rb Oa Oa 100.6(16) 202_565 4_665 n
Rb Oa Rb 14.18(21) 203_565 204_565 n
Rb Oa Rb 81.02(30) 203_565 301_555 n
Rb Oa Rb 81.02(30) 203_565 301_556 n
Rb Oa Rb 85.3(4) 203_565 302_555 n
Rb Oa Rb 85.3(4) 203_565 302_556 n
Rb Oa Rb 92.33(30) 203_565 303_555 n
Rb Oa Rb 92.33(30) 203_565 303_556 n
Rb Oa Rb 97.14(33) 203_565 304_555 n
Rb Oa Rb 97.14(33) 203_565 304_556 n
Rb Oa Oa 69.47(8) 203_565 2_655 n
Rb Oa Oa 159.47(8) 203_565 3_565 n
Rb Oa Oa 85.2(14) 203_565 4_665 n
Rb Oa Rb 85.3(4) 204_565 301_555 n
Rb Oa Rb 85.3(4) 204_565 301_556 n
Rb Oa Rb 86.6(4) 204_565 302_555 n
Rb Oa Rb 86.6(4) 204_565 302_556 n
Rb Oa Rb 97.23(34) 204_565 303_555 n
Rb Oa Rb 97.23(34) 204_565 303_556 n
Rb Oa Rb 99.07(34) 204_565 304_555 n
Rb Oa Rb 99.07(34) 204_565 304_556 n
Rb Oa Oa 83.65(13) 204_565 2_655 n
Rb Oa Oa 173.66(13) 204_565 3_565 n
Rb Oa Oa 99.4(16) 204_565 4_665 n
Rb Oa Rb 142.29(24) 301_555 301_556 n
Rb Oa Rb 12.92(16) 301_555 302_555 n
Rb Oa Rb 155.00(31) 301_555 302_556 n
Rb Oa Rb 12.00(12) 301_555 303_555 n
Rb Oa Rb 142.32(15) 301_555 303_556 n
Rb Oa Rb 17.92(8) 301_555 304_555 n
Rb Oa Rb 154.756(31) 301_555 304_556 n
Rb Oa Oa 71.36(9) 301_555 2_655 n
Rb Oa Oa 92.69(32) 301_555 3_565 n
Rb Oa Oa 72.84(19) 301_555 4_665 n
Rb Oa Rb 155.00(31) 301_556 302_555 n
Rb Oa Rb 12.92(16) 301_556 302_556 n
Rb Oa Rb 142.32(15) 301_556 303_555 n
Rb Oa Rb 12.00(12) 301_556 303_556 n
Rb Oa Rb 154.756(31) 301_556 304_555 n
Rb Oa Rb 17.92(8) 301_556 304_556 n
Rb Oa Oa 71.36(9) 301_556 2_655 n
Rb Oa Oa 92.69(32) 301_556 3_565 n
Rb Oa Oa 72.84(19) 301_556 4_665 n
Rb Oa Rb 167.2(5) 302_555 302_556 n
Rb Oa Rb 17.70(7) 302_555 303_555 n
Rb Oa Rb 154.906(32) 302_555 303_556 n
Rb Oa Rb 12.59(13) 302_555 304_555 n
Rb Oa Rb 166.67(19) 302_555 304_556 n
Rb Oa Oa 84.28(14) 302_555 2_655 n
Rb Oa Oa 92.83(33) 302_555 3_565 n
Rb Oa Oa 85.26(15) 302_555 4_665 n
Rb Oa Rb 154.906(32) 302_556 303_555 n
Rb Oa Rb 17.70(7) 302_556 303_556 n
Rb Oa Rb 166.67(19) 302_556 304_555 n
Rb Oa Rb 12.59(13) 302_556 304_556 n
Rb Oa Oa 84.28(14) 302_556 2_655 n
Rb Oa Oa 92.83(33) 302_556 3_565 n
Rb Oa Oa 85.26(15) 302_556 4_665 n
Rb Oa Rb 138.43(18) 303_555 303_556 n
Rb Oa Rb 12.77(16) 303_555 304_555 n
Rb Oa Rb 149.12(25) 303_555 304_556 n
Rb Oa Oa 71.59(10) 303_555 2_655 n
Rb Oa Oa 80.69(31) 303_555 3_565 n
Rb Oa Oa 69.64(14) 303_555 4_665 n
Rb Oa Rb 149.12(25) 303_556 304_555 n
Rb Oa Rb 12.77(16) 303_556 304_556 n
Rb Oa Oa 71.59(10) 303_556 2_655 n
Rb Oa Oa 80.69(31) 303_556 3_565 n
Rb Oa Oa 69.64(14) 303_556 4_665 n
Rb Oa Rb 157.4(5) 304_555 304_556 n
Rb Oa Oa 84.35(14) 304_555 2_655 n
Rb Oa Oa 80.23(32) 304_555 3_565 n
Rb Oa Oa 81.91(19) 304_555 4_665 n
Rb Oa Oa 84.35(14) 304_556 2_655 n
Rb Oa Oa 80.23(32) 304_556 3_565 n
Rb Oa Oa 81.91(19) 304_556 4_665 n
Oa Oa Oa 90.0 2_655 3_565 n
Oa Oa Oa 15.7(15) 2_655 4_665 n
Oa Oa Oa 74.3(15) 3_565 4_665 n
loop_
_geom_bond_atom_site_label_1
_geom_bond_atom_site_label_2
_geom_bond_distance
_geom_bond_site_symmetry_2
_geom_bond_publ_flag
Rb Rb 0.691(9) 2_555 n
Rb Rb 0.648(7) 3_555 n
Rb Rb 0.947(4) 4_555 n
Rb Rb 4.27155(9) 101_544 n
Rb Rb 4.27155(9) 101_545 n
Rb Rb 4.27155(9) 101_554 n
Rb Rb 4.27155(9) 101_555 n
Rb Rb 4.3271(14) 102_544 n
Rb Rb 4.3271(14) 102_545 n
Rb Rb 4.3271(14) 102_554 n
Rb Rb 4.3271(14) 102_555 n
Rb Rb 4.766(5) 103_544 n
Rb Rb 4.766(5) 103_545 n
Rb Rb 3.823(4) 103_554 n
Rb Rb 3.823(4) 103_555 n
Rb Rb 4.816(4) 104_544 n
Rb Rb 4.816(4) 104_545 n
Rb Rb 3.885(5) 104_554 n
Rb Rb 3.885(5) 104_555 n
Rb Rb 4.28877(11) 201_454 n
Rb Rb 4.28877(11) 201_455 n
Rb Rb 4.28877(11) 201_554 n
Rb Rb 4.28877(11) 201_555 n
Rb Rb 4.819(7) 202_454 n
Rb Rb 4.819(7) 202_455 n
Rb Rb 3.810(6) 202_554 n
Rb Rb 3.810(6) 202_555 n
Rb Rb 4.3374(10) 203_454 n
Rb Rb 4.3374(10) 203_455 n
Rb Rb 4.3374(10) 203_554 n
Rb Rb 4.3374(10) 203_555 n
Rb Rb 4.863(6) 204_454 n
Rb Rb 4.863(6) 204_455 n
Rb Rb 3.865(6) 204_554 n
Rb Rb 3.865(6) 204_555 n
Rb Rb 4.44019(13) 301_445 n
Rb Rb 4.44019(13) 301_455 n
Rb Rb 4.44019(13) 301_545 n
Rb Rb 4.44019(13) 301_555 n
Rb Rb 4.954(7) 302_445 n
Rb Rb 4.954(7) 302_455 n
Rb Rb 3.980(5) 302_545 n
Rb Rb 3.980(5) 302_555 n
Rb Rb 4.918(5) 303_445 n
Rb Rb 4.010(4) 303_455 n
Rb Rb 4.918(5) 303_545 n
Rb Rb 4.010(4) 303_555 n
Rb Rb 5.387(4) 304_445 n
Rb Rb 4.573(10) 304_455 n
Rb Rb 4.507(9) 304_545 n
Rb Rb 3.494(4) 304_555 n
Rb Oa 2.173(5) 101_544 n
Rb Oa 2.863(7) 102_544 n
Rb Oa 3.446(8) 102_644 n
Rb Oa 2.226(8) 103_554 n
Rb Oa 2.903(9) 104_554 n
Rb Oa 3.480(6) 104_654 n
Rb Oa 3.417(17) 201_444 n
Rb Oa 3.141(15) 201_454 n
Rb Oa 3.285(18) 202_544 n
Rb Oa 2.998(16) 202_554 n
Rb Oa 3.762(15) 203_454 n
Rb Oa 2.803(17) 203_464 n
Rb Oa 3.643(16) 204_554 n
Rb Oa 2.641(17) 204_564 n
Rb Oa 3.0739(22) 301_444 n
Rb Oa 3.0739(22) 301_445 n
Rb Oa 2.9272(15) 302_544 n
Rb Oa 2.9272(15) 302_545 n
Rb Oa 3.1114(19) 303_454 n
Rb Oa 3.1114(19) 303_455 n
Rb Oa 2.9666(23) 304_554 n
Rb Oa 2.9666(23) 304_555 n
Oa Rb 2.173(5) 101_555 n
Oa Rb 2.863(7) 102_555 n
Oa Rb 3.446(8) 102_655 n
Oa Rb 2.226(8) 103_555 n
Oa Rb 2.903(9) 104_555 n
Oa Rb 3.480(6) 104_655 n
Oa Rb 3.141(15) 201_555 n
Oa Rb 3.417(17) 201_565 n
Oa Rb 2.998(16) 202_555 n
Oa Rb 3.285(18) 202_565 n
Oa Rb 3.762(15) 203_555 n
Oa Rb 2.803(17) 203_565 n
Oa Rb 3.643(16) 204_555 n
Oa Rb 2.641(17) 204_565 n
Oa Rb 3.0739(22) 301_555 n
Oa Rb 3.0739(22) 301_556 n
Oa Rb 2.9272(15) 302_555 n
Oa Rb 2.9272(15) 302_556 n
Oa Rb 3.1114(19) 303_555 n
Oa Rb 3.1114(19) 303_556 n
Oa Rb 2.9666(23) 304_555 n
Oa Rb 2.9666(23) 304_556 n
Oa Oa 1.275(9) 2_655 n
Oa Oa 0.359(33) 3_565 n
Oa Oa 1.3241(16) 4_665 n
loop_
_pd_meas_counts_total
_pd_proc_ls_weight
_pd_proc_intensity_bkg_calc
_pd_calc_intensity_total
477.0 . . .
474.0 . . .
474.0 . . .
474.0 . . .
472.0 . . .
472.0 . . .
471.0 . . .
478.0 . . .
477.0 . . .
477.0 . . .
477.0 . . .
478.0 . . .
480.0 . . .
477.0 . . .
472.0 . . .
477.0 . . .
478.0 . . .
479.0 . . .
474.0 . . .
478.0 . . .
477.0 . . .
475.0 . . .
475.0 . . .
477.0 . . .
478.0 . . .
478.0 . . .
474.0 . . .
477.0 . . .
479.0 . . .
474.0 . . .
475.0 . . .
475.0 . . .
474.0 . . .
477.0 . . .
472.0 . . .
476.0 . . .
476.0 . . .
474.0 . . .
473.0 . . .
476.0 . . .
478.0 . . .
478.0 . . .
474.0 . . .
479.0 . . .
481.0 . . .
484.0 . . .
481.0 . . .
477.0 . . .
479.0 . . .
477.0 . . .
477.0 . . .
476.0 . . .
479.0 . . .
477.0 . . .
475.0 . . .
479.0 . . .
476.0 . . .
476.0 . . .
472.0 . . .
475.0 . . .
477.0 . . .
479.0 . . .
478.0 . . .
478.0 . . .
482.0 . . .
479.0 . . .
476.0 . . .
476.0 . . .
479.0 . . .
478.0 . . .
478.0 . . .
480.0 . . .
483.0 . . .
477.0 . . .
478.0 . . .
481.0 . . .
480.0 . . .
479.0 . . .
477.0 . . .
476.0 . . .
479.0 . . .
475.0 . . .
476.0 . . .
479.0 . . .
476.0 . . .
473.0 . . .
472.0 . . .
477.0 . . .
478.0 . . .
477.0 . . .
476.0 . . .
477.0 . . .
477.0 . . .
476.0 . . .
476.0 . . .
482.0 . . .
480.0 . . .
478.0 . . .
476.0 . . .
480.0 . . .
481.0 . . .
475.0 . . .
475.0 . . .
474.0 . . .
478.0 . . .
478.0 . . .
473.0 . . .
475.0 . . .
475.0 . . .
478.0 . . .
474.0 . . .
473.0 . . .
475.0 . . .
475.0 . . .
475.0 . . .
476.0 . . .
476.0 . . .
475.0 . . .
476.0 . . .
479.0 . . .
481.0 . . .
481.0 . . .
477.0 . . .
477.0 . . .
480.0 . . .
479.0 . . .
479.0 . . .
478.0 . . .
481.0 . . .
478.0 . . .
479.0 . . .
483.0 . . .
480.0 . . .
476.0 . . .
476.0 . . .
475.0 . . .
477.0 . . .
478.0 . . .
472.0 . . .
478.0 . . .
480.0 . . .
478.0 . . .
477.0 . . .
480.0 . . .
485.0 . . .
480.0 . . .
478.0 . . .
479.0 . . .
479.0 . . .
480.0 . . .
474.0 . . .
475.0 . . .
481.0 . . .
480.0 . . .
478.0 . . .
480.0 . . .
483.0 . . .
485.0 . . .
481.0 . . .
481.0 . . .
478.0 . . .
475.0 . . .
475.0 . . .
480.0 . . .
477.0 . . .
477.0 . . .
475.0 . . .
478.0 . . .
476.0 . . .
476.0 . . .
478.0 . . .
478.0 . . .
485.0 . . .
484.0 . . .
476.0 . . .
481.0 . . .
482.0 . . .
483.0 . . .
482.0 . . .
483.0 . . .
484.0 . . .
480.0 . . .
483.0 . . .
487.0 . . .
484.0 . . .
481.0 . . .
476.0 . . .
477.0 . . .
479.0 . . .
478.0 . . .
477.0 . . .
474.0 . . .
478.0 . . .
480.0 . . .
475.0 . . .
478.0 . . .
479.0 . . .
476.0 . . .
481.0 . . .
485.0 . . .
486.0 . . .
483.0 . . .
481.0 . . .
480.0 . . .
484.0 . . .
485.0 . . .
483.0 . . .
485.0 . . .
485.0 . . .
484.0 . . .
487.0 . . .
488.0 . . .
484.0 . . .
479.0 . . .
482.0 . . .
483.0 . . .
481.0 . . .
482.0 . . .
478.0 . . .
478.0 . . .
477.0 . . .
478.0 . . .
478.0 . . .
484.0 . . .
487.0 . . .
485.0 . . .
483.0 . . .
483.0 . . .
481.0 . . .
482.0 . . .
483.0 . . .
484.0 . . .
483.0 . . .
476.0 . . .
480.0 . . .
486.0 . . .
487.0 . . .
484.0 . . .
481.0 . . .
480.0 . . .
479.0 . . .
481.0 . . .
482.0 . . .
479.0 . . .
481.0 . . .
479.0 . . .
479.0 . . .
481.0 . . .
481.0 . . .
479.0 . . .
479.0 . . .
481.0 . . .
483.0 . . .
482.0 . . .
478.0 . . .
479.0 . . .
479.0 . . .
477.0 . . .
474.0 . . .
479.0 . . .
476.0 . . .
475.0 . . .
476.0 . . .
475.0 . . .
478.0 . . .
473.0 . . .
475.0 . . .
479.0 . . .
479.0 . . .
479.0 . . .
476.0 . . .
476.0 . . .
478.0 . . .
477.0 . . .
475.0 . . .
474.0 . . .
475.0 . . .
472.0 . . .
473.0 . . .
476.0 . . .
480.0 . . .
478.0 . . .
476.0 . . .
481.0 . . .
478.0 . . .
478.0 . . .
474.0 . . .
475.0 . . .
478.0 . . .
479.0 . . .
477.0 . . .
480.0 . . .
477.0 . . .
473.0 . . .
473.0 . . .
475.0 . . .
478.0 . . .
476.0 . . .
474.0 . . .
474.0 . . .
477.0 . . .
472.0 . . .
472.0 . . .
475.0 . . .
479.0 . . .
475.0 . . .
472.0 . . .
475.0 . . .
474.0 . . .
474.0 . . .
476.0 . . .
478.0 . . .
481.0 . . .
477.0 . . .
476.0 . . .
479.0 . . .
478.0 . . .
477.0 . . .
473.0 . . .
473.0 . . .
470.0 . . .
471.0 . . .
474.0 . . .
475.0 . . .
477.0 . . .
477.0 . . .
472.0 . . .
474.0 . . .
475.0 . . .
474.0 . . .
473.0 . . .
476.0 . . .
478.0 . . .
480.0 . . .
474.0 . . .
478.0 . . .
477.0 . . .
479.0 . . .
474.0 . . .
478.0 . . .
481.0 . . .
479.0 . . .
476.0 . . .
478.0 . . .
477.0 . . .
474.0 . . .
477.0 . . .
475.0 . . .
476.0 . . .
474.0 . . .
470.0 . . .
472.0 . . .
477.0 . . .
472.0 . . .
472.0 . . .
476.0 . . .
473.0 . . .
475.0 . . .
474.0 . . .
478.0 . . .
478.0 . . .
477.0 . . .
475.0 . . .
475.0 . . .
479.0 . . .
480.0 . . .
476.0 . . .
476.0 . . .
478.0 . . .
479.0 . . .
477.0 . . .
480.0 . . .
479.0 . . .
475.0 . . .
474.0 . . .
477.0 . . .
479.0 . . .
475.0 . . .
473.0 . . .
475.0 . . .
475.0 . . .
476.0 . . .
472.0 . . .
475.0 . . .
478.0 . . .
479.0 . . .
476.0 . . .
474.0 . . .
480.0 . . .
485.0 . . .
480.0 . . .
481.0 . . .
484.0 . . .
480.0 . . .
480.0 . . .
480.0 . . .
484.0 . . .
480.0 . . .
477.0 . . .
482.0 . . .
475.0 . . .
478.0 . . .
477.0 . . .
478.0 . . .
476.0 . . .
472.0 . . .
475.0 . . .
474.0 . . .
479.0 . . .
482.0 . . .
478.0 . . .
482.0 . . .
480.0 . . .
479.0 . . .
479.0 . . .
476.0 . . .
478.0 . . .
477.0 . . .
477.0 . . .
477.0 . . .
479.0 . . .
481.0 . . .
477.0 . . .
476.0 . . .
475.0 . . .
476.0 . . .
476.0 . . .
476.0 . . .
477.0 . . .
475.0 . . .
471.0 . . .
473.0 . . .
477.0 . . .
477.0 . . .
475.0 . . .
478.0 . . .
478.0 . . .
478.0 . . .
476.0 . . .
479.0 . . .
482.0 . . .
479.0 . . .
475.0 . . .
476.0 . . .
479.0 . . .
481.0 . . .
479.0 . . .
479.0 . . .
479.0 . . .
476.0 . . .
475.0 . . .
474.0 . . .
475.0 . . .
474.0 . . .
475.0 . . .
481.0 . . .
477.0 . . .
477.0 . . .
473.0 . . .
477.0 . . .
477.0 . . .
477.0 . . .
476.0 . . .
479.0 . . .
480.0 . . .
480.0 . . .
479.0 . . .
478.0 . . .
477.0 . . .
478.0 . . .
480.0 . . .
482.0 . . .
480.0 . . .
476.0 . . .
479.0 . . .
480.0 . . .
481.0 . . .
483.0 . . .
481.0 . . .
481.0 . . .
479.0 . . .
474.0 . . .
477.0 . . .
477.0 . . .
481.0 . . .
478.0 . . .
474.0 . . .
480.0 . . .
480.0 . . .
479.0 . . .
477.0 . . .
478.0 . . .
480.0 . . .
478.0 . . .
476.0 . . .
480.0 . . .
483.0 . . .
479.0 . . .
478.0 . . .
477.0 . . .
481.0 . . .
478.0 . . .
476.0 . . .
479.0 . . .
479.0 . . .
477.0 . . .
477.0 . . .
480.0 . . .
480.0 . . .
479.0 . . .
474.0 . . .
475.0 . . .
475.0 . . .
474.0 . . .
475.0 . . .
476.0 . . .
478.0 . . .
474.0 . . .
471.0 . . .
477.0 . . .
479.0 . . .
479.0 . . .
476.0 . . .
481.0 . . .
479.0 . . .
480.0 . . .
479.0 . . .
478.0 . . .
478.0 . . .
479.0 . . .
474.0 . . .
476.0 . . .
477.0 . . .
476.0 . . .
476.0 . . .
477.0 . . .
478.0 . . .
479.0 . . .
474.0 . . .
472.0 . . .
473.0 . . .
478.0 . . .
474.0 . . .
481.0 . . .
480.0 . . .
479.0 . . .
477.0 . . .
473.0 . . .
475.0 . . .
472.0 . . .
471.0 . . .
474.0 . . .
473.0 . . .
472.0 . . .
471.0 . . .
471.0 . . .
479.0 . . .
476.0 . . .
476.0 . . .
476.0 . . .
473.0 . . .
471.0 . . .
472.0 . . .
475.0 . . .
475.0 . . .
474.0 . . .
475.0 . . .
478.0 . . .
478.0 . . .
475.0 . . .
473.0 . . .
476.0 . . .
476.0 . . .
477.0 . . .
476.0 . . .
475.0 . . .
480.0 . . .
477.0 . . .
478.0 . . .
483.0 . . .
481.0 . . .
478.0 . . .
474.0 . . .
479.0 . . .
482.0 . . .
478.0 . . .
477.0 . . .
477.0 . . .
476.0 . . .
474.0 . . .
472.0 . . .
473.0 . . .
476.0 . . .
478.0 . . .
474.0 . . .
479.0 . . .
479.0 . . .
479.0 . . .
475.0 . . .
477.0 . . .
477.0 . . .
478.0 . . .
473.0 . . .
478.0 . . .
478.0 . . .
476.0 . . .
474.0 . . .
475.0 . . .
477.0 . . .
477.0 . . .
474.0 . . .
473.0 . . .
474.0 . . .
473.0 . . .
474.0 . . .
479.0 . . .
479.0 . . .
479.0 . . .
475.0 . . .
476.0 . . .
474.0 . . .
480.0 . . .
481.0 . . .
482.0 . . .
481.0 . . .
477.0 . . .
470.0 . . .
475.0 . . .
476.0 . . .
479.0 . . .
478.0 . . .
481.0 . . .
481.0 . . .
479.0 . . .
480.0 . . .
479.0 . . .
478.0 . . .
480.0 . . .
479.0 . . .
478.0 . . .
477.0 . . .
475.0 . . .
474.0 . . .
478.0 . . .
477.0 . . .
475.0 . . .
473.0 . . .
476.0 . . .
475.0 . . .
478.0 . . .
475.0 . . .
480.0 . . .
481.0 . . .
479.0 . . .
477.0 . . .
474.0 . . .
482.0 . . .
481.0 . . .
478.0 . . .
479.0 . . .
481.0 . . .
479.0 . . .
479.0 . . .
481.0 . . .
479.0 . . .
476.0 . . .
478.0 . . .
482.0 . . .
480.0 . . .
477.0 . . .
474.0 . . .
477.0 . . .
477.0 . . .
478.0 . . .
474.0 . . .
478.0 . . .
481.0 . . .
478.0 . . .
476.0 . . .
477.0 . . .
480.0 . . .
478.0 . . .
477.0 . . .
478.0 . . .
478.0 . . .
480.0 . . .
477.0 . . .
477.0 . . .
477.0 . . .
480.0 . . .
481.0 . . .
483.0 . . .
478.0 . . .
476.0 . . .
476.0 . . .
477.0 . . .
482.0 . . .
480.0 . . .
477.0 . . .
483.0 . . .
477.0 . . .
480.0 . . .
479.0 . . .
482.0 . . .
478.0 . . .
478.0 . . .
476.0 . . .
477.0 . . .
481.0 . . .
483.0 . . .
478.0 . . .
483.0 . . .
480.0 . . .
483.0 . . .
478.0 . . .
481.0 . . .
483.0 . . .
479.0 . . .
476.0 . . .
479.0 . . .
478.0 . . .
476.0 . . .
474.0 . . .
477.0 . . .
477.0 . . .
477.0 . . .
477.0 . . .
479.0 . . .
479.0 . . .
481.0 . . .
480.0 . . .
482.0 . . .
483.0 . . .
481.0 . . .
478.0 . . .
480.0 . . .
480.0 . . .
482.0 . . .
483.0 . . .
484.0 . . .
480.0 . . .
479.0 . . .
478.0 . . .
478.0 . . .
481.0 . . .
481.0 . . .
477.0 . . .
478.0 . . .
479.0 . . .
479.0 . . .
476.0 . . .
478.0 . . .
480.0 . . .
476.0 . . .
476.0 . . .
479.0 . . .
479.0 . . .
479.0 . . .
475.0 . . .
480.0 . . .
482.0 . . .
481.0 . . .
477.0 . . .
479.0 . . .
484.0 . . .
479.0 . . .
479.0 . . .
480.0 . . .
483.0 . . .
483.0 . . .
479.0 . . .
480.0 . . .
478.0 . . .
475.0 . . .
479.0 . . .
483.0 . . .
483.0 . . .
479.0 . . .
475.0 . . .
481.0 . . .
479.0 . . .
482.0 . . .
478.0 . . .
480.0 . . .
486.0 . . .
480.0 . . .
477.0 . . .
479.0 . . .
481.0 . . .
482.0 . . .
479.0 . . .
485.0 . . .
486.0 . . .
483.0 . . .
482.0 . . .
483.0 . . .
486.0 . . .
481.0 . . .
480.0 . . .
482.0 . . .
480.0 . . .
479.0 . . .
479.0 . . .
479.0 . . .
482.0 . . .
478.0 . . .
479.0 . . .
479.0 . . .
476.0 . . .
479.0 . . .
478.0 . . .
482.0 . . .
484.0 . . .
478.0 . . .
478.0 . . .
475.0 . . .
480.0 . . .
482.0 . . .
478.0 . . .
484.0 . . .
484.0 . . .
483.0 . . .
479.0 . . .
481.0 . . .
478.0 . . .
477.0 . . .
479.0 . . .
482.0 . . .
483.0 . . .
480.0 . . .
480.0 . . .
478.0 . . .
480.0 . . .
478.0 . . .
481.0 . . .
480.0 . . .
480.0 . . .
480.0 . . .
478.0 . . .
480.0 . . .
484.0 . . .
483.0 . . .
479.0 . . .
488.0 . . .
484.0 . . .
486.0 . . .
482.0 . . .
483.0 . . .
487.0 . . .
485.0 . . .
483.0 . . .
485.0 . . .
485.0 . . .
482.0 . . .
481.0 . . .
482.0 . . .
479.0 . . .
479.0 . . .
478.0 . . .
480.0 . . .
479.0 . . .
478.0 . . .
479.0 . . .
483.0 . . .
485.0 . . .
484.0 . . .
484.0 . . .
482.0 . . .
484.0 . . .
479.0 . . .
481.0 . . .
484.0 . . .
482.0 . . .
481.0 . . .
480.0 . . .
486.0 . . .
490.0 . . .
485.0 . . .
482.0 . . .
484.0 . . .
484.0 . . .
483.0 . . .
479.0 . . .
478.0 . . .
480.0 . . .
477.0 . . .
481.0 . . .
478.0 . . .
478.0 . . .
478.0 . . .
477.0 . . .
484.0 . . .
483.0 . . .
482.0 . . .
480.0 . . .
481.0 . . .
481.0 . . .
486.0 . . .
482.0 . . .
487.0 . . .
487.0 . . .
485.0 . . .
484.0 . . .
482.0 . . .
483.0 . . .
481.0 . . .
479.0 . . .
482.0 . . .
481.0 . . .
481.0 . . .
474.0 . . .
478.0 . . .
479.0 . . .
480.0 . . .
480.0 . . .
478.0 . . .
478.0 . . .
480.0 . . .
480.0 . . .
483.0 . . .
483.0 . . .
485.0 . . .
480.0 . . .
483.0 . . .
490.0 . . .
488.0 . . .
484.0 . . .
479.0 . . .
481.0 . . .
484.0 . . .
481.0 . . .
480.0 . . .
480.0 . . .
479.0 . . .
481.0 . . .
484.0 . . .
482.0 . . .
480.0 . . .
477.0 . . .
478.0 . . .
479.0 . . .
483.0 . . .
483.0 . . .
485.0 . . .
485.0 . . .
484.0 . . .
480.0 . . .
478.0 . . .
482.0 . . .
487.0 . . .
485.0 . . .
486.0 . . .
483.0 . . .
484.0 . . .
482.0 . . .
482.0 . . .
485.0 . . .
483.0 . . .
483.0 . . .
480.0 . . .
474.0 . . .
479.0 . . .
480.0 . . .
482.0 . . .
483.0 . . .
480.0 . . .
482.0 . . .
483.0 . . .
482.0 . . .
484.0 . . .
481.0 . . .
484.0 . . .
483.0 . . .
480.0 . . .
481.0 . . .
486.0 . . .
487.0 . . .
487.0 . . .
486.0 . . .
482.0 . . .
483.0 . . .
482.0 . . .
482.0 . . .
481.0 . . .
482.0 . . .
478.0 . . .
481.0 . . .
484.0 . . .
483.0 . . .
482.0 . . .
480.0 . . .
478.0 . . .
482.0 . . .
481.0 . . .
479.0 . . .
482.0 . . .
481.0 . . .
478.0 . . .
478.0 . . .
482.0 0.002075 478.93384 479.13040
487.0 0.002053 479.02737 479.22412
487.0 0.002053 479.12042 479.31735
485.0 0.002062 479.21301 479.41006
485.0 0.002062 479.30508 479.50232
486.0 0.002058 479.39667 479.59409
489.0 0.002045 479.48782 479.68542
482.0 0.002075 479.57846 479.77621
485.0 0.002062 479.66864 479.86658
486.0 0.002058 479.75836 479.95645
485.0 0.002062 479.84760 480.04587
479.0 0.002088 479.93634 480.13480
481.0 0.002079 480.02463 480.22327
483.0 0.002070 480.11246 480.31122
481.0 0.002079 480.19983 480.39880
482.0 0.002075 480.28674 480.48584
482.0 0.002075 480.37320 480.57248
482.0 0.002075 480.45917 480.65863
482.0 0.002075 480.54468 480.74432
479.0 0.002088 480.62976 480.82959
482.0 0.002075 480.71436 480.91434
484.0 0.002066 480.79852 480.99869
483.0 0.002070 480.88226 481.08258
484.0 0.002066 480.96552 481.16602
481.0 0.002079 481.04834 481.24902
486.0 0.002058 481.13071 481.33157
487.0 0.002053 481.21265 481.41367
485.0 0.002062 481.29416 481.49533
482.0 0.002075 481.37518 481.57657
484.0 0.002066 481.45578 481.65735
486.0 0.002058 481.53598 481.73767
483.0 0.002070 481.61572 481.81760
490.0 0.002041 481.69504 481.89709
485.0 0.002062 481.77390 481.97614
483.0 0.002070 481.85236 482.05478
485.0 0.002062 481.93036 482.13297
484.0 0.002066 482.00797 482.21072
488.0 0.002049 482.08511 482.28806
486.0 0.002058 482.16187 482.36499
482.0 0.002075 482.23819 482.44147
484.0 0.002066 482.31409 482.51758
486.0 0.002058 482.38959 482.59323
484.0 0.002066 482.46466 482.66849
478.0 0.002092 482.53931 482.74332
483.0 0.002070 482.61356 482.81772
485.0 0.002062 482.68738 482.89175
481.0 0.002079 482.76080 482.96533
486.0 0.002058 482.83380 483.03851
482.0 0.002075 482.90643 483.11130
485.0 0.002062 482.97864 483.18369
483.0 0.002070 483.05042 483.25568
483.0 0.002070 483.12183 483.32724
489.0 0.002045 483.19281 483.39841
485.0 0.002062 483.26343 483.46921
486.0 0.002058 483.33362 483.53958
484.0 0.002066 483.40341 483.60956
481.0 0.002079 483.47284 483.67917
483.0 0.002070 483.54184 483.74832
486.0 0.002058 483.61050 483.81717
485.0 0.002062 483.67874 483.88559
489.0 0.002045 483.74658 483.95361
488.0 0.002049 483.81406 484.02127
487.0 0.002053 483.88113 484.08853
487.0 0.002053 483.94785 484.15543
488.0 0.002049 484.01416 484.22189
486.0 0.002058 484.08011 484.28802
483.0 0.002070 484.14566 484.35376
485.0 0.002062 484.21085 484.41913
486.0 0.002058 484.27567 484.48413
485.0 0.002062 484.34009 484.54877
485.0 0.002062 484.40414 484.61301
482.0 0.002075 484.46786 484.67688
485.0 0.002062 484.53119 484.74039
485.0 0.002062 484.59415 484.80353
480.0 0.002083 484.65674 484.86633
482.0 0.002075 484.71896 484.92874
482.0 0.002075 484.78082 484.99078
487.0 0.002053 484.84235 485.05249
483.0 0.002070 484.90347 485.11380
479.0 0.002088 484.96426 485.17477
483.0 0.002070 485.02469 485.23538
485.0 0.002062 485.08478 485.29565
484.0 0.002066 485.14450 485.35556
485.0 0.002062 485.20386 485.41510
486.0 0.002058 485.26288 485.47433
493.0 0.002028 485.32156 485.53317
491.0 0.002037 485.37988 485.59167
489.0 0.002045 485.43784 485.64984
489.0 0.002045 485.49548 485.70764
487.0 0.002053 485.55276 485.76511
485.0 0.002062 485.60971 485.82224
479.0 0.002088 485.66632 485.87906
482.0 0.002075 485.72260 485.93552
477.0 0.002096 485.77850 485.99164
477.0 0.002096 485.83411 486.04742
481.0 0.002079 485.88934 486.10284
483.0 0.002070 485.94427 486.15796
485.0 0.002062 485.99887 486.21274
484.0 0.002066 486.05313 486.26721
479.0 0.002088 486.10706 486.32132
481.0 0.002079 486.16068 486.37509
486.0 0.002058 486.21396 486.42856
486.0 0.002058 486.26691 486.48172
488.0 0.002049 486.31952 486.53452
492.0 0.002033 486.37183 486.58704
490.0 0.002041 486.42383 486.63919
484.0 0.002066 486.47549 486.69104
483.0 0.002070 486.52682 486.74258
486.0 0.002058 486.57785 486.79382
487.0 0.002053 486.62857 486.84473
485.0 0.002062 486.67899 486.89532
486.0 0.002058 486.72906 486.94559
489.0 0.002045 486.77884 486.99557
489.0 0.002045 486.82831 487.04523
487.0 0.002053 486.87747 487.09457
485.0 0.002062 486.92633 487.14365
489.0 0.002045 486.97488 487.19238
487.0 0.002053 487.02313 487.24081
485.0 0.002062 487.07108 487.28897
484.0 0.002066 487.11871 487.33679
486.0 0.002058 487.16605 487.38431
483.0 0.002070 487.21307 487.43155
484.0 0.002066 487.25983 487.47849
484.0 0.002066 487.30627 487.52512
484.0 0.002066 487.35242 487.57147
484.0 0.002066 487.39828 487.61752
481.0 0.002079 487.44385 487.66327
480.0 0.002083 487.48914 487.70877
483.0 0.002070 487.53412 487.75394
485.0 0.002062 487.57880 487.79883
486.0 0.002058 487.62320 487.84341
484.0 0.002066 487.66733 487.88776
488.0 0.002049 487.71115 487.93179
489.0 0.002045 487.75473 487.97552
489.0 0.002045 487.79797 488.01901
486.0 0.002058 487.84097 488.06219
488.0 0.002049 487.88370 488.10510
492.0 0.002033 487.92612 488.14774
492.0 0.002033 487.96826 488.19009
487.0 0.002053 488.01016 488.23218
492.0 0.002033 488.05176 488.27399
491.0 0.002037 488.09311 488.31549
487.0 0.002053 488.13416 488.35678
487.0 0.002053 488.17496 488.39780
487.0 0.002053 488.21548 488.43848
486.0 0.002058 488.25574 488.47894
486.0 0.002058 488.29572 488.51913
487.0 0.002053 488.33542 488.55905
488.0 0.002049 488.37488 488.59869
485.0 0.002062 488.41409 488.63809
486.0 0.002058 488.45300 488.67725
489.0 0.002045 488.49167 488.71609
485.0 0.002062 488.53009 488.75473
489.0 0.002045 488.56824 488.79306
482.0 0.002075 488.60614 488.83118
484.0 0.002066 488.64377 488.86902
483.0 0.002070 488.68115 488.90659
486.0 0.002058 488.71829 488.94394
487.0 0.002053 488.75519 488.98102
488.0 0.002049 488.79181 489.01785
492.0 0.002033 488.82819 489.05444
491.0 0.002037 488.86432 489.09079
489.0 0.002045 488.90018 489.12686
494.0 0.002024 488.93582 489.16269
493.0 0.002028 488.97122 489.19827
493.0 0.002028 489.00635 489.23364
493.0 0.002028 489.04126 489.26874
488.0 0.002049 489.07593 489.30362
488.0 0.002049 489.11035 489.33826
487.0 0.002053 489.14453 489.37265
489.0 0.002045 489.17847 489.40680
486.0 0.002058 489.21216 489.44067
489.0 0.002045 489.24564 489.47437
485.0 0.002062 489.27887 489.50781
490.0 0.002041 489.31186 489.54102
490.0 0.002041 489.34464 489.57401
491.0 0.002037 489.37717 489.60672
489.0 0.002045 489.40948 489.63925
486.0 0.002058 489.44156 489.67154
485.0 0.002062 489.47342 489.70361
482.0 0.002075 489.50504 489.73544
489.0 0.002045 489.53644 489.76706
490.0 0.002041 489.56760 489.79843
488.0 0.002049 489.59857 489.82959
488.0 0.002049 489.62927 489.86053
492.0 0.002033 489.65979 489.89124
493.0 0.002028 489.69006 489.92172
493.0 0.002028 489.72012 489.95200
490.0 0.002041 489.75000 489.98206
493.0 0.002028 489.77960 490.01190
493.0 0.002028 489.80902 490.04153
491.0 0.002037 489.83823 490.07095
496.0 0.002016 489.86722 490.10016
495.0 0.002020 489.89600 490.12915
493.0 0.002028 489.92456 490.15793
491.0 0.002037 489.95291 490.18649
489.0 0.002045 489.98105 490.21484
488.0 0.002049 490.00897 490.24298
489.0 0.002045 490.03671 490.27094
486.0 0.002058 490.06424 490.29868
491.0 0.002037 490.09155 490.32623
487.0 0.002053 490.11865 490.35355
489.0 0.002045 490.14557 490.38068
485.0 0.002062 490.17227 490.40759
486.0 0.002058 490.19879 490.43433
487.0 0.002053 490.22510 490.46085
485.0 0.002062 490.25119 490.48715
489.0 0.002045 490.27713 490.51328
488.0 0.002049 490.30283 490.53922
492.0 0.002033 490.32834 490.56497
491.0 0.002037 490.35367 490.59052
491.0 0.002037 490.37878 490.61584
493.0 0.002028 490.40375 490.64099
495.0 0.002020 490.42847 490.66595
491.0 0.002037 490.45303 490.69077
492.0 0.002033 490.47739 490.71533
488.0 0.002049 490.50156 490.73972
495.0 0.002020 490.52554 490.76392
492.0 0.002033 490.54935 490.78796
498.0 0.002008 490.57297 490.81180
498.0 0.002008 490.59641 490.83545
494.0 0.002024 490.61966 490.85892
491.0 0.002037 490.64270 490.88220
490.0 0.002041 490.66559 490.90530
491.0 0.002037 490.68829 490.92822
492.0 0.002033 490.71082 490.95099
488.0 0.002049 490.73315 490.97354
491.0 0.002037 490.75534 490.99594
488.0 0.002049 490.77731 491.01816
485.0 0.002062 490.79913 491.04019
485.0 0.002062 490.82077 491.06204
486.0 0.002058 490.84222 491.08374
487.0 0.002053 490.86353 491.10526
489.0 0.002045 490.88464 491.12659
492.0 0.002033 490.90561 491.14777
490.0 0.002041 490.92639 491.16876
494.0 0.002024 490.94699 491.18964
492.0 0.002033 490.96744 491.21030
492.0 0.002033 490.98770 491.23080
490.0 0.002041 491.00781 491.25113
495.0 0.002020 491.02774 491.27130
495.0 0.002020 491.04752 491.29129
494.0 0.002024 491.06714 491.31116
492.0 0.002033 491.08658 491.33081
494.0 0.002024 491.10590 491.35034
493.0 0.002028 491.12500 491.36969
495.0 0.002020 491.14398 491.38892
492.0 0.002033 491.16278 491.40793
491.0 0.002037 491.18146 491.42682
495.0 0.002020 491.19995 491.44553
493.0 0.002028 491.21826 491.46411
490.0 0.002041 491.23645 491.48254
494.0 0.002024 491.25449 491.50079
492.0 0.002033 491.27237 491.51892
494.0 0.002024 491.29010 491.53683
492.0 0.002033 491.30768 491.55466
491.0 0.002037 491.32507 491.57233
496.0 0.002016 491.34235 491.58981
494.0 0.002024 491.35947 491.60718
489.0 0.002045 491.37643 491.62439
489.0 0.002045 491.39328 491.64142
490.0 0.002041 491.40994 491.65836
489.0 0.002045 491.42648 491.67514
492.0 0.002033 491.44287 491.69174
494.0 0.002024 491.45911 491.70822
497.0 0.002012 491.47522 491.72458
493.0 0.002028 491.49118 491.74075
488.0 0.002049 491.50699 491.75681
492.0 0.002033 491.52267 491.77271
495.0 0.002020 491.53821 491.78851
495.0 0.002020 491.55362 491.80414
493.0 0.002028 491.56888 491.81964
494.0 0.002024 491.58398 491.83499
494.0 0.002024 491.59900 491.85022
496.0 0.002016 491.61383 491.86533
495.0 0.002020 491.62857 491.88028
494.0 0.002024 491.64316 491.89511
495.0 0.002020 491.65759 491.90982
494.0 0.002024 491.67191 491.92438
492.0 0.002033 491.68610 491.93881
492.0 0.002033 491.70016 491.95306
489.0 0.002045 491.71408 491.96725
490.0 0.002041 491.72791 491.98129
488.0 0.002049 491.74158 491.99521
489.0 0.002045 491.75510 492.00900
491.0 0.002037 491.76852 492.02267
488.0 0.002049 491.78183 492.03619
491.0 0.002037 491.79498 492.04962
492.0 0.002033 491.80804 492.06290
493.0 0.002028 491.82095 492.07605
493.0 0.002028 491.83374 492.08911
494.0 0.002024 491.84644 492.10202
493.0 0.002028 491.85898 492.11484
494.0 0.002024 491.87143 492.12750
491.0 0.002037 491.88373 492.14008
490.0 0.002041 491.89594 492.15253
495.0 0.002020 491.90802 492.16486
496.0 0.002016 491.91998 492.17706
494.0 0.002024 491.93182 492.18918
496.0 0.002016 491.94357 492.20114
499.0 0.002004 491.95517 492.21301
497.0 0.002012 491.96667 492.22476
495.0 0.002020 491.97809 492.23639
489.0 0.002045 491.98935 492.24792
490.0 0.002041 492.00052 492.25934
491.0 0.002037 492.01160 492.27066
490.0 0.002041 492.02252 492.28183
493.0 0.002028 492.03336 492.29294
497.0 0.002012 492.04410 492.30392
495.0 0.002020 492.05472 492.31479
494.0 0.002024 492.06522 492.32556
488.0 0.002049 492.07562 492.33618
491.0 0.002037 492.08594 492.34677
493.0 0.002028 492.09613 492.35721
491.0 0.002037 492.10623 492.36755
490.0 0.002041 492.11621 492.37781
492.0 0.002033 492.12610 492.38794
494.0 0.002024 492.13589 492.39798
497.0 0.002012 492.14557 492.40793
494.0 0.002024 492.15515 492.41776
493.0 0.002028 492.16464 492.42752
491.0 0.002037 492.17404 492.43716
490.0 0.002041 492.18332 492.44669
490.0 0.002041 492.19250 492.45615
495.0 0.002020 492.20160 492.46548
492.0 0.002033 492.21060 492.47473
493.0 0.002028 492.21948 492.48389
490.0 0.002041 492.22830 492.49298
492.0 0.002033 492.23700 492.50192
493.0 0.002028 492.24564 492.51080
496.0 0.002016 492.25415 492.51959
494.0 0.002024 492.26257 492.52829
491.0 0.002037 492.27094 492.53690
491.0 0.002037 492.27917 492.54541
489.0 0.002045 492.28735 492.55380
492.0 0.002033 492.29541 492.56216
494.0 0.002024 492.30341 492.57037
496.0 0.002016 492.31128 492.57855
495.0 0.002020 492.31909 492.58664
488.0 0.002049 492.32681 492.59460
491.0 0.002037 492.33444 492.60251
488.0 0.002049 492.34201 492.61029
492.0 0.002033 492.34946 492.61804
488.0 0.002049 492.35684 492.62570
492.0 0.002033 492.36414 492.63324
489.0 0.002045 492.37137 492.64072
490.0 0.002041 492.37851 492.64813
488.0 0.002049 492.38556 492.65546
488.0 0.002049 492.39252 492.66269
490.0 0.002041 492.39941 492.66983
489.0 0.002045 492.40622 492.67694
491.0 0.002037 492.41296 492.68393
493.0 0.002028 492.41962 492.69083
494.0 0.002024 492.42621 492.69769
490.0 0.002041 492.43268 492.70447
490.0 0.002041 492.43912 492.71115
491.0 0.002037 492.44547 492.71777
489.0 0.002045 492.45175 492.72430
485.0 0.002062 492.45795 492.73077
491.0 0.002037 492.46405 492.73718
492.0 0.002033 492.47012 492.74350
495.0 0.002020 492.47610 492.74976
496.0 0.002016 492.48203 492.75595
492.0 0.002033 492.48785 492.76205
495.0 0.002020 492.49362 492.76810
493.0 0.002028 492.49930 492.77408
495.0 0.002020 492.50494 492.77997
497.0 0.002012 492.51050 492.78580
495.0 0.002020 492.51599 492.79156
496.0 0.002016 492.52139 492.79727
494.0 0.002024 492.52676 492.80289
491.0 0.002037 492.53204 492.80844
496.0 0.002016 492.53726 492.81393
494.0 0.002024 492.54245 492.81940
495.0 0.002020 492.54752 492.82474
496.0 0.002016 492.55255 492.83005
496.0 0.002016 492.55753 492.83530
499.0 0.002004 492.56244 492.84048
496.0 0.002016 492.56726 492.84558
496.0 0.002016 492.57205 492.85068
495.0 0.002020 492.57678 492.85565
495.0 0.002020 492.58142 492.86060
495.0 0.002020 492.58603 492.86548
488.0 0.002049 492.59055 492.87027
490.0 0.002041 492.59503 492.87506
496.0 0.002016 492.59946 492.87976
496.0 0.002016 492.60382 492.88440
494.0 0.002024 492.60812 492.88898
496.0 0.002016 492.61237 492.89352
491.0 0.002037 492.61658 492.89801
490.0 0.002041 492.62070 492.90240
486.0 0.002058 492.62479 492.90677
491.0 0.002037 492.62881 492.91110
491.0 0.002037 492.63278 492.91534
488.0 0.002049 492.63672 492.91959
488.0 0.002049 492.64059 492.92371
486.0 0.002058 492.64441 492.92780
488.0 0.002049 492.64816 492.93188
488.0 0.002049 492.65189 492.93585
488.0 0.002049 492.65555 492.93982
492.0 0.002033 492.65915 492.94373
494.0 0.002024 492.66272 492.94757
488.0 0.002049 492.66623 492.95139
492.0 0.002033 492.66971 492.95511
492.0 0.002033 492.67313 492.95883
494.0 0.002024 492.67648 492.96249
495.0 0.002020 492.67981 492.96613
492.0 0.002033 492.68311 492.96967
493.0 0.002028 492.68631 492.97321
491.0 0.002037 492.68951 492.97668
492.0 0.002033 492.69266 492.98010
492.0 0.002033 492.69574 492.98352
493.0 0.002028 492.69879 492.98685
494.0 0.002024 492.70181 492.99014
491.0 0.002037 492.70477 492.99341
492.0 0.002033 492.70770 492.99661
493.0 0.002028 492.71057 492.99982
495.0 0.002020 492.71344 493.00296
491.0 0.002037 492.71622 493.00604
486.0 0.002058 492.71899 493.00909
489.0 0.002045 492.72171 493.01212
489.0 0.002045 492.72440 493.01511
493.0 0.002028 492.72702 493.01804
489.0 0.002045 492.72964 493.02094
493.0 0.002028 492.73221 493.02380
494.0 0.002024 492.73474 493.02664
490.0 0.002041 492.73721 493.02945
488.0 0.002049 492.73969 493.03217
492.0 0.002033 492.74210 493.03488
494.0 0.002024 492.74448 493.03757
496.0 0.002016 492.74683 493.04022
497.0 0.002012 492.74915 493.04285
496.0 0.002016 492.75143 493.04544
494.0 0.002024 492.75369 493.04800
494.0 0.002024 492.75589 493.05051
495.0 0.002020 492.75809 493.05301
495.0 0.002020 492.76022 493.05545
495.0 0.002020 492.76236 493.05786
493.0 0.002028 492.76443 493.06027
489.0 0.002045 492.76648 493.06262
490.0 0.002041 492.76852 493.06497
490.0 0.002041 492.77051 493.06726
490.0 0.002041 492.77249 493.06952
490.0 0.002041 492.77441 493.07178
493.0 0.002028 492.77631 493.07397
491.0 0.002037 492.77820 493.07617
491.0 0.002037 492.78006 493.07834
491.0 0.002037 492.78189 493.08044
492.0 0.002033 492.78369 493.08258
494.0 0.002024 492.78546 493.08466
493.0 0.002028 492.78720 493.08673
490.0 0.002041 492.78891 493.08875
490.0 0.002041 492.79062 493.09076
493.0 0.002028 492.79230 493.09274
491.0 0.002037 492.79395 493.09470
493.0 0.002028 492.79556 493.09662
496.0 0.002016 492.79715 493.09857
496.0 0.002016 492.79874 493.10046
496.0 0.002016 492.80029 493.10229
492.0 0.002033 492.80182 493.10419
498.0 0.002008 492.80334 493.10599
495.0 0.002020 492.80481 493.10779
493.0 0.002028 492.80630 493.10959
490.0 0.002041 492.80774 493.11136
497.0 0.002012 492.80917 493.11307
494.0 0.002024 492.81058 493.11484
491.0 0.002037 492.81198 493.11652
492.0 0.002033 492.81335 493.11823
490.0 0.002041 492.81470 493.11987
489.0 0.002045 492.81604 493.12155
490.0 0.002041 492.81735 493.12317
484.0 0.002066 492.81863 493.12482
486.0 0.002058 492.81995 493.12640
487.0 0.002053 492.82120 493.12799
489.0 0.002045 492.82245 493.12958
485.0 0.002062 492.82370 493.13113
488.0 0.002049 492.82489 493.13269
490.0 0.002041 492.82611 493.13419
490.0 0.002041 492.82730 493.13571
488.0 0.002049 492.82849 493.13724
489.0 0.002045 492.82965 493.13870
491.0 0.002037 492.83078 493.14020
491.0 0.002037 492.83194 493.14166
490.0 0.002041 492.83307 493.14313
494.0 0.002024 492.83417 493.14453
498.0 0.002008 492.83527 493.14597
498.0 0.002008 492.83636 493.14740
496.0 0.002016 492.83743 493.14880
495.0 0.002020 492.83850 493.15021
497.0 0.002012 492.83957 493.15158
495.0 0.002020 492.84061 493.15295
487.0 0.002053 492.84164 493.15433
492.0 0.002033 492.84268 493.15570
491.0 0.002037 492.84369 493.15704
490.0 0.002041 492.84470 493.15839
486.0 0.002058 492.84570 493.15973
493.0 0.002028 492.84671 493.16107
492.0 0.002033 492.84769 493.16238
490.0 0.002041 492.84866 493.16370
493.0 0.002028 492.84964 493.16501
489.0 0.002045 492.85062 493.16632
490.0 0.002041 492.85159 493.16763
493.0 0.002028 492.85254 493.16891
492.0 0.002033 492.85349 493.17020
493.0 0.002028 492.85443 493.17148
497.0 0.002012 492.85538 493.17276
490.0 0.002041 492.85632 493.17404
489.0 0.002045 492.85724 493.17532
490.0 0.002041 492.85818 493.17661
494.0 0.002024 492.85910 493.17786
498.0 0.002008 492.86002 493.17911
493.0 0.002028 492.86096 493.18036
494.0 0.002024 492.86188 493.18164
490.0 0.002041 492.86279 493.18289
490.0 0.002041 492.86371 493.18414
489.0 0.002045 492.86462 493.18542
496.0 0.002016 492.86551 493.18668
495.0 0.002020 492.86642 493.18793
492.0 0.002033 492.86734 493.18921
488.0 0.002049 492.86826 493.19046
487.0 0.002053 492.86917 493.19171
489.0 0.002045 492.87009 493.19299
490.0 0.002041 492.87100 493.19421
490.0 0.002041 492.87192 493.19550
488.0 0.002049 492.87283 493.19675
486.0 0.002058 492.87375 493.19803
489.0 0.002045 492.87466 493.19931
489.0 0.002045 492.87558 493.20059
492.0 0.002033 492.87653 493.20184
495.0 0.002020 492.87744 493.20316
492.0 0.002033 492.87839 493.20441
491.0 0.002037 492.87930 493.20572
495.0 0.002020 492.88025 493.20703
494.0 0.002024 492.88120 493.20828
491.0 0.002037 492.88214 493.20959
491.0 0.002037 492.88309 493.21091
493.0 0.002028 492.88406 493.21222
494.0 0.002024 492.88501 493.21356
495.0 0.002020 492.88599 493.21487
494.0 0.002024 492.88696 493.21619
496.0 0.002016 492.88794 493.21756
496.0 0.002016 492.88895 493.21890
491.0 0.002037 492.88992 493.22028
491.0 0.002037 492.89093 493.22162
487.0 0.002053 492.89194 493.22299
493.0 0.002028 492.89297 493.22437
491.0 0.002037 492.89398 493.22577
493.0 0.002028 492.89502 493.22714
491.0 0.002037 492.89606 493.22858
493.0 0.002028 492.89713 493.22998
490.0 0.002041 492.89816 493.23141
488.0 0.002049 492.89926 493.23285
489.0 0.002045 492.90033 493.23428
489.0 0.002045 492.90143 493.23575
487.0 0.002053 492.90253 493.23721
486.0 0.002058 492.90363 493.23868
489.0 0.002045 492.90475 493.24017
490.0 0.002041 492.90588 493.24167
490.0 0.002041 492.90701 493.24319
490.0 0.002041 492.90817 493.24469
495.0 0.002020 492.90933 493.24628
496.0 0.002016 492.91052 493.24780
492.0 0.002033 492.91171 493.24936
489.0 0.002045 492.91293 493.25095
493.0 0.002028 492.91412 493.25256
494.0 0.002024 492.91537 493.25415
493.0 0.002028 492.91660 493.25577
490.0 0.002041 492.91788 493.25739
492.0 0.002033 492.91913 493.25903
492.0 0.002033 492.92041 493.26068
493.0 0.002028 492.92172 493.26236
489.0 0.002045 492.92303 493.26407
486.0 0.002058 492.92435 493.26575
491.0 0.002037 492.92569 493.26749
490.0 0.002041 492.92706 493.26923
490.0 0.002041 492.92844 493.27100
494.0 0.002024 492.92981 493.27274
489.0 0.002045 492.93121 493.27454
488.0 0.002049 492.93265 493.27634
486.0 0.002058 492.93408 493.27817
491.0 0.002037 492.93555 493.28000
495.0 0.002020 492.93701 493.28186
495.0 0.002020 492.93851 493.28372
493.0 0.002028 492.94000 493.28561
492.0 0.002033 492.94153 493.28754
495.0 0.002020 492.94305 493.28943
497.0 0.002012 492.94461 493.29138
492.0 0.002033 492.94620 493.29337
493.0 0.002028 492.94778 493.29535
494.0 0.002024 492.94940 493.29733
494.0 0.002024 492.95105 493.29938
493.0 0.002028 492.95270 493.30142
491.0 0.002037 492.95438 493.30350
492.0 0.002033 492.95605 493.30557
490.0 0.002041 492.95776 493.30765
489.0 0.002045 492.95950 493.30978
491.0 0.002037 492.96124 493.31192
494.0 0.002024 492.96301 493.31409
492.0 0.002033 492.96481 493.31628
487.0 0.002053 492.96661 493.31848
488.0 0.002049 492.96844 493.32071
487.0 0.002053 492.97031 493.32297
491.0 0.002037 492.97220 493.32523
488.0 0.002049 492.97409 493.32755
491.0 0.002037 492.97601 493.32986
490.0 0.002041 492.97794 493.33221
490.0 0.002041 492.97992 493.33459
490.0 0.002041 492.98190 493.33698
493.0 0.002028 492.98392 493.33936
493.0 0.002028 492.98593 493.34180
493.0 0.002028 492.98801 493.34424
492.0 0.002033 492.99008 493.34674
493.0 0.002028 492.99216 493.34924
491.0 0.002037 492.99429 493.35178
490.0 0.002041 492.99646 493.35434
488.0 0.002049 492.99863 493.35690
489.0 0.002045 493.00082 493.35950
491.0 0.002037 493.00302 493.36215
493.0 0.002028 493.00528 493.36481
490.0 0.002041 493.00754 493.36746
494.0 0.002024 493.00986 493.37018
494.0 0.002024 493.01218 493.37289
495.0 0.002020 493.01450 493.37567
490.0 0.002041 493.01688 493.37845
492.0 0.002033 493.01929 493.38126
497.0 0.002012 493.02170 493.38412
491.0 0.002037 493.02414 493.38696
489.0 0.002045 493.02661 493.38986
487.0 0.002053 493.02911 493.39276
491.0 0.002037 493.03165 493.39572
493.0 0.002028 493.03421 493.39868
485.0 0.002062 493.03677 493.40167
486.0 0.002058 493.03940 493.40469
490.0 0.002041 493.04202 493.40778
489.0 0.002045 493.04468 493.41086
487.0 0.002053 493.04736 493.41394
488.0 0.002049 493.05008 493.41708
491.0 0.002037 493.05283 493.42026
489.0 0.002045 493.05560 493.42346
490.0 0.002041 493.05841 493.42667
493.0 0.002028 493.06122 493.42993
495.0 0.002020 493.06409 493.43323
494.0 0.002024 493.06699 493.43652
495.0 0.002020 493.06989 493.43988
497.0 0.002012 493.07285 493.44324
494.0 0.002024 493.07581 493.44662
493.0 0.002028 493.07880 493.45007
492.0 0.002033 493.08185 493.45352
494.0 0.002024 493.08490 493.45700
497.0 0.002012 493.08798 493.46054
497.0 0.002012 493.09109 493.46408
491.0 0.002037 493.09424 493.46768
490.0 0.002041 493.09744 493.47128
488.0 0.002049 493.10065 493.47491
490.0 0.002041 493.10388 493.47858
487.0 0.002053 493.10715 493.48233
488.0 0.002049 493.11044 493.48605
491.0 0.002037 493.11377 493.48981
490.0 0.002041 493.11713 493.49362
487.0 0.002053 493.12054 493.49744
489.0 0.002045 493.12396 493.50128
496.0 0.002016 493.12741 493.50522
494.0 0.002024 493.13089 493.50912
495.0 0.002020 493.13443 493.51309
497.0 0.002012 493.13797 493.51709
493.0 0.002028 493.14154 493.52112
492.0 0.002033 493.14517 493.52515
495.0 0.002020 493.14880 493.52927
498.0 0.002008 493.15250 493.53339
495.0 0.002020 493.15622 493.53754
496.0 0.002016 493.15994 493.54175
493.0 0.002028 493.16373 493.54596
494.0 0.002024 493.16754 493.55020
494.0 0.002024 493.17139 493.55450
491.0 0.002037 493.17526 493.55884
491.0 0.002037 493.17917 493.56320
491.0 0.002037 493.18311 493.56760
495.0 0.002020 493.18707 493.57199
490.0 0.002041 493.19107 493.57648
488.0 0.002049 493.19513 493.58096
491.0 0.002037 493.19919 493.58551
490.0 0.002041 493.20331 493.59006
489.0 0.002045 493.20746 493.59467
486.0 0.002058 493.21161 493.59930
488.0 0.002049 493.21582 493.60397
487.0 0.002053 493.22006 493.60867
487.0 0.002053 493.22437 493.61340
488.0 0.002049 493.22867 493.61819
487.0 0.002053 493.23303 493.62299
487.0 0.002053 493.23740 493.62787
489.0 0.002045 493.24182 493.63272
488.0 0.002049 493.24628 493.63763
493.0 0.002028 493.25076 493.64258
493.0 0.002028 493.25528 493.64761
491.0 0.002037 493.25983 493.65262
494.0 0.002024 493.26443 493.65765
494.0 0.002024 493.26907 493.66278
496.0 0.002016 493.27371 493.66791
494.0 0.002024 493.27841 493.67307
490.0 0.002041 493.28317 493.67828
494.0 0.002024 493.28793 493.68350
494.0 0.002024 493.29272 493.68881
495.0 0.002020 493.29758 493.69412
490.0 0.002041 493.30246 493.69949
490.0 0.002041 493.30737 493.70486
490.0 0.002041 493.31232 493.71030
490.0 0.002041 493.31732 493.71576
491.0 0.002037 493.32236 493.72125
494.0 0.002024 493.32739 493.72681
494.0 0.002024 493.33249 493.73239
492.0 0.002033 493.33765 493.73801
487.0 0.002053 493.34280 493.74365
489.0 0.002045 493.34802 493.74933
490.0 0.002041 493.35327 493.75507
493.0 0.002028 493.35855 493.76083
494.0 0.002024 493.36386 493.76663
489.0 0.002045 493.36920 493.77249
493.0 0.002028 493.37460 493.77838
493.0 0.002028 493.38004 493.78430
492.0 0.002033 493.38550 493.79025
498.0 0.002008 493.39102 493.79623
497.0 0.002012 493.39655 493.80228
494.0 0.002024 493.40213 493.80835
495.0 0.002020 493.40775 493.81445
495.0 0.002020 493.41342 493.82059
497.0 0.002012 493.41910 493.82678
494.0 0.002024 493.42484 493.83301
493.0 0.002028 493.43060 493.83929
496.0 0.002016 493.43643 493.84558
489.0 0.002045 493.44226 493.85193
489.0 0.002045 493.44815 493.85834
490.0 0.002041 493.45407 493.88336
492.0 0.002033 493.46005 493.88983
495.0 0.002020 493.46603 493.89636
497.0 0.002012 493.47208 493.90289
494.0 0.002024 493.47815 493.90948
494.0 0.002024 493.48428 493.91608
495.0 0.002020 493.49042 493.92279
494.0 0.002024 493.49661 493.92947
489.0 0.002045 493.50287 493.93622
494.0 0.002024 493.50912 493.94302
491.0 0.002037 493.51544 493.94983
490.0 0.002041 493.52179 493.95673
490.0 0.002041 493.52817 493.96362
492.0 0.002033 493.53461 493.97055
494.0 0.002024 493.54108 493.97751
491.0 0.002037 493.54758 493.98459
486.0 0.002058 493.55414 493.99164
491.0 0.002037 493.56070 493.99875
493.0 0.002028 493.56732 494.00589
496.0 0.002016 493.57401 494.01306
494.0 0.002024 493.58072 494.02029
494.0 0.002024 493.58743 494.02756
497.0 0.002012 493.59424 494.03488
492.0 0.002033 493.60104 494.04224
493.0 0.002028 493.60791 494.04965
490.0 0.002041 493.61481 494.05707
491.0 0.002037 493.62177 494.06454
490.0 0.002041 493.62875 494.07202
491.0 0.002037 493.63577 494.07956
494.0 0.002024 493.64282 494.08722
493.0 0.002028 493.64993 494.09482
494.0 0.002024 493.65707 494.10251
494.0 0.002024 493.66425 494.11023
496.0 0.002016 493.67148 494.11801
499.0 0.002004 493.67874 494.12579
495.0 0.002020 493.68604 494.13364
495.0 0.002020 493.69339 494.14148
494.0 0.002024 493.70078 494.14941
489.0 0.002045 493.70819 494.15741
495.0 0.002020 493.71567 494.16541
490.0 0.002041 493.72314 494.17346
496.0 0.002016 493.73071 494.18152
495.0 0.002020 493.73828 494.18970
498.0 0.002008 493.74591 494.19788
495.0 0.002020 493.75357 494.20605
498.0 0.002008 493.76129 494.21432
501.0 0.001996 493.76904 494.22260
499.0 0.002004 493.77682 494.23099
500.0 0.002000 493.78467 494.23935
498.0 0.002008 493.79251 494.24777
502.0 0.001992 493.80045 494.25623
496.0 0.002016 493.80838 494.26474
493.0 0.002028 493.81638 494.27328
494.0 0.002024 493.82440 494.28189
495.0 0.002020 493.83249 494.29053
493.0 0.002028 493.84061 494.29919
496.0 0.002016 493.84875 494.30792
497.0 0.002012 493.85696 494.31668
494.0 0.002024 493.86520 494.32547
495.0 0.002020 493.87347 494.33432
493.0 0.002028 493.88177 494.34320
498.0 0.002008 493.89017 494.35211
497.0 0.002012 493.89856 494.36108
495.0 0.002020 493.90701 494.37009
496.0 0.002016 493.91547 494.37912
497.0 0.002012 493.92401 494.38828
496.0 0.002016 493.93259 494.39737
495.0 0.002020 493.94119 494.40659
493.0 0.002028 493.94983 494.41577
497.0 0.002012 493.95853 494.42508
497.0 0.002012 493.96725 494.43439
494.0 0.002024 493.97601 494.44370
498.0 0.002008 493.98483 494.45309
502.0 0.001992 493.99368 494.46252
500.0 0.002000 494.00259 494.47202
495.0 0.002020 494.01154 494.48154
494.0 0.002024 494.02051 494.49109
490.0 0.002041 494.02951 494.50067
495.0 0.002020 494.03857 494.51035
496.0 0.002016 494.04770 494.52005
493.0 0.002028 494.05682 494.52975
495.0 0.002020 494.06601 494.53952
499.0 0.002004 494.07526 494.54935
499.0 0.002004 494.08450 494.55920
495.0 0.002020 494.09381 494.56909
496.0 0.002016 494.10318 494.57904
492.0 0.002033 494.11258 494.58905
494.0 0.002024 494.12201 494.59909
489.0 0.002045 494.13147 494.60913
492.0 0.002033 494.14099 494.61923
496.0 0.002016 494.15054 494.62939
498.0 0.002008 494.16016 494.63962
496.0 0.002016 494.16980 494.64987
498.0 0.002008 494.17947 494.66013
502.0 0.001992 494.18921 494.67047
499.0 0.002004 494.19897 494.68082
500.0 0.002000 494.20877 494.69125
496.0 0.002016 494.21863 494.70169
504.0 0.001984 494.22852 494.71219
501.0 0.001996 494.23843 494.72272
497.0 0.002012 494.24841 494.73334
495.0 0.002020 494.25842 494.74393
498.0 0.002008 494.26846 494.75461
499.0 0.002004 494.27856 494.76532
498.0 0.002008 494.28873 494.77606
497.0 0.002012 494.29889 494.78687
501.0 0.001996 494.30911 494.79770
498.0 0.002008 494.31937 494.80856
497.0 0.002012 494.32968 494.81949
498.0 0.002008 494.34003 494.83047
497.0 0.002012 494.35040 494.84146
499.0 0.002004 494.36084 494.85251
495.0 0.002020 494.37131 494.86359
494.0 0.002024 494.38181 494.87479
498.0 0.002008 494.39236 494.88593
493.0 0.002028 494.40295 494.89713
492.0 0.002033 494.41357 494.90842
493.0 0.002028 494.42426 494.91971
493.0 0.002028 494.43497 494.93106
491.0 0.002037 494.44574 494.94244
490.0 0.002041 494.45654 494.95386
500.0 0.002000 494.46738 494.96533
500.0 0.002000 494.47827 494.97690
497.0 0.002012 494.48917 494.98843
497.0 0.002012 494.50015 495.00003
501.0 0.001996 494.51114 495.01169
497.0 0.002012 494.52219 495.02338
495.0 0.002020 494.53326 495.03510
496.0 0.002016 494.54440 495.04688
496.0 0.002016 494.55557 495.05869
496.0 0.002016 494.56677 495.07053
496.0 0.002016 494.57803 495.08246
496.0 0.002016 494.58932 495.09439
496.0 0.002016 494.60065 495.10635
494.0 0.002024 494.61203 495.11838
499.0 0.002004 494.62344 495.13046
497.0 0.002012 494.63492 495.14255
498.0 0.002008 494.64639 495.15472
500.0 0.002000 494.65793 495.16690
496.0 0.002016 494.66953 495.17914
495.0 0.002020 494.68115 495.19144
500.0 0.002000 494.69278 495.20374
499.0 0.002004 494.70450 495.21609
495.0 0.002020 494.71625 495.22849
494.0 0.002024 494.72803 495.24094
495.0 0.002020 494.73984 495.25345
497.0 0.002012 494.75171 495.26599
499.0 0.002004 494.76361 495.27853
498.0 0.002008 494.77554 495.29117
503.0 0.001988 494.78754 495.30383
502.0 0.001992 494.79956 495.31650
500.0 0.002000 494.81165 495.32922
503.0 0.001988 494.82373 495.34204
501.0 0.001996 494.83588 495.35486
507.0 0.001972 494.84808 495.36774
501.0 0.001996 494.86029 495.38062
499.0 0.002004 494.87256 495.39359
501.0 0.001996 494.88489 495.40659
501.0 0.001996 494.89722 495.41959
500.0 0.002000 494.90961 495.43265
499.0 0.002004 494.92206 495.44580
499.0 0.002004 494.93451 495.45895
498.0 0.002008 494.94702 495.47214
496.0 0.002016 494.95956 495.48538
495.0 0.002020 494.97217 495.49866
498.0 0.002008 494.98480 495.51199
500.0 0.002000 494.99747 495.52536
496.0 0.002016 495.01019 495.53879
495.0 0.002020 495.02292 495.55219
498.0 0.002008 495.03571 495.56570
501.0 0.001996 495.04855 495.57922
502.0 0.001992 495.06140 495.59277
498.0 0.002008 495.07431 495.60641
500.0 0.002000 495.08728 495.62009
499.0 0.002004 495.10025 495.63379
495.0 0.002020 495.11328 495.64749
496.0 0.002016 495.12634 495.66125
501.0 0.001996 495.13947 495.67505
507.0 0.001972 495.15262 495.68896
505.0 0.001980 495.16580 495.97906
506.0 0.001976 495.17902 495.99335
503.0 0.001988 495.19229 496.00772
502.0 0.001992 495.20560 496.02213
502.0 0.001992 495.21893 496.03653
501.0 0.001996 495.23233 496.05103
500.0 0.002000 495.24573 496.06552
500.0 0.002000 495.25919 496.08011
496.0 0.002016 495.27271 496.09470
498.0 0.002008 495.28625 496.10934
499.0 0.002004 495.29980 496.12399
502.0 0.001992 495.31345 496.13876
500.0 0.002000 495.32709 496.15347
504.0 0.001984 495.34079 496.16827
505.0 0.001980 495.35452 496.18314
505.0 0.001980 495.36829 496.19806
500.0 0.002000 495.38211 496.21298
502.0 0.001992 495.39594 496.22794
502.0 0.001992 495.40985 496.24295
499.0 0.002004 495.42377 496.25803
501.0 0.001996 495.43774 496.27310
498.0 0.002008 495.45175 496.28821
503.0 0.001988 495.46579 496.30338
499.0 0.002004 495.47986 496.31857
497.0 0.002012 495.49399 496.33383
498.0 0.002008 495.50815 496.34915
499.0 0.002004 495.52234 496.36444
500.0 0.002000 495.53656 496.37982
501.0 0.001996 495.55084 496.39526
497.0 0.002012 495.56516 496.41071
500.0 0.002000 495.57950 496.42621
500.0 0.002000 495.59387 496.44174
499.0 0.002004 495.60831 496.45734
495.0 0.002020 495.62277 496.47293
499.0 0.002004 495.63727 496.48862
500.0 0.002000 495.65179 496.50430
499.0 0.002004 495.66638 496.52008
497.0 0.002012 495.68097 496.53580
500.0 0.002000 495.69565 496.55161
495.0 0.002020 495.71033 496.56747
495.0 0.002020 495.72504 496.58340
496.0 0.002016 495.73981 496.59933
500.0 0.002000 495.75461 496.61530
495.0 0.002020 495.76944 496.63129
497.0 0.002012 495.78430 496.64734
496.0 0.002016 495.79922 496.66348
500.0 0.002000 495.81418 496.67960
505.0 0.001980 495.82916 496.69577
498.0 0.002008 495.84418 496.71198
500.0 0.002000 495.85922 496.72824
502.0 0.001992 495.87433 496.74451
502.0 0.001992 495.88947 496.76083
499.0 0.002004 495.90463 496.77725
497.0 0.002012 495.91983 496.79364
501.0 0.001996 495.93506 496.81009
504.0 0.001984 495.95035 496.82654
501.0 0.001996 495.96567 496.84311
499.0 0.002004 495.98102 496.85965
498.0 0.002008 495.99640 496.87625
499.0 0.002004 496.01181 496.89288
500.0 0.002000 496.02728 496.90961
497.0 0.002012 496.04279 496.92633
499.0 0.002004 496.05829 496.94305
501.0 0.001996 496.07388 496.95984
502.0 0.001992 496.08948 496.97668
500.0 0.002000 496.10510 496.99356
499.0 0.002004 496.12079 497.01047
500.0 0.002000 496.13651 497.02740
498.0 0.002008 496.15225 497.04440
496.0 0.002016 496.16803 497.06146
495.0 0.002020 496.18384 497.07849
498.0 0.002008 496.19968 497.09561
499.0 0.002004 496.21558 497.11273
501.0 0.001996 496.23151 497.12994
504.0 0.001984 496.24744 497.14716
501.0 0.001996 496.26346 497.16440
499.0 0.002004 496.27948 497.18167
497.0 0.002012 496.29553 497.19904
497.0 0.002012 496.31161 497.21637
497.0 0.002012 496.32776 497.23380
499.0 0.002004 496.34393 497.25119
502.0 0.001992 496.36014 497.26871
506.0 0.001976 496.37637 497.28622
507.0 0.001972 496.39264 497.30374
506.0 0.001976 496.40894 497.32135
500.0 0.002000 496.42526 497.33899
501.0 0.001996 496.44165 497.35666
503.0 0.001988 496.45807 497.37436
502.0 0.001992 496.47449 497.39209
500.0 0.002000 496.49097 497.40991
501.0 0.001996 496.50748 497.42767
499.0 0.002004 496.52402 497.44553
501.0 0.001996 496.54059 497.46338
498.0 0.002008 496.55722 497.48138
498.0 0.002008 496.57385 497.49930
498.0 0.002008 496.59055 497.51730
499.0 0.002004 496.60724 497.53531
497.0 0.002012 496.62399 497.55341
503.0 0.001988 496.64078 497.57150
499.0 0.002004 496.65759 497.58963
498.0 0.002008 496.67444 497.60782
499.0 0.002004 496.69131 497.62607
503.0 0.001988 496.70822 497.64429
504.0 0.001984 496.72516 497.66254
502.0 0.001992 496.74216 497.68088
502.0 0.001992 496.75916 497.69925
499.0 0.002004 496.77618 497.71759
505.0 0.001980 496.79327 497.73602
504.0 0.001984 496.81036 497.75449
506.0 0.001976 496.82751 497.77304
507.0 0.001972 496.84470 497.79156
505.0 0.001980 496.86191 497.81012
505.0 0.001980 496.87912 497.82870
503.0 0.001988 496.89639 497.84738
503.0 0.001988 496.91370 497.86606
507.0 0.001972 496.93103 497.88470
507.0 0.001972 496.94839 497.90350
503.0 0.001988 496.96579 497.92230
507.0 0.001972 496.98325 497.94107
504.0 0.001984 497.00070 497.95990
508.0 0.001969 497.01819 497.97882
505.0 0.001980 497.03571 497.99774
507.0 0.001972 497.05325 498.01669
509.0 0.001965 497.07086 498.03568
508.0 0.001969 497.08847 498.05469
503.0 0.001988 497.10611 498.07376
504.0 0.001984 497.12381 498.09280
502.0 0.001992 497.14151 498.11194
507.0 0.001972 497.15924 498.13113
503.0 0.001988 497.17703 498.15030
509.0 0.001965 497.19482 498.16956
509.0 0.001965 497.21265 498.18875
509.0 0.001965 497.23053 498.20810
504.0 0.001984 497.24841 498.22742
509.0 0.001965 497.26636 498.24673
511.0 0.001957 497.28430 498.26614
506.0 0.001976 497.30231 498.28558
505.0 0.001980 497.32031 498.30505
501.0 0.001996 497.33835 498.32452
504.0 0.001984 497.35645 498.34402
503.0 0.001988 497.37454 498.36365
505.0 0.001980 497.39267 498.38324
507.0 0.001972 497.41083 498.40283
511.0 0.001957 497.42905 498.42249
505.0 0.001980 497.44727 498.44223
502.0 0.001992 497.46552 498.46191
506.0 0.001976 497.48380 498.48166
502.0 0.001992 497.50211 498.50146
502.0 0.001992 497.52045 498.52127
499.0 0.002004 497.53882 498.54114
503.0 0.001988 497.55722 498.56100
506.0 0.001976 497.57565 498.58093
503.0 0.001988 497.59412 498.60089
505.0 0.001980 497.61261 498.62088
507.0 0.001972 497.63113 498.64090
510.0 0.001961 497.64966 498.66095
508.0 0.001969 497.66824 498.68103
506.0 0.001976 497.68683 498.70111
507.0 0.001972 497.70547 498.72128
504.0 0.001984 497.72412 498.74142
510.0 0.001961 497.74280 498.76166
507.0 0.001972 497.76154 498.78189
507.0 0.001972 497.78027 498.80215
507.0 0.001972 497.79904 498.82245
508.0 0.001969 497.81784 498.84277
503.0 0.001988 497.83664 498.86313
506.0 0.001976 497.85550 498.88354
513.0 0.001949 497.87439 498.90399
507.0 0.001972 497.89328 498.92444
505.0 0.001980 497.91223 498.94489
502.0 0.001992 497.93118 498.96539
499.0 0.002004 497.95016 498.98599
500.0 0.002000 497.96921 499.00653
497.0 0.002012 497.98822 499.02716
499.0 0.002004 498.00729 499.04779
503.0 0.001988 498.02640 499.06848
497.0 0.002012 498.04553 499.08914
499.0 0.002004 498.06467 499.10986
502.0 0.001992 498.08383 499.13065
499.0 0.002004 498.10306 499.15143
499.0 0.002004 498.12228 499.17224
501.0 0.001996 498.14151 499.19308
501.0 0.001996 498.16080 499.21399
502.0 0.001992 498.18011 499.23492
500.0 0.002000 498.19943 499.25580
504.0 0.001984 498.21881 499.27679
504.0 0.001984 498.23819 499.29779
504.0 0.001984 498.25760 499.31882
503.0 0.001988 498.27704 499.33987
503.0 0.001988 498.29648 499.36093
504.0 0.001984 498.31598 499.38208
502.0 0.001992 498.33548 499.40320
504.0 0.001984 498.35501 499.42438
502.0 0.001992 498.37457 499.44556
498.0 0.002008 498.39417 499.46680
501.0 0.001996 498.41379 499.48807
500.0 0.002000 498.43341 499.50934
498.0 0.002008 498.45306 499.53067
497.0 0.002012 498.47275 499.55197
496.0 0.002016 498.49246 499.57336
494.0 0.002024 498.51221 499.59476
492.0 0.002033 498.53195 499.61621
496.0 0.002016 498.55173 499.63766
496.0 0.002016 498.57153 499.65912
498.0 0.002008 498.59137 499.68063
497.0 0.002012 498.61121 499.70221
497.0 0.002012 498.63110 499.72375
496.0 0.002016 498.65100 499.74533
502.0 0.001992 498.67090 499.76694
501.0 0.001996 498.69086 499.78864
504.0 0.001984 498.71085 499.81030
507.0 0.001972 498.73083 499.83197
503.0 0.001988 498.75085 499.85373
501.0 0.001996 498.77087 499.87549
502.0 0.001992 498.79095 499.89725
505.0 0.001980 498.81104 499.91904
504.0 0.001984 498.83115 499.94092
499.0 0.002004 498.85126 499.96280
504.0 0.001984 498.87143 499.98465
500.0 0.002000 498.89160 500.00656
497.0 0.002012 498.91180 500.02853
501.0 0.001996 498.93201 500.05051
503.0 0.001988 498.95227 500.07248
504.0 0.001984 498.97253 500.09451
500.0 0.002000 498.99280 500.11658
495.0 0.002020 499.01312 500.13864
499.0 0.002004 499.03345 500.16074
504.0 0.001984 499.05380 500.18292
500.0 0.002000 499.07416 500.20502
496.0 0.002016 499.09457 500.22720
500.0 0.002000 499.11499 500.24942
503.0 0.001988 499.13541 500.27164
505.0 0.001980 499.15588 500.29391
503.0 0.001988 499.17636 500.31619
500.0 0.002000 499.19687 500.33847
502.0 0.001992 499.21738 500.36081
498.0 0.002008 499.23792 500.38315
497.0 0.002012 499.25848 500.40552
504.0 0.001984 499.27905 500.42798
507.0 0.001972 499.29965 500.45041
505.0 0.001980 499.32028 500.47281
501.0 0.001996 499.34094 500.49530
504.0 0.001984 499.36160 500.51785
503.0 0.001988 499.38229 500.54034
504.0 0.001984 499.40298 500.56290
506.0 0.001976 499.42371 500.58545
505.0 0.001980 499.44446 500.60809
503.0 0.001988 499.46521 500.63071
504.0 0.001984 499.48599 500.65332
504.0 0.001984 499.50681 500.67603
505.0 0.001980 499.52762 500.69873
505.0 0.001980 499.54846 500.72144
504.0 0.001984 499.56931 500.74420
497.0 0.002012 499.59021 500.76697
498.0 0.002008 499.61108 500.78973
497.0 0.002012 499.63202 500.81256
500.0 0.002000 499.65295 500.83542
501.0 0.001996 499.67389 500.85828
503.0 0.001988 499.69485 500.88113
503.0 0.001988 499.71585 500.90405
504.0 0.001984 499.73688 500.92700
506.0 0.001976 499.75790 500.94995
508.0 0.001969 499.77893 500.97290
501.0 0.001996 499.80002 500.99591
501.0 0.001996 499.82108 501.01895
503.0 0.001988 499.84216 501.04199
503.0 0.001988 499.86328 501.06506
502.0 0.001992 499.88443 501.08817
504.0 0.001984 499.90558 501.11127
503.0 0.001988 499.92676 501.13437
505.0 0.001980 499.94794 501.15756
507.0 0.001972 499.96915 501.18073
507.0 0.001972 499.99036 501.20392
504.0 0.001984 500.01160 501.22714
502.0 0.001992 500.03284 501.25034
509.0 0.001965 500.05411 501.27365
504.0 0.001984 500.07541 501.29694
500.0 0.002000 500.09671 501.32025
504.0 0.001984 500.11801 501.34357
503.0 0.001988 500.13937 501.36694
499.0 0.002004 500.16071 501.39029
503.0 0.001988 500.18207 501.41364
503.0 0.001988 500.20346 501.43710
504.0 0.001984 500.22485 501.46051
505.0 0.001980 500.24628 501.48398
504.0 0.001984 500.26770 501.50751
504.0 0.001984 500.28915 501.53094
504.0 0.001984 500.31061 501.55447
505.0 0.001980 500.33209 501.57803
504.0 0.001984 500.35358 501.60159
508.0 0.001969 500.37509 501.62515
507.0 0.001972 500.39664 501.64877
507.0 0.001972 500.41815 501.67239
505.0 0.001980 500.43973 501.69601
508.0 0.001969 500.46127 501.71967
509.0 0.001965 500.48288 501.74335
510.0 0.001961 500.50446 501.76709
507.0 0.001972 500.52606 501.79077
504.0 0.001984 500.54770 501.81451
506.0 0.001976 500.56934 501.83829
508.0 0.001969 500.59100 501.86203
503.0 0.001988 500.61267 501.88583
504.0 0.001984 500.63434 501.90964
510.0 0.001961 500.65604 501.93350
505.0 0.001980 500.67776 501.95737
503.0 0.001988 500.69946 501.98123
504.0 0.001984 500.72119 502.00510
508.0 0.001969 500.74295 502.02902
508.0 0.001969 500.76471 502.05295
502.0 0.001992 500.78650 502.07693
503.0 0.001988 500.80829 502.10089
502.0 0.001992 500.83008 502.12488
503.0 0.001988 500.85190 502.14886
502.0 0.001992 500.87375 502.17285
507.0 0.001972 500.89557 502.19696
510.0 0.001961 500.91742 502.22098
505.0 0.001980 500.93930 502.24509
497.0 0.002012 500.96118 502.26920
502.0 0.001992 500.98306 502.29330
506.0 0.001976 501.00497 502.31741
504.0 0.001984 501.02689 502.34155
504.0 0.001984 501.04880 502.36572
509.0 0.001965 501.07074 502.38992
508.0 0.001969 501.09268 502.41409
509.0 0.001965 501.11465 502.43835
507.0 0.001972 501.13663 502.46259
505.0 0.001980 501.15860 502.48682
509.0 0.001965 501.18060 502.51108
508.0 0.001969 501.20261 502.53537
506.0 0.001976 501.22464 502.55966
504.0 0.001984 501.24664 502.58401
503.0 0.001988 501.26868 503.66214
503.0 0.001988 501.29074 503.69058
501.0 0.001996 501.31281 503.71902
502.0 0.001992 501.33487 503.74753
502.0 0.001992 501.35696 503.77609
505.0 0.001980 501.37906 503.80466
509.0 0.001965 501.40115 503.83325
503.0 0.001988 501.42328 503.86197
504.0 0.001984 501.44540 503.89069
505.0 0.001980 501.46753 503.91940
502.0 0.001992 501.48965 503.94821
504.0 0.001984 501.51181 503.97705
505.0 0.001980 501.53397 504.00595
506.0 0.001976 501.55615 504.03488
506.0 0.001976 501.57834 504.06381
508.0 0.001969 501.60052 504.09283
508.0 0.001969 501.62271 504.12186
507.0 0.001972 501.64493 504.15097
506.0 0.001976 501.66714 504.18008
507.0 0.001972 501.68936 504.20923
505.0 0.001980 501.71161 504.23846
506.0 0.001976 501.73386 504.26773
505.0 0.001980 501.75610 504.29703
506.0 0.001976 501.77835 504.32635
506.0 0.001976 501.80063 504.35577
504.0 0.001984 501.82291 504.38516
498.0 0.002008 501.84518 504.41461
507.0 0.001972 501.86749 504.44412
501.0 0.001996 501.88977 504.47366
499.0 0.002004 501.91208 504.50327
496.0 0.002016 501.93442 504.53296
502.0 0.001992 501.95673 504.56259
502.0 0.001992 501.97906 504.59235
502.0 0.001992 502.00140 504.62210
497.0 0.002012 502.02374 504.65192
505.0 0.001980 502.04611 504.68179
502.0 0.001992 502.06845 504.71173
502.0 0.001992 502.09082 504.74167
499.0 0.002004 502.11319 504.77170
508.0 0.001969 502.13559 504.80173
507.0 0.001972 502.15796 504.83179
508.0 0.001969 502.18036 504.86197
506.0 0.001976 502.20276 504.89215
504.0 0.001984 502.22516 504.92236
505.0 0.001980 502.24759 504.95261
504.0 0.001984 502.27002 504.98297
499.0 0.002004 502.29245 505.01331
507.0 0.001972 502.31485 505.04370
506.0 0.001976 502.33731 505.07422
500.0 0.002000 502.35974 505.10474
495.0 0.002020 502.38220 505.13525
498.0 0.002008 502.40466 505.16586
505.0 0.001980 502.42709 505.19653
503.0 0.001988 502.44958 505.22720
503.0 0.001988 502.47205 505.25800
504.0 0.001984 502.49454 505.28879
507.0 0.001972 502.51700 505.31964
499.0 0.002004 502.53949 505.35052
497.0 0.002012 502.56198 505.38150
498.0 0.002008 502.58447 505.41248
498.0 0.002008 502.60696 505.44354
501.0 0.001996 502.62949 505.47461
503.0 0.001988 502.65198 505.50580
507.0 0.001972 502.67450 505.53699
502.0 0.001992 502.69702 505.56824
498.0 0.002008 502.71954 505.59955
498.0 0.002008 502.74207 505.63089
503.0 0.001988 502.76459 505.66226
505.0 0.001980 502.78711 505.69373
505.0 0.001980 502.80966 505.72528
505.0 0.001980 502.83218 505.75681
504.0 0.001984 502.85474 505.78842
510.0 0.001961 502.87729 505.82010
508.0 0.001969 502.89984 505.85178
505.0 0.001980 502.92239 505.88358
507.0 0.001972 502.94495 505.91544
507.0 0.001972 502.96750 505.94733
503.0 0.001988 502.99005 505.97928
499.0 0.002004 503.01263 506.01126
504.0 0.001984 503.03519 506.04330
505.0 0.001980 503.05777 506.07538
502.0 0.001992 503.08035 506.10754
503.0 0.001988 503.10291 506.13980
504.0 0.001984 503.12549 506.17206
504.0 0.001984 503.14807 506.20438
506.0 0.001976 503.17065 506.23679
506.0 0.001976 503.19324 506.26923
508.0 0.001969 503.21582 506.30173
509.0 0.001965 503.23840 506.33435
506.0 0.001976 503.26099 506.36697
505.0 0.001980 503.28357 506.39963
506.0 0.001976 503.30618 506.43234
509.0 0.001965 503.32877 506.46521
505.0 0.001980 503.35135 506.49805
505.0 0.001980 503.37396 506.53094
503.0 0.001988 503.39655 506.56400
509.0 0.001965 503.41916 506.59705
510.0 0.001961 503.44174 506.63013
513.0 0.001949 503.46436 506.66333
512.0 0.001953 503.48694 506.69656
512.0 0.001953 503.50955 506.72986
509.0 0.001965 503.53214 506.76324
502.0 0.001992 503.55475 506.79666
508.0 0.001969 503.57733 506.83014
508.0 0.001969 503.59995 506.86371
510.0 0.001961 503.62253 506.89737
504.0 0.001984 503.64514 506.93109
506.0 0.001976 503.66776 506.96484
503.0 0.001988 503.69034 506.99866
504.0 0.001984 503.71295 507.03256
509.0 0.001965 503.73553 507.06656
511.0 0.001957 503.75815 507.10059
511.0 0.001957 503.78073 507.13464
506.0 0.001976 503.80331 507.16885
505.0 0.001980 503.82593 507.20306
506.0 0.001976 503.84851 507.23743
506.0 0.001976 503.87112 507.27185
511.0 0.001957 503.89371 507.30627
509.0 0.001965 503.91629 507.34085
512.0 0.001953 503.93890 507.37546
515.0 0.001942 503.96149 507.41013
511.0 0.001957 503.98407 507.44489
509.0 0.001965 504.00665 507.47974
510.0 0.001961 504.02924 507.51465
511.0 0.001957 504.05182 507.54968
507.0 0.001972 504.07440 507.58472
508.0 0.001969 504.09698 507.61984
504.0 0.001984 504.11954 507.65509
503.0 0.001988 504.14212 507.69040
507.0 0.001972 504.16470 507.72574
503.0 0.001988 504.18726 507.76123
506.0 0.001976 504.20984 507.79681
507.0 0.001972 504.23239 507.83243
511.0 0.001957 504.25494 507.86813
511.0 0.001957 504.27750 507.90396
511.0 0.001957 504.30005 507.93982
511.0 0.001957 504.32260 507.97577
506.0 0.001976 504.34515 508.01184
505.0 0.001980 504.36771 508.04800
507.0 0.001972 504.39026 508.08417
510.0 0.001961 504.41278 508.12054
509.0 0.001965 504.43533 508.15689
504.0 0.001984 504.45786 508.19342
506.0 0.001976 504.48038 508.22998
503.0 0.001988 504.50290 508.26666
503.0 0.001988 504.52542 508.30347
506.0 0.001976 504.54794 508.34030
509.0 0.001965 504.57043 508.37726
513.0 0.001949 504.59296 508.41431
512.0 0.001953 504.61545 508.45145
511.0 0.001957 504.63794 508.48871
514.0 0.001946 504.66046 508.52606
513.0 0.001949 504.68295 508.56348
510.0 0.001961 504.70541 508.60101
506.0 0.001976 504.72791 508.63867
513.0 0.001949 504.75040 508.67645
510.0 0.001961 504.77286 508.71429
510.0 0.001961 504.79532 508.75223
510.0 0.001961 504.81778 508.79025
510.0 0.001961 504.84021 508.82843
511.0 0.001957 504.86267 508.86670
513.0 0.001949 504.88513 508.90509
508.0 0.001969 504.90756 508.94354
509.0 0.001965 504.92999 508.98218
504.0 0.001984 504.95242 509.02090
507.0 0.001972 504.97482 509.05969
504.0 0.001984 504.99725 509.09863
508.0 0.001969 505.01965 509.13770
507.0 0.001972 505.04205 509.17685
510.0 0.001961 505.06445 509.21616
508.0 0.001969 505.08685 509.25552
515.0 0.001942 505.10922 509.29507
513.0 0.001949 505.13162 509.33475
512.0 0.001953 505.15399 509.37448
512.0 0.001953 505.17633 509.41437
514.0 0.001946 505.19870 509.45438
512.0 0.001953 505.22104 509.49454
511.0 0.001957 505.24338 509.53476
507.0 0.001972 505.26575 509.57520
510.0 0.001961 505.28806 509.61572
508.0 0.001969 505.31039 509.65637
512.0 0.001953 505.33270 509.69714
502.0 0.001992 505.35501 509.73813
507.0 0.001972 505.37729 509.77914
510.0 0.001961 505.39960 509.82037
510.0 0.001961 505.42188 509.86172
513.0 0.001949 505.44415 509.90323
512.0 0.001953 505.46643 509.94482
509.0 0.001965 505.48868 509.98663
510.0 0.001961 505.51093 510.02856
509.0 0.001965 505.53317 510.07062
508.0 0.001969 505.55542 510.11288
510.0 0.001961 505.57764 510.15521
510.0 0.001961 505.59985 510.19775
506.0 0.001976 505.62207 510.24048
505.0 0.001980 505.64426 510.28326
509.0 0.001965 505.66647 510.32629
507.0 0.001972 505.68866 510.36945
506.0 0.001976 505.71082 510.41275
511.0 0.001957 505.73300 510.45627
510.0 0.001961 505.75516 510.49991
505.0 0.001980 505.77731 510.54373
506.0 0.001976 505.79944 510.58771
507.0 0.001972 505.82156 510.63190
508.0 0.001969 505.84369 510.67621
508.0 0.001969 505.86581 510.72073
509.0 0.001965 505.88791 510.76547
507.0 0.001972 505.91000 510.81030
508.0 0.001969 505.93207 510.85538
506.0 0.001976 505.95413 510.90057
505.0 0.001980 505.97620 510.94604
507.0 0.001972 505.99826 510.99167
509.0 0.001965 506.02029 511.03745
506.0 0.001976 506.04233 511.08353
510.0 0.001961 506.06436 511.12973
506.0 0.001976 506.08636 511.17612
508.0 0.001969 506.10837 511.22278
505.0 0.001980 506.13034 511.26959
500.0 0.002000 506.15231 511.31665
502.0 0.001992 506.17429 511.36389
508.0 0.001969 506.19626 511.41132
506.0 0.001976 506.21820 511.45898
509.0 0.001965 506.24011 511.50690
509.0 0.001965 506.26205 511.55502
504.0 0.001984 506.28397 511.60336
508.0 0.001969 506.30585 511.65195
506.0 0.001976 506.32776 511.70078
512.0 0.001953 506.34964 511.74979
512.0 0.001953 506.37149 511.79910
515.0 0.001942 506.39334 511.84863
509.0 0.001965 506.41519 511.89841
509.0 0.001965 506.43704 511.94839
513.0 0.001949 506.45886 511.99866
511.0 0.001957 506.48065 512.04919
510.0 0.001961 506.50244 512.09998
508.0 0.001969 506.52423 512.15100
508.0 0.001969 506.54599 512.20233
511.0 0.001957 506.56775 512.25391
504.0 0.001984 506.58951 512.30579
507.0 0.001972 506.61124 512.35791
514.0 0.001946 506.63297 512.41034
512.0 0.001953 506.65466 512.46301
509.0 0.001965 506.67636 512.51599
508.0 0.001969 506.69806 512.56927
512.0 0.001953 506.71973 512.62286
511.0 0.001957 506.74136 512.67676
509.0 0.001965 506.76303 512.73096
511.0 0.001957 506.78464 512.78540
511.0 0.001957 506.80627 512.84027
511.0 0.001957 506.82788 512.89545
512.0 0.001953 506.84946 512.95087
513.0 0.001949 506.87103 513.00665
515.0 0.001942 506.89261 513.06281
511.0 0.001957 506.91415 513.11926
510.0 0.001961 506.93567 513.17603
510.0 0.001961 506.95721 513.23328
509.0 0.001965 506.97873 513.29077
509.0 0.001965 507.00021 513.34863
510.0 0.001961 507.02170 513.40686
510.0 0.001961 507.04315 513.46552
508.0 0.001969 507.06461 513.52448
506.0 0.001976 507.08603 513.58386
505.0 0.001980 507.10745 513.64374
509.0 0.001965 507.12888 513.70380
515.0 0.001942 507.15027 513.76440
510.0 0.001961 507.17163 513.82544
509.0 0.001965 507.19302 513.88678
503.0 0.001988 507.21436 513.94861
503.0 0.001988 507.23569 514.01086
504.0 0.001984 507.25702 514.07355
506.0 0.001976 507.27832 514.13666
512.0 0.001953 507.29959 514.20026
513.0 0.001949 507.32086 514.26428
508.0 0.001969 507.34213 514.32880
506.0 0.001976 507.36337 514.39374
511.0 0.001957 507.38461 514.45923
508.0 0.001969 507.40582 514.52521
510.0 0.001961 507.42700 514.59161
511.0 0.001957 507.44818 514.65851
514.0 0.001946 507.46936 514.72601
511.0 0.001957 507.49051 514.79395
509.0 0.001965 507.51163 514.86243
508.0 0.001969 507.53275 514.93152
512.0 0.001953 507.55386 515.00110
514.0 0.001946 507.57492 515.07123
513.0 0.001949 507.59601 515.14203
507.0 0.001972 507.61707 515.21332
512.0 0.001953 507.63809 515.28522
514.0 0.001946 507.65912 515.35767
510.0 0.001961 507.68011 515.43073
512.0 0.001953 507.70111 515.50446
514.0 0.001946 507.72208 515.57886
515.0 0.001942 507.74301 515.65381
515.0 0.001942 507.76395 515.72943
511.0 0.001957 507.78488 515.80573
515.0 0.001942 507.80576 515.88275
518.0 0.001931 507.82666 515.96045
513.0 0.001949 507.84750 516.03876
508.0 0.001969 507.86838 516.11786
510.0 0.001961 507.88919 516.19769
514.0 0.001946 507.91000 516.27820
516.0 0.001938 507.93082 516.35950
515.0 0.001942 507.95160 516.44165
514.0 0.001946 507.97235 516.52448
515.0 0.001942 507.99310 516.60815
512.0 0.001953 508.01382 516.69263
517.0 0.001934 508.03452 516.77789
508.0 0.001969 508.05524 516.86407
514.0 0.001946 508.07590 516.95105
515.0 0.001942 508.09653 517.03894
519.0 0.001927 508.11719 517.12775
521.0 0.001919 508.13779 517.21741
513.0 0.001949 508.15839 517.30804
515.0 0.001942 508.17899 517.39966
515.0 0.001942 508.19955 517.49219
519.0 0.001927 508.22009 517.58569
516.0 0.001938 508.24060 517.68024
515.0 0.001942 508.26111 517.77582
513.0 0.001949 508.28159 517.87238
512.0 0.001953 508.30206 517.97009
513.0 0.001949 508.32251 518.06885
516.0 0.001938 508.34296 518.16876
513.0 0.001949 508.36334 518.26984
522.0 0.001916 508.38376 518.37195
522.0 0.001916 508.40411 518.47534
521.0 0.001919 508.42447 518.57983
520.0 0.001923 508.44482 518.68573
517.0 0.001934 508.46512 518.79279
521.0 0.001919 508.48541 518.90118
521.0 0.001919 508.50571 519.01080
518.0 0.001931 508.52597 519.12183
519.0 0.001927 508.54617 519.23419
518.0 0.001931 508.56641 519.34802
514.0 0.001946 508.58661 519.46326
516.0 0.001938 508.60678 519.57996
521.0 0.001919 508.62692 519.69818
522.0 0.001916 508.64706 519.81787
521.0 0.001919 508.66721 519.93915
519.0 0.001927 508.68729 520.06201
519.0 0.001927 508.70737 520.18658
519.0 0.001927 508.72742 520.31281
516.0 0.001938 508.74747 520.44073
518.0 0.001931 508.76746 520.57043
516.0 0.001938 508.78745 520.70190
516.0 0.001938 508.80743 520.83521
521.0 0.001919 508.82739 520.97040
514.0 0.001946 508.84732 521.10754
513.0 0.001949 508.86722 521.24664
516.0 0.001938 508.88712 521.38776
514.0 0.001946 508.90698 521.53088
515.0 0.001942 508.92682 521.67621
516.0 0.001938 508.94666 521.82367
522.0 0.001916 508.96646 521.97339
518.0 0.001931 508.98627 522.12537
516.0 0.001938 509.00601 522.27972
517.0 0.001934 509.02576 522.43640
518.0 0.001931 509.04547 522.59552
517.0 0.001934 509.06519 522.75726
520.0 0.001923 509.08484 522.92151
528.0 0.001894 509.10449 523.08844
529.0 0.001890 509.12415 523.25806
524.0 0.001908 509.14374 523.43048
526.0 0.001901 509.16333 523.60577
527.0 0.001898 509.18292 523.78400
525.0 0.001905 509.20245 523.96527
521.0 0.001919 509.22198 524.14960
518.0 0.001931 509.24149 524.33716
522.0 0.001916 509.26096 524.52795
523.0 0.001912 509.28043 524.72217
520.0 0.001923 509.29987 524.91980
518.0 0.001931 509.31927 525.12097
513.0 0.001949 509.33865 525.32574
521.0 0.001919 509.35803 525.53436
520.0 0.001923 509.37738 525.74683
516.0 0.001938 509.39670 525.96326
521.0 0.001919 509.41599 526.18378
520.0 0.001923 509.43527 526.40857
524.0 0.001908 509.45453 526.63757
515.0 0.001942 509.47375 526.87109
518.0 0.001931 509.49295 527.10919
519.0 0.001927 509.51215 527.35211
521.0 0.001919 509.53131 527.59985
523.0 0.001912 509.55045 527.85266
527.0 0.001898 509.56955 528.11060
527.0 0.001898 509.58865 528.37396
524.0 0.001908 509.60773 528.64276
522.0 0.001916 509.62677 528.91730
523.0 0.001912 509.64578 529.19769
524.0 0.001908 509.66479 529.48413
529.0 0.001890 509.68378 529.77686
525.0 0.001905 509.70273 530.07605
527.0 0.001898 509.72165 530.38196
528.0 0.001894 509.74054 530.69476
528.0 0.001894 509.75943 531.01471
526.0 0.001901 509.77829 531.34198
526.0 0.001901 509.79712 531.67700
531.0 0.001883 509.81592 532.01990
530.0 0.001887 509.83472 532.37097
528.0 0.001894 509.85349 532.73053
527.0 0.001898 509.87219 533.09882
531.0 0.001883 509.89090 533.47626
532.0 0.001880 509.90961 533.86316
532.0 0.001880 509.92825 534.25989
533.0 0.001876 509.94690 534.66663
534.0 0.001873 509.96552 535.08398
535.0 0.001869 509.98410 535.51233
535.0 0.001869 510.00269 535.95190
534.0 0.001873 510.02121 536.40332
538.0 0.001859 510.03973 536.86700
539.0 0.001855 510.05823 537.34344
533.0 0.001876 510.07669 537.83319
535.0 0.001869 510.09512 538.33679
534.0 0.001873 510.11356 538.85468
530.0 0.001887 510.13193 539.38763
535.0 0.001869 510.15030 539.93622
532.0 0.001880 510.16864 540.50110
540.0 0.001852 510.18695 541.08313
547.0 0.001828 510.20523 541.68280
543.0 0.001842 510.22351 542.30115
544.0 0.001838 510.24176 542.93903
544.0 0.001838 510.25995 543.59717
543.0 0.001842 510.27817 544.27686
546.0 0.001832 510.29633 544.97894
542.0 0.001845 510.31445 545.70465
548.0 0.001825 510.33258 546.45520
550.0 0.001818 510.35065 547.23175
544.0 0.001838 510.36871 548.03607
546.0 0.001832 510.38675 548.86945
546.0 0.001832 510.40475 549.73376
541.0 0.001848 510.42273 550.63074
546.0 0.001832 510.44070 551.56256
552.0 0.001812 510.45862 552.53143
550.0 0.001818 510.47653 553.53979
550.0 0.001818 510.49442 554.59021
548.0 0.001825 510.51227 555.68591
552.0 0.001812 510.53009 556.82990
556.0 0.001799 510.54788 558.02588
551.0 0.001815 510.56567 559.27795
555.0 0.001802 510.58340 560.59015
559.0 0.001789 510.60114 561.96741
557.0 0.001795 510.61884 563.41467
556.0 0.001799 510.63651 564.93787
559.0 0.001789 510.65414 566.54291
564.0 0.001773 510.67175 568.23651
569.0 0.001757 510.68933 570.02570
568.0 0.001761 510.70691 571.91827
570.0 0.001754 510.72443 573.92236
577.0 0.001733 510.74194 576.04700
577.0 0.001733 510.75943 578.30139
572.0 0.001748 510.77689 580.69537
568.0 0.001761 510.79431 583.23956
576.0 0.001736 510.81171 585.94482
584.0 0.001712 510.82907 588.82269
591.0 0.001692 510.84644 591.88531
587.0 0.001704 510.86374 595.14508
593.0 0.001686 510.88104 598.61469
595.0 0.001681 510.89828 602.30750
595.0 0.001681 510.91553 606.23694
595.0 0.001681 510.93274 610.41650
602.0 0.001661 510.94992 614.85968
609.0 0.001642 510.96707 619.57947
612.0 0.001634 510.98419 624.58838
618.0 0.001618 511.00131 629.89807
630.0 0.001587 511.01837 635.51819
631.0 0.001585 511.03543 641.45679
635.0 0.001575 511.05243 647.71875
648.0 0.001543 511.06943 654.30634
657.0 0.001522 511.08636 661.21765
663.0 0.001508 511.10330 668.44702
674.0 0.001484 511.12021 675.98541
675.0 0.001481 511.13708 683.82080
683.0 0.001464 511.15393 691.94043
690.0 0.001449 511.17075 700.33282
700.0 0.001429 511.18756 708.99091
715.0 0.001399 511.20432 717.91565
722.0 0.001385 511.22104 727.11847
731.0 0.001368 511.23776 736.62366
740.0 0.001351 511.25443 746.46942
755.0 0.001325 511.27109 756.70587
763.0 0.001311 511.28772 767.39319
773.0 0.001294 511.30429 778.59656
791.0 0.001264 511.32086 790.38208
800.0 0.001250 511.33740 802.81097
810.0 0.001235 511.35391 815.93475
825.0 0.001212 511.37039 829.79071
846.0 0.001182 511.38684 844.39819
860.0 0.001163 511.40326 859.75653
871.0 0.001148 511.41965 875.84387
887.0 0.001127 511.43604 892.61786
904.0 0.001106 511.45236 910.01886
921.0 0.001086 511.46866 927.97607
943.0 0.001060 511.48495 946.41541
956.0 0.001046 511.50119 965.27106
980.0 0.001020 511.51740 984.49701
1007.0 0.000993 511.53360 1004.07764
1031.0 0.000970 511.54977 1024.03699
1051.0 0.000951 511.56589 1044.44006
1076.0 0.000929 511.58200 1065.39063
1088.0 0.000919 511.59808 1087.02222
1108.0 0.000903 511.61411 1109.48242
1127.0 0.000887 511.63013 1132.91663
1155.0 0.000866 511.64612 1157.44922
1189.0 0.000841 511.66208 1183.16760
1228.0 0.000814 511.67801 1210.10901
1262.0 0.000792 511.69391 1238.25232
1301.0 0.000769 511.70978 1267.51575
1330.0 0.000752 511.72562 1297.76038
1368.0 0.000731 511.74142 1328.80103
1404.0 0.000712 511.75720 1360.42126
1431.0 0.000699 511.77295 1392.39355
1459.0 0.000685 511.78867 1424.49927
1491.0 0.000671 511.80435 1456.54504
1515.0 0.000660 511.82001 1488.37170
1541.0 0.000649 511.83563 1519.85376
1579.0 0.000633 511.85126 1550.88586
1631.0 0.000613 511.86682 1581.36108
1673.0 0.000598 511.88235 1611.14307
1706.0 0.000586 511.89786 1640.03918
1707.0 0.000586 511.91333 1667.77954
1719.0 0.000582 511.92880 1694.00647
1760.0 0.000568 511.94421 1718.27625
1768.0 0.000566 511.95959 1740.07593
1774.0 0.000564 511.97498 1758.84766
1778.0 0.000562 511.99030 1774.02234
1792.0 0.000558 512.00562 1785.05054
1795.0 0.000557 512.02087 1791.43286
1776.0 0.000563 512.03607 1792.74231
1765.0 0.000567 512.05133 1788.64441
1761.0 0.000568 512.06647 1778.91211
1744.0 0.000573 512.08160 1763.44238
1713.0 0.000584 512.09674 1742.27112
1696.0 0.000590 512.11182 1715.58667
1667.0 0.000600 512.12689 1683.73547
1616.0 0.000619 512.14191 1647.21619
1576.0 0.000635 512.15692 1606.65833
1544.0 0.000648 512.17188 1562.78906
1505.0 0.000664 512.18683 1516.39026
1462.0 0.000684 512.20172 1468.25391
1415.0 0.000707 512.21655 1419.14160
1366.0 0.000732 512.23145 1369.75232
1325.0 0.000755 512.24622 1320.70190
1274.0 0.000785 512.26099 1272.51147
1216.0 0.000822 512.27576 1225.60669
1158.0 0.000864 512.29047 1180.32166
1110.0 0.000901 512.30518 1136.90723
1061.0 0.000943 512.31982 1095.54211
1023.0 0.000978 512.33447 1056.34314
1000.0 0.001000 512.34906 1019.37567
978.0 0.001022 512.36359 984.66302
944.0 0.001059 512.37811 952.19452
906.0 0.001104 512.39264 921.93213
876.0 0.001142 512.40710 893.81628
856.0 0.001168 512.42151 867.77094
832.0 0.001202 512.43591 843.70691
800.0 0.001250 512.45032 821.52637
779.0 0.001284 512.46466 801.12457
749.0 0.001335 512.47894 782.39294
722.0 0.001385 512.49323 765.22119
709.0 0.001410 512.50751 749.49884
697.0 0.001435 512.52173 735.11682
686.0 0.001458 512.53589 721.96899
672.0 0.001488 512.55005 709.95251
663.0 0.001508 512.56421 698.96954
660.0 0.001515 512.57825 688.92737
657.0 0.001522 512.59235 679.73883
648.0 0.001543 512.60638 671.32294
641.0 0.001560 512.62036 663.60431
642.0 0.001558 512.63434 656.51422
633.0 0.001580 512.64825 649.98962
627.0 0.001595 512.66217 643.97339
619.0 0.001616 512.67603 638.41400
613.0 0.001631 512.68988 633.26489
612.0 0.001634 512.70367 628.48468
606.0 0.001650 512.71741 624.03650
601.0 0.001664 512.73120 619.88733
593.0 0.001686 512.74487 616.00818
597.0 0.001675 512.75854 612.37317
596.0 0.001678 512.77222 608.95972
598.0 0.001672 512.78583 605.74774
597.0 0.001675 512.79938 602.71942
592.0 0.001689 512.81293 599.85931
583.0 0.001715 512.82648 597.15332
576.0 0.001736 512.83997 594.58942
578.0 0.001730 512.85339 592.15668
581.0 0.001721 512.86682 589.84528
576.0 0.001736 512.88019 587.64667
570.0 0.001754 512.89355 585.55304
573.0 0.001745 512.90692 583.55737
578.0 0.001730 512.92017 581.65332
579.0 0.001727 512.93347 579.83521
576.0 0.001736 512.94666 578.09772
574.0 0.001742 512.95990 576.43597
571.0 0.001751 512.97302 574.84576
573.0 0.001745 512.98615 573.32300
566.0 0.001767 512.99927 571.86383
570.0 0.001754 513.01233 570.46490
571.0 0.001751 513.02533 569.12299
568.0 0.001761 513.03833 567.83490
567.0 0.001764 513.05133 566.59808
574.0 0.001742 513.06427 565.40997
572.0 0.001748 513.07715 564.26788
570.0 0.001754 513.09003 563.16968
564.0 0.001773 513.10284 562.11322
562.0 0.001779 513.11566 561.09644
561.0 0.001783 513.12842 560.11755
558.0 0.001792 513.14117 559.17468
561.0 0.001783 513.15387 558.26611
560.0 0.001786 513.16656 557.39026
563.0 0.001776 513.17920 556.54578
563.0 0.001776 513.19177 555.73132
560.0 0.001786 513.20435 554.94525
562.0 0.001779 513.21692 554.18652
559.0 0.001789 513.22943 553.45392
557.0 0.001795 513.24188 552.74640
552.0 0.001812 513.25433 552.06274
558.0 0.001792 513.26672 551.40198
553.0 0.001808 513.27911 550.76312
544.0 0.001838 513.29144 550.14545
544.0 0.001838 513.30377 549.54797
552.0 0.001812 513.31604 548.96985
552.0 0.001812 513.32831 548.41028
555.0 0.001802 513.34052 547.86871
550.0 0.001818 513.35272 547.34424
552.0 0.001812 513.36487 546.83636
550.0 0.001818 513.37695 546.34430
547.0 0.001828 513.38904 545.86743
545.0 0.001835 513.40106 545.40546
545.0 0.001835 513.41309 544.95746
552.0 0.001812 513.42505 544.52313
550.0 0.001818 513.43701 544.10205
546.0 0.001832 513.44891 543.69342
548.0 0.001825 513.46082 543.29706
548.0 0.001825 513.47266 542.91266
550.0 0.001818 513.48444 542.53937
544.0 0.001838 513.49622 542.17706
545.0 0.001835 513.50800 541.82550
542.0 0.001845 513.51971 541.48389
540.0 0.001852 513.53137 541.15240
541.0 0.001848 513.54303 540.83032
538.0 0.001859 513.55463 540.51746
541.0 0.001848 513.56622 540.21356
546.0 0.001832 513.57776 539.91815
537.0 0.001862 513.58929 539.63116
541.0 0.001848 513.60077 539.35229
544.0 0.001838 513.61218 539.08118
543.0 0.001842 513.62360 538.81769
538.0 0.001859 513.63501 538.56152
543.0 0.001842 513.64636 538.31244
539.0 0.001855 513.65765 538.07031
539.0 0.001855 513.66895 537.83466
540.0 0.001852 513.68018 537.60565
543.0 0.001842 513.69141 537.38287
540.0 0.001852 513.70258 537.16626
539.0 0.001855 513.71368 536.95551
537.0 0.001862 513.72479 536.75043
539.0 0.001855 513.73590 536.55096
541.0 0.001848 513.74695 536.35699
545.0 0.001835 513.75793 536.16821
546.0 0.001832 513.76892 535.98444
549.0 0.001821 513.77985 535.80585
544.0 0.001838 513.79077 535.63196
546.0 0.001832 513.80164 535.46283
542.0 0.001845 513.81250 535.29822
545.0 0.001835 513.82330 535.13806
543.0 0.001842 513.83405 534.98224
538.0 0.001859 513.84479 534.83069
541.0 0.001848 513.85547 534.68317
540.0 0.001852 513.86615 534.53961
540.0 0.001852 513.87677 534.39996
542.0 0.001845 513.88739 534.26428
543.0 0.001842 513.89795 534.13202
541.0 0.001848 513.90851 534.00354
539.0 0.001855 513.91901 533.87848
533.0 0.001876 513.92950 533.75684
531.0 0.001883 513.93988 533.63861
540.0 0.001852 513.95032 533.52362
539.0 0.001855 513.96069 533.41180
542.0 0.001845 513.97101 533.30310
542.0 0.001845 513.98132 533.19739
541.0 0.001848 513.99158 533.09467
541.0 0.001848 514.00177 532.99493
547.0 0.001828 514.01196 532.89783
546.0 0.001832 514.02216 532.80365
548.0 0.001825 514.03229 532.71204
543.0 0.001842 514.04236 532.62317
548.0 0.001825 514.05243 532.53687
545.0 0.001835 514.06244 532.45300
548.0 0.001825 514.07245 532.37164
549.0 0.001821 514.08240 532.29272
545.0 0.001835 514.09235 532.21619
543.0 0.001842 514.10223 532.14191
545.0 0.001835 514.11206 532.06989
544.0 0.001838 514.12189 532.00024
541.0 0.001848 514.13165 531.93256
546.0 0.001832 514.14142 531.86700
548.0 0.001825 514.15112 531.80359
542.0 0.001845 514.16083 531.74231
543.0 0.001842 514.17047 531.68298
543.0 0.001842 514.18011 531.62555
543.0 0.001842 514.18970 531.57007
543.0 0.001842 514.19922 531.51654
545.0 0.001835 514.20874 531.46490
543.0 0.001842 514.21820 531.41492
546.0 0.001832 514.22766 531.36676
544.0 0.001838 514.23706 531.32037
542.0 0.001845 514.24646 531.27576
543.0 0.001842 514.25580 531.23285
549.0 0.001821 514.26514 531.19153
552.0 0.001812 514.27435 531.15186
547.0 0.001828 514.28363 531.11365
542.0 0.001845 514.29285 531.07727
543.0 0.001842 514.30200 531.04236
543.0 0.001842 514.31116 531.00891
541.0 0.001848 514.32025 530.97693
542.0 0.001845 514.32928 530.94653
546.0 0.001832 514.33832 530.91760
540.0 0.001852 514.34735 530.89001
540.0 0.001852 514.35632 530.86377
537.0 0.001862 514.36523 530.83905
535.0 0.001869 514.37415 530.81567
538.0 0.001859 514.38300 530.79352
538.0 0.001859 514.39185 530.77277
537.0 0.001862 514.40063 530.75323
536.0 0.001866 514.40936 530.73523
536.0 0.001866 514.41809 530.71832
540.0 0.001852 514.42682 530.70264
543.0 0.001842 514.43549 530.68817
542.0 0.001845 514.44409 530.67499
540.0 0.001852 514.45270 530.66309
542.0 0.001845 514.46124 530.65216
539.0 0.001855 514.46973 530.64252
544.0 0.001838 514.47821 530.63403
541.0 0.001848 514.48669 530.62671
538.0 0.001859 514.49512 530.62048
539.0 0.001855 514.50348 530.61536
538.0 0.001859 514.51184 530.61127
543.0 0.001842 514.52014 530.60840
545.0 0.001835 514.52844 530.60657
544.0 0.001838 514.53668 530.60571
544.0 0.001838 514.54486 530.60602
545.0 0.001835 514.55304 530.60736
536.0 0.001866 514.56122 530.60962
535.0 0.001869 514.56934 530.61298
539.0 0.001855 514.57739 530.61731
542.0 0.001845 514.58545 530.62268
540.0 0.001852 514.59344 530.62915
538.0 0.001859 514.60138 530.63641
534.0 0.001873 514.60931 530.64471
535.0 0.001869 514.61725 530.65393
536.0 0.001866 514.62512 530.66418
535.0 0.001869 514.63293 530.67548
541.0 0.001848 514.64075 530.68750
536.0 0.001866 514.64850 530.70056
535.0 0.001869 514.65625 530.71448
528.0 0.001894 514.66394 530.72943
531.0 0.001883 514.67157 530.74518
536.0 0.001866 514.67920 530.76190
534.0 0.001873 514.68683 530.77948
539.0 0.001855 514.69440 530.79803
533.0 0.001876 514.70190 530.81744
530.0 0.001887 514.70941 530.83771
529.0 0.001890 514.71686 530.85876
530.0 0.001887 514.72424 530.88080
533.0 0.001876 514.73163 530.90375
535.0 0.001869 514.73901 530.92749
537.0 0.001862 514.74634 530.95209
539.0 0.001855 514.75360 530.97754
536.0 0.001866 514.76086 531.00397
536.0 0.001866 514.76807 531.03107
535.0 0.001869 514.77527 531.05908
535.0 0.001869 514.78241 531.08795
536.0 0.001866 514.78955 531.11761
534.0 0.001873 514.79663 531.14813
534.0 0.001873 514.80365 531.17950
532.0 0.001880 514.81067 531.21161
536.0 0.001866 514.81763 531.24475
530.0 0.001887 514.82458 531.27850
530.0 0.001887 514.83148 531.31323
527.0 0.001898 514.83838 531.34869
529.0 0.001890 514.84521 531.38489
536.0 0.001866 514.85199 531.42212
535.0 0.001869 514.85876 531.46008
533.0 0.001876 514.86554 531.49878
534.0 0.001873 514.87219 531.53839
534.0 0.001873 514.87891 531.57874
532.0 0.001880 514.88550 531.61993
531.0 0.001883 514.89209 531.66187
531.0 0.001883 514.89868 531.70465
531.0 0.001883 514.90521 531.74835
535.0 0.001869 514.91168 531.79285
532.0 0.001880 514.91815 531.83807
531.0 0.001883 514.92462 531.88409
533.0 0.001876 514.93097 531.93103
534.0 0.001873 514.93738 531.97870
534.0 0.001873 514.94366 532.02722
533.0 0.001876 514.94995 532.07654
530.0 0.001887 514.95624 532.12659
528.0 0.001894 514.96246 532.17761
530.0 0.001887 514.96863 532.22943
529.0 0.001890 514.97479 532.28198
530.0 0.001887 514.98090 532.33539
532.0 0.001880 514.98700 532.38971
531.0 0.001883 514.99304 532.44470
533.0 0.001876 514.99908 532.50055
536.0 0.001866 515.00507 532.55725
539.0 0.001855 515.01105 532.61493
532.0 0.001880 515.01691 532.67328
532.0 0.001880 515.02283 532.73242
530.0 0.001887 515.02869 532.79254
526.0 0.001901 515.03448 532.85345
528.0 0.001894 515.04028 532.91516
524.0 0.001908 515.04602 532.97772
528.0 0.001894 515.05170 533.04132
529.0 0.001890 515.05743 533.10559
526.0 0.001901 515.06305 533.17065
529.0 0.001890 515.06866 533.23676
527.0 0.001898 515.07422 533.30365
531.0 0.001883 515.07977 533.37140
534.0 0.001873 515.08527 533.44006
534.0 0.001873 515.09076 533.50964
534.0 0.001873 515.09619 533.58002
529.0 0.001890 515.10162 533.65118
526.0 0.001901 515.10699 533.72345
529.0 0.001890 515.11230 533.79657
533.0 0.001876 515.11761 533.87048
533.0 0.001876 515.12292 533.94543
531.0 0.001883 515.12817 534.02118
532.0 0.001880 515.13336 534.09784
535.0 0.001869 515.13855 534.17554
532.0 0.001880 515.14368 534.25409
531.0 0.001883 515.14874 534.33368
531.0 0.001883 515.15381 534.41412
532.0 0.001880 515.15887 534.49548
531.0 0.001883 515.16388 534.57782
531.0 0.001883 515.16882 534.66119
531.0 0.001883 515.17377 534.74542
534.0 0.001873 515.17865 534.83069
533.0 0.001876 515.18353 534.91699
531.0 0.001883 515.18835 535.00415
528.0 0.001894 515.19318 535.09235
530.0 0.001887 515.19794 535.18152
531.0 0.001883 515.20270 535.27173
529.0 0.001890 515.20740 535.36298
529.0 0.001890 515.21204 535.45526
534.0 0.001873 515.21667 535.54852
532.0 0.001880 515.22125 535.64294
528.0 0.001894 515.22583 535.73822
529.0 0.001890 515.23035 535.83478
533.0 0.001876 515.23486 535.93219
531.0 0.001883 515.23932 536.03082
530.0 0.001887 515.24377 536.13049
532.0 0.001880 515.24817 536.23126
535.0 0.001869 515.25250 536.33313
536.0 0.001866 515.25684 536.43604
530.0 0.001887 515.26117 536.54016
534.0 0.001873 515.26538 536.64539
533.0 0.001876 515.26965 536.75171
526.0 0.001901 515.27386 536.85919
528.0 0.001894 515.27802 537.55615
532.0 0.001880 515.28210 537.66754
530.0 0.001887 515.28625 537.78015
529.0 0.001890 515.29028 537.89380
531.0 0.001883 515.29431 538.00885
535.0 0.001869 515.29834 538.12512
533.0 0.001876 515.30231 538.24255
533.0 0.001876 515.30621 538.36115
537.0 0.001862 515.31012 538.48120
536.0 0.001866 515.31396 538.60236
537.0 0.001862 515.31781 538.72473
536.0 0.001866 515.32159 538.84857
538.0 0.001859 515.32538 538.97369
540.0 0.001852 515.32910 539.10010
542.0 0.001845 515.33276 539.22784
532.0 0.001880 515.33643 539.35693
529.0 0.001890 515.34009 539.48730
531.0 0.001883 515.34369 539.61914
533.0 0.001876 515.34723 539.75226
537.0 0.001862 515.35077 539.88684
535.0 0.001869 515.35425 540.02289
536.0 0.001866 515.35773 540.16028
534.0 0.001873 515.36121 540.29913
531.0 0.001883 515.36456 540.43951
529.0 0.001890 515.36792 540.58130
533.0 0.001876 515.37128 540.72455
535.0 0.001869 515.37457 540.86932
533.0 0.001876 515.37787 541.01563
533.0 0.001876 515.38110 541.16357
530.0 0.001887 515.38428 541.31293
530.0 0.001887 515.38745 541.46387
530.0 0.001887 515.39056 541.61639
529.0 0.001890 515.39368 541.77069
531.0 0.001883 515.39679 541.92645
535.0 0.001869 515.39978 542.08386
541.0 0.001848 515.40283 542.24286
538.0 0.001859 515.40576 542.40369
541.0 0.001848 515.40875 542.56604
546.0 0.001832 515.41162 542.73016
538.0 0.001859 515.41449 542.89606
536.0 0.001866 515.41736 543.06372
537.0 0.001862 515.42017 543.23303
538.0 0.001859 515.42291 543.40430
535.0 0.001869 515.42566 543.57733
536.0 0.001866 515.42841 543.75220
542.0 0.001845 515.43109 543.92883
541.0 0.001848 515.43372 544.10736
536.0 0.001866 515.43634 544.28778
531.0 0.001883 515.43890 544.47015
533.0 0.001876 515.44147 544.65448
533.0 0.001876 515.44397 544.84070
537.0 0.001862 515.44647 545.02893
531.0 0.001883 515.44891 545.21918
536.0 0.001866 515.45135 545.41150
542.0 0.001845 515.45374 545.60577
536.0 0.001866 515.45612 545.80225
534.0 0.001873 515.45844 546.00067
542.0 0.001845 515.46069 546.20129
545.0 0.001835 515.46295 546.40405
542.0 0.001845 515.46521 546.60907
546.0 0.001832 515.46741 546.81628
543.0 0.001842 515.46954 547.02563
539.0 0.001855 515.47168 547.23724
543.0 0.001842 515.47382 547.45129
541.0 0.001848 515.47583 547.66742
542.0 0.001845 515.47791 547.88605
541.0 0.001848 515.47992 548.10706
539.0 0.001855 515.48187 548.33032
541.0 0.001848 515.48383 548.55603
543.0 0.001842 515.48572 548.78430
544.0 0.001838 515.48761 549.01501
539.0 0.001855 515.48944 549.24823
538.0 0.001859 515.49121 549.48395
540.0 0.001852 515.49304 549.72235
538.0 0.001859 515.49475 549.96320
539.0 0.001855 515.49646 550.20673
536.0 0.001866 515.49817 550.45306
545.0 0.001835 515.49982 550.70197
542.0 0.001845 515.50146 550.95367
537.0 0.001862 515.50305 551.20819
539.0 0.001855 515.50458 551.46533
543.0 0.001842 515.50610 551.72546
547.0 0.001828 515.50763 551.98846
543.0 0.001842 515.50903 552.25439
548.0 0.001825 515.51050 552.52319
544.0 0.001838 515.51190 552.79492
545.0 0.001835 515.51324 553.06982
544.0 0.001838 515.51459 553.34772
542.0 0.001845 515.51593 553.62866
547.0 0.001828 515.51715 553.91284
550.0 0.001818 515.51843 554.20026
546.0 0.001832 515.51965 554.49066
546.0 0.001832 515.52081 554.84308
548.0 0.001825 515.52197 555.14020
546.0 0.001832 515.52307 555.44067
553.0 0.001808 515.52417 555.74451
554.0 0.001805 515.52521 556.05170
554.0 0.001805 515.52625 556.36249
554.0 0.001805 515.52722 556.67676
551.0 0.001815 515.52820 556.99457
545.0 0.001835 515.52911 557.31598
550.0 0.001818 515.53003 557.64105
550.0 0.001818 515.53088 557.96979
555.0 0.001802 515.53174 558.30231
559.0 0.001789 515.53253 558.63849
554.0 0.001805 515.53333 558.97876
549.0 0.001821 515.53406 559.32275
547.0 0.001828 515.53473 559.67059
551.0 0.001815 515.53546 560.02258
549.0 0.001821 515.53607 560.37860
553.0 0.001808 515.53668 560.73865
553.0 0.001808 515.53729 561.10291
557.0 0.001795 515.53784 561.47119
560.0 0.001786 515.53839 561.84393
555.0 0.001802 515.53888 562.22101
556.0 0.001799 515.53937 562.60217
560.0 0.001786 515.53979 562.98804
562.0 0.001779 515.54016 563.37823
562.0 0.001779 515.54059 563.77295
560.0 0.001786 515.54089 564.17230
562.0 0.001779 515.54120 564.57635
568.0 0.001761 515.54150 564.98499
564.0 0.001773 515.54175 565.39856
564.0 0.001773 515.54199 565.81683
556.0 0.001799 515.54218 566.24005
560.0 0.001786 515.54236 566.66821
560.0 0.001786 515.54248 567.10144
566.0 0.001767 515.54254 567.53967
563.0 0.001776 515.54260 567.98315
564.0 0.001773 515.54266 568.43188
566.0 0.001767 515.54266 568.88574
563.0 0.001776 515.54266 569.34521
563.0 0.001776 515.54260 569.81000
566.0 0.001767 515.54254 570.28015
568.0 0.001761 515.54242 570.75598
570.0 0.001754 515.54230 571.23743
570.0 0.001754 515.54211 571.72461
568.0 0.001761 515.54193 572.21753
566.0 0.001767 515.54169 572.71655
573.0 0.001745 515.54144 573.22125
571.0 0.001751 515.54114 573.73212
572.0 0.001748 515.54083 574.24902
575.0 0.001739 515.54047 574.77222
577.0 0.001733 515.54010 575.30157
573.0 0.001745 515.53967 575.83740
576.0 0.001736 515.53925 576.37952
572.0 0.001748 515.53876 576.92828
576.0 0.001736 515.53827 577.48364
581.0 0.001721 515.53772 578.04565
579.0 0.001727 515.53717 578.61444
576.0 0.001736 515.53656 579.19019
581.0 0.001721 515.53595 579.77283
578.0 0.001730 515.53534 580.36237
582.0 0.001718 515.53467 580.95935
584.0 0.001712 515.53394 581.56360
581.0 0.001721 515.53320 582.17499
576.0 0.001736 515.53247 582.79395
570.0 0.001754 515.53168 583.42047
570.0 0.001754 515.53082 584.05463
568.0 0.001761 515.52997 584.69653
568.0 0.001761 515.52911 585.34637
581.0 0.001721 515.52820 586.00415
589.0 0.001698 515.52722 586.67004
586.0 0.001706 515.52631 587.34418
578.0 0.001730 515.52527 588.02667
579.0 0.001727 515.52423 588.71759
586.0 0.001706 515.52319 589.41699
587.0 0.001704 515.52209 590.12518
595.0 0.001681 515.52100 590.84222
592.0 0.001689 515.51984 591.56812
589.0 0.001698 515.51868 592.30322
584.0 0.001712 515.51752 593.04749
583.0 0.001715 515.51624 593.80109
574.0 0.001742 515.51501 594.56421
577.0 0.001733 515.51373 595.33704
581.0 0.001721 515.51239 596.11969
580.0 0.001724 515.51105 596.91217
580.0 0.001724 515.50970 597.71478
576.0 0.001736 515.50830 598.52777
580.0 0.001724 515.50684 599.35120
575.0 0.001739 515.50543 600.18524
578.0 0.001730 515.50391 601.03009
585.0 0.001709 515.50238 601.88586
588.0 0.001701 515.50085 602.75293
587.0 0.001704 515.49927 603.63116
585.0 0.001709 515.49768 604.52106
591.0 0.001692 515.49609 605.42267
595.0 0.001681 515.49438 606.33636
595.0 0.001681 515.49274 607.26215
592.0 0.001689 515.49103 608.20038
599.0 0.001669 515.48926 609.15131
595.0 0.001681 515.48749 610.11517
591.0 0.001692 515.48572 611.09210
590.0 0.001695 515.48389 612.08240
594.0 0.001684 515.48206 613.08649
595.0 0.001681 515.48016 614.10449
593.0 0.001686 515.47827 615.13672
589.0 0.001698 515.47632 616.18353
594.0 0.001684 515.47437 617.24512
598.0 0.001672 515.47235 618.32190
603.0 0.001658 515.47034 619.41425
598.0 0.001672 515.46826 620.52240
599.0 0.001669 515.46619 621.64667
595.0 0.001681 515.46411 622.78760
601.0 0.001664 515.46198 623.94543
600.0 0.001667 515.45984 625.12073
596.0 0.001678 515.45764 626.31366
597.0 0.001675 515.45544 627.52484
597.0 0.001675 515.45319 628.75470
592.0 0.001689 515.45093 630.00360
597.0 0.001675 515.44861 631.27209
601.0 0.001664 515.44629 632.56067
608.0 0.001645 515.44397 633.86987
612.0 0.001634 515.44159 635.20020
612.0 0.001634 515.43915 636.55231
618.0 0.001618 515.43677 637.92651
617.0 0.001621 515.43427 639.32379
614.0 0.001629 515.43182 640.74438
620.0 0.001613 515.42926 642.18921
621.0 0.001610 515.42676 643.65875
625.0 0.001600 515.42419 645.15393
620.0 0.001613 515.42157 646.67517
624.0 0.001603 515.41895 648.22345
630.0 0.001587 515.41632 649.79950
632.0 0.001582 515.41364 651.40405
636.0 0.001572 515.41095 653.03784
634.0 0.001577 515.40820 654.70203
626.0 0.001597 515.40546 656.39716
632.0 0.001582 515.40271 658.12445
636.0 0.001572 515.39990 659.88446
641.0 0.001560 515.39703 661.67859
643.0 0.001555 515.39417 663.50769
641.0 0.001560 515.39130 665.37250
641.0 0.001560 515.38837 667.27460
646.0 0.001548 515.38544 669.21466
649.0 0.001541 515.38251 671.19403
648.0 0.001543 515.37952 673.21387
641.0 0.001560 515.37646 675.27527
650.0 0.001538 515.37341 677.37958
651.0 0.001536 515.37036 679.52802
654.0 0.001529 515.36725 681.72180
657.0 0.001522 515.36414 683.96240
662.0 0.001511 515.36102 686.25110
668.0 0.001497 515.35785 688.58923
676.0 0.001479 515.35461 690.97815
676.0 0.001479 515.35138 693.41949
678.0 0.001475 515.34814 695.91455
676.0 0.001479 515.34485 698.46490
684.0 0.001462 515.34155 701.07190
691.0 0.001447 515.33826 703.73712
692.0 0.001445 515.33490 706.46222
689.0 0.001451 515.33148 709.24835
689.0 0.001451 515.32813 712.09735
693.0 0.001443 515.32465 715.01062
696.0 0.001437 515.32123 717.98969
700.0 0.001429 515.31775 721.03601
705.0 0.001418 515.31421 724.15082
719.0 0.001391 515.31067 727.33594
725.0 0.001379 515.30713 730.59241
718.0 0.001393 515.30353 733.92157
725.0 0.001379 515.29993 737.32471
731.0 0.001368 515.29626 740.80280
742.0 0.001348 515.29266 744.35681
739.0 0.001353 515.28894 747.98792
738.0 0.001355 515.28522 751.69659
751.0 0.001332 515.28149 755.48346
759.0 0.001318 515.27777 759.34875
764.0 0.001309 515.27399 763.29297
755.0 0.001325 515.27014 767.31573
760.0 0.001316 515.26630 771.41644
764.0 0.001309 515.26245 775.59497
775.0 0.001290 515.25854 779.84973
787.0 0.001271 515.25464 784.17969
781.0 0.001280 515.25073 788.58289
797.0 0.001255 515.24677 793.05688
805.0 0.001242 515.24280 797.59912
809.0 0.001236 515.23877 802.20612
810.0 0.001235 515.23474 806.87396
818.0 0.001222 515.23071 811.59802
824.0 0.001214 515.22662 816.37311
832.0 0.001202 515.22247 821.19354
834.0 0.001199 515.21838 826.05212
839.0 0.001192 515.21423 830.94165
834.0 0.001199 515.21002 835.85364
836.0 0.001196 515.20581 840.77893
839.0 0.001192 515.20160 845.70746
837.0 0.001195 515.19733 850.62805
845.0 0.001183 515.19305 855.52887
858.0 0.001166 515.18878 860.39691
869.0 0.001151 515.18445 865.21863
865.0 0.001156 515.18011 869.97919
865.0 0.001156 515.17572 874.66327
860.0 0.001163 515.17133 879.25452
871.0 0.001148 515.16693 883.73602
867.0 0.001153 515.16248 888.09015
867.0 0.001153 515.15802 892.29895
874.0 0.001144 515.15350 896.34412
881.0 0.001135 515.14899 900.20685
885.0 0.001130 515.14447 903.86829
887.0 0.001127 515.13989 907.31012
892.0 0.001121 515.13531 910.51410
899.0 0.001112 515.13074 913.46240
906.0 0.001104 515.12610 916.13794
921.0 0.001086 515.12140 918.52478
927.0 0.001079 515.11676 920.60803
931.0 0.001074 515.11206 922.37408
928.0 0.001078 515.10730 923.81085
925.0 0.001081 515.10260 924.90802
922.0 0.001085 515.09778 925.65717
921.0 0.001086 515.09302 926.05194
917.0 0.001091 515.08820 926.08807
928.0 0.001078 515.08337 925.76312
922.0 0.001085 515.07849 925.07751
921.0 0.001086 515.07361 924.03326
926.0 0.001080 515.06866 922.63507
935.0 0.001070 515.06378 920.88922
928.0 0.001078 515.05884 918.80450
923.0 0.001083 515.05383 916.39117
913.0 0.001095 515.04883 913.66174
916.0 0.001092 515.04382 910.62976
917.0 0.001091 515.03876 907.31055
917.0 0.001091 515.03369 903.72015
927.0 0.001079 515.02863 899.87598
928.0 0.001078 515.02350 895.79608
909.0 0.001100 515.01837 891.49902
903.0 0.001107 515.01318 887.00372
904.0 0.001106 515.00806 882.32910
902.0 0.001109 515.00281 877.49420
897.0 0.001115 514.99762 872.51788
898.0 0.001114 514.99237 867.41846
887.0 0.001127 514.98706 862.21399
877.0 0.001140 514.98181 856.92163
877.0 0.001140 514.97650 851.55829
877.0 0.001140 514.97113 846.13959
876.0 0.001142 514.96582 840.68079
872.0 0.001147 514.96045 835.19574
865.0 0.001156 514.95502 829.69794
849.0 0.001178 514.94958 824.19958
843.0 0.001186 514.94415 818.71216
837.0 0.001195 514.93872 813.24597
829.0 0.001206 514.93323 807.81073
836.0 0.001196 514.92767 802.41498
827.0 0.001209 514.92218 797.06671
817.0 0.001224 514.91663 791.77289
806.0 0.001241 514.91107 786.53979
802.0 0.001247 514.90546 781.37280
798.0 0.001253 514.89984 776.27673
797.0 0.001255 514.89423 771.25592
787.0 0.001271 514.88855 766.31378
782.0 0.001279 514.88287 761.45337
784.0 0.001276 514.87720 756.67725
775.0 0.001290 514.87146 751.98724
771.0 0.001297 514.86572 747.38501
776.0 0.001289 514.85992 742.87183
767.0 0.001304 514.85419 738.44818
749.0 0.001335 514.84839 734.11499
747.0 0.001339 514.84253 729.87219
746.0 0.001340 514.83667 725.71997
739.0 0.001353 514.83081 721.65759
737.0 0.001357 514.82495 717.68500
733.0 0.001364 514.81903 713.80133
724.0 0.001381 514.81311 710.00555
722.0 0.001385 514.80713 706.29694
717.0 0.001395 514.80121 702.67444
714.0 0.001401 514.79523 699.13647
712.0 0.001404 514.78918 695.68201
704.0 0.001420 514.78314 692.30969
693.0 0.001443 514.77710 689.01794
697.0 0.001435 514.77106 685.80524
699.0 0.001431 514.76495 682.67023
693.0 0.001443 514.75885 679.61115
692.0 0.001445 514.75269 676.62653
674.0 0.001484 514.74652 673.71484
679.0 0.001473 514.74036 670.87415
677.0 0.001477 514.73419 668.10315
674.0 0.001484 514.72797 665.40002
667.0 0.001499 514.72174 662.76331
666.0 0.001502 514.71552 660.19128
661.0 0.001513 514.70923 657.68250
666.0 0.001502 514.70294 655.23511
663.0 0.001508 514.69666 652.84784
656.0 0.001524 514.69031 650.51904
660.0 0.001515 514.68396 648.24713
658.0 0.001520 514.67755 646.03058
645.0 0.001550 514.67120 643.86810
647.0 0.001546 514.66479 641.75830
647.0 0.001546 514.65839 639.69958
633.0 0.001580 514.65192 637.69055
639.0 0.001565 514.64545 635.73004
630.0 0.001587 514.63898 633.81659
630.0 0.001587 514.63245 631.94879
625.0 0.001600 514.62592 630.12567
630.0 0.001587 514.61938 628.34570
627.0 0.001595 514.61285 626.60797
626.0 0.001597 514.60626 624.91113
621.0 0.001610 514.59967 623.25409
623.0 0.001605 514.59302 621.63562
629.0 0.001590 514.58643 620.05493
628.0 0.001592 514.57977 618.51062
620.0 0.001613 514.57306 617.00171
624.0 0.001603 514.56641 615.52759
621.0 0.001610 514.55969 614.08661
626.0 0.001597 514.55292 612.67834
619.0 0.001616 514.54620 611.30194
621.0 0.001610 514.53943 609.95618
626.0 0.001597 514.53265 608.64038
616.0 0.001623 514.52582 607.35364
614.0 0.001629 514.51904 606.09509
602.0 0.001661 514.51221 604.86401
606.0 0.001650 514.50531 603.65985
611.0 0.001637 514.49847 602.48138
608.0 0.001645 514.49158 601.32825
602.0 0.001661 514.48468 600.19965
607.0 0.001647 514.47772 599.09503
607.0 0.001647 514.47076 598.01349
603.0 0.001658 514.46381 596.95459
600.0 0.001667 514.45685 595.91748
599.0 0.001669 514.44983 594.90198
600.0 0.001667 514.44281 593.90723
597.0 0.001675 514.43579 592.93250
594.0 0.001684 514.42871 591.97772
593.0 0.001686 514.42163 591.04193
588.0 0.001701 514.41455 590.12476
590.0 0.001695 514.40747 589.22589
590.0 0.001695 514.40033 588.34467
587.0 0.001704 514.39319 587.48065
589.0 0.001698 514.38605 586.63342
590.0 0.001695 514.37885 585.80249
592.0 0.001689 514.37164 584.98749
589.0 0.001698 514.36444 584.18817
589.0 0.001698 514.35724 583.40375
590.0 0.001695 514.34998 582.63416
591.0 0.001692 514.34271 581.87909
589.0 0.001698 514.33545 581.13794
590.0 0.001695 514.32813 580.41046
587.0 0.001704 514.32086 579.69629
586.0 0.001706 514.31354 578.99518
586.0 0.001706 514.30615 578.30688
589.0 0.001698 514.29883 577.63092
587.0 0.001704 514.29144 576.96704
589.0 0.001698 514.28406 576.31512
583.0 0.001715 514.27661 575.67468
583.0 0.001715 514.26923 575.04559
579.0 0.001727 514.26178 574.42749
576.0 0.001736 514.25427 573.82025
582.0 0.001718 514.24683 573.22339
588.0 0.001701 514.23932 572.63696
585.0 0.001709 514.23181 572.06067
579.0 0.001727 514.22430 571.49402
583.0 0.001715 514.21674 570.93719
583.0 0.001715 514.20917 570.38977
582.0 0.001718 514.20160 569.85150
583.0 0.001715 514.19403 569.32227
585.0 0.001709 514.18640 568.80200
583.0 0.001715 514.17883 568.29028
580.0 0.001724 514.17114 567.78723
581.0 0.001721 514.16351 567.29230
581.0 0.001721 514.15582 566.80554
582.0 0.001718 514.14819 566.32684
580.0 0.001724 514.14044 565.85583
573.0 0.001745 514.13275 565.39252
578.0 0.001730 514.12500 564.93677
581.0 0.001721 514.11725 564.48822
579.0 0.001727 514.10950 564.04706
580.0 0.001724 514.10175 563.61298
585.0 0.001709 514.09393 563.18579
586.0 0.001706 514.08612 562.76544
580.0 0.001724 514.07831 562.35175
576.0 0.001736 514.07050 561.94452
578.0 0.001730 514.06262 561.54395
577.0 0.001733 514.05475 561.14960
578.0 0.001730 514.04688 560.76141
579.0 0.001727 514.03900 560.37927
578.0 0.001730 514.03107 560.00330
578.0 0.001730 514.02313 559.63306
577.0 0.001733 514.01520 559.26874
578.0 0.001730 514.00726 558.90991
580.0 0.001724 513.99927 558.55682
580.0 0.001724 513.99133 558.20917
574.0 0.001742 513.98328 557.86682
568.0 0.001761 513.97528 557.52985
574.0 0.001742 513.96729 557.19818
573.0 0.001745 513.95923 556.87158
573.0 0.001745 513.95117 556.54999
573.0 0.001745 513.94312 556.23352
576.0 0.001736 513.93500 555.92169
577.0 0.001733 513.92694 555.61487
577.0 0.001733 513.91882 555.31281
580.0 0.001724 513.91064 555.01538
578.0 0.001730 513.90253 554.72247
571.0 0.001751 513.89435 554.43408
570.0 0.001754 513.88623 554.15021
571.0 0.001751 513.87805 553.87073
574.0 0.001742 513.86981 553.59546
575.0 0.001739 513.86163 553.32458
573.0 0.001745 513.85339 553.05798
573.0 0.001745 513.84515 552.79535
568.0 0.001761 513.83691 552.53687
563.0 0.001776 513.82867 552.28247
562.0 0.001779 513.82037 552.03198
559.0 0.001789 513.81207 551.78534
567.0 0.001764 513.80377 551.54266
565.0 0.001770 513.79547 551.30377
560.0 0.001786 513.78711 551.06879
556.0 0.001799 513.77881 550.83740
555.0 0.001802 513.77045 550.60962
558.0 0.001792 513.76208 550.38562
563.0 0.001776 513.75366 550.16510
561.0 0.001783 513.74530 549.94818
563.0 0.001776 513.73688 549.73474
561.0 0.001783 513.72845 549.52466
565.0 0.001770 513.72003 549.31812
564.0 0.001773 513.71155 549.11499
564.0 0.001773 513.70313 548.91516
561.0 0.001783 513.69464 548.71863
560.0 0.001786 513.68616 548.52533
566.0 0.001767 513.67767 548.33527
567.0 0.001764 513.66913 548.14844
570.0 0.001754 513.66064 547.96484
569.0 0.001757 513.65210 547.78436
565.0 0.001770 513.64355 547.60693
564.0 0.001773 513.63501 547.43262
561.0 0.001783 513.62640 547.26135
561.0 0.001783 513.61786 547.09320
559.0 0.001789 513.60925 546.92798
564.0 0.001773 513.60065 546.76575
567.0 0.001764 513.59198 546.60632
569.0 0.001757 513.58337 546.45001
567.0 0.001764 513.57471 546.29657
566.0 0.001767 513.56610 546.14594
560.0 0.001786 513.55743 545.99817
562.0 0.001779 513.54871 545.85333
562.0 0.001779 513.54004 545.71136
563.0 0.001776 513.53131 545.57202
558.0 0.001792 513.52264 545.43555
556.0 0.001799 513.51392 545.30188
553.0 0.001808 513.50519 545.17090
555.0 0.001802 513.49640 545.04266
566.0 0.001767 513.48767 544.91730
566.0 0.001767 513.47888 544.79456
559.0 0.001789 513.47009 544.67438
563.0 0.001776 513.46130 544.55707
564.0 0.001773 513.45251 544.44232
565.0 0.001770 513.44373 544.33020
566.0 0.001767 513.43488 544.22095
563.0 0.001776 513.42603 544.11426
559.0 0.001789 513.41718 544.01013
556.0 0.001799 513.40833 543.90875
554.0 0.001805 513.39948 543.80988
560.0 0.001786 513.39056 543.71368
562.0 0.001779 513.38171 543.62006
561.0 0.001783 513.37280 543.52911
558.0 0.001792 513.36389 543.44080
563.0 0.001776 513.35498 543.35504
562.0 0.001779 513.34601 543.27191
564.0 0.001773 513.33710 543.19141
557.0 0.001795 513.32813 543.11346
555.0 0.001802 513.31915 543.03827
561.0 0.001783 513.31018 542.96552
558.0 0.001792 513.30121 542.89545
555.0 0.001802 513.29224 542.82819
562.0 0.001779 513.28320 542.76337
561.0 0.001783 513.27417 542.70117
559.0 0.001789 513.26520 542.64172
556.0 0.001799 513.25616 542.58472
559.0 0.001789 513.24707 542.53064
562.0 0.001779 513.23804 542.47906
560.0 0.001786 513.22900 542.43018
561.0 0.001783 513.21991 542.38403
561.0 0.001783 513.21082 542.34052
571.0 0.001751 513.20172 542.29987
564.0 0.001773 513.19263 542.26196
562.0 0.001779 513.18353 542.22662
565.0 0.001770 513.17438 542.19421
563.0 0.001776 513.16528 542.16449
564.0 0.001773 513.15613 542.13757
559.0 0.001789 513.14697 542.11359
559.0 0.001789 513.13782 542.09241
561.0 0.001783 513.12866 542.07397
556.0 0.001799 513.11951 542.05865
553.0 0.001808 513.11029 542.04608
550.0 0.001818 513.10107 542.03650
556.0 0.001799 513.09192 542.02991
554.0 0.001805 513.08270 542.02631
552.0 0.001812 513.07349 542.02594
554.0 0.001805 513.06421 542.02838
556.0 0.001799 513.05499 542.03406
557.0 0.001795 513.04578 542.04285
551.0 0.001815 513.03650 542.05469
552.0 0.001812 513.02722 542.07001
555.0 0.001802 513.01794 542.08844
558.0 0.001792 513.00867 542.11023
558.0 0.001792 512.99939 542.13525
551.0 0.001815 512.99011 542.16370
552.0 0.001812 512.98077 542.19574
554.0 0.001805 512.97150 542.23108
553.0 0.001808 512.96216 542.27002
550.0 0.001818 512.95282 542.31244
549.0 0.001821 512.94348 542.35864
555.0 0.001802 512.93414 542.40851
553.0 0.001808 512.92480 542.46222
548.0 0.001825 512.91541 542.51965
552.0 0.001812 512.90607 542.58112
551.0 0.001815 512.89667 542.64636
550.0 0.001818 512.88727 542.71570
559.0 0.001789 512.87787 542.78925
559.0 0.001789 512.86847 542.86694
558.0 0.001792 512.85907 542.94885
549.0 0.001821 512.84967 543.03510
548.0 0.001825 512.84021 543.12573
548.0 0.001825 512.83081 543.22095
552.0 0.001812 512.82135 543.32068
550.0 0.001818 512.81195 543.42523
551.0 0.001815 512.80249 543.53448
552.0 0.001812 512.79303 543.64868
551.0 0.001815 512.78357 543.76794
549.0 0.001821 512.77405 543.89221
553.0 0.001808 512.76459 544.02167
557.0 0.001795 512.75513 544.15662
558.0 0.001792 512.74561 544.29688
555.0 0.001802 512.73608 544.44275
552.0 0.001812 512.72656 544.59454
554.0 0.001805 512.71710 544.75208
556.0 0.001799 512.70758 544.91559
560.0 0.001786 512.69800 545.08514
558.0 0.001792 512.68848 545.26123
557.0 0.001795 512.67896 545.44366
558.0 0.001792 512.66937 545.63287
544.0 0.001838 512.65985 545.82880
551.0 0.001815 512.65027 546.03162
550.0 0.001818 512.64069 546.24176
548.0 0.001825 512.63116 546.45917
550.0 0.001818 512.62158 546.68420
550.0 0.001818 512.61194 546.91705
551.0 0.001815 512.60236 547.15784
551.0 0.001815 512.59277 547.40692
549.0 0.001821 512.58319 547.66449
552.0 0.001812 512.57355 547.93073
553.0 0.001808 512.56396 548.20593
552.0 0.001812 512.55432 548.49048
550.0 0.001818 512.54468 548.78436
558.0 0.001792 512.53503 549.08813
552.0 0.001812 512.52545 549.40204
556.0 0.001799 512.51575 549.72638
552.0 0.001812 512.50610 550.06152
554.0 0.001805 512.49646 550.40778
558.0 0.001792 512.48682 550.76550
557.0 0.001795 512.47711 551.13507
555.0 0.001802 512.46747 551.51691
558.0 0.001792 512.45776 551.91138
566.0 0.001767 512.44812 552.31897
559.0 0.001789 512.43842 552.74005
559.0 0.001789 512.42871 553.17517
559.0 0.001789 512.41901 553.62482
562.0 0.001779 512.40930 554.08960
564.0 0.001773 512.39960 554.56989
558.0 0.001792 512.38989 555.06622
561.0 0.001783 512.38019 555.57947
568.0 0.001761 512.37048 556.10986
562.0 0.001779 512.36072 556.65857
561.0 0.001783 512.35101 557.22595
565.0 0.001770 512.34125 557.81281
569.0 0.001757 512.33154 558.41998
568.0 0.001761 512.32178 559.04828
560.0 0.001786 512.31201 559.69849
571.0 0.001751 512.30225 560.37158
573.0 0.001745 512.29248 561.06860
577.0 0.001733 512.28271 561.79047
577.0 0.001733 512.27295 562.53845
578.0 0.001730 512.26318 563.31360
578.0 0.001730 512.25342 564.11713
581.0 0.001721 512.24365 564.95032
582.0 0.001718 512.23383 565.81482
580.0 0.001724 512.22406 566.71204
583.0 0.001715 512.21429 567.64337
580.0 0.001724 512.20447 568.61078
579.0 0.001727 512.19464 569.61609
581.0 0.001721 512.18488 570.66095
583.0 0.001715 512.17505 571.74786
579.0 0.001727 512.16522 572.87903
580.0 0.001724 512.15540 574.05664
583.0 0.001715 512.14563 575.28357
583.0 0.001715 512.13580 576.56213
584.0 0.001712 512.12598 577.89569
584.0 0.001712 512.11615 579.28729
590.0 0.001695 512.10626 580.74030
596.0 0.001678 512.09644 582.25836
596.0 0.001678 512.08661 583.84534
596.0 0.001678 512.07678 585.50543
594.0 0.001684 512.06689 587.24286
588.0 0.001701 512.05707 589.06256
593.0 0.001686 512.04724 590.96948
595.0 0.001681 512.03735 592.96893
602.0 0.001661 512.02753 595.06659
598.0 0.001672 512.01764 597.26843
608.0 0.001645 512.00775 599.58093
604.0 0.001656 511.99792 602.01074
610.0 0.001639 511.98804 604.56512
614.0 0.001629 511.97818 607.25146
616.0 0.001623 511.96829 610.07782
618.0 0.001618 511.95840 613.05261
619.0 0.001616 511.94855 616.18433
622.0 0.001608 511.93866 619.48242
624.0 0.001603 511.92877 622.95648
634.0 0.001577 511.91888 626.61646
641.0 0.001560 511.90900 630.47296
644.0 0.001553 511.89908 634.53674
644.0 0.001553 511.88919 638.81940
647.0 0.001546 511.87930 643.33228
653.0 0.001531 511.86942 648.08746
649.0 0.001541 511.85950 653.09753
653.0 0.001531 511.84961 658.37476
655.0 0.001527 511.83969 663.93213
663.0 0.001508 511.82977 669.78259
674.0 0.001484 511.81989 675.93860
682.0 0.001466 511.80997 682.41309
687.0 0.001456 511.80005 689.21838
701.0 0.001427 511.79013 696.36578
699.0 0.001431 511.78021 703.86639
698.0 0.001433 511.77029 711.72968
708.0 0.001412 511.76038 719.96368
713.0 0.001403 511.75046 728.57434
723.0 0.001383 511.74054 737.56506
725.0 0.001379 511.73062 746.93658
739.0 0.001353 511.72070 756.68536
758.0 0.001319 511.71075 766.80457
767.0 0.001304 511.70084 777.28217
775.0 0.001290 511.69092 788.10114
790.0 0.001266 511.68097 799.23914
791.0 0.001264 511.67105 810.66852
796.0 0.001256 511.66113 822.35614
802.0 0.001247 511.65118 834.26440
816.0 0.001225 511.64127 846.35187
833.0 0.001200 511.63132 858.57452
842.0 0.001188 511.62137 870.88873
857.0 0.001167 511.61145 883.25177
865.0 0.001156 511.60150 895.62567
871.0 0.001148 511.59158 907.97888
883.0 0.001133 511.58163 920.28912
892.0 0.001121 511.57169 932.54510
901.0 0.001110 511.56177 944.74768
920.0 0.001087 511.55182 956.91028
942.0 0.001062 511.54187 969.05884
954.0 0.001048 511.53192 981.22894
973.0 0.001028 511.52200 993.46509
1000.0 0.001000 511.51205 1005.81567
1004.0 0.000996 511.50211 1018.33032
1024.0 0.000977 511.49216 1031.05518
1038.0 0.000963 511.48224 1044.02869
1063.0 0.000941 511.47229 1057.27759
1078.0 0.000928 511.46234 1070.81189
1088.0 0.000919 511.45239 1084.62329
1107.0 0.000903 511.44247 1098.67932
1117.0 0.000895 511.43253 1112.92249
1133.0 0.000883 511.42258 1127.26746
1143.0 0.000875 511.41263 1141.59998
1154.0 0.000867 511.40271 1155.77588
1163.0 0.000860 511.39276 1169.62317
1177.0 0.000850 511.38281 1182.94250
1196.0 0.000836 511.37286 1195.51196
1198.0 0.000835 511.36295 1207.09265
1192.0 0.000839 511.35300 1217.43555
1210.0 0.000826 511.34308 1226.29077
1215.0 0.000823 511.33313 1233.41760
1220.0 0.000820 511.32318 1238.59631
1232.0 0.000812 511.31326 1241.63818
1232.0 0.000812 511.30331 1242.39636
1239.0 0.000807 511.29340 1240.77441
1222.0 0.000818 511.28345 1236.73083
1225.0 0.000816 511.27353 1230.28308
1199.0 0.000834 511.26358 1221.50500
1206.0 0.000829 511.25366 1210.52356
1188.0 0.000842 511.24374 1197.51038
1188.0 0.000842 511.23380 1182.67358
1177.0 0.000850 511.22388 1166.24658
1168.0 0.000856 511.21396 1148.47778
1136.0 0.000880 511.20404 1129.61987
1123.0 0.000890 511.19412 1109.92163
1109.0 0.000902 511.18417 1089.62012
1103.0 0.000907 511.17426 1068.93542
1080.0 0.000926 511.16434 1048.06689
1065.0 0.000939 511.15442 1027.19128
1053.0 0.000950 511.14453 1006.46185
1026.0 0.000975 511.13461 986.00867
1004.0 0.000996 511.12469 965.93982
978.0 0.001022 511.11478 946.34308
956.0 0.001046 511.10489 927.28815
945.0 0.001058 511.09497 908.82831
937.0 0.001067 511.08505 891.00281
923.0 0.001083 511.07516 873.83868
903.0 0.001107 511.06528 857.35303
877.0 0.001140 511.05536 841.55414
863.0 0.001159 511.04547 826.44293
856.0 0.001168 511.03558 812.01514
839.0 0.001192 511.02570 798.26117
829.0 0.001206 511.01581 785.16815
799.0 0.001252 511.00592 772.71973
772.0 0.001295 510.99603 760.89764
766.0 0.001305 510.98615 749.68146
755.0 0.001325 510.97626 739.04993
740.0 0.001351 510.96640 728.98022
727.0 0.001376 510.95651 719.44971
710.0 0.001408 510.94666 710.43463
703.0 0.001422 510.93677 701.91168
690.0 0.001449 510.92691 693.85730
691.0 0.001447 510.91705 686.24841
683.0 0.001464 510.90717 679.06219
672.0 0.001488 510.89734 672.27618
666.0 0.001502 510.88748 665.86884
661.0 0.001513 510.87762 659.81879
648.0 0.001543 510.86777 654.10577
639.0 0.001565 510.85791 648.70996
629.0 0.001590 510.84808 643.61267
622.0 0.001608 510.83823 638.79565
625.0 0.001600 510.82840 634.24182
615.0 0.001626 510.81857 629.93451
610.0 0.001639 510.80875 625.85852
609.0 0.001642 510.79892 621.99896
599.0 0.001669 510.78909 618.34204
600.0 0.001667 510.77927 614.87463
596.0 0.001678 510.76944 611.58447
597.0 0.001675 510.75964 608.45996
585.0 0.001709 510.74982 605.49060
586.0 0.001706 510.74002 602.66602
577.0 0.001733 510.73022 599.97705
579.0 0.001727 510.72043 597.41498
576.0 0.001736 510.71063 594.97156
571.0 0.001751 510.70084 592.63940
566.0 0.001767 510.69104 590.41144
566.0 0.001767 510.68127 588.28119
562.0 0.001779 510.67148 586.24280
558.0 0.001792 510.66171 584.29047
556.0 0.001799 510.65195 582.41913
562.0 0.001779 510.64218 580.62408
563.0 0.001776 510.63242 578.90088
562.0 0.001779 510.62265 577.24548
559.0 0.001789 510.61292 575.65417
562.0 0.001779 510.60315 574.12317
559.0 0.001789 510.59341 572.64941
554.0 0.001805 510.58368 571.22986
551.0 0.001815 510.57394 569.86176
551.0 0.001815 510.56421 568.54230
548.0 0.001825 510.55447 567.26929
547.0 0.001828 510.54474 566.04022
551.0 0.001815 510.53503 564.85321
548.0 0.001825 510.52533 563.70599
550.0 0.001818 510.51563 562.59705
546.0 0.001832 510.50592 561.52423
542.0 0.001845 510.49622 560.48627
537.0 0.001862 510.48651 559.48145
535.0 0.001869 510.47684 558.50830
539.0 0.001855 510.46713 557.56555
536.0 0.001866 510.45746 556.65186
538.0 0.001859 510.44778 555.76605
542.0 0.001845 510.43811 554.90698
536.0 0.001866 510.42847 554.07343
539.0 0.001855 510.41879 553.26453
541.0 0.001848 510.40915 552.47919
537.0 0.001862 510.39951 551.71655
540.0 0.001852 510.38986 550.97565
535.0 0.001869 510.38022 550.25574
536.0 0.001866 510.37057 549.55597
532.0 0.001880 510.36096 548.87555
539.0 0.001855 510.35135 548.21387
541.0 0.001848 510.34174 547.57007
541.0 0.001848 510.33212 546.94373
541.0 0.001848 510.32251 546.33386
539.0 0.001855 510.31293 545.74036
539.0 0.001855 510.30331 545.16217
539.0 0.001855 510.29373 544.59906
540.0 0.001852 510.28415 544.05029
538.0 0.001859 510.27457 543.51550
531.0 0.001883 510.26501 542.99420
533.0 0.001876 510.25546 542.48584
533.0 0.001876 510.24588 541.98993
530.0 0.001887 510.23633 541.50641
532.0 0.001880 510.22681 541.03436
525.0 0.001905 510.21725 540.57379
529.0 0.001890 510.20773 540.12415
524.0 0.001908 510.19821 539.68518
528.0 0.001894 510.18869 539.25641
531.0 0.001883 510.17917 538.83771
528.0 0.001894 510.16968 538.42841
536.0 0.001866 510.16016 538.02856
535.0 0.001869 510.15067 537.63770
532.0 0.001880 510.14117 537.25568
538.0 0.001859 510.13171 536.88202
533.0 0.001876 510.12222 536.51654
527.0 0.001898 510.11276 536.15918
526.0 0.001901 510.10330 535.80951
531.0 0.001883 510.09384 535.46722
529.0 0.001890 510.08441 535.13239
523.0 0.001912 510.07495 534.80444
525.0 0.001905 510.06552 534.48346
524.0 0.001908 510.05609 534.16901
522.0 0.001916 510.04669 533.86115
524.0 0.001908 510.03726 533.55951
527.0 0.001898 510.02786 533.26398
526.0 0.001901 510.01846 532.97437
526.0 0.001901 510.00906 532.69049
525.0 0.001905 509.99969 532.41223
524.0 0.001908 509.99033 532.13947
522.0 0.001916 509.98096 531.87189
516.0 0.001938 509.97159 531.60956
512.0 0.001953 509.96225 531.35223
517.0 0.001934 509.95288 531.09985
518.0 0.001931 509.94354 530.85205
514.0 0.001946 509.93420 530.60895
517.0 0.001934 509.92490 530.37030
526.0 0.001901 509.91559 530.13611
526.0 0.001901 509.90628 529.90625
520.0 0.001923 509.89697 529.68042
524.0 0.001908 509.88766 529.45868
525.0 0.001905 509.87839 529.24084
523.0 0.001912 509.86911 529.02686
522.0 0.001916 509.85983 528.81665
523.0 0.001912 509.85059 528.61011
522.0 0.001916 509.84134 528.40710
527.0 0.001898 509.83209 528.20764
528.0 0.001894 509.82285 528.01154
526.0 0.001901 509.81363 527.81873
525.0 0.001905 509.80438 527.62921
524.0 0.001908 509.79520 527.44275
522.0 0.001916 509.78598 527.25940
526.0 0.001901 509.77679 527.07910
527.0 0.001898 509.76761 526.90161
529.0 0.001890 509.75842 526.72717
527.0 0.001898 509.74924 526.55542
525.0 0.001905 509.74008 526.38635
519.0 0.001927 509.73093 526.22009
522.0 0.001916 509.72177 526.05634
524.0 0.001908 509.71265 525.89514
524.0 0.001908 509.70352 525.73645
523.0 0.001912 509.69440 525.58020
519.0 0.001927 509.68527 525.42633
520.0 0.001923 509.67618 525.27466
525.0 0.001905 509.66708 525.12555
526.0 0.001901 509.65799 524.97839
526.0 0.001901 509.64893 524.83362
525.0 0.001905 509.63986 524.69080
521.0 0.001919 509.63080 524.55023
521.0 0.001919 509.62177 524.41156
522.0 0.001916 509.61270 524.27502
523.0 0.001912 509.60367 524.14032
519.0 0.001927 509.59467 524.00757
523.0 0.001912 509.58563 523.87671
519.0 0.001927 509.57663 523.74768
518.0 0.001931 509.56766 523.62048
516.0 0.001938 509.55865 523.49493
517.0 0.001934 509.54968 523.37122
517.0 0.001934 509.54071 523.24915
514.0 0.001946 509.53177 523.12872
514.0 0.001946 509.52283 523.00995
513.0 0.001949 509.51389 522.89276
516.0 0.001938 509.50494 522.77704
523.0 0.001912 509.49603 522.66296
515.0 0.001942 509.48712 522.55042
512.0 0.001953 509.47824 522.43921
513.0 0.001949 509.46933 522.32947
512.0 0.001953 509.46045 522.22119
512.0 0.001953 509.45160 522.11426
521.0 0.001919 509.44272 522.00867
523.0 0.001912 509.43387 521.90448
527.0 0.001898 509.42505 521.80145
520.0 0.001923 509.41620 521.69983
528.0 0.001894 509.40738 521.59937
525.0 0.001905 509.39859 521.50024
525.0 0.001905 509.38977 521.40234
521.0 0.001919 509.38098 521.30560
523.0 0.001912 509.37222 521.20996
529.0 0.001890 509.36343 521.11548
526.0 0.001901 509.35468 521.02216
526.0 0.001901 509.34592 520.92993
525.0 0.001905 509.33719 520.83881
526.0 0.001901 509.32846 520.74878
522.0 0.001916 509.31973 520.65967
520.0 0.001923 509.31104 520.57166
519.0 0.001927 509.30234 520.48468
520.0 0.001923 509.29367 520.39862
516.0 0.001938 509.28497 520.31360
513.0 0.001949 509.27631 520.22955
519.0 0.001927 509.26767 520.14636
520.0 0.001923 509.25903 520.06415
518.0 0.001931 509.25040 519.98285
517.0 0.001934 509.24176 519.90253
515.0 0.001942 509.23315 519.82300
521.0 0.001919 509.22455 519.74426
518.0 0.001931 509.21597 519.66650
517.0 0.001934 509.20740 519.58948
520.0 0.001923 509.19882 519.51337
519.0 0.001927 509.19025 519.43793
519.0 0.001927 509.18170 519.36340
519.0 0.001927 509.17319 519.28961
522.0 0.001916 509.16464 519.21655
526.0 0.001901 509.15616 519.14435
522.0 0.001916 509.14764 519.07281
524.0 0.001908 509.13916 519.00208
532.0 0.001880 509.13068 518.93201
530.0 0.001887 509.12222 518.86267
530.0 0.001887 509.11374 518.79407
526.0 0.001901 509.10532 518.72601
525.0 0.001905 509.09686 518.65875
525.0 0.001905 509.08844 518.59210
520.0 0.001923 509.08005 518.52612
515.0 0.001942 509.07166 518.46088
521.0 0.001919 509.06326 518.39612
524.0 0.001908 509.05487 518.33209
519.0 0.001927 509.04651 518.26862
518.0 0.001931 509.03818 518.20581
520.0 0.001923 509.02982 518.14355
522.0 0.001916 509.02151 518.08191
520.0 0.001923 509.01318 518.02081
513.0 0.001949 509.00488 517.96033
519.0 0.001927 508.99658 517.90039
525.0 0.001905 508.98831 517.84100
522.0 0.001916 508.98004 517.78217
517.0 0.001934 508.97177 517.72394
521.0 0.001919 508.96353 517.66608
521.0 0.001919 508.95529 517.60876
523.0 0.001912 508.94708 517.55206
524.0 0.001908 508.93887 517.49591
521.0 0.001919 508.93069 517.44012
523.0 0.001912 508.92249 517.38495
520.0 0.001923 508.91434 517.33014
522.0 0.001916 508.90616 517.27594
523.0 0.001912 508.89801 517.22217
515.0 0.001942 508.88989 517.16882
518.0 0.001931 508.88177 517.11603
519.0 0.001927 508.87366 517.06354
516.0 0.001938 508.86557 517.01160
516.0 0.001938 508.85748 516.96008
512.0 0.001953 508.84940 516.90906
508.0 0.001969 508.84134 516.85840
510.0 0.001961 508.83328 516.80817
513.0 0.001949 508.82526 516.75830
518.0 0.001931 508.81723 516.70898
520.0 0.001923 508.80923 516.66003
520.0 0.001923 508.80124 516.61145
514.0 0.001946 508.79324 516.56323
512.0 0.001953 508.78528 516.51544
511.0 0.001957 508.77731 516.46802
515.0 0.001942 508.76938 516.42102
518.0 0.001931 508.76144 516.37439
520.0 0.001923 508.75354 516.32813
522.0 0.001916 508.74564 516.28223
523.0 0.001912 508.73773 516.23663
517.0 0.001934 508.72986 516.19153
516.0 0.001938 508.72198 516.14667
518.0 0.001931 508.71414 516.10217
522.0 0.001916 508.70630 516.05798
522.0 0.001916 508.69846 516.01422
520.0 0.001923 508.69067 515.97076
525.0 0.001905 508.68286 515.92767
528.0 0.001894 508.67508 515.88483
524.0 0.001908 508.66730 515.84235
515.0 0.001942 508.65955 515.80017
515.0 0.001942 508.65179 515.75836
518.0 0.001931 508.64407 515.71680
516.0 0.001938 508.63635 515.67566
516.0 0.001938 508.62863 515.63470
515.0 0.001942 508.62094 515.59412
517.0 0.001934 508.61328 515.55371
519.0 0.001927 508.60562 515.51379
518.0 0.001931 508.59796 515.47400
514.0 0.001946 508.59033 515.43457
516.0 0.001938 508.58270 515.39539
522.0 0.001916 508.57507 515.35651
520.0 0.001923 508.56750 515.31787
515.0 0.001942 508.55991 515.27966
523.0 0.001912 508.55234 515.24158
526.0 0.001901 508.54480 515.20380
527.0 0.001898 508.53726 515.16626
526.0 0.001901 508.52972 515.12897
524.0 0.001908 508.52222 515.09198
521.0 0.001919 508.51471 515.05524
523.0 0.001912 508.50723 515.01880
525.0 0.001905 508.49976 514.98260
527.0 0.001898 508.49231 514.94653
520.0 0.001923 508.48486 514.91083
520.0 0.001923 508.47745 514.87531
519.0 0.001927 508.47003 514.84003
517.0 0.001934 508.46262 514.80505
524.0 0.001908 508.45526 514.77026
521.0 0.001919 508.44788 514.73566
523.0 0.001912 508.44052 514.70135
524.0 0.001908 508.43320 514.66724
524.0 0.001908 508.42584 514.63342
526.0 0.001901 508.41855 514.59973
522.0 0.001916 508.41125 514.56628
525.0 0.001905 508.40396 514.53308
523.0 0.001912 508.39670 514.50012
525.0 0.001905 508.38943 514.46735
518.0 0.001931 508.38220 514.43469
522.0 0.001916 508.37497 514.40247
522.0 0.001916 508.36777 514.37024
521.0 0.001919 508.36060 514.33832
520.0 0.001923 508.35339 514.30658
525.0 0.001905 508.34625 514.27496
530.0 0.001887 508.33908 514.24365
531.0 0.001883 508.33194 514.21252
529.0 0.001890 508.32483 514.18158
530.0 0.001887 508.31772 514.15076
531.0 0.001883 508.31064 514.12024
538.0 0.001859 508.30356 514.08984
533.0 0.001876 508.29651 514.05969
533.0 0.001876 508.28946 514.02966
532.0 0.001880 508.28244 513.99982
526.0 0.001901 508.27542 513.97021
528.0 0.001894 508.26843 513.94073
527.0 0.001898 508.26144 513.91144
526.0 0.001901 508.25446 513.88239
525.0 0.001905 508.24753 513.85345
522.0 0.001916 508.24057 513.82465
526.0 0.001901 508.23364 513.79608
531.0 0.001883 508.22675 513.76770
530.0 0.001887 508.21985 513.73944
525.0 0.001905 508.21298 513.71136
523.0 0.001912 508.20612 513.68341
525.0 0.001905 508.19928 513.65576
523.0 0.001912 508.19244 513.62811
523.0 0.001912 508.18564 513.60071
529.0 0.001890 508.17883 513.57349
528.0 0.001894 508.17206 513.54639
531.0 0.001883 508.16528 513.51941
530.0 0.001887 508.15854 513.49261
530.0 0.001887 508.15179 513.46600
529.0 0.001890 508.14508 513.43951
530.0 0.001887 508.13837 513.41315
529.0 0.001890 508.13168 513.38702
530.0 0.001887 508.12500 513.36096
525.0 0.001905 508.11835 513.33508
527.0 0.001898 508.11172 513.30933
530.0 0.001887 508.10507 513.28375
533.0 0.001876 508.09848 513.25830
532.0 0.001880 508.09189 513.23303
526.0 0.001901 508.08530 513.20789
524.0 0.001908 508.07874 513.18280
523.0 0.001912 508.07220 513.15796
524.0 0.001908 508.06567 513.13324
525.0 0.001905 508.05917 513.10858
518.0 0.001931 508.05267 513.08417
518.0 0.001931 508.04617 513.05975
519.0 0.001927 508.03970 513.03558
516.0 0.001938 508.03326 513.01154
519.0 0.001927 508.02682 512.98755
520.0 0.001923 508.02042 512.96381
522.0 0.001916 508.01404 512.94012
522.0 0.001916 508.00763 512.91650
521.0 0.001919 508.00128 512.89313
518.0 0.001931 507.99493 512.86975
516.0 0.001938 507.98859 512.84668
514.0 0.001946 507.98227 512.82361
511.0 0.001957 507.97598 512.80066
514.0 0.001946 507.96970 512.77789
519.0 0.001927 507.96341 512.75519
520.0 0.001923 507.95718 512.73267
518.0 0.001931 507.95093 512.71021
523.0 0.001912 507.94473 512.68793
520.0 0.001923 507.93851 512.66571
521.0 0.001919 507.93234 512.64355
520.0 0.001923 507.92618 512.62164
511.0 0.001957 507.92001 512.59973
510.0 0.001961 507.91388 512.57806
510.0 0.001961 507.90778 512.55640
515.0 0.001942 507.90167 512.53497
516.0 0.001938 507.89557 512.51349
515.0 0.001942 507.88953 512.49225
511.0 0.001957 507.88345 512.47101
515.0 0.001942 507.87744 512.45001
511.0 0.001957 507.87143 512.42896
514.0 0.001946 507.86542 512.40808
513.0 0.001949 507.85944 512.38739
509.0 0.001965 507.85345 512.36670
512.0 0.001953 507.84753 512.34625
514.0 0.001946 507.84158 512.32574
513.0 0.001949 507.83566 512.30548
509.0 0.001965 507.82977 512.28516
512.0 0.001953 507.82391 512.26508
515.0 0.001942 507.81805 512.24506
522.0 0.001916 507.81219 512.22516
521.0 0.001919 507.80637 512.20532
519.0 0.001927 507.80057 512.18561
517.0 0.001934 507.79477 512.16602
520.0 0.001923 507.78900 512.14648
516.0 0.001938 507.78323 512.12708
515.0 0.001942 507.77750 512.10779
516.0 0.001938 507.77176 512.08856
515.0 0.001942 507.76605 512.06940
515.0 0.001942 507.76038 512.05035
514.0 0.001946 507.75470 512.03143
509.0 0.001965 507.74905 512.01251
508.0 0.001969 507.74341 511.99380
508.0 0.001969 507.73779 511.97513
511.0 0.001957 507.73218 511.95657
510.0 0.001961 507.72659 511.93811
510.0 0.001961 507.72104 511.91968
513.0 0.001949 507.71548 511.90140
517.0 0.001934 507.70996 511.88321
519.0 0.001927 507.70444 511.86508
516.0 0.001938 507.69894 511.84708
516.0 0.001938 507.69348 511.82913
520.0 0.001923 507.68802 511.81125
518.0 0.001931 507.68259 511.79352
519.0 0.001927 507.67715 511.77582
513.0 0.001949 507.67175 511.75821
513.0 0.001949 507.66635 511.74072
514.0 0.001946 507.66098 511.72336
519.0 0.001927 507.65564 511.70599
519.0 0.001927 507.65030 511.68872
519.0 0.001927 507.64499 511.67157
518.0 0.001931 507.63968 511.65454
517.0 0.001934 507.63440 511.63745
510.0 0.001961 507.62915 511.62057
512.0 0.001953 507.62390 511.60370
513.0 0.001949 507.61868 511.58698
512.0 0.001953 507.61346 511.57028
509.0 0.001965 507.60828 511.55371
511.0 0.001957 507.60312 511.53723
515.0 0.001942 507.59796 511.52075
509.0 0.001965 507.59280 511.50443
510.0 0.001961 507.58771 511.48816
514.0 0.001946 507.58261 511.47192
512.0 0.001953 507.57751 511.45575
514.0 0.001946 507.57245 511.43973
511.0 0.001957 507.56741 511.42377
513.0 0.001949 507.56238 511.40787
514.0 0.001946 507.55737 511.39206
512.0 0.001953 507.55240 511.37631
512.0 0.001953 507.54742 511.36066
512.0 0.001953 507.54248 511.34506
517.0 0.001934 507.53754 511.32953
516.0 0.001938 507.53262 511.31412
515.0 0.001942 507.52771 511.29877
519.0 0.001927 507.52286 511.28345
510.0 0.001961 507.51797 511.26822
513.0 0.001949 507.51315 511.25302
513.0 0.001949 507.50833 511.23801
515.0 0.001942 507.50351 511.22299
514.0 0.001946 507.49872 511.20804
510.0 0.001961 507.49396 511.19318
509.0 0.001965 507.48923 511.17841
512.0 0.001953 507.48450 511.16370
510.0 0.001961 507.47977 511.14902
512.0 0.001953 507.47510 511.13443
509.0 0.001965 507.47040 511.11993
515.0 0.001942 507.46576 511.10547
517.0 0.001934 507.46112 511.09106
510.0 0.001961 507.45651 511.07678
509.0 0.001965 507.45190 511.06256
508.0 0.001969 507.44733 511.04834
513.0 0.001949 507.44278 511.03421
516.0 0.001938 507.43823 511.02023
509.0 0.001965 507.43372 511.00623
513.0 0.001949 507.42920 510.99231
512.0 0.001953 507.42471 510.97852
513.0 0.001949 507.42026 510.96472
513.0 0.001949 507.41580 510.95102
511.0 0.001957 507.41138 510.93738
513.0 0.001949 507.40698 510.92371
520.0 0.001923 507.40259 510.91025
518.0 0.001931 507.39822 510.89676
514.0 0.001946 507.39386 510.88342
512.0 0.001953 507.38953 510.87006
513.0 0.001949 507.38522 510.85681
512.0 0.001953 507.38092 510.84363
515.0 0.001942 507.37665 510.83054
515.0 0.001942 507.37238 510.81741
513.0 0.001949 507.36816 510.80444
513.0 0.001949 507.36392 510.79141
517.0 0.001934 507.35974 510.77856
514.0 0.001946 507.35556 510.76575
513.0 0.001949 507.35141 510.75302
509.0 0.001965 507.34726 510.74026
514.0 0.001946 507.34314 510.72766
514.0 0.001946 507.33905 510.71503
512.0 0.001953 507.33496 510.70251
513.0 0.001949 507.33090 510.69006
508.0 0.001969 507.32684 510.67764
508.0 0.001969 507.32281 510.66528
508.0 0.001969 507.31882 510.65302
507.0 0.001972 507.31485 510.64081
513.0 0.001949 507.31088 510.62857
511.0 0.001957 507.30692 510.61649
512.0 0.001953 507.30301 510.60443
512.0 0.001953 507.29910 510.59244
513.0 0.001949 507.29520 510.58054
513.0 0.001949 507.29135 510.56860
516.0 0.001938 507.28751 510.55679
517.0 0.001934 507.28366 510.54507
517.0 0.001934 507.27985 510.53333
513.0 0.001949 507.27606 510.52167
513.0 0.001949 507.27231 510.51010
511.0 0.001957 507.26855 510.49854
511.0 0.001957 507.26480 510.48700
509.0 0.001965 507.26111 510.47562
515.0 0.001942 507.25742 510.46429
514.0 0.001946 507.25375 510.45294
512.0 0.001953 507.25009 510.44168
507.0 0.001972 507.24646 510.43051
506.0 0.001976 507.24286 510.41928
511.0 0.001957 507.23926 510.40823
508.0 0.001969 507.23569 510.39716
511.0 0.001957 507.23215 510.38617
509.0 0.001965 507.22861 510.37524
508.0 0.001969 507.22510 510.36435
511.0 0.001957 507.22159 510.35352
510.0 0.001961 507.21811 510.34277
510.0 0.001961 507.21466 510.33203
509.0 0.001965 507.21124 510.32132
512.0 0.001953 507.20782 510.31076
516.0 0.001938 507.20444 510.30011
512.0 0.001953 507.20105 510.28961
509.0 0.001965 507.19769 510.27917
508.0 0.001969 507.19437 510.26880
509.0 0.001965 507.19104 510.25839
509.0 0.001965 507.18777 510.24805
507.0 0.001972 507.18448 510.23782
512.0 0.001953 507.18124 510.22760
510.0 0.001961 507.17801 510.21744
512.0 0.001953 507.17480 510.20737
511.0 0.001957 507.17160 510.19733
511.0 0.001957 507.16843 510.18732
510.0 0.001961 507.16528 510.17737
510.0 0.001961 507.16214 510.16751
508.0 0.001969 507.15903 510.15762
510.0 0.001961 507.15594 510.14786
510.0 0.001961 507.15286 510.13806
505.0 0.001980 507.14981 510.12836
503.0 0.001988 507.14679 510.11868
509.0 0.001965 507.14377 510.10907
510.0 0.001961 507.14078 510.09952
508.0 0.001969 507.13782 510.09000
508.0 0.001969 507.13486 510.08060
510.0 0.001961 507.13193 510.07114
504.0 0.001984 507.12903 510.06180
502.0 0.001992 507.12613 510.05246
508.0 0.001969 507.12326 510.04324
511.0 0.001957 507.12042 510.03397
513.0 0.001949 507.11758 510.02490
515.0 0.001942 507.11478 510.01572
506.0 0.001976 507.11200 510.00665
506.0 0.001976 507.10922 509.99762
511.0 0.001957 507.10648 509.98868
515.0 0.001942 507.10376 509.97971
509.0 0.001965 507.10104 509.97083
508.0 0.001969 507.09836 509.96198
510.0 0.001961 507.09570 509.95319
507.0 0.001972 507.09305 509.94443
507.0 0.001972 507.09042 509.93576
510.0 0.001961 507.08783 509.92706
512.0 0.001953 507.08524 509.91849
509.0 0.001965 507.08267 509.90994
508.0 0.001969 507.08014 509.90140
509.0 0.001965 507.07761 509.89291
514.0 0.001946 507.07510 509.88452
510.0 0.001961 507.07263 509.87616
509.0 0.001965 507.07019 509.86777
513.0 0.001949 507.06775 509.85953
510.0 0.001961 507.06531 509.85129
506.0 0.001976 507.06293 509.84305
507.0 0.001972 507.06055 509.83490
517.0 0.001934 507.05820 509.82678
515.0 0.001942 507.05585 509.81876
516.0 0.001938 507.05353 509.81073
516.0 0.001938 507.05124 509.80276
514.0 0.001946 507.04898 509.79483
511.0 0.001957 507.04672 509.78693
512.0 0.001953 507.04449 509.77908
515.0 0.001942 507.04227 509.77127
516.0 0.001938 507.04010 509.76358
518.0 0.001931 507.03793 509.75583
517.0 0.001934 507.03577 509.74817
512.0 0.001953 507.03363 509.74057
512.0 0.001953 507.03152 509.73300
513.0 0.001949 507.02945 509.72540
512.0 0.001953 507.02737 509.71793
507.0 0.001972 507.02533 509.71051
507.0 0.001972 507.02332 509.70306
510.0 0.001961 507.02130 509.69571
507.0 0.001972 507.01932 509.68842
509.0 0.001965 507.01736 509.68109
513.0 0.001949 507.01544 509.67389
510.0 0.001961 507.01352 509.66666
510.0 0.001961 507.01160 509.65952
506.0 0.001976 507.00974 509.65244
510.0 0.001961 507.00787 509.64532
513.0 0.001949 507.00604 509.63828
508.0 0.001969 507.00421 509.63132
508.0 0.001969 507.00244 509.62439
511.0 0.001957 507.00064 509.61749
513.0 0.001949 506.99890 509.61060
511.0 0.001957 506.99716 509.60379
512.0 0.001953 506.99545 509.59705
514.0 0.001946 506.99377 509.59027
513.0 0.001949 506.99210 509.58362
514.0 0.001946 506.99045 509.57693
510.0 0.001961 506.98883 509.57031
512.0 0.001953 506.98721 509.56378
512.0 0.001953 506.98566 509.55725
518.0 0.001931 506.98407 509.55075
512.0 0.001953 506.98254 509.54425
514.0 0.001946 506.98102 509.53787
512.0 0.001953 506.97952 509.53149
509.0 0.001965 506.97803 509.52515
508.0 0.001969 506.97659 509.51889
512.0 0.001953 506.97516 509.51266
512.0 0.001953 506.97372 509.50641
507.0 0.001972 506.97232 509.50027
505.0 0.001980 506.97095 509.49414
508.0 0.001969 506.96960 509.48801
512.0 0.001953 506.96829 509.48199
509.0 0.001965 506.96698 509.47601
504.0 0.001984 506.96567 509.47003
507.0 0.001972 506.96442 509.46408
509.0 0.001965 506.96317 509.45822
509.0 0.001965 506.96194 509.45230
507.0 0.001972 506.96072 509.44653
508.0 0.001969 506.95956 509.44077
512.0 0.001953 506.95840 509.43503
515.0 0.001942 506.95724 509.42932
512.0 0.001953 506.95615 509.42368
514.0 0.001946 506.95505 509.41803
515.0 0.001942 506.95395 509.41248
513.0 0.001949 506.95291 509.40695
510.0 0.001961 506.95187 509.40143
512.0 0.001953 506.95087 509.39600
512.0 0.001953 506.94986 509.39053
511.0 0.001957 506.94888 509.38513
509.0 0.001965 506.94794 509.37982
508.0 0.001969 506.94702 509.37448
506.0 0.001976 506.94611 509.36920
509.0 0.001965 506.94522 509.36401
510.0 0.001961 506.94437 509.35880
511.0 0.001957 506.94351 509.35361
510.0 0.001961 506.94269 509.34854
510.0 0.001961 506.94189 509.34341
504.0 0.001984 506.94113 509.33841
502.0 0.001992 506.94037 509.33337
501.0 0.001996 506.93964 509.32840
507.0 0.001972 506.93890 509.32346
507.0 0.001972 506.93820 509.31860
506.0 0.001976 506.93753 509.31375
513.0 0.001949 506.93689 509.30890
510.0 0.001961 506.93628 509.30411
505.0 0.001980 506.93567 509.29941
507.0 0.001972 506.93506 509.29468
509.0 0.001965 506.93451 509.29001
509.0 0.001965 506.93396 509.28537
510.0 0.001961 506.93344 509.28076
512.0 0.001953 506.93292 509.27621
511.0 0.001957 506.93246 509.27170
511.0 0.001957 506.93201 509.26721
508.0 0.001969 506.93155 509.26276
509.0 0.001965 506.93115 509.25833
509.0 0.001965 506.93076 509.25397
507.0 0.001972 506.93039 509.24963
505.0 0.001980 506.93002 509.24527
500.0 0.002000 506.92969 509.24103
499.0 0.002004 506.92938 509.23679
502.0 0.001992 506.92911 509.23264
505.0 0.001980 506.92883 509.22845
511.0 0.001957 506.92859 509.22433
507.0 0.001972 506.92838 509.22025
506.0 0.001976 506.92816 509.21619
501.0 0.001996 506.92798 509.21213
504.0 0.001984 506.92783 509.20819
503.0 0.001988 506.92770 509.20425
505.0 0.001980 506.92758 509.20035
501.0 0.001996 506.92749 509.19644
503.0 0.001988 506.92740 509.19266
505.0 0.001980 506.92737 509.18884
509.0 0.001965 506.92734 509.18506
503.0 0.001988 506.92734 509.18127
506.0 0.001976 506.92734 509.17758
510.0 0.001961 506.92737 509.17392
508.0 0.001969 506.92743 509.17038
506.0 0.001976 506.92752 509.16675
506.0 0.001976 506.92761 509.16315
505.0 0.001980 506.92773 509.15970
505.0 0.001980 506.92786 509.15619
506.0 0.001976 506.92804 509.15274
507.0 0.001972 506.92822 509.14926
506.0 0.001976 506.92844 509.14594
508.0 0.001969 506.92865 509.14258
513.0 0.001949 506.92889 509.13928
510.0 0.001961 506.92917 509.13596
505.0 0.001980 506.92947 509.13275
504.0 0.001984 506.92978 509.12952
502.0 0.001992 506.93011 509.12637
507.0 0.001972 506.93048 509.12320
508.0 0.001969 506.93085 509.12009
506.0 0.001976 506.93124 509.11703
499.0 0.002004 506.93167 509.11401
506.0 0.001976 506.93213 509.11102
507.0 0.001972 506.93259 509.10800
503.0 0.001988 506.93307 509.10510
505.0 0.001980 506.93359 509.10220
508.0 0.001969 506.93411 509.09933
509.0 0.001965 506.93466 509.09650
511.0 0.001957 506.93524 509.09366
502.0 0.001992 506.93582 509.09088
505.0 0.001980 506.93643 509.08813
505.0 0.001980 506.93707 509.08545
506.0 0.001976 506.93774 509.08282
509.0 0.001965 506.93842 509.08017
507.0 0.001972 506.93912 509.07758
508.0 0.001969 506.93985 509.07507
506.0 0.001976 506.94058 509.07251
506.0 0.001976 506.94135 509.07001
507.0 0.001972 506.94214 509.06757
505.0 0.001980 506.94296 509.06509
502.0 0.001992 506.94379 509.06265
502.0 0.001992 506.94464 509.06033
505.0 0.001980 506.94553 509.05801
510.0 0.001961 506.94641 509.05569
506.0 0.001976 506.94733 509.05344
503.0 0.001988 506.94827 509.05121
509.0 0.001965 506.94922 509.04901
505.0 0.001980 506.95020 509.04681
502.0 0.001992 506.95120 509.04471
506.0 0.001976 506.95224 509.04260
509.0 0.001965 506.95328 509.04056
509.0 0.001965 506.95435 509.03854
514.0 0.001946 506.95544 509.03650
511.0 0.001957 506.95654 509.03452
510.0 0.001961 506.95767 509.03259
508.0 0.001969 506.95883 509.03070
508.0 0.001969 506.96002 509.02884
506.0 0.001976 506.96121 509.02698
509.0 0.001965 506.96243 509.02518
507.0 0.001972 506.96365 509.02341
511.0 0.001957 506.96494 509.02167
507.0 0.001972 506.96622 509.01999
507.0 0.001972 506.96753 509.01831
505.0 0.001980 506.96884 509.01660
511.0 0.001957 506.97018 509.01501
505.0 0.001980 506.97156 509.01346
507.0 0.001972 506.97296 509.01190
509.0 0.001965 506.97437 509.01038
504.0 0.001984 506.97580 509.00885
504.0 0.001984 506.97726 509.00745
506.0 0.001976 506.97873 509.00598
503.0 0.001988 506.98022 509.00467
501.0 0.001996 506.98175 509.00330
498.0 0.002008 506.98328 509.00192
502.0 0.001992 506.98486 509.00061
503.0 0.001988 506.98645 508.99936
503.0 0.001988 506.98804 508.99817
501.0 0.001996 506.98969 508.99695
509.0 0.001965 506.99133 508.99576
508.0 0.001969 506.99298 508.99463
508.0 0.001969 506.99469 508.99359
504.0 0.001984 506.99640 508.99249
504.0 0.001984 506.99814 508.99146
503.0 0.001988 506.99988 508.99039
504.0 0.001984 507.00168 508.98944
502.0 0.001992 507.00345 508.98853
510.0 0.001961 507.00528 508.98758
511.0 0.001957 507.00711 508.98669
511.0 0.001957 507.00900 508.98584
507.0 0.001972 507.01086 508.98502
508.0 0.001969 507.01279 508.98422
510.0 0.001961 507.01471 508.98346
508.0 0.001969 507.01666 508.98276
507.0 0.001972 507.01862 508.98203
508.0 0.001969 507.02063 508.98138
506.0 0.001976 507.02264 508.98074
503.0 0.001988 507.02466 508.98013
503.0 0.001988 507.02673 508.97958
502.0 0.001992 507.02881 508.97903
504.0 0.001984 507.03091 508.97849
503.0 0.001988 507.03302 508.97803
505.0 0.001980 507.03516 508.97757
504.0 0.001984 507.03732 508.97714
500.0 0.002000 507.03952 508.97675
498.0 0.002008 507.04172 508.97638
499.0 0.002004 507.04395 508.97610
502.0 0.001992 507.04620 508.97580
508.0 0.001969 507.04846 508.97546
508.0 0.001969 507.05075 508.97525
504.0 0.001984 507.05307 508.97510
503.0 0.001988 507.05542 508.97488
502.0 0.001992 507.05777 508.97476
505.0 0.001980 507.06015 508.97464
502.0 0.001992 507.06253 508.97455
501.0 0.001996 507.06497 508.97446
501.0 0.001996 507.06741 508.97440
505.0 0.001980 507.06985 508.97443
505.0 0.001980 507.07236 508.97443
507.0 0.001972 507.07486 508.97458
503.0 0.001988 507.07739 508.97461
501.0 0.001996 507.07993 508.97473
501.0 0.001996 507.08249 508.97488
500.0 0.002000 507.08508 508.97510
504.0 0.001984 507.08771 508.97528
507.0 0.001972 507.09033 508.97556
502.0 0.001992 507.09299 508.97580
504.0 0.001984 507.09567 508.97614
505.0 0.001980 507.09836 508.97647
499.0 0.002004 507.10107 508.97684
503.0 0.001988 507.10382 508.97723
505.0 0.001980 507.10657 508.97766
506.0 0.001976 507.10934 508.97809
510.0 0.001961 507.11215 508.97855
504.0 0.001984 507.11499 508.97913
506.0 0.001976 507.11783 508.97964
506.0 0.001976 507.12070 508.98022
506.0 0.001976 507.12360 508.98074
509.0 0.001965 507.12650 508.98145
508.0 0.001969 507.12943 508.98206
508.0 0.001969 507.13239 508.98279
508.0 0.001969 507.13535 508.98346
511.0 0.001957 507.13834 508.98425
507.0 0.001972 507.14136 508.98502
506.0 0.001976 507.14438 508.98581
506.0 0.001976 507.14746 508.98663
503.0 0.001988 507.15051 508.98749
507.0 0.001972 507.15363 508.98840
503.0 0.001988 507.15674 508.98932
500.0 0.002000 507.15988 508.99026
502.0 0.001992 507.16306 508.99121
504.0 0.001984 507.16623 508.99219
504.0 0.001984 507.16943 508.99332
503.0 0.001988 507.17267 508.99435
500.0 0.002000 507.17590 508.99545
505.0 0.001980 507.17917 508.99652
502.0 0.001992 507.18246 508.99771
506.0 0.001976 507.18579 508.99890
503.0 0.001988 507.18912 509.00009
505.0 0.001980 507.19247 509.00131
503.0 0.001988 507.19583 509.00259
506.0 0.001976 507.19922 509.00391
503.0 0.001988 507.20264 509.00519
507.0 0.001972 507.20609 509.00659
507.0 0.001972 507.20953 509.00793
506.0 0.001976 507.21301 509.00937
508.0 0.001969 507.21652 509.01077
513.0 0.001949 507.22003 509.01227
512.0 0.001953 507.22357 509.01376
508.0 0.001969 507.22714 509.01529
506.0 0.001976 507.23074 509.01685
502.0 0.001992 507.23434 509.01837
503.0 0.001988 507.23795 509.02002
506.0 0.001976 507.24161 509.02170
503.0 0.001988 507.24527 509.02335
507.0 0.001972 507.24896 509.02502
509.0 0.001965 507.25266 509.02673
505.0 0.001980 507.25641 509.02841
501.0 0.001996 507.26016 509.03021
502.0 0.001992 507.26392 509.03201
501.0 0.001996 507.26770 509.03384
505.0 0.001980 507.27151 509.03577
507.0 0.001972 507.27536 509.03769
503.0 0.001988 507.27921 509.03958
506.0 0.001976 507.28308 509.04150
503.0 0.001988 507.28699 509.04343
499.0 0.002004 507.29089 509.04547
505.0 0.001980 507.29483 509.04749
511.0 0.001957 507.29880 509.04959
512.0 0.001953 507.30276 509.05167
507.0 0.001972 507.30676 509.05374
510.0 0.001961 507.31079 509.05591
508.0 0.001969 507.31485 509.05804
509.0 0.001965 507.31891 509.06021
508.0 0.001969 507.32297 509.06247
510.0 0.001961 507.32709 509.06476
505.0 0.001980 507.33121 509.06699
504.0 0.001984 507.33536 509.06931
504.0 0.001984 507.33951 509.07162
507.0 0.001972 507.34372 509.07401
510.0 0.001961 507.34790 509.07635
506.0 0.001976 507.35214 509.07877
508.0 0.001969 507.35638 509.08124
505.0 0.001980 507.36066 509.08368
504.0 0.001984 507.36493 509.08615
503.0 0.001988 507.36926 509.08871
500.0 0.002000 507.37360 509.09125
500.0 0.002000 507.37793 509.09384
502.0 0.001992 507.38229 509.09644
500.0 0.002000 507.38669 509.09909
499.0 0.002004 507.39111 509.10175
501.0 0.001996 507.39554 509.10443
502.0 0.001992 507.39999 509.10712
505.0 0.001980 507.40448 509.10983
503.0 0.001988 507.40897 509.11264
508.0 0.001969 507.41348 509.11548
511.0 0.001957 507.41800 509.11823
507.0 0.001972 507.42258 509.12109
505.0 0.001980 507.42715 509.12396
509.0 0.001965 507.43173 509.12686
507.0 0.001972 507.43637 509.12982
505.0 0.001980 507.44101 509.13275
500.0 0.002000 507.44565 509.13571
503.0 0.001988 507.45032 509.13873
501.0 0.001996 507.45502 509.14178
500.0 0.002000 507.45975 509.14487
501.0 0.001996 507.46448 509.14789
505.0 0.001980 507.46924 509.15103
508.0 0.001969 507.47403 509.15417
505.0 0.001980 507.47882 509.15735
505.0 0.001980 507.48364 509.16055
506.0 0.001976 507.48849 509.16373
504.0 0.001984 507.49335 509.16699
504.0 0.001984 507.49823 509.17026
507.0 0.001972 507.50311 509.17355
504.0 0.001984 507.50806 509.17694
503.0 0.001988 507.51300 509.18021
503.0 0.001988 507.51794 509.18359
505.0 0.001980 507.52292 509.18701
507.0 0.001972 507.52792 509.19046
508.0 0.001969 507.53296 509.19397
508.0 0.001969 507.53799 509.19745
504.0 0.001984 507.54306 509.20093
504.0 0.001984 507.54813 509.20444
507.0 0.001972 507.55325 509.20798
503.0 0.001988 507.55838 509.21164
506.0 0.001976 507.56351 509.21521
510.0 0.001961 507.56866 509.21884
510.0 0.001961 507.57385 509.22256
512.0 0.001953 507.57907 509.22617
505.0 0.001980 507.58429 509.22992
505.0 0.001980 507.58951 509.23370
507.0 0.001972 507.59479 509.23746
513.0 0.001949 507.60007 509.24124
506.0 0.001976 507.60538 509.24506
509.0 0.001965 507.61069 509.24893
506.0 0.001976 507.61603 509.25275
506.0 0.001976 507.62140 509.25665
500.0 0.002000 507.62677 509.26059
499.0 0.002004 507.63217 509.26453
502.0 0.001992 507.63760 509.26859
502.0 0.001992 507.64304 509.27255
501.0 0.001996 507.64850 509.27658
504.0 0.001984 507.65399 509.28061
501.0 0.001996 507.65948 509.28467
500.0 0.002000 507.66501 509.28876
501.0 0.001996 507.67053 509.29294
506.0 0.001976 507.67609 509.29706
511.0 0.001957 507.68167 509.30121
507.0 0.001972 507.68729 509.30545
506.0 0.001976 507.69290 509.30969
508.0 0.001969 507.69855 509.31396
509.0 0.001965 507.70419 509.31824
515.0 0.001942 507.70987 509.32251
508.0 0.001969 507.71558 509.32690
508.0 0.001969 507.72128 509.33124
511.0 0.001957 507.72702 509.33563
506.0 0.001976 507.73279 509.34006
504.0 0.001984 507.73856 509.34448
503.0 0.001988 507.74435 509.34897
499.0 0.002004 507.75015 509.35342
499.0 0.002004 507.75601 509.35791
503.0 0.001988 507.76184 509.36240
506.0 0.001976 507.76773 509.36697
505.0 0.001980 507.77362 509.37161
506.0 0.001976 507.77954 509.37619
499.0 0.002004 507.78546 509.38083
502.0 0.001992 507.79141 509.38550
501.0 0.001996 507.79739 509.39014
499.0 0.002004 507.80338 509.39490
503.0 0.001988 507.80939 509.39963
504.0 0.001984 507.81540 509.40436
503.0 0.001988 507.82147 509.40912
501.0 0.001996 507.82751 509.41397
499.0 0.002004 507.83362 509.41876
504.0 0.001984 507.83972 509.42361
508.0 0.001969 507.84586 509.42850
504.0 0.001984 507.85199 509.43341
504.0 0.001984 507.85815 509.43839
507.0 0.001972 507.86432 509.44330
504.0 0.001984 507.87054 509.44827
505.0 0.001980 507.87674 509.45328
501.0 0.001996 507.88300 509.45834
502.0 0.001992 507.88925 509.46335
507.0 0.001972 507.89554 509.46844
506.0 0.001976 507.90182 509.47351
511.0 0.001957 507.90814 509.47864
509.0 0.001965 507.91449 509.48380
509.0 0.001965 507.92084 509.48898
506.0 0.001976 507.92722 509.49420
506.0 0.001976 507.93359 509.49939
507.0 0.001972 507.94000 509.50467
508.0 0.001969 507.94644 509.50986
503.0 0.001988 507.95288 509.51520
505.0 0.001980 507.95935 509.52054
505.0 0.001980 507.96585 509.52591
504.0 0.001984 507.97235 509.53122
509.0 0.001965 507.97888 509.53665
507.0 0.001972 507.98541 509.66837
510.0 0.001961 507.99197 509.67407
506.0 0.001976 507.99857 509.67981
508.0 0.001969 508.00516 509.68558
501.0 0.001996 508.01178 509.69135
504.0 0.001984 508.01843 509.69714
504.0 0.001984 508.02509 509.70300
506.0 0.001976 508.03174 509.70883
503.0 0.001988 508.03845 509.71472
504.0 0.001984 508.04517 509.72064
507.0 0.001972 508.05191 509.72653
502.0 0.001992 508.05865 509.73251
499.0 0.002004 508.06540 509.73849
498.0 0.002008 508.07220 509.74448
502.0 0.001992 508.07901 509.75049
503.0 0.001988 508.08582 509.75656
505.0 0.001980 508.09268 509.76263
507.0 0.001972 508.09955 509.76871
505.0 0.001980 508.10641 509.77484
504.0 0.001984 508.11331 509.78098
506.0 0.001976 508.12024 509.78720
501.0 0.001996 508.12717 509.79340
505.0 0.001980 508.13412 509.79962
503.0 0.001988 508.14108 509.80585
503.0 0.001988 508.14807 509.81213
503.0 0.001988 508.15509 509.81839
504.0 0.001984 508.16211 509.82474
505.0 0.001980 508.16916 509.83105
502.0 0.001992 508.17624 509.83740
502.0 0.001992 508.18332 509.84378
509.0 0.001965 508.19040 509.85019
510.0 0.001961 508.19754 509.85666
510.0 0.001961 508.20465 509.86310
507.0 0.001972 508.21182 509.86963
505.0 0.001980 508.21899 509.87613
509.0 0.001965 508.22620 509.88266
507.0 0.001972 508.23340 509.88925
509.0 0.001965 508.24063 509.89581
508.0 0.001969 508.24786 509.90240
509.0 0.001965 508.25513 509.90903
505.0 0.001980 508.26242 509.91568
502.0 0.001992 508.26971 509.92236
503.0 0.001988 508.27704 509.92911
502.0 0.001992 508.28436 509.93576
503.0 0.001988 508.29172 509.94250
505.0 0.001980 508.29910 509.94934
507.0 0.001972 508.30649 509.95609
508.0 0.001969 508.31390 509.96298
501.0 0.001996 508.32132 509.96982
501.0 0.001996 508.32877 509.97668
504.0 0.001984 508.33621 509.98352
504.0 0.001984 508.34372 509.99045
509.0 0.001965 508.35120 509.99738
514.0 0.001946 508.35873 510.00436
512.0 0.001953 508.36624 510.01138
512.0 0.001953 508.37381 510.01834
507.0 0.001972 508.38138 510.02539
512.0 0.001953 508.38895 510.03247
506.0 0.001976 508.39658 510.03955
503.0 0.001988 508.40417 510.04663
502.0 0.001992 508.41183 510.05380
506.0 0.001976 508.41949 510.06088
506.0 0.001976 508.42715 510.06808
509.0 0.001965 508.43484 510.07532
505.0 0.001980 508.44257 510.08252
506.0 0.001976 508.45029 510.08975
509.0 0.001965 508.45804 510.09698
506.0 0.001976 508.46579 510.10434
505.0 0.001980 508.47357 510.11163
505.0 0.001980 508.48135 510.11896
503.0 0.001988 508.48920 510.12631
504.0 0.001984 508.49701 510.13376
506.0 0.001976 508.50485 510.14111
511.0 0.001957 508.51273 510.14856
510.0 0.001961 508.52063 510.15604
504.0 0.001984 508.52850 510.16351
502.0 0.001992 508.53644 510.17099
504.0 0.001984 508.54437 510.17853
508.0 0.001969 508.55234 510.18604
505.0 0.001980 508.56030 510.19363
508.0 0.001969 508.56827 510.20120
508.0 0.001969 508.57629 510.20883
506.0 0.001976 508.58429 510.21646
509.0 0.001965 508.59235 510.22415
506.0 0.001976 508.60040 510.23184
507.0 0.001972 508.60849 510.23950
505.0 0.001980 508.61655 510.24725
504.0 0.001984 508.62466 510.25504
503.0 0.001988 508.63278 510.26279
508.0 0.001969 508.64093 510.27060
511.0 0.001957 508.64908 510.27847
509.0 0.001965 508.65726 510.28629
506.0 0.001976 508.66547 510.29419
506.0 0.001976 508.67368 510.30203
501.0 0.001996 508.68188 510.30994
504.0 0.001984 508.69012 510.31787
505.0 0.001980 508.69839 510.32587
508.0 0.001969 508.70667 510.33389
503.0 0.001988 508.71497 510.34186
498.0 0.002008 508.72327 510.34988
501.0 0.001996 508.73160 510.35791
503.0 0.001988 508.73993 510.36597
507.0 0.001972 508.74829 510.37405
506.0 0.001976 508.75668 510.38223
506.0 0.001976 508.76508 510.39035
508.0 0.001969 508.77350 510.39853
508.0 0.001969 508.78192 510.40671
508.0 0.001969 508.79034 510.41486
506.0 0.001976 508.79880 510.42313
509.0 0.001965 508.80728 510.43137
506.0 0.001976 508.81580 510.43967
507.0 0.001972 508.82428 510.44794
505.0 0.001980 508.83282 510.45627
506.0 0.001976 508.84137 510.46460
508.0 0.001969 508.84991 510.47299
507.0 0.001972 508.85849 510.48138
506.0 0.001976 508.86707 510.48975
503.0 0.001988 508.87570 510.49820
507.0 0.001972 508.88431 510.50668
511.0 0.001957 508.89294 510.51514
509.0 0.001965 508.90161 510.52362
508.0 0.001969 508.91028 510.53217
508.0 0.001969 508.91898 510.54065
509.0 0.001965 508.92767 510.54926
504.0 0.001984 508.93640 510.55783
511.0 0.001957 508.94513 510.56647
513.0 0.001949 508.95389 510.57510
512.0 0.001953 508.96265 510.58374
506.0 0.001976 508.97144 510.59241
504.0 0.001984 508.98022 510.60110
503.0 0.001988 508.98904 510.60980
506.0 0.001976 508.99789 510.61853
505.0 0.001980 509.00674 510.62732
512.0 0.001953 509.01559 510.63605
514.0 0.001946 509.02448 510.64490
508.0 0.001969 509.03339 510.65372
503.0 0.001988 509.04230 510.66257
509.0 0.001965 509.05121 510.67145
512.0 0.001953 509.06015 510.68030
513.0 0.001949 509.06912 510.68924
512.0 0.001953 509.07809 510.69818
510.0 0.001961 509.08710 510.70715
508.0 0.001969 509.09610 510.71619
501.0 0.001996 509.10510 510.72510
502.0 0.001992 509.11414 510.73413
508.0 0.001969 509.12320 510.74316
507.0 0.001972 509.13226 510.75226
507.0 0.001972 509.14136 510.76135
507.0 0.001972 509.15045 510.77045
506.0 0.001976 509.15958 510.77960
504.0 0.001984 509.16870 510.78873
507.0 0.001972 509.17786 510.79791
506.0 0.001976 509.18701 510.80713
506.0 0.001976 509.19620 510.81635
506.0 0.001976 509.20538 511.05893
507.0 0.001972 509.21460 511.06860
502.0 0.001992 509.22382 511.07831
506.0 0.001976 509.23306 511.08801
506.0 0.001976 509.24231 511.09772
510.0 0.001961 509.25159 511.10754
510.0 0.001961 509.26086 511.11725
506.0 0.001976 509.27017 511.12708
510.0 0.001961 509.27948 511.13690
507.0 0.001972 509.28882 511.14679
503.0 0.001988 509.29816 511.15662
509.0 0.001965 509.30753 511.16647
507.0 0.001972 509.31689 511.17642
503.0 0.001988 509.32629 511.18631
505.0 0.001980 509.33569 511.19635
512.0 0.001953 509.34509 511.20627
511.0 0.001957 509.35455 511.21628
509.0 0.001965 509.36398 511.22629
507.0 0.001972 509.37344 511.23636
507.0 0.001972 509.38293 511.24649
501.0 0.001996 509.39243 511.25650
503.0 0.001988 509.40195 511.26660
506.0 0.001976 509.41147 511.27676
513.0 0.001949 509.42102 511.28690
508.0 0.001969 509.43057 511.29712
506.0 0.001976 509.44012 511.30734
505.0 0.001980 509.44971 511.31750
502.0 0.001992 509.45932 511.32779
505.0 0.001980 509.46893 511.33804
501.0 0.001996 509.47855 511.34836
499.0 0.002004 509.48819 511.35867
506.0 0.001976 509.49786 511.36902
504.0 0.001984 509.50751 511.37933
501.0 0.001996 509.51721 511.38977
506.0 0.001976 509.52692 511.40009
506.0 0.001976 509.53662 511.41058
509.0 0.001965 509.54636 511.42099
508.0 0.001969 509.55609 511.43149
508.0 0.001969 509.56586 511.44196
510.0 0.001961 509.57562 511.45248
508.0 0.001969 509.58539 511.46304
508.0 0.001969 509.59521 511.47360
507.0 0.001972 509.60501 511.48410
509.0 0.001965 509.61484 511.49478
510.0 0.001961 509.62469 511.50540
506.0 0.001976 509.63455 511.51608
505.0 0.001980 509.64441 511.52667
508.0 0.001969 509.65430 511.53738
505.0 0.001980 509.66422 511.54810
507.0 0.001972 509.67410 511.55884
507.0 0.001972 509.68405 511.56961
505.0 0.001980 509.69397 511.58038
504.0 0.001984 509.70395 511.59122
503.0 0.001988 509.71390 511.60202
502.0 0.001992 509.72388 511.61282
504.0 0.001984 509.73389 511.62369
502.0 0.001992 509.74390 511.63464
505.0 0.001980 509.75391 511.64551
507.0 0.001972 509.76395 511.65643
509.0 0.001965 509.77402 511.66739
507.0 0.001972 509.78406 511.67841
505.0 0.001980 509.79416 511.68936
506.0 0.001976 509.80426 511.70035
506.0 0.001976 509.81436 511.71146
509.0 0.001965 509.82446 511.72247
507.0 0.001972 509.83459 511.73358
508.0 0.001969 509.84476 511.74466
509.0 0.001965 509.85492 511.75586
513.0 0.001949 509.86508 511.76697
506.0 0.001976 509.87527 511.77811
505.0 0.001980 509.88547 511.78934
507.0 0.001972 509.89569 511.80054
509.0 0.001965 509.90591 511.81180
505.0 0.001980 509.91617 511.82306
506.0 0.001976 509.92642 511.83435
507.0 0.001972 509.93668 511.84558
507.0 0.001972 509.94696 511.85696
507.0 0.001972 509.95728 511.86832
510.0 0.001961 509.96756 511.87970
513.0 0.001949 509.97787 511.89102
509.0 0.001965 509.98822 511.90244
511.0 0.001957 509.99857 511.91394
511.0 0.001957 510.00894 511.92529
507.0 0.001972 510.01932 511.93683
504.0 0.001984 510.02969 511.94839
508.0 0.001969 510.04010 511.95984
504.0 0.001984 510.05051 511.97147
508.0 0.001969 510.06091 511.98297
511.0 0.001957 510.07138 511.99457
510.0 0.001961 510.08182 512.00616
507.0 0.001972 510.09229 512.01776
506.0 0.001976 510.10275 512.02942
512.0 0.001953 510.11325 512.04114
509.0 0.001965 510.12375 512.05280
510.0 0.001961 510.13428 512.06451
515.0 0.001942 510.14481 512.07623
513.0 0.001949 510.15533 512.08807
511.0 0.001957 510.16589 512.09979
508.0 0.001969 510.17645 512.11157
507.0 0.001972 510.18704 512.12347
508.0 0.001969 510.19760 512.13525
508.0 0.001969 510.20822 512.14716
508.0 0.001969 510.21884 512.15906
513.0 0.001949 510.22946 512.17090
514.0 0.001946 510.24011 512.18298
509.0 0.001965 510.25076 512.19482
500.0 0.002000 510.26141 512.20685
507.0 0.001972 510.27209 512.21887
509.0 0.001965 510.28278 512.23077
512.0 0.001953 510.29349 512.24286
510.0 0.001961 510.30420 512.25494
512.0 0.001953 510.31494 512.26697
510.0 0.001961 510.32568 512.27917
509.0 0.001965 510.33643 512.29126
507.0 0.001972 510.34717 512.30341
508.0 0.001969 510.35797 512.31561
512.0 0.001953 510.36874 512.32776
513.0 0.001949 510.37955 512.33997
511.0 0.001957 510.39035 512.35223
510.0 0.001961 510.40118 512.36450
517.0 0.001934 510.41202 512.37683
514.0 0.001946 510.42285 512.38910
511.0 0.001957 510.43372 512.40137
513.0 0.001949 510.44458 512.41376
514.0 0.001946 510.45547 512.42615
512.0 0.001953 510.46637 512.43848
510.0 0.001961 510.47726 512.45087
512.0 0.001953 510.48819 512.46332
510.0 0.001961 510.49911 512.47577
508.0 0.001969 510.51007 512.48822
509.0 0.001965 510.52103 512.50085
510.0 0.001961 510.53198 512.51331
509.0 0.001965 510.54297 512.52588
510.0 0.001961 510.55396 512.53839
506.0 0.001976 510.56494 512.55096
509.0 0.001965 510.57596 512.56354
506.0 0.001976 510.58698 512.57617
510.0 0.001961 510.59802 512.58881
506.0 0.001976 510.60907 512.60144
507.0 0.001972 510.62012 512.61420
509.0 0.001965 510.63116 512.62695
507.0 0.001972 510.64224 512.63965
510.0 0.001961 510.65335 512.65240
506.0 0.001976 510.66446 512.66510
508.0 0.001969 510.67557 512.67804
505.0 0.001980 510.68668 512.69080
509.0 0.001965 510.69781 512.70367
509.0 0.001965 510.70895 512.71655
510.0 0.001961 510.72012 512.72943
512.0 0.001953 510.73129 512.74231
510.0 0.001961 510.74246 512.75531
510.0 0.001961 510.75366 512.76825
510.0 0.001961 510.76486 512.78125
506.0 0.001976 510.77606 512.79419
507.0 0.001972 510.78729 512.80719
507.0 0.001972 510.79852 512.82019
507.0 0.001972 510.80978 512.83331
504.0 0.001984 510.82101 512.84637
505.0 0.001980 510.83228 512.85950
504.0 0.001984 510.84357 512.87268
503.0 0.001988 510.85486 512.88580
508.0 0.001969 510.86615 512.89899
504.0 0.001984 510.87747 512.91217
508.0 0.001969 510.88879 512.92535
508.0 0.001969 510.90012 512.93860
511.0 0.001957 510.91144 512.95184
512.0 0.001953 510.92279 512.96521
515.0 0.001942 510.93414 512.97845
515.0 0.001942 510.94553 512.99182
514.0 0.001946 510.95691 513.00513
509.0 0.001965 510.96829 513.01855
511.0 0.001957 510.97971 513.03198
509.0 0.001965 510.99112 513.04535
508.0 0.001969 511.00253 513.05878
506.0 0.001976 511.01398 513.07233
511.0 0.001957 511.02542 513.08575
513.0 0.001949 511.03687 513.09930
511.0 0.001957 511.04834 513.11279
510.0 0.001961 511.05981 513.12628
509.0 0.001965 511.07129 513.13983
513.0 0.001949 511.08279 513.15350
511.0 0.001957 511.09430 513.16718
514.0 0.001946 511.10580 513.18073
516.0 0.001938 511.11734 513.19440
515.0 0.001942 511.12888 513.20807
513.0 0.001949 511.14041 513.22180
511.0 0.001957 511.15195 513.23560
508.0 0.001969 511.16351 513.24927
509.0 0.001965 511.17511 513.26306
509.0 0.001965 511.18668 513.27673
510.0 0.001961 511.19827 513.29071
507.0 0.001972 511.20987 513.30450
509.0 0.001965 511.22150 513.31836
514.0 0.001946 511.23309 513.33228
510.0 0.001961 511.24475 513.34619
509.0 0.001965 511.25638 513.36011
510.0 0.001961 511.26804 513.37402
517.0 0.001934 511.27969 513.38800
511.0 0.001957 511.29135 513.40198
516.0 0.001938 511.30304 513.41602
513.0 0.001949 511.31473 513.43011
514.0 0.001946 511.32642 513.44409
514.0 0.001946 511.33813 513.45831
511.0 0.001957 511.34985 513.47241
509.0 0.001965 511.36157 513.48645
508.0 0.001969 511.37332 513.50067
507.0 0.001972 511.38507 513.51489
510.0 0.001961 511.39679 513.52899
510.0 0.001961 511.40857 513.54327
511.0 0.001957 511.42035 513.55750
513.0 0.001949 511.43213 513.57184
515.0 0.001942 511.44391 513.58606
506.0 0.001976 511.45572 513.60040
505.0 0.001980 511.46753 513.61487
504.0 0.001984 511.47934 513.62915
507.0 0.001972 511.49115 513.64343
505.0 0.001980 511.50299 513.65784
504.0 0.001984 511.51483 513.67236
513.0 0.001949 511.52667 513.68683
513.0 0.001949 511.53854 513.70123
515.0 0.001942 511.55042 513.71588
510.0 0.001961 511.56229 513.73035
506.0 0.001976 511.57419 513.74487
510.0 0.001961 511.58609 513.75946
510.0 0.001961 511.59799 513.77405
511.0 0.001957 511.60989 513.78870
512.0 0.001953 511.62183 513.80334
515.0 0.001942 511.63376 513.81793
516.0 0.001938 511.64566 513.83270
514.0 0.001946 511.65762 513.84735
514.0 0.001946 511.66959 513.86212
513.0 0.001949 511.68155 513.87695
512.0 0.001953 511.69351 513.89172
511.0 0.001957 511.70551 513.90656
508.0 0.001969 511.71750 513.92126
507.0 0.001972 511.72946 513.93616
510.0 0.001961 511.74149 513.95099
510.0 0.001961 511.75351 513.96594
506.0 0.001976 511.76553 513.98090
510.0 0.001961 511.77756 513.99585
509.0 0.001965 511.78958 514.01080
508.0 0.001969 511.80164 514.02588
511.0 0.001957 511.81369 514.04083
513.0 0.001949 511.82574 514.05597
508.0 0.001969 511.83780 514.07098
513.0 0.001949 511.84988 514.08612
513.0 0.001949 511.86197 514.10114
519.0 0.001927 511.87405 514.11639
521.0 0.001919 511.88617 514.13147
513.0 0.001949 511.89828 514.14679
512.0 0.001953 511.91040 514.16205
512.0 0.001953 511.92252 514.17719
513.0 0.001949 511.93463 514.19244
509.0 0.001965 511.94678 514.20776
509.0 0.001965 511.95892 514.22308
520.0 0.001923 511.97107 514.23846
519.0 0.001927 511.98325 514.25391
514.0 0.001946 511.99542 514.26929
508.0 0.001969 512.00757 514.28461
515.0 0.001942 512.01978 514.30011
512.0 0.001953 512.03198 514.31555
512.0 0.001953 512.04419 514.33105
512.0 0.001953 512.05640 514.34662
510.0 0.001961 512.06860 514.36224
508.0 0.001969 512.08081 514.37775
504.0 0.001984 512.09302 514.39337
508.0 0.001969 512.10529 514.40906
511.0 0.001957 512.11749 514.42462
511.0 0.001957 512.12976 514.44031
515.0 0.001942 512.14203 514.45599
512.0 0.001953 512.15430 514.47180
511.0 0.001957 512.16656 514.48743
511.0 0.001957 512.17883 514.50323
513.0 0.001949 512.19110 514.51904
513.0 0.001949 512.20343 514.53491
516.0 0.001938 512.21570 514.55078
519.0 0.001927 512.22803 514.56665
524.0 0.001908 512.24030 514.58246
517.0 0.001934 512.25262 514.59851
519.0 0.001927 512.26495 514.61444
520.0 0.001923 512.27728 514.63049
515.0 0.001942 512.28961 514.64642
519.0 0.001927 512.30194 514.66248
520.0 0.001923 512.31433 514.67859
516.0 0.001938 512.32666 514.69464
514.0 0.001946 512.33905 514.71082
512.0 0.001953 512.35144 514.72705
516.0 0.001938 512.36377 514.74316
513.0 0.001949 512.37616 514.75934
514.0 0.001946 512.38855 514.77557
514.0 0.001946 512.40094 514.79175
516.0 0.001938 512.41339 514.80823
515.0 0.001942 512.42578 514.82440
512.0 0.001953 512.43817 514.84082
509.0 0.001965 512.45062 514.85712
514.0 0.001946 512.46307 514.87366
513.0 0.001949 512.47546 514.88995
507.0 0.001972 512.48792 514.90643
510.0 0.001961 512.50037 514.92291
515.0 0.001942 512.51282 514.93951
515.0 0.001942 512.52527 514.95599
518.0 0.001931 512.53772 514.97247
513.0 0.001949 512.55023 514.98920
517.0 0.001934 512.56268 515.00580
520.0 0.001923 512.57520 515.02252
516.0 0.001938 512.58765 515.03918
515.0 0.001942 512.60016 515.05591
516.0 0.001938 512.61267 515.07257
515.0 0.001942 512.62518 515.08942
519.0 0.001927 512.63770 515.10620
515.0 0.001942 512.65021 515.12305
519.0 0.001927 512.66272 515.13989
517.0 0.001934 512.67523 515.15680
514.0 0.001946 512.68781 515.17371
510.0 0.001961 512.70032 515.19061
512.0 0.001953 512.71289 515.20764
511.0 0.001957 512.72540 515.22455
515.0 0.001942 512.73798 515.24182
513.0 0.001949 512.75055 515.25873
515.0 0.001942 512.76312 515.27588
516.0 0.001938 512.77570 515.29303
515.0 0.001942 512.78827 515.31024
513.0 0.001949 512.80084 515.32733
518.0 0.001931 512.81342 515.34460
519.0 0.001927 512.82605 515.36188
517.0 0.001934 512.83862 515.37915
515.0 0.001942 512.85120 515.39642
516.0 0.001938 512.86383 515.41382
518.0 0.001931 512.87646 515.43121
521.0 0.001919 512.88904 515.44861
518.0 0.001931 512.90167 515.46600
518.0 0.001931 512.91431 515.48346
512.0 0.001953 512.92694 515.50098
514.0 0.001946 512.93958 515.51855
516.0 0.001938 512.95221 515.53607
517.0 0.001934 512.96490 515.55377
521.0 0.001919 512.97754 515.57147
518.0 0.001931 512.99017 515.58899
514.0 0.001946 513.00287 515.60687
511.0 0.001957 513.01550 515.62445
513.0 0.001949 513.02820 515.64227
514.0 0.001946 513.04089 515.66016
512.0 0.001953 513.05353 515.67786
516.0 0.001938 513.06622 515.69574
514.0 0.001946 513.07892 515.71375
512.0 0.001953 513.09161 515.73163
513.0 0.001949 513.10431 515.74969
515.0 0.001942 513.11700 515.76770
515.0 0.001942 513.12976 515.78577
512.0 0.001953 513.14246 515.80377
517.0 0.001934 513.15515 515.82190
516.0 0.001938 513.16791 515.84003
514.0 0.001946 513.18060 515.85828
512.0 0.001953 513.19336 515.87640
516.0 0.001938 513.20605 515.89471
520.0 0.001923 513.21881 515.91302
520.0 0.001923 513.23157 515.93146
519.0 0.001927 513.24426 515.94965
513.0 0.001949 513.25702 515.96814
515.0 0.001942 513.26978 515.98663
518.0 0.001931 513.28253 516.00507
524.0 0.001908 513.29529 516.02344
519.0 0.001927 513.30811 516.04218
520.0 0.001923 513.32086 516.06067
514.0 0.001946 513.33362 516.07941
516.0 0.001938 513.34637 516.09790
512.0 0.001953 513.35919 516.11676
516.0 0.001938 513.37195 516.13538
517.0 0.001934 513.38477 516.15430
514.0 0.001946 513.39752 516.17303
518.0 0.001931 513.41034 516.19183
513.0 0.001949 513.42316 516.21082
512.0 0.001953 513.43591 516.22968
519.0 0.001927 513.44873 516.24872
515.0 0.001942 513.46155 516.26770
516.0 0.001938 513.47437 516.28674
515.0 0.001942 513.48718 516.30585
515.0 0.001942 513.50000 516.32501
517.0 0.001934 513.51282 516.34424
520.0 0.001923 513.52563 516.36340
517.0 0.001934 513.53845 516.38269
522.0 0.001916 513.55133 516.40204
512.0 0.001953 513.56415 516.42139
517.0 0.001934 513.57697 516.44073
515.0 0.001942 513.58984 516.46021
517.0 0.001934 513.60266 516.47968
514.0 0.001946 513.61554 516.49921
514.0 0.001946 513.62836 516.51874
513.0 0.001949 513.64124 516.53833
512.0 0.001953 513.65405 516.55792
504.0 0.001984 513.66693 516.57764
514.0 0.001946 513.67981 516.59729
515.0 0.001942 513.69269 516.61725
517.0 0.001934 513.70557 516.63696
512.0 0.001953 513.71838 516.65686
508.0 0.001969 513.73126 516.67676
514.0 0.001946 513.74414 516.69672
514.0 0.001946 513.75702 516.71667
515.0 0.001942 513.76990 516.73688
512.0 0.001953 513.78284 516.75696
510.0 0.001961 513.79572 516.77716
513.0 0.001949 513.80859 516.79730
512.0 0.001953 513.82147 516.81750
514.0 0.001946 513.83435 516.83783
514.0 0.001946 513.84729 516.85822
511.0 0.001957 513.86017 516.87860
512.0 0.001953 513.87305 516.89905
515.0 0.001942 513.88599 516.91943
520.0 0.001923 513.89886 516.94000
510.0 0.001961 513.91180 516.96057
512.0 0.001953 513.92468 516.98126
519.0 0.001927 513.93762 517.00201
518.0 0.001931 513.95050 517.02258
517.0 0.001934 513.96344 517.04340
519.0 0.001927 513.97638 517.06433
521.0 0.001919 513.98926 517.08521
518.0 0.001931 514.00220 517.10614
514.0 0.001946 514.01514 517.12714
516.0 0.001938 514.02808 517.14832
515.0 0.001942 514.04095 517.16937
517.0 0.001934 514.05389 517.19043
519.0 0.001927 514.06683 517.21173
519.0 0.001927 514.07977 517.23303
519.0 0.001927 514.09271 517.25433
519.0 0.001927 514.10565 517.27576
515.0 0.001942 514.11859 517.29724
509.0 0.001965 514.13153 517.31866
514.0 0.001946 514.14447 517.34015
519.0 0.001927 514.15741 517.36182
507.0 0.001972 514.17035 517.38354
507.0 0.001972 514.18329 517.40521
507.0 0.001972 514.19629 517.42700
512.0 0.001953 514.20923 517.44897
510.0 0.001961 514.22217 517.47083
513.0 0.001949 514.23511 517.49280
512.0 0.001953 514.24805 517.51483
516.0 0.001938 514.26105 517.53699
515.0 0.001942 514.27399 517.55908
514.0 0.001946 514.28693 517.58130
522.0 0.001916 514.29993 517.60352
521.0 0.001919 514.31287 517.62604
517.0 0.001934 514.32581 517.64832
516.0 0.001938 514.33881 517.67084
517.0 0.001934 514.35175 517.69336
522.0 0.001916 514.36475 517.71594
518.0 0.001931 514.37769 517.73865
517.0 0.001934 514.39063 517.76147
513.0 0.001949 514.40363 517.78424
510.0 0.001961 514.41656 517.80707
513.0 0.001949 514.42957 517.83008
510.0 0.001961 514.44250 517.85303
513.0 0.001949 514.45551 517.87616
516.0 0.001938 514.46844 517.89923
511.0 0.001957 514.48145 517.92267
508.0 0.001969 514.49438 517.94580
509.0 0.001965 514.50739 517.96930
509.0 0.001965 514.52039 517.99261
509.0 0.001965 514.53333 518.01630
513.0 0.001949 514.54633 518.03992
517.0 0.001934 514.55927 518.06354
516.0 0.001938 514.57227 518.08728
516.0 0.001938 514.58527 518.11102
515.0 0.001942 514.59821 518.13495
513.0 0.001949 514.61121 518.15900
516.0 0.001938 514.62415 518.18304
516.0 0.001938 514.63715 518.20709
511.0 0.001957 514.65015 518.23145
511.0 0.001957 514.66309 518.25568
512.0 0.001953 514.67609 518.28009
515.0 0.001942 514.68909 518.30463
514.0 0.001946 514.70203 518.32910
514.0 0.001946 514.71503 518.35376
510.0 0.001961 514.72803 518.37854
506.0 0.001976 514.74097 518.40338
511.0 0.001957 514.75397 518.42822
513.0 0.001949 514.76697 518.45325
508.0 0.001969 514.77991 518.47815
510.0 0.001961 514.79291 518.50348
504.0 0.001984 514.80585 518.52863
509.0 0.001965 514.81885 518.55402
513.0 0.001949 514.83185 518.57953
510.0 0.001961 514.84479 518.60498
510.0 0.001961 514.85779 518.63062
510.0 0.001961 514.87079 518.65631
510.0 0.001961 514.88373 518.68219
509.0 0.001965 514.89673 518.70807
512.0 0.001953 514.90967 518.73407
519.0 0.001927 514.92267 518.76025
517.0 0.001934 514.93567 518.78638
516.0 0.001938 514.94861 518.81274
513.0 0.001949 514.96161 518.83911
514.0 0.001946 514.97455 518.86566
513.0 0.001949 514.98755 518.89227
512.0 0.001953 515.00049 518.91901
510.0 0.001961 515.01349 518.94604
515.0 0.001942 515.02649 518.97284
516.0 0.001938 515.03943 518.99988
511.0 0.001957 515.05237 519.02698
512.0 0.001953 515.06537 519.05438
512.0 0.001953 515.07837 519.08167
515.0 0.001942 515.09131 519.10919
518.0 0.001931 515.10425 519.13672
515.0 0.001942 515.11725 519.16467
515.0 0.001942 515.13019 519.19244
512.0 0.001953 515.14313 519.22046
510.0 0.001961 515.15613 519.24872
515.0 0.001942 515.16907 519.27673
510.0 0.001961 515.18201 519.30511
510.0 0.001961 515.19501 519.33362
509.0 0.001965 515.20795 519.36212
508.0 0.001969 515.22089 519.39093
509.0 0.001965 515.23389 519.41974
508.0 0.001969 515.24683 519.44879
511.0 0.001957 515.25977 519.47791
511.0 0.001957 515.27271 519.50708
516.0 0.001938 515.28564 519.53656
521.0 0.001919 515.29858 519.56610
515.0 0.001942 515.31152 519.59576
518.0 0.001931 515.32452 519.62561
519.0 0.001927 515.33746 519.65552
523.0 0.001912 515.35040 519.68561
522.0 0.001916 515.36334 519.71594
518.0 0.001931 515.37628 519.74622
519.0 0.001927 515.38922 519.77667
525.0 0.001905 515.40216 519.80737
517.0 0.001934 515.41504 519.83826
515.0 0.001942 515.42798 519.86938
516.0 0.001938 515.44092 519.90045
518.0 0.001931 515.45386 519.93182
518.0 0.001931 515.46680 519.96338
515.0 0.001942 515.47968 519.99493
520.0 0.001923 515.49261 520.02673
518.0 0.001931 515.50555 520.05884
520.0 0.001923 515.51843 520.09088
518.0 0.001931 515.53137 520.12323
517.0 0.001934 515.54425 520.15564
520.0 0.001923 515.55719 520.18842
515.0 0.001942 515.57013 520.22119
515.0 0.001942 515.58301 520.25427
518.0 0.001931 515.59589 520.28748
520.0 0.001923 515.60883 520.32086
519.0 0.001927 515.62170 520.35449
518.0 0.001931 515.63458 520.38824
522.0 0.001916 515.64752 520.42218
522.0 0.001916 515.66040 520.45648
521.0 0.001919 515.67328 520.49078
521.0 0.001919 515.68616 520.52533
522.0 0.001916 515.69904 520.56018
524.0 0.001908 515.71191 520.59521
522.0 0.001916 515.72479 520.63031
520.0 0.001923 515.73767 520.66595
520.0 0.001923 515.75055 520.70148
519.0 0.001927 515.76343 520.73737
519.0 0.001927 515.77631 520.77344
521.0 0.001919 515.78918 520.80969
521.0 0.001919 515.80206 520.84631
519.0 0.001927 515.81488 520.88306
521.0 0.001919 515.82776 520.92004
521.0 0.001919 515.84064 520.95740
519.0 0.001927 515.85345 520.99475
518.0 0.001931 515.86633 521.03253
513.0 0.001949 515.87915 521.07043
513.0 0.001949 515.89203 521.10883
518.0 0.001931 515.90485 521.14728
517.0 0.001934 515.91766 521.18604
518.0 0.001931 515.93048 521.22510
519.0 0.001927 515.94336 521.26440
521.0 0.001919 515.95618 521.30408
523.0 0.001912 515.96899 521.34381
522.0 0.001916 515.98181 521.38403
521.0 0.001919 515.99463 521.42444
523.0 0.001912 516.00745 521.46515
522.0 0.001916 516.02026 521.50616
518.0 0.001931 516.03308 521.54742
522.0 0.001916 516.04584 521.58911
527.0 0.001898 516.05865 521.63110
525.0 0.001905 516.07147 521.67334
518.0 0.001931 516.08423 521.71594
519.0 0.001927 516.09705 521.75897
523.0 0.001912 516.10980 521.80212
520.0 0.001923 516.12262 521.84583
521.0 0.001919 516.13538 521.88965
519.0 0.001927 516.14813 521.93390
520.0 0.001923 516.16095 521.97845
519.0 0.001927 516.17371 522.02356
519.0 0.001927 516.18646 522.06897
517.0 0.001934 516.19922 522.11462
519.0 0.001927 516.21198 522.16077
523.0 0.001912 516.22473 522.20721
520.0 0.001923 516.23749 522.25409
519.0 0.001927 516.25024 522.30139
523.0 0.001912 516.26294 522.34906
520.0 0.001923 516.27570 522.39728
518.0 0.001931 516.28845 522.44580
520.0 0.001923 516.30115 522.49475
521.0 0.001919 516.31390 522.54419
527.0 0.001898 516.32660 522.59393
523.0 0.001912 516.33929 522.64429
523.0 0.001912 516.35205 522.69501
524.0 0.001908 516.36475 522.74634
528.0 0.001894 516.37744 522.79803
530.0 0.001887 516.39014 522.85022
523.0 0.001912 516.40283 522.90277
525.0 0.001905 516.41553 522.95605
527.0 0.001898 516.42822 523.00970
526.0 0.001901 516.44092 523.06403
522.0 0.001916 516.45355 523.11871
519.0 0.001927 516.46625 523.17413
521.0 0.001919 516.47888 523.23004
522.0 0.001916 516.49158 523.28632
520.0 0.001923 516.50421 523.34344
520.0 0.001923 516.51685 523.40106
520.0 0.001923 516.52954 523.45923
516.0 0.001938 516.54218 523.51801
516.0 0.001938 516.55481 523.57739
520.0 0.001923 516.56744 523.63751
520.0 0.001923 516.58008 523.69830
523.0 0.001912 516.59271 523.75958
526.0 0.001901 516.60529 523.82166
534.0 0.001873 516.61792 523.88434
526.0 0.001901 516.63055 523.94788
523.0 0.001912 516.64313 524.01196
522.0 0.001916 516.65576 524.07684
527.0 0.001898 516.66833 524.14246
524.0 0.001908 516.68091 524.20886
524.0 0.001908 516.69354 524.27606
528.0 0.001894 516.70612 524.34399
527.0 0.001898 516.71869 524.41272
527.0 0.001898 516.73126 524.48242
526.0 0.001901 516.74377 524.55292
526.0 0.001901 516.75635 524.62421
526.0 0.001901 516.76892 524.69641
527.0 0.001898 516.78143 524.76953
530.0 0.001887 516.79401 524.84369
524.0 0.001908 516.80652 524.91876
529.0 0.001890 516.81909 524.99463
526.0 0.001901 516.83160 525.07159
525.0 0.001905 516.84412 525.14960
524.0 0.001908 516.85663 525.22852
532.0 0.001880 516.86914 525.30872
534.0 0.001873 516.88165 525.38983
528.0 0.001894 516.89417 525.47205
531.0 0.001883 516.90662 525.55548
531.0 0.001883 516.91913 525.63995
526.0 0.001901 516.93158 525.72571
527.0 0.001898 516.94409 525.81281
528.0 0.001894 516.95654 525.90106
529.0 0.001890 516.96899 525.99042
531.0 0.001883 516.98151 526.08136
528.0 0.001894 516.99396 526.17346
530.0 0.001887 517.00635 526.26697
526.0 0.001901 517.01880 526.36188
528.0 0.001894 517.03125 526.45844
527.0 0.001898 517.04370 526.55627
527.0 0.001898 517.05609 526.65564
532.0 0.001880 517.06854 526.75659
536.0 0.001866 517.08093 526.85925
535.0 0.001869 517.09332 526.96338
525.0 0.001905 517.10571 527.06934
530.0 0.001887 517.11810 527.17700
531.0 0.001883 517.13049 527.28632
529.0 0.001890 517.14288 527.39758
533.0 0.001876 517.15527 527.51062
532.0 0.001880 517.16760 527.62567
533.0 0.001876 517.17999 527.74268
529.0 0.001890 517.19232 527.86176
527.0 0.001898 517.20471 527.98285
529.0 0.001890 517.21704 528.10608
528.0 0.001894 517.22937 528.23157
528.0 0.001894 517.24170 528.35931
528.0 0.001894 517.25403 528.48938
530.0 0.001887 517.26630 528.62195
534.0 0.001873 517.27863 528.75684
534.0 0.001873 517.29095 528.89429
537.0 0.001862 517.30322 529.03448
536.0 0.001866 517.31549 529.17731
537.0 0.001862 517.32782 529.32281
530.0 0.001887 517.34009 529.47125
528.0 0.001894 517.35236 529.62268
526.0 0.001901 517.36462 529.77704
533.0 0.001876 517.37683 529.93469
537.0 0.001862 517.38910 530.09540
537.0 0.001862 517.40137 530.25946
537.0 0.001862 517.41357 530.42719
538.0 0.001859 517.42578 530.59814
533.0 0.001876 517.43799 530.77289
527.0 0.001898 517.45026 530.95154
533.0 0.001876 517.46246 531.13391
530.0 0.001887 517.47461 531.32031
534.0 0.001873 517.48682 531.51093
533.0 0.001876 517.49902 531.70587
534.0 0.001873 517.51117 531.90527
533.0 0.001876 517.52338 532.10919
530.0 0.001887 517.53552 532.31805
523.0 0.001912 517.54767 532.53174
531.0 0.001883 517.55981 532.75043
533.0 0.001876 517.57196 532.97461
534.0 0.001873 517.58411 533.20416
535.0 0.001869 517.59619 533.43939
538.0 0.001859 517.60834 533.68054
542.0 0.001845 517.62042 533.92786
537.0 0.001862 517.63257 534.18146
533.0 0.001876 517.64465 534.44165
534.0 0.001873 517.65674 534.70868
541.0 0.001848 517.66882 534.98291
544.0 0.001838 517.68091 535.26447
541.0 0.001848 517.69293 535.55389
544.0 0.001838 517.70502 535.85107
545.0 0.001835 517.71704 536.15680
538.0 0.001859 517.72913 536.47119
543.0 0.001842 517.74115 536.79468
544.0 0.001838 517.75317 537.12756
546.0 0.001832 517.76520 537.47058
545.0 0.001835 517.77716 537.82355
543.0 0.001842 517.78918 538.18762
541.0 0.001848 517.80121 538.56281
538.0 0.001859 517.81317 538.94995
539.0 0.001855 517.82513 539.34930
544.0 0.001838 517.83710 539.76166
541.0 0.001848 517.84906 540.18744
549.0 0.001821 517.86102 540.62762
543.0 0.001842 517.87299 541.08246
543.0 0.001842 517.88489 541.55304
545.0 0.001835 517.89685 542.04016
543.0 0.001842 517.90875 542.54431
545.0 0.001835 517.92065 543.06659
546.0 0.001832 517.93262 543.60785
557.0 0.001795 517.94446 544.16901
551.0 0.001815 517.95636 544.75128
553.0 0.001808 517.96826 545.35535
549.0 0.001821 517.98010 545.98273
550.0 0.001818 517.99200 546.63446
554.0 0.001805 518.00385 547.31189
557.0 0.001795 518.01569 548.01617
559.0 0.001789 518.02753 548.74878
567.0 0.001764 518.03937 549.51123
565.0 0.001770 518.05115 550.30481
564.0 0.001773 518.06299 551.13135
562.0 0.001779 518.07483 551.99261
558.0 0.001792 518.08661 552.88995
560.0 0.001786 518.09839 553.82574
566.0 0.001767 518.11017 554.80127
564.0 0.001773 518.12195 555.81891
565.0 0.001770 518.13367 556.88068
561.0 0.001783 518.14545 557.98859
566.0 0.001767 518.15717 559.14496
563.0 0.001776 518.16888 560.35193
575.0 0.001739 518.18066 561.61206
578.0 0.001730 518.19238 562.92749
580.0 0.001724 518.20404 564.30109
577.0 0.001733 518.21576 565.73505
578.0 0.001730 518.22742 567.23212
581.0 0.001721 518.23914 568.79504
576.0 0.001736 518.25079 570.42651
579.0 0.001727 518.26245 572.12915
579.0 0.001727 518.27411 573.90564
587.0 0.001704 518.28577 575.75897
583.0 0.001715 518.29736 577.69183
587.0 0.001704 518.30902 579.70691
589.0 0.001698 518.32062 581.80688
595.0 0.001681 518.33221 583.99420
601.0 0.001664 518.34381 586.27167
594.0 0.001684 518.35541 588.64117
591.0 0.001692 518.36700 591.10516
599.0 0.001669 518.37854 593.66522
600.0 0.001667 518.39014 596.32324
602.0 0.001661 518.40167 599.08008
596.0 0.001678 518.41321 601.93671
602.0 0.001661 518.42474 604.89294
613.0 0.001631 518.43628 607.94849
612.0 0.001634 518.44781 611.10181
616.0 0.001623 518.45929 614.35095
621.0 0.001610 518.47076 617.69244
622.0 0.001608 518.48230 621.12189
626.0 0.001597 518.49377 624.63342
625.0 0.001600 518.50519 628.21942
622.0 0.001608 518.51666 631.87122
627.0 0.001595 518.52814 635.57721
635.0 0.001575 518.53955 639.32452
638.0 0.001567 518.55096 643.09808
646.0 0.001548 518.56238 646.88007
650.0 0.001538 518.57379 650.65045
648.0 0.001543 518.58521 654.38672
652.0 0.001534 518.59656 658.06439
655.0 0.001527 518.60797 661.65601
664.0 0.001506 518.61932 665.13293
660.0 0.001515 518.63068 668.46442
658.0 0.001520 518.64203 671.61871
659.0 0.001517 518.65338 674.56342
661.0 0.001513 518.66467 677.26611
672.0 0.001488 518.67596 679.69562
669.0 0.001495 518.68732 681.82196
661.0 0.001513 518.69861 683.61835
659.0 0.001517 518.70990 685.06061
661.0 0.001513 518.72113 686.12970
671.0 0.001490 518.73242 686.81067
669.0 0.001495 518.74365 687.09467
675.0 0.001481 518.75494 686.97791
676.0 0.001479 518.76617 686.46301
680.0 0.001471 518.77740 685.55829
676.0 0.001479 518.78857 684.27734
677.0 0.001477 518.79980 682.63885
679.0 0.001473 518.81097 680.66595
692.0 0.001445 518.82214 678.38544
693.0 0.001443 518.83331 675.82635
690.0 0.001449 518.84448 673.02002
685.0 0.001460 518.85565 669.99872
685.0 0.001460 518.86676 666.79468
686.0 0.001458 518.87793 663.44019
679.0 0.001473 518.88904 659.96576
677.0 0.001477 518.90015 656.40070
679.0 0.001473 518.91125 652.77271
684.0 0.001462 518.92230 649.10663
688.0 0.001453 518.93341 645.42554
677.0 0.001477 518.94446 641.74994
684.0 0.001462 518.95551 638.09735
680.0 0.001471 518.96655 634.48407
672.0 0.001488 518.97760 630.92322
666.0 0.001502 518.98865 627.42639
665.0 0.001504 518.99963 624.00281
664.0 0.001506 519.01062 620.66046
669.0 0.001495 519.02161 617.40515
668.0 0.001497 519.03259 614.24176
655.0 0.001527 519.04358 611.17389
644.0 0.001553 519.05450 608.20374
643.0 0.001555 519.06549 605.33270
648.0 0.001543 519.07642 602.56183
647.0 0.001546 519.08734 599.89075
644.0 0.001553 519.09821 597.31897
645.0 0.001550 519.10913 594.84534
645.0 0.001550 519.12000 592.46869
644.0 0.001553 519.13092 590.18677
636.0 0.001572 519.14178 587.99768
633.0 0.001580 519.15265 585.89941
632.0 0.001582 519.16345 583.88916
636.0 0.001572 519.17432 581.96448
634.0 0.001577 519.18512 580.12286
631.0 0.001585 519.19592 578.36151
625.0 0.001600 519.20673 576.67755
626.0 0.001597 519.21753 575.06830
625.0 0.001600 519.22827 573.53125
623.0 0.001605 519.23907 572.06342
622.0 0.001608 519.24982 570.66205
613.0 0.001631 519.26056 569.32452
605.0 0.001653 519.27130 568.04846
604.0 0.001656 519.28198 566.83124
608.0 0.001645 519.29272 565.67004
603.0 0.001658 519.30341 564.56274
593.0 0.001686 519.31409 563.50690
599.0 0.001669 519.32477 562.50024
591.0 0.001692 519.33539 561.54065
594.0 0.001684 519.34607 560.62567
598.0 0.001672 519.35669 559.75360
595.0 0.001681 519.36731 558.92242
591.0 0.001692 519.37793 558.12994
584.0 0.001712 519.38855 557.37469
588.0 0.001701 519.39911 556.65472
586.0 0.001706 519.40973 555.96826
583.0 0.001715 519.42029 555.31403
586.0 0.001706 519.43085 554.69031
582.0 0.001718 519.44135 554.09558
580.0 0.001724 519.45190 553.52838
577.0 0.001733 519.46240 552.98779
583.0 0.001715 519.47290 552.47211
581.0 0.001721 519.48340 551.98041
578.0 0.001730 519.49390 551.51141
575.0 0.001739 519.50433 551.06421
568.0 0.001761 519.51483 550.63757
569.0 0.001757 519.52527 550.23077
567.0 0.001764 519.53571 549.84290
572.0 0.001748 519.54614 549.47272
571.0 0.001751 519.55652 549.11969
572.0 0.001748 519.56689 548.78326
569.0 0.001757 519.57733 548.46240
565.0 0.001770 519.58771 548.15637
570.0 0.001754 519.59802 547.86481
573.0 0.001745 519.60840 547.58698
571.0 0.001751 519.61871 547.32214
564.0 0.001773 519.62903 547.06995
561.0 0.001783 519.63934 546.83002
559.0 0.001789 519.64966 546.60150
563.0 0.001776 519.65991 546.38416
565.0 0.001770 519.67023 546.17755
566.0 0.001767 519.68048 545.98120
570.0 0.001754 519.69073 545.79474
566.0 0.001767 519.70093 545.61786
559.0 0.001789 519.71118 545.45044
562.0 0.001779 519.72137 545.29169
568.0 0.001761 519.73157 545.14154
565.0 0.001770 519.74176 544.99976
564.0 0.001773 519.75195 544.86603
566.0 0.001767 519.76208 544.73999
569.0 0.001757 519.77222 544.62146
562.0 0.001779 519.78235 544.51044
560.0 0.001786 519.79248 544.40637
563.0 0.001776 519.80261 544.30914
566.0 0.001767 519.81268 544.21857
563.0 0.001776 519.82275 544.13464
555.0 0.001802 519.83282 544.05676
555.0 0.001802 519.84290 543.98529
555.0 0.001802 519.85291 543.91980
562.0 0.001779 519.86298 543.85999
567.0 0.001764 519.87299 543.80597
566.0 0.001767 519.88300 543.75751
566.0 0.001767 519.89294 543.71454
567.0 0.001764 519.90295 543.67670
557.0 0.001795 519.91290 543.64410
563.0 0.001776 519.92285 543.61676
557.0 0.001795 519.93280 543.59418
556.0 0.001799 519.94275 543.57654
554.0 0.001805 519.95264 543.56366
559.0 0.001789 519.96252 543.55560
562.0 0.001779 519.97241 543.55200
563.0 0.001776 519.98230 543.55292
554.0 0.001805 519.99219 543.55841
555.0 0.001802 520.00201 543.56805
563.0 0.001776 520.01184 543.58228
565.0 0.001770 520.02167 543.60065
560.0 0.001786 520.03149 543.62305
566.0 0.001767 520.04126 543.64966
565.0 0.001770 520.05103 543.68048
558.0 0.001792 520.06079 543.71515
559.0 0.001789 520.07056 543.75378
562.0 0.001779 520.08032 543.79639
561.0 0.001783 520.09003 543.84290
562.0 0.001779 520.09973 543.89337
553.0 0.001808 520.10944 543.94751
552.0 0.001812 520.11914 544.00537
558.0 0.001792 520.12878 544.06702
558.0 0.001792 520.13843 544.13239
562.0 0.001779 520.14807 544.20148
565.0 0.001770 520.15771 544.27423
559.0 0.001789 520.16736 544.35065
552.0 0.001812 520.17694 544.43048
550.0 0.001818 520.18652 544.51410
552.0 0.001812 520.19611 544.60132
554.0 0.001805 520.20569 544.69202
555.0 0.001802 520.21521 544.78632
556.0 0.001799 520.22473 544.88422
560.0 0.001786 520.23425 544.98553
561.0 0.001783 520.24377 545.09045
554.0 0.001805 520.25330 545.19904
550.0 0.001818 520.26276 545.31110
558.0 0.001792 520.27222 545.42657
557.0 0.001795 520.28168 545.54565
555.0 0.001802 520.29114 545.66821
553.0 0.001808 520.30054 545.79443
551.0 0.001815 520.30994 545.92407
554.0 0.001805 520.31934 546.05725
555.0 0.001802 520.32874 546.19415
551.0 0.001815 520.33807 546.33459
548.0 0.001825 520.34741 546.47864
556.0 0.001799 520.35675 546.62622
553.0 0.001808 520.36609 546.77734
549.0 0.001821 520.37543 546.93219
554.0 0.001805 520.38470 547.09070
554.0 0.001805 520.39398 547.25293
554.0 0.001805 520.40326 547.41882
549.0 0.001821 520.41254 547.58838
553.0 0.001808 520.42175 547.76178
554.0 0.001805 520.43097 547.93896
558.0 0.001792 520.44019 548.11993
558.0 0.001792 520.44940 548.30463
561.0 0.001783 520.45856 548.49335
559.0 0.001789 520.46771 548.68585
557.0 0.001795 520.47687 548.88232
556.0 0.001799 520.48602 549.08270
559.0 0.001789 520.49518 549.28723
563.0 0.001776 520.50427 549.49567
558.0 0.001792 520.51337 549.70831
554.0 0.001805 520.52246 549.92505
561.0 0.001783 520.53149 550.14581
563.0 0.001776 520.54059 550.37091
558.0 0.001792 520.54962 550.60016
555.0 0.001802 520.55865 550.83386
560.0 0.001786 520.56763 551.07184
565.0 0.001770 520.57660 551.31439
559.0 0.001789 520.58563 551.56122
559.0 0.001789 520.59454 551.81256
563.0 0.001776 520.60352 552.06842
555.0 0.001802 520.61249 552.32898
563.0 0.001776 520.62140 552.59418
557.0 0.001795 520.63031 552.86420
557.0 0.001795 520.63916 553.13904
555.0 0.001802 520.64807 553.41864
559.0 0.001789 520.65692 553.70313
558.0 0.001792 520.66577 553.99280
557.0 0.001795 520.67462 554.28748
555.0 0.001802 520.68341 554.58728
560.0 0.001786 520.69220 554.89227
553.0 0.001808 520.70099 555.20258
561.0 0.001783 520.70978 555.51819
563.0 0.001776 520.71851 555.83923
562.0 0.001779 520.72729 556.16583
555.0 0.001802 520.73602 556.49811
566.0 0.001767 520.74475 556.83594
569.0 0.001757 520.75342 557.17950
565.0 0.001770 520.76208 557.52905
563.0 0.001776 520.77075 557.88446
557.0 0.001795 520.77942 558.24597
560.0 0.001786 520.78809 558.61365
565.0 0.001770 520.79669 558.98737
562.0 0.001779 520.80530 559.36749
561.0 0.001783 520.81390 559.75397
561.0 0.001783 520.82245 560.14709
562.0 0.001779 520.83099 560.54688
563.0 0.001776 520.83960 560.95331
561.0 0.001783 520.84808 561.36646
560.0 0.001786 520.85663 561.78674
566.0 0.001767 520.86511 562.21399
570.0 0.001754 520.87360 562.64832
565.0 0.001770 520.88208 563.09003
566.0 0.001767 520.89056 563.53918
570.0 0.001754 520.89899 563.99585
570.0 0.001754 520.90741 564.46021
571.0 0.001751 520.91583 564.93225
575.0 0.001739 520.92419 565.41229
576.0 0.001736 520.93256 565.90027
573.0 0.001745 520.94092 566.39648
575.0 0.001739 520.94928 566.90112
573.0 0.001745 520.95764 567.41412
568.0 0.001761 520.96594 567.93573
564.0 0.001773 520.97424 568.46600
567.0 0.001764 520.98254 569.00531
571.0 0.001751 520.99078 569.55365
573.0 0.001745 520.99908 570.11127
576.0 0.001736 521.00732 570.67810
577.0 0.001733 521.01550 571.25452
577.0 0.001733 521.02374 571.84064
577.0 0.001733 521.03192 572.43671
579.0 0.001727 521.04010 573.04272
577.0 0.001733 521.04828 573.65894
582.0 0.001718 521.05640 574.28571
582.0 0.001718 521.06451 574.92285
580.0 0.001724 521.07263 575.57086
576.0 0.001736 521.08075 576.22992
582.0 0.001718 521.08881 576.90009
587.0 0.001704 521.09692 577.58167
584.0 0.001712 521.10498 578.27478
588.0 0.001701 521.11298 578.97961
585.0 0.001709 521.12103 579.69659
581.0 0.001721 521.12903 580.42566
583.0 0.001715 521.13702 581.16730
584.0 0.001712 521.14496 581.92157
586.0 0.001706 521.15295 582.68890
593.0 0.001686 521.16089 583.46924
592.0 0.001689 521.16882 584.26300
594.0 0.001684 521.17670 585.07068
599.0 0.001669 521.18457 585.89221
598.0 0.001672 521.19250 586.72803
593.0 0.001686 521.20032 587.57819
596.0 0.001678 521.20819 588.44342
602.0 0.001661 521.21600 589.32373
593.0 0.001686 521.22382 590.21948
591.0 0.001692 521.23163 591.13092
589.0 0.001698 521.23938 592.05859
594.0 0.001684 521.24719 593.00275
593.0 0.001686 521.25494 593.96350
596.0 0.001678 521.26263 594.94159
597.0 0.001675 521.27039 595.93719
600.0 0.001667 521.27808 596.95081
603.0 0.001658 521.28577 597.98267
602.0 0.001661 521.29340 599.03345
603.0 0.001658 521.30109 600.10345
603.0 0.001658 521.30872 601.19305
599.0 0.001669 521.31635 602.30286
605.0 0.001653 521.32391 603.43323
609.0 0.001642 521.33154 604.58496
611.0 0.001637 521.33911 605.75836
606.0 0.001650 521.34662 606.95410
608.0 0.001645 521.35419 608.17267
610.0 0.001639 521.36169 609.41455
621.0 0.001610 521.36920 610.68073
620.0 0.001613 521.37671 611.97150
623.0 0.001605 521.38416 613.28766
628.0 0.001592 521.39160 614.63000
627.0 0.001595 521.39905 615.99933
618.0 0.001618 521.40649 617.39606
617.0 0.001621 521.41388 618.82129
621.0 0.001610 521.42126 620.27582
622.0 0.001608 521.42865 621.76050
629.0 0.001590 521.43604 623.27612
630.0 0.001587 521.44336 624.82385
630.0 0.001587 521.45068 626.40430
625.0 0.001600 521.45801 628.01892
631.0 0.001585 521.46527 629.66852
629.0 0.001590 521.47253 631.35400
632.0 0.001582 521.47980 633.07697
631.0 0.001585 521.48706 634.83832
643.0 0.001555 521.49426 636.63928
633.0 0.001580 521.50153 638.48126
641.0 0.001560 521.50867 640.36542
645.0 0.001550 521.51587 642.29321
640.0 0.001563 521.52301 644.26605
640.0 0.001563 521.53015 646.28540
645.0 0.001550 521.53729 648.35291
656.0 0.001524 521.54443 650.46985
664.0 0.001506 521.55151 652.63818
663.0 0.001508 521.55859 654.85907
671.0 0.001490 521.56561 657.13470
674.0 0.001484 521.57269 659.46667
671.0 0.001490 521.57971 661.85669
660.0 0.001515 521.58673 664.30652
671.0 0.001490 521.59369 666.81836
684.0 0.001462 521.60065 669.39386
676.0 0.001479 521.60767 672.03485
677.0 0.001477 521.61456 674.74341
683.0 0.001464 521.62152 677.52155
686.0 0.001458 521.62842 680.37109
689.0 0.001451 521.63531 683.29388
694.0 0.001441 521.64215 686.29211
702.0 0.001425 521.64905 689.36737
711.0 0.001406 521.65588 692.52142
713.0 0.001403 521.66272 695.75623
714.0 0.001401 521.66949 699.07312
717.0 0.001395 521.67627 702.47369
716.0 0.001397 521.68304 705.95923
727.0 0.001376 521.68982 709.53088
731.0 0.001368 521.69653 713.18933
736.0 0.001359 521.70331 716.93524
738.0 0.001355 521.70996 720.76880
743.0 0.001346 521.71667 724.68994
741.0 0.001350 521.72333 728.69769
751.0 0.001332 521.72998 732.79120
774.0 0.001292 521.73663 736.96851
776.0 0.001289 521.74323 741.22723
777.0 0.001287 521.74988 745.56415
787.0 0.001271 521.75647 749.97516
788.0 0.001269 521.76300 754.45538
795.0 0.001258 521.76953 758.99866
800.0 0.001250 521.77606 763.59796
809.0 0.001236 521.78259 768.24463
805.0 0.001242 521.78912 772.92920
806.0 0.001241 521.79559 777.64056
802.0 0.001247 521.80206 782.36615
810.0 0.001235 521.80847 787.09167
814.0 0.001229 521.81494 791.80145
822.0 0.001217 521.82135 796.47827
830.0 0.001205 521.82776 801.10321
838.0 0.001193 521.83411 805.65576
848.0 0.001179 521.84045 810.11401
865.0 0.001156 521.84680 814.45471
863.0 0.001159 521.85315 818.65320
866.0 0.001155 521.85944 822.68427
867.0 0.001153 521.86572 826.52124
854.0 0.001171 521.87201 830.13788
851.0 0.001175 521.87830 833.50708
862.0 0.001160 521.88452 836.60272
867.0 0.001153 521.89075 839.39917
859.0 0.001164 521.89697 841.87152
864.0 0.001157 521.90314 843.99738
867.0 0.001153 521.90930 845.75604
864.0 0.001157 521.91547 847.12909
862.0 0.001160 521.92157 848.10156
849.0 0.001178 521.92773 848.66119
844.0 0.001185 521.93384 848.80005
841.0 0.001189 521.93988 848.51318
846.0 0.001182 521.94598 847.79980
848.0 0.001179 521.95203 846.66339
848.0 0.001179 521.95807 845.11096
846.0 0.001182 521.96405 843.15314
837.0 0.001195 521.97003 840.80414
828.0 0.001208 521.97601 838.08130
829.0 0.001206 521.98199 835.00476
818.0 0.001222 521.98792 831.59692
804.0 0.001244 521.99384 827.88232
802.0 0.001247 521.99976 823.88660
806.0 0.001241 522.00568 819.63672
796.0 0.001256 522.01154 815.15997
791.0 0.001264 522.01740 810.48370
775.0 0.001290 522.02319 805.63562
771.0 0.001297 522.02905 800.64203
771.0 0.001297 522.03485 795.52887
764.0 0.001309 522.04065 790.32074
755.0 0.001325 522.04639 785.04126
740.0 0.001351 522.05212 779.71222
732.0 0.001366 522.05786 774.35413
727.0 0.001376 522.06360 768.98572
721.0 0.001387 522.06927 763.62421
718.0 0.001393 522.07495 758.28497
719.0 0.001391 522.08063 752.98218
708.0 0.001412 522.08624 747.72809
703.0 0.001422 522.09186 742.53375
702.0 0.001425 522.09747 737.40851
696.0 0.001437 522.10309 732.36041
697.0 0.001435 522.10864 727.39685
693.0 0.001443 522.11420 722.52325
690.0 0.001449 522.11975 717.74475
685.0 0.001460 522.12524 713.06494
680.0 0.001471 522.13074 708.48712
677.0 0.001477 522.13623 704.01343
666.0 0.001502 522.14172 699.64539
668.0 0.001497 522.14716 695.38403
668.0 0.001497 522.15259 691.22980
648.0 0.001543 522.15802 687.18292
648.0 0.001543 522.16339 683.24261
645.0 0.001550 522.16876 679.40826
643.0 0.001555 522.17413 675.67859
639.0 0.001565 522.17944 672.05273
642.0 0.001558 522.18481 668.52875
638.0 0.001567 522.19006 665.10516
632.0 0.001582 522.19537 661.77991
634.0 0.001577 522.20062 658.55103
629.0 0.001590 522.20587 655.41632
630.0 0.001587 522.21112 652.37396
632.0 0.001582 522.21631 649.42139
622.0 0.001608 522.22156 646.55634
615.0 0.001626 522.22668 643.77667
616.0 0.001623 522.23187 641.08008
618.0 0.001618 522.23700 638.46399
608.0 0.001645 522.24213 635.92639
615.0 0.001626 522.24725 633.46472
609.0 0.001642 522.25232 631.07709
611.0 0.001637 522.25739 628.76105
603.0 0.001658 522.26245 626.51428
602.0 0.001661 522.26746 624.33459
598.0 0.001672 522.27252 622.22015
591.0 0.001692 522.27747 620.16858
594.0 0.001684 522.28247 618.17804
596.0 0.001678 522.28741 616.24622
595.0 0.001681 522.29236 614.37152
595.0 0.001681 522.29730 612.55194
589.0 0.001698 522.30219 610.78558
586.0 0.001706 522.30713 609.07068
587.0 0.001704 522.31195 607.40540
588.0 0.001701 522.31683 605.78802
583.0 0.001715 522.32166 604.21729
581.0 0.001721 522.32648 602.69110
572.0 0.001748 522.33130 601.20825
576.0 0.001736 522.33606 599.76703
580.0 0.001724 522.34082 598.36615
584.0 0.001712 522.34558 597.00415
580.0 0.001724 522.35028 595.67975
580.0 0.001724 522.35498 594.39148
581.0 0.001721 522.35968 593.13824
576.0 0.001736 522.36432 591.91870
578.0 0.001730 522.36902 590.73187
578.0 0.001730 522.37366 589.57660
577.0 0.001733 522.37823 588.45160
574.0 0.001742 522.38287 587.35590
577.0 0.001733 522.38745 586.28857
574.0 0.001742 522.39197 585.24866
571.0 0.001751 522.39655 584.23511
575.0 0.001739 522.40106 583.24713
572.0 0.001748 522.40558 582.28387
571.0 0.001751 522.41003 581.34454
569.0 0.001757 522.41449 580.42810
573.0 0.001745 522.41895 579.53412
570.0 0.001754 522.42340 578.66162
568.0 0.001761 522.42780 577.80988
567.0 0.001764 522.43219 576.97839
565.0 0.001770 522.43658 576.16644
567.0 0.001764 522.44098 575.37341
561.0 0.001783 522.44531 574.59851
557.0 0.001795 522.44965 573.84149
560.0 0.001786 522.45392 573.10150
560.0 0.001786 522.45819 572.37823
564.0 0.001773 522.46246 571.67108
556.0 0.001799 522.46674 570.97949
561.0 0.001783 522.47095 570.30316
563.0 0.001776 522.47516 569.64154
562.0 0.001779 522.47937 568.99402
558.0 0.001792 522.48352 568.36029
563.0 0.001776 522.48767 567.74011
559.0 0.001789 522.49182 567.13306
560.0 0.001786 522.49597 566.53857
551.0 0.001815 522.50006 565.95636
550.0 0.001818 522.50415 565.38599
554.0 0.001805 522.50818 564.82751
553.0 0.001808 522.51227 564.28015
556.0 0.001799 522.51630 563.74390
554.0 0.001805 522.52026 563.21832
555.0 0.001802 522.52429 562.70294
553.0 0.001808 522.52826 562.19794
552.0 0.001812 522.53223 561.70270
551.0 0.001815 522.53613 561.21710
557.0 0.001795 522.54004 560.74078
560.0 0.001786 522.54395 560.27350
551.0 0.001815 522.54785 559.81519
553.0 0.001808 522.55170 559.36548
555.0 0.001802 522.55554 558.92419
552.0 0.001812 522.55939 558.49121
548.0 0.001825 522.56317 558.06616
549.0 0.001821 522.56696 557.64893
548.0 0.001825 522.57074 557.23938
548.0 0.001825 522.57446 556.83722
549.0 0.001821 522.57819 556.44226
551.0 0.001815 522.58191 556.05444
550.0 0.001818 522.58563 555.67352
546.0 0.001832 522.58929 555.29944
543.0 0.001842 522.59296 554.93182
546.0 0.001832 522.59662 554.57062
551.0 0.001815 522.60022 554.21582
549.0 0.001821 522.60382 553.86713
547.0 0.001828 522.60742 553.52454
549.0 0.001821 522.61096 553.18756
549.0 0.001821 522.61450 552.85651
546.0 0.001832 522.61804 552.53113
544.0 0.001838 522.62158 552.21106
546.0 0.001832 522.62506 551.89642
547.0 0.001828 522.62854 551.58710
546.0 0.001832 522.63196 551.28278
552.0 0.001812 522.63538 550.98346
553.0 0.001808 522.63879 550.68915
549.0 0.001821 522.64221 550.39966
544.0 0.001838 522.64557 550.11487
539.0 0.001855 522.64899 549.83453
540.0 0.001852 522.65228 549.55878
545.0 0.001835 522.65564 549.28748
542.0 0.001845 522.65894 549.02039
542.0 0.001845 522.66223 548.75763
540.0 0.001852 522.66547 548.49890
540.0 0.001852 522.66870 548.24426
544.0 0.001838 522.67194 547.99371
548.0 0.001825 522.67517 547.74683
548.0 0.001825 522.67834 547.50397
542.0 0.001845 522.68152 547.26471
541.0 0.001848 522.68469 547.02911
544.0 0.001838 522.68781 546.79718
548.0 0.001825 522.69092 546.56873
545.0 0.001835 522.69403 546.34357
544.0 0.001838 522.69714 546.12195
542.0 0.001845 522.70020 545.90363
543.0 0.001842 522.70325 545.68860
545.0 0.001835 522.70624 545.47662
546.0 0.001832 522.70929 545.26776
540.0 0.001852 522.71222 545.06201
540.0 0.001852 522.71521 544.85913
542.0 0.001845 522.71814 544.65942
542.0 0.001845 522.72107 544.46259
540.0 0.001852 522.72400 544.26831
539.0 0.001855 522.72693 544.07703
542.0 0.001845 522.72980 543.88843
541.0 0.001848 522.73260 543.70251
535.0 0.001869 522.73547 543.51917
536.0 0.001866 522.73828 543.34143
538.0 0.001859 522.74109 543.16321
536.0 0.001866 522.74390 542.98755
543.0 0.001842 522.74664 542.81427
544.0 0.001838 522.74939 542.64343
541.0 0.001848 522.75208 542.47491
544.0 0.001838 522.75482 542.30853
539.0 0.001855 522.75751 542.14459
543.0 0.001842 522.76013 541.98297
540.0 0.001852 522.76282 541.82330
539.0 0.001855 522.76544 541.66589
540.0 0.001852 522.76807 541.51068
543.0 0.001842 522.77063 541.35748
542.0 0.001845 522.77319 541.20624
540.0 0.001852 522.77576 541.05707
540.0 0.001852 522.77832 540.90985
543.0 0.001842 522.78082 540.76447
540.0 0.001852 522.78333 540.62109
539.0 0.001855 522.78583 540.47955
536.0 0.001866 522.78827 540.33990
533.0 0.001876 522.79071 540.20203
535.0 0.001869 522.79315 540.06580
538.0 0.001859 522.79553 539.93152
537.0 0.001862 522.79791 539.79877
537.0 0.001862 522.80029 539.66785
538.0 0.001859 522.80267 539.53851
542.0 0.001845 522.80499 539.41064
539.0 0.001855 522.80731 539.28467
543.0 0.001842 522.80957 539.16028
543.0 0.001842 522.81189 539.03729
540.0 0.001852 522.81415 538.91577
540.0 0.001852 522.81635 538.79596
539.0 0.001855 522.81860 538.67743
537.0 0.001862 522.82080 538.56030
537.0 0.001862 522.82294 538.44476
536.0 0.001866 522.82513 538.33051
544.0 0.001838 522.82727 538.21777
541.0 0.001848 522.82941 538.10620
535.0 0.001869 522.83148 537.99609
542.0 0.001845 522.83362 537.88739
542.0 0.001845 522.83563 537.77997
541.0 0.001848 522.83771 537.67365
537.0 0.001862 522.83972 537.56866
534.0 0.001873 522.84174 537.46497
538.0 0.001859 522.84375 537.36243
539.0 0.001855 522.84570 537.26111
545.0 0.001835 522.84766 537.16095
537.0 0.001862 522.84961 537.06189
541.0 0.001848 522.85150 536.96417
543.0 0.001842 522.85345 536.86743
541.0 0.001848 522.85529 536.77179
537.0 0.001862 522.85718 536.67737
537.0 0.001862 522.85901 536.58398
540.0 0.001852 522.86084 536.49158
539.0 0.001855 522.86261 536.40033
535.0 0.001869 522.86444 536.31000
540.0 0.001852 522.86621 536.22070
541.0 0.001848 522.86792 536.13239
539.0 0.001855 522.86969 536.04510
538.0 0.001859 522.87140 535.95874
539.0 0.001855 522.87311 535.87341
539.0 0.001855 522.87476 535.78900
541.0 0.001848 522.87640 535.70551
537.0 0.001862 522.87805 535.62299
531.0 0.001883 522.87964 535.54114
537.0 0.001862 522.88129 535.46039
540.0 0.001852 522.88281 535.38055
537.0 0.001862 522.88440 535.30151
541.0 0.001848 522.88593 535.22327
539.0 0.001855 522.88745 535.14581
540.0 0.001852 522.88898 535.06927
540.0 0.001852 522.89044 534.99359
538.0 0.001859 522.89191 534.91858
540.0 0.001852 522.89337 534.84448
539.0 0.001855 522.89478 534.77124
535.0 0.001869 522.89624 534.69855
533.0 0.001876 522.89758 534.62665
542.0 0.001845 522.89899 534.55560
538.0 0.001859 522.90033 534.48529
539.0 0.001855 522.90167 534.41565
535.0 0.001869 522.90302 534.34674
533.0 0.001876 522.90430 534.27856
532.0 0.001880 522.90558 534.21112
530.0 0.001887 522.90686 534.14435
535.0 0.001869 522.90808 534.07819
541.0 0.001848 522.90930 534.01270
541.0 0.001848 522.91052 533.94788
537.0 0.001862 522.91168 533.88373
538.0 0.001859 522.91284 533.82031
539.0 0.001855 522.91400 533.75745
540.0 0.001852 522.91516 533.69519
535.0 0.001869 522.91626 533.63354
534.0 0.001873 522.91736 533.57269
536.0 0.001866 522.91840 533.51221
535.0 0.001869 522.91949 533.45245
532.0 0.001880 522.92053 533.39325
534.0 0.001873 522.92151 533.33453
539.0 0.001855 522.92255 533.27643
540.0 0.001852 522.92352 533.21893
537.0 0.001862 522.92444 533.16205
536.0 0.001866 522.92542 533.10559
537.0 0.001862 522.92633 533.04974
536.0 0.001866 522.92725 532.99445
534.0 0.001873 522.92810 532.93964
533.0 0.001876 522.92902 532.88544
535.0 0.001869 522.92981 532.83154
535.0 0.001869 522.93066 532.77838
536.0 0.001866 522.93146 532.72559
538.0 0.001859 522.93225 532.67328
540.0 0.001852 522.93304 532.62158
544.0 0.001838 522.93378 532.57025
541.0 0.001848 522.93457 532.51941
543.0 0.001842 522.93524 532.46918
539.0 0.001855 522.93597 532.41931
538.0 0.001859 522.93665 532.36987
539.0 0.001855 522.93732 532.32092
543.0 0.001842 522.93793 532.27234
545.0 0.001835 522.93860 532.22443
545.0 0.001835 522.93915 532.17670
546.0 0.001832 522.93976 532.12952
543.0 0.001842 522.94031 532.08276
543.0 0.001842 522.94086 532.03644
541.0 0.001848 522.94141 531.99066
544.0 0.001838 522.94196 531.94507
539.0 0.001855 522.94244 531.89990
541.0 0.001848 522.94287 531.85529
543.0 0.001842 522.94336 531.81097
544.0 0.001838 522.94379 531.76709
539.0 0.001855 522.94421 531.72345
536.0 0.001866 522.94464 531.68042
535.0 0.001869 522.94501 531.63763
537.0 0.001862 522.94537 531.59521
536.0 0.001866 522.94574 531.55322
540.0 0.001852 522.94604 531.51154
537.0 0.001862 522.94635 531.47021
533.0 0.001876 522.94666 531.42926
534.0 0.001873 522.94690 531.38867
539.0 0.001855 522.94714 531.34845
535.0 0.001869 522.94739 531.30859
534.0 0.001873 522.94763 531.26904
538.0 0.001859 522.94781 531.22974
534.0 0.001873 522.94800 531.19086
534.0 0.001873 522.94812 531.15240
541.0 0.001848 522.94830 531.11414
540.0 0.001852 522.94843 531.07623
539.0 0.001855 522.94849 531.03857
541.0 0.001848 522.94861 531.00128
539.0 0.001855 522.94867 530.96429
536.0 0.001866 522.94873 530.92773
534.0 0.001873 522.94873 530.89124
533.0 0.001876 522.94873 530.85541
535.0 0.001869 522.94873 530.81958
532.0 0.001880 522.94873 530.78412
538.0 0.001859 522.94867 530.74890
537.0 0.001862 522.94861 530.71393
538.0 0.001859 522.94855 530.67938
537.0 0.001862 522.94843 530.64502
538.0 0.001859 522.94830 530.61108
530.0 0.001887 522.94818 530.57727
530.0 0.001887 522.94806 530.54370
535.0 0.001869 522.94788 530.51050
535.0 0.001869 522.94769 530.47742
539.0 0.001855 522.94745 530.44476
534.0 0.001873 522.94720 530.41235
535.0 0.001869 522.94696 530.38013
536.0 0.001866 522.94672 530.34833
532.0 0.001880 522.94641 530.31647
532.0 0.001880 522.94611 530.28510
532.0 0.001880 522.94580 530.25385
538.0 0.001859 522.94550 530.22290
538.0 0.001859 522.94513 530.19220
534.0 0.001873 522.94476 530.16187
536.0 0.001866 522.94434 530.13153
530.0 0.001887 522.94391 530.10150
536.0 0.001866 522.94348 530.07178
535.0 0.001869 522.94305 530.04224
537.0 0.001862 522.94257 530.01288
535.0 0.001869 522.94208 529.98383
525.0 0.001905 522.94159 529.95502
529.0 0.001890 522.94104 529.92627
528.0 0.001894 522.94055 529.89789
531.0 0.001883 522.93994 529.86963
528.0 0.001894 522.93939 529.84161
527.0 0.001898 522.93878 529.81390
527.0 0.001898 522.93817 529.78625
528.0 0.001894 522.93756 529.75891
532.0 0.001880 522.93689 529.73163
527.0 0.001898 522.93622 529.70459
529.0 0.001890 522.93555 529.67786
531.0 0.001883 522.93481 529.65125
529.0 0.001890 522.93408 529.62482
531.0 0.001883 522.93335 529.59863
531.0 0.001883 522.93262 529.57275
532.0 0.001880 522.93182 529.54681
535.0 0.001869 522.93103 529.52124
533.0 0.001876 522.93024 529.49573
535.0 0.001869 522.92938 529.50818
532.0 0.001880 522.92853 529.48334
534.0 0.001873 522.92767 529.45844
532.0 0.001880 522.92676 529.43372
526.0 0.001901 522.92584 529.40930
528.0 0.001894 522.92493 529.38507
528.0 0.001894 522.92401 529.36096
523.0 0.001912 522.92303 529.33704
524.0 0.001908 522.92206 529.31317
534.0 0.001873 522.92102 529.28955
534.0 0.001873 522.92004 529.26630
532.0 0.001880 522.91901 529.24286
529.0 0.001890 522.91797 529.21985
531.0 0.001883 522.91687 529.19684
535.0 0.001869 522.91577 529.17407
529.0 0.001890 522.91467 529.15149
533.0 0.001876 522.91357 529.12903
533.0 0.001876 522.91241 529.10669
525.0 0.001905 522.91125 529.08453
524.0 0.001908 522.91010 529.06250
531.0 0.001883 522.90887 529.04059
531.0 0.001883 522.90765 529.01892
527.0 0.001898 522.90643 528.99738
529.0 0.001890 522.90515 528.97595
533.0 0.001876 522.90393 528.95465
534.0 0.001873 522.90265 528.93347
525.0 0.001905 522.90131 528.91248
527.0 0.001898 522.89996 528.89166
529.0 0.001890 522.89862 528.87097
533.0 0.001876 522.89728 528.85040
531.0 0.001883 522.89594 528.83002
527.0 0.001898 522.89453 528.80981
530.0 0.001887 522.89313 528.78955
534.0 0.001873 522.89166 528.76953
533.0 0.001876 522.89020 528.74969
528.0 0.001894 522.88873 528.72998
535.0 0.001869 522.88727 528.71039
539.0 0.001855 522.88574 528.69086
529.0 0.001890 522.88422 528.67145
528.0 0.001894 522.88269 528.65216
531.0 0.001883 522.88116 528.63306
527.0 0.001898 522.87958 528.61414
528.0 0.001894 522.87799 528.59515
527.0 0.001898 522.87634 528.57648
525.0 0.001905 522.87476 528.55786
531.0 0.001883 522.87311 528.53937
536.0 0.001866 522.87146 528.52094
532.0 0.001880 522.86975 528.50269
535.0 0.001869 522.86804 528.48456
533.0 0.001876 522.86633 528.46649
530.0 0.001887 522.86462 528.44861
531.0 0.001883 522.86285 528.43085
535.0 0.001869 522.86108 528.41315
539.0 0.001855 522.85925 528.39539
535.0 0.001869 522.85748 528.37799
532.0 0.001880 522.85565 528.36066
535.0 0.001869 522.85382 528.34351
534.0 0.001873 522.85193 528.32617
535.0 0.001869 522.85010 528.30920
533.0 0.001876 522.84814 528.29218
531.0 0.001883 522.84625 528.27557
533.0 0.001876 522.84430 528.25867
535.0 0.001869 522.84241 528.24207
532.0 0.001880 522.84039 528.22559
535.0 0.001869 522.83844 528.20917
538.0 0.001859 522.83643 528.19281
534.0 0.001873 522.83441 528.17670
532.0 0.001880 522.83240 528.16040
530.0 0.001887 522.83032 528.14453
530.0 0.001887 522.82825 528.12854
533.0 0.001876 522.82617 528.11273
532.0 0.001880 522.82404 528.09705
534.0 0.001873 522.82190 528.08136
536.0 0.001866 522.81976 528.06598
535.0 0.001869 522.81763 528.05042
530.0 0.001887 522.81543 528.03516
534.0 0.001873 522.81323 528.01965
536.0 0.001866 522.81104 528.00458
541.0 0.001848 522.80878 527.98950
537.0 0.001862 522.80658 527.97461
533.0 0.001876 522.80426 527.95972
534.0 0.001873 522.80200 527.94495
534.0 0.001873 522.79968 527.93011
537.0 0.001862 522.79736 527.91553
542.0 0.001845 522.79504 527.90094
540.0 0.001852 522.79266 527.88660
535.0 0.001869 522.79034 527.87225
529.0 0.001890 522.78796 527.85791
533.0 0.001876 522.78552 527.84369
534.0 0.001873 522.78308 527.82959
536.0 0.001866 522.78064 527.81555
533.0 0.001876 522.77820 527.80151
534.0 0.001873 522.77576 527.78772
535.0 0.001869 522.77325 527.77393
531.0 0.001883 522.77075 527.76019
529.0 0.001890 522.76819 527.74652
527.0 0.001898 522.76569 527.73285
530.0 0.001887 522.76312 527.71948
531.0 0.001883 522.76050 527.70612
534.0 0.001873 522.75793 527.69269
532.0 0.001880 522.75531 527.67957
532.0 0.001880 522.75269 527.66632
532.0 0.001880 522.75000 527.65320
531.0 0.001883 522.74738 527.64020
531.0 0.001883 522.74469 527.62714
524.0 0.001908 522.74200 527.61444
527.0 0.001898 522.73926 527.60156
527.0 0.001898 522.73651 527.58887
529.0 0.001890 522.73376 527.57617
533.0 0.001876 522.73102 527.56372
532.0 0.001880 522.72821 527.55121
528.0 0.001894 522.72540 527.53864
528.0 0.001894 522.72260 527.52631
526.0 0.001901 522.71973 527.51398
529.0 0.001890 522.71692 527.50177
524.0 0.001908 522.71405 527.48962
530.0 0.001887 522.71112 527.47748
530.0 0.001887 522.70825 527.46558
527.0 0.001898 522.70532 527.45349
526.0 0.001901 522.70239 527.44165
529.0 0.001890 522.69940 527.42981
533.0 0.001876 522.69641 527.41803
533.0 0.001876 522.69342 527.40637
528.0 0.001894 522.69043 527.39471
529.0 0.001890 522.68744 527.38312
534.0 0.001873 522.68439 527.37164
541.0 0.001848 522.68134 527.36017
537.0 0.001862 522.67822 527.34882
530.0 0.001887 522.67517 527.33752
529.0 0.001890 522.67206 527.32623
529.0 0.001890 522.66888 527.31500
529.0 0.001890 522.66577 527.30396
525.0 0.001905 522.66260 527.29291
526.0 0.001901 522.65942 527.28210
529.0 0.001890 522.65625 527.27094
527.0 0.001898 522.65302 527.26025
531.0 0.001883 522.64978 527.24933
531.0 0.001883 522.64655 527.23865
532.0 0.001880 522.64325 527.22803
529.0 0.001890 522.64001 527.21729
530.0 0.001887 522.63672 527.20679
531.0 0.001883 522.63336 527.19623
534.0 0.001873 522.63007 527.18579
523.0 0.001912 522.62671 527.17529
522.0 0.001916 522.62335 527.16504
530.0 0.001887 522.62000 527.15472
526.0 0.001901 522.61658 527.14459
527.0 0.001898 522.61316 527.13434
528.0 0.001894 522.60974 527.12421
526.0 0.001901 522.60626 527.11414
523.0 0.001912 522.60284 527.10413
521.0 0.001919 522.59937 527.09424
531.0 0.001883 522.59583 527.08435
531.0 0.001883 522.59235 527.07446
529.0 0.001890 522.58881 527.06464
533.0 0.001876 522.58527 527.05487
530.0 0.001887 522.58167 527.04541
529.0 0.001890 522.57813 527.03564
527.0 0.001898 522.57452 527.02618
528.0 0.001894 522.57092 527.01660
525.0 0.001905 522.56726 527.00726
523.0 0.001912 522.56366 526.99774
521.0 0.001919 522.56000 526.98840
520.0 0.001923 522.55627 526.97913
518.0 0.001931 522.55261 526.96985
523.0 0.001912 522.54889 526.96075
518.0 0.001931 522.54517 526.95154
522.0 0.001916 522.54138 526.94244
521.0 0.001919 522.53766 526.93329
519.0 0.001927 522.53387 526.92444
523.0 0.001912 522.53009 526.91541
520.0 0.001923 522.52625 526.90656
518.0 0.001931 522.52246 526.89764
520.0 0.001923 522.51862 526.88885
518.0 0.001931 522.51477 526.88007
520.0 0.001923 522.51086 526.87152
516.0 0.001938 522.50696 526.86285
523.0 0.001912 522.50305 526.85437
523.0 0.001912 522.49915 526.84589
519.0 0.001927 522.49518 526.83734
522.0 0.001916 522.49127 526.82898
523.0 0.001912 522.48724 526.82050
518.0 0.001931 522.48328 526.81207
523.0 0.001912 522.47931 526.80377
526.0 0.001901 522.47528 526.79553
527.0 0.001898 522.47119 526.78735
531.0 0.001883 522.46716 526.77930
530.0 0.001887 522.46307 526.77106
528.0 0.001894 522.45898 526.76294
530.0 0.001887 522.45490 526.75507
524.0 0.001908 522.45081 526.74707
526.0 0.001901 522.44666 526.73926
525.0 0.001905 522.44250 526.73138
524.0 0.001908 522.43835 526.72351
522.0 0.001916 522.43414 526.71570
521.0 0.001919 522.42993 526.70795
522.0 0.001916 522.42572 526.70026
521.0 0.001919 522.42151 526.69263
520.0 0.001923 522.41724 526.68506
522.0 0.001916 522.41302 526.67755
527.0 0.001898 522.40869 526.67004
529.0 0.001890 522.40442 526.66254
525.0 0.001905 522.40015 526.65521
520.0 0.001923 522.39581 526.64783
523.0 0.001912 522.39148 526.64056
526.0 0.001901 522.38708 526.63330
525.0 0.001905 522.38269 526.62610
520.0 0.001923 522.37836 526.61884
523.0 0.001912 522.37390 526.61169
520.0 0.001923 522.36951 526.60455
518.0 0.001931 522.36505 526.59753
519.0 0.001927 522.36060 526.59058
521.0 0.001919 522.35614 526.58368
523.0 0.001912 522.35168 526.57678
523.0 0.001912 522.34717 526.56995
522.0 0.001916 522.34265 526.56305
526.0 0.001901 522.33813 526.55615
525.0 0.001905 522.33356 526.54962
525.0 0.001905 522.32898 526.54279
520.0 0.001923 522.32440 526.53625
523.0 0.001912 522.31982 526.52954
519.0 0.001927 522.31525 526.52307
519.0 0.001927 522.31061 526.51654
519.0 0.001927 522.30597 526.51013
517.0 0.001934 522.30127 526.50378
521.0 0.001919 522.29663 526.49731
520.0 0.001923 522.29193 526.49109
523.0 0.001912 522.28723 526.48462
525.0 0.001905 522.28253 526.47852
523.0 0.001912 522.27777 526.47229
525.0 0.001905 522.27301 526.46606
517.0 0.001934 522.26825 526.46002
522.0 0.001916 522.26349 526.45404
522.0 0.001916 522.25867 526.44794
522.0 0.001916 522.25391 526.44189
523.0 0.001912 522.24902 526.43604
524.0 0.001908 522.24420 526.43018
524.0 0.001908 522.23938 526.42426
522.0 0.001916 522.23450 526.41846
518.0 0.001931 522.22961 526.41254
518.0 0.001931 522.22467 526.40704
523.0 0.001912 522.21979 526.40125
528.0 0.001894 522.21484 526.39575
522.0 0.001916 522.20990 526.39014
524.0 0.001908 522.20490 526.38464
525.0 0.001905 522.19995 526.37903
518.0 0.001931 522.19495 526.37372
517.0 0.001934 522.18994 526.36816
516.0 0.001938 522.18494 526.36279
520.0 0.001923 522.17987 526.35760
521.0 0.001919 522.17480 526.35229
519.0 0.001927 522.16974 526.34692
527.0 0.001898 522.16467 526.34180
525.0 0.001905 522.15955 526.33667
522.0 0.001916 522.15442 526.33160
517.0 0.001934 522.14929 526.32648
519.0 0.001927 522.14417 526.32147
522.0 0.001916 522.13898 526.31653
522.0 0.001916 522.13385 526.31146
524.0 0.001908 522.12866 526.30676
528.0 0.001894 522.12341 526.30188
524.0 0.001908 522.11823 526.29706
527.0 0.001898 522.11298 526.29230
527.0 0.001898 522.10773 526.28766
527.0 0.001898 522.10248 526.28296
526.0 0.001901 522.09717 526.27844
522.0 0.001916 522.09186 526.27380
523.0 0.001912 522.08655 526.26923
521.0 0.001919 522.08124 526.26477
524.0 0.001908 522.07593 526.26031
522.0 0.001916 522.07056 526.25592
521.0 0.001919 522.06519 526.25165
523.0 0.001912 522.05981 526.24731
522.0 0.001916 522.05438 526.24316
522.0 0.001916 522.04901 526.23877
522.0 0.001916 522.04358 526.23468
523.0 0.001912 522.03815 526.23047
527.0 0.001898 522.03265 526.22656
527.0 0.001898 522.02722 526.22241
522.0 0.001916 522.02173 526.21857
526.0 0.001901 522.01624 526.21460
525.0 0.001905 522.01068 526.21075
524.0 0.001908 522.00513 526.20685
522.0 0.001916 521.99963 526.20300
524.0 0.001908 521.99408 526.19928
525.0 0.001905 521.98846 526.19568
528.0 0.001894 521.98291 526.19202
524.0 0.001908 521.97729 526.18835
525.0 0.001905 521.97168 526.18481
521.0 0.001919 521.96606 526.18134
520.0 0.001923 521.96039 526.17780
521.0 0.001919 521.95471 526.17444
521.0 0.001919 521.94904 526.17108
529.0 0.001890 521.94336 526.16779
530.0 0.001887 521.93768 526.16443
525.0 0.001905 521.93195 526.16119
529.0 0.001890 521.92621 526.15796
527.0 0.001898 521.92047 526.15497
526.0 0.001901 521.91473 526.15179
520.0 0.001923 521.90894 526.14886
522.0 0.001916 521.90314 526.14581
528.0 0.001894 521.89734 526.14294
525.0 0.001905 521.89154 526.14001
518.0 0.001931 521.88568 526.13727
519.0 0.001927 521.87982 526.13452
523.0 0.001912 521.87396 526.13177
522.0 0.001916 521.86810 526.12915
518.0 0.001931 521.86224 526.12640
518.0 0.001931 521.85632 526.12384
523.0 0.001912 521.85040 526.12134
523.0 0.001912 521.84448 526.11877
524.0 0.001908 521.83850 526.11639
526.0 0.001901 521.83258 526.11401
532.0 0.001880 521.82660 526.11163
525.0 0.001905 521.82062 526.10938
525.0 0.001905 521.81458 526.10712
528.0 0.001894 521.80859 526.10498
527.0 0.001898 521.80255 526.10284
528.0 0.001894 521.79651 526.10089
526.0 0.001901 521.79047 526.09875
527.0 0.001898 521.78436 526.09680
525.0 0.001905 521.77832 526.09491
522.0 0.001916 521.77222 526.09314
520.0 0.001923 521.76611 526.09143
526.0 0.001901 521.75995 526.08972
522.0 0.001916 521.75385 526.08783
522.0 0.001916 521.74768 526.08624
520.0 0.001923 521.74152 526.08466
519.0 0.001927 521.73535 526.08319
526.0 0.001901 521.72913 526.08173
523.0 0.001912 521.72296 526.08020
518.0 0.001931 521.71674 526.07898
520.0 0.001923 521.71045 526.07758
523.0 0.001912 521.70422 526.07642
522.0 0.001916 521.69794 526.07520
522.0 0.001916 521.69171 526.07397
525.0 0.001905 521.68542 526.07294
524.0 0.001908 521.67908 526.07196
519.0 0.001927 521.67279 526.07092
520.0 0.001923 521.66644 526.07013
525.0 0.001905 521.66010 526.06915
522.0 0.001916 521.65375 526.06854
528.0 0.001894 521.64740 526.06781
529.0 0.001890 521.64099 526.06708
525.0 0.001905 521.63458 526.06653
522.0 0.001916 521.62817 526.06604
527.0 0.001898 521.62177 526.06549
526.0 0.001901 521.61536 526.06519
530.0 0.001887 521.60889 526.06470
533.0 0.001876 521.60242 526.06445
524.0 0.001908 521.59595 526.06415
522.0 0.001916 521.58942 526.06396
526.0 0.001901 521.58295 526.06390
525.0 0.001905 521.57642 526.06384
522.0 0.001916 521.56989 526.06403
516.0 0.001938 521.56335 526.06390
519.0 0.001927 521.55682 526.06409
522.0 0.001916 521.55023 526.06421
522.0 0.001916 521.54364 526.06464
530.0 0.001887 521.53705 526.06506
530.0 0.001887 521.53046 526.06549
524.0 0.001908 521.52380 526.06586
517.0 0.001934 521.51721 526.06647
513.0 0.001949 521.51056 526.06683
516.0 0.001938 521.50385 526.06775
521.0 0.001919 521.49719 526.06848
524.0 0.001908 521.49054 526.06927
525.0 0.001905 521.48383 526.07019
525.0 0.001905 521.47711 526.07104
523.0 0.001912 521.47040 526.07214
520.0 0.001923 521.46362 526.07330
521.0 0.001919 521.45691 526.07428
525.0 0.001905 521.45013 526.07550
527.0 0.001898 521.44336 526.18158
524.0 0.001908 521.43658 526.18304
524.0 0.001908 521.42975 526.18481
521.0 0.001919 521.42297 526.18640
526.0 0.001901 521.41614 526.18835
526.0 0.001901 521.40930 526.19019
521.0 0.001919 521.40240 526.19208
523.0 0.001912 521.39557 526.19409
519.0 0.001927 521.38867 526.19623
519.0 0.001927 521.38177 526.19843
516.0 0.001938 521.37488 526.20068
516.0 0.001938 521.36798 526.20294
523.0 0.001912 521.36102 526.20532
522.0 0.001916 521.35413 526.20776
522.0 0.001916 521.34717 526.21039
522.0 0.001916 521.34015 526.21301
517.0 0.001934 521.33319 526.21558
519.0 0.001927 521.32623 526.21851
518.0 0.001931 521.31921 526.22144
520.0 0.001923 521.31219 526.22430
524.0 0.001908 521.30518 526.22736
524.0 0.001908 521.29810 526.23053
526.0 0.001901 521.29108 526.23376
531.0 0.001883 521.28400 526.23706
520.0 0.001923 521.27692 526.24048
523.0 0.001912 521.26984 526.24390
521.0 0.001919 521.26276 526.24744
522.0 0.001916 521.25562 526.25110
521.0 0.001919 521.24847 526.25476
522.0 0.001916 521.24133 526.25867
526.0 0.001901 521.23419 526.26245
531.0 0.001883 521.22705 526.26648
526.0 0.001901 521.21985 526.27057
519.0 0.001927 521.21265 526.27466
521.0 0.001919 521.20544 526.27893
522.0 0.001916 521.19824 526.28333
521.0 0.001919 521.19104 526.28766
523.0 0.001912 521.18378 526.29230
525.0 0.001905 521.17657 526.29681
520.0 0.001923 521.16931 526.30157
520.0 0.001923 521.16205 526.30652
517.0 0.001934 521.15472 526.31140
521.0 0.001919 521.14746 526.31641
518.0 0.001931 521.14014 526.32147
516.0 0.001938 521.13281 526.32672
517.0 0.001934 521.12549 526.33197
521.0 0.001919 521.11816 526.33728
522.0 0.001916 521.11078 526.34277
524.0 0.001908 521.10339 526.34845
527.0 0.001898 521.09607 526.35406
526.0 0.001901 521.08868 526.35992
524.0 0.001908 521.08124 526.36591
522.0 0.001916 521.07385 526.37183
526.0 0.001901 521.06641 526.37799
525.0 0.001905 521.05896 526.38409
525.0 0.001905 521.05151 526.39032
526.0 0.001901 521.04407 526.39703
526.0 0.001901 521.03662 526.40332
528.0 0.001894 521.02911 526.41003
526.0 0.001901 521.02161 526.41687
524.0 0.001908 521.01410 526.42371
523.0 0.001912 521.00659 526.43066
521.0 0.001919 520.99908 526.43768
522.0 0.001916 520.99152 526.44476
522.0 0.001916 520.98395 526.45227
517.0 0.001934 520.97638 526.45972
517.0 0.001934 520.96881 526.46698
523.0 0.001912 520.96124 526.47485
521.0 0.001919 520.95367 526.48248
518.0 0.001931 520.94604 526.49036
520.0 0.001923 520.93842 526.49841
522.0 0.001916 520.93079 526.50647
530.0 0.001887 520.92316 526.51465
528.0 0.001894 520.91547 526.52325
522.0 0.001916 520.90784 526.53168
528.0 0.001894 520.90015 526.54022
524.0 0.001908 520.89246 526.54907
522.0 0.001916 520.88477 526.55780
522.0 0.001916 520.87708 526.56683
530.0 0.001887 520.86932 526.57599
534.0 0.001873 520.86157 526.58502
531.0 0.001883 520.85388 526.59448
531.0 0.001883 520.84607 526.60394
524.0 0.001908 520.83832 526.61359
521.0 0.001919 520.83057 526.62335
526.0 0.001901 520.82275 526.63324
526.0 0.001901 520.81494 526.64319
525.0 0.001905 520.80713 526.65344
525.0 0.001905 520.79932 526.66370
523.0 0.001912 520.79150 526.67426
519.0 0.001927 520.78369 526.68475
522.0 0.001916 520.77582 526.69537
522.0 0.001916 520.76794 526.70636
524.0 0.001908 520.76007 526.71741
522.0 0.001916 520.75220 526.72839
525.0 0.001905 520.74426 526.73975
522.0 0.001916 520.73639 526.75110
524.0 0.001908 520.72845 526.76263
516.0 0.001938 520.72052 526.77435
522.0 0.001916 520.71259 526.78632
524.0 0.001908 520.70465 526.79840
525.0 0.001905 520.69672 526.81042
523.0 0.001912 520.68872 526.82281
524.0 0.001908 520.68073 526.83527
524.0 0.001908 520.67273 526.84778
523.0 0.001912 520.66473 526.86066
524.0 0.001908 520.65674 526.87360
523.0 0.001912 520.64868 526.88678
526.0 0.001901 520.64069 526.89990
527.0 0.001898 520.63263 526.91339
523.0 0.001912 520.62457 526.92700
528.0 0.001894 520.61652 526.94073
526.0 0.001901 520.60846 526.95453
523.0 0.001912 520.60034 526.96875
520.0 0.001923 520.59222 526.98291
523.0 0.001912 520.58417 526.99725
521.0 0.001919 520.57605 527.01196
517.0 0.001934 520.56793 527.02655
518.0 0.001931 520.55975 527.04163
518.0 0.001931 520.55164 527.05670
515.0 0.001942 520.54346 527.07190
513.0 0.001949 520.53528 527.08746
516.0 0.001938 520.52710 527.10303
519.0 0.001927 520.51892 527.11896
522.0 0.001916 520.51074 527.13483
519.0 0.001927 520.50250 527.15106
520.0 0.001923 520.49432 527.16742
524.0 0.001908 520.48608 527.18396
518.0 0.001931 520.47784 527.20068
521.0 0.001919 520.46960 527.21753
519.0 0.001927 520.46130 527.23468
521.0 0.001919 520.45306 527.25201
525.0 0.001905 520.44476 527.26947
529.0 0.001890 520.43646 527.28717
526.0 0.001901 520.42816 527.30505
525.0 0.001905 520.41986 527.32318
522.0 0.001916 520.41156 527.34155
522.0 0.001916 520.40326 527.36005
524.0 0.001908 520.39490 527.37854
532.0 0.001880 520.38654 527.39740
533.0 0.001876 520.37817 527.41656
525.0 0.001905 520.36981 527.43585
519.0 0.001927 520.36145 527.45544
522.0 0.001916 520.35309 527.47516
523.0 0.001912 520.34467 527.49512
525.0 0.001905 520.33624 527.51532
521.0 0.001919 520.32788 527.53564
523.0 0.001912 520.31946 527.55621
528.0 0.001894 520.31097 527.57697
522.0 0.001916 520.30255 527.59796
517.0 0.001934 520.29413 527.61926
518.0 0.001931 520.28564 527.64075
523.0 0.001912 520.27716 527.66260
523.0 0.001912 520.26868 527.68451
518.0 0.001931 520.26019 527.70660
525.0 0.001905 520.25171 527.72913
527.0 0.001898 520.24316 527.75159
523.0 0.001912 520.23468 527.77454
522.0 0.001916 520.22614 527.79767
527.0 0.001898 520.21759 527.82092
530.0 0.001887 520.20905 527.84467
525.0 0.001905 520.20050 527.86835
521.0 0.001919 520.19196 527.89246
524.0 0.001908 520.18335 527.91675
528.0 0.001894 520.17480 527.94135
527.0 0.001898 520.16620 527.96613
524.0 0.001908 520.15759 527.99127
521.0 0.001919 520.14899 528.01666
521.0 0.001919 520.14032 528.04218
521.0 0.001919 520.13171 528.06799
521.0 0.001919 520.12311 528.09430
521.0 0.001919 520.11444 528.12054
519.0 0.001927 520.10577 528.14722
520.0 0.001923 520.09711 528.17413
521.0 0.001919 520.08844 528.20129
522.0 0.001916 520.07977 528.22870
523.0 0.001912 520.07104 528.25647
530.0 0.001887 520.06238 528.28455
526.0 0.001901 520.05365 528.31268
526.0 0.001901 520.04492 528.34137
528.0 0.001894 520.03619 528.37024
526.0 0.001901 520.02747 528.39935
520.0 0.001923 520.01874 528.42865
523.0 0.001912 520.00995 528.45844
526.0 0.001901 520.00122 528.48840
523.0 0.001912 519.99243 528.51874
523.0 0.001912 519.98364 528.54932
525.0 0.001905 519.97485 528.58014
528.0 0.001894 519.96606 528.61133
526.0 0.001901 519.95728 528.64288
522.0 0.001916 519.94849 528.67462
524.0 0.001908 519.93964 528.70667
523.0 0.001912 519.93079 528.73914
518.0 0.001931 519.92194 528.77167
519.0 0.001927 519.91309 528.80481
521.0 0.001919 519.90424 528.83826
525.0 0.001905 519.89539 528.87183
524.0 0.001908 519.88654 528.90576
520.0 0.001923 519.87762 528.94019
519.0 0.001927 519.86877 528.97467
518.0 0.001931 519.85986 529.00964
524.0 0.001908 519.85095 529.04498
521.0 0.001919 519.84204 529.08063
519.0 0.001927 519.83313 529.11658
519.0 0.001927 519.82416 529.15283
523.0 0.001912 519.81525 529.18951
524.0 0.001908 519.80627 529.22644
522.0 0.001916 519.79736 529.26373
523.0 0.001912 519.78839 529.30133
523.0 0.001912 519.77942 529.33936
517.0 0.001934 519.77045 529.37781
524.0 0.001908 519.76141 529.41644
523.0 0.001912 519.75244 529.45544
525.0 0.001905 519.74341 529.49493
527.0 0.001898 519.73444 529.53479
530.0 0.001887 519.72540 529.57477
534.0 0.001873 519.71637 529.61542
529.0 0.001890 519.70734 529.65619
521.0 0.001919 519.69830 529.69745
521.0 0.001919 519.68921 529.73901
521.0 0.001919 519.68018 529.78101
523.0 0.001912 519.67108 529.82330
521.0 0.001919 519.66205 529.86603
521.0 0.001919 519.65295 529.90924
522.0 0.001916 519.64386 529.95282
523.0 0.001912 519.63477 529.99664
520.0 0.001923 519.62567 530.04095
525.0 0.001905 519.61652 530.08557
528.0 0.001894 519.60742 530.13062
528.0 0.001894 519.59827 530.17609
524.0 0.001908 519.58917 530.22192
521.0 0.001919 519.58002 530.26819
523.0 0.001912 519.57086 530.31476
522.0 0.001916 519.56171 530.36182
521.0 0.001919 519.55255 530.40936
528.0 0.001894 519.54333 530.45709
531.0 0.001883 519.53418 530.50549
531.0 0.001883 519.52496 530.55408
525.0 0.001905 519.51581 530.60315
527.0 0.001898 519.50659 530.65265
532.0 0.001880 519.49738 530.70258
531.0 0.001883 519.48816 530.75281
530.0 0.001887 519.47894 530.80377
532.0 0.001880 519.46967 530.85486
530.0 0.001887 519.46045 530.90649
530.0 0.001887 519.45117 530.95862
527.0 0.001898 519.44196 531.01099
533.0 0.001876 519.43268 531.06396
528.0 0.001894 519.42340 531.11719
531.0 0.001883 519.41412 531.17108
527.0 0.001898 519.40485 531.22528
526.0 0.001901 519.39557 531.27985
529.0 0.001890 519.38623 531.33502
527.0 0.001898 519.37695 531.39056
527.0 0.001898 519.36761 531.44653
527.0 0.001898 519.35834 531.50281
527.0 0.001898 519.34900 531.55969
531.0 0.001883 519.33966 531.61700
525.0 0.001905 519.33032 531.67468
528.0 0.001894 519.32098 531.73291
525.0 0.001905 519.31158 531.79156
527.0 0.001898 519.30225 531.85071
526.0 0.001901 519.29285 531.91034
527.0 0.001898 519.28351 531.97034
526.0 0.001901 519.27411 532.03082
526.0 0.001901 519.26471 532.09161
529.0 0.001890 519.25531 532.15302
529.0 0.001890 519.24591 532.21478
529.0 0.001890 519.23651 532.27704
525.0 0.001905 519.22711 532.33990
528.0 0.001894 519.21765 532.40308
528.0 0.001894 519.20825 532.46680
532.0 0.001880 519.19879 532.67334
527.0 0.001898 519.18939 532.73828
523.0 0.001912 519.17993 532.80371
526.0 0.001901 519.17047 532.86945
529.0 0.001890 519.16101 532.93585
530.0 0.001887 519.15155 533.00269
526.0 0.001901 519.14209 533.06982
531.0 0.001883 519.13257 533.13757
531.0 0.001883 519.12311 533.20575
533.0 0.001876 519.11359 533.27435
531.0 0.001883 519.10413 533.34338
524.0 0.001908 519.09460 533.41302
529.0 0.001890 519.08508 533.48297
529.0 0.001890 519.07556 533.55341
529.0 0.001890 519.06604 533.62427
525.0 0.001905 519.05652 533.69574
526.0 0.001901 519.04700 533.76758
530.0 0.001887 519.03741 533.83997
525.0 0.001905 519.02789 533.91266
533.0 0.001876 519.01831 533.98602
533.0 0.001876 519.00873 534.05957
531.0 0.001883 518.99921 534.13348
528.0 0.001894 518.98962 534.20807
528.0 0.001894 518.98004 534.28308
535.0 0.001869 518.97046 534.35852
531.0 0.001883 518.96082 534.43445
531.0 0.001883 518.95123 534.51080
524.0 0.001908 518.94165 534.58759
526.0 0.001901 518.93201 534.66479
530.0 0.001887 518.92242 534.74249
531.0 0.001883 518.91278 534.82050
530.0 0.001887 518.90314 534.89886
532.0 0.001880 518.89349 534.97784
528.0 0.001894 518.88391 535.05713
522.0 0.001916 518.87427 535.13684
524.0 0.001908 518.86456 535.21704
529.0 0.001890 518.85492 535.29761
523.0 0.001912 518.84528 535.37854
521.0 0.001919 518.83557 535.45996
518.0 0.001931 518.82593 535.54175
524.0 0.001908 518.81622 535.62390
522.0 0.001916 518.80658 535.70642
522.0 0.001916 518.79688 535.78937
527.0 0.001898 518.78717 535.87268
527.0 0.001898 518.77747 535.95630
527.0 0.001898 518.76776 536.04047
524.0 0.001908 518.75806 536.12476
529.0 0.001890 518.74829 536.20947
530.0 0.001887 518.73859 536.29474
531.0 0.001883 518.72888 536.38019
531.0 0.001883 518.71912 536.46600
529.0 0.001890 518.70935 536.55212
533.0 0.001876 518.69965 536.63855
538.0 0.001859 518.68988 536.72546
536.0 0.001866 518.68011 536.81262
534.0 0.001873 518.67035 536.90015
530.0 0.001887 518.66058 536.98792
534.0 0.001873 518.65082 537.07587
529.0 0.001890 518.64105 537.16437
531.0 0.001883 518.63129 537.25293
532.0 0.001880 518.62146 537.34186
529.0 0.001890 518.61169 537.43103
533.0 0.001876 518.60187 537.52045
532.0 0.001880 518.59210 537.61035
530.0 0.001887 518.58228 537.70038
532.0 0.001880 518.57245 537.79065
529.0 0.001890 518.56262 537.88110
536.0 0.001866 518.55280 537.97180
535.0 0.001869 518.54297 538.06287
534.0 0.001873 518.53314 538.15399
536.0 0.001866 518.52332 538.24536
529.0 0.001890 518.51343 538.33698
532.0 0.001880 518.50360 538.42889
533.0 0.001876 518.49377 538.52081
530.0 0.001887 518.48389 538.61304
532.0 0.001880 518.47400 538.70538
532.0 0.001880 518.46417 538.79810
534.0 0.001873 518.45428 538.89087
532.0 0.001880 518.44440 538.98383
540.0 0.001852 518.43451 539.07690
535.0 0.001869 518.42462 539.17004
530.0 0.001887 518.41473 539.26349
527.0 0.001898 518.40485 539.35706
531.0 0.001883 518.39496 539.45074
535.0 0.001869 518.38501 539.54456
535.0 0.001869 518.37512 539.63855
532.0 0.001880 518.36523 539.73279
533.0 0.001876 518.35529 539.82690
531.0 0.001883 518.34534 539.92145
531.0 0.001883 518.33545 540.01587
531.0 0.001883 518.32550 540.11053
529.0 0.001890 518.31555 540.20526
535.0 0.001869 518.30560 540.30017
531.0 0.001883 518.29565 540.39526
530.0 0.001887 518.28571 540.49036
533.0 0.001876 518.27576 540.58569
533.0 0.001876 518.26581 540.68109
536.0 0.001866 518.25586 540.77679
537.0 0.001862 518.24585 540.87250
538.0 0.001859 518.23590 540.96844
538.0 0.001859 518.22595 541.06445
537.0 0.001862 518.21594 541.16071
539.0 0.001855 518.20593 541.25714
542.0 0.001845 518.19598 541.35370
543.0 0.001842 518.18597 541.45050
541.0 0.001848 518.17596 541.54761
540.0 0.001852 518.16595 541.64490
543.0 0.001842 518.15594 541.74249
541.0 0.001848 518.14594 541.84027
540.0 0.001852 518.13593 541.93835
536.0 0.001866 518.12592 542.03693
540.0 0.001852 518.11591 542.13556
536.0 0.001866 518.10590 542.23486
539.0 0.001855 518.09583 542.33441
540.0 0.001852 518.08582 542.43445
543.0 0.001842 518.07581 542.53497
536.0 0.001866 518.06573 542.63599
535.0 0.001869 518.05566 542.73749
532.0 0.001880 518.04565 542.83990
532.0 0.001880 518.03558 542.94281
542.0 0.001845 518.02551 543.04633
539.0 0.001855 518.01550 543.15070
540.0 0.001852 518.00543 543.25610
539.0 0.001855 517.99536 543.36218
541.0 0.001848 517.98529 543.46930
546.0 0.001832 517.97522 543.57751
542.0 0.001845 517.96509 543.68695
543.0 0.001842 517.95502 543.79755
548.0 0.001825 517.94495 543.90961
545.0 0.001835 517.93488 544.02307
541.0 0.001848 517.92474 544.13800
544.0 0.001838 517.91467 544.25476
544.0 0.001838 517.90454 544.37329
546.0 0.001832 517.89447 544.49396
540.0 0.001852 517.88434 544.61664
544.0 0.001838 517.87427 544.74158
547.0 0.001828 517.86414 544.86908
544.0 0.001838 517.85400 544.99915
540.0 0.001852 517.84387 545.13214
544.0 0.001838 517.83374 545.26819
543.0 0.001842 517.82367 545.40765
541.0 0.001848 517.81354 545.55048
543.0 0.001842 517.80341 545.69727
547.0 0.001828 517.79321 545.84808
548.0 0.001825 517.78308 546.00330
551.0 0.001815 517.77295 546.16327
548.0 0.001825 517.76282 546.32831
551.0 0.001815 517.75269 546.49866
549.0 0.001821 517.74249 546.67474
546.0 0.001832 517.73236 546.85718
550.0 0.001818 517.72217 547.04602
549.0 0.001821 517.71204 547.24200
552.0 0.001812 517.70184 547.44537
555.0 0.001802 517.69171 547.65686
551.0 0.001815 517.68152 547.87695
552.0 0.001812 517.67133 548.10571
551.0 0.001815 517.66119 548.34448
551.0 0.001815 517.65100 548.59338
553.0 0.001808 517.64081 548.85297
553.0 0.001808 517.63062 549.12408
551.0 0.001815 517.62042 549.40741
552.0 0.001812 517.61023 549.70367
548.0 0.001825 517.60004 550.01337
555.0 0.001802 517.58984 550.33728
565.0 0.001770 517.57965 550.67639
564.0 0.001773 517.56946 551.03143
559.0 0.001789 517.55927 551.40302
561.0 0.001783 517.54907 551.79224
558.0 0.001792 517.53882 552.19965
556.0 0.001799 517.52863 552.62640
556.0 0.001799 517.51843 553.07312
562.0 0.001779 517.50818 553.54077
560.0 0.001786 517.49799 554.03027
559.0 0.001789 517.48773 554.54230
560.0 0.001786 517.47754 555.07800
557.0 0.001795 517.46729 555.63794
556.0 0.001799 517.45703 556.22296
552.0 0.001812 517.44684 556.83386
559.0 0.001789 517.43658 557.47125
565.0 0.001770 517.42633 558.13593
557.0 0.001795 517.41614 558.82813
556.0 0.001799 517.40588 559.54834
560.0 0.001786 517.39563 560.29675
564.0 0.001773 517.38538 561.07367
566.0 0.001767 517.37512 561.87866
569.0 0.001757 517.36487 562.71143
566.0 0.001767 517.35461 563.57123
565.0 0.001770 517.34436 564.45697
569.0 0.001757 517.33411 565.36749
565.0 0.001770 517.32385 566.30066
563.0 0.001776 517.31360 567.25397
565.0 0.001770 517.30334 568.22479
569.0 0.001757 517.29303 569.20923
568.0 0.001761 517.28278 570.20288
563.0 0.001776 517.27252 571.20111
564.0 0.001773 517.26227 572.19781
557.0 0.001795 517.25195 573.18646
555.0 0.001802 517.24170 574.15991
557.0 0.001795 517.23138 575.10974
558.0 0.001792 517.22113 576.02740
565.0 0.001770 517.21082 576.90338
569.0 0.001757 517.20056 577.72815
567.0 0.001764 517.19025 578.49121
568.0 0.001761 517.17999 579.18298
566.0 0.001767 517.16968 579.79333
569.0 0.001757 517.15936 580.31329
564.0 0.001773 517.14911 580.73370
567.0 0.001764 517.13879 581.04816
566.0 0.001767 517.12848 581.24994
561.0 0.001783 517.11823 581.33502
565.0 0.001770 517.10791 581.30066
564.0 0.001773 517.09760 581.14630
563.0 0.001776 517.08728 580.87305
568.0 0.001761 517.07697 580.48419
564.0 0.001773 517.06671 579.98438
567.0 0.001764 517.05640 579.38007
567.0 0.001764 517.04608 578.67896
557.0 0.001795 517.03577 577.88989
555.0 0.001802 517.02545 577.02252
552.0 0.001812 517.01514 576.08643
556.0 0.001799 517.00482 575.09204
554.0 0.001805 516.99451 574.04913
553.0 0.001808 516.98419 572.96765
558.0 0.001792 516.97382 571.85687
560.0 0.001786 516.96350 570.72534
563.0 0.001776 516.95319 569.58099
563.0 0.001776 516.94287 568.43109
560.0 0.001786 516.93256 567.28192
559.0 0.001789 516.92224 566.13934
553.0 0.001808 516.91187 565.00806
557.0 0.001795 516.90155 563.89227
559.0 0.001789 516.89124 562.79547
557.0 0.001795 516.88086 561.72070
554.0 0.001805 516.87054 560.66992
547.0 0.001828 516.86023 559.64508
551.0 0.001815 516.84985 558.64752
559.0 0.001789 516.83954 557.67828
558.0 0.001792 516.82922 556.73804
559.0 0.001789 516.81885 555.82703
562.0 0.001779 516.80853 554.94550
556.0 0.001799 516.79816 554.09338
548.0 0.001825 516.78784 553.27039
558.0 0.001792 516.77747 552.47638
554.0 0.001805 516.76715 551.71021
553.0 0.001808 516.75677 550.97180
549.0 0.001821 516.74646 550.26038
541.0 0.001848 516.73608 549.57538
543.0 0.001842 516.72577 548.91565
543.0 0.001842 516.71539 548.28058
549.0 0.001821 516.70508 547.66974
547.0 0.001828 516.69470 547.08154
549.0 0.001821 516.68433 546.45007
550.0 0.001818 516.67401 545.90546
545.0 0.001835 516.66364 545.38129
543.0 0.001842 516.65326 544.87683
549.0 0.001821 516.64294 544.39136
549.0 0.001821 516.63257 543.92377
552.0 0.001812 516.62219 543.47351
550.0 0.001818 516.61188 543.03967
548.0 0.001825 516.60150 542.62164
547.0 0.001828 516.59113 542.21863
548.0 0.001825 516.58081 541.82983
541.0 0.001848 516.57043 541.45477
545.0 0.001835 516.56006 541.09271
543.0 0.001842 516.54968 540.74304
543.0 0.001842 516.53937 540.40509
539.0 0.001855 516.52899 540.07831
537.0 0.001862 516.51862 539.76208
537.0 0.001862 516.50824 539.45624
536.0 0.001866 516.49786 539.15997
533.0 0.001876 516.48755 538.87274
535.0 0.001869 516.47717 538.59406
539.0 0.001855 516.46680 538.32367
540.0 0.001852 516.45642 538.06116
540.0 0.001852 516.44604 537.80609
541.0 0.001848 516.43573 537.55829
541.0 0.001848 516.42535 537.31708
537.0 0.001862 516.41498 537.08221
537.0 0.001862 516.40460 536.85345
537.0 0.001862 516.39423 536.63068
538.0 0.001859 516.38385 536.41333
539.0 0.001855 516.37354 536.20099
539.0 0.001855 516.36316 535.99396
532.0 0.001880 516.35278 535.79150
532.0 0.001880 516.34241 535.59369
536.0 0.001866 516.33203 535.40033
540.0 0.001852 516.32166 535.21106
537.0 0.001862 516.31128 535.02582
535.0 0.001869 516.30096 534.84442
538.0 0.001859 516.29059 534.66669
537.0 0.001862 516.28021 534.49231
531.0 0.001883 516.26984 534.32135
531.0 0.001883 516.25946 534.15381
534.0 0.001873 516.24908 533.98920
532.0 0.001880 516.23871 533.82764
531.0 0.001883 516.22839 533.66895
536.0 0.001866 516.21802 533.51312
532.0 0.001880 516.20764 533.35999
531.0 0.001883 516.19727 533.20911
535.0 0.001869 516.18689 533.06104
537.0 0.001862 516.17651 532.91528
530.0 0.001887 516.16614 532.77185
527.0 0.001898 516.15582 532.63074
528.0 0.001894 516.14545 532.49176
528.0 0.001894 516.13507 532.35480
527.0 0.001898 516.12469 532.22009
523.0 0.001912 516.11432 532.08728
534.0 0.001873 516.10400 531.95624
534.0 0.001873 516.09363 531.82721
534.0 0.001873 516.08325 531.69995
527.0 0.001898 516.07288 531.57471
529.0 0.001890 516.06250 531.45099
532.0 0.001880 516.05219 531.32904
529.0 0.001890 516.04181 531.20856
527.0 0.001898 516.03143 531.08990
531.0 0.001883 516.02106 530.97272
530.0 0.001887 516.01074 530.85687
535.0 0.001869 516.00037 530.74261
534.0 0.001873 515.98999 530.62982
536.0 0.001866 515.97961 530.51855
533.0 0.001876 515.96930 530.40863
528.0 0.001894 515.95892 530.29993
527.0 0.001898 515.94855 530.19250
529.0 0.001890 515.93823 530.08655
533.0 0.001876 515.92786 529.98175
534.0 0.001873 515.91748 529.87805
530.0 0.001887 515.90717 529.77576
529.0 0.001890 515.89679 529.67474
527.0 0.001898 515.88647 529.57477
526.0 0.001901 515.87610 529.47577
528.0 0.001894 515.86572 529.37799
528.0 0.001894 515.85541 529.28131
528.0 0.001894 515.84503 529.18567
524.0 0.001908 515.83472 529.09119
528.0 0.001894 515.82434 528.99756
529.0 0.001890 515.81403 528.90503
529.0 0.001890 515.80365 528.81372
527.0 0.001898 515.79333 528.72314
525.0 0.001905 515.78296 528.63361
527.0 0.001898 515.77264 528.54486
528.0 0.001894 515.76227 528.45709
531.0 0.001883 515.75195 528.37036
529.0 0.001890 515.74164 528.28436
524.0 0.001908 515.73126 528.19934
524.0 0.001908 515.72095 528.11517
522.0 0.001916 515.71063 528.03186
522.0 0.001916 515.70026 527.94946
524.0 0.001908 515.68994 527.86780
522.0 0.001916 515.67963 527.78693
520.0 0.001923 515.66925 527.70691
523.0 0.001912 515.65894 527.62756
521.0 0.001919 515.64862 527.54907
527.0 0.001898 515.63831 527.47137
530.0 0.001887 515.62799 527.39441
522.0 0.001916 515.61761 527.31818
523.0 0.001912 515.60730 527.24280
528.0 0.001894 515.59698 527.16809
524.0 0.001908 515.58667 527.09399
519.0 0.001927 515.57635 527.02057
527.0 0.001898 515.56604 526.94800
529.0 0.001890 515.55573 526.87604
526.0 0.001901 515.54541 526.80469
525.0 0.001905 515.53510 526.73401
524.0 0.001908 515.52478 526.66406
528.0 0.001894 515.51447 526.59479
528.0 0.001894 515.50415 526.52606
530.0 0.001887 515.49384 526.45795
534.0 0.001873 515.48352 526.39050
531.0 0.001883 515.47327 526.32373
528.0 0.001894 515.46295 526.25751
531.0 0.001883 515.45264 526.19202
530.0 0.001887 515.44232 526.12689
527.0 0.001898 515.43201 526.06250
526.0 0.001901 515.42175 525.99860
525.0 0.001905 515.41144 525.93542
531.0 0.001883 515.40112 525.87274
532.0 0.001880 515.39087 525.81061
531.0 0.001883 515.38055 525.74915
522.0 0.001916 515.37030 525.68799
526.0 0.001901 515.35999 525.62750
526.0 0.001901 515.34973 525.56750
523.0 0.001912 515.33942 525.50818
521.0 0.001919 515.32916 525.44934
520.0 0.001923 515.31885 525.39099
522.0 0.001916 515.30859 525.33319
522.0 0.001916 515.29834 525.27570
520.0 0.001923 515.28802 525.21899
525.0 0.001905 515.27777 525.16260
525.0 0.001905 515.26752 525.10675
522.0 0.001916 515.25726 525.05139
523.0 0.001912 515.24695 524.99652
527.0 0.001898 515.23669 524.94226
527.0 0.001898 515.22644 524.88818
528.0 0.001894 515.21619 524.83478
522.0 0.001916 515.20593 524.78180
528.0 0.001894 515.19568 524.72925
532.0 0.001880 515.18542 524.67725
532.0 0.001880 515.17517 524.62567
533.0 0.001876 515.16492 524.57452
527.0 0.001898 515.15466 524.52399
531.0 0.001883 515.14441 524.47357
524.0 0.001908 515.13416 524.42383
521.0 0.001919 515.12396 524.37433
525.0 0.001905 515.11371 524.32538
523.0 0.001912 515.10345 524.27692
528.0 0.001894 515.09320 524.22882
522.0 0.001916 515.08301 524.18109
521.0 0.001919 515.07275 524.13391
522.0 0.001916 515.06256 524.08704
523.0 0.001912 515.05231 524.04065
527.0 0.001898 515.04211 523.99469
526.0 0.001901 515.03186 523.94891
527.0 0.001898 515.02167 523.90375
524.0 0.001908 515.01141 523.85901
525.0 0.001905 515.00122 523.81445
530.0 0.001887 514.99103 523.77045
524.0 0.001908 514.98077 523.72681
524.0 0.001908 514.97058 523.68353
525.0 0.001905 514.96039 523.64063
524.0 0.001908 514.95020 523.59814
525.0 0.001905 514.94000 523.55597
527.0 0.001898 514.92981 523.51428
529.0 0.001890 514.91962 523.47278
531.0 0.001883 514.90942 523.43176
527.0 0.001898 514.89923 523.39124
523.0 0.001912 514.88904 523.35095
525.0 0.001905 514.87885 523.31104
523.0 0.001912 514.86865 523.27142
527.0 0.001898 514.85846 523.23218
526.0 0.001901 514.84833 523.19324
524.0 0.001908 514.83813 523.15485
527.0 0.001898 514.82794 523.11664
521.0 0.001919 514.81781 523.07880
520.0 0.001923 514.80762 523.04138
516.0 0.001938 514.79749 523.00433
523.0 0.001912 514.78729 522.96765
525.0 0.001905 514.77716 522.93127
523.0 0.001912 514.76697 522.89502
524.0 0.001908 514.75684 522.85925
523.0 0.001912 514.74670 522.82391
521.0 0.001919 514.73657 522.78876
523.0 0.001912 514.72644 522.75397
520.0 0.001923 514.71625 522.71954
521.0 0.001919 514.70612 522.68555
524.0 0.001908 514.69598 522.65167
523.0 0.001912 514.68585 522.61829
521.0 0.001919 514.67572 522.58533
524.0 0.001908 514.66559 522.55249
527.0 0.001898 514.65546 522.51990
523.0 0.001912 514.64539 522.48779
523.0 0.001912 514.63525 522.45593
524.0 0.001908 514.62512 522.42456
527.0 0.001898 514.61505 522.39307
526.0 0.001901 514.60492 522.36224
518.0 0.001931 514.59479 522.33167
524.0 0.001908 514.58472 522.30157
520.0 0.001923 514.57458 522.27161
525.0 0.001905 514.56451 522.24182
523.0 0.001912 514.55444 522.21246
521.0 0.001919 514.54431 522.18353
523.0 0.001912 514.53424 522.15472
521.0 0.001919 514.52417 522.12640
522.0 0.001916 514.51410 522.09827
522.0 0.001916 514.50403 522.07043
524.0 0.001908 514.49396 522.04297
526.0 0.001901 514.48389 522.01563
520.0 0.001923 514.47382 521.98889
526.0 0.001901 514.46375 521.96216
529.0 0.001890 514.45367 521.93585
526.0 0.001901 514.44360 521.90997
527.0 0.001898 514.43359 521.88422
524.0 0.001908 514.42352 521.85889
525.0 0.001905 514.41345 521.83362
528.0 0.001894 514.40344 521.80902
527.0 0.001898 514.39337 521.78455
528.0 0.001894 514.38336 521.76025
528.0 0.001894 514.37329 521.73633
526.0 0.001901 514.36328 521.71259
525.0 0.001905 514.35327 521.68933
526.0 0.001901 514.34320 521.66626
526.0 0.001901 514.33319 521.64349
522.0 0.001916 514.32318 521.62122
521.0 0.001919 514.31317 521.59900
528.0 0.001894 514.30316 521.57709
529.0 0.001890 514.29315 521.55560
524.0 0.001908 514.28314 521.53442
523.0 0.001912 514.27319 521.51343
522.0 0.001916 514.26318 521.49274
521.0 0.001919 514.25317 521.47241
522.0 0.001916 514.24316 521.45227
519.0 0.001927 514.23322 521.43250
523.0 0.001912 514.22321 521.41296
523.0 0.001912 514.21326 521.39392
522.0 0.001916 514.20325 521.37494
523.0 0.001912 514.19330 521.35638
524.0 0.001908 514.18335 521.33807
523.0 0.001912 514.17340 521.32013
523.0 0.001912 514.16339 521.30243
521.0 0.001919 514.15344 521.28497
522.0 0.001916 514.14349 521.26794
527.0 0.001898 514.13354 521.25116
524.0 0.001908 514.12360 521.23456
526.0 0.001901 514.11371 521.21844
526.0 0.001901 514.10376 521.20239
521.0 0.001919 514.09381 521.18695
523.0 0.001912 514.08386 521.17169
518.0 0.001931 514.07397 521.15674
520.0 0.001923 514.06403 521.14209
524.0 0.001908 514.05414 521.12769
521.0 0.001919 514.04419 521.11353
520.0 0.001923 514.03430 521.09979
526.0 0.001901 514.02441 521.08655
528.0 0.001894 514.01447 521.07330
525.0 0.001905 514.00458 521.06049
523.0 0.001912 513.99469 521.04791
529.0 0.001890 513.98480 521.03577
521.0 0.001919 513.97491 521.02399
521.0 0.001919 513.96503 521.01239
519.0 0.001927 513.95514 521.00116
525.0 0.001905 513.94531 520.99023
525.0 0.001905 513.93542 520.97961
522.0 0.001916 513.92554 520.96930
522.0 0.001916 513.91571 520.95953
525.0 0.001905 513.90582 520.94989
523.0 0.001912 513.89600 520.94067
528.0 0.001894 513.88611 520.93170
527.0 0.001898 513.87628 520.92310
528.0 0.001894 513.86646 520.91492
529.0 0.001890 513.85663 520.90704
527.0 0.001898 513.84674 520.89941
523.0 0.001912 513.83691 520.89203
526.0 0.001901 513.82715 520.88525
527.0 0.001898 513.81732 520.87866
528.0 0.001894 513.80750 520.87244
524.0 0.001908 513.79767 520.86664
523.0 0.001912 513.78784 520.86121
524.0 0.001908 513.77808 520.85608
521.0 0.001919 513.76825 520.85132
520.0 0.001923 513.75848 520.84692
518.0 0.001931 513.74866 520.84290
522.0 0.001916 513.73889 520.83923
524.0 0.001908 513.72913 520.83600
518.0 0.001931 513.71936 520.83313
520.0 0.001923 513.70953 520.83051
522.0 0.001916 513.69977 520.82831
523.0 0.001912 513.69000 520.82666
522.0 0.001916 513.68024 520.82538
522.0 0.001916 513.67053 520.82446
521.0 0.001919 513.66077 520.82385
524.0 0.001908 513.65100 520.82355
521.0 0.001919 513.64124 520.82397
523.0 0.001912 513.63153 520.82465
525.0 0.001905 513.62183 520.82581
521.0 0.001919 513.61206 520.82733
520.0 0.001923 513.60236 520.82922
524.0 0.001908 513.59259 520.83148
530.0 0.001887 513.58289 520.83435
524.0 0.001908 513.57318 520.83746
525.0 0.001905 513.56348 520.84119
527.0 0.001898 513.55377 520.84528
522.0 0.001916 513.54407 520.84991
518.0 0.001931 513.53436 520.85492
519.0 0.001927 513.52472 520.86041
527.0 0.001898 513.51501 520.86652
528.0 0.001894 513.50531 520.87299
529.0 0.001890 513.49567 520.87994
529.0 0.001890 513.48602 520.88733
525.0 0.001905 513.47632 520.89520
522.0 0.001916 513.46667 520.90375
524.0 0.001908 513.45703 520.91266
525.0 0.001905 513.44739 520.92212
524.0 0.001908 513.43774 520.93195
529.0 0.001890 513.42810 520.94257
524.0 0.001908 513.41846 520.95355
522.0 0.001916 513.40881 520.96527
525.0 0.001905 513.39917 520.97729
529.0 0.001890 513.38953 520.99011
525.0 0.001905 513.37994 521.00330
526.0 0.001901 513.37030 521.01727
529.0 0.001890 513.36072 521.03156
527.0 0.001898 513.35107 521.04663
525.0 0.001905 513.34149 521.06213
527.0 0.001898 513.33191 521.07843
530.0 0.001887 513.32233 521.09515
524.0 0.001908 513.31274 521.11267
525.0 0.001905 513.30316 521.13080
521.0 0.001919 513.29358 521.14960
527.0 0.001898 513.28400 521.16888
524.0 0.001908 513.27448 521.18903
525.0 0.001905 513.26489 521.20978
519.0 0.001927 513.25531 521.23132
523.0 0.001912 513.24579 521.25342
522.0 0.001916 513.23621 521.27637
521.0 0.001919 513.22668 521.29987
526.0 0.001901 513.21716 521.32428
525.0 0.001905 513.20764 521.34930
525.0 0.001905 513.19812 521.37524
522.0 0.001916 513.18860 521.40186
524.0 0.001908 513.17908 521.42926
525.0 0.001905 513.16956 521.45740
527.0 0.001898 513.16003 521.48651
526.0 0.001901 513.15057 521.51642
528.0 0.001894 513.14105 521.54712
528.0 0.001894 513.13153 521.57880
526.0 0.001901 513.12207 521.61115
521.0 0.001919 513.11261 521.64465
525.0 0.001905 513.10309 521.67883
527.0 0.001898 513.09363 521.71411
524.0 0.001908 513.08417 521.75024
523.0 0.001912 513.07471 521.78741
517.0 0.001934 513.06525 521.82550
522.0 0.001916 513.05579 521.86475
524.0 0.001908 513.04639 521.90479
523.0 0.001912 513.03693 521.94592
525.0 0.001905 513.02747 521.98822
527.0 0.001898 513.01807 522.03156
528.0 0.001894 513.00867 522.07599
522.0 0.001916 512.99921 522.12170
516.0 0.001938 512.98981 522.16840
521.0 0.001919 512.98041 522.21637
522.0 0.001916 512.97101 522.26544
525.0 0.001905 512.96161 522.31592
521.0 0.001919 512.95221 522.36755
527.0 0.001898 512.94281 522.42047
529.0 0.001890 512.93341 522.47473
526.0 0.001901 512.92407 522.53027
527.0 0.001898 512.91467 522.58710
528.0 0.001894 512.90533 522.64545
529.0 0.001890 512.89594 522.70532
531.0 0.001883 512.88660 522.76642
529.0 0.001890 512.87726 522.82928
531.0 0.001883 512.86792 522.89355
533.0 0.001876 512.85858 522.95941
535.0 0.001869 512.84924 523.02686
532.0 0.001880 512.83990 523.09589
531.0 0.001883 512.83057 523.16663
532.0 0.001880 512.82123 523.23932
530.0 0.001887 512.81195 523.31348
526.0 0.001901 512.80261 523.38940
524.0 0.001908 512.79333 523.46735
528.0 0.001894 512.78406 523.54724
525.0 0.001905 512.77472 523.62903
526.0 0.001901 512.76544 523.71277
531.0 0.001883 512.75616 523.79834
527.0 0.001898 512.74689 523.88623
525.0 0.001905 512.73761 523.97638
529.0 0.001890 512.72833 524.06873
530.0 0.001887 512.71912 524.16296
528.0 0.001894 512.70984 524.25983
525.0 0.001905 512.70062 524.35876
522.0 0.001916 512.69135 524.46063
523.0 0.001912 512.68213 524.56451
529.0 0.001890 512.67291 524.67133
525.0 0.001905 512.66364 524.78052
528.0 0.001894 512.65442 524.89252
526.0 0.001901 512.64520 525.00732
532.0 0.001880 512.63605 525.12494
531.0 0.001883 512.62683 525.24567
531.0 0.001883 512.61761 525.36926
533.0 0.001876 512.60840 525.49603
531.0 0.001883 512.59924 525.62598
532.0 0.001880 512.59003 525.75922
528.0 0.001894 512.58087 525.89594
530.0 0.001887 512.57172 526.03613
531.0 0.001883 512.56256 526.17993
529.0 0.001890 512.55341 526.32733
531.0 0.001883 512.54425 526.47864
534.0 0.001873 512.53510 526.63379
535.0 0.001869 512.52594 526.79309
529.0 0.001890 512.51678 526.95667
526.0 0.001901 512.50769 527.12445
532.0 0.001880 512.49854 527.29681
531.0 0.001883 512.48944 527.47363
533.0 0.001876 512.48029 527.65521
530.0 0.001887 512.47119 527.84186
529.0 0.001890 512.46210 528.03345
531.0 0.001883 512.45300 528.23035
532.0 0.001880 512.44391 528.43268
531.0 0.001883 512.43481 528.64063
535.0 0.001869 512.42572 528.85443
533.0 0.001876 512.41669 529.07416
534.0 0.001873 512.40759 529.30023
532.0 0.001880 512.39856 529.53271
531.0 0.001883 512.38947 529.77185
534.0 0.001873 512.38043 530.01794
534.0 0.001873 512.37140 530.27118
536.0 0.001866 512.36237 530.53198
536.0 0.001866 512.35333 530.80072
539.0 0.001855 512.34430 531.07721
537.0 0.001862 512.33527 531.36230
538.0 0.001859 512.32623 531.65601
539.0 0.001855 512.31726 531.95880
535.0 0.001869 512.30823 532.27124
536.0 0.001866 512.29926 532.59314
537.0 0.001862 512.29022 532.92542
541.0 0.001848 512.28125 533.26825
543.0 0.001842 512.27228 533.62219
541.0 0.001848 512.26331 533.98767
537.0 0.001862 512.25433 534.36530
537.0 0.001862 512.24536 534.75537
538.0 0.001859 512.23639 535.15857
535.0 0.001869 512.22742 535.57550
534.0 0.001873 512.21851 536.00647
540.0 0.001852 512.20953 536.45251
547.0 0.001828 512.20062 536.91394
550.0 0.001818 512.19171 537.39166
535.0 0.001869 512.18280 537.88635
543.0 0.001842 512.17383 538.39868
548.0 0.001825 512.16492 538.92938
549.0 0.001821 512.15607 539.47943
549.0 0.001821 512.14716 540.04962
546.0 0.001832 512.13824 540.64093
546.0 0.001832 512.12933 541.25397
548.0 0.001825 512.12048 541.89008
550.0 0.001818 512.11163 542.54999
555.0 0.001802 512.10272 543.23511
553.0 0.001808 512.09387 543.94623
551.0 0.001815 512.08502 544.68451
553.0 0.001808 512.07617 545.45105
558.0 0.001792 512.06732 546.24738
560.0 0.001786 512.05847 547.07452
553.0 0.001808 512.04962 547.93384
550.0 0.001818 512.04083 548.82672
553.0 0.001808 512.03198 549.75458
558.0 0.001792 512.02319 550.71851
560.0 0.001786 512.01434 551.72058
559.0 0.001789 512.00555 552.76184
559.0 0.001789 511.99677 553.84387
560.0 0.001786 511.98798 554.96851
561.0 0.001783 511.97919 556.13715
563.0 0.001776 511.97043 557.35162
557.0 0.001795 511.96164 558.61334
560.0 0.001786 511.95288 559.92419
558.0 0.001792 511.94412 561.28589
557.0 0.001795 511.93536 562.70007
571.0 0.001751 511.92661 564.16846
572.0 0.001748 511.91788 565.69263
571.0 0.001751 511.90912 567.27448
566.0 0.001767 511.90039 568.91553
575.0 0.001739 511.89169 570.61737
577.0 0.001733 511.88297 572.38153
576.0 0.001736 511.87424 574.20953
574.0 0.001742 511.86554 576.10254
583.0 0.001715 511.85684 578.06177
579.0 0.001727 511.84814 580.08801
578.0 0.001730 511.83948 582.18243
583.0 0.001715 511.83078 584.34540
590.0 0.001695 511.82211 586.57715
585.0 0.001709 511.81342 588.87750
588.0 0.001701 511.80478 591.24585
589.0 0.001698 511.79611 593.68134
590.0 0.001695 511.78745 596.18243
595.0 0.001681 511.77881 598.74701
600.0 0.001667 511.77017 601.37219
595.0 0.001681 511.76154 604.05432
597.0 0.001675 511.75293 606.78900
595.0 0.001681 511.74429 609.57092
600.0 0.001667 511.73569 612.39331
608.0 0.001645 511.72708 615.24921
612.0 0.001634 511.71848 618.12952
614.0 0.001629 511.70987 621.02454
617.0 0.001621 511.70129 623.92297
616.0 0.001623 511.69272 626.81244
625.0 0.001600 511.68414 629.67896
630.0 0.001587 511.67557 632.50781
632.0 0.001582 511.66699 635.28296
638.0 0.001567 511.65845 637.98724
641.0 0.001560 511.64990 640.60260
640.0 0.001563 511.64133 643.11047
647.0 0.001546 511.63281 645.49231
646.0 0.001548 511.62427 647.72931
654.0 0.001529 511.61575 649.80280
655.0 0.001527 511.60721 651.69525
649.0 0.001541 511.59869 653.39020
660.0 0.001515 511.59021 654.87299
661.0 0.001513 511.58170 656.13055
656.0 0.001524 511.57321 657.15253
652.0 0.001534 511.56470 657.93140
651.0 0.001536 511.55621 658.46216
658.0 0.001520 511.54776 658.74329
660.0 0.001515 511.53928 658.77606
655.0 0.001527 511.53082 658.56525
658.0 0.001520 511.52237 658.11847
654.0 0.001529 511.51392 657.44629
650.0 0.001538 511.50546 656.56177
654.0 0.001529 511.49701 655.48016
655.0 0.001527 511.48859 654.21851
657.0 0.001522 511.48016 652.79504
659.0 0.001517 511.47174 651.22968
658.0 0.001520 511.46332 649.54224
658.0 0.001520 511.45493 647.75330
655.0 0.001527 511.44650 645.88275
658.0 0.001520 511.43811 643.95050
660.0 0.001515 511.42972 641.97571
654.0 0.001529 511.42136 639.97644
654.0 0.001529 511.41296 637.96991
651.0 0.001536 511.40460 635.97235
648.0 0.001543 511.39624 633.99841
645.0 0.001550 511.38788 632.06195
645.0 0.001550 511.37952 630.17535
640.0 0.001563 511.37119 628.34979
638.0 0.001567 511.36282 626.59558
644.0 0.001553 511.35452 624.92157
644.0 0.001553 511.34619 623.33606
642.0 0.001558 511.33786 621.84644
635.0 0.001575 511.32956 620.45868
634.0 0.001577 511.32123 619.17859
629.0 0.001590 511.31293 618.01117
624.0 0.001603 511.30466 616.96088
627.0 0.001595 511.29636 616.03156
626.0 0.001597 511.28809 615.22693
629.0 0.001590 511.27979 614.54956
628.0 0.001592 511.27151 614.00269
620.0 0.001613 511.26328 613.58881
619.0 0.001616 511.25500 613.30988
619.0 0.001616 511.24677 613.16821
626.0 0.001597 511.23853 613.16553
624.0 0.001603 511.23029 613.30371
623.0 0.001605 511.22205 613.58417
624.0 0.001603 511.21381 614.00818
626.0 0.001597 511.20560 614.57727
630.0 0.001587 511.19739 615.29230
630.0 0.001587 511.18918 616.15424
621.0 0.001610 511.18097 617.16357
625.0 0.001600 511.17279 618.32111
625.0 0.001600 511.16461 619.62640
628.0 0.001592 511.15643 621.07928
630.0 0.001587 511.14825 622.67926
630.0 0.001587 511.14008 624.42462
624.0 0.001603 511.13193 626.31372
618.0 0.001618 511.12378 628.34363
622.0 0.001608 511.11563 630.51080
626.0 0.001597 511.10748 632.81061
621.0 0.001610 511.09933 635.23694
621.0 0.001610 511.09122 637.78296
633.0 0.001580 511.08310 640.43964
640.0 0.001563 511.07498 643.19635
637.0 0.001570 511.06686 646.04077
629.0 0.001590 511.05875 648.95825
640.0 0.001563 511.05066 651.93170
650.0 0.001538 511.04257 654.94196
650.0 0.001538 511.03448 657.96729
652.0 0.001534 511.02640 660.98340
647.0 0.001546 511.01834 663.96332
648.0 0.001543 511.01025 666.87817
658.0 0.001520 511.00220 669.69659
661.0 0.001513 510.99414 672.38580
665.0 0.001504 510.98611 674.91193
668.0 0.001497 510.97806 677.24036
662.0 0.001511 510.97003 679.33655
661.0 0.001513 510.96201 681.16766
667.0 0.001499 510.95398 682.70221
671.0 0.001490 510.94598 683.91168
674.0 0.001484 510.93796 684.77185
662.0 0.001511 510.92996 685.26288
668.0 0.001497 510.92197 685.37012
664.0 0.001506 510.91397 685.08514
670.0 0.001493 510.90598 684.40582
670.0 0.001493 510.89801 683.33588
668.0 0.001497 510.89005 681.88544
661.0 0.001513 510.88208 680.07031
665.0 0.001504 510.87411 677.91113
667.0 0.001499 510.86618 675.43359
665.0 0.001504 510.85822 672.66571
665.0 0.001504 510.85028 669.63873
660.0 0.001515 510.84235 666.38525
663.0 0.001508 510.83444 662.93884
665.0 0.001504 510.82651 659.33228
667.0 0.001499 510.81860 655.59802
658.0 0.001520 510.81070 651.76678
653.0 0.001531 510.80280 647.86774
645.0 0.001550 510.79489 643.92761
642.0 0.001558 510.78702 639.97046
645.0 0.001550 510.77911 636.01831
647.0 0.001546 510.77124 632.09027
642.0 0.001558 510.76337 628.20331
641.0 0.001560 510.75552 624.37158
639.0 0.001565 510.74765 620.60736
638.0 0.001567 510.73981 616.92059
629.0 0.001590 510.73196 613.31940
627.0 0.001595 510.72412 609.81049
623.0 0.001605 510.71631 606.39880
618.0 0.001618 510.70847 603.08771
627.0 0.001595 510.70065 599.87988
619.0 0.001616 510.69284 596.77692
611.0 0.001637 510.68506 593.77936
602.0 0.001661 510.67725 590.88702
593.0 0.001686 510.66946 588.09930
585.0 0.001709 510.66168 585.41504
589.0 0.001698 510.65390 582.83240
585.0 0.001709 510.64612 580.34967
587.0 0.001704 510.63834 577.96448
582.0 0.001718 510.63058 575.67426
577.0 0.001733 510.62283 573.47656
576.0 0.001736 510.61508 571.36853
573.0 0.001745 510.60733 569.34741
577.0 0.001733 510.59961 567.41010
574.0 0.001742 510.59189 565.55389
567.0 0.001764 510.58414 563.77570
571.0 0.001751 510.57645 562.07263
573.0 0.001745 510.56873 560.44165
567.0 0.001764 510.56104 558.88007
565.0 0.001770 510.55331 557.38495
563.0 0.001776 510.54562 555.95349
565.0 0.001770 510.53796 554.58289
559.0 0.001789 510.53027 553.27057
558.0 0.001792 510.52261 552.01416
558.0 0.001792 510.51492 550.81073
555.0 0.001802 510.50726 549.65814
558.0 0.001792 510.49963 548.55396
552.0 0.001812 510.49197 547.49591
551.0 0.001815 510.48434 546.48187
549.0 0.001821 510.47668 545.50970
546.0 0.001832 510.46909 544.57727
545.0 0.001835 510.46146 543.68286
547.0 0.001828 510.45383 542.82440
546.0 0.001832 510.44623 542.00043
538.0 0.001859 510.43863 541.20892
541.0 0.001848 510.43103 540.44849
546.0 0.001832 510.42343 539.71759
546.0 0.001832 510.41586 539.01447
545.0 0.001835 510.40826 538.33820
542.0 0.001845 510.40070 537.68713
542.0 0.001845 510.39313 537.06012
541.0 0.001848 510.38556 536.45605
538.0 0.001859 510.37802 535.87360
539.0 0.001855 510.37048 535.31201
544.0 0.001838 510.36295 534.77002
548.0 0.001825 510.35541 534.24683
541.0 0.001848 510.34787 533.74139
542.0 0.001845 510.34033 533.25305
540.0 0.001852 510.33282 532.78082
542.0 0.001845 510.32532 532.32416
541.0 0.001848 510.31781 531.88208
539.0 0.001855 510.31033 531.45410
541.0 0.001848 510.30283 531.03961
540.0 0.001852 510.29535 530.63782
535.0 0.001869 510.28787 530.24835
530.0 0.001887 510.28040 529.87073
533.0 0.001876 510.27292 529.50415
535.0 0.001869 510.26547 529.14838
534.0 0.001873 510.25803 528.80286
532.0 0.001880 510.25058 528.46729
535.0 0.001869 510.24313 528.14117
539.0 0.001855 510.23569 527.82410
532.0 0.001880 510.22827 527.51581
526.0 0.001901 510.22086 527.21582
531.0 0.001883 510.21344 526.92389
529.0 0.001890 510.20602 526.63983
528.0 0.001894 510.19861 526.36310
529.0 0.001890 510.19122 526.09363
526.0 0.001901 510.18384 525.83105
529.0 0.001890 510.17645 525.57513
531.0 0.001883 510.16907 525.32562
533.0 0.001876 510.16168 525.08234
537.0 0.001862 510.15433 524.84497
537.0 0.001862 510.14697 524.61340
535.0 0.001869 510.13962 524.38751
530.0 0.001887 510.13226 524.16693
532.0 0.001880 510.12491 523.95160
535.0 0.001869 510.11758 523.74121
532.0 0.001880 510.11026 523.53577
528.0 0.001894 510.10291 523.33502
530.0 0.001887 510.09561 523.13879
527.0 0.001898 510.08829 522.94708
527.0 0.001898 510.08099 522.75958
524.0 0.001908 510.07370 522.57623
530.0 0.001887 510.06641 522.39685
529.0 0.001890 510.05911 522.22137
528.0 0.001894 510.05182 522.04974
527.0 0.001898 510.04456 521.88165
527.0 0.001898 510.03729 521.71722
528.0 0.001894 510.03003 521.55615
527.0 0.001898 510.02277 521.39844
524.0 0.001908 510.01550 521.24402
523.0 0.001912 510.00827 521.09271
527.0 0.001898 510.00101 520.94446
523.0 0.001912 509.99380 520.79919
522.0 0.001916 509.98657 520.65674
526.0 0.001901 509.97934 520.51715
527.0 0.001898 509.97214 520.38025
527.0 0.001898 509.96490 520.24603
528.0 0.001894 509.95770 520.11438
530.0 0.001887 509.95053 519.98529
528.0 0.001894 509.94333 519.85858
528.0 0.001894 509.93616 519.73425
530.0 0.001887 509.92896 519.61224
531.0 0.001883 509.92178 519.49249
530.0 0.001887 509.91461 519.37488
523.0 0.001912 509.90747 519.25940
518.0 0.001931 509.90030 519.14606
521.0 0.001919 509.89316 519.03473
522.0 0.001916 509.88602 518.92535
522.0 0.001916 509.87888 518.81787
523.0 0.001912 509.87173 518.71234
523.0 0.001912 509.86462 518.60846
522.0 0.001916 509.85751 518.50647
517.0 0.001934 509.85037 518.40625
514.0 0.001946 509.84326 518.30768
518.0 0.001931 509.83618 518.21082
518.0 0.001931 509.82907 518.11548
514.0 0.001946 509.82199 518.02173
520.0 0.001923 509.81491 517.92950
520.0 0.001923 509.80783 517.83881
520.0 0.001923 509.80075 517.74951
518.0 0.001931 509.79370 517.66168
521.0 0.001919 509.78662 517.57520
521.0 0.001919 509.77957 517.49017
525.0 0.001905 509.77252 517.40643
523.0 0.001912 509.76547 517.32397
518.0 0.001931 509.75845 517.24280
523.0 0.001912 509.75140 517.16284
522.0 0.001916 509.74438 517.08411
522.0 0.001916 509.73737 517.00659
522.0 0.001916 509.73035 516.93011
519.0 0.001927 509.72336 516.85486
523.0 0.001912 509.71634 516.78076
523.0 0.001912 509.70935 516.70764
516.0 0.001938 509.70236 516.63562
523.0 0.001912 509.69537 516.56458
519.0 0.001927 509.68839 516.49463
517.0 0.001934 509.68143 516.42572
513.0 0.001949 509.67444 516.35767
514.0 0.001946 509.66748 516.29059
519.0 0.001927 509.66052 516.22443
523.0 0.001912 509.65359 516.15924
520.0 0.001923 509.64664 516.09485
524.0 0.001908 509.63971 516.03149
521.0 0.001919 509.63278 515.96881
519.0 0.001927 509.62585 515.90704
518.0 0.001931 509.61893 515.84607
515.0 0.001942 509.61200 515.78601
515.0 0.001942 509.60510 515.72662
518.0 0.001931 509.59818 515.66797
524.0 0.001908 509.59128 515.61017
527.0 0.001898 509.58441 515.55310
523.0 0.001912 509.57751 515.49677
523.0 0.001912 509.57062 515.44104
519.0 0.001927 509.56375 515.38617
521.0 0.001919 509.55688 515.33197
517.0 0.001934 509.55002 515.27826
515.0 0.001942 509.54315 515.22528
520.0 0.001923 509.53632 515.17303
517.0 0.001934 509.52945 515.12134
518.0 0.001931 509.52261 515.07031
518.0 0.001931 509.51578 515.01996
517.0 0.001934 509.50894 514.97009
521.0 0.001919 509.50211 514.92084
521.0 0.001919 509.49530 514.87219
525.0 0.001905 509.48849 514.82416
519.0 0.001927 509.48166 514.77649
516.0 0.001938 509.47485 514.72961
517.0 0.001934 509.46808 514.68311
517.0 0.001934 509.46127 514.63715
515.0 0.001942 509.45450 514.59180
521.0 0.001919 509.44769 514.54681
518.0 0.001931 509.44095 514.50244
521.0 0.001919 509.43417 514.45850
513.0 0.001949 509.42740 514.41504
517.0 0.001934 509.42065 514.37207
517.0 0.001934 509.41388 514.32953
515.0 0.001942 509.40714 514.28748
520.0 0.001923 509.40039 514.24591
521.0 0.001919 509.39365 514.20471
520.0 0.001923 509.38693 514.16400
513.0 0.001949 509.38019 514.12372
512.0 0.001953 509.37347 514.08386
512.0 0.001953 509.36676 514.04431
517.0 0.001934 509.36005 514.00525
516.0 0.001938 509.35333 513.96661
516.0 0.001938 509.34665 513.92834
519.0 0.001927 509.33994 513.89038
519.0 0.001927 509.33325 513.85291
517.0 0.001934 509.32657 513.81573
515.0 0.001942 509.31989 513.77899
516.0 0.001938 509.31323 513.74255
515.0 0.001942 509.30655 513.70648
512.0 0.001953 509.29990 513.67078
510.0 0.001961 509.29324 513.63538
517.0 0.001934 509.28659 513.60040
520.0 0.001923 509.27994 513.56567
517.0 0.001934 509.27328 513.53125
515.0 0.001942 509.26666 513.49725
518.0 0.001931 509.26004 513.46350
520.0 0.001923 509.25342 513.43011
524.0 0.001908 509.24680 513.39697
522.0 0.001916 509.24017 513.36414
520.0 0.001923 509.23355 513.33160
519.0 0.001927 509.22696 513.29944
515.0 0.001942 509.22037 513.26752
511.0 0.001957 509.21375 513.23584
518.0 0.001931 509.20718 513.20441
517.0 0.001934 509.20059 513.17340
517.0 0.001934 509.19400 513.14252
514.0 0.001946 509.18744 513.11200
515.0 0.001942 509.18088 513.08173
511.0 0.001957 509.17432 513.05170
509.0 0.001965 509.16776 513.02191
510.0 0.001961 509.16119 512.99237
516.0 0.001938 509.15463 512.96307
513.0 0.001949 509.14810 512.93408
514.0 0.001946 509.14157 512.90533
511.0 0.001957 509.13504 512.87677
509.0 0.001965 509.12851 512.84845
514.0 0.001946 509.12198 512.82031
516.0 0.001938 509.11545 512.79248
512.0 0.001953 509.10895 512.76483
511.0 0.001957 509.10245 512.73743
510.0 0.001961 509.09595 512.71027
514.0 0.001946 509.08945 512.68335
517.0 0.001934 509.08295 512.65649
514.0 0.001946 509.07648 512.62994
518.0 0.001931 509.06998 512.60358
521.0 0.001919 509.06351 512.57745
517.0 0.001934 509.05704 512.55151
513.0 0.001949 509.05057 512.52570
515.0 0.001942 509.04410 512.50018
515.0 0.001942 509.03766 512.47491
515.0 0.001942 509.03119 512.44965
512.0 0.001953 509.02475 512.42468
515.0 0.001942 509.01831 512.39996
510.0 0.001961 509.01187 512.37537
509.0 0.001965 509.00543 512.35083
514.0 0.001946 508.99899 512.32660
512.0 0.001953 508.99258 512.30255
511.0 0.001957 508.98618 512.27863
505.0 0.001980 508.97974 512.25488
510.0 0.001961 508.97333 512.23138
511.0 0.001957 508.96695 512.20795
511.0 0.001957 508.96054 512.18469
516.0 0.001938 508.95413 512.16168
515.0 0.001942 508.94775 512.13867
517.0 0.001934 508.94138 512.11597
515.0 0.001942 508.93500 512.09332
515.0 0.001942 508.92862 512.07092
515.0 0.001942 508.92224 512.04865
515.0 0.001942 508.91586 512.02649
518.0 0.001931 508.90952 512.00452
516.0 0.001938 508.90317 511.98264
512.0 0.001953 508.89682 511.96100
515.0 0.001942 508.89047 511.93945
513.0 0.001949 508.88412 511.91803
518.0 0.001931 508.87778 511.89673
516.0 0.001938 508.87146 511.87552
519.0 0.001927 508.86511 511.85458
519.0 0.001927 508.85880 511.83371
516.0 0.001938 508.85248 511.81290
522.0 0.001916 508.84616 511.79236
515.0 0.001942 508.83984 511.77188
517.0 0.001934 508.83356 511.75162
512.0 0.001953 508.82724 511.73138
518.0 0.001931 508.82095 511.71118
513.0 0.001949 508.81467 511.69119
515.0 0.001942 508.80838 511.67139
511.0 0.001957 508.80209 511.65167
512.0 0.001953 508.79581 511.63208
509.0 0.001965 508.78955 511.61261
506.0 0.001976 508.78326 511.59320
512.0 0.001953 508.77701 511.57401
513.0 0.001949 508.77075 511.55481
513.0 0.001949 508.76450 511.53580
512.0 0.001953 508.75824 511.51688
510.0 0.001961 508.75198 511.49811
510.0 0.001961 508.74576 511.47934
513.0 0.001949 508.73950 511.46078
516.0 0.001938 508.73328 511.44232
513.0 0.001949 508.72705 511.42395
515.0 0.001942 508.72083 511.40567
516.0 0.001938 508.71460 511.38754
516.0 0.001938 508.70840 511.36951
510.0 0.001961 508.70218 511.35147
512.0 0.001953 508.69598 511.33359
519.0 0.001927 508.68976 511.31577
521.0 0.001919 508.68356 511.29813
517.0 0.001934 508.67737 511.28052
516.0 0.001938 508.67117 511.26303
515.0 0.001942 508.66501 511.24561
512.0 0.001953 508.65881 511.22836
511.0 0.001957 508.65265 511.21115
512.0 0.001953 508.64645 511.19409
515.0 0.001942 508.64029 511.17700
511.0 0.001957 508.63412 511.16006
510.0 0.001961 508.62796 511.14325
513.0 0.001949 508.62183 511.12650
517.0 0.001934 508.61566 511.10983
514.0 0.001946 508.60953 511.09320
514.0 0.001946 508.60336 511.07675
515.0 0.001942 508.59723 511.06036
519.0 0.001927 508.59109 511.04398
514.0 0.001946 508.58496 511.02768
514.0 0.001946 508.57883 511.01154
518.0 0.001931 508.57272 510.99545
513.0 0.001949 508.56659 510.97937
514.0 0.001946 508.56049 510.96344
514.0 0.001946 508.55438 510.94760
518.0 0.001931 508.54828 510.93185
517.0 0.001934 508.54218 510.91617
516.0 0.001938 508.53607 510.90048
516.0 0.001938 508.52997 510.88498
509.0 0.001965 508.52386 510.86948
513.0 0.001949 508.51779 510.85410
510.0 0.001961 508.51172 510.83865
506.0 0.001976 508.50565 510.82343
514.0 0.001946 508.49954 510.80823
515.0 0.001942 508.49347 510.79315
512.0 0.001953 508.48743 510.77808
504.0 0.001984 508.48135 510.76309
505.0 0.001980 508.47528 510.74820
510.0 0.001961 508.46924 510.73334
509.0 0.001965 508.46320 510.71851
507.0 0.001972 508.45712 510.70380
506.0 0.001976 508.45108 510.68915
508.0 0.001969 508.44504 510.67459
507.0 0.001972 508.43903 510.66003
510.0 0.001961 508.43298 510.64563
512.0 0.001953 508.42694 510.63126
512.0 0.001953 508.42093 510.61691
508.0 0.001969 508.41492 510.60263
503.0 0.001988 508.40891 510.58838
507.0 0.001972 508.40286 510.57428
510.0 0.001961 508.39688 510.56018
510.0 0.001961 508.39087 510.54614
512.0 0.001953 508.38486 510.53214
511.0 0.001957 508.37885 510.51828
502.0 0.001992 508.37286 510.50452
511.0 0.001957 508.36688 510.49066
511.0 0.001957 508.36087 510.47693
513.0 0.001949 508.35489 510.46329
515.0 0.001942 508.34891 510.44962
510.0 0.001961 508.34293 510.43604
509.0 0.001965 508.33698 510.42252
512.0 0.001953 508.33099 510.40909
516.0 0.001938 508.32501 510.39563
514.0 0.001946 508.31906 510.38232
507.0 0.001972 508.31311 510.36902
509.0 0.001965 508.30716 510.35574
508.0 0.001969 508.30121 510.34250
504.0 0.001984 508.29526 510.32938
504.0 0.001984 508.28931 510.31635
507.0 0.001972 508.28336 510.30325
511.0 0.001957 508.27740 510.29028
515.0 0.001942 508.27148 510.27731
510.0 0.001961 508.26556 510.26443
506.0 0.001976 508.25961 510.25165
511.0 0.001957 508.25369 510.23877
515.0 0.001942 508.24777 510.22607
510.0 0.001961 508.24185 510.21335
513.0 0.001949 508.23593 510.20068
515.0 0.001942 508.23004 510.18805
509.0 0.001965 508.22412 510.17551
511.0 0.001957 508.21820 510.16293
512.0 0.001953 508.21231 510.15051
514.0 0.001946 508.20642 510.13806
515.0 0.001942 508.20053 510.12567
510.0 0.001961 508.19461 510.11334
512.0 0.001953 508.18872 510.10107
508.0 0.001969 508.18286 510.08878
506.0 0.001976 508.17697 510.07663
510.0 0.001961 508.17108 510.06442
513.0 0.001949 508.16522 510.05231
509.0 0.001965 508.15933 510.04022
511.0 0.001957 508.15347 510.02817
504.0 0.001984 508.14761 510.01624
505.0 0.001980 508.14175 510.00424
510.0 0.001961 508.13589 509.99228
505.0 0.001980 508.13004 509.98050
505.0 0.001980 508.12418 509.96863
506.0 0.001976 508.11832 509.95685
512.0 0.001953 508.11246 509.94504
512.0 0.001953 508.10663 509.93335
508.0 0.001969 508.10077 509.92163
513.0 0.001949 508.09494 509.91000
511.0 0.001957 508.08911 509.89841
511.0 0.001957 508.08328 509.88687
510.0 0.001961 508.07745 509.87527
515.0 0.001942 508.07162 509.86389
514.0 0.001946 508.06580 509.85236
514.0 0.001946 508.05997 509.84097
518.0 0.001931 508.05414 509.82956
514.0 0.001946 508.04834 509.81824
513.0 0.001949 508.04251 509.80695
506.0 0.001976 508.03671 509.79562
506.0 0.001976 508.03091 509.78439
509.0 0.001965 508.02509 509.77319
509.0 0.001965 508.01929 509.76202
508.0 0.001969 508.01349 509.75095
510.0 0.001961 508.00769 509.73978
509.0 0.001965 508.00192 509.72876
513.0 0.001949 507.99612 509.71774
510.0 0.001961 507.99033 509.70663
507.0 0.001972 507.98456 509.69571
512.0 0.001953 507.97876 509.68478
510.0 0.001961 507.97299 509.67389
510.0 0.001961 507.96719 509.66296
509.0 0.001965 507.96143 509.65216
508.0 0.001969 507.95566 509.64136
507.0 0.001972 507.94989 509.63055
509.0 0.001965 507.94412 509.61984
507.0 0.001972 507.93835 509.60910
507.0 0.001972 507.93262 509.59842
507.0 0.001972 507.92685 509.58777
505.0 0.001980 507.92108 509.57709
507.0 0.001972 507.91534 509.56656
510.0 0.001961 507.90958 509.55597
512.0 0.001953 507.90384 509.54544
514.0 0.001946 507.89810 509.53494
510.0 0.001961 507.89233 509.52444
508.0 0.001969 507.88660 509.51401
512.0 0.001953 507.88086 509.50360
507.0 0.001972 507.87512 509.49313
508.0 0.001969 507.86938 509.48282
509.0 0.001965 507.86368 509.47244
508.0 0.001969 507.85794 509.46216
507.0 0.001972 507.85220 509.45193
507.0 0.001972 507.84650 509.44165
505.0 0.001980 507.84076 509.43143
507.0 0.001972 507.83505 509.42123
506.0 0.001976 507.82932 509.41098
509.0 0.001965 507.82361 509.40091
518.0 0.001931 507.81790 509.39072
513.0 0.001949 507.81219 509.38065
507.0 0.001972 507.80649 509.37057
505.0 0.001980 507.80078 509.36053
510.0 0.001961 507.79507 509.35052
511.0 0.001957 507.78937 509.34055
508.0 0.001969 507.78366 509.33060
510.0 0.001961 507.77798 509.32068
512.0 0.001953 507.77228 509.31073
516.0 0.001938 507.76660 509.30087
513.0 0.001949 507.76089 509.29095
508.0 0.001969 507.75522 509.28113
513.0 0.001949 507.74951 509.27124
509.0 0.001965 507.74384 509.26151
507.0 0.001972 507.73816 509.25168
506.0 0.001976 507.73248 509.24194
510.0 0.001961 507.72681 509.23224
512.0 0.001953 507.72113 509.22250
508.0 0.001969 507.71545 509.21289
505.0 0.001980 507.70978 509.20316
503.0 0.001988 507.70410 509.19360
506.0 0.001976 507.69846 509.18396
510.0 0.001961 507.69278 509.17435
505.0 0.001980 507.68710 509.16476
507.0 0.001972 507.68146 509.15521
511.0 0.001957 507.67578 509.14575
506.0 0.001976 507.67014 509.13620
511.0 0.001957 507.66449 509.12674
514.0 0.001946 507.65881 509.11722
514.0 0.001946 507.65317 509.10782
518.0 0.001931 507.64752 509.09836
514.0 0.001946 507.64188 509.08905
511.0 0.001957 507.63623 509.07962
513.0 0.001949 507.63058 509.07028
511.0 0.001957 507.62494 509.06094
512.0 0.001953 507.61929 509.05161
510.0 0.001961 507.61365 509.04233
513.0 0.001949 507.60800 509.03302
511.0 0.001957 507.60239 509.02380
508.0 0.001969 507.59674 509.01456
508.0 0.001969 507.59109 509.00534
505.0 0.001980 507.58548 508.99615
507.0 0.001972 507.57983 508.98697
509.0 0.001965 507.57422 508.97778
508.0 0.001969 507.56860 508.96866
511.0 0.001957 507.56296 508.95953
513.0 0.001949 507.55734 508.95044
510.0 0.001961 507.55173 508.94138
511.0 0.001957 507.54611 508.93237
515.0 0.001942 507.54047 508.92322
515.0 0.001942 507.53485 508.91428
510.0 0.001961 507.52924 508.90518
505.0 0.001980 507.52362 508.89621
507.0 0.001972 507.51801 508.88721
510.0 0.001961 507.51239 508.87830
506.0 0.001976 507.50681 508.86938
511.0 0.001957 507.50119 508.86041
509.0 0.001965 507.49557 508.85150
511.0 0.001957 507.48999 508.84262
509.0 0.001965 507.48438 508.83377
513.0 0.001949 507.47876 508.82489
516.0 0.001938 507.47318 508.81607
511.0 0.001957 507.46756 508.80728
512.0 0.001953 507.46198 508.79846
514.0 0.001946 507.45636 508.78967
510.0 0.001961 507.45078 508.78094
513.0 0.001949 507.44516 508.77213
510.0 0.001961 507.43958 508.76340
508.0 0.001969 507.43399 508.75470
511.0 0.001957 507.42841 508.74603
506.0 0.001976 507.42279 508.73730
508.0 0.001969 507.41721 508.72861
512.0 0.001953 507.41162 508.71994
515.0 0.001942 507.40604 508.71136
514.0 0.001946 507.40045 508.70264
510.0 0.001961 507.39487 508.69403
508.0 0.001969 507.38928 508.68552
505.0 0.001980 507.38370 508.67685
502.0 0.001992 507.37811 508.66833
500.0 0.002000 507.37253 508.65979
507.0 0.001972 507.36697 508.65121
507.0 0.001972 507.36139 508.64273
506.0 0.001976 507.35580 508.63428
504.0 0.001984 507.35022 508.62576
505.0 0.001980 507.34467 508.61731
509.0 0.001965 507.33908 508.60883
508.0 0.001969 507.33350 508.60034
510.0 0.001961 507.32794 508.59192
511.0 0.001957 507.32236 508.58344
512.0 0.001953 507.31677 508.57510
510.0 0.001961 507.31122 508.56665
503.0 0.001988 507.30566 508.55826
510.0 0.001961 507.30008 508.54993
512.0 0.001953 507.29453 508.54160
510.0 0.001961 507.28894 508.53317
512.0 0.001953 507.28339 508.52487
508.0 0.001969 507.27780 508.51657
511.0 0.001957 507.27225 508.50827
507.0 0.001972 507.26669 508.49997
503.0 0.001988 507.26114 508.49173
512.0 0.001953 507.25555 508.48343
508.0 0.001969 507.25000 508.47525
507.0 0.001972 507.24445 508.46695
505.0 0.001980 507.23889 508.45877
505.0 0.001980 507.23331 508.45056
506.0 0.001976 507.22775 508.44235
505.0 0.001980 507.22220 508.43411
507.0 0.001972 507.21664 508.42596
511.0 0.001957 507.21109 508.41782
510.0 0.001961 507.20554 508.40967
511.0 0.001957 507.19998 508.40149
508.0 0.001969 507.19443 508.39340
504.0 0.001984 507.18887 508.38525
511.0 0.001957 507.18332 508.37723
508.0 0.001969 507.17776 508.36914
505.0 0.001980 507.17221 508.36099
510.0 0.001961 507.16666 508.35300
508.0 0.001969 507.16110 508.34491
506.0 0.001976 507.15555 508.33688
508.0 0.001969 507.14999 508.32880
509.0 0.001965 507.14444 508.32077
504.0 0.001984 507.13889 508.31277
503.0 0.001988 507.13333 508.30481
507.0 0.001972 507.12781 508.29684
505.0 0.001980 507.12225 508.28885
507.0 0.001972 507.11670 508.28088
509.0 0.001965 507.11115 508.27286
503.0 0.001988 507.10559 508.26495
500.0 0.002000 507.10004 508.25699
505.0 0.001980 507.09448 508.24905
507.0 0.001972 507.08896 508.24118
512.0 0.001953 507.08340 508.23325
511.0 0.001957 507.07785 508.22540
512.0 0.001953 507.07230 508.21750
507.0 0.001972 507.06677 508.20963
503.0 0.001988 507.06122 508.20178
506.0 0.001976 507.05566 508.19394
507.0 0.001972 507.05011 508.18600
509.0 0.001965 507.04456 508.17825
507.0 0.001972 507.03903 508.17038
506.0 0.001976 507.03348 508.16254
508.0 0.001969 507.02792 508.15475
504.0 0.001984 507.02237 508.14700
507.0 0.001972 507.01685 508.13922
509.0 0.001965 507.01129 508.13144
510.0 0.001961 507.00574 508.12366
513.0 0.001949 507.00018 508.11594
505.0 0.001980 506.99466 508.10818
510.0 0.001961 506.98911 508.10049
510.0 0.001961 506.98355 508.09271
510.0 0.001961 506.97800 508.08499
508.0 0.001969 506.97247 508.07733
510.0 0.001961 506.96692 508.06958
511.0 0.001957 506.96136 508.06192
508.0 0.001969 506.95581 508.05420
502.0 0.001992 506.95029 508.04651
511.0 0.001957 506.94473 508.03894
507.0 0.001972 506.93918 508.03128
505.0 0.001980 506.93362 508.02356
503.0 0.001988 506.92807 508.01590
507.0 0.001972 506.92252 508.00830
508.0 0.001969 506.91699 508.00067
509.0 0.001965 506.91144 507.99301
507.0 0.001972 506.90588 507.98544
507.0 0.001972 506.90033 507.97778
508.0 0.001969 506.89478 507.97021
508.0 0.001969 506.88922 507.96271
508.0 0.001969 506.88367 507.95508
512.0 0.001953 506.87811 507.94757
504.0 0.001984 506.87259 507.94000
505.0 0.001980 506.86703 507.93243
508.0 0.001969 506.86148 507.92487
509.0 0.001965 506.85593 507.91739
509.0 0.001965 506.85037 507.90982
512.0 0.001953 506.84482 507.90231
506.0 0.001976 506.83926 507.89474
509.0 0.001965 506.83371 507.88721
504.0 0.001984 506.82816 507.87976
501.0 0.001996 506.82260 507.87228
504.0 0.001984 506.81702 507.86481
503.0 0.001988 506.81146 507.85733
506.0 0.001976 506.80591 507.84985
501.0 0.001996 506.80035 507.84241
498.0 0.002008 506.79480 507.83493
503.0 0.001988 506.78925 507.82742
508.0 0.001969 506.78369 507.81998
508.0 0.001969 506.77811 507.81259
499.0 0.002004 506.77255 507.80515
506.0 0.001976 506.76700 507.79776
508.0 0.001969 506.76144 507.79031
512.0 0.001953 506.75586 507.78293
509.0 0.001965 506.75031 507.77548
507.0 0.001972 506.74475 507.76819
506.0 0.001976 506.73917 507.76077
505.0 0.001980 506.73361 507.75342
508.0 0.001969 506.72803 507.74600
511.0 0.001957 506.72247 507.73865
506.0 0.001976 506.71689 507.73129
510.0 0.001961 506.71133 507.72394
505.0 0.001980 506.70575 507.71658
506.0 0.001976 506.70020 507.70923
505.0 0.001980 506.69461 507.70193
506.0 0.001976 506.68903 507.69458
508.0 0.001969 506.68347 507.68729
511.0 0.001957 506.67789 507.67996
511.0 0.001957 506.67230 507.67261
506.0 0.001976 506.66675 507.66531
506.0 0.001976 506.66116 507.65802
506.0 0.001976 506.65558 507.65076
502.0 0.001992 506.64999 507.64343
505.0 0.001980 506.64441 507.63608
502.0 0.001992 506.63882 507.62881
507.0 0.001972 506.63324 507.62158
507.0 0.001972 506.62766 507.61429
505.0 0.001980 506.62207 507.60706
508.0 0.001969 506.61649 507.59979
510.0 0.001961 506.61090 507.59256
510.0 0.001961 506.60532 507.58533
512.0 0.001953 506.59973 507.57813
509.0 0.001965 506.59412 507.57089
512.0 0.001953 506.58853 507.56363
507.0 0.001972 506.58295 507.55643
508.0 0.001969 506.57736 507.54916
504.0 0.001984 506.57175 507.54196
510.0 0.001961 506.56616 507.53479
508.0 0.001969 506.56055 507.52762
506.0 0.001976 506.55496 507.52042
509.0 0.001965 506.54935 507.51321
516.0 0.001938 506.54373 507.50604
512.0 0.001953 506.53815 507.49887
510.0 0.001961 506.53253 507.49167
507.0 0.001972 506.52692 507.48453
508.0 0.001969 506.52133 507.47726
507.0 0.001972 506.51572 507.47015
507.0 0.001972 506.51010 507.46298
507.0 0.001972 506.50449 507.45587
504.0 0.001984 506.49887 507.44870
502.0 0.001992 506.49326 507.44156
505.0 0.001980 506.48764 507.43445
501.0 0.001996 506.48203 507.42731
508.0 0.001969 506.47641 507.42023
510.0 0.001961 506.47076 507.41315
508.0 0.001969 506.46515 507.40588
507.0 0.001972 506.45953 507.39880
506.0 0.001976 506.45389 507.39169
509.0 0.001965 506.44827 507.38461
507.0 0.001972 506.44266 507.37750
507.0 0.001972 506.43701 507.37033
510.0 0.001961 506.43137 507.36328
510.0 0.001961 506.42575 507.35620
511.0 0.001957 506.42010 507.34915
514.0 0.001946 506.41446 507.34204
509.0 0.001965 506.40884 507.33499
511.0 0.001957 506.40320 507.32785
506.0 0.001976 506.39755 507.32077
505.0 0.001980 506.39191 507.31372
505.0 0.001980 506.38626 507.30670
506.0 0.001976 506.38062 507.29965
503.0 0.001988 506.37497 507.29263
503.0 0.001988 506.36929 507.28552
503.0 0.001988 506.36365 507.27847
503.0 0.001988 506.35800 507.27142
506.0 0.001976 506.35236 507.26443
500.0 0.002000 506.34668 507.25732
503.0 0.001988 506.34100 507.25034
505.0 0.001980 506.33536 507.24329
503.0 0.001988 506.32968 507.23630
508.0 0.001969 506.32404 507.22925
509.0 0.001965 506.31836 507.22223
512.0 0.001953 506.31268 507.21524
513.0 0.001949 506.30701 507.20819
506.0 0.001976 506.30133 507.20120
502.0 0.001992 506.29565 507.19431
502.0 0.001992 506.28998 507.18723
506.0 0.001976 506.28430 507.18021
501.0 0.001996 506.27863 507.17322
505.0 0.001980 506.27295 507.16626
508.0 0.001969 506.26724 507.15927
507.0 0.001972 506.26157 507.15222
506.0 0.001976 506.25586 507.14523
508.0 0.001969 506.25018 507.13824
506.0 0.001976 506.24448 507.13129
507.0 0.001972 506.23877 507.12433
499.0 0.002004 506.23309 507.11740
503.0 0.001988 506.22739 507.11038
510.0 0.001961 506.22168 507.10345
503.0 0.001988 506.21597 507.09647
504.0 0.001984 506.21027 507.08948
505.0 0.001980 506.20456 507.08258
505.0 0.001980 506.19885 507.07565
501.0 0.001996 506.19315 507.06866
501.0 0.001996 506.18741 507.06168
505.0 0.001980 506.18170 507.05478
503.0 0.001988 506.17596 507.04788
506.0 0.001976 506.17026 507.04086
505.0 0.001980 506.16452 507.03394
504.0 0.001984 506.15878 507.02701
508.0 0.001969 506.15308 507.02014
508.0 0.001969 506.14734 507.01318
507.0 0.001972 506.14160 507.00629
502.0 0.001992 506.13586 506.99939
503.0 0.001988 506.13013 506.99237
510.0 0.001961 506.12439 506.98544
506.0 0.001976 506.11862 506.97855
508.0 0.001969 506.11288 506.97168
507.0 0.001972 506.10715 506.96475
506.0 0.001976 506.10138 506.95786
502.0 0.001992 506.09561 506.95096
502.0 0.001992 506.08987 506.94409
504.0 0.001984 506.08411 506.93710
503.0 0.001988 506.07834 506.93018
506.0 0.001976 506.07257 506.92334
505.0 0.001980 506.06680 506.91647
509.0 0.001965 506.06104 506.90948
509.0 0.001965 506.05527 506.90262
504.0 0.001984 506.04950 506.89572
503.0 0.001988 506.04370 506.88892
499.0 0.002004 506.03793 506.88196
499.0 0.002004 506.03214 506.87506
500.0 0.002000 506.02637 506.86826
504.0 0.001984 506.02057 506.86136
502.0 0.001992 506.01477 506.85452
504.0 0.001984 506.00900 506.84763
503.0 0.001988 506.00320 506.84070
503.0 0.001988 505.99741 506.83386
504.0 0.001984 505.99158 506.82693
510.0 0.001961 505.98578 506.82013
510.0 0.001961 505.97998 506.81323
508.0 0.001969 505.97418 506.80637
508.0 0.001969 505.96835 506.79950
506.0 0.001976 505.96255 506.79260
504.0 0.001984 505.95673 506.78577
508.0 0.001969 505.95090 506.77896
505.0 0.001980 505.94507 506.77209
503.0 0.001988 505.93924 506.76532
503.0 0.001988 505.93341 506.75842
503.0 0.001988 505.92758 506.75150
502.0 0.001992 505.92175 506.74460
502.0 0.001992 505.91592 506.73779
499.0 0.002004 505.91006 506.73096
502.0 0.001992 505.90424 506.72412
502.0 0.001992 505.89838 506.71729
504.0 0.001984 505.89252 506.71045
501.0 0.001996 505.88669 506.70358
500.0 0.002000 505.88083 506.69675
502.0 0.001992 505.87497 506.68991
501.0 0.001996 505.86911 506.68307
501.0 0.001996 505.86325 506.67627
503.0 0.001988 505.85736 506.66946
508.0 0.001969 505.85150 506.66263
509.0 0.001965 505.84561 506.65573
505.0 0.001980 505.83975 506.64902
509.0 0.001965 505.83386 506.64212
507.0 0.001972 505.82797 506.63519
509.0 0.001965 505.82208 506.62842
508.0 0.001969 505.81619 506.62158
509.0 0.001965 505.81030 506.61478
510.0 0.001961 505.80441 506.60794
508.0 0.001969 505.79852 506.60114
505.0 0.001980 505.79260 506.59433
499.0 0.002004 505.78671 506.58755
500.0 0.002000 505.78079 506.58069
504.0 0.001984 505.77487 506.57385
503.0 0.001988 505.76898 506.56705
502.0 0.001992 505.76306 506.56024
502.0 0.001992 505.75714 506.55341
497.0 0.002012 505.75119 506.54660
496.0 0.002016 505.74527 506.53979
499.0 0.002004 505.73935 506.53302
498.0 0.002008 505.73340 506.52612
500.0 0.002000 505.72748 506.51932
502.0 0.001992 505.72153 506.51257
502.0 0.001992 505.71558 506.50583
500.0 0.002000 505.70963 506.49899
502.0 0.001992 505.70367 506.49216
501.0 0.001996 505.69772 506.48532
507.0 0.001972 505.69177 506.47849
504.0 0.001984 505.68582 506.47171
501.0 0.001996 505.67984 506.46487
503.0 0.001988 505.67389 506.45813
503.0 0.001988 505.66791 506.45129
508.0 0.001969 505.66193 506.44449
505.0 0.001980 505.65594 506.43768
502.0 0.001992 505.64996 506.43097
502.0 0.001992 505.64398 506.42413
502.0 0.001992 505.63800 506.41736
507.0 0.001972 505.63202 506.41055
505.0 0.001980 505.62601 506.40366
506.0 0.001976 505.62003 506.39694
506.0 0.001976 505.61401 506.39011
497.0 0.002012 505.60800 506.38333
501.0 0.001996 505.60199 506.37653
502.0 0.001992 505.59598 506.36972
500.0 0.002000 505.58997 506.36288
503.0 0.001988 505.58395 506.35617
503.0 0.001988 505.57791 506.34933
502.0 0.001992 505.57190 506.34256
502.0 0.001992 505.56586 506.33578
502.0 0.001992 505.55981 506.32901
500.0 0.002000 505.55377 506.32224
504.0 0.001984 505.54773 506.31537
507.0 0.001972 505.54169 506.30862
508.0 0.001969 505.53564 506.30176
507.0 0.001972 505.52960 506.29498
507.0 0.001972 505.52353 506.28818
506.0 0.001976 505.51749 506.28146
503.0 0.001988 505.51141 506.27466
502.0 0.001992 505.50534 506.26788
502.0 0.001992 505.49927 506.26111
502.0 0.001992 505.49319 506.25424
502.0 0.001992 505.48712 506.24747
501.0 0.001996 505.48105 506.24075
506.0 0.001976 505.47495 506.23389
509.0 0.001965 505.46887 506.22714
501.0 0.001996 505.46277 506.22034
502.0 0.001992 505.45667 506.21356
502.0 0.001992 505.45056 506.20673
505.0 0.001980 505.44446 506.19995
501.0 0.001996 505.43835 506.19321
499.0 0.002004 505.43225 506.18640
503.0 0.001988 505.42612 506.17963
501.0 0.001996 505.41998 506.17279
499.0 0.002004 505.41388 506.16608
498.0 0.002008 505.40775 506.15924
497.0 0.002012 505.40161 506.15250
501.0 0.001996 505.39548 506.14569
501.0 0.001996 505.38934 506.13895
498.0 0.002008 505.38318 506.13217
508.0 0.001969 505.37704 506.12531
501.0 0.001996 505.37088 506.11859
502.0 0.001992 505.36475 506.11179
497.0 0.002012 505.35858 506.10507
501.0 0.001996 505.35242 506.09821
505.0 0.001980 505.34625 506.09146
503.0 0.001988 505.34009 506.08469
502.0 0.001992 505.33389 506.07788
503.0 0.001988 505.32773 506.07114
504.0 0.001984 505.32153 506.06433
501.0 0.001996 505.31534 506.05756
500.0 0.002000 505.30914 506.05075
503.0 0.001988 505.30295 506.04398
503.0 0.001988 505.29675 506.03717
497.0 0.002012 505.29056 506.03046
501.0 0.001996 505.28433 506.02371
506.0 0.001976 505.27814 506.01688
503.0 0.001988 505.27191 506.01007
500.0 0.002000 505.26569 506.00327
502.0 0.001992 505.25949 505.99649
503.0 0.001988 505.25323 505.98975
504.0 0.001984 505.24701 505.98288
500.0 0.002000 505.24078 505.97620
502.0 0.001992 505.23453 505.96936
501.0 0.001996 505.22830 505.96262
505.0 0.001980 505.22205 505.95575
504.0 0.001984 505.21579 505.94904
505.0 0.001980 505.20953 505.94223
507.0 0.001972 505.20328 505.93549
506.0 0.001976 505.19699 505.92865
508.0 0.001969 505.19073 505.92191
505.0 0.001980 505.18445 505.91516
508.0 0.001969 505.17819 505.90839
508.0 0.001969 505.17191 505.90152
504.0 0.001984 505.16562 505.89481
507.0 0.001972 505.15933 505.88794
504.0 0.001984 505.15302 505.88123
503.0 0.001988 505.14673 505.87439
502.0 0.001992 505.14041 505.86761
502.0 0.001992 505.13412 505.86081
501.0 0.001996 505.12781 505.85410
502.0 0.001992 505.12149 505.84723
497.0 0.002012 505.11517 505.84045
500.0 0.002000 505.10886 505.83371
504.0 0.001984 505.10251 505.82697
503.0 0.001988 505.09619 505.82019
500.0 0.002000 505.08984 505.81335
498.0 0.002008 505.08350 505.80655
498.0 0.002008 505.07715 505.79980
494.0 0.002024 505.07080 505.79303
496.0 0.002016 505.06445 505.78622
496.0 0.002016 505.05807 505.77939
504.0 0.001984 505.05173 505.80716
502.0 0.001992 505.04535 505.80038
501.0 0.001996 505.03897 505.79373
502.0 0.001992 505.03262 505.78693
505.0 0.001980 505.02621 505.78027
506.0 0.001976 505.01984 505.77350
507.0 0.001972 505.01346 505.76678
508.0 0.001969 505.00705 505.76001
510.0 0.001961 505.00067 505.75327
508.0 0.001969 504.99426 505.74655
508.0 0.001969 504.98785 505.73981
506.0 0.001976 504.98145 505.73312
505.0 0.001980 504.97501 505.72629
503.0 0.001988 504.96860 505.71960
503.0 0.001988 504.96216 505.71283
500.0 0.002000 504.95575 505.70615
502.0 0.001992 504.94931 505.69940
502.0 0.001992 504.94287 505.69263
499.0 0.002004 504.93643 505.68591
500.0 0.002000 504.92996 505.67920
497.0 0.002012 504.92352 505.67245
497.0 0.002012 504.91708 505.66568
498.0 0.002008 504.91061 505.65897
495.0 0.002020 504.90414 505.65225
502.0 0.001992 504.89767 505.64557
502.0 0.001992 504.89120 505.63873
505.0 0.001980 504.88470 505.63202
506.0 0.001976 504.87823 505.62531
503.0 0.001988 504.87173 505.61856
504.0 0.001984 504.86526 505.61182
506.0 0.001976 504.85876 505.60510
500.0 0.002000 504.85226 505.59836
501.0 0.001996 504.84573 505.59164
503.0 0.001988 504.83923 505.58490
505.0 0.001980 504.83273 505.57819
501.0 0.001996 504.82620 505.57144
502.0 0.001992 504.81967 505.56476
505.0 0.001980 504.81314 505.55801
508.0 0.001969 504.80661 505.55121
505.0 0.001980 504.80008 505.54453
500.0 0.002000 504.79352 505.53781
507.0 0.001972 504.78699 505.53110
506.0 0.001976 504.78043 505.52438
502.0 0.001992 504.77386 505.51761
500.0 0.002000 504.76730 505.51089
502.0 0.001992 504.76074 505.50412
502.0 0.001992 504.75418 505.49744
501.0 0.001996 504.74759 505.49069
501.0 0.001996 504.74103 505.48404
505.0 0.001980 504.73444 505.47729
505.0 0.001980 504.72784 505.47055
499.0 0.002004 504.72125 505.46378
502.0 0.001992 504.71466 505.45700
496.0 0.002016 504.70804 505.45035
498.0 0.002008 504.70145 505.44363
499.0 0.002004 504.69482 505.43698
504.0 0.001984 504.68820 505.43021
504.0 0.001984 504.68158 505.42352
506.0 0.001976 504.67496 505.41681
500.0 0.002000 504.66833 505.41003
505.0 0.001980 504.66171 505.40332
506.0 0.001976 504.65506 505.39664
505.0 0.001980 504.64841 505.38995
500.0 0.002000 504.64175 505.38324
500.0 0.002000 504.63510 505.37646
505.0 0.001980 504.62845 505.36972
507.0 0.001972 504.62180 505.36298
505.0 0.001980 504.61511 505.35632
508.0 0.001969 504.60846 505.34970
506.0 0.001976 504.60178 505.34293
498.0 0.002008 504.59509 505.33621
504.0 0.001984 504.58841 505.32950
505.0 0.001980 504.58170 505.32285
508.0 0.001969 504.57501 505.31610
507.0 0.001972 504.56830 505.30939
504.0 0.001984 504.56161 505.30267
507.0 0.001972 504.55490 505.29608
507.0 0.001972 504.54816 505.28928
505.0 0.001980 504.54144 505.28262
504.0 0.001984 504.53473 505.27582
508.0 0.001969 504.52798 505.26917
510.0 0.001961 504.52127 505.26251
503.0 0.001988 504.51453 505.25583
500.0 0.002000 504.50778 505.24911
504.0 0.001984 504.50104 505.24240
506.0 0.001976 504.49429 505.23575
510.0 0.001961 504.48752 505.22903
507.0 0.001972 504.48074 505.22238
511.0 0.001957 504.47400 505.21576
510.0 0.001961 504.46722 505.20895
507.0 0.001972 504.46045 505.20233
505.0 0.001980 504.45364 505.19565
502.0 0.001992 504.44687 505.18893
507.0 0.001972 504.44006 505.18225
508.0 0.001969 504.43329 505.17563
508.0 0.001969 504.42648 505.16891
507.0 0.001972 504.41968 505.16223
505.0 0.001980 504.41287 505.15552
503.0 0.001988 504.40604 505.14890
502.0 0.001992 504.39923 505.14227
503.0 0.001988 504.39240 505.13565
504.0 0.001984 504.38556 505.12894
504.0 0.001984 504.37872 505.12225
504.0 0.001984 504.37189 505.11563
510.0 0.001961 504.36505 505.10892
511.0 0.001957 504.35822 505.10223
510.0 0.001961 504.35135 505.09561
510.0 0.001961 504.34448 505.08902
512.0 0.001953 504.33762 505.08234
512.0 0.001953 504.33075 505.07571
510.0 0.001961 504.32388 505.06912
505.0 0.001980 504.31702 505.06241
512.0 0.001953 504.31012 505.05582
511.0 0.001957 504.30325 505.04913
507.0 0.001972 504.29636 505.04248
512.0 0.001953 504.28946 505.03586
511.0 0.001957 504.28256 505.02927
513.0 0.001949 504.27563 505.02264
508.0 0.001969 504.26874 505.01602
508.0 0.001969 504.26181 505.00940
504.0 0.001984 504.25488 505.00275
510.0 0.001961 504.24799 504.99619
512.0 0.001953 504.24103 504.98956
511.0 0.001957 504.23410 504.98297
510.0 0.001961 504.22717 504.97629
509.0 0.001965 504.22021 504.96982
508.0 0.001969 504.21329 504.96323
504.0 0.001984 504.20633 504.95657
506.0 0.001976 504.19937 504.94995
508.0 0.001969 504.19241 504.94336
506.0 0.001976 504.18542 504.93683
499.0 0.002004 504.17847 504.93021
504.0 0.001984 504.17148 504.92365
507.0 0.001972 504.16449 504.91705
511.0 0.001957 504.15750 504.91052
508.0 0.001969 504.15051 504.90396
508.0 0.001969 504.14352 504.89737
513.0 0.001949 504.13651 504.89087
511.0 0.001957 504.12952 504.88425
507.0 0.001972 504.12250 504.87775
510.0 0.001961 504.11548 504.87119
511.0 0.001957 504.10846 504.86469
517.0 0.001934 504.10144 504.85812
514.0 0.001946 504.09442 504.85159
513.0 0.001949 504.08737 504.84509
514.0 0.001946 504.08032 504.83859
514.0 0.001946 504.07330 504.83206
512.0 0.001953 504.06625 504.82556
512.0 0.001953 504.05917 504.81903
511.0 0.001957 504.05212 504.81247
514.0 0.001946 504.04507 504.80600
511.0 0.001957 504.03799 504.79953
513.0 0.001949 504.03091 504.79309
512.0 0.001953 504.02383 504.78653
513.0 0.001949 504.01675 504.78015
507.0 0.001972 504.00967 504.77359
511.0 0.001957 504.00259 504.76709
512.0 0.001953 503.99548 504.76068
507.0 0.001972 503.98837 504.75424
506.0 0.001976 503.98126 504.74786
511.0 0.001957 503.97418 504.74136
513.0 0.001949 503.96704 504.73489
507.0 0.001972 503.95993 504.72842
504.0 0.001984 503.95282 504.72205
509.0 0.001965 503.94568 504.71561
517.0 0.001934 503.93854 504.70917
515.0 0.001942 503.93140 504.70276
510.0 0.001961 503.92426 504.69641
510.0 0.001961 503.91711 504.69000
511.0 0.001957 503.90997 504.68362
514.0 0.001946 503.90280 504.67722
511.0 0.001957 503.89563 504.67081
512.0 0.001953 503.88846 504.66452
515.0 0.001942 503.88129 504.65817
511.0 0.001957 503.87411 504.65182
510.0 0.001961 503.86694 504.64532
515.0 0.001942 503.85977 504.63904
512.0 0.001953 503.85257 504.63275
510.0 0.001961 503.84537 504.62640
506.0 0.001976 503.83817 504.62012
506.0 0.001976 503.83096 504.61377
510.0 0.001961 503.82376 504.60751
504.0 0.001984 503.81656 504.60123
506.0 0.001976 503.80933 504.59488
506.0 0.001976 503.80209 504.58865
507.0 0.001972 503.79489 504.58243
507.0 0.001972 503.78766 504.57611
509.0 0.001965 503.78040 504.56985
514.0 0.001946 503.77316 504.56369
515.0 0.001942 503.76593 504.55734
517.0 0.001934 503.75867 504.55115
512.0 0.001953 503.75140 504.54489
512.0 0.001953 503.74417 504.53876
509.0 0.001965 503.73691 504.53256
508.0 0.001969 503.72961 504.52634
510.0 0.001961 503.72235 504.52023
516.0 0.001938 503.71509 504.51404
512.0 0.001953 503.70779 504.50787
515.0 0.001942 503.70050 504.50168
504.0 0.001984 503.69321 504.49557
505.0 0.001980 503.68591 504.48953
504.0 0.001984 503.67862 504.48337
507.0 0.001972 503.67133 504.48752
507.0 0.001972 503.66400 504.48138
509.0 0.001965 503.65668 504.47534
510.0 0.001961 503.64938 504.46924
508.0 0.001969 503.64206 504.46323
504.0 0.001984 503.63474 504.45721
508.0 0.001969 503.62738 504.45120
514.0 0.001946 503.62006 504.44519
511.0 0.001957 503.61270 504.43921
511.0 0.001957 503.60538 504.43317
509.0 0.001965 503.59802 504.42728
504.0 0.001984 503.59067 504.42126
507.0 0.001972 503.58331 504.41531
503.0 0.001988 503.57596 504.40939
505.0 0.001980 503.56857 504.40350
508.0 0.001969 503.56122 504.39764
509.0 0.001965 503.55383 504.39163
505.0 0.001980 503.54645 504.38580
508.0 0.001969 503.53906 504.37994
506.0 0.001976 503.53168 504.37411
507.0 0.001972 503.52429 504.36826
502.0 0.001992 503.51688 504.36252
498.0 0.002008 503.50949 504.35663
503.0 0.001988 503.50208 504.35086
507.0 0.001972 503.49466 504.34512
504.0 0.001984 503.48724 504.33932
501.0 0.001996 503.47983 504.33362
503.0 0.001988 503.47241 504.32791
505.0 0.001980 503.46497 504.32227
500.0 0.002000 503.45755 504.31644
501.0 0.001996 503.45010 504.31079
501.0 0.001996 503.44266 504.30511
505.0 0.001980 503.43521 504.29953
503.0 0.001988 503.42776 504.29391
504.0 0.001984 503.42032 504.28833
510.0 0.001961 503.41287 504.28268
511.0 0.001957 503.40540 504.27707
504.0 0.001984 503.39792 504.27158
506.0 0.001976 503.39047 504.26611
504.0 0.001984 503.38300 504.26059
507.0 0.001972 503.37552 504.25516
508.0 0.001969 503.36801 504.24963
510.0 0.001961 503.36053 504.24411
509.0 0.001965 503.35303 504.23871
503.0 0.001988 503.34555 504.23334
503.0 0.001988 503.33804 504.22794
506.0 0.001976 503.33054 504.22256
505.0 0.001980 503.32303 504.21722
505.0 0.001980 503.31552 504.21191
502.0 0.001992 503.30801 504.20657
506.0 0.001976 503.30048 504.20135
504.0 0.001984 503.29297 504.19601
501.0 0.001996 503.28543 504.19086
502.0 0.001992 503.27789 504.18564
502.0 0.001992 503.27036 504.18045
502.0 0.001992 503.26282 504.17532
502.0 0.001992 503.25528 504.17014
498.0 0.002008 503.24771 504.16501
501.0 0.001996 503.24017 504.15994
503.0 0.001988 503.23260 504.15491
503.0 0.001988 503.22507 504.14987
501.0 0.001996 503.21750 504.14487
504.0 0.001984 503.20993 504.13989
503.0 0.001988 503.20236 504.13495
499.0 0.002004 503.19476 504.13000
499.0 0.002004 503.18719 504.12506
504.0 0.001984 503.17960 504.12024
505.0 0.001980 503.17203 504.11539
506.0 0.001976 503.16443 504.11057
501.0 0.001996 503.15683 504.10587
502.0 0.001992 503.14923 504.10110
510.0 0.001961 503.14163 504.09631
503.0 0.001988 503.13400 504.09164
501.0 0.001996 503.12640 504.08704
503.0 0.001988 503.11880 504.08237
504.0 0.001984 503.11118 504.07770
508.0 0.001969 503.10355 504.07324
499.0 0.002004 503.09592 504.06873
502.0 0.001992 503.08829 504.06421
503.0 0.001988 503.08066 504.05972
498.0 0.002008 503.07303 504.05533
503.0 0.001988 503.06537 504.05087
504.0 0.001984 503.05774 504.04657
502.0 0.001992 503.05008 504.04233
500.0 0.002000 503.04242 504.03799
498.0 0.002008 503.03476 504.03369
508.0 0.001969 503.02710 504.02954
502.0 0.001992 503.01944 504.02542
501.0 0.001996 503.01178 504.02130
500.0 0.002000 503.00412 504.01727
500.0 0.002000 502.99643 504.01315
503.0 0.001988 502.98877 504.00922
503.0 0.001988 502.98108 504.00510
501.0 0.001996 502.97339 504.00128
505.0 0.001980 502.96570 503.99738
509.0 0.001965 502.95801 503.99353
508.0 0.001969 502.95032 503.98972
502.0 0.001992 502.94260 503.98602
503.0 0.001988 502.93491 503.98233
505.0 0.001980 502.92722 503.97864
504.0 0.001984 502.91949 503.97510
504.0 0.001984 502.91177 503.97153
504.0 0.001984 502.90405 503.96802
501.0 0.001996 502.89633 503.96448
501.0 0.001996 502.88861 503.96115
500.0 0.002000 502.88089 503.95776
503.0 0.001988 502.87317 503.95441
501.0 0.001996 502.86542 503.95111
499.0 0.002004 502.85770 503.94797
498.0 0.002008 502.84995 503.94482
504.0 0.001984 502.84219 503.94168
500.0 0.002000 502.83447 503.93863
498.0 0.002008 502.82672 503.93564
495.0 0.002020 502.81897 503.93271
499.0 0.002004 502.81119 503.92981
498.0 0.002008 502.80344 503.92703
497.0 0.002012 502.79568 503.92419
497.0 0.002012 502.78790 503.92154
501.0 0.001996 502.78015 503.91885
503.0 0.001988 502.77237 503.91632
503.0 0.001988 502.76459 503.91382
497.0 0.002012 502.75681 503.91129
502.0 0.001992 502.74902 503.90897
501.0 0.001996 502.74124 503.90665
505.0 0.001980 502.73346 503.90436
504.0 0.001984 502.72568 503.90216
503.0 0.001988 502.71786 503.89999
501.0 0.001996 502.71008 503.89798
498.0 0.002008 502.70227 503.89600
495.0 0.002020 502.69446 503.89410
499.0 0.002004 502.68668 503.89224
503.0 0.001988 502.67886 503.89041
507.0 0.001972 502.67105 503.88873
505.0 0.001980 502.66324 503.88708
511.0 0.001957 502.65543 503.88559
506.0 0.001976 502.64758 503.88409
506.0 0.001976 502.63977 503.88263
503.0 0.001988 502.63196 503.88132
501.0 0.001996 502.62411 503.88007
503.0 0.001988 502.61627 503.87900
504.0 0.001984 502.60846 503.87790
500.0 0.002000 502.60062 503.87689
507.0 0.001972 502.59277 503.87601
508.0 0.001969 502.58493 503.87518
505.0 0.001980 502.57709 503.87445
504.0 0.001984 502.56924 503.87384
503.0 0.001988 502.56137 503.87326
503.0 0.001988 502.55353 503.87274
504.0 0.001984 502.54565 503.87244
498.0 0.002008 502.53781 503.87222
501.0 0.001996 502.52994 503.87204
500.0 0.002000 502.52209 503.87189
503.0 0.001988 502.51422 503.87186
503.0 0.001988 502.50635 503.87198
505.0 0.001980 502.49847 503.87225
507.0 0.001972 502.49060 503.87256
510.0 0.001961 502.48273 503.87296
505.0 0.001980 502.47485 503.87347
503.0 0.001988 502.46695 503.87411
504.0 0.001984 502.45908 503.87482
502.0 0.001992 502.45120 503.87564
498.0 0.002008 502.44330 503.87662
499.0 0.002004 502.43542 503.87766
499.0 0.002004 502.42752 503.87888
497.0 0.002012 502.41962 503.88013
499.0 0.002004 502.41171 503.88153
497.0 0.002012 502.40381 503.88297
501.0 0.001996 502.39590 503.88461
498.0 0.002008 502.38800 503.88638
494.0 0.002024 502.38010 503.88834
498.0 0.002008 502.37219 503.89029
497.0 0.002012 502.36429 503.89240
497.0 0.002012 502.35635 503.89468
498.0 0.002008 502.34845 503.89709
505.0 0.001980 502.34055 503.89951
507.0 0.001972 502.33261 503.90219
505.0 0.001980 502.32471 503.90494
504.0 0.001984 502.31677 503.90790
505.0 0.001980 502.30884 503.91089
502.0 0.001992 502.30090 503.91406
502.0 0.001992 502.29300 503.91739
499.0 0.002004 502.28506 503.92090
506.0 0.001976 502.27713 503.92444
505.0 0.001980 502.26920 503.92810
501.0 0.001996 502.26126 503.93198
500.0 0.002000 502.25330 503.93607
505.0 0.001980 502.24536 503.94022
502.0 0.001992 502.23743 503.94452
505.0 0.001980 502.22946 503.94901
502.0 0.001992 502.22153 503.95355
501.0 0.001996 502.21359 503.95834
502.0 0.001992 502.20563 503.96329
501.0 0.001996 502.19766 503.96838
497.0 0.002012 502.18973 503.97366
500.0 0.002000 502.18176 503.97906
502.0 0.001992 502.17380 503.98456
497.0 0.002012 502.16586 503.99023
501.0 0.001996 502.15790 503.99612
502.0 0.001992 502.14993 504.00223
504.0 0.001984 502.14197 504.00833
506.0 0.001976 502.13400 504.01471
499.0 0.002004 502.12604 504.02121
500.0 0.002000 502.11807 504.02792
501.0 0.001996 502.11011 504.03476
511.0 0.001957 502.10211 504.04175
512.0 0.001953 502.09415 504.04895
508.0 0.001969 502.08618 504.05637
510.0 0.001961 502.07822 504.06390
506.0 0.001976 502.07022 504.07162
502.0 0.001992 502.06226 504.07950
503.0 0.001988 502.05429 504.08749
503.0 0.001988 502.04630 504.09579
503.0 0.001988 502.03833 504.10413
499.0 0.002004 502.03033 504.11267
505.0 0.001980 502.02234 504.12140
500.0 0.002000 502.01437 504.13031
492.0 0.002033 502.00638 504.13940
495.0 0.002020 501.99838 504.14865
499.0 0.002004 501.99042 504.15805
497.0 0.002012 501.98242 504.16769
498.0 0.002008 501.97443 504.17734
494.0 0.002024 501.96643 504.18729
496.0 0.002016 501.95844 504.19736
497.0 0.002012 501.95047 504.20761
500.0 0.002000 501.94247 504.21805
503.0 0.001988 501.93448 504.22870
501.0 0.001996 501.92648 504.23932
503.0 0.001988 501.91849 504.25021
500.0 0.002000 501.91049 504.26123
498.0 0.002008 501.90247 504.27243
504.0 0.001984 501.89447 504.28378
504.0 0.001984 501.88647 504.29529
503.0 0.001988 501.87848 504.30688
502.0 0.001992 501.87048 504.31863
503.0 0.001988 501.86249 504.33057
503.0 0.001988 501.85449 504.34259
508.0 0.001969 501.84647 504.35483
499.0 0.002004 501.83847 504.36700
500.0 0.002000 501.83047 504.37949
500.0 0.002000 501.82248 504.39197
499.0 0.002004 501.81448 504.40463
493.0 0.002028 501.80646 504.41736
495.0 0.002020 501.79846 504.43018
499.0 0.002004 501.79044 504.44315
497.0 0.002012 501.78244 504.45612
495.0 0.002020 501.77444 504.46915
501.0 0.001996 501.76645 504.48224
505.0 0.001980 501.75842 504.49548
503.0 0.001988 501.75043 504.50876
501.0 0.001996 501.74240 504.52203
498.0 0.002008 501.73441 504.53537
499.0 0.002004 501.72641 504.54877
500.0 0.002000 501.71838 504.56204
498.0 0.002008 501.71039 504.57547
500.0 0.002000 501.70236 504.58875
504.0 0.001984 501.69437 504.60217
498.0 0.002008 501.68637 504.61554
498.0 0.002008 501.67834 504.62881
500.0 0.002000 501.67035 504.64209
501.0 0.001996 501.66235 504.65518
504.0 0.001984 501.65433 504.66830
505.0 0.001980 501.64633 504.68134
503.0 0.001988 501.63834 504.69424
509.0 0.001965 501.63031 504.70709
504.0 0.001984 501.62231 504.71967
502.0 0.001992 501.61432 504.73224
499.0 0.002004 501.60629 504.74466
505.0 0.001980 501.59830 504.75684
500.0 0.002000 501.59027 504.76883
501.0 0.001996 501.58228 504.78064
500.0 0.002000 501.57428 504.79227
500.0 0.002000 501.56628 504.80353
498.0 0.002008 501.55826 504.81470
498.0 0.002008 501.55026 504.82562
500.0 0.002000 501.54227 504.83618
498.0 0.002008 501.53427 504.84641
498.0 0.002008 501.52628 504.85635
500.0 0.002000 501.51828 504.86600
502.0 0.001992 501.51025 504.87521
503.0 0.001988 501.50226 504.88409
501.0 0.001996 501.49426 504.89267
500.0 0.002000 501.48627 504.90082
503.0 0.001988 501.47827 504.90854
501.0 0.001996 501.47028 504.91577
503.0 0.001988 501.46228 504.92264
499.0 0.002004 501.45428 504.92902
503.0 0.001988 501.44629 504.93491
505.0 0.001980 501.43829 504.94034
502.0 0.001992 501.43033 504.94525
499.0 0.002004 501.42233 504.94971
498.0 0.002008 501.41434 504.95352
498.0 0.002008 501.40634 504.95676
501.0 0.001996 501.39838 504.95947
501.0 0.001996 501.39038 504.96164
498.0 0.002008 501.38239 504.96317
496.0 0.002016 501.37442 504.96417
501.0 0.001996 501.36642 504.96457
501.0 0.001996 501.35846 504.96429
499.0 0.002004 501.35046 504.96332
501.0 0.001996 501.34250 504.96176
498.0 0.002008 501.33450 504.95963
494.0 0.002024 501.32654 504.95679
498.0 0.002008 501.31857 504.95331
503.0 0.001988 501.31061 504.94913
503.0 0.001988 501.30261 504.94427
499.0 0.002004 501.29465 504.93875
504.0 0.001984 501.28668 504.93259
504.0 0.001984 501.27872 504.92569
504.0 0.001984 501.27075 504.91809
503.0 0.001988 501.26279 504.90991
506.0 0.001976 501.25485 504.90091
505.0 0.001980 501.24689 504.89130
505.0 0.001980 501.23892 504.88104
502.0 0.001992 501.23096 504.87009
501.0 0.001996 501.22302 504.85837
501.0 0.001996 501.21506 504.84604
501.0 0.001996 501.20712 504.83307
500.0 0.002000 501.19916 504.81934
502.0 0.001992 501.19122 504.80511
500.0 0.002000 501.18329 504.79016
501.0 0.001996 501.17535 504.77460
502.0 0.001992 501.16739 504.75836
502.0 0.001992 501.15945 504.74158
499.0 0.002004 501.15152 504.72418
498.0 0.002008 501.14359 504.70609
494.0 0.002024 501.13568 504.68750
499.0 0.002004 501.12775 504.66837
505.0 0.001980 501.11981 504.64868
503.0 0.001988 501.11191 504.62833
503.0 0.001988 501.10397 504.60754
502.0 0.001992 501.09607 504.58624
504.0 0.001984 501.08813 504.56439
501.0 0.001996 501.08023 504.54211
502.0 0.001992 501.07233 504.51935
507.0 0.001972 501.06442 504.49615
502.0 0.001992 501.05652 504.47253
499.0 0.002004 501.04861 504.44843
501.0 0.001996 501.04071 504.42398
506.0 0.001976 501.03281 504.39908
509.0 0.001965 501.02490 504.37381
508.0 0.001969 501.01703 504.34824
503.0 0.001988 501.00916 504.32239
499.0 0.002004 501.00125 504.29608
502.0 0.001992 500.99338 504.26950
501.0 0.001996 500.98550 504.24271
498.0 0.002008 500.97763 504.21548
498.0 0.002008 500.96976 504.18814
496.0 0.002016 500.96188 504.16058
500.0 0.002000 500.95401 504.13269
496.0 0.002016 500.94614 504.10464
501.0 0.001996 500.93829 504.07648
503.0 0.001988 500.93042 504.04800
495.0 0.002020 500.92258 504.01947
497.0 0.002012 500.91473 503.99075
501.0 0.001996 500.90686 503.96188
501.0 0.001996 500.89905 503.93295
496.0 0.002016 500.89120 503.90384
496.0 0.002016 500.88336 503.87473
501.0 0.001996 500.87552 503.84543
502.0 0.001992 500.86771 503.81613
499.0 0.002004 500.85986 503.78674
498.0 0.002008 500.85205 503.75729
501.0 0.001996 500.84424 503.72791
504.0 0.001984 500.83643 503.69849
504.0 0.001984 500.82861 503.66901
502.0 0.001992 500.82080 503.63953
505.0 0.001980 500.81299 503.61005
505.0 0.001980 500.80521 503.58069
502.0 0.001992 500.79739 503.55124
501.0 0.001996 500.78961 503.52200
504.0 0.001984 500.78183 503.49271
501.0 0.001996 500.77405 503.46344
501.0 0.001996 500.76627 503.43427
498.0 0.002008 500.75848 503.40515
504.0 0.001984 500.75070 503.37613
502.0 0.001992 500.74295 503.34726
503.0 0.001988 500.73520 503.31851
498.0 0.002008 500.72742 503.28973
501.0 0.001996 500.71967 503.26114
499.0 0.002004 500.71191 503.23260
497.0 0.002012 500.70419 503.20428
498.0 0.002008 500.69644 503.17609
497.0 0.002012 500.68869 503.14798
501.0 0.001996 500.68097 503.12003
499.0 0.002004 500.67325 503.09213
498.0 0.002008 500.66553 503.06445
507.0 0.001972 500.65781 503.03693
508.0 0.001969 500.65009 503.00949
501.0 0.001996 500.64240 502.98236
503.0 0.001988 500.63467 502.95520
502.0 0.001992 500.62698 502.92822
505.0 0.001980 500.61929 502.90146
505.0 0.001980 500.61160 502.87500
507.0 0.001972 500.60391 502.84854
509.0 0.001965 500.59625 502.82227
504.0 0.001984 500.58856 502.79611
505.0 0.001980 500.58090 502.77017
499.0 0.002004 500.57324 502.74445
505.0 0.001980 500.56558 502.71887
508.0 0.001969 500.55792 502.69348
507.0 0.001972 500.55029 502.66821
500.0 0.002000 500.54263 502.64319
499.0 0.002004 500.53500 502.61832
500.0 0.002000 500.52737 502.59363
500.0 0.002000 500.51974 502.56906
496.0 0.002016 500.51212 502.54489
498.0 0.002008 500.50452 502.52066
500.0 0.002000 500.49692 502.49664
497.0 0.002012 500.48932 502.47284
496.0 0.002016 500.48172 502.44925
499.0 0.002004 500.47412 502.42575
503.0 0.001988 500.46652 502.40253
503.0 0.001988 500.45895 502.37943
503.0 0.001988 500.45139 502.35651
506.0 0.001976 500.44382 502.33374
503.0 0.001988 500.43625 502.31122
503.0 0.001988 500.42868 502.28876
500.0 0.002000 500.42114 502.26660
504.0 0.001984 500.41360 502.24451
511.0 0.001957 500.40607 502.22266
509.0 0.001965 500.39853 502.20096
504.0 0.001984 500.39099 502.17944
499.0 0.002004 500.38348 502.15811
503.0 0.001988 500.37598 502.13690
501.0 0.001996 500.36847 502.11581
497.0 0.002012 500.36096 502.09497
496.0 0.002016 500.35345 502.07428
496.0 0.002016 500.34598 502.05380
496.0 0.002016 500.33850 502.03339
496.0 0.002016 500.33102 502.01321
502.0 0.001992 500.32355 501.99319
500.0 0.002000 500.31610 501.97318
502.0 0.001992 500.30862 501.95346
501.0 0.001996 500.30121 501.93390
497.0 0.002012 500.29376 501.91446
497.0 0.002012 500.28632 501.89514
494.0 0.002024 500.27890 501.87604
494.0 0.002024 500.27148 501.85706
501.0 0.001996 500.26407 501.83823
499.0 0.002004 500.25665 501.81958
499.0 0.002004 500.24927 501.80099
499.0 0.002004 500.24185 501.78268
503.0 0.001988 500.23447 501.76437
505.0 0.001980 500.22711 501.74625
505.0 0.001980 500.21973 501.72824
500.0 0.002000 500.21237 501.71042
495.0 0.002020 500.20502 501.69269
497.0 0.002012 500.19766 501.67520
498.0 0.002008 500.19034 501.65775
498.0 0.002008 500.18298 501.64041
501.0 0.001996 500.17566 501.62323
501.0 0.001996 500.16837 501.60620
500.0 0.002000 500.16104 501.58939
502.0 0.001992 500.15375 501.57251
497.0 0.002012 500.14645 501.55588
499.0 0.002004 500.13916 501.53937
498.0 0.002008 500.13190 501.52292
496.0 0.002016 500.12460 501.50665
499.0 0.002004 500.11737 501.49057
494.0 0.002024 500.11011 501.47446
498.0 0.002008 500.10284 501.45856
493.0 0.002028 500.09561 501.44269
502.0 0.001992 500.08838 501.42703
506.0 0.001976 500.08118 501.41141
503.0 0.001988 500.07394 501.39587
502.0 0.001992 500.06674 501.38052
501.0 0.001996 500.05954 501.36530
507.0 0.001972 500.05237 501.35019
500.0 0.002000 500.04517 501.33502
497.0 0.002012 500.03802 501.32010
500.0 0.002000 500.03085 501.30533
499.0 0.002004 500.02368 501.29062
500.0 0.002000 500.01654 501.27591
496.0 0.002016 500.00940 501.26138
499.0 0.002004 500.00229 501.24698
501.0 0.001996 499.99515 501.23270
503.0 0.001988 499.98807 501.21844
501.0 0.001996 499.98096 501.20428
498.0 0.002008 499.97385 501.19028
499.0 0.002004 499.96677 501.17633
496.0 0.002016 499.95969 501.16251
494.0 0.002024 499.95264 501.14871
498.0 0.002008 499.94559 501.13507
499.0 0.002004 499.93854 501.12152
500.0 0.002000 499.93149 501.10794
494.0 0.002024 499.92447 501.09457
500.0 0.002000 499.91745 501.08121
500.0 0.002000 499.91043 501.06805
501.0 0.001996 499.90344 501.05484
499.0 0.002004 499.89645 501.04187
497.0 0.002012 499.88947 501.02881
496.0 0.002016 499.88251 501.01599
498.0 0.002008 499.87552 501.00311
495.0 0.002020 499.86856 500.99045
498.0 0.002008 499.86163 500.97772
501.0 0.001996 499.85471 500.96518
497.0 0.002012 499.84778 500.95270
496.0 0.002016 499.84085 500.94025
501.0 0.001996 499.83395 500.92801
503.0 0.001988 499.82706 500.91568
503.0 0.001988 499.82019 500.90353
503.0 0.001988 499.81332 500.89139
500.0 0.002000 499.80646 500.87936
502.0 0.001992 499.79959 500.86737
500.0 0.002000 499.79276 500.85550
502.0 0.001992 499.78592 500.84369
501.0 0.001996 499.77911 500.83191
500.0 0.002000 499.77231 500.82016
505.0 0.001980 499.76550 500.80859
504.0 0.001984 499.75870 500.79703
498.0 0.002008 499.75192 500.78555
497.0 0.002012 499.74515 500.77414
498.0 0.002008 499.73840 500.76282
500.0 0.002000 499.73166 500.75153
500.0 0.002000 499.72491 500.74030
496.0 0.002016 499.71820 500.72903
496.0 0.002016 499.71149 500.71799
500.0 0.002000 499.70477 500.70703
500.0 0.002000 499.69809 500.69611
502.0 0.001992 499.69141 500.68518
499.0 0.002004 499.68472 500.67435
496.0 0.002016 499.67807 500.66354
496.0 0.002016 499.67142 500.65274
500.0 0.002000 499.66479 500.64209
500.0 0.002000 499.65817 500.63147
498.0 0.002008 499.65155 500.62097
499.0 0.002004 499.64496 500.61050
504.0 0.001984 499.63837 500.59995
498.0 0.002008 499.63177 500.58972
501.0 0.001996 499.62521 500.57935
506.0 0.001976 499.61865 500.56909
501.0 0.001996 499.61212 500.55884
503.0 0.001988 499.60559 500.54868
499.0 0.002004 499.59906 500.53864
502.0 0.001992 499.59256 500.52850
501.0 0.001996 499.58606 500.51852
502.0 0.001992 499.57959 500.50864
499.0 0.002004 499.57312 500.49875
499.0 0.002004 499.56665 500.48886
499.0 0.002004 499.56021 500.47906
499.0 0.002004 499.55377 500.46930
498.0 0.002008 499.54733 500.45963
502.0 0.001992 499.54092 500.44998
502.0 0.001992 499.53455 500.44043
502.0 0.001992 499.52814 500.43091
499.0 0.002004 499.52176 500.42136
504.0 0.001984 499.51541 500.41190
503.0 0.001988 499.50906 500.40259
500.0 0.002000 499.50272 500.39322
497.0 0.002012 499.49640 500.38388
502.0 0.001992 499.49008 500.37460
502.0 0.001992 499.48380 500.36545
504.0 0.001984 499.47751 500.35638
506.0 0.001976 499.47125 500.34717
504.0 0.001984 499.46497 500.33817
506.0 0.001976 499.45874 500.32904
507.0 0.001972 499.45251 500.32007
501.0 0.001996 499.44629 500.31119
502.0 0.001992 499.44009 500.30231
504.0 0.001984 499.43390 500.29343
501.0 0.001996 499.42770 500.28464
498.0 0.002008 499.42154 500.27594
497.0 0.002012 499.41541 500.26724
500.0 0.002000 499.40924 500.25848
498.0 0.002008 499.40314 500.24985
497.0 0.002012 499.39700 500.24133
502.0 0.001992 499.39093 500.23279
496.0 0.002016 499.38483 500.22430
497.0 0.002012 499.37875 500.21582
493.0 0.002028 499.37271 500.20743
497.0 0.002012 499.36667 500.19904
499.0 0.002004 499.36063 500.19067
500.0 0.002000 499.35461 500.18240
498.0 0.002008 499.34860 500.17416
501.0 0.001996 499.34262 500.16595
502.0 0.001992 499.33667 500.15778
502.0 0.001992 499.33069 500.14972
498.0 0.002008 499.32477 500.14154
500.0 0.002000 499.31882 500.13339
504.0 0.001984 499.31290 500.12543
504.0 0.001984 499.30701 500.11746
505.0 0.001980 499.30112 500.10953
502.0 0.001992 499.29526 500.10162
500.0 0.002000 499.28940 500.09384
500.0 0.002000 499.28357 500.08597
498.0 0.002008 499.27774 500.07813
503.0 0.001988 499.27191 500.07043
498.0 0.002008 499.26611 500.06274
501.0 0.001996 499.26035 500.05502
495.0 0.002020 499.25458 500.04739
505.0 0.001980 499.24881 500.03983
505.0 0.001980 499.24307 500.03229
501.0 0.001996 499.23737 500.02472
498.0 0.002008 499.23166 500.01724
497.0 0.002012 499.22595 500.00980
497.0 0.002012 499.22028 500.00241
498.0 0.002008 499.21463 499.99496
497.0 0.002012 499.20898 499.98755
503.0 0.001988 499.20334 499.98035
503.0 0.001988 499.19772 499.97302
501.0 0.001996 499.19214 499.96582
502.0 0.001992 499.18655 499.95862
497.0 0.002012 499.18097 499.95151
502.0 0.001992 499.17542 499.94437
499.0 0.002004 499.16989 499.93719
502.0 0.001992 499.16437 499.93015
503.0 0.001988 499.15887 499.92316
504.0 0.001984 499.15338 499.91614
499.0 0.002004 499.14792 499.90918
500.0 0.002000 499.14246 499.90231
500.0 0.002000 499.13702 499.89532
502.0 0.001992 499.13159 499.88852
496.0 0.002016 499.12619 499.88171
499.0 0.002004 499.12079 499.87491
499.0 0.002004 499.11542 499.86819
497.0 0.002012 499.11008 499.86142
496.0 0.002016 499.10474 499.85477
494.0 0.002024 499.09940 499.84805
499.0 0.002004 499.09409 499.84143
497.0 0.002012 499.08881 499.83496
500.0 0.002000 499.08353 499.82846
499.0 0.002004 499.07828 499.82196
503.0 0.001988 499.07303 499.81537
508.0 0.001969 499.06781 499.80893
508.0 0.001969 499.06259 499.80249
502.0 0.001992 499.05740 499.79614
503.0 0.001988 499.05225 499.78979
504.0 0.001984 499.04709 499.78348
502.0 0.001992 499.04196 499.77725
498.0 0.002008 499.03683 499.77100
498.0 0.002008 499.03174 499.76471
501.0 0.001996 499.02664 499.75858
503.0 0.001988 499.02158 499.75232
502.0 0.001992 499.01654 499.74625
504.0 0.001984 499.01151 499.74011
503.0 0.001988 499.00647 499.73413
501.0 0.001996 499.00150 499.72809
502.0 0.001992 498.99649 499.72205
497.0 0.002012 498.99155 499.71616
497.0 0.002012 498.98660 499.71017
499.0 0.002004 498.98169 499.70428
504.0 0.001984 498.97678 499.69846
504.0 0.001984 498.97189 499.69269
501.0 0.001996 498.96701 499.68680
500.0 0.002000 498.96216 499.68109
495.0 0.002020 498.95734 499.67532
502.0 0.001992 498.95251 499.66962
502.0 0.001992 498.94772 499.66400
499.0 0.002004 498.94293 499.65829
499.0 0.002004 498.93817 499.65271
500.0 0.002000 498.93344 499.64716
502.0 0.001992 498.92871 499.64157
504.0 0.001984 498.92401 499.63605
498.0 0.002008 498.91931 499.63065
504.0 0.001984 498.91464 499.62515
505.0 0.001980 498.91000 499.61981
503.0 0.001988 498.90536 499.61429
501.0 0.001996 498.90076 499.60898
501.0 0.001996 498.89618 499.60364
503.0 0.001988 498.89160 499.59842
503.0 0.001988 498.88705 499.59317
501.0 0.001996 498.88254 499.58801
502.0 0.001992 498.87802 499.58279
501.0 0.001996 498.87350 499.57755
499.0 0.002004 498.86905 499.57242
502.0 0.001992 498.86459 499.56735
503.0 0.001988 498.86017 499.56232
497.0 0.002012 498.85574 499.55725
498.0 0.002008 498.85135 499.55231
500.0 0.002000 498.84698 499.54727
502.0 0.001992 498.84262 499.54230
501.0 0.001996 498.83829 499.53748
500.0 0.002000 498.83395 499.53256
495.0 0.002020 498.82965 499.52768
499.0 0.002004 498.82538 499.52286
498.0 0.002008 498.82114 499.51807
494.0 0.002024 498.81689 499.51334
498.0 0.002008 498.81268 499.50867
503.0 0.001988 498.80847 499.50397
505.0 0.001980 498.80432 499.49930
503.0 0.001988 498.80017 499.49469
499.0 0.002004 498.79602 499.49011
500.0 0.002000 498.79190 499.48560
504.0 0.001984 498.78781 499.48096
508.0 0.001969 498.78375 499.47641
504.0 0.001984 498.77969 499.47198
502.0 0.001992 498.77567 499.46762
504.0 0.001984 498.77167 499.46317
504.0 0.001984 498.76767 499.45886
504.0 0.001984 498.76370 499.45453
504.0 0.001984 498.75977 499.45013
506.0 0.001976 498.75583 499.44595
502.0 0.001992 498.75192 499.44162
502.0 0.001992 498.74805 499.43732
500.0 0.002000 498.74417 499.43323
501.0 0.001996 498.74036 499.42905
505.0 0.001980 498.73651 499.42490
499.0 0.002004 498.73273 499.42087
499.0 0.002004 498.72894 499.41681
500.0 0.002000 498.72519 499.41290
498.0 0.002008 498.72147 499.40887
496.0 0.002016 498.71774 499.40494
497.0 0.002012 498.71405 499.40103
500.0 0.002000 498.71039 499.39709
503.0 0.001988 498.70676 499.39316
502.0 0.001992 498.70313 499.38937
500.0 0.002000 498.69952 499.38565
505.0 0.001980 498.69595 499.38187
501.0 0.001996 498.69238 499.37811
502.0 0.001992 498.68887 499.37445
500.0 0.002000 498.68536 499.37067
503.0 0.001988 498.68185 499.36710
503.0 0.001988 498.67841 499.36349
501.0 0.001996 498.67496 499.35989
502.0 0.001992 498.67154 499.35635
505.0 0.001980 498.66812 499.35287
508.0 0.001969 498.66476 499.34943
500.0 0.002000 498.66141 499.34601
502.0 0.001992 498.65805 499.34256
500.0 0.002000 498.65475 499.33923
503.0 0.001988 498.65146 499.33588
501.0 0.001996 498.64819 499.33252
502.0 0.001992 498.64496 499.32925
499.0 0.002004 498.64175 499.32602
503.0 0.001988 498.63855 499.32281
499.0 0.002004 498.63538 499.31964
496.0 0.002016 498.63223 499.31653
498.0 0.002008 498.62912 499.31348
495.0 0.002020 498.62601 499.31036
496.0 0.002016 498.62296 499.30731
498.0 0.002008 498.61990 499.30423
500.0 0.002000 498.61685 499.30127
502.0 0.001992 498.61386 499.29834
497.0 0.002012 498.61087 499.29541
505.0 0.001980 498.60791 499.29260
511.0 0.001957 498.60498 499.28979
504.0 0.001984 498.60208 499.28693
502.0 0.001992 498.59918 499.28415
502.0 0.001992 498.59631 499.28140
505.0 0.001980 498.59348 499.27869
502.0 0.001992 498.59067 499.27609
500.0 0.002000 498.58789 499.27341
503.0 0.001988 498.58511 499.27081
501.0 0.001996 498.58237 499.26828
503.0 0.001988 498.57965 499.26569
504.0 0.001984 498.57697 499.26321
504.0 0.001984 498.57431 499.26071
504.0 0.001984 498.57166 499.25827
506.0 0.001976 498.56903 499.25586
499.0 0.002004 498.56644 499.25348
500.0 0.002000 498.56387 499.25110
501.0 0.001996 498.56134 499.24884
502.0 0.001992 498.55881 499.24658
496.0 0.002016 498.55634 499.24435
492.0 0.002033 498.55386 499.24216
497.0 0.002012 498.55142 499.23999
497.0 0.002012 498.54898 499.23792
498.0 0.002008 498.54660 499.23575
507.0 0.001972 498.54422 499.23370
506.0 0.001976 498.54187 499.23169
499.0 0.002004 498.53955 499.22968
499.0 0.002004 498.53726 499.22778
502.0 0.001992 498.53500 499.22586
505.0 0.001980 498.53278 499.22397
507.0 0.001972 498.53055 499.22223
502.0 0.001992 498.52835 499.22034
506.0 0.001976 498.52618 499.21854
503.0 0.001988 498.52405 499.21683
502.0 0.001992 498.52194 499.21515
499.0 0.002004 498.51987 499.21353
498.0 0.002008 498.51779 499.21185
500.0 0.002000 498.51578 499.21027
505.0 0.001980 498.51376 499.20868
506.0 0.001976 498.51178 499.20709
505.0 0.001980 498.50983 499.20569
505.0 0.001980 498.50790 499.20422
502.0 0.001992 498.50598 499.20282
502.0 0.001992 498.50412 499.20145
500.0 0.002000 498.50226 499.20010
500.0 0.002000 498.50043 499.19879
499.0 0.002004 498.49866 499.19754
503.0 0.001988 498.49689 499.19629
503.0 0.001988 498.49512 499.19516
502.0 0.001992 498.49341 499.19400
506.0 0.001976 498.49173 499.19287
505.0 0.001980 498.49005 499.19177
507.0 0.001972 498.48843 499.19064
507.0 0.001972 498.48682 499.18967
499.0 0.002004 498.48523 499.18869
499.0 0.002004 498.48367 499.18777
502.0 0.001992 498.48215 499.18692
502.0 0.001992 498.48065 499.18610
501.0 0.001996 498.47919 499.18527
501.0 0.001996 498.47775 499.18448
499.0 0.002004 498.47632 499.18372
503.0 0.001988 498.47495 499.18301
502.0 0.001992 498.47357 499.18234
496.0 0.002016 498.47223 499.18173
504.0 0.001984 498.47092 499.18115
505.0 0.001980 498.46964 499.18063
504.0 0.001984 498.46838 499.18005
503.0 0.001988 498.46716 499.17963
501.0 0.001996 498.46597 499.17917
501.0 0.001996 498.46481 499.17877
499.0 0.002004 498.46368 499.17844
495.0 0.002020 498.46255 499.17810
497.0 0.002012 498.46149 499.17786
499.0 0.002004 498.46042 499.17758
498.0 0.002008 498.45938 499.17737
499.0 0.002004 498.45840 499.17725
501.0 0.001996 498.45743 499.17712
502.0 0.001992 498.45648 499.17703
504.0 0.001984 498.45557 499.17697
501.0 0.001996 498.45468 499.17697
502.0 0.001992 498.45383 499.17700
500.0 0.002000 498.45300 499.17703
498.0 0.002008 498.45221 499.17715
500.0 0.002000 498.45145 499.17734
506.0 0.001976 498.45071 499.17752
506.0 0.001976 498.44998 499.17783
511.0 0.001957 498.44931 499.17804
504.0 0.001984 498.44867 499.17841
509.0 0.001965 498.44803 499.17880
504.0 0.001984 498.44745 499.17923
502.0 0.001992 498.44687 499.17966
501.0 0.001996 498.44635 499.18008
500.0 0.002000 498.44583 499.18063
501.0 0.001996 498.44534 499.18121
500.0 0.002000 498.44492 499.18185
497.0 0.002012 498.44449 499.18246
495.0 0.002020 498.44409 499.18320
496.0 0.002016 498.44376 499.18396
494.0 0.002024 498.44342 499.18472
495.0 0.002020 498.44312 499.18552
502.0 0.001992 498.44284 499.18637
502.0 0.001992 498.44260 499.18729
498.0 0.002008 498.44238 499.18820
498.0 0.002008 498.44223 499.18915
507.0 0.001972 498.44208 499.19025
504.0 0.001984 498.44196 499.19135
500.0 0.002000 498.44186 499.19250
503.0 0.001988 498.44180 499.19363
504.0 0.001984 498.44177 499.19485
504.0 0.001984 498.44177 499.19608
507.0 0.001972 498.44180 499.19742
499.0 0.002004 498.44186 499.19873
505.0 0.001980 498.44196 499.20016
505.0 0.001980 498.44208 499.20157
502.0 0.001992 498.44223 499.20306
503.0 0.001988 498.44244 499.20459
501.0 0.001996 498.44266 499.20612
503.0 0.001988 498.44290 499.20776
503.0 0.001988 498.44318 499.20935
502.0 0.001992 498.44348 499.21109
500.0 0.002000 498.44382 499.21280
497.0 0.002012 498.44418 499.21457
494.0 0.002024 498.44458 499.21643
492.0 0.002033 498.44504 499.21826
499.0 0.002004 498.44550 499.22015
497.0 0.002012 498.44598 499.22223
497.0 0.002012 498.44650 499.22427
501.0 0.001996 498.44708 499.22632
506.0 0.001976 498.44766 499.22839
505.0 0.001980 498.44830 499.23062
506.0 0.001976 498.44894 499.23276
506.0 0.001976 498.44962 499.23505
508.0 0.001969 498.45035 499.23730
507.0 0.001972 498.45108 499.23965
502.0 0.001992 498.45187 499.24203
497.0 0.002012 498.45270 499.24448
501.0 0.001996 498.45352 499.24698
504.0 0.001984 498.45441 499.24954
505.0 0.001980 498.45532 499.25211
506.0 0.001976 498.45627 499.25473
507.0 0.001972 498.45721 499.25739
505.0 0.001980 498.45822 499.26013
506.0 0.001976 498.45926 499.26291
500.0 0.002000 498.46033 499.26581
504.0 0.001984 498.46143 499.26865
504.0 0.001984 498.46259 499.27151
504.0 0.001984 498.46375 499.27448
500.0 0.002000 498.46494 499.27750
505.0 0.001980 498.46616 499.28064
506.0 0.001976 498.46744 499.28375
505.0 0.001980 498.46872 499.28699
498.0 0.002008 498.47006 499.29016
502.0 0.001992 498.47144 499.29346
503.0 0.001988 498.47281 499.29672
502.0 0.001992 498.47424 499.30017
502.0 0.001992 498.47571 499.30362
503.0 0.001988 498.47720 499.30704
506.0 0.001976 498.47873 499.31058
504.0 0.001984 498.48029 499.31418
503.0 0.001988 498.48187 499.31787
508.0 0.001969 498.48352 499.32150
504.0 0.001984 498.48517 499.32523
505.0 0.001980 498.48688 499.32898
502.0 0.001992 498.48859 499.33282
505.0 0.001980 498.49036 499.33679
506.0 0.001976 498.49216 499.34073
509.0 0.001965 498.49396 499.34479
500.0 0.002000 498.49582 499.34882
499.0 0.002004 498.49774 499.35294
501.0 0.001996 498.49966 499.35712
501.0 0.001996 498.50162 499.36139
498.0 0.002008 498.50360 499.36563
498.0 0.002008 498.50565 499.36993
501.0 0.001996 498.50772 499.37436
504.0 0.001984 498.50980 499.37878
504.0 0.001984 498.51193 499.38330
504.0 0.001984 498.51410 499.38785
504.0 0.001984 498.51630 499.39246
502.0 0.001992 498.51852 499.39709
502.0 0.001992 498.52081 499.40195
502.0 0.001992 498.52310 499.40665
498.0 0.002008 498.52545 499.41156
498.0 0.002008 498.52780 499.41638
498.0 0.002008 498.53021 499.42126
501.0 0.001996 498.53265 499.42630
501.0 0.001996 498.53513 499.43137
500.0 0.002000 498.53763 499.43652
499.0 0.002004 498.54019 499.44174
505.0 0.001980 498.54276 499.44705
508.0 0.001969 498.54538 499.45227
506.0 0.001976 498.54803 499.45764
501.0 0.001996 498.55069 499.46313
501.0 0.001996 498.55341 499.46863
501.0 0.001996 498.55618 499.47418
502.0 0.001992 498.55896 499.47974
501.0 0.001996 498.56180 499.48541
504.0 0.001984 498.56464 499.49118
502.0 0.001992 498.56754 499.49698
501.0 0.001996 498.57047 499.50284
501.0 0.001996 498.57343 499.50879
501.0 0.001996 498.57642 499.51471
502.0 0.001992 498.57947 499.52078
504.0 0.001984 498.58252 499.52695
500.0 0.002000 498.58563 499.53311
502.0 0.001992 498.58878 499.53925
501.0 0.001996 498.59195 499.54553
499.0 0.002004 498.59515 499.55188
501.0 0.001996 498.59839 499.55835
502.0 0.001992 498.60168 499.56482
504.0 0.001984 498.60501 499.57144
503.0 0.001988 498.60834 499.57803
501.0 0.001996 498.61172 499.58475
507.0 0.001972 498.61517 499.59149
506.0 0.001976 498.61862 499.59833
507.0 0.001972 498.62213 499.60526
506.0 0.001976 498.62564 499.61215
505.0 0.001980 498.62921 499.61923
508.0 0.001969 498.63281 499.62631
503.0 0.001988 498.63647 499.63351
500.0 0.002000 498.64014 499.64072
502.0 0.001992 498.64386 499.64807
505.0 0.001980 498.64761 499.65546
504.0 0.001984 498.65140 499.66284
495.0 0.002020 498.65521 499.67035
504.0 0.001984 498.65906 499.67804
506.0 0.001976 498.66296 499.68564
507.0 0.001972 498.66690 499.69336
505.0 0.001980 498.67087 499.70120
504.0 0.001984 498.67487 499.70898
503.0 0.001988 498.67889 499.71695
501.0 0.001996 498.68298 499.72504
499.0 0.002004 498.68710 499.73303
504.0 0.001984 498.69125 499.74130
505.0 0.001980 498.69543 499.74960
504.0 0.001984 498.69965 499.75787
503.0 0.001988 498.70392 499.76627
505.0 0.001980 498.70822 499.77481
502.0 0.001992 498.71255 499.78339
503.0 0.001988 498.71692 499.79193
503.0 0.001988 498.72131 499.80072
506.0 0.001976 498.72577 499.80948
507.0 0.001972 498.73026 499.81833
500.0 0.002000 498.73477 499.82730
503.0 0.001988 498.73932 499.83636
504.0 0.001984 498.74393 499.84546
508.0 0.001969 498.74857 499.85464
507.0 0.001972 498.75323 499.86389
501.0 0.001996 498.75793 499.87329
505.0 0.001980 498.76266 499.88269
504.0 0.001984 498.76746 499.89224
507.0 0.001972 498.77228 499.90186
507.0 0.001972 498.77713 499.91156
502.0 0.001992 498.78201 499.92130
503.0 0.001988 498.78696 499.93121
504.0 0.001984 498.79193 499.94119
500.0 0.002000 498.79694 499.95123
502.0 0.001992 498.80197 499.96133
503.0 0.001988 498.80704 499.97153
500.0 0.002000 498.81216 499.98187
496.0 0.002016 498.81732 499.99213
498.0 0.002008 498.82251 500.00272
503.0 0.001988 498.82776 500.01328
503.0 0.001988 498.83304 500.02399
505.0 0.001980 498.83835 500.03470
504.0 0.001984 498.84369 500.04565
508.0 0.001969 498.84906 500.05658
506.0 0.001976 498.85449 500.06760
504.0 0.001984 498.85995 500.07877
506.0 0.001976 498.86545 500.08997
505.0 0.001980 498.87097 500.10126
508.0 0.001969 498.87656 500.11276
506.0 0.001976 498.88217 500.12427
508.0 0.001969 498.88782 500.13589
506.0 0.001976 498.89352 500.14761
506.0 0.001976 498.89923 500.15948
507.0 0.001972 498.90500 500.17136
510.0 0.001961 498.91080 500.18344
513.0 0.001949 498.91666 500.19559
506.0 0.001976 498.92252 500.20786
499.0 0.002004 498.92844 500.22021
504.0 0.001984 498.93442 500.23267
503.0 0.001988 498.94040 500.24527
500.0 0.002000 498.94644 500.25784
502.0 0.001992 498.95251 500.27069
497.0 0.002012 498.95862 500.28357
498.0 0.002008 498.96478 500.29654
501.0 0.001996 498.97098 500.30975
499.0 0.002004 498.97720 500.32291
505.0 0.001980 498.98346 500.33627
507.0 0.001972 498.98978 500.34976
505.0 0.001980 498.99612 500.36331
502.0 0.001992 499.00250 500.37689
503.0 0.001988 499.00891 500.39078
505.0 0.001980 499.01538 500.40469
504.0 0.001984 499.02188 500.41876
505.0 0.001980 499.02844 500.43295
504.0 0.001984 499.03500 500.44724
504.0 0.001984 499.04163 500.46164
509.0 0.001965 499.04828 500.47623
507.0 0.001972 499.05499 500.49091
507.0 0.001972 499.06171 500.50571
508.0 0.001969 499.06848 500.52063
503.0 0.001988 499.07532 500.53574
502.0 0.001992 499.08215 500.55084
502.0 0.001992 499.08905 500.56622
498.0 0.002008 499.09598 500.58167
498.0 0.002008 499.10297 500.59726
502.0 0.001992 499.10995 500.61307
503.0 0.001988 499.11700 500.62888
500.0 0.002000 499.12411 500.64493
500.0 0.002000 499.13123 500.66110
498.0 0.002008 499.13840 500.67737
500.0 0.002000 499.14560 500.69388
503.0 0.001988 499.15286 500.71045
503.0 0.001988 499.16013 500.72708
498.0 0.002008 499.16748 500.74405
504.0 0.001984 499.17484 500.76105
505.0 0.001980 499.18222 500.77826
504.0 0.001984 499.18967 500.79568
501.0 0.001996 499.19717 500.81314
502.0 0.001992 499.20468 500.83081
509.0 0.001965 499.21225 500.84863
502.0 0.001992 499.21985 500.86661
497.0 0.002012 499.22751 500.88477
505.0 0.001980 499.23517 500.90311
504.0 0.001984 499.24289 500.92157
503.0 0.001988 499.25067 500.94025
501.0 0.001996 499.25848 500.95908
502.0 0.001992 499.26630 500.97800
502.0 0.001992 499.27420 500.99719
500.0 0.002000 499.28210 501.01660
500.0 0.002000 499.29007 501.03613
500.0 0.002000 499.29807 501.05588
503.0 0.001988 499.30612 501.07578
501.0 0.001996 499.31421 501.09589
498.0 0.002008 499.32233 501.11621
501.0 0.001996 499.33047 501.13666
502.0 0.001992 499.33868 501.15738
499.0 0.002004 499.34692 501.17816
494.0 0.002024 499.35519 501.19922
499.0 0.002004 499.36353 501.22049
501.0 0.001996 499.37189 501.24197
500.0 0.002000 499.38028 501.26364
507.0 0.001972 499.38873 501.28564
508.0 0.001969 499.39722 501.30771
505.0 0.001980 499.40573 501.33011
502.0 0.001992 499.41428 501.35260
501.0 0.001996 499.42288 501.37540
503.0 0.001988 499.43152 501.39841
507.0 0.001972 499.44022 501.42166
506.0 0.001976 499.44894 501.44507
508.0 0.001969 499.45770 501.46878
507.0 0.001972 499.46649 501.49265
506.0 0.001976 499.47534 501.51688
500.0 0.002000 499.48422 501.54126
505.0 0.001980 499.49316 501.56595
506.0 0.001976 499.50211 501.59091
506.0 0.001976 499.51111 501.61609
503.0 0.001988 499.52017 501.64160
498.0 0.002008 499.52924 501.66727
501.0 0.001996 499.53836 501.69321
502.0 0.001992 499.54755 501.71945
508.0 0.001969 499.55673 501.74600
504.0 0.001984 499.56598 501.77286
502.0 0.001992 499.57529 501.79993
506.0 0.001976 499.58459 501.82727
504.0 0.001984 499.59396 501.85504
502.0 0.001992 499.60336 501.88297
506.0 0.001976 499.61282 501.91122
506.0 0.001976 499.62231 501.93982
507.0 0.001972 499.63184 501.96875
506.0 0.001976 499.64142 501.99802
508.0 0.001969 499.65103 502.02756
506.0 0.001976 499.66068 502.05743
504.0 0.001984 499.67035 502.08774
505.0 0.001980 499.68008 502.11823
507.0 0.001972 499.68985 502.14917
506.0 0.001976 499.69968 502.18039
508.0 0.001969 499.70953 502.21201
507.0 0.001972 499.71942 502.24399
507.0 0.001972 499.72934 502.27637
508.0 0.001969 499.73932 502.30917
509.0 0.001965 499.74933 502.34229
502.0 0.001992 499.75940 502.37582
505.0 0.001980 499.76950 502.40973
506.0 0.001976 499.77963 502.44397
503.0 0.001988 499.78979 502.47876
505.0 0.001980 499.80002 502.51385
502.0 0.001992 499.81027 502.54950
504.0 0.001984 499.82056 502.58545
499.0 0.002004 499.83090 502.62195
502.0 0.001992 499.84128 502.65884
508.0 0.001969 499.85172 502.69620
507.0 0.001972 499.86215 502.73407
510.0 0.001961 499.87265 502.77243
504.0 0.001984 499.88321 502.81125
503.0 0.001988 499.89377 502.85059
503.0 0.001988 499.90442 502.89038
503.0 0.001988 499.91507 502.93076
499.0 0.002004 499.92575 502.97156
505.0 0.001980 499.93652 503.01300
505.0 0.001980 499.94730 503.05493
506.0 0.001976 499.95813 503.09744
502.0 0.001992 499.96899 503.14056
505.0 0.001980 499.97989 503.18417
508.0 0.001969 499.99084 503.22849
505.0 0.001980 500.00180 503.27338
505.0 0.001980 500.01285 503.31882
508.0 0.001969 500.02390 503.36496
506.0 0.001976 500.03500 503.41174
508.0 0.001969 500.04617 503.45914
503.0 0.001988 500.05734 503.50726
507.0 0.001972 500.06857 503.55600
504.0 0.001984 500.07986 503.60550
506.0 0.001976 500.09116 503.65576
501.0 0.001996 500.10251 503.70676
500.0 0.002000 500.11389 503.75842
504.0 0.001984 500.12531 503.81097
504.0 0.001984 500.13678 503.86417
504.0 0.001984 500.14832 503.91827
510.0 0.001961 500.15985 503.97318
508.0 0.001969 500.17145 504.02896
506.0 0.001976 500.18307 504.08551
509.0 0.001965 500.19476 504.14301
510.0 0.001961 500.20645 504.20142
507.0 0.001972 500.21820 504.26065
504.0 0.001984 500.23001 504.32098
508.0 0.001969 500.24185 504.38223
509.0 0.001965 500.25369 504.44449
508.0 0.001969 500.26563 504.50775
507.0 0.001972 500.27759 504.57208
509.0 0.001965 500.28955 504.63742
509.0 0.001965 500.30161 504.70389
510.0 0.001961 500.31366 504.77148
508.0 0.001969 500.32578 504.84021
508.0 0.001969 500.33792 504.91016
507.0 0.001972 500.35013 504.98129
506.0 0.001976 500.36237 505.05371
503.0 0.001988 500.37463 505.12735
499.0 0.002004 500.38696 505.20239
503.0 0.001988 500.39932 505.27872
505.0 0.001980 500.41171 505.35651
506.0 0.001976 500.42413 505.43561
505.0 0.001980 500.43661 505.51624
503.0 0.001988 500.44913 505.59839
502.0 0.001992 500.46167 505.68198
502.0 0.001992 500.47427 505.76724
501.0 0.001996 500.48691 505.85406
507.0 0.001972 500.49957 505.94260
508.0 0.001969 500.51230 506.03278
506.0 0.001976 500.52505 506.12485
508.0 0.001969 500.53784 506.21866
513.0 0.001949 500.55066 506.31433
512.0 0.001953 500.56354 506.41196
505.0 0.001980 500.57645 506.51151
505.0 0.001980 500.58942 506.61313
501.0 0.001996 500.60239 506.71683
506.0 0.001976 500.61542 506.82269
505.0 0.001980 500.62848 506.93076
507.0 0.001972 500.64160 507.04117
511.0 0.001957 500.65475 507.15369
511.0 0.001957 500.66794 507.26883
510.0 0.001961 500.68118 507.38635
510.0 0.001961 500.69443 507.50644
503.0 0.001988 500.70773 507.62909
506.0 0.001976 500.72110 507.75458
502.0 0.001992 500.73447 507.88278
503.0 0.001988 500.74789 508.01379
507.0 0.001972 500.76135 508.14780
508.0 0.001969 500.77487 508.28479
508.0 0.001969 500.78842 508.42496
502.0 0.001992 500.80197 508.56830
511.0 0.001957 500.81561 508.71497
509.0 0.001965 500.82925 508.86496
509.0 0.001965 500.84296 509.01855
506.0 0.001976 500.85669 509.17563
507.0 0.001972 500.87048 509.33646
509.0 0.001965 500.88431 509.50104
510.0 0.001961 500.89813 509.66968
508.0 0.001969 500.91205 509.84216
513.0 0.001949 500.92596 510.01898
512.0 0.001953 500.93994 510.19992
508.0 0.001969 500.95395 510.38531
511.0 0.001957 500.96802 510.57516
512.0 0.001953 500.98209 510.76981
516.0 0.001938 500.99622 510.96902
518.0 0.001931 501.01038 511.17316
514.0 0.001946 501.02460 511.38239
513.0 0.001949 501.03882 511.59677
508.0 0.001969 501.05310 511.81644
511.0 0.001957 501.06741 512.04156
512.0 0.001953 501.08179 512.27234
510.0 0.001961 501.09616 512.50873
514.0 0.001946 501.11060 512.75116
512.0 0.001953 501.12509 512.99951
507.0 0.001972 501.13959 513.25415
511.0 0.001957 501.15414 513.51520
513.0 0.001949 501.16873 513.78271
511.0 0.001957 501.18335 514.05676
508.0 0.001969 501.19800 514.33783
510.0 0.001961 501.21271 514.62585
507.0 0.001972 501.22745 514.92102
510.0 0.001961 501.24222 515.22333
509.0 0.001965 501.25702 515.53326
519.0 0.001927 501.27188 515.85089
518.0 0.001931 501.28677 516.17627
513.0 0.001949 501.30170 516.50946
510.0 0.001961 501.31665 516.85083
514.0 0.001946 501.33167 517.20044
514.0 0.001946 501.34671 517.55829
511.0 0.001957 501.36176 517.92474
514.0 0.001946 501.37689 518.29974
515.0 0.001942 501.39203 518.68347
519.0 0.001927 501.40723 519.07611
518.0 0.001931 501.42245 519.47766
519.0 0.001927 501.43771 519.88824
523.0 0.001912 501.45300 520.30774
522.0 0.001916 501.46835 520.73645
520.0 0.001923 501.48370 521.17432
517.0 0.001934 501.49911 521.62122
516.0 0.001938 501.51459 522.07721
516.0 0.001938 501.53006 522.54242
519.0 0.001927 501.54556 523.01648
514.0 0.001946 501.56113 523.49939
515.0 0.001942 501.57672 523.99091
515.0 0.001942 501.59235 524.49103
519.0 0.001927 501.60803 524.99939
521.0 0.001919 501.62372 525.51569
527.0 0.001898 501.63947 526.03961
526.0 0.001901 501.65524 526.57092
523.0 0.001912 501.67105 527.10889
524.0 0.001908 501.68689 527.65320
527.0 0.001898 501.70279 528.20306
524.0 0.001908 501.71869 528.75818
519.0 0.001927 501.73465 529.31750
520.0 0.001923 501.75064 529.88031
524.0 0.001908 501.76666 530.44574
523.0 0.001912 501.78275 531.01276
526.0 0.001901 501.79883 531.58051
535.0 0.001869 501.81497 532.14764
534.0 0.001873 501.83115 532.71307
531.0 0.001883 501.84735 533.27545
530.0 0.001887 501.86359 533.83337
525.0 0.001905 501.87985 534.38538
528.0 0.001894 501.89618 534.92993
532.0 0.001880 501.91251 535.46552
533.0 0.001876 501.92889 535.99023
534.0 0.001873 501.94531 536.50256
532.0 0.001880 501.96176 537.00061
529.0 0.001890 501.97824 537.48267
527.0 0.001898 501.99475 537.94684
531.0 0.001883 502.01132 538.39136
528.0 0.001894 502.02789 538.81433
533.0 0.001876 502.04453 539.21399
531.0 0.001883 502.06119 539.58868
532.0 0.001880 502.07788 539.93652
537.0 0.001862 502.09460 540.25610
538.0 0.001859 502.11136 540.54584
536.0 0.001866 502.12814 540.80444
533.0 0.001876 502.14499 541.03058
535.0 0.001869 502.16183 541.22314
539.0 0.001855 502.17874 541.38123
540.0 0.001852 502.19568 541.50415
543.0 0.001842 502.21265 541.59113
537.0 0.001862 502.22961 541.64209
539.0 0.001855 502.24667 541.65680
541.0 0.001848 502.26373 541.63519
533.0 0.001876 502.28082 541.57751
535.0 0.001869 502.29794 541.48431
542.0 0.001845 502.31512 541.35620
538.0 0.001859 502.33231 541.19397
531.0 0.001883 502.34955 540.99854
532.0 0.001880 502.36679 540.77124
533.0 0.001876 502.38409 540.51331
540.0 0.001852 502.40143 540.22614
531.0 0.001883 502.41879 539.91132
535.0 0.001869 502.43619 539.57043
537.0 0.001862 502.45361 539.20532
539.0 0.001855 502.47104 538.81757
538.0 0.001859 502.48856 538.40912
538.0 0.001859 502.50607 537.98175
536.0 0.001866 502.52362 537.53723
531.0 0.001883 502.54120 537.07751
534.0 0.001873 502.55881 536.60425
537.0 0.001862 502.57648 536.11945
531.0 0.001883 502.59415 535.62457
530.0 0.001887 502.61185 535.12134
525.0 0.001905 502.62961 534.61133
527.0 0.001898 502.64737 534.09607
530.0 0.001887 502.66516 533.57703
528.0 0.001894 502.68301 533.05548
529.0 0.001890 502.70087 532.53271
528.0 0.001894 502.71875 532.01007
531.0 0.001883 502.73669 531.48853
533.0 0.001876 502.75467 530.96899
534.0 0.001873 502.77264 530.45270
528.0 0.001894 502.79065 529.94025
524.0 0.001908 502.80872 529.43250
517.0 0.001934 502.82678 528.93011
511.0 0.001957 502.84488 528.43378
514.0 0.001946 502.86304 527.94403
515.0 0.001942 502.88120 527.46143
517.0 0.001934 502.89941 526.98627
526.0 0.001901 502.91763 526.51898
525.0 0.001905 502.93588 526.05988
525.0 0.001905 502.95419 525.60925
526.0 0.001901 502.97247 525.16736
522.0 0.001916 502.99084 524.73444
525.0 0.001905 503.00922 524.31042
522.0 0.001916 503.02762 523.89557
520.0 0.001923 503.04605 523.48993
520.0 0.001923 503.06451 523.09357
526.0 0.001901 503.08301 522.70648
525.0 0.001905 503.10150 522.32861
519.0 0.001927 503.12006 521.96014
519.0 0.001927 503.13861 521.60065
518.0 0.001931 503.15723 521.25049
518.0 0.001931 503.17584 520.90930
521.0 0.001919 503.19452 520.57703
517.0 0.001934 503.21320 520.25372
519.0 0.001927 503.23190 519.93909
518.0 0.001931 503.25064 519.63306
514.0 0.001946 503.26941 519.33563
515.0 0.001942 503.28821 519.04651
516.0 0.001938 503.30701 518.76569
514.0 0.001946 503.32587 518.49286
517.0 0.001934 503.34473 518.22803
513.0 0.001949 503.36365 517.97095
514.0 0.001946 503.38257 517.72150
516.0 0.001938 503.40152 517.47961
512.0 0.001953 503.42050 517.24493
510.0 0.001961 503.43948 517.01758
510.0 0.001961 503.45853 516.79718
512.0 0.001953 503.47760 516.58368
515.0 0.001942 503.49667 516.37708
511.0 0.001957 503.51578 516.17676
508.0 0.001969 503.53491 515.98315
513.0 0.001949 503.55408 515.79578
514.0 0.001946 503.57324 515.61438
514.0 0.001946 503.59244 515.43915
517.0 0.001934 503.61169 515.26971
516.0 0.001938 503.63095 515.10614
516.0 0.001938 503.65021 514.94812
516.0 0.001938 503.66953 514.79559
517.0 0.001934 503.68884 514.64838
517.0 0.001934 503.70822 514.50641
518.0 0.001931 503.72757 514.36969
511.0 0.001957 503.74698 514.23785
511.0 0.001957 503.76642 514.11096
512.0 0.001953 503.78586 513.98883
511.0 0.001957 503.80533 513.87134
511.0 0.001957 503.82483 513.75848
510.0 0.001961 503.84433 513.65009
509.0 0.001965 503.86386 513.54596
509.0 0.001965 503.88342 513.44623
511.0 0.001957 503.90302 513.35077
511.0 0.001957 503.92261 513.25928
508.0 0.001969 503.94226 513.17188
507.0 0.001972 503.96191 513.08844
508.0 0.001969 503.98157 513.00885
509.0 0.001965 504.00125 512.93317
507.0 0.001972 504.02097 512.86108
505.0 0.001980 504.04071 512.79279
509.0 0.001965 504.06049 512.72809
515.0 0.001942 504.08026 512.66693
515.0 0.001942 504.10004 512.60919
510.0 0.001961 504.11987 512.55493
511.0 0.001957 504.13971 512.50409
510.0 0.001961 504.15958 512.45660
514.0 0.001946 504.17944 512.41229
519.0 0.001927 504.19934 512.37134
515.0 0.001942 504.21927 512.33356
517.0 0.001934 504.23920 512.29895
517.0 0.001934 504.25919 512.26752
514.0 0.001946 504.27914 512.23914
511.0 0.001957 504.29913 512.21393
512.0 0.001953 504.31915 512.19183
513.0 0.001949 504.33920 512.17273
509.0 0.001965 504.35925 512.15656
510.0 0.001961 504.37930 512.14349
511.0 0.001957 504.39941 512.13342
515.0 0.001942 504.41949 512.12634
515.0 0.001942 504.43964 512.12213
510.0 0.001961 504.45978 512.12103
505.0 0.001980 504.47995 512.12280
508.0 0.001969 504.50012 512.12750
511.0 0.001957 504.52032 512.13531
512.0 0.001953 504.54053 512.14606
510.0 0.001961 504.56076 512.15979
516.0 0.001938 504.58099 512.17651
516.0 0.001938 504.60126 512.19617
513.0 0.001949 504.62155 512.21887
511.0 0.001957 504.64182 512.24457
513.0 0.001949 504.66214 512.27344
508.0 0.001969 504.68246 512.30530
508.0 0.001969 504.70282 512.34021
513.0 0.001949 504.72314 512.37830
510.0 0.001961 504.74353 512.41956
518.0 0.001931 504.76392 512.46387
517.0 0.001934 504.78430 512.51141
520.0 0.001923 504.80472 512.56213
521.0 0.001919 504.82516 512.61615
517.0 0.001934 504.84558 512.67358
510.0 0.001961 504.86603 512.73419
510.0 0.001961 504.88651 512.79828
511.0 0.001957 504.90701 512.86566
509.0 0.001965 504.92749 512.93652
510.0 0.001961 504.94800 513.01080
515.0 0.001942 504.96851 513.08862
514.0 0.001946 504.98904 513.17010
511.0 0.001957 505.00958 513.25500
509.0 0.001965 505.03015 513.34357
511.0 0.001957 505.05072 513.43585
511.0 0.001957 505.07132 513.53168
511.0 0.001957 505.09189 513.63135
512.0 0.001953 505.11249 513.73474
511.0 0.001957 505.13312 513.84192
510.0 0.001961 505.15372 513.95294
509.0 0.001965 505.17438 514.06769
509.0 0.001965 505.19501 514.18634
517.0 0.001934 505.21567 514.30878
513.0 0.001949 505.23633 514.43506
514.0 0.001946 505.25702 514.56525
511.0 0.001957 505.27771 514.69916
512.0 0.001953 505.29840 514.83691
515.0 0.001942 505.31909 514.97833
508.0 0.001969 505.33981 515.12360
512.0 0.001953 505.36053 515.27240
515.0 0.001942 505.38126 515.42480
514.0 0.001946 505.40201 515.58075
512.0 0.001953 505.42276 515.73999
509.0 0.001965 505.44348 515.90253
511.0 0.001957 505.46426 516.06818
512.0 0.001953 505.48502 516.23676
514.0 0.001946 505.50580 516.40808
522.0 0.001916 505.52658 516.58191
516.0 0.001938 505.54736 516.75806
515.0 0.001942 505.56815 516.93622
512.0 0.001953 505.58896 517.11591
512.0 0.001953 505.60977 517.29718
512.0 0.001953 505.63058 517.47937
513.0 0.001949 505.65140 517.66217
518.0 0.001931 505.67221 517.84515
516.0 0.001938 505.69302 518.02777
518.0 0.001931 505.71387 518.20978
515.0 0.001942 505.73471 518.39038
512.0 0.001953 505.75552 518.56909
514.0 0.001946 505.77637 518.74542
517.0 0.001934 505.79724 518.91864
518.0 0.001931 505.81805 519.08807
523.0 0.001912 505.83893 519.25336
521.0 0.001919 505.85977 519.41351
519.0 0.001927 505.88065 519.56787
514.0 0.001946 505.90149 519.71600
511.0 0.001957 505.92236 519.85681
514.0 0.001946 505.94324 519.99011
514.0 0.001946 505.96408 520.11475
513.0 0.001949 505.98495 520.23047
516.0 0.001938 506.00583 520.33649
510.0 0.001961 506.02670 520.43219
515.0 0.001942 506.04755 520.51709
516.0 0.001938 506.06842 520.59070
512.0 0.001953 506.08929 520.65265
512.0 0.001953 506.11017 520.70264
517.0 0.001934 506.13101 520.74023
518.0 0.001931 506.15189 520.76514
513.0 0.001949 506.17276 520.77753
518.0 0.001931 506.19360 520.77722
519.0 0.001927 506.21448 520.76398
514.0 0.001946 506.23535 520.73828
517.0 0.001934 506.25623 520.70001
516.0 0.001938 506.27707 520.64954
518.0 0.001931 506.29791 520.58728
519.0 0.001927 506.31876 520.51355
514.0 0.001946 506.33960 520.42865
513.0 0.001949 506.36044 520.33331
517.0 0.001934 506.38129 520.22797
518.0 0.001931 506.40213 520.11334
514.0 0.001946 506.42294 519.98987
515.0 0.001942 506.44379 519.85828
518.0 0.001931 506.46460 519.71924
520.0 0.001923 506.48541 519.57343
516.0 0.001938 506.50623 519.42157
510.0 0.001961 506.52704 519.26422
512.0 0.001953 506.54782 519.10211
515.0 0.001942 506.56860 518.93585
518.0 0.001931 506.58939 518.76617
518.0 0.001931 506.61017 518.59369
520.0 0.001923 506.63095 518.41888
516.0 0.001938 506.65170 518.24237
514.0 0.001946 506.67245 518.06464
517.0 0.001934 506.69321 517.88623
517.0 0.001934 506.71393 517.70764
516.0 0.001938 506.73465 517.52917
516.0 0.001938 506.75537 517.35138
513.0 0.001949 506.77609 517.17456
513.0 0.001949 506.79678 516.99902
514.0 0.001946 506.81747 516.82507
513.0 0.001949 506.83817 516.65302
519.0 0.001927 506.85880 516.48309
519.0 0.001927 506.87946 516.31549
520.0 0.001923 506.90012 516.15039
514.0 0.001946 506.92075 515.98792
516.0 0.001938 506.94138 515.82837
517.0 0.001934 506.96198 515.67175
519.0 0.001927 506.98257 515.51813
514.0 0.001946 507.00314 515.36761
512.0 0.001953 507.02371 515.22040
509.0 0.001965 507.04428 515.07642
513.0 0.001949 507.06482 514.93567
516.0 0.001938 507.08533 514.79828
515.0 0.001942 507.10587 514.66418
515.0 0.001942 507.12637 514.53345
520.0 0.001923 507.14685 514.40601
517.0 0.001934 507.16730 514.28180
518.0 0.001931 507.18774 514.16101
512.0 0.001953 507.20819 514.04333
511.0 0.001957 507.22861 513.92908
509.0 0.001965 507.24902 513.81787
511.0 0.001957 507.26941 513.70984
509.0 0.001965 507.28976 513.60492
513.0 0.001949 507.31012 513.50299
513.0 0.001949 507.33044 513.40405
511.0 0.001957 507.35077 513.30811
514.0 0.001946 507.37103 513.21503
517.0 0.001934 507.39133 513.12476
517.0 0.001934 507.41156 513.03723
519.0 0.001927 507.43182 512.95251
518.0 0.001931 507.45203 512.87030
516.0 0.001938 507.47220 512.79065
514.0 0.001946 507.49237 512.71362
512.0 0.001953 507.51251 512.63898
513.0 0.001949 507.53265 512.56683
510.0 0.001961 507.55276 512.49695
515.0 0.001942 507.57285 512.42938
510.0 0.001961 507.59290 512.36407
511.0 0.001957 507.61295 512.30090
518.0 0.001931 507.63297 512.23987
513.0 0.001949 507.65295 512.18079
515.0 0.001942 507.67291 512.12372
511.0 0.001957 507.69287 512.06866
515.0 0.001942 507.71277 512.01544
514.0 0.001946 507.73267 511.96405
511.0 0.001957 507.75253 511.91449
512.0 0.001953 507.77237 511.86658
512.0 0.001953 507.79218 511.82037
509.0 0.001965 507.81195 511.77582
511.0 0.001957 507.83173 511.73288
514.0 0.001946 507.85144 511.69141
516.0 0.001938 507.87115 511.65149
516.0 0.001938 507.89084 511.61298
510.0 0.001961 507.91046 511.57584
516.0 0.001938 507.93011 511.54019
515.0 0.001942 507.94968 511.50574
512.0 0.001953 507.96924 511.47256
510.0 0.001961 507.98877 511.44073
511.0 0.001957 508.00824 511.41000
516.0 0.001938 508.02774 511.38049
519.0 0.001927 508.04715 511.35211
516.0 0.001938 508.06656 511.32480
512.0 0.001953 508.08594 511.29858
510.0 0.001961 508.10526 511.27341
513.0 0.001949 508.12457 511.24927
508.0 0.001969 508.14386 511.22604
511.0 0.001957 508.16309 511.20380
514.0 0.001946 508.18225 511.18240
516.0 0.001938 508.20145 511.16196
512.0 0.001953 508.22058 511.14236
513.0 0.001949 508.23969 511.12357
508.0 0.001969 508.25873 511.10556
505.0 0.001980 508.27774 511.08841
505.0 0.001980 508.29675 511.07190
512.0 0.001953 508.31570 511.05618
509.0 0.001965 508.33459 511.04120
511.0 0.001957 508.35349 511.02679
509.0 0.001965 508.37231 511.01315
515.0 0.001942 508.39111 511.00015
517.0 0.001934 508.40988 510.98776
518.0 0.001931 508.42859 510.97601
517.0 0.001934 508.44730 510.96487
513.0 0.001949 508.46594 510.95425
515.0 0.001942 508.48453 510.94415
513.0 0.001949 508.50308 510.93469
512.0 0.001953 508.52161 510.92563
518.0 0.001931 508.54007 510.91711
518.0 0.001931 508.55850 510.90918
515.0 0.001942 508.57687 510.90161
510.0 0.001961 508.59521 510.89450
513.0 0.001949 508.61353 510.88791
516.0 0.001938 508.63177 510.88168
507.0 0.001972 508.64999 510.87582
511.0 0.001957 508.66818 510.87051
510.0 0.001961 508.68628 510.86554
515.0 0.001942 508.70438 510.86090
514.0 0.001946 508.72238 510.85666
514.0 0.001946 508.74036 510.85281
514.0 0.001946 508.75830 510.84927
511.0 0.001957 508.77618 510.84604
511.0 0.001957 508.79401 510.84323
510.0 0.001961 508.81183 510.84064
513.0 0.001949 508.82956 510.83844
511.0 0.001957 508.84723 510.83655
510.0 0.001961 508.86490 510.83484
516.0 0.001938 508.88248 510.83347
519.0 0.001927 508.90002 510.83237
516.0 0.001938 508.91751 510.83148
513.0 0.001949 508.93494 510.83093
510.0 0.001961 508.95233 510.83066
512.0 0.001953 508.96964 510.83054
511.0 0.001957 508.98691 510.83078
515.0 0.001942 509.00415 510.83121
511.0 0.001957 509.02130 510.83173
511.0 0.001957 509.03839 510.83252
511.0 0.001957 509.05548 510.83359
512.0 0.001953 509.07248 510.83475
507.0 0.001972 509.08942 510.83615
513.0 0.001949 509.10632 510.83780
509.0 0.001965 509.12314 510.83954
510.0 0.001961 509.13992 510.84152
507.0 0.001972 509.15662 510.84369
508.0 0.001969 509.17328 510.84598
510.0 0.001961 509.18988 510.84842
509.0 0.001965 509.20642 510.85101
510.0 0.001961 509.22290 510.85376
514.0 0.001946 509.23932 510.85666
511.0 0.001957 509.25568 510.85974
511.0 0.001957 509.27194 510.86292
515.0 0.001942 509.28821 510.86618
513.0 0.001949 509.30435 510.86966
517.0 0.001934 509.32050 510.87329
513.0 0.001949 509.33652 510.87692
511.0 0.001957 509.35248 510.88074
512.0 0.001953 509.36841 510.88464
513.0 0.001949 509.38425 510.88864
516.0 0.001938 509.40002 510.89270
511.0 0.001957 509.41577 510.89691
509.0 0.001965 509.43140 510.90121
512.0 0.001953 509.44696 510.90561
511.0 0.001957 509.46249 510.91006
512.0 0.001953 509.47794 510.91464
519.0 0.001927 509.49332 510.91922
519.0 0.001927 509.50864 510.92398
516.0 0.001938 509.52386 510.92871
508.0 0.001969 509.53906 510.93362
508.0 0.001969 509.55414 510.93860
510.0 0.001961 509.56915 510.94357
512.0 0.001953 509.58414 510.94858
507.0 0.001972 509.59900 510.95374
511.0 0.001957 509.61380 510.95892
511.0 0.001957 509.62854 510.96411
512.0 0.001953 509.64319 510.96936
511.0 0.001957 509.65778 510.97467
512.0 0.001953 509.67230 510.98001
516.0 0.001938 509.68674 510.98541
510.0 0.001961 509.70111 510.99081
507.0 0.001972 509.71539 510.99631
512.0 0.001953 509.72958 511.00180
512.0 0.001953 509.74371 511.00726
514.0 0.001946 509.75775 511.01285
514.0 0.001946 509.77173 511.01846
516.0 0.001938 509.78561 511.02405
511.0 0.001957 509.79944 511.02972
511.0 0.001957 509.81314 511.03531
515.0 0.001942 509.82681 511.04105
514.0 0.001946 509.84036 511.04669
513.0 0.001949 509.85385 511.05240
509.0 0.001965 509.86725 511.05811
506.0 0.001976 509.88055 511.06378
512.0 0.001953 509.89380 511.06949
511.0 0.001957 509.90695 511.07520
518.0 0.001931 509.92001 511.08090
510.0 0.001961 509.93298 511.08670
510.0 0.001961 509.94589 511.09238
516.0 0.001938 509.95868 511.09805
509.0 0.001965 509.97141 511.10379
504.0 0.001984 509.98404 511.10947
506.0 0.001976 509.99655 511.11517
508.0 0.001969 510.00903 511.12085
511.0 0.001957 510.02136 511.12653
507.0 0.001972 510.03366 511.13217
509.0 0.001965 510.04584 511.13782
507.0 0.001972 510.05789 511.14343
512.0 0.001953 510.06992 511.14896
511.0 0.001957 510.08182 511.15454
515.0 0.001942 510.09360 511.16003
511.0 0.001957 510.10535 511.16556
514.0 0.001946 510.11694 511.17105
513.0 0.001949 510.12845 511.17648
518.0 0.001931 510.13989 511.18195
516.0 0.001938 510.15121 511.18729
514.0 0.001946 510.16245 511.19269
518.0 0.001931 510.17358 511.19797
518.0 0.001931 510.18463 511.20328
523.0 0.001912 510.19559 511.20856
520.0 0.001923 510.20642 511.21375
512.0 0.001953 510.21713 511.21890
514.0 0.001946 510.22778 511.22400
517.0 0.001934 510.23831 511.22910
513.0 0.001949 510.24875 511.23416
508.0 0.001969 510.25909 511.23907
506.0 0.001976 510.26932 511.24405
510.0 0.001961 510.27942 511.24896
510.0 0.001961 510.28946 511.25375
513.0 0.001949 510.29935 511.25858
512.0 0.001953 510.30917 511.26334
514.0 0.001946 510.31888 511.26794
511.0 0.001957 510.32846 511.27255
510.0 0.001961 510.33795 511.27716
509.0 0.001965 510.34732 511.28159
508.0 0.001969 510.35660 511.28592
508.0 0.001969 510.36575 511.29034
505.0 0.001980 510.37479 511.29465
516.0 0.001938 510.38373 511.29892
515.0 0.001942 510.39255 511.30304
512.0 0.001953 510.40128 511.30713
509.0 0.001965 510.40985 511.31116
509.0 0.001965 510.41837 511.31509
510.0 0.001961 510.42673 511.31897
516.0 0.001938 510.43497 511.32288
520.0 0.001923 510.44312 511.32654
523.0 0.001912 510.45114 511.33020
515.0 0.001942 510.45905 511.33380
509.0 0.001965 510.46683 511.33734
505.0 0.001980 510.47449 511.34082
507.0 0.001972 510.48206 511.34412
516.0 0.001938 510.48947 511.34744
512.0 0.001953 510.49677 511.35062
513.0 0.001949 510.50397 511.35370
513.0 0.001949 510.51102 511.35669
512.0 0.001953 510.51797 511.35968
515.0 0.001942 510.52481 511.36240
514.0 0.001946 510.53149 511.36520
511.0 0.001957 510.53806 511.36786
514.0 0.001946 510.54449 511.37042
514.0 0.001946 510.55081 511.37289
513.0 0.001949 510.55701 511.37537
510.0 0.001961 510.56308 511.37759
511.0 0.001957 510.56900 511.37982
510.0 0.001961 510.57483 511.38184
514.0 0.001946 510.58051 511.38391
516.0 0.001938 510.58603 511.38589
517.0 0.001934 510.59146 511.38754
515.0 0.001942 510.59674 511.38928
511.0 0.001957 510.60190 511.39090
514.0 0.001946 510.60690 511.39236
515.0 0.001942 510.61179 511.39377
515.0 0.001942 510.61655 511.39505
511.0 . . .
514.0 . . .
515.0 . . .
511.0 . . .
512.0 . . .
512.0 . . .
517.0 . . .
514.0 . . .
513.0 . . .
517.0 . . .
512.0 . . .
513.0 . . .
509.0 . . .
512.0 . . .
512.0 . . .
514.0 . . .
516.0 . . .
510.0 . . .
514.0 . . .
512.0 . . .
513.0 . . .
520.0 . . .
517.0 . . .
516.0 . . .
517.0 . . .
514.0 . . .
517.0 . . .
517.0 . . .
515.0 . . .
514.0 . . .
519.0 . . .
515.0 . . .
512.0 . . .
511.0 . . .
512.0 . . .
513.0 . . .
510.0 . . .
513.0 . . .
512.0 . . .
510.0 . . .
516.0 . . .
513.0 . . .
518.0 . . .
517.0 . . .
517.0 . . .
516.0 . . .
510.0 . . .
512.0 . . .
510.0 . . .
512.0 . . .
514.0 . . .
520.0 . . .
518.0 . . .
517.0 . . .
520.0 . . .
515.0 . . .
510.0 . . .
513.0 . . .
515.0 . . .
515.0 . . .
515.0 . . .
513.0 . . .
515.0 . . .
515.0 . . .
516.0 . . .
516.0 . . .
511.0 . . .
510.0 . . .
512.0 . . .
512.0 . . .
520.0 . . .
522.0 . . .
523.0 . . .
522.0 . . .
524.0 . . .
520.0 . . .
515.0 . . .
516.0 . . .
520.0 . . .
519.0 . . .
516.0 . . .
515.0 . . .
515.0 . . .
514.0 . . .
512.0 . . .
518.0 . . .
516.0 . . .
519.0 . . .
516.0 . . .
512.0 . . .
513.0 . . .
517.0 . . .
515.0 . . .
515.0 . . .
517.0 . . .
517.0 . . .
514.0 . . .
517.0 . . .
519.0 . . .
522.0 . . .
519.0 . . .
521.0 . . .
519.0 . . .
519.0 . . .
517.0 . . .
519.0 . . .
518.0 . . .
515.0 . . .
515.0 . . .
518.0 . . .
514.0 . . .
513.0 . . .
515.0 . . .
518.0 . . .
523.0 . . .
519.0 . . .
517.0 . . .
515.0 . . .
510.0 . . .
514.0 . . .
511.0 . . .
518.0 . . .
517.0 . . .
517.0 . . .
519.0 . . .
519.0 . . .
519.0 . . .
514.0 . . .
514.0 . . .
514.0 . . .
515.0 . . .
513.0 . . .
519.0 . . .
525.0 . . .
525.0 . . .
518.0 . . .
514.0 . . .
516.0 . . .
522.0 . . .
516.0 . . .
518.0 . . .
518.0 . . .
516.0 . . .
518.0 . . .
516.0 . . .
518.0 . . .
517.0 . . .
516.0 . . .
512.0 . . .
515.0 . . .
523.0 . . .
524.0 . . .
523.0 . . .
520.0 . . .
519.0 . . .
520.0 . . .
522.0 . . .
522.0 . . .
521.0 . . .
519.0 . . .
517.0 . . .
516.0 . . .
512.0 . . .
513.0 . . .
511.0 . . .
512.0 . . .
512.0 . . .
513.0 . . .
515.0 . . .
521.0 . . .
523.0 . . .
519.0 . . .
516.0 . . .
519.0 . . .
518.0 . . .
524.0 . . .
519.0 . . .
520.0 . . .
519.0 . . .
520.0 . . .
515.0 . . .
518.0 . . .
524.0 . . .
525.0 . . .
522.0 . . .
524.0 . . .
525.0 . . .
524.0 . . .
527.0 . . .
523.0 . . .
523.0 . . .
523.0 . . .
516.0 . . .
520.0 . . .
523.0 . . .
522.0 . . .
523.0 . . .
522.0 . . .
522.0 . . .
527.0 . . .
524.0 . . .
530.0 . . .
528.0 . . .
524.0 . . .
526.0 . . .
526.0 . . .
528.0 . . .
530.0 . . .
526.0 . . .
521.0 . . .
524.0 . . .
528.0 . . .
526.0 . . .
527.0 . . .
531.0 . . .
522.0 . . .
518.0 . . .
519.0 . . .
525.0 . . .
531.0 . . .
522.0 . . .
521.0 . . .
521.0 . . .
522.0 . . .
524.0 . . .
527.0 . . .
533.0 . . .
533.0 . . .
534.0 . . .
534.0 . . .
528.0 . . .
529.0 . . .
523.0 . . .
524.0 . . .
525.0 . . .
526.0 . . .
525.0 . . .
529.0 . . .
529.0 . . .
529.0 . . .
526.0 . . .
532.0 . . .
531.0 . . .
533.0 . . .
524.0 . . .
528.0 . . .
524.0 . . .
518.0 . . .
522.0 . . .
524.0 . . .
523.0 . . .
523.0 . . .
521.0 . . .
521.0 . . .
520.0 . . .
522.0 . . .
521.0 . . .
524.0 . . .
527.0 . . .
526.0 . . .
519.0 . . .
525.0 . . .
523.0 . . .
523.0 . . .
522.0 . . .
521.0 . . .
523.0 . . .
518.0 . . .
516.0 . . .
520.0 . . .
518.0 . . .
519.0 . . .
516.0 . . .
514.0 . . .
518.0 . . .
518.0 . . .
516.0 . . .
518.0 . . .
517.0 . . .
515.0 . . .
513.0 . . .
518.0 . . .
516.0 . . .
521.0 . . .
520.0 . . .
521.0 . . .
522.0 . . .
518.0 . . .
518.0 . . .
519.0 . . .
520.0 . . .
521.0 . . .
517.0 . . .
524.0 . . .
522.0 . . .
513.0 . . .
514.0 . . .
515.0 . . .
520.0 . . .
520.0 . . .
517.0 . . .
514.0 . . .
516.0 . . .
511.0 . . .
517.0 . . .
523.0 . . .
521.0 . . .
520.0 . . .
514.0 . . .
517.0 . . .
514.0 . . .
515.0 . . .
518.0 . . .
520.0 . . .
520.0 . . .
518.0 . . .
517.0 . . .
522.0 . . .
525.0 . . .
526.0 . . .
513.0 . . .
514.0 . . .
515.0 . . .
516.0 . . .
514.0 . . .
516.0 . . .
517.0 . . .
513.0 . . .
512.0 . . .
515.0 . . .
517.0 . . .
514.0 . . .
512.0 . . .
513.0 . . .
514.0 . . .
516.0 . . .
516.0 . . .
521.0 . . .
521.0 . . .
516.0 . . .
518.0 . . .
521.0 . . .
525.0 . . .
527.0 . . .
519.0 . . .
519.0 . . .
523.0 . . .
520.0 . . .
516.0 . . .
515.0 . . .
520.0 . . .
516.0 . . .
516.0 . . .
518.0 . . .
516.0 . . .
514.0 . . .
510.0 . . .
511.0 . . .
509.0 . . .
515.0 . . .
517.0 . . .
517.0 . . .
514.0 . . .
513.0 . . .
512.0 . . .
518.0 . . .
515.0 . . .
516.0 . . .
513.0 . . .
515.0 . . .
519.0 . . .
523.0 . . .
520.0 . . .
520.0 . . .
517.0 . . .
512.0 . . .
512.0 . . .
513.0 . . .
514.0 . . .
512.0 . . .
508.0 . . .
515.0 . . .
514.0 . . .
513.0 . . .
514.0 . . .
517.0 . . .
515.0 . . .
514.0 . . .
514.0 . . .
518.0 . . .
512.0 . . .
511.0 . . .
512.0 . . .
516.0 . . .
512.0 . . .
510.0 . . .
509.0 . . .
514.0 . . .
515.0 . . .
517.0 . . .
514.0 . . .
516.0 . . .
516.0 . . .
514.0 . . .
512.0 . . .
520.0 . . .
520.0 . . .
518.0 . . .
517.0 . . .
513.0 . . .
516.0 . . .
511.0 . . .
509.0 . . .
513.0 . . .
514.0 . . .
516.0 . . .
519.0 . . .
519.0 . . .
520.0 . . .
514.0 . . .
515.0 . . .
518.0 . . .
518.0 . . .
519.0 . . .
513.0 . . .
520.0 . . .
520.0 . . .
518.0 . . .
513.0 . . .
512.0 . . .
513.0 . . .
509.0 . . .
510.0 . . .
511.0 . . .
512.0 . . .
516.0 . . .
507.0 . . .
508.0 . . .
508.0 . . .
508.0 . . .
512.0 . . .
514.0 . . .
513.0 . . .
516.0 . . .
514.0 . . .
520.0 . . .
521.0 . . .
515.0 . . .
512.0 . . .
514.0 . . .
516.0 . . .
512.0 . . .
511.0 . . .
517.0 . . .
516.0 . . .
514.0 . . .
509.0 . . .
516.0 . . .
520.0 . . .
516.0 . . .
509.0 . . .
510.0 . . .
515.0 . . .
515.0 . . .
517.0 . . .
520.0 . . .
518.0 . . .
519.0 . . .
517.0 . . .
519.0 . . .
520.0 . . .
519.0 . . .
519.0 . . .
520.0 . . .
519.0 . . .
517.0 . . .
517.0 . . .
519.0 . . .
523.0 . . .
519.0 . . .
513.0 . . .
517.0 . . .
518.0 . . .
519.0 . . .
519.0 . . .
520.0 . . .
521.0 . . .
515.0 . . .
515.0 . . .
519.0 . . .
518.0 . . .
519.0 . . .
514.0 . . .
512.0 . . .
516.0 . . .
520.0 . . .
521.0 . . .
519.0 . . .
521.0 . . .
524.0 . . .
519.0 . . .
521.0 . . .
527.0 . . .
524.0 . . .
520.0 . . .
522.0 . . .
522.0 . . .
522.0 . . .
524.0 . . .
525.0 . . .
522.0 . . .
517.0 . . .
520.0 . . .
523.0 . . .
523.0 . . .
521.0 . . .
513.0 . . .
519.0 . . .
517.0 . . .
516.0 . . .
517.0 . . .
520.0 . . .
525.0 . . .
524.0 . . .
526.0 . . .
524.0 . . .
523.0 . . .
525.0 . . .
523.0 . . .
523.0 . . .
527.0 . . .
530.0 . . .
526.0 . . .
527.0 . . .
525.0 . . .
522.0 . . .
527.0 . . .
525.0 . . .
523.0 . . .
523.0 . . .
517.0 . . .
520.0 . . .
525.0 . . .
526.0 . . .
525.0 . . .
526.0 . . .
521.0 . . .
522.0 . . .
521.0 . . .
523.0 . . .
521.0 . . .
520.0 . . .
526.0 . . .
529.0 . . .
524.0 . . .
524.0 . . .
524.0 . . .
519.0 . . .
524.0 . . .
526.0 . . .
526.0 . . .
527.0 . . .
527.0 . . .
524.0 . . .
524.0 . . .
522.0 . . .
522.0 . . .
524.0 . . .
519.0 . . .
524.0 . . .
524.0 . . .
523.0 . . .
526.0 . . .
525.0 . . .
523.0 . . .
523.0 . . .
527.0 . . .
532.0 . . .
531.0 . . .
533.0 . . .
524.0 . . .
531.0 . . .
533.0 . . .
530.0 . . .
526.0 . . .
526.0 . . .
528.0 . . .
526.0 . . .
526.0 . . .
529.0 . . .
525.0 . . .
523.0 . . .
519.0 . . .
526.0 . . .
531.0 . . .
527.0 . . .
529.0 . . .
530.0 . . .
530.0 . . .
533.0 . . .
531.0 . . .
528.0 . . .
522.0 . . .
532.0 . . .
533.0 . . .
538.0 . . .
537.0 . . .
535.0 . . .
531.0 . . .
528.0 . . .
530.0 . . .
531.0 . . .
536.0 . . .
538.0 . . .
529.0 . . .
527.0 . . .
523.0 . . .
532.0 . . .
533.0 . . .
527.0 . . .
522.0 . . .
523.0 . . .
528.0 . . .
527.0 . . .
525.0 . . .
526.0 . . .
525.0 . . .
524.0 . . .
524.0 . . .
522.0 . . .
527.0 . . .
533.0 . . .
531.0 . . .
528.0 . . .
531.0 . . .
523.0 . . .
523.0 . . .
529.0 . . .
537.0 . . .
529.0 . . .
523.0 . . .
529.0 . . .
529.0 . . .
531.0 . . .
525.0 . . .
523.0 . . .
523.0 . . .
518.0 . . .
514.0 . . .
516.0 . . .
522.0 . . .
526.0 . . .
521.0 . . .
523.0 . . .
527.0 . . .
522.0 . . .
518.0 . . .
518.0 . . .
521.0 . . .
523.0 . . .
523.0 . . .
530.0 . . .
529.0 . . .
530.0 . . .
521.0 . . .
517.0 . . .
522.0 . . .
518.0 . . .
521.0 . . .
523.0 . . .
520.0 . . .
515.0 . . .
512.0 . . .
519.0 . . .
520.0 . . .
517.0 . . .
515.0 . . .
513.0 . . .
515.0 . . .
516.0 . . .
515.0 . . .
520.0 . . .
520.0 . . .
520.0 . . .
516.0 . . .
520.0 . . .
522.0 . . .
522.0 . . .
518.0 . . .
519.0 . . .
519.0 . . .
520.0 . . .
518.0 . . .
520.0 . . .
518.0 . . .
516.0 . . .
510.0 . . .
516.0 . . .
520.0 . . .
515.0 . . .
510.0 . . .
512.0 . . .
512.0 . . .
512.0 . . .
510.0 . . .
516.0 . . .
512.0 . . .
513.0 . . .
510.0 . . .
515.0 . . .
515.0 . . .
514.0 . . .
513.0 . . .
516.0 . . .
515.0 . . .
524.0 . . .
519.0 . . .
519.0 . . .
520.0 . . .
514.0 . . .
518.0 . . .
518.0 . . .
518.0 . . .
517.0 . . .
512.0 . . .
514.0 . . .
518.0 . . .
521.0 . . .
517.0 . . .
513.0 . . .
513.0 . . .
512.0 . . .
506.0 . . .
509.0 . . .
511.0 . . .
515.0 . . .
514.0 . . .
518.0 . . .
519.0 . . .
515.0 . . .
511.0 . . .
520.0 . . .
522.0 . . .
517.0 . . .
514.0 . . .
517.0 . . .
518.0 . . .
514.0 . . .
514.0 . . .
512.0 . . .
517.0 . . .
515.0 . . .
516.0 . . .
517.0 . . .
514.0 . . .
512.0 . . .
510.0 . . .
513.0 . . .
515.0 . . .
514.0 . . .
518.0 . . .
518.0 . . .
516.0 . . .
515.0 . . .
518.0 . . .
517.0 . . .
519.0 . . .
520.0 . . .
515.0 . . .
514.0 . . .
515.0 . . .
520.0 . . .
520.0 . . .
523.0 . . .
517.0 . . .
514.0 . . .
514.0 . . .
514.0 . . .
516.0 . . .
517.0 . . .
513.0 . . .
513.0 . . .
512.0 . . .
511.0 . . .
516.0 . . .
512.0 . . .
512.0 . . .
513.0 . . .
510.0 . . .
512.0 . . .
516.0 . . .
512.0 . . .
515.0 . . .
516.0 . . .
514.0 . . .
512.0 . . .
509.0 . . .
520.0 . . .
518.0 . . .
518.0 . . .
517.0 . . .
519.0 . . .
517.0 . . .
518.0 . . .
517.0 . . .
518.0 . . .
516.0 . . .
517.0 . . .
519.0 . . .
519.0 . . .
518.0 . . .
515.0 . . .
515.0 . . .
520.0 . . .
522.0 . . .
521.0 . . .
516.0 . . .
522.0 . . .
523.0 . . .
521.0 . . .
519.0 . . .
517.0 . . .
520.0 . . .
515.0 . . .
510.0 . . .
514.0 . . .
517.0 . . .
520.0 . . .
517.0 . . .
513.0 . . .
517.0 . . .
516.0 . . .
513.0 . . .
520.0 . . .
518.0 . . .
513.0 . . .
512.0 . . .
514.0 . . .
515.0 . . .
519.0 . . .
517.0 . . .
513.0 . . .
513.0 . . .
519.0 . . .
512.0 . . .
516.0 . . .
516.0 . . .
517.0 . . .
514.0 . . .
515.0 . . .
516.0 . . .
518.0 . . .
517.0 . . .
517.0 . . .
514.0 . . .
514.0 . . .
514.0 . . .
521.0 . . .
523.0 . . .
522.0 . . .
517.0 . . .
513.0 . . .
517.0 . . .
516.0 . . .
514.0 . . .
515.0 . . .
517.0 . . .
514.0 . . .
510.0 . . .
512.0 . . .
519.0 . . .
521.0 . . .
521.0 . . .
523.0 . . .
518.0 . . .
521.0 . . .
514.0 . . .
517.0 . . .
518.0 . . .
518.0 . . .
517.0 . . .
519.0 . . .
519.0 . . .
516.0 . . .
513.0 . . .
515.0 . . .
514.0 . . .
517.0 . . .
517.0 . . .
517.0 . . .
517.0 . . .
515.0 . . .
510.0 . . .
513.0 . . .
521.0 . . .
517.0 . . .
515.0 . . .
515.0 . . .
518.0 . . .
520.0 . . .
516.0 . . .
520.0 . . .
523.0 . . .
517.0 . . .
516.0 . . .
522.0 . . .
521.0 . . .
518.0 . . .
513.0 . . .
517.0 . . .
514.0 . . .
516.0 . . .
519.0 . . .
524.0 . . .
519.0 . . .
515.0 . . .
514.0 . . .
515.0 . . .
517.0 . . .
518.0 . . .
515.0 . . .
523.0 . . .
526.0 . . .
528.0 . . .
521.0 . . .
523.0 . . .
520.0 . . .
519.0 . . .
517.0 . . .
520.0 . . .
517.0 . . .
517.0 . . .
518.0 . . .
523.0 . . .
524.0 . . .
525.0 . . .
520.0 . . .
522.0 . . .
520.0 . . .
522.0 . . .
520.0 . . .
520.0 . . .
519.0 . . .
519.0 . . .
520.0 . . .
522.0 . . .
527.0 . . .
522.0 . . .
525.0 . . .
526.0 . . .
520.0 . . .
523.0 . . .
521.0 . . .
522.0 . . .
526.0 . . .
526.0 . . .
527.0 . . .
526.0 . . .
527.0 . . .
524.0 . . .
526.0 . . .
528.0 . . .
525.0 . . .
531.0 . . .
533.0 . . .
530.0 . . .
532.0 . . .
528.0 . . .
527.0 . . .
523.0 . . .
524.0 . . .
532.0 . . .
529.0 . . .
527.0 . . .
530.0 . . .
532.0 . . .
535.0 . . .
534.0 . . .
534.0 . . .
536.0 . . .
534.0 . . .
533.0 . . .
532.0 . . .
535.0 . . .
538.0 . . .
535.0 . . .
537.0 . . .
541.0 . . .
540.0 . . .
536.0 . . .
534.0 . . .
530.0 . . .
532.0 . . .
536.0 . . .
542.0 . . .
543.0 . . .
538.0 . . .
544.0 . . .
541.0 . . .
544.0 . . .
537.0 . . .
loop_
_refln_index_h
_refln_index_k
_refln_index_l
_refln_observed_status
_refln_F_squared_meas
_refln_F_squared_calc
_refln_phase_calc
_refln_d_spacing
_gsas_i100_meas
2 0 0 o 11343.011 11397.442 0.00 3.15140 38.85
4 0 0 o 1.917 2.672 180.00 1.57570 0.00
3 1 1 o 2828.023 3295.654 0.00 1.88428 13.08
0 2 0 o 18886.918 18528.096 0.00 3.12793 64.17
1 1 1 o 5906.550 5975.308 0.00 3.52963 100.00
0 0 2 o 25406.281 25449.471 0.00 2.90898 74.09
2 0 2 o 8393.731 8336.719 0.00 2.13753 25.42
2 2 0 o 6666.962 5689.984 0.00 2.22003 21.97
0 2 2 o 12849.613 13015.974 0.00 2.13016 38.91
0 4 0 o 619.290 1655.721 0.00 1.56397 0.48
1 3 1 o 971.492 1084.140 0.00 1.87421 4.27
1 1 3 o 4477.523 4208.211 0.00 1.77720 17.96
2 2 2 o 4629.778 4376.864 0.00 1.76481 18.68
0 0 4 o 11476.261 11056.714 0.00 1.45449 7.78
3 3 1 o 866.140 884.299 0.00 1.43434 2.28
