#------------------------------------------------------------------------------
#$Date: 2016-03-23 22:28:48 +0200 (Wed, 23 Mar 2016) $
#$Revision: 179482 $
#$URL: svn://www.crystallography.net/cod/cif/4/33/79/4337945.cif $
#------------------------------------------------------------------------------
#
# This file is available in the Crystallography Open Database (COD),
# http://www.crystallography.net/
#
# All data on this site have been placed in the public domain by the
# contributors.
#
data_4337945
loop_
_publ_author_name
'Ali, Mazhar N.'
'Gibson, Quinn'
'Jeon, Sangjun'
'Zhou, Brian B.'
'Yazdani, Ali'
'Cava, R. J.'
_publ_section_title
;
 The Crystal and Electronic Structures of Cd3As2, the Three-Dimensional
 Electronic Analogue of Graphene.
;
_journal_issue                   8
_journal_name_full               'Inorganic chemistry'
_journal_page_first              4062
_journal_page_last               4067
_journal_paper_doi               10.1021/ic403163d
_journal_volume                  53
_journal_year                    2014
_chemical_absolute_configuration Cd3As2
_chemical_compound_source        'Cava Lab Princeton University'
_chemical_enantioexcess_bulk     0
_chemical_enantioexcess_bulk_technique ' '
_chemical_enantioexcess_crystal  0
_chemical_enantioexcess_crystal_technique ' '
_chemical_formula_analytical     'As2 Cd3'
_chemical_formula_moiety         'As2 Cd3'
_chemical_formula_sum            'As2 Cd3'
_chemical_formula_weight         487.04
_chemical_melting_point          716
_chemical_name_common            'Cadmium Arsenide'
_chemical_name_systematic
;
 ?
;
_space_group_IT_number           142
_symmetry_cell_setting           tetragonal
_symmetry_Int_Tables_number      142
_symmetry_space_group_name_Hall  '-I 4bd 2c'
_symmetry_space_group_name_H-M   'I 41/a c d :2'
_atom_sites_solution_hydrogens   undef
_atom_sites_solution_primary     direct
_atom_sites_solution_secondary   difmap
_audit_conform_dict_location     ftp://ftp.iucr.org/pub/cif_core.dic
_audit_conform_dict_name         cif_core.dic
_audit_conform_dict_version      2.4.3
_audit_creation_date             2014-02-18T15:01:14-00:00
_audit_creation_method           'WinGX routine CIF_UPDATE'
_cell_angle_alpha                90
_cell_angle_beta                 90
_cell_angle_gamma                90
_cell_formula_units_Z            32
_cell_length_a                   12.633(3)
_cell_length_b                   12.633(3)
_cell_length_c                   25.427(7)
_cell_measurement_reflns_used    4974
_cell_measurement_temperature    100(2)
_cell_measurement_theta_max      0
_cell_measurement_theta_min      0
_cell_measurement_wavelength     0.71073
_cell_volume                     4058.0(18)
_computing_cell_refinement       SHELXL-2013
_computing_data_collection       'Bruker APEX II Software'
_computing_data_reduction        'Bruker APEX II Software'
_computing_molecular_graphics    'Ortep for Windows (Farrugia, 2012)'
_computing_publication_material  'WinGX publication routines (Farrugia, 2012)'
_computing_structure_refinement  'SHELXL-2013 (Sheldrick, 2013)'
_computing_structure_solution    'SHELXS-97 (Sheldrick, 1990)'
_diffrn_ambient_temperature      100(2)
_diffrn_detector_area_resol_mean 0.75
_diffrn_measured_fraction_theta_full 0.991
_diffrn_measured_fraction_theta_max 0.991
_diffrn_measurement_device       'Bruker APEX II'
_diffrn_measurement_device_type  'Area Detector'
_diffrn_measurement_method       'Full Sphere'
_diffrn_orient_matrix_UB_11      0
_diffrn_orient_matrix_UB_12      0
_diffrn_orient_matrix_UB_13      0
_diffrn_orient_matrix_UB_21      0
_diffrn_orient_matrix_UB_22      0
_diffrn_orient_matrix_UB_23      0
_diffrn_orient_matrix_UB_31      0
_diffrn_orient_matrix_UB_32      0
_diffrn_orient_matrix_UB_33      0
_diffrn_radiation_monochromator  graphite
_diffrn_radiation_probe          x-ray
_diffrn_radiation_type           MoK\a
_diffrn_radiation_wavelength     0.71073
_diffrn_reflns_av_R_equivalents  0.0617
_diffrn_reflns_av_unetI/netI     0.0238
_diffrn_reflns_Laue_measured_fraction_full 0
_diffrn_reflns_Laue_measured_fraction_max 0
_diffrn_reflns_limit_h_max       16
_diffrn_reflns_limit_h_min       -16
_diffrn_reflns_limit_k_max       16
_diffrn_reflns_limit_k_min       -16
_diffrn_reflns_limit_l_max       33
_diffrn_reflns_limit_l_min       -33
_diffrn_reflns_number            21702
_diffrn_reflns_point_group_measured_fraction_full 0
_diffrn_reflns_point_group_measured_fraction_max 0
_diffrn_reflns_reduction_process ' '
_diffrn_reflns_theta_full        28.35
_diffrn_reflns_theta_max         28.35
_diffrn_reflns_theta_min         2.79
_diffrn_standards_decay_%        0
_diffrn_standards_interval_count 0
_diffrn_standards_interval_time  0
_diffrn_standards_number         0
_exptl_absorpt_coefficient_mu    25.219
_exptl_absorpt_correction_T_max  0.7457
_exptl_absorpt_correction_T_min  0.6315
_exptl_absorpt_correction_type   multi-scan
_exptl_absorpt_process_details
;
        Bruker APEX II SADABS
;
_exptl_crystal_colour            Silver
_exptl_crystal_density_diffrn    6.378
_exptl_crystal_density_meas      6.378
_exptl_crystal_density_method    'not measured'
_exptl_crystal_description       'Rod like'
_exptl_crystal_F_000             6720
_exptl_crystal_size_max          0.4
_exptl_crystal_size_mid          0.04
_exptl_crystal_size_min          0.04
_exptl_transmission_factor_max   0
_exptl_transmission_factor_min   0
_refine_diff_density_max         1.239
_refine_diff_density_min         -1.247
_refine_diff_density_rms         0.258
_refine_ls_extinction_coef       0.0000091(12)
_refine_ls_extinction_expression Fc^*^=kFc[1+0.001xFc^2^\l^3^/sin(2\q)]^-1/4^
_refine_ls_extinction_method     SHELXL
_refine_ls_F_calc_details        ' '
_refine_ls_F_calc_formula        ' '
_refine_ls_F_calc_precision      0
_refine_ls_goodness_of_fit_all   1.04
_refine_ls_goodness_of_fit_ref   1.04
_refine_ls_hydrogen_treatment    undef
_refine_ls_matrix_type           full
_refine_ls_number_constraints    0
_refine_ls_number_parameters     48
_refine_ls_number_reflns         1264
_refine_ls_number_restraints     0
_refine_ls_restrained_S_all      1.04
_refine_ls_R_factor_all          0.048
_refine_ls_structure_factor_coef Fsqd
_refine_ls_weighting_details
'calc w=1/[\s^2^(Fo^2^)+(0.0122P)^2^+20.0266P] where P=(Fo^2^+2Fc^2^)/3'
_refine_ls_weighting_scheme      calc
_refine_ls_wR_factor_all         0.04
_refine_ls_wR_factor_ref         0.0401
_reflns_number_total             1274
_iucr_refine_instructions_details
;
TITL mo_QDG_Cd3As2_Rods_100K_Long_0 in I4(1)/acd
CELL  0.71073  12.6330  12.6330  25.4269   90.000   90.000   90.000
ZERR    32.00   0.0034   0.0034   0.0068    0.000    0.000    0.000
LATT   2
SYMM  1/2 - X, - Y, 1/2 + Z
SYMM  1/4 - Y, 3/4 + X, 1/4 + Z
SYMM  1/4 + Y, 1/4 - X, 3/4 + Z
SYMM  1/2 - X,   Y, - Z
SYMM    X, - Y, 1/2 - Z
SYMM  1/4 + Y, 3/4 + X, 3/4 - Z
SYMM  1/4 - Y, 1/4 - X, 1/4 - Z
SFAC  AS   CD
UNIT  64   96
MERG   2
FMAP   2
PLAN   20
ACTA
BOND
L.S.   4
WGHT    0.012200   20.026602
EXTI    0.000009
FVAR       0.00711
MOLE    1
CD1   2    0.139514    0.369588    0.052490    11.00000    0.00860    0.00770 =
         0.00936    0.00180   -0.00032   -0.00164
CD2   2    0.111689    0.642244    0.072496    11.00000    0.00814    0.00856 =
         0.00850    0.00156   -0.00137   -0.00248
CD3   2    0.118789    0.106100    0.062511    11.00000    0.00919    0.00923 =
         0.00864    0.00036    0.00258    0.00172
AS4   1    0.245971    0.257894    0.123153    11.00000    0.00607    0.00615 =
         0.00592   -0.00073    0.00007   -0.00025
AS5   1    0.000000    0.250000   -0.000733    10.50000    0.00609    0.00562 =
         0.00561    0.00000    0.00000    0.00085
AS6   1    0.250000    0.510756    0.000000    10.50000    0.00610    0.00527 =
         0.00614    0.00000    0.00019    0.00000
HKLF    4
REM  mo_QDG_Cd3As2_Rods_100K_Long_0 in I4(1)/acd
REM R1 =  0.0220 for    893 Fo > 4sig(Fo)  and  0.0480 for all   1264 data
REM     48 parameters refined using      0 restraints
END
;
_cod_data_source_file            ic403163d_si_002.cif
_cod_data_source_block           shelx
_cod_depositor_comments          'Adding full bibliography for 4337945.cif.'
_cod_original_cell_volume        4057.9(19)
_cod_original_sg_symbol_H-M      I41/acd
_cod_database_code               4337945
#BEGIN Tags that were not found in dictionaries:
_shelx_estimated_absorpt_t_min   0
_shelx_estimated_absorpt_t_max   0
_iucr_refine_reflections_details
;
   1  -1   0    0.06    0.11
   1   1   0   -0.21    0.10
   1   1   0   -0.09    0.11
  -1   1   0    0.01    0.07
   1  -1   0   -0.02    0.07
  -1  -1   0   -0.12    0.10
  -1   1   0    0.10    0.10
  -2   0   0    0.36    0.16
  -2   0   0    0.05    0.13
   0  -2   0    0.10    0.15
   0  -2   0    0.27    0.13
   0   2   0    0.13    0.16
   0   2   0    0.39    0.13
   2   0   0    0.31    0.14
   2   0   0    0.16    0.13
   2   2   0   -1.47    0.20
  -2   2   0   -0.78    0.20
   2  -2   0   -0.99    0.20
  -2   2   0   -1.22    0.14
   2  -2   0   -0.88    0.13
   2   2   0   -0.92    0.23
  -2  -2   0   -1.37    0.20
   3   1   0    0.08    0.13
   3  -1   0   -0.23    0.19
  -1  -3   0   -0.30    0.21
  -3  -1   0   -0.26    0.23
  -3  -1   0    0.52    0.21
  -3   1   0   -0.20    0.14
  -1   3   0   -0.05    0.22
  -1   3   0    0.23    0.18
   1  -3   0   -0.09    0.21
   3   1   0    0.34    0.22
   1   3   0    0.19    0.21
   1   3   0    0.26    0.23
   3  -1   0    0.18    0.21
  -3   1   0    0.32    0.23
  -1  -3   0   -0.03    0.14
  -1   3   0   -0.18    0.13
   3  -3   0    0.04    0.26
   3   3   0    0.08    0.27
  -3   3   0    0.12    0.16
  -3   3   0   -0.37    0.20
   3  -3   0    0.19    0.15
  -3  -3   0   -0.44    0.23
   3   3   0    0.34    0.25
   4   0   0  172.10    3.28
   0   4   0  171.11    3.20
   0  -4   0  171.81    3.13
  -4   0   0  175.31    3.23
   4   0   0  170.53    3.12
   0   4   0  172.43    3.25
  -4   0   0  170.04    3.26
   0  -4   0  173.34    3.27
  -2   4   0    0.15    0.19
  -4  -2   0    0.04    0.23
   2   4   0    0.13    0.25
   4   2   0    0.04    0.27
   4   2   0    0.09    0.12
  -2  -4   0    0.04    0.12
   2   4   0   -0.11    0.25
   4  -2   0    0.27    0.19
   4  -2   0   -0.01    0.24
  -4   2   0   -0.08    0.16
  -2  -4   0    0.12    0.25
   2  -4   0   -0.16    0.24
  -2   4   0   -0.04    0.13
  -2   4   0    0.04    0.25
   4   2   0    0.24    0.27
  -4   2   0    0.20    0.25
  -4   4   0  968.79   17.05
   4  -4   0  985.00   17.12
  -4   4   0  973.30   16.97
   4  -4   0  907.91   16.63
   4   4   0  853.81   17.21
   4   4   0  966.17   17.01
  -4  -4   0 1000.00   17.18
  -5   1   0    0.12    0.26
   5  -1   0   -0.43    0.23
  -1  -5   0    0.19    0.16
   5  -1   0    0.03    0.22
  -5  -1   0   -0.08    0.22
   1   5   0   -0.03    0.26
   5   1   0    0.12    0.27
   1  -5   0   -0.10    0.22
  -5   1   0   -0.03    0.18
   1  -5   0   -0.34    0.23
  -5  -1   0    0.28    0.28
   1   5   0    0.18    0.22
   5   1   0    0.24    0.18
  -1   5   0    0.21    0.17
  -1   5   0    0.18    0.26
  -1  -5   0    0.06    0.24
  -3  -5   0    0.00    0.11
   3   5   0    0.05    0.26
  -5   3   0   -0.19    0.25
  -3   5   0   -0.16    0.19
   3   5   0   -0.06    0.27
   3  -5   0    0.37    0.28
   5  -3   0    0.03    0.25
  -3   5   0    0.34    0.26
  -3  -5   0    0.01    0.27
  -5  -3   0    0.18    0.27
  -3   5   0   -0.02    0.14
  -5   3   0   -0.16    0.17
   5  -3   0   -0.15    0.18
   5   3   0    0.12    0.26
   5   3   0    0.05    0.29
   5  -5   0    0.14    0.16
   5  -5   0   -0.02    0.30
  -5  -5   0    0.19    0.27
   5   5   0    0.02    0.28
  -5   5   0   -0.31    0.18
   5   5   0    0.21    0.31
  -5   5   0   -0.22    0.26
  -6   0   0    1.80    0.25
   6   0   0    1.96    0.26
   0   6   0    2.29    0.31
   0  -6   0    1.77    0.28
   0   6   0    1.69    0.31
   6   0   0    1.94    0.30
  -6   0   0    1.91    0.33
   0  -6   0    1.69    0.25
  -6   2   0   -0.23    0.17
  -2   6   0   -0.23    0.26
   6  -2   0   -0.19    0.21
   2   6   0   -0.62    0.24
   6   2   0   -0.13    0.16
   2  -6   0    0.09    0.24
  -2  -6   0   -0.13    0.16
   6  -2   0   -0.17    0.24
  -2  -6   0   -0.04    0.25
   2  -6   0   -0.41    0.25
   2   6   0   -0.23    0.25
  -6  -2   0   -0.32    0.29
  -2   6   0   -0.03    0.15
   6   2   0   -0.03    0.25
  -6  -2   0   -0.20    0.24
  -6   2   0   -0.02    0.29
  -4   6   0    0.47    0.22
  -6   4   0    1.14    0.28
   6  -4   0    0.67    0.21
   6  -4   0    1.20    0.32
   6   4   0    0.63    0.34
  -6  -4   0    1.07    0.31
   4  -6   0    0.84    0.31
  -4   6   0    1.14    0.28
   4   6   0    1.10    0.30
  -6   4   0    0.88    0.20
  -4  -6   0    1.64    0.34
   4   6   0    0.64    0.28
  -4   6   0    0.88    0.17
   6   4   0    0.63    0.31
  -6   6   0   -0.22    0.26
  -6   6   0    0.25    0.21
   6  -6   0   -0.01    0.34
   6   6   0   -0.14    0.34
   6  -6   0    0.51    0.18
  -6  -6   0   -0.08    0.30
   6   6   0    0.43    0.29
  -1   7   0   -0.01    0.18
   7   1   0   -0.12    0.19
   7  -1   0    0.02    0.24
   1   7   0   -0.32    0.25
  -7   1   0    0.02    0.28
   1  -7   0    0.11    0.25
  -7   1   0   -0.31    0.18
  -7  -1   0    0.27    0.24
  -1   7   0    0.42    0.30
  -7  -1   0    0.24    0.31
  -1  -7   0    0.11    0.19
   7  -1   0    0.23    0.27
   1   7   0    0.22    0.23
   7   1   0    0.32    0.29
   1  -7   0    0.25    0.24
  -1  -7   0   -0.03    0.27
  -7  -3   0   -0.41    0.33
   7  -3   0   -0.26    0.21
  -3  -7   0    0.13    0.15
  -7   3   0   -0.12    0.17
   3   7   0   -0.30    0.26
  -3   7   0    0.02    0.25
  -3  -7   0    0.03    0.30
  -7   3   0   -0.34    0.25
  -3   7   0    0.19    0.15
   3  -7   0   -0.21    0.28
   3   7   0   -0.16    0.26
   3  -7   0    0.20    0.24
  -7  -3   0   -0.25    0.26
   7   3   0   -0.09    0.13
   7   3   0   -0.24    0.25
   7  -3   0    0.04    0.29
   5  -7   0   -0.43    0.31
   5   7   0   -0.30    0.29
   7  -5   0   -0.07    0.20
  -5  -7   0    0.02    0.31
  -7  -5   0    0.31    0.32
  -7   5   0   -0.28    0.27
   7   5   0   -0.02    0.34
   7  -5   0    0.17    0.34
  -5   7   0    0.06    0.30
   7   5   0    0.14    0.35
  -5   7   0   -0.15    0.21
  -7   5   0    0.00    0.19
   5   7   0    0.53    0.35
  -7   7   0   -0.33    0.23
  -7  -7   0   -0.56    0.35
  -7   7   0    0.51    0.36
   7  -7   0    0.15    0.38
   7   7   0    0.16    0.38
   7   7   0    0.29    0.38
   0   8   0  582.40   10.93
   8   0   0  591.26   10.63
   0  -8   0  608.33   11.08
   8   0   0  600.26   11.14
  -8   0   0  611.83   11.00
   0  -8   0  605.32   10.64
   0   8   0  605.02   11.00
  -8   0   0  610.66   10.97
  -8  -2   0   -0.13    0.27
   2   8   0   -0.98    0.30
   8  -2   0   -0.11    0.28
  -2  -8   0    0.33    0.20
  -8   2   0   -0.17    0.20
   2  -8   0    0.22    0.27
   8   2   0    0.04    0.29
   8  -2   0   -0.32    0.24
   8   2   0    0.02    0.18
   2   8   0   -0.26    0.23
   2  -8   0    0.07    0.27
  -8  -2   0   -0.19    0.32
  -2  -8   0   -0.18    0.31
  -8   2   0    0.16    0.32
  -2   8   0   -0.04    0.32
  -8   4   0   25.52    0.74
   4  -8   0   26.49    0.85
   8  -4   0   26.06    0.93
  -8   4   0   26.06    0.94
   4   8   0   24.52    0.96
  -8  -4   0   25.95    0.92
  -8  -4   0   26.09    0.96
   8   4   0   25.74    0.92
   8  -4   0   26.87    0.81
  -4  -8   0   24.49    0.91
  -4   8   0   27.33    0.94
   4   8   0   29.06    0.92
   4  -8   0   25.82    0.92
   6   8   0    0.13    0.34
   8  -6   0    0.03    0.38
   8   6   0    0.50    0.39
  -6   8   0   -0.45    0.35
  -8   6   0   -0.04    0.34
   8   6   0    0.25    0.39
  -6  -8   0    0.39    0.38
   6   8   0    0.14    0.40
  -8  -6   0    0.33    0.37
  -6   8   0    0.72    0.27
   6  -8   0   -0.06    0.38
   8  -8   0  254.94    5.04
   8   8   0  254.51    5.17
  -8   8   0  258.55    5.13
  -8  -8   0  262.08    5.18
   8   8   0  248.90    5.14
   9  -1   0   -0.08    0.26
  -1  -9   0    0.33    0.23
   1  -9   0   -0.50    0.30
   9  -1   0   -0.26    0.29
  -9   1   0   -0.02    0.34
   1  -9   0   -0.26    0.26
  -9  -1   0   -0.68    0.32
   9   1   0    0.05    0.31
   1   9   0    0.14    0.25
  -9  -1   0    0.15    0.27
  -1   9   0   -0.20    0.31
   9   1   0    0.04    0.23
  -9   1   0   -0.33    0.22
   1   9   0    0.00    0.33
  -1  -9   0    0.03    0.32
  -3  -9   0   -0.22    0.34
   3  -9   0   -0.17    0.28
   3   9   0   -0.46    0.33
  -9   3   0    0.03    0.33
  -9  -3   0   -0.11    0.37
   9  -3   0   -0.22    0.32
   3  -9   0    0.04    0.33
  -9  -3   0    0.17    0.31
   9   3   0    0.15    0.36
   9  -3   0    0.48    0.29
  -3   9   0    0.22    0.34
   3   9   0   -0.32    0.27
  -9   3   0   -0.30    0.21
   5   9   0    0.05    0.32
   5  -9   0   -0.47    0.36
   9   5   0    0.00    0.33
   9  -5   0    0.10    0.26
   9  -5   0    0.64    0.39
  -9   5   0   -0.19    0.34
   5   9   0    0.29    0.39
  -5  -9   0    0.49    0.40
  -9  -5   0    0.11    0.43
  -9  -5   0    0.62    0.37
  -5   9   0    0.03    0.33
   5  -9   0    0.43    0.29
  -7  -9   0    0.19    0.44
   9   7   0    0.26    0.43
   9  -7   0   -0.02    0.38
   7  -9   0    1.07    0.46
  -7   9   0    0.22    0.42
   7   9   0    0.29    0.46
   9   7   0    0.63    0.44
  -9   7   0   -0.53    0.40
   7   9   0    0.39    0.39
  -9  -7   0   -0.06    0.42
  -9  -9   0    0.04    0.46
   9   9   0   -0.20    0.46
   9  -9   0    1.00    0.49
  -9   9   0    0.44    0.49
   9   9   0   -0.11    0.47
   0 -10   0    3.79    0.40
   0 -10   0    3.63    0.46
   0  10   0    4.39    0.63
  10   0   0    4.07    0.56
 -10   0   0    3.68    0.49
 -10   0   0    2.40    0.46
  10   0   0    4.29    0.48
  10  -2   0   -0.09    0.31
   2 -10   0    0.16    0.32
   2 -10   0   -0.50    0.32
 -10   2   0    0.00    0.39
 -10  -2   0   -0.24    0.31
  10  -2   0    0.28    0.34
 -10  -2   0    0.10    0.38
   2  10   0   -0.02    0.37
  -2 -10   0    0.06    0.34
  -2  10   0   -0.05    0.33
  10   2   0   -0.17    0.37
  -4  10   0    1.73    0.44
   4 -10   0    1.09    0.37
  10  -4   0    1.33    0.35
 -10  -4   0    1.68    0.41
 -10  -4   0    1.20    0.47
 -10   4   0    1.03    0.43
  -4 -10   0    0.71    0.44
  10   4   0    1.21    0.45
  10  -4   0    0.80    0.41
   4  10   0    1.36    0.41
   4  10   0    1.31    0.36
   4 -10   0    1.57    0.42
   6 -10   0   -0.39    0.41
  -6  10   0   -0.46    0.35
  10   6   0   -0.29    0.42
  10  -6   0    0.53    0.42
 -10   6   0   -0.69    0.36
 -10  -6   0    0.04    0.40
   6 -10   0    0.22    0.34
  -6 -10   0    0.04    0.44
 -10  -6   0   -0.17    0.46
   6  10   0   -0.06    0.42
   6  10   0   -0.35    0.37
 -10   8   0   -0.23    0.47
  -8  10   0   -0.14    0.47
   8  10   0   -1.01    0.46
  -8 -10   0   -0.42    0.48
   8 -10   0    0.75    0.43
  10  -8   0   -0.34    0.45
 -10  -8   0   -0.79    0.46
  10   8   0   -0.02    0.40
   8  10   0   -0.23    0.41
 -10  -8   0    0.07    0.49
  10  10   0   -0.47    0.51
  10  10   0    0.31    0.49
  10 -10   0    0.76    0.54
 -10  10   0    0.38    0.54
 -10 -10   0   -0.07    0.55
   1  11   0    0.70    0.43
  11   1   0   -0.31    0.38
   1 -11   0    0.44    0.39
  -1  11   0    0.11    0.41
  11  -1   0    0.02    0.35
 -11  -1   0    0.06    0.42
 -11   1   0   -0.01    0.40
  -1 -11   0    0.41    0.43
   1 -11   0    0.17    0.33
  11  -1   0   -0.27    0.32
   3  11   0   -0.24    0.40
 -11   3   0   -0.12    0.41
   3 -11   0   -0.23    0.36
   3 -11   0    0.26    0.38
  11  -3   0    0.19    0.35
  11   3   0   -0.54    0.40
 -11  -3   0    0.53    0.36
  11  -3   0   -0.37    0.36
  -3  11   0    0.04    0.40
  -3 -11   0   -0.13    0.41
 -11  -3   0    0.12    0.44
  11  -5   0   -0.82    0.41
 -11  -5   0   -0.50    0.45
  -5  11   0    0.06    0.46
  -5 -11   0   -0.51    0.40
 -11   5   0   -0.66    0.36
  11   5   0   -0.56    0.37
 -11  -5   0   -0.22    0.39
   5  11   0   -0.37    0.41
   5 -11   0    0.46    0.38
   5 -11   0    0.35    0.43
  11  -7   0   -0.20    0.47
 -11  -7   0   -0.08    0.45
  -7 -11   0   -0.39    0.46
  -7  11   0    1.02    0.46
 -11  -7   0   -0.04    0.50
  11   7   0   -0.09    0.50
   7  11   0    0.32    0.51
   7 -11   0   -0.78    0.45
 -11   7   0    0.36    0.48
   7  11   0    0.27    0.44
  -9  11   0   -0.33    0.52
 -11   9   0    0.01    0.50
   9  11   0   -0.17    0.47
   9 -11   0    0.90    0.54
  11  -9   0   -1.32    0.49
  11   9   0   -0.84    0.46
  -9 -11   0   -0.54    0.53
 -11  -9   0   -0.14    0.55
 -11  -9   0   -0.30    0.54
   9  11   0   -0.02    0.53
  11  11   0   -0.28    0.56
 -11  11   0    0.18    0.63
 -11 -11   0    0.08    0.60
  11 -11   0   -0.33    0.58
  11  11   0    0.42    0.56
   0  12   0    1.04    0.44
 -12   0   0    0.98    0.47
  12   0   0    2.19    0.50
   0 -12   0    1.64    0.47
   2 -12   0    1.48    0.46
  -2  12   0    0.68    0.46
   2  12   0    0.45    0.46
 -12   2   0    1.24    0.48
  -2 -12   0    0.79    0.47
 -12  -2   0    0.46    0.46
  12  -2   0    0.77    0.44
  12  -2   0    0.70    0.41
   2 -12   0    0.66    0.40
  12   2   0    1.31    0.48
  -4  12   0  164.62    3.70
  12  -4   0  171.58    3.62
  -4 -12   0  167.04    3.76
  12  -4   0  175.20    3.60
   4  12   0  169.59    3.77
 -12   4   0  169.82    3.74
  12   4   0  172.66    3.82
   4 -12   0  170.54    3.58
   4 -12   0  173.53    3.64
 -12  -4   0  170.41    3.78
   6 -12   0    0.50    0.49
 -12   6   0    0.21    0.49
  -6 -12   0    1.05    0.53
 -12  -6   0    0.04    0.46
  12   6   0    1.57    0.57
 -12  -6   0    0.84    0.54
   6  12   0   -0.05    0.49
  -6  12   0    1.26    0.54
  12  -6   0   -0.89    0.42
  -8 -12   0    1.32    0.61
 -12  -8   0    1.36    0.62
   8  12   0   -0.57    0.54
 -12  -8   0   -0.27    0.51
   8 -12   0    0.08    0.51
  -8  12   0    0.61    0.56
 -12   8   0   -0.53    0.50
  12  -8   0    0.48    0.56
  12   8   0    1.04    0.58
 -10  12   0    4.74    0.78
  12  10   0    2.80    0.65
  12 -10   0    4.80    0.77
 -12  10   0    3.56    0.71
 -12 -10   0    3.18    0.72
  10 -12   0    2.60    0.67
  10  12   0    2.89    0.69
 -10 -12   0    2.93    0.72
 -12 -10   0    3.46    0.71
  10  12   0    3.22    0.65
  13   1   0    0.33    0.47
  -1 -13   0    0.18    0.48
  13  -1   0   -0.69    0.42
   1  13   0   -0.14    0.48
   1 -13   0    0.41    0.46
  -1  13   0    0.39    0.44
 -13  -1   0    0.01    0.50
 -13   1   0    0.03    0.50
  -3  13   0   -0.16    0.47
  13   3   0   -0.72    0.43
  -3 -13   0    0.58    0.52
 -13   3   0   -0.15    0.49
 -13  -3   0    0.28    0.52
   3  13   0    0.43    0.52
  13  -3   0   -0.24    0.42
   3 -13   0    0.15    0.43
  13  -3   0   -0.42    0.41
   3 -13   0   -0.09    0.43
  -5  13   0   -0.37    0.50
   5 -13   0   -0.36    0.45
   5  13   0    0.09    0.54
 -13  -5   0    0.41    0.57
  13  -5   0    0.59    0.49
  13   5   0    0.04    0.51
 -13   5   0    0.11    0.48
  -5 -13   0   -0.03    0.53
 -13   7   0   -0.20    0.53
  13   7   0   -0.34    0.52
   7 -13   0   -0.27    0.51
 -13  -7   0   -0.51    0.54
   7  13   0    0.61    0.60
  -7  13   0   -0.03    0.55
  -7 -13   0    0.67    0.55
  13  -7   0    0.10    0.54
 -13   9   0    0.20    0.61
  -9  13   0    0.45    0.62
   9  13   0    0.98    0.65
  13  -9   0   -0.71    0.56
  -9 -13   0    0.74    0.66
 -13  -9   0   -0.91    0.53
   9 -13   0   -0.79    0.50
 -13  -9   0    0.11    0.62
  13   9   0    0.89    0.59
   0 -14   0    4.06    0.66
 -14   0   0    3.82    0.68
   0  14   0    3.88    0.65
  14   0   0    4.98    0.68
 -14   2   0   -0.13    0.53
  -2 -14   0    0.13    0.53
   2 -14   0    0.14    0.48
  14  -2   0   -0.01    0.46
  -2  14   0    0.37    0.52
  14   2   0   -0.76    0.47
   2  14   0   -0.17    0.53
 -14  -2   0    1.43    0.58
   4 -14   0    2.84    0.59
  14  -4   0    2.52    0.57
  -4  14   0    1.70    0.58
  -4 -14   0    2.92    0.63
 -14  -4   0    3.25    0.68
  14   4   0    2.05    0.60
 -14   4   0    2.33    0.65
   4 -14   0    2.28    0.55
   4  14   0    3.47    0.71
 -14   6   0    0.35    0.54
 -14  -6   0   -0.64    0.60
  14  -6   0   -0.02    0.52
   6 -14   0    0.00    0.54
  -6  14   0    0.09    0.53
   6  14   0   -0.79    0.54
  14   6   0   -0.87    0.50
  -6 -14   0   -0.50    0.55
   8  14   0    0.45    0.62
 -14  -8   0    0.52    0.62
   8 -14   0    0.51    0.61
  14  -8   0    0.71    0.58
 -14   8   0   -0.36    0.59
 -15   1   0   -0.03    0.53
  15  -1   0    0.38    0.53
 -15  -1   0   -0.26    0.55
  -1 -15   0    0.58    0.54
  15   1   0    0.79    0.56
   1 -15   0    0.29    0.54
  -1  15   0   -0.33    0.54
   1  15   0   -0.22    0.53
 -15  -3   0    0.45    0.61
  15   3   0    0.17    0.58
  -3 -15   0   -1.21    0.50
   3 -15   0   -0.40    0.53
 -15   3   0    0.62    0.56
  -3  15   0   -0.44    0.53
   3  15   0    0.01    0.55
 -15   5   0    0.23    0.57
 -15  -5   0   -0.31    0.58
  -5  15   0    0.17    0.54
   5 -15   0    0.14    0.53
  15   5   0   -0.63    0.58
  -5 -15   0    1.16    0.64
   5  15   0   -0.61    0.58
  15  -7   0   -0.76    0.56
 -15  -7   0    0.32    0.63
  16   0   0   54.07    1.87
 -16   0   0   50.80    1.90
   0  16   0   55.14    1.97
   0 -16   0   53.84    1.89
 -16  -2   0    0.43    0.59
  -2 -16   0    0.44    0.60
  16  -2   0   -0.81    0.50
 -16   2   0    1.31    0.63
  16   2   0    0.82    0.64
   2 -16   0   -0.44    0.55
 -16  -4   0    2.24    0.71
   0  -1   1    0.06    0.07
   1   0  -1    0.08    0.08
   0   1   1    0.07    0.05
  -1   0   1    0.01    0.07
   1   0   1   -0.12    0.07
   0   1  -1   -0.07    0.07
   0   1  -1    0.04    0.07
  -1   0   1    0.01    0.08
   0  -1  -1   -0.08    0.07
   0  -1   1   -0.01    0.07
   0   1   1   -0.05    0.07
   0   1   1   -0.08    0.07
   1   0   1   -0.03    0.07
   1   0  -1    0.11    0.08
  -1   0  -1    0.14    0.05
  -1   0  -1   -0.12    0.09
   2  -1  -1    1.65    0.20
  -2   1  -1    1.82    0.15
  -1   2   1    1.47    0.20
   2   1   1    1.47    0.16
   2   1   1    1.32    0.20
   1  -2   1    1.83    0.24
  -1   2   1    1.47    0.21
  -1  -2  -1    1.13    0.18
   1   2  -1    1.51    0.21
   2   1   1    1.46    0.18
  -2  -1   1    2.08    0.29
  -1  -2  -1    1.67    0.16
   1  -2   1    1.44    0.16
  -2   1  -1    1.87    0.25
   1   2  -1    1.32    0.18
   2  -1  -1    1.61    0.21
  -1  -2   1    1.52    0.16
  -2   1   1    1.83    0.22
  -1   2  -1    1.59    0.23
  -2  -1  -1    1.43    0.17
   2   1  -1    1.46    0.20
   2   1  -1    1.38    0.19
  -1  -2   1    1.39    0.20
   1   2   1    1.26    0.17
   2  -1   1    1.69    0.19
   2   1  -1    1.50    0.16
  -1   2  -1    1.42    0.19
   1   2   1    1.69    0.22
   1  -2  -1    1.05    0.19
   2  -1   1    1.63    0.22
  -2   1   1    1.86    0.26
   3   0  -1   -0.30    0.19
   0  -3  -1    0.24    0.19
   3   0   1    0.34    0.18
   0  -3   1    0.21    0.18
   0  -3   1   -0.12    0.20
  -3   0  -1    0.06    0.16
  -3   0   1    0.16    0.21
  -3   0  -1   -0.06    0.24
  -3   0   1   -0.02    0.19
   0   3  -1    0.25    0.21
   0  -3  -1   -0.22    0.20
   0   3   1    0.16    0.14
   3   0  -1   -0.10    0.17
   0   3   1    0.16    0.18
   3   0   1    0.02    0.21
   0   3  -1    0.30    0.18
   3  -2  -1    5.66    0.28
   3   2   1    4.97    0.41
  -3   2  -1    5.31    0.42
   2   3  -1    5.86    0.41
   3   2   1    5.14    0.20
   3  -2  -1    5.65    0.37
  -2  -3  -1    5.45    0.39
  -2   3   1    5.79    0.36
  -3  -2   1    5.69    0.42
  -2  -3  -1    5.67    0.20
   3   2   1    4.63    0.37
   2   3  -1    5.53    0.42
  -2   3   1    5.65    0.32
   2  -3   1    5.78    0.41
  -3   2  -1    6.02    0.26
   3   2  -1    5.07    0.19
  -3  -2  -1    5.24    0.37
   2   3   1    5.57    0.36
  -3   2   1    5.45    0.32
   3   2  -1    5.38    0.42
  -2   3  -1    5.25    0.35
  -2  -3   1    5.37    0.43
  -2   3  -1    5.56    0.30
   2  -3  -1    5.63    0.20
   3  -2   1    5.59    0.41
  -3   2   1    5.75    0.40
   3   2  -1    5.67    0.43
  -2   3  -1    5.71    0.29
  -2  -3   1    5.26    0.20
   2  -3  -1    4.76    0.42
   2   3   1    5.28    0.45
   3  -2   1    5.92    0.32
   4  -1  -1    1.62    0.23
   4   1   1    1.96    0.26
   1   4  -1    1.84    0.26
   1  -4   1    1.64    0.24
   4   1   1    2.14    0.27
  -4  -1   1    1.94    0.28
  -1  -4  -1    2.39    0.27
  -1   4   1    2.33    0.20
  -4  -1   1    2.39    0.31
   4  -1  -1    1.77    0.26
  -4   1  -1    1.36    0.28
  -1  -4  -1    1.67    0.28
  -1   4   1    1.48    0.23
  -4   1  -1    1.79    0.18
   1   4  -1    1.84    0.28
  -1   4   1    1.86    0.29
   1  -4   1    1.61    0.24
  -1  -4   1    1.91    0.25
  -4  -1  -1    1.75    0.33
  -4   1   1    1.49    0.21
   4   1  -1    1.67    0.19
   4  -1   1    1.64    0.23
   1   4   1    2.95    0.31
   4   1  -1    1.70    0.30
   1   4   1    1.66    0.29
  -1  -4   1    1.38    0.28
   4  -1   1    1.68    0.25
  -4   1   1    1.86    0.27
  -4  -1  -1    1.83    0.24
  -1   4  -1    2.10    0.26
  -1   4  -1    2.43    0.29
   1  -4  -1    1.94    0.26
   3   4  -1    0.33    0.27
   4  -3  -1    0.16    0.17
   3   4  -1   -0.08    0.26
   3  -4   1    0.17    0.27
  -4   3  -1    0.29    0.25
   4  -3  -1    0.20    0.24
   4   3   1    0.01    0.28
  -3  -4  -1   -0.03    0.08
   4   3   1    0.30    0.27
  -3   4   1    0.26    0.22
  -4  -3   1    0.30    0.26
   3  -4   1    0.22    0.15
  -3   4   1    0.23    0.19
  -4   3  -1    0.00    0.15
  -3  -4  -1    0.63    0.23
   3   4   1    0.51    0.25
  -3   4  -1    0.54    0.18
  -3   4  -1    0.04    0.22
   4   3  -1    0.50    0.29
   4  -3   1    0.34    0.24
  -4   3   1    0.28    0.24
  -4   3   1   -0.08    0.18
   4   3  -1   -0.14    0.27
  -3  -4   1    0.40    0.28
   3  -4  -1    0.50    0.27
  -4  -3  -1    0.35    0.24
   4  -3   1    0.12    0.18
   3   4   1   -0.16    0.26
   3  -4  -1    0.22    0.12
   0   5  -1    0.22    0.20
   5   0   1   -0.26    0.25
   0  -5   1    0.09    0.24
  -5   0   1    0.06    0.20
  -5   0  -1   -0.04    0.27
   0  -5  -1    0.41    0.23
   5   0  -1    0.23    0.20
  -5   0  -1   -0.01    0.19
   0   5   1   -0.02    0.22
  -5   0   1   -0.18    0.25
   0  -5  -1   -0.08    0.21
   0   5   1    0.00    0.17
   0   5  -1    0.31    0.23
   0  -5   1   -0.27    0.20
   5   0   1   -0.04    0.20
   5   0  -1    0.12    0.26
   5   2   1   -0.07    0.14
  -2   5   1   -0.12    0.22
  -5   2  -1   -0.07    0.24
  -2  -5  -1    0.18    0.23
  -5  -2   1   -0.01    0.29
   5   2   1    0.20    0.27
  -2   5   1    0.23    0.12
  -5  -2   1   -0.23    0.24
  -5   2  -1   -0.08    0.15
  -2  -5  -1   -0.15    0.14
   5  -2  -1    0.60    0.26
   2  -5   1   -0.16    0.21
   2  -5   1   -0.21    0.24
  -2   5   1   -0.11    0.22
   5  -2  -1   -0.13    0.20
   2   5  -1   -0.04    0.27
   2   5  -1    0.04    0.26
  -2   5  -1    0.02    0.16
   2   5   1   -0.10    0.24
   5   2  -1    0.13    0.14
  -2   5  -1   -0.07    0.22
   5   2  -1    0.41    0.27
  -5   2   1    0.29    0.18
   2   5   1    0.34    0.24
  -5  -2  -1    0.15    0.22
   5  -2   1    0.02    0.26
  -5   2   1    0.06    0.26
  -5  -2  -1   -0.07    0.30
  -2  -5   1   -0.16    0.14
  -2  -5   1    0.15    0.27
   2  -5  -1   -0.06    0.24
   5  -2   1    0.02    0.21
   5   4   1   -0.19    0.30
  -5  -4   1   -0.10    0.27
  -4   5   1    0.39    0.21
   5  -4  -1    0.32    0.26
   4  -5   1    0.33    0.16
  -4  -5  -1   -0.16    0.26
  -5   4  -1    0.03    0.16
  -4   5   1   -0.33    0.25
   4  -5   1    0.05    0.29
   5   4   1   -0.41    0.28
  -5   4  -1   -0.15    0.22
   5  -4  -1   -0.09    0.16
   4   5  -1   -0.02    0.29
   4   5  -1    0.37    0.29
   5  -4   1    0.49    0.27
  -5   4   1    0.11    0.19
   5   4  -1   -0.01    0.25
  -5   4   1   -0.02    0.23
   5   4  -1   -0.06    0.27
   4  -5  -1    0.02    0.12
  -5  -4  -1    0.12    0.27
  -4   5  -1    0.44    0.19
  -4  -5   1    0.16    0.29
  -4   5  -1    0.32    0.24
   5  -4   1    0.22    0.18
   4   5   1   -0.07    0.29
   4  -5  -1   -0.24    0.28
   4   5   1    0.38    0.27
   6   1   1   -0.13    0.25
   1   6  -1    0.48    0.26
   6  -1  -1   -0.07    0.23
  -1   6   1    0.46    0.26
   6  -1  -1    0.56    0.26
  -1  -6  -1   -0.02    0.27
  -6  -1   1    0.24    0.24
  -6   1  -1    0.25    0.17
   1  -6   1    0.37    0.23
   6   1   1    0.12    0.19
   1   6  -1    0.30    0.23
  -1  -6  -1    0.19    0.19
   1  -6   1   -0.11    0.23
  -6   1  -1    0.01    0.28
  -1   6   1    0.26    0.15
  -6  -1   1   -0.19    0.28
  -6   1   1    0.19    0.20
   6   1  -1   -0.07    0.19
   6  -1   1   -0.08    0.23
   1   6   1    0.17    0.25
  -1  -6   1   -0.01    0.18
  -1  -6   1   -0.21    0.25
   1   6   1   -0.27    0.21
  -1   6  -1    0.12    0.19
  -6  -1  -1    0.04    0.26
   1  -6  -1    0.43    0.25
   1  -6  -1    0.02    0.25
   6  -1   1   -0.05    0.24
   6   1  -1   -0.20    0.28
  -6  -1  -1    0.21    0.23
  -6   1   1    0.11    0.26
  -1   6  -1    0.40    0.25
  -3  -6  -1    1.04    0.32
  -6  -3   1    1.92    0.36
  -3   6   1    1.50    0.26
  -3   6   1    1.11    0.15
   3  -6   1    1.70    0.26
   6   3   1    1.07    0.30
   3   6  -1    1.29    0.32
  -6   3  -1    1.57    0.20
   6   3   1    1.18    0.14
  -3   6   1    0.83    0.28
  -6   3  -1    0.84    0.27
   6  -3  -1    1.24    0.23
   3  -6   1    2.24    0.32
  -6  -3   1    1.40    0.32
   3   6  -1    1.07    0.30
  -3  -6  -1    1.21    0.15
   6  -3  -1    1.21    0.32
  -3  -6   1    1.76    0.34
   3   6   1    0.86    0.28
  -6   3   1    1.45    0.32
   6   3  -1    1.47    0.32
  -3   6  -1    1.12    0.27
  -6   3   1    1.07    0.21
  -3   6  -1    1.46    0.19
  -6  -3  -1    1.28    0.29
  -3  -6   1    1.18    0.15
   3   6   1    1.34    0.34
   6  -3   1    1.28    0.32
   3  -6  -1    0.47    0.29
   6   3  -1    1.42    0.19
   6  -3   1    0.98    0.24
  -6  -3  -1    1.25    0.35
  -6   5  -1    0.38    0.19
   5  -6   1    0.61    0.34
  -5   6   1    0.43    0.22
  -6  -5   1    0.47    0.31
   6  -5  -1    0.41    0.32
   5   6  -1    0.27    0.31
  -5  -6  -1    0.44    0.31
  -5   6   1    0.29    0.30
   6   5   1    0.52    0.32
   5   6  -1    0.26    0.31
   6  -5  -1    0.23    0.18
  -6   5  -1    0.44    0.28
   6   5   1    0.18    0.32
  -5  -6   1    0.49    0.32
   5   6   1    0.49    0.33
   5  -6  -1    0.26    0.28
  -5   6  -1    0.52    0.20
  -5   6  -1    0.22    0.18
   5  -6  -1    0.43    0.15
  -6  -5  -1    0.38    0.29
   6   5  -1    0.11    0.32
   6  -5   1    0.20    0.19
  -6   5   1    0.51    0.31
   6  -5   1    0.05    0.28
   5   6   1    0.57    0.31
  -5   6  -1    0.35    0.26
  -6   5   1    0.23    0.20
   6   5  -1    0.11    0.32
  -7   0   1   -0.20    0.22
   0  -7   1    0.11    0.27
   7   0  -1   -0.05    0.26
   7   0   1   -0.11    0.27
  -7   0   1    0.19    0.28
   0   7  -1    0.22    0.28
   0   7   1   -0.18    0.27
   0  -7  -1    0.32    0.22
   7   0  -1   -0.05    0.22
  -7   0  -1   -0.19    0.29
   0  -7  -1   -0.17    0.27
   7   0   1    0.08    0.22
   0   7  -1    0.11    0.21
  -7   0  -1   -0.33    0.19
   0  -7   1   -0.09    0.21
   0   7   1   -0.17    0.19
   7   2   1    7.11    0.55
  -7   2  -1    8.36    0.59
  -2  -7  -1    7.19    0.54
   7   2   1    7.60    0.35
  -2   7   1    7.28    0.30
   7  -2  -1    7.49    0.51
  -2   7   1    8.24    0.56
  -7  -2   1    7.85    0.58
  -7   2  -1    7.40    0.37
  -2  -7  -1    6.95    0.35
   7  -2  -1    8.00    0.47
   2  -7   1    7.88    0.50
   2  -7   1    6.79    0.49
   2   7  -1    7.77    0.57
   2   7  -1    7.94    0.48
  -7  -2   1    7.56    0.51
  -7   2   1    7.39    0.42
  -7  -2  -1    7.80    0.50
  -2  -7   1    7.82    0.36
   7   2  -1    7.18    0.36
   2   7   1    7.75    0.45
   2   7   1    7.74    0.58
  -2   7  -1    7.48    0.36
   7   2  -1    8.11    0.56
  -7  -2  -1    8.41    0.61
   7  -2   1    7.03    0.47
  -7   2   1    7.37    0.50
   2  -7  -1    7.97    0.50
  -2   7  -1    8.00    0.50
  -2  -7   1    7.23    0.54
   2  -7  -1    7.64    0.49
   7  -2   1    7.41    0.51
   4   7  -1    1.33    0.34
  -4  -7  -1    0.93    0.32
   7  -4  -1    0.19    0.32
   7  -4  -1    0.75    0.23
   4  -7   1    0.85    0.25
  -7   4  -1    0.99    0.20
  -4   7   1    1.25    0.27
   4   7  -1    0.38    0.32
  -7  -4   1    1.08    0.34
  -4   7   1    0.40    0.29
  -7   4  -1    0.81    0.30
   4  -7   1    0.99    0.35
   7   4   1    0.62    0.30
  -7  -4   1    0.42    0.36
  -4   7  -1    0.65    0.29
  -7  -4  -1    0.17    0.35
   7   4  -1    0.62    0.34
  -7   4   1    1.14    0.23
  -7  -4  -1    0.67    0.31
  -4   7  -1    0.90    0.19
  -7   4   1    0.53    0.29
   4   7   1    0.72    0.31
   4  -7  -1    0.39    0.32
   7  -4   1    1.67    0.35
  -4  -7   1    1.45    0.36
   4   7   1    1.05    0.30
   7  -4   1    0.74    0.24
  -7   6  -1    2.82    0.34
  -6   7   1    2.41    0.38
   7   6   1    2.27    0.45
   7   6   1    2.39    0.42
   6   7  -1    1.69    0.41
   7  -6  -1    2.17    0.38
  -6  -7  -1    2.15    0.41
  -7   6  -1    2.15    0.37
   6  -7   1    1.98    0.38
   6   7  -1    2.51    0.42
  -6   7   1    2.57    0.32
  -7  -6   1    2.45    0.43
   7  -6   1    2.09    0.42
   6  -7  -1    2.00    0.41
   7   6  -1    2.74    0.43
  -6   7  -1    2.55    0.37
   6   7   1    1.60    0.38
  -7  -6  -1    2.35    0.41
  -6  -7   1    2.76    0.45
  -7   6   1    2.20    0.28
   7   6  -1    2.66    0.43
   7  -6   1    2.22    0.28
   6   7   1    1.63    0.39
  -7   6   1    2.52    0.42
  -6   7  -1    2.45    0.41
   8   1   1    0.23    0.33
  -8   1  -1    0.36    0.21
   8   1   1    0.68    0.22
   1   8  -1    0.03    0.24
   8  -1  -1    0.16    0.29
   1  -8   1    0.34    0.29
   8  -1  -1    0.17    0.25
  -8   1  -1    0.39    0.32
  -8  -1   1    0.51    0.27
  -1   8   1    0.26    0.30
  -1  -8  -1    0.24    0.30
  -8  -1   1    0.51    0.33
   1  -8   1    0.58    0.27
  -1  -8  -1    0.51    0.22
   1   8  -1    0.81    0.34
   8  -1   1    0.49    0.26
  -8  -1  -1   -0.03    0.31
   1   8   1    0.59    0.33
  -1   8  -1    0.40    0.31
   1  -8  -1    0.47    0.31
  -1   8  -1    0.89    0.23
   8   1  -1    0.39    0.29
   8  -1   1    0.15    0.27
   1   8   1    0.06    0.22
  -8   1   1    0.38    0.32
  -1  -8   1    0.35    0.22
  -8  -1  -1    0.24    0.26
  -1  -8   1    0.98    0.33
   8   1  -1    0.29    0.22
   1  -8  -1    0.11    0.26
  -8   1   1    0.06    0.23
  -3   8   1    3.67    0.53
  -8   3  -1    3.34    0.31
   8  -3  -1    3.12    0.42
   3   8  -1    3.56    0.44
   3   8  -1    3.54    0.48
  -8   3  -1    2.38    0.38
   3  -8   1    3.14    0.46
  -8  -3   1    2.90    0.43
  -3  -8  -1    3.20    0.42
   8  -3  -1    3.69    0.51
   8   3   1    3.28    0.47
  -8  -3   1    2.93    0.40
   3  -8   1    3.37    0.41
   8   3  -1    2.74    0.40
   3  -8  -1    3.58    0.46
  -8   3   1    2.55    0.40
   8  -3   1    3.37    0.45
  -3  -8   1    3.12    0.42
  -8  -3  -1    3.28    0.47
   3   8   1    2.61    0.41
   8  -3   1    3.83    0.50
   3  -8  -1    3.08    0.39
   3   8   1    3.24    0.43
  -3   8  -1    2.82    0.38
  -8   3   1    2.84    0.36
  -8  -3  -1    2.86    0.37
   5  -8   1    4.24    0.51
  -8   5  -1    3.97    0.56
  -8  -5   1    3.51    0.46
   8  -5  -1    3.43    0.45
   5   8  -1    3.74    0.53
   5   8  -1    3.92    0.50
   5  -8   1    3.10    0.44
  -5   8   1    3.41    0.45
   8  -5  -1    3.66    0.41
  -5   8   1    2.69    0.41
  -5  -8  -1    3.34    0.46
  -8  -5   1    2.53    0.47
   8   5   1    3.09    0.43
  -5   8  -1    3.80    0.47
  -8   5   1    2.92    0.43
  -5  -8   1    2.62    0.41
   8  -5   1    3.40    0.46
   5   8   1    3.35    0.42
   8   5  -1    3.62    0.48
   5   8   1    2.79    0.47
   5  -8  -1    4.31    0.58
  -8  -5  -1    4.00    0.54
  -8   5   1    3.10    0.37
   8  -5   1    3.32    0.42
  -8  -5  -1    2.62    0.46
   7  -8   1    0.17    0.36
   7   8  -1    0.37    0.37
   8   7   1    1.08    0.43
  -7   8   1    0.90    0.29
   7   8  -1    0.86    0.44
   8  -7  -1    0.92    0.45
  -7  -8  -1    0.97    0.41
  -8  -7   1    0.86    0.43
  -8   7  -1    0.93    0.42
  -7   8   1    0.44    0.41
   8   7   1    0.92    0.43
  -7   8  -1    1.39    0.45
   7   8   1    0.65    0.42
  -7  -8   1    1.01    0.46
  -8  -7  -1    0.11    0.39
   8   7  -1    0.66    0.42
   7   8   1    1.00    0.41
  -8   7   1    0.25    0.35
   8  -7   1    0.53    0.42
   7  -8  -1    1.20    0.44
   8   7  -1    0.96    0.44
   0  -9  -1    0.39    0.34
   0   9   1    0.02    0.34
   9   0   1   -0.45    0.24
   9   0  -1    0.24    0.26
  -9   0  -1   -0.25    0.35
   0  -9   1    0.12    0.24
   0   9  -1   -0.15    0.29
   0  -9  -1    0.24    0.26
   0  -9   1   -0.64    0.29
  -9   0   1   -0.13    0.26
   9   0  -1    0.26    0.33
  -9   0   1   -0.12    0.34
   9   0   1   -0.72    0.29
  -9   0  -1   -0.36    0.23
   9   2   1    0.69    0.34
  -9   2  -1    0.80    0.38
   9  -2  -1    0.10    0.28
  -9  -2   1    0.43    0.37
  -2  -9  -1    0.73    0.36
  -9  -2   1    0.50    0.31
   9  -2  -1    0.48    0.32
   2   9  -1    0.81    0.39
   2   9  -1    0.45    0.29
  -2   9   1    0.91    0.38
  -2  -9  -1    0.19    0.22
  -9   2  -1    0.49    0.24
   2  -9   1    0.66    0.32
   2  -9   1    0.89    0.32
  -9   2   1    0.71    0.37
   9  -2   1   -0.45    0.29
  -9  -2  -1    0.53    0.30
  -9  -2  -1    0.13    0.37
   2   9   1    0.56    0.27
   9   2  -1    0.62    0.36
  -2  -9   1    0.52    0.23
  -2   9  -1    0.02    0.35
  -2  -9   1    0.74    0.36
  -9   2   1    0.53    0.26
   2  -9  -1    0.20    0.31
   9  -2   1    0.50    0.32
   2  -9  -1    0.62    0.30
   2   9   1    0.01    0.37
  -4  -9  -1    0.82    0.39
   4   9  -1    0.84    0.40
  -9  -4   1    1.29    0.44
  -9   4  -1    2.21    0.43
   9  -4  -1    0.80    0.30
   4  -9   1    0.89    0.37
  -4   9   1    0.98    0.38
   9  -4  -1    1.38    0.39
   9   4   1    0.58    0.39
   4   9  -1    0.92    0.36
  -9  -4   1    0.98    0.38
   4  -9   1    1.23    0.33
  -9   4   1    1.31    0.27
   4   9   1    0.52    0.31
  -9   4   1    1.27    0.38
  -4  -9   1    1.49    0.41
  -9  -4  -1    0.98    0.37
   9   4  -1    0.25    0.38
   9  -4   1    1.33    0.39
  -4   9  -1    1.09    0.37
   4  -9  -1    1.45    0.35
  -9  -4  -1    1.57    0.46
   4  -9  -1    1.00    0.38
   4   9   1    1.60    0.43
   9  -4   1    1.44    0.32
  -9   6  -1    0.10    0.38
   6   9  -1    0.77    0.39
   6   9  -1    0.45    0.41
   9  -6  -1    0.03    0.42
  -9  -6   1   -0.08    0.39
  -6   9   1    0.71    0.33
   6  -9   1    0.70    0.32
  -6   9   1    0.10    0.35
   9   6   1    0.86    0.37
  -9  -6   1    0.46    0.44
  -6  -9  -1    0.45    0.41
   6  -9   1    0.19    0.39
   9  -6   1    0.50    0.37
  -9  -6  -1    0.27    0.39
   6   9   1    0.32    0.43
  -9  -6  -1    0.20    0.46
   9   6  -1    0.32    0.39
   6  -9  -1    0.11    0.41
   6   9   1    0.77    0.38
  -9   6   1    0.42    0.39
  -6   9  -1    0.61    0.40
  -6  -9   1    0.45    0.42
   8   9  -1    0.34    0.48
  -9  -8   1   -0.65    0.43
  -8   9   1   -0.08    0.44
   8   9  -1    0.05    0.45
   9   8   1   -0.51    0.42
   9  -8  -1    0.10    0.41
  -9   8  -1   -0.28    0.38
   9   8   1    0.35    0.44
  -8  -9  -1   -0.06    0.45
   8  -9   1    0.61    0.46
  -8  -9   1    0.72    0.49
  -8   9  -1   -0.62    0.41
   8  -9  -1   -0.60    0.44
   9  -8   1    0.37    0.47
   8   9   1   -0.07    0.42
   9   8  -1    0.67    0.47
  -9  -8  -1    0.78    0.45
   8   9   1    0.35    0.46
  -9   8   1    0.41    0.47
   9   8  -1   -0.50    0.38
   1  10  -1    0.69    0.35
  -1 -10  -1    0.35    0.27
  -1 -10  -1    0.06    0.37
  10  -1  -1    0.57    0.32
  10  -1  -1    0.84    0.36
 -10  -1   1    0.20    0.38
   1 -10   1   -0.08    0.32
 -10   1  -1    0.21    0.38
  10   1   1    0.31    0.34
  -1  10   1    0.38    0.33
 -10  -1   1    0.20    0.31
   1 -10   1    0.34    0.31
  -1  10  -1    0.96    0.39
 -10  -1  -1    0.52    0.39
   1  10   1    0.85    0.36
 -10   1   1    0.75    0.29
  10  -1   1    1.31    0.33
 -10  -1  -1    0.42    0.30
   1 -10  -1    0.31    0.32
  10   1  -1    0.47    0.38
  -1 -10   1   -0.10    0.36
 -10   1   1    0.93    0.41
  10  -1   1    0.14    0.34
  -1 -10   1    0.43    0.27
   1 -10  -1    0.40    0.37
  -3 -10  -1    0.98    0.41
  10  -3  -1   -0.15    0.34
   3  10  -1    0.09    0.40
   3 -10   1    0.00    0.33
 -10  -3   1    0.27    0.36
  10   3   1    0.01    0.33
 -10  -3   1    0.82    0.43
 -10   3  -1   -0.14    0.37
  -3  10   1    0.56    0.40
   3 -10   1   -0.31    0.33
   3  10  -1    0.20    0.32
  10  -3  -1   -0.08    0.31
  -3  10  -1    0.09    0.34
   3  10   1    0.13    0.39
  10   3  -1    0.12    0.33
 -10   3   1    0.38    0.36
   3 -10  -1    0.34    0.36
 -10  -3  -1    0.31    0.43
  10  -3   1   -0.25    0.33
  -3 -10   1    0.89    0.42
 -10  -3  -1    0.39    0.34
  10  -3   1    0.12    0.31
   3 -10  -1   -0.09    0.34
  -5  10   1   -0.02    0.40
 -10   5  -1    0.38    0.41
 -10  -5   1    0.45    0.46
 -10  -5   1    1.00    0.42
   5 -10   1    0.90    0.35
   5  10  -1    1.04    0.45
   5  10  -1   -0.11    0.35
   5 -10   1    0.87    0.40
  -5 -10  -1   -0.02    0.42
  10  -5  -1    0.05    0.40
  10   5   1    0.09    0.43
 -10  -5  -1    0.55    0.49
 -10  -5  -1    0.44    0.39
   5  10   1    0.08    0.36
  -5  10  -1    0.32    0.37
   5  10   1    0.36    0.40
   5 -10  -1    1.45    0.47
   5 -10  -1    1.11    0.36
  10  -5   1    0.73    0.31
 -10   5   1    0.20    0.39
  -5 -10   1    0.49    0.44
  10   5  -1    0.35    0.40
  10  -5   1   -0.07    0.36
   7  10  -1   -0.12    0.42
 -10  -7   1    0.07    0.43
   7 -10   1    0.54    0.45
 -10   7  -1    0.37    0.42
   7  10  -1    0.12    0.44
  10   7   1   -0.92    0.41
  -7 -10  -1    0.57    0.47
  10  -7  -1   -0.70    0.43
  -7  10   1   -0.17    0.45
 -10  -7   1   -0.20    0.44
   7  10   1    0.21    0.43
   7 -10  -1   -0.95    0.44
 -10  -7  -1    0.21    0.50
 -10  -7  -1    0.30    0.46
  -7  10  -1    0.06    0.44
   7  10   1    0.53    0.47
  10  -7   1   -0.66    0.37
 -10   7   1    0.65    0.47
  10   7  -1    0.52    0.48
  -7 -10   1    0.04    0.47
  -9  10   1    1.41    0.55
   9 -10   1    0.71    0.55
  10   9   1    0.34    0.51
   9  10  -1    1.21    0.54
  10  -9  -1    1.34    0.54
  -9 -10  -1    0.06    0.50
   9  10  -1    0.62    0.52
 -10  -9   1    1.24    0.57
 -10   9  -1    1.03    0.54
  10   9   1    1.12    0.54
  10  -9   1    0.64    0.52
  10   9  -1    1.47    0.55
  10   9  -1    1.10    0.55
   9  10   1    1.72    0.53
 -10  -9  -1    0.81    0.53
 -10   9   1    1.43    0.54
  -9 -10   1    0.03    0.53
  -9  10  -1    0.55    0.51
   9  10   1    1.28    0.55
   9 -10  -1    0.97    0.49
   0 -11   1    0.43    0.31
   0  11  -1    0.59    0.41
 -11   0   1    0.82    0.43
   0 -11  -1   -0.60    0.36
  11   0   1    0.52    0.38
 -11   0  -1   -0.18    0.41
   0 -11  -1    0.06    0.30
  11   0  -1    0.14    0.37
   0  11   1    0.23    0.38
   0 -11   1   -0.01    0.39
   2 -11   1    7.13    0.61
  11  -2  -1    7.39    0.69
 -11   2  -1    7.39    0.78
   2 -11   1    7.31    0.70
  11   2   1    7.13    0.75
  -2  11   1    7.51    0.67
  -2 -11  -1    5.58    0.73
 -11  -2   1    6.22    0.64
  11  -2  -1    7.01    0.67
   2  11  -1    5.80    0.75
 -11  -2   1    7.21    0.78
  -2 -11   1    8.46    0.75
 -11   2   1    7.50    0.76
  11  -2   1    6.98    0.66
 -11  -2  -1    6.64    0.80
   2 -11  -1    6.69    0.72
  11  -2   1    6.30    0.61
   2 -11  -1    7.29    0.63
  -2  11  -1    7.36    0.71
   2  11   1    7.84    0.79
  11   2  -1    6.30    0.69
  11  -4  -1    0.16    0.34
   4  11  -1    0.16    0.45
 -11  -4   1    0.82    0.47
   4 -11   1    0.38    0.41
 -11   4  -1    0.18    0.44
   4 -11   1    0.55    0.38
 -11  -4   1    0.35    0.40
  11  -4  -1    0.15    0.41
  -4  11   1    0.32    0.45
  -4 -11  -1    0.67    0.45
  11   4   1    0.65    0.49
   4 -11  -1    0.02    0.37
  11  -4   1    0.11    0.35
  -4  11  -1    1.31    0.48
 -11  -4  -1    0.57    0.39
  11   4  -1    0.63    0.47
  -4 -11   1    0.48    0.44
   4 -11  -1    0.48    0.40
 -11   4   1    0.45    0.44
  11  -4   1    0.20    0.42
 -11  -4  -1   -0.26    0.46
   4  11   1    0.73    0.49
  11  -6  -1    3.82    0.57
  -6  11   1    3.10    0.56
   6  11  -1    3.21    0.51
 -11   6  -1    3.64    0.56
  -6 -11  -1    3.97    0.58
   6  11  -1    4.20    0.63
  11   6   1    5.00    0.66
 -11  -6   1    3.14    0.59
   6 -11   1    2.40    0.53
 -11  -6   1    3.33    0.58
  11   6  -1    3.24    0.57
   6 -11  -1    2.98    0.57
 -11  -6  -1    3.33    0.62
  -6 -11   1    4.35    0.61
   6 -11  -1    5.15    0.66
   6  11   1    2.60    0.58
  -6  11  -1    4.18    0.58
 -11  -6  -1    3.66    0.57
   6  11   1    3.11    0.50
 -11   6   1    3.86    0.59
  11  -6   1    2.06    0.53
 -11  -8   1    1.24    0.53
   8 -11   1    0.00    0.50
 -11   8  -1    0.21    0.51
 -11  -8   1    1.37    0.59
   8  11  -1    1.65    0.58
   8  11  -1    1.56    0.51
  -8 -11  -1    0.85    0.57
  11   8   1    0.88    0.53
  11  -8  -1    0.31    0.52
  -8  11   1    0.46    0.50
  -8 -11   1    2.13    0.58
 -11   8   1    0.59    0.52
   8  11   1    0.86    0.47
   8 -11  -1    1.19    0.54
   8  11   1    0.73    0.54
 -11  -8  -1    1.42    0.60
 -11  -8  -1    1.23    0.55
  -8  11  -1    1.24    0.55
  11   8  -1    0.75    0.55
  11  -8   1    1.04    0.54
 -10  11   1    0.26    0.58
 -10 -11  -1   -0.63    0.52
  10  11  -1    0.07    0.53
 -11 -10   1    0.33    0.58
  11  10   1    0.53    0.53
  10  11  -1   -0.71    0.53
 -11 -10   1   -0.34    0.56
  10 -11   1    0.04    0.54
  11 -10  -1    0.12    0.56
 -11  10  -1    0.47    0.60
 -11 -10  -1    0.32    0.60
  10  11   1   -0.09    0.53
  10  11   1    0.07    0.59
  11  10  -1    0.24    0.50
 -11  10   1   -0.47    0.54
  11 -10   1    0.28    0.57
 -10  11  -1    0.39    0.59
 -10 -11   1    0.09    0.57
 -11 -10  -1    0.14    0.55
  10 -11  -1    0.31    0.58
  12   1   1    4.31    0.58
   1 -12   1    4.30    0.56
 -12  -1   1    4.22    0.61
  -1  12   1    5.60    0.76
  12  -1  -1    4.66    0.67
  -1 -12  -1    2.91    0.54
 -12   1  -1    4.55    0.63
   1 -12   1    3.81    0.48
   1  12  -1    3.92    0.58
   1  12   1    4.48    0.63
 -12   1   1    4.01    0.60
  12  -1   1    3.98    0.57
  -1  12  -1    3.94    0.59
  -1 -12   1    5.10    0.61
   1 -12  -1    4.03    0.56
  12   1  -1    4.53    0.61
   1 -12  -1    3.49    0.53
 -12  -1  -1    3.50    0.59
  12   3   1    1.49    0.46
  -3  12   1    0.26    0.43
 -12   3  -1    1.14    0.48
   3 -12   1    1.40    0.44
   3  12  -1    0.08    0.45
  12  -3  -1    0.47    0.43
  -3 -12  -1    1.68    0.51
  12  -3  -1    1.22    0.40
   3 -12   1    0.66    0.43
 -12  -3   1    0.16    0.47
  12  -3   1    0.65    0.42
  12  -3   1    0.89    0.41
 -12  -3  -1    1.27    0.53
   3  12   1    0.90    0.48
  -3  12  -1    0.28    0.44
  -3 -12   1    1.43    0.52
 -12   3   1    0.70    0.48
  12   3  -1    0.10    0.49
   3 -12  -1    1.04    0.43
   3 -12  -1    1.09    0.44
  -5  12   1   -0.15    0.46
   5 -12   1   -0.14    0.42
 -12   5  -1    0.29    0.49
   5  12  -1    0.53    0.49
  12  -5  -1    0.25    0.45
  12   5   1    0.23    0.51
 -12  -5   1   -0.03    0.46
  -5 -12  -1    0.49    0.51
 -12  -5   1    0.46    0.53
 -12  -5  -1    0.47    0.52
 -12   5   1    0.03    0.47
  -5 -12   1    0.11    0.49
   5 -12  -1    0.20    0.45
  12   5  -1    0.07    0.50
   5  12   1    0.64    0.51
  12  -5   1    0.16    0.47
   5 -12  -1   -0.17    0.41
  -5  12  -1    0.17    0.49
   7 -12   1    2.41    0.57
 -12  -7   1    2.22    0.59
 -12   7  -1    0.65    0.54
  12  -7  -1    2.04    0.57
  -7 -12  -1    2.34    0.60
 -12  -7   1    2.99    0.64
  12   7   1    2.35    0.62
  -7  12   1    2.01    0.60
   7  12  -1    2.28    0.61
  12  -7   1    2.09    0.59
  -7 -12   1    3.00    0.66
 -12  -7  -1    1.43    0.61
 -12   7   1    2.07    0.58
   7 -12  -1    3.15    0.63
  12   7  -1    2.68    0.59
 -12  -7  -1    2.01    0.56
   7  12   1    2.01    0.61
  -7  12  -1    3.13    0.63
  12   9   1    2.44    0.65
   9  12  -1    4.01    0.72
 -12   9  -1    2.00    0.63
   9  12  -1    3.17    0.62
  -9  12   1    3.35    0.68
  12  -9  -1    2.79    0.60
 -12  -9   1    3.53    0.70
 -12  -9   1    2.00    0.66
  -9 -12  -1    2.53    0.68
   9 -12   1    2.36    0.64
 -12  -9  -1    3.30    0.73
  -9  12  -1    1.45    0.62
   9  12   1    3.09    0.63
  12   9  -1    3.41    0.72
  12  -9   1    1.39    0.63
 -12   9   1    3.47    0.70
 -12  -9  -1    2.65    0.65
   9 -12  -1    3.71    0.67
   9  12   1    2.13    0.66
  -9 -12   1    3.01    0.69
 -12 -11   1    1.35    0.66
 -12 -11   1    0.25    0.62
 -11 -12  -1    1.49    0.66
  12  11   1    0.63    0.58
  11  12  -1    2.00    0.65
  11  12  -1    0.53    0.60
  11  12   1    1.30    0.64
 -12 -11  -1    0.44    0.63
  11  12   1    1.12    0.64
  12  11  -1    1.77    0.67
 -12 -11  -1    0.89    0.69
 -11 -12   1    0.45    0.66
 -13   0   1    0.34    0.47
  13   0  -1    0.11    0.44
   0 -13  -1   -0.23    0.45
 -13   0  -1    0.25    0.52
   0 -13   1    0.88    0.48
  13   0   1   -0.25    0.45
   0  13  -1    0.25    0.49
   0  13   1   -0.05    0.47
   2  13  -1    1.13    0.52
   2 -13   1    0.92    0.48
   2 -13   1    0.12    0.41
  -2  13   1    0.86    0.51
  13  -2  -1    0.50    0.47
  -2 -13  -1    0.51    0.50
  13   2   1    0.44    0.47
 -13   2  -1    1.55    0.55
 -13  -2   1    0.93    0.53
  13  -2   1    0.05    0.43
  -2  13  -1    1.03    0.49
 -13   2   1    1.02    0.53
   2 -13  -1    0.87    0.49
   2 -13  -1    0.69    0.42
  13   2  -1    0.91    0.48
 -13  -2  -1    0.01    0.51
   2  13   1   -0.13    0.48
  -2 -13   1    1.27    0.52
   4  13  -1   -0.35    0.50
  13   4   1   -0.08    0.51
   4 -13   1   -0.49    0.43
 -13   4  -1    0.04    0.50
  13  -4  -1    0.17    0.44
  -4 -13  -1    0.62    0.55
 -13  -4   1    1.16    0.57
  -4  13   1    0.51    0.49
   4 -13   1   -0.50    0.39
   4 -13  -1    0.44    0.46
  -4  13  -1   -0.76    0.48
  -4 -13   1   -0.28    0.50
   4 -13  -1   -0.27    0.42
 -13   4   1   -0.54    0.49
  13  -4   1   -0.54    0.42
   4  13   1   -0.23    0.52
 -13  -4  -1   -0.89    0.51
  13   4  -1    0.05    0.53
   6  13  -1    1.66    0.61
 -13  -6   1    1.65    0.58
  -6  13   1    1.34    0.58
   6 -13   1    0.28    0.50
 -13   6  -1    1.86    0.61
  -6 -13  -1    1.44    0.56
  13  -6  -1    1.56    0.54
  13   6   1    1.73    0.61
  13  -6   1    1.31    0.54
  -6  13  -1    0.59    0.57
   6  13   1    0.41    0.56
 -13   6   1    1.12    0.56
 -13  -6  -1    1.06    0.60
  13   6  -1    0.04    0.48
  -6 -13   1    2.25    0.63
   6 -13  -1    0.80    0.54
 -13  -8   1    2.72    0.63
 -13   8  -1    1.89    0.63
  13  -8  -1    1.27    0.62
   8 -13   1    1.48    0.63
   8  13  -1    1.66    0.64
  -8  13   1    0.91    0.61
  -8 -13  -1    1.59    0.63
  13   8   1    1.31    0.63
 -13  -8   1    1.22    0.62
 -13  -8  -1    1.82    0.64
  13   8  -1    1.52    0.63
   8  13   1    1.31    0.64
  -8 -13   1    0.62    0.60
  13  -8   1    0.25    0.56
  -8  13  -1    1.34    0.63
 -13   8   1    1.54    0.63
   8 -13  -1    1.83    0.65
  10  13  -1    0.95    0.62
 -13 -10   1    0.40    0.64
 -13 -10   1   -0.17    0.62
 -13 -10  -1   -0.04    0.64
 -13 -10  -1   -0.11    0.59
   1  14  -1    0.80    0.55
 -14  -1   1    0.79    0.55
 -14   1  -1    1.46    0.62
  -1 -14  -1    2.47    0.59
  -1  14   1    1.89    0.61
   1 -14   1    1.87    0.56
  14  -1  -1    1.15    0.55
  14   1   1    1.45    0.57
  -1  14  -1    1.72    0.57
  -1 -14   1    2.29    0.60
   1  14   1    1.53    0.57
  14  -1   1    1.54    0.53
   1 -14  -1    2.52    0.59
 -14   1   1    0.95    0.58
  14   1  -1    1.39    0.53
 -14  -1  -1    1.91    0.59
  -3  14   1    1.47    0.56
   3  14  -1    1.33    0.57
  14  -3  -1    0.62    0.47
 -14   3  -1    1.26    0.60
   3 -14   1    1.58    0.54
 -14  -3   1    1.29    0.59
   3 -14   1    0.69    0.48
  -3 -14  -1    1.80    0.58
  14   3   1    0.94    0.51
  14  -3   1    0.82    0.49
   3 -14  -1    1.08    0.50
 -14  -3  -1    0.63    0.61
   3  14   1    0.80    0.57
  14   3  -1    1.24    0.59
  -3  14  -1    1.82    0.59
  -3 -14   1    1.60    0.59
   3 -14  -1    2.32    0.55
 -14   3   1    1.84    0.60
 -14   5  -1    2.69    0.67
  14   5   1    1.09    0.60
 -14  -5   1    2.14    0.67
   5  14  -1    2.77    0.68
  -5 -14  -1    1.82    0.59
   5 -14   1    2.14    0.59
  14  -5  -1    0.71    0.54
  -5  14   1    2.05    0.62
  -5 -14   1    2.38    0.67
  14  -5   1    1.72    0.59
  14   5  -1    2.32    0.65
 -14  -5  -1    1.64    0.64
   5  14   1    0.40    0.57
   5 -14  -1    1.31    0.55
  -5  14  -1    2.48    0.63
 -14   5   1    1.93    0.63
 -14   7  -1   -0.42    0.58
 -14  -7   1    0.87    0.63
  -7  14   1    1.07    0.64
  14  -7  -1   -0.15    0.57
   7  14  -1   -0.04    0.60
  14   7   1    1.41    0.64
   7 -14   1    1.65    0.62
  -7 -14  -1    1.18    0.61
 -14  -7  -1   -0.57    0.59
  -7  14  -1    1.65    0.58
  14   7  -1    0.89    0.62
 -14   7   1    1.57    0.65
  14  -7   1    0.26    0.56
  -7 -14   1    0.76    0.60
   7  14   1    1.27    0.65
   7 -14  -1    0.58    0.60
 -14  -9   1   -0.02    0.63
   0 -15   1    0.14    0.53
   0  15   1    0.74    0.63
 -15   0  -1    0.06    0.56
   0  15  -1   -0.70    0.55
  15   0  -1    0.86    0.58
   0 -15  -1    0.14    0.55
  15   0   1   -1.03    0.47
 -15   0   1    0.30    0.58
  -2 -15  -1    6.66    0.93
 -15   2  -1    4.84    0.75
  15   2   1    5.59    0.74
  15  -2  -1    5.95    0.74
  -2  15   1    6.13    0.83
   2  15  -1    5.20    0.75
   2 -15   1    5.80    0.74
 -15  -2   1    7.69    1.06
  -2  15  -1    5.14    0.76
   2  15   1    8.24    1.02
 -15   2   1    5.70    0.77
  15   2  -1    7.29    0.91
  -2 -15   1    4.94    0.73
 -15  -2  -1    5.03    0.75
   2 -15  -1    7.13    0.92
  15  -2   1    6.85    0.87
  15   4   1   -0.01    0.59
  -4  15   1   -0.07    0.52
 -15   4  -1    1.10    0.63
   4 -15   1    0.27    0.49
 -15  -4   1   -0.34    0.58
   4  15  -1   -1.13    0.57
  -4 -15  -1    0.56    0.60
   4 -15  -1    1.25    0.54
 -15   4   1    0.09    0.60
  -4 -15   1    0.44    0.59
  -4  15  -1   -0.02    0.56
 -15  -4  -1    0.82    0.64
   4  15   1   -0.36    0.59
  15   4  -1    1.30    0.60
   4 -15  -1    0.54    0.52
  15  -6  -1    1.88    0.65
   6 -15   1    3.25    0.67
 -15   6  -1    2.28    0.71
 -15  -6   1    3.27    0.72
   6  15  -1    2.02    0.71
 -15  -6  -1    3.58    0.77
   6  15   1    2.79    0.73
  15  -6   1    1.96    0.65
   6 -15  -1    2.48    0.64
 -15   6   1    3.08    0.71
   1 -16   1    1.34    0.60
 -16  -1   1   -0.54    0.56
  16   1   1    0.18    0.59
  16  -1  -1    0.61    0.58
 -16   1  -1    0.09    0.61
   1  16  -1    0.75    0.66
  -1 -16  -1    0.19    0.59
 -16   1   1    0.32    0.60
  -1 -16   1    0.97    0.64
  16  -1   1    0.45    0.56
 -16  -1  -1    1.45    0.68
  16   1  -1    0.97    0.64
   1 -16  -1    0.86    0.58
   1  16   1    0.53    0.62
  -1  16  -1    0.58    0.63
 -16  -3   1    2.10    0.70
 -16   3  -1    1.99    0.73
 -16   3   1    1.47    0.66
 -16  -3  -1    2.91    0.74
   3 -16  -1    3.84    0.72
   5 -16   1    2.22    0.71
   5 -16  -1    3.27    0.71
   0   0   2   -0.01    0.06
   0   0  -2    0.03    0.06
   0   0   2   -0.02    0.06
  -1  -1   2    2.12    0.18
  -1   1  -2    2.52    0.21
  -1  -1  -2    2.41    0.19
   1   1   2    2.36    0.20
   1   1  -2    2.51    0.26
   1  -1   2    2.41    0.13
  -1   1   2    2.26    0.20
   1   1   2    2.71    0.20
  -1   1   2    2.17    0.18
   1  -1   2    2.09    0.19
  -1  -1   2    2.12    0.22
   1   1  -2    2.12    0.18
   1  -1   2    2.21    0.22
   1  -1  -2    2.47    0.16
   1   1   2    2.31    0.20
   1   1   2    2.85    0.26
   0   2   2    0.10    0.14
   2   0   2    0.07    0.15
  -2   0  -2    0.19    0.20
   0  -2   2    0.04    0.14
   0  -2  -2   -0.10    0.15
   0   2  -2    0.02    0.16
   2   0  -2    0.17    0.17
   2   0   2    0.18    0.16
  -2   0  -2    0.02    0.10
   0   2   2    0.01    0.09
   2   0  -2    0.13    0.15
  -2   0   2   -0.09    0.15
  -2   0   2    0.09    0.16
   0   2  -2    0.13    0.15
   0   2   2   -0.15    0.15
   0  -2   2    0.20    0.16
   2   2  -2   -0.14    0.25
  -2   2  -2   -0.08    0.11
   2   2   2   -0.11    0.13
   2   2  -2    0.11    0.21
  -2  -2   2   -0.02    0.23
   2  -2  -2   -0.18    0.22
  -2  -2   2   -0.04    0.12
  -2   2   2    0.06    0.18
   2  -2  -2   -0.04    0.12
  -2   2   2   -0.01    0.19
  -2   2  -2    0.11    0.21
   2  -2   2   -0.47    0.21
   2   2   2   -0.36    0.21
  -2  -2  -2   -0.31    0.17
   2   2   2    0.11    0.20
   2  -2   2   -0.10    0.15
   3   1   2   16.92    0.54
   3  -1  -2   17.64    0.50
  -3   1  -2   15.43    0.56
  -1  -3  -2   15.83    0.54
  -3  -1   2   16.68    0.56
   1  -3   2   16.25    0.47
   3  -1  -2   16.79    0.53
  -1   3   2   16.47    0.54
  -3   1  -2   16.63    0.38
   1   3  -2   16.48    0.52
  -1  -3  -2   17.10    0.44
   3   1   2   16.75    0.43
   1  -3   2   16.41    0.51
   1   3  -2   16.83    0.54
  -3  -1   2   16.44    0.56
  -3   1   2   15.84    0.48
   3   1  -2   16.26    0.43
   1   3   2   16.46    0.47
   1  -3  -2   17.50    0.53
  -1  -3   2   16.33    0.43
  -3  -1  -2   15.67    0.46
  -1   3  -2   17.01    0.53
   3  -1   2   17.39    0.52
  -3  -1  -2   15.90    0.56
   3  -1   2   17.42    0.52
  -1  -3   2   16.69    0.56
  -1   3  -2   17.12    0.48
   3   1  -2   16.50    0.57
  -3   1   2   16.19    0.53
   3  -3   2   20.36    0.54
  -3  -3   2   19.71    0.42
   3   3  -2   19.90    0.65
   3   3  -2   20.15    0.68
  -3   3   2   19.66    0.57
  -3   3   2   20.21    0.59
   3   3   2   20.12    0.62
  -3  -3  -2   20.07    0.43
  -3  -3   2   20.18    0.68
  -3   3  -2   20.19    0.61
  -3   3  -2   19.94    0.50
   3  -3   2   21.48    0.65
   3  -3  -2   20.21    0.47
   3  -3  -2   20.71    0.67
  -3  -3  -2   19.72    0.64
  -4   0  -2    0.23    0.17
   4   0   2    0.28    0.21
   4   0   2    0.01    0.23
  -4   0   2    0.04    0.24
  -4   0   2    0.03    0.20
   4   0  -2   -0.01    0.19
   4   0  -2    0.15    0.26
   0   4  -2   -0.19    0.22
   0   4   2    0.06    0.14
  -4   0  -2    0.11    0.28
   0  -4   2    0.33    0.20
   0   4   2   -0.04    0.23
   0  -4  -2    0.32    0.24
   0  -4   2    0.01    0.22
   0   4  -2   -0.17    0.20
   0   4   2   -0.04    0.24
   0  -4  -2   -0.09    0.19
  -4   2  -2   -0.02    0.13
  -4  -2   2    0.03    0.25
   4  -2  -2    0.07    0.18
  -4   2  -2   -0.05    0.26
  -4  -2   2   -0.26    0.27
   4   2   2   -0.21    0.25
  -2   4   2    0.06    0.21
   4   2   2    0.09    0.13
   2  -4   2    0.38    0.24
  -2  -4  -2   -0.01    0.25
   2   4  -2    0.27    0.25
   2  -4   2    0.06    0.19
   2   4  -2   -0.02    0.25
  -2  -4  -2    0.00    0.13
   4  -2  -2    0.04    0.26
  -2   4   2   -0.09    0.21
   4   2   2   -0.26    0.28
   4   2  -2   -0.03    0.29
  -4   2   2   -0.11    0.22
   4   2  -2    0.03    0.13
   4   2  -2   -0.21    0.24
   4  -2   2    0.34    0.25
  -2   4  -2   -0.09    0.17
  -4  -2  -2   -0.24    0.19
  -2  -4   2   -0.36    0.23
  -4   2   2   -0.10    0.19
  -2  -4   2   -0.12    0.13
  -2   4  -2    0.18    0.24
   2   4   2    0.23    0.27
   2  -4  -2    0.02    0.26
   4  -2   2   -0.08    0.19
   2   4   2    0.10    0.22
  -4   4  -2    0.18    0.25
   4   4   2   -0.55    0.25
   4   4  -2   -0.29    0.25
  -4  -4  -2    0.14    0.24
  -4  -4   2   -0.13    0.26
  -4   4   2   -0.28    0.24
   4  -4  -2   -0.16    0.29
   4  -4  -2   -0.09    0.13
  -4   4   2    0.21    0.20
   4   4   2   -0.37    0.30
   4  -4   2    0.13    0.27
  -4   4  -2    0.06    0.15
   4   4  -2   -0.18    0.30
   4  -4   2   -0.11    0.16
   5   1   2    2.56    0.29
  -1   5   2    2.13    0.29
   5   1   2    2.80    0.37
   1   5  -2    1.63    0.29
  -5   1  -2    2.25    0.24
  -1  -5  -2    2.18    0.23
   1  -5   2    1.87    0.27
   5  -1  -2    2.22    0.29
   5  -1  -2    1.98    0.29
  -5  -1   2    2.19    0.32
  -5  -1   2    1.78    0.29
  -1   5   2    2.41    0.19
  -1  -5  -2    1.47    0.27
  -1   5   2    1.80    0.28
   1   5  -2    2.29    0.29
  -5   1  -2    1.23    0.29
   1  -5   2    2.46    0.35
  -5   1   2    1.96    0.30
   1   5   2    2.46    0.30
  -5   1   2    1.72    0.25
   5  -1   2    2.62    0.30
   5   1  -2    2.31    0.30
  -1   5  -2    2.73    0.41
   5   1  -2    1.97    0.31
  -1  -5   2    1.66    0.21
   5  -1   2    1.88    0.27
  -5  -1  -2    1.54    0.33
   1  -5  -2    2.32    0.29
   1   5   2    2.38    0.32
  -1   5  -2    2.03    0.31
  -1  -5   2    1.61    0.29
  -5  -1  -2    1.89    0.24
  -3   5   2    3.86    0.19
  -3  -5  -2    3.05    0.43
  -3   5   2    3.95    0.37
  -5   3  -2    3.99    0.26
   3   5  -2    3.25    0.44
   5  -3  -2    4.92    0.43
   3  -5   2    3.95    0.35
  -5  -3   2    3.80    0.47
  -3  -5  -2    3.52    0.21
   3   5  -2    3.47    0.45
  -3   5   2    2.99    0.38
  -5   3  -2    3.61    0.45
   5  -3  -2    3.76    0.32
   5   3   2    4.10    0.46
   5   3   2    3.61    0.22
   3  -5   2    4.23    0.45
   5   3   2    4.00    0.44
  -3   5  -2    4.06    0.45
   3   5   2    4.72    0.43
  -3   5  -2    3.99    0.32
  -5   3   2    4.13    0.43
   5   3  -2    3.36    0.45
  -5   3   2    3.36    0.34
   5   3  -2    3.83    0.20
  -3  -5   2    3.72    0.21
   5  -3   2    5.31    0.46
   3   5   2    4.01    0.50
   5  -3   2    3.51    0.33
   3  -5  -2    3.54    0.46
  -5  -3  -2    3.90    0.42
  -3  -5   2    3.88    0.47
   5   3  -2    3.86    0.48
   5   5  -2    7.17    0.55
   5  -5  -2    7.30    0.31
   5  -5   2    7.54    0.50
   5  -5  -2    6.26    0.49
   5   5   2    6.74    0.50
  -5  -5  -2    5.92    0.50
   5  -5   2    7.16    0.37
  -5   5  -2    7.68    0.36
  -5   5   2    7.06    0.52
  -5  -5   2    7.32    0.56
   5   5  -2    6.24    0.55
  -5   5  -2    7.52    0.54
   5   5   2    8.25    0.62
  -5   5   2    7.60    0.43
   6   0   2    0.13    0.21
   0  -6   2    0.09    0.25
   0   6  -2    0.05    0.26
   6   0   2    0.17    0.24
  -6   0   2   -0.07    0.25
   0   6   2   -0.15    0.24
   0  -6   2    0.15    0.21
  -6   0  -2   -0.17    0.28
   0  -6  -2   -0.13    0.26
  -6   0   2   -0.21    0.22
   0   6   2    0.12    0.17
   0  -6  -2    0.26    0.21
   0   6  -2   -0.24    0.22
  -6   0  -2    0.05    0.18
   6   0  -2    0.08    0.22
   6   0  -2   -0.21    0.25
  -6   2  -2    0.06    0.14
   2   6  -2    0.11    0.27
   2  -6   2   -0.09    0.22
   2  -6   2   -0.08    0.25
   2   6  -2    0.03    0.25
  -6  -2   2    0.05    0.27
  -2  -6  -2   -0.30    0.16
  -2  -6  -2    0.28    0.28
   6  -2  -2    0.15    0.22
  -6  -2   2   -0.42    0.28
   6   2   2   -0.01    0.16
   6   2   2    0.19    0.24
  -2   6   2    0.04    0.27
   6  -2  -2   -0.27    0.26
  -2   6   2   -0.05    0.23
  -6   2  -2    0.28    0.29
  -2  -6   2    0.32    0.28
   2   6   2   -0.02    0.21
  -6  -2  -2    0.11    0.23
   2  -6  -2   -0.55    0.26
  -6   2   2   -0.11    0.26
  -2   6  -2   -0.15    0.25
   2   6   2    0.02    0.29
   6   2  -2   -0.34    0.27
   6   2  -2    0.03    0.15
   6  -2   2   -0.17    0.21
   6  -2   2   -0.09    0.26
  -2  -6   2    0.01    0.16
  -6   2   2   -0.08    0.20
  -2   6  -2   -0.11    0.17
  -6  -2  -2   -0.15    0.28
   4  -6   2    0.33    0.30
  -4  -6  -2   -0.24    0.27
   4  -6   2    0.27    0.21
   6   4   2    0.09    0.29
  -4   6   2    0.59    0.26
   6  -4  -2    0.23    0.19
  -4   6   2    0.11    0.12
   6  -4  -2   -0.06    0.30
   6   4   2    0.12    0.30
   4   6  -2    0.30    0.29
   4   6  -2   -0.10    0.27
  -6   4  -2    0.08    0.27
  -4   6   2    0.45    0.23
  -6  -4   2    0.63    0.32
  -4  -6  -2   -0.03    0.10
  -6   4  -2    0.04    0.15
  -4  -6   2    0.17    0.10
   4   6   2    0.70    0.28
   4   6   2    0.32    0.31
   6   4  -2    0.08    0.29
  -4   6  -2    0.10    0.18
   6  -4   2   -0.02    0.19
  -6  -4  -2    0.07    0.26
   6  -4   2    0.03    0.29
  -6   4   2    0.30    0.21
   4  -6  -2    0.00    0.30
  -6   4   2    0.40    0.24
  -4   6  -2   -0.02    0.25
  -4  -6   2    0.09    0.31
   6   4  -2    0.23    0.30
  -6  -6   2   -0.07    0.34
  -6   6   2    0.03    0.29
   6   6  -2    1.01    0.36
   6  -6  -2   -0.10    0.33
   6   6   2    0.13    0.31
  -6   6  -2    0.18    0.19
   6   6  -2    0.41    0.34
  -6  -6  -2    0.20    0.30
   6   6   2   -0.16    0.36
   6  -6   2    0.12    0.28
  -6   6  -2   -0.12    0.31
  -6   6   2    0.06    0.21
   6  -6   2   -0.27    0.18
  -7   1  -2   16.84    0.52
  -1   7   2   18.08    0.71
   1   7  -2   17.21    0.62
   7   1   2   16.66    0.70
   1  -7   2   16.24    0.64
   1  -7   2   16.97    0.61
   7  -1  -2   16.34    0.66
  -7  -1   2   17.59    0.70
  -7  -1   2   16.99    0.65
   7   1   2   16.68    0.54
  -1  -7  -2   17.77    0.71
   1   7  -2   16.47    0.69
  -7   1  -2   16.55    0.73
  -1   7   2   17.24    0.44
  -1  -7  -2   17.13    0.55
   7  -1  -2   17.13    0.62
   7   1  -2   17.12    0.71
  -7   1   2   17.31    0.68
   1   7   2   17.17    0.54
   1  -7  -2   16.96    0.62
  -7  -1  -2   16.16    0.60
   1  -7  -2   16.70    0.67
  -1  -7   2   16.85    0.55
  -1   7  -2   16.19    0.57
  -1   7  -2   17.45    0.67
  -7   1   2   17.13    0.60
   7  -1   2   16.82    0.65
  -7  -1  -2   16.78    0.75
   1   7   2   17.21    0.72
   7   1  -2   16.65    0.54
  -1  -7   2   16.98    0.69
   7  -1   2   16.55    0.63
  -3   7   2   27.28    0.89
   3  -7   2   25.65    0.80
  -7  -3   2   25.91    0.92
   7   3   2   27.64    0.63
  -3  -7  -2   27.64    0.90
  -3  -7  -2   27.12    0.63
   7  -3  -2   26.62    0.77
   3   7  -2   27.27    0.90
   7  -3  -2   27.98    0.88
  -7   3  -2   27.00    0.66
   3   7  -2   27.47    0.87
  -3   7   2   28.59    0.83
  -7   3  -2   26.02    0.86
   3  -7   2   27.94    0.86
   7   3   2   25.24    0.86
  -7  -3   2   27.08    0.91
  -7  -3  -2   25.85    0.96
  -3  -7   2   27.14    0.91
  -3   7  -2   25.72    0.88
   7  -3   2   26.65    0.80
   7  -3   2   26.60    0.85
  -7   3   2   26.86    0.76
  -3  -7   2   27.33    0.63
   3   7   2   27.06    0.93
  -7   3   2   26.57    0.88
   7   3  -2   27.81    0.92
   3   7   2   28.19    0.81
  -3   7  -2   27.49    0.70
  -7  -3  -2   27.19    0.84
   7   3  -2   26.65    0.61
   3  -7  -2   26.16    0.85
   7  -5  -2   13.50    0.72
  -5   7   2   13.39    0.60
  -7  -5   2   12.83    0.72
   7   5   2   13.23    0.75
  -5  -7  -2   14.23    0.71
  -5   7   2   11.90    0.69
   5  -7   2   13.49    0.70
   7   5   2   14.71    0.71
  -7   5  -2   13.53    0.48
   5  -7   2   13.03    0.55
   5   7  -2   12.82    0.71
   5   7  -2   12.77    0.72
   7  -5  -2   13.81    0.51
  -7   5  -2   13.15    0.69
   7   5  -2   14.28    0.76
  -5   7  -2   13.75    0.50
  -7   5   2   14.23    0.56
  -5   7  -2   13.38    0.65
   7   5  -2   13.48    0.73
  -7   5   2   13.33    0.68
   7  -5   2   13.18    0.70
   5   7   2   14.14    0.69
   7  -5   2   13.80    0.54
   5   7   2   12.74    0.75
  -7  -5  -2   13.66    0.67
  -5  -7   2   14.71    0.74
   7  -7  -2    8.86    0.65
  -7   7   2    7.89    0.52
   7   7   2    9.58    0.70
   7  -7   2    8.52    0.68
  -7  -7  -2    8.64    0.67
  -7   7  -2    8.10    0.63
  -7   7   2    8.16    0.68
   7   7  -2    7.72    0.68
   7   7   2    8.53    0.66
  -7  -7   2    7.97    0.65
   7   7  -2    9.85    0.72
   0   8  -2    0.33    0.24
   0  -8   2    0.70    0.25
   0   8   2    0.76    0.19
  -8   0  -2    0.75    0.30
   8   0   2    0.26    0.30
  -8   0   2    0.51    0.27
   0  -8  -2    0.09    0.29
   0  -8  -2    0.24    0.25
   8   0  -2    0.58    0.33
   8   0   2    0.12    0.23
  -8   0  -2    0.62    0.22
   0   8   2    0.64    0.30
   0   8  -2    0.68    0.32
   8   0  -2    0.18    0.25
  -8   0   2    1.25    0.35
   0  -8   2    0.25    0.29
  -8   2  -2    0.16    0.17
   8  -2  -2   -0.06    0.27
   8   2   2    0.02    0.32
  -2   8   2    0.16    0.31
   8   2   2   -0.12    0.19
   2  -8   2   -0.23    0.26
   8  -2  -2    0.36    0.26
  -8  -2   2    0.37    0.28
  -2  -8  -2   -0.30    0.28
  -8  -2   2    0.24    0.32
  -8   2  -2    0.36    0.33
  -2  -8  -2   -0.07    0.19
   2   8  -2    0.46    0.28
   2   8  -2   -0.49    0.30
   2  -8   2   -0.21    0.25
  -2  -8   2   -0.28    0.30
  -8   2   2   -0.43    0.21
  -2   8  -2    0.28    0.30
  -8  -2  -2   -0.13    0.25
  -2  -8   2   -0.23    0.18
   2  -8  -2    0.20    0.29
   2  -8  -2   -0.31    0.26
   2   8   2   -0.07    0.32
   8  -2   2    0.18    0.27
   8   2  -2   -0.07    0.19
   8   2  -2    0.00    0.28
   8  -2   2    0.04    0.27
  -2   8  -2   -0.08    0.20
  -8   2   2    0.05    0.30
  -8  -2  -2    0.01    0.35
   2   8   2   -0.45    0.21
  -4  -8  -2   -0.29    0.32
   8  -4  -2   -0.17    0.22
   8   4   2    0.33    0.36
  -8  -4   2    0.43    0.36
  -8   4  -2    0.13    0.33
   4  -8   2    0.47    0.27
   4   8  -2    0.37    0.32
   8  -4  -2    0.37    0.34
   4  -8   2    0.03    0.31
  -4   8   2    0.08    0.29
  -8  -4   2    0.60    0.34
   4   8  -2    0.01    0.34
  -4   8   2   -0.33    0.26
  -4  -8   2   -0.53    0.32
  -8  -4  -2    0.50    0.42
   4  -8  -2    0.39    0.33
  -4   8  -2    0.15    0.29
   4   8   2    0.06    0.29
   8  -4   2    0.16    0.24
   8  -4   2    0.06    0.31
  -8   4   2   -0.46    0.27
  -8  -4  -2   -0.04    0.28
   8   4  -2    0.29    0.35
  -8   4   2   -0.46    0.20
   4   8   2    0.02    0.33
  -6  -8  -2   -0.45    0.35
   6  -8   2    0.13    0.32
   6   8  -2   -0.26    0.35
  -6   8   2   -0.05    0.26
   6   8  -2    0.13    0.39
   8   6   2   -0.23    0.34
  -6   8   2   -0.60    0.33
   6  -8   2    0.13    0.26
  -8  -6   2   -0.11    0.38
   8   6   2    0.12    0.38
  -8   6  -2   -0.49    0.28
   8  -6  -2   -0.21    0.33
   6  -8  -2   -0.14    0.38
   8   6  -2   -0.47    0.35
  -8   6   2    0.15    0.35
   8   6  -2   -0.02    0.38
   8  -6   2    0.36    0.24
  -8   6   2   -0.10    0.23
   6   8   2   -0.60    0.32
  -6  -8   2    0.47    0.41
  -8  -6  -2   -0.48    0.33
   8  -6   2    0.18    0.32
   6   8   2    0.08    0.38
  -6   8  -2    0.11    0.36
   8  -8  -2    0.12    0.38
  -8  -8   2    0.53    0.44
  -8   8  -2   -0.36    0.39
   8   8  -2   -0.17    0.37
  -8  -8  -2    0.15    0.43
   8  -8   2   -0.85    0.37
  -8   8   2    0.44    0.43
   8   8  -2    0.61    0.41
   8   8   2   -0.26    0.42
   8   8   2    0.23    0.36
  -9  -1   2    1.62    0.39
  -1  -9  -2    0.85    0.35
   9  -1  -2    1.99    0.34
   1   9  -2    1.62    0.38
  -1  -9  -2    2.13    0.30
  -9  -1   2    1.98    0.35
   1  -9   2    2.48    0.35
   1   9  -2    2.11    0.32
   9   1   2    1.78    0.29
   9  -1  -2    1.80    0.38
  -1   9   2    1.93    0.35
   1  -9   2    2.15    0.37
  -9   1  -2    2.45    0.29
   9   1   2    1.88    0.39
  -9   1  -2    2.39    0.44
  -9   1   2    1.82    0.31
  -9  -1  -2    1.19    0.38
   9  -1   2    2.52    0.35
   1   9   2    2.12    0.38
   9   1  -2    1.43    0.28
  -1  -9   2    1.49    0.37
   9   1  -2    1.96    0.41
  -9  -1  -2    2.29    0.32
   9  -1   2    2.13    0.38
  -1   9  -2    1.11    0.35
  -9   1   2    1.66    0.38
   1  -9  -2    1.63    0.33
   1  -9  -2    2.21    0.39
  -1  -9   2    2.22    0.30
  -9  -3   2    0.79    0.38
   9  -3  -2    0.01    0.27
   3   9  -2    0.53    0.37
   3  -9   2    0.23    0.30
  -3  -9  -2    0.02    0.36
   3  -9   2    0.33    0.33
  -3   9   2   -0.53    0.34
   3   9  -2    0.23    0.32
   9   3   2   -0.14    0.33
  -9  -3   2    0.66    0.35
   9  -3  -2    0.29    0.34
  -9   3  -2   -0.11    0.34
  -3   9  -2    0.47    0.37
  -3  -9   2    0.02    0.36
  -9  -3  -2   -0.22    0.36
  -9  -3  -2   -0.10    0.30
   3   9   2    0.03    0.29
   9  -3   2    0.18    0.33
  -9   3   2   -0.11    0.33
   3  -9  -2    0.08    0.30
   3  -9  -2    0.17    0.32
  -9   3   2   -0.59    0.23
   9   3  -2    0.41    0.37
   3   9   2    0.47    0.39
   9  -3   2   -0.13    0.27
   5  -9   2   21.08    0.90
  -9  -5   2   19.18    0.91
  -9   5  -2   20.77    0.93
   5  -9   2   21.46    0.79
   9  -5  -2   21.28    0.92
   5   9  -2   21.43    0.88
   5   9  -2   19.40    0.93
  -5   9   2   19.98    0.91
  -5  -9  -2   20.53    0.93
   9  -5  -2   21.51    0.75
   9   5   2   20.17    0.92
  -9  -5   2   22.04    0.98
  -5   9   2   20.69    0.82
   9  -5   2   20.48    0.90
   5   9   2   20.86    0.94
   9  -5   2   20.59    0.77
  -5  -9   2   20.36    0.96
  -5   9  -2   23.17    0.95
   5  -9  -2   21.74    0.92
  -9   5   2   19.83    0.89
  -9  -5  -2   20.78    1.01
  -9   5   2   22.01    0.74
   5   9   2   20.87    0.82
  -9  -5  -2   21.82    0.89
   9   5  -2   19.97    0.95
  -7  -9  -2    6.33    0.74
  -9  -7   2    5.76    0.79
  -7   9   2    5.82    0.73
  -9  -7   2    5.24    0.76
   9   7   2    4.90    0.71
   9   7   2    5.85    0.76
   7  -9   2    6.60    0.73
   7   9  -2    5.67    0.73
   7   9  -2    5.84    0.73
   9  -7  -2    6.44    0.67
  -9   7  -2    4.89    0.64
  -7   9   2    5.11    0.55
  -7  -9   2    4.60    0.61
  -9   7   2    5.46    0.72
   9   7  -2    4.89    0.72
  -7   9  -2    5.08    0.69
   7  -9  -2    5.54    0.73
   7   9   2    6.74    0.80
  -9  -7  -2    5.35    0.74
   7   9   2    7.04    0.70
   9  -7   2    5.77    0.72
   9   7  -2    5.23    0.70
  -9  -9   2   14.64    1.01
  -9   9  -2   13.43    0.97
  -9  -9  -2   16.31    0.98
  -9   9   2   16.64    0.96
   9   9  -2   16.30    0.98
   9  -9  -2   15.01    0.91
   9  -9   2   15.96    0.97
   9   9  -2   13.76    0.97
   9   9   2   15.99    1.00
   9   9   2   14.42    1.00
 -10   0   2    0.04    0.38
   0  10  -2   -0.15    0.35
  10   0   2   -0.24    0.30
   0 -10   2   -0.11    0.36
 -10   0   2    0.24    0.30
 -10   0  -2    0.40    0.41
  10   0   2    0.31    0.28
   0 -10  -2    0.43    0.36
  10   0  -2    0.36    0.29
   0 -10  -2    0.10    0.29
   0  10   2    0.35    0.39
  10   0  -2    0.33    0.37
   0 -10   2    0.39    0.29
   2  10  -2   -0.07    0.31
   2 -10   2   -0.12    0.32
   2 -10   2    0.08    0.32
  10  -2  -2    0.59    0.34
 -10  -2   2    0.02    0.33
   2  10  -2    0.25    0.39
  -2  10   2    0.47    0.33
 -10   2  -2    0.06    0.42
  10   2   2   -0.12    0.35
  -2 -10  -2    0.34    0.38
  10  -2  -2    0.61    0.34
 -10  -2   2   -0.37    0.38
 -10  -2  -2   -0.22    0.39
  10  -2   2    0.56    0.34
 -10  -2  -2   -0.29    0.29
  -2 -10   2   -0.02    0.36
   2 -10  -2   -0.26    0.31
   2 -10  -2    0.16    0.35
  10  -2   2    0.18    0.33
 -10   2   2    0.12    0.27
 -10   2   2    0.02    0.37
  10   2  -2   -0.42    0.38
  -2  10  -2   -0.50    0.34
   2  10   2    0.14    0.38
  10  -4  -2    0.31    0.38
 -10  -4   2   -0.11    0.36
  -4 -10  -2   -0.16    0.38
  10  -4  -2    0.34    0.31
  -4  10   2   -0.25    0.37
   4 -10   2    0.28    0.37
 -10  -4   2    0.10    0.42
   4 -10   2    0.10    0.31
 -10   4  -2   -0.62    0.33
   4  10  -2   -0.72    0.32
   4  10  -2   -0.10    0.39
  10   4   2    0.24    0.43
   4  10   2   -0.63    0.39
 -10  -4  -2   -0.15    0.36
  -4 -10   2   -0.02    0.40
  -4  10  -2   -0.03    0.37
   4 -10  -2   -0.38    0.35
   4 -10  -2   -0.07    0.34
   4  10   2   -0.03    0.32
  10   4  -2   -0.22    0.37
  10  -4   2   -0.44    0.28
  10  -4   2   -0.15    0.37
 -10  -4  -2    0.07    0.45
 -10   4   2    0.10    0.38
 -10  -6   2   -0.14    0.43
  10   6   2   -0.36    0.36
 -10  -6   2   -0.06    0.46
  10  -6  -2   -0.07    0.42
   6 -10   2    0.31    0.43
  -6 -10  -2    0.09    0.43
 -10   6  -2   -0.75    0.37
   6  10  -2    0.29    0.39
   6  10  -2   -0.58    0.41
  -6  10   2    0.34    0.43
   6 -10  -2    0.28    0.34
   6  10   2    0.12    0.37
   6  10   2    0.56    0.48
  -6  10  -2    0.17    0.42
   6 -10  -2   -0.77    0.41
  10   6  -2    0.33    0.47
 -10  -6  -2   -0.14    0.44
  -6 -10   2    0.36    0.47
 -10   6   2    0.05    0.38
 -10  -6  -2   -0.20    0.40
  10  -6   2   -0.38    0.41
  -8 -10  -2    0.19    0.49
 -10  -8   2   -0.45    0.45
  -8  10   2   -0.53    0.45
   8  10  -2    0.56    0.47
   8  10  -2    0.00    0.46
  10  -8  -2    0.47    0.48
  10   8   2    0.02    0.48
   8 -10   2    0.85    0.45
 -10   8  -2   -0.07    0.47
 -10  -8   2    0.40    0.50
   8 -10  -2   -0.26    0.48
 -10   8   2    0.32    0.48
  -8  10  -2    0.15    0.48
   8  10   2   -0.11    0.50
 -10  -8  -2    0.30    0.47
  10   8  -2    0.38    0.50
 -10  -8  -2    0.37    0.51
  10  -8   2    1.47    0.52
   8  10   2    0.62    0.45
  -8 -10   2    0.56    0.52
 -10 -10   2    0.05    0.56
  10  10  -2   -0.04    0.52
 -10 -10  -2    0.56    0.54
  10  10   2   -0.40    0.50
  10  10   2    0.67    0.52
  10  10  -2    0.12    0.48
  10 -10  -2   -0.91    0.49
 -10  10   2    0.05    0.54
 -10  10  -2   -0.32    0.53
  10 -10   2    0.41    0.52
  11   1   2   21.54    0.97
 -11   1  -2   20.63    1.01
  11  -1  -2   21.26    0.92
  -1 -11  -2   20.42    0.96
   1 -11   2   19.76    0.83
  -1  11   2   20.40    0.93
   1  11  -2   21.64    0.99
  11  -1  -2   20.43    0.85
   1 -11   2   19.25    0.91
 -11  -1   2   18.50    0.97
 -11  -1   2   20.87    0.87
  -1 -11   2   21.21    0.96
 -11  -1  -2   19.95    1.02
  -1  11  -2   19.68    0.94
  11   1  -2   20.16    0.96
  11  -1   2   21.05    0.95
  11  -1   2   20.46    0.84
 -11   1   2   19.23    0.97
   1 -11  -2   20.25    0.85
   1 -11  -2   19.85    0.94
   1  11   2   19.36    1.00
 -11   3  -2    8.00    0.79
   3 -11   2    7.09    0.70
  -3 -11  -2    8.58    0.77
   3 -11   2    7.21    0.68
 -11  -3   2    9.93    0.75
  11   3   2    7.93    0.76
 -11  -3   2    7.64    0.80
   3  11  -2    7.32    0.76
  11  -3  -2    7.89    0.68
  -3  11   2    7.12    0.75
  11  -3  -2    8.47    0.71
   3  11   2    9.28    0.84
   3 -11  -2    7.79    0.70
  -3 -11   2    7.74    0.70
 -11   3   2    7.11    0.75
   3 -11  -2    7.43    0.69
 -11  -3  -2    8.63    0.87
  11  -3   2    7.19    0.67
  -3  11  -2    7.65    0.76
  11   3  -2    8.44    0.79
  11  -3   2    7.90    0.65
 -11  -5   2   11.93    0.83
   5 -11   2   12.60    0.76
   5  11  -2   12.34    0.81
  11  -5  -2   12.35    0.86
  -5 -11  -2   13.18    0.92
  11   5   2   11.54    0.81
  -5  11   2   10.47    0.86
   5  11  -2   10.96    0.87
   5 -11   2   12.82    0.84
 -11   5  -2    9.68    0.80
 -11  -5   2   10.60    0.89
 -11  -5  -2   11.64    0.83
 -11   5   2   11.23    0.86
   5  11   2   12.38    0.94
   5 -11  -2   13.27    0.81
  -5 -11   2   11.16    0.88
 -11  -5  -2    9.66    0.91
  -5  11  -2   11.70    0.86
  11   5  -2   12.39    0.90
  11  -5   2   12.43    0.72
   5 -11  -2   11.54    0.84
  11  -5   2   12.43    0.84
 -11  -7   2    9.90    0.88
   7  11  -2   10.27    0.82
  -7 -11  -2    9.73    0.92
  11   7   2    8.54    0.86
  11  -7  -2    8.65    0.88
  -7  11   2    8.76    0.87
   7  11  -2    9.06    0.89
 -11   7  -2   11.76    0.92
 -11  -7   2   10.08    0.93
   7 -11   2   11.53    0.91
 -11  -7  -2   11.23    0.99
  -7  11  -2    9.14    0.86
 -11  -7  -2    9.51    0.88
   7  11   2   11.31    0.95
  11   7  -2    9.52    0.82
   7  11   2    8.32    0.81
  11  -7   2    9.30    0.88
 -11   7   2   11.10    0.90
  -7 -11   2    9.94    0.94
   7 -11  -2   11.42    0.93
  11  -9  -2   10.64    0.99
 -11   9  -2   10.25    0.97
  11   9   2    8.58    1.00
  -9  11   2   10.12    0.97
  -9 -11  -2    8.07    0.95
 -11  -9   2    9.04    0.96
   9  11  -2    8.98    0.93
   9  11  -2   10.08    0.90
   9 -11   2    7.84    0.93
 -11  -9   2    9.41    0.96
 -11  -9  -2   10.18    1.01
 -11  -9  -2    9.50    1.00
   9  11   2    8.82    0.98
  11   9  -2    9.26    0.93
 -11   9   2    9.21    0.96
  -9 -11   2    8.45    0.99
  11  -9   2    8.93    0.95
  -9  11  -2    8.29    0.95
   9 -11  -2    7.66    0.86
   9  11   2   10.52    0.88
 -11 -11  -2   -1.03    0.57
 -11  11  -2    1.56    0.65
  11  11  -2   -0.07    0.55
  11  11   2    0.31    0.57
  11 -11   2    1.19    0.62
  11  11  -2    1.29    0.59
  11 -11  -2    0.47    0.63
  11  11   2    1.04    0.62
 -11 -11   2    0.86    0.64
 -11  11   2    0.44    0.62
 -11 -11   2   -0.42    0.58
 -12   0   2    0.36    0.43
  12   0   2   -0.02    0.44
 -12   0  -2    0.11    0.47
   0  12   2    0.74    0.47
   0 -12  -2    0.11    0.42
  12   0  -2    0.19    0.44
   0 -12   2   -0.05    0.40
   0  12  -2    0.36    0.47
   2 -12   2    0.02    0.42
 -12   2  -2    0.52    0.47
   2  12  -2    0.13    0.44
  12  -2  -2   -0.56    0.37
 -12  -2   2    0.32    0.47
  -2 -12  -2   -0.18    0.45
  -2  12   2   -0.34    0.42
  12   2   2   -0.02    0.42
   2 -12   2    0.44    0.37
  12  -2  -2   -0.17    0.38
 -12  -2  -2    0.39    0.49
   2 -12  -2   -0.09    0.41
  -2 -12   2    0.79    0.46
   2  12   2   -0.22    0.46
 -12   2   2    0.55    0.46
   2 -12  -2    0.47    0.40
  12  -2   2    0.27    0.40
  12   2  -2    0.10    0.48
  12  -2   2    0.65    0.40
  -2  12  -2   -0.36    0.41
   4 -12   2    0.85    0.45
  -4  12   2    0.38    0.49
 -12  -4   2    1.28    0.47
 -12  -4   2    0.84    0.52
   4  12  -2    0.17    0.49
  12  -4  -2    1.09    0.47
   4 -12   2    0.69    0.41
  -4 -12  -2    1.47    0.49
 -12   4  -2    0.38    0.51
  12   4   2    0.25    0.47
 -12  -4  -2    1.31    0.58
   4 -12  -2    0.76    0.44
 -12   4   2    1.17    0.50
  -4 -12   2    1.30    0.50
  12   4  -2    0.64    0.44
  12  -4   2    1.09    0.47
   4 -12  -2    0.59    0.46
  -4  12  -2    0.77    0.49
  12  -4   2    0.70    0.41
   4  12   2    1.47    0.55
   6  12  -2   -0.21    0.49
  12  -6  -2   -0.05    0.48
   6 -12   2    0.72    0.48
 -12   6  -2   -0.34    0.43
 -12  -6   2    0.43    0.51
  -6 -12  -2    0.72    0.54
  -6  12   2   -0.44    0.50
  12   6   2    0.45    0.51
 -12  -6   2   -0.22    0.48
  12   6  -2    0.09    0.50
   6 -12  -2   -0.04    0.45
 -12  -6  -2   -1.66    0.49
   6  12   2   -0.10    0.53
 -12   6   2    0.38    0.49
  -6 -12   2   -0.46    0.49
  -6  12  -2   -0.10    0.49
   6 -12  -2   -0.13    0.43
  12  -6   2   -0.06    0.46
   8  12  -2   -0.56    0.52
  12  -8  -2    1.12    0.59
  -8  12   2   -0.54    0.52
  -8 -12  -2    0.25    0.57
  12   8   2   -0.57    0.53
 -12  -8   2    0.49    0.58
   8 -12   2    0.23    0.54
 -12   8  -2    0.39    0.57
   8  12  -2   -0.29    0.47
 -12  -8   2   -0.18    0.53
  -8 -12   2    0.80    0.58
   8  12   2   -0.06    0.56
  -8  12  -2    0.09    0.51
 -12  -8  -2   -0.25    0.50
  12  -8   2    0.00    0.54
 -12   8   2    0.59    0.57
  12   8  -2   -0.32    0.45
 -12  -8  -2    0.32    0.61
   8 -12  -2   -0.43    0.52
 -10  12   2   -0.76    0.56
  12  10   2    0.01    0.57
  10 -12   2    0.47    0.60
  10  12  -2   -0.01    0.52
  10  12  -2   -0.28    0.52
 -12 -10   2    0.54    0.61
  12 -10  -2    0.22    0.60
 -12 -10   2    0.03    0.61
 -10 -12  -2    1.37    0.66
 -12  10  -2    1.25    0.65
  12 -10   2    0.71    0.58
  12  10  -2    0.68    0.59
  10  12   2   -0.40    0.52
  10 -12  -2    0.31    0.61
  10  12   2    0.31    0.62
 -12 -10  -2    0.51    0.65
 -12  10   2    0.68    0.63
 -12 -10  -2    0.74    0.60
 -10 -12   2   -0.29    0.63
 -10  12  -2    0.26    0.62
 -13  -1   2    5.88    0.84
  13  -1  -2    5.95    0.75
   1  13  -2    5.66    0.68
  -1 -13  -2    4.46    0.63
  13   1   2    5.32    0.77
 -13   1  -2    7.02    0.91
   1 -13   2    6.71    0.84
  -1  13   2    5.70    0.69
 -13  -1  -2    5.47    0.72
   1 -13  -2    6.26    0.79
 -13   1   2    4.72    0.66
  13   1  -2    5.19    0.66
  13  -1   2    5.92    0.77
  -1  13  -2    5.82    0.81
   1  13   2    4.83    0.70
  -1 -13   2    4.79    0.64
 -13   3  -2    0.29    0.53
 -13  -3   2    0.16    0.51
   3 -13   2    0.02    0.43
  -3 -13  -2    1.33    0.54
   3 -13   2   -0.25    0.43
  13   3   2    0.97    0.47
  -3  13   2   -0.84    0.44
  13  -3  -2    0.54    0.44
  13  -3  -2   -0.33    0.41
   3  13  -2    0.41    0.52
  -3 -13   2   -0.50    0.45
   3 -13  -2   -0.22    0.42
   3 -13  -2    0.10    0.49
  13  -3   2    0.04    0.42
  13   3  -2    0.10    0.53
  13  -3   2    0.06    0.43
   3  13   2   -0.26    0.50
  -3  13  -2    0.11    0.45
 -13  -3  -2   -1.08    0.52
 -13   3   2    0.32    0.49
  -5  13   2    8.11    0.93
   5  13  -2    7.13    0.81
 -13  -5   2    8.33    0.96
  13   5   2    7.59    0.90
  13  -5  -2    7.20    0.84
  -5 -13  -2    8.21    0.85
 -13   5  -2    9.29    0.97
   5 -13   2    9.22    0.85
 -13   5   2    7.47    0.91
 -13  -5  -2    7.55    0.96
   5 -13  -2    8.09    0.85
  13  -5   2    7.87    0.84
   5  13   2    6.99    0.95
  13   5  -2    6.51    0.91
  -5  13  -2    7.47    0.89
   5 -13  -2    8.92    0.85
  -5 -13   2    9.02    0.95
   7 -13   2    1.23    0.59
   7  13  -2    1.08    0.60
  -7 -13  -2    0.98    0.55
  -7  13   2    1.33    0.61
  13  -7  -2    0.64    0.56
 -13  -7   2    1.22    0.60
 -13  -7   2    2.15    0.60
 -13   7  -2    2.28    0.64
  13   7   2    1.33    0.61
   7  13   2    1.32    0.64
  -7 -13   2    1.78    0.63
 -13   7   2    0.73    0.59
 -13  -7  -2    2.65    0.67
  -7  13  -2    1.89    0.64
  13   7  -2    0.44    0.53
   7 -13  -2    2.49    0.64
  13  -7   2    1.22    0.59
  -9 -13  -2   22.23    1.34
   9 -13   2   23.51    1.30
 -13  -9   2   20.15    1.26
 -13   9  -2   20.89    1.31
 -13  -9   2   23.32    1.35
   9  13  -2   21.24    1.29
  -9  13   2   21.51    1.30
  13   9   2   21.86    1.29
  13  -9  -2   24.64    1.31
  13  -9   2   22.40    1.29
  -9  13  -2   21.90    1.29
  13   9  -2   21.57    1.35
 -13   9   2   19.91    1.27
   9  13   2   22.41    1.36
 -13  -9  -2   22.66    1.39
   9 -13  -2   21.69    1.29
  -9 -13   2   22.99    1.37
   0 -14   2   -0.21    0.47
   0 -14  -2   -0.28    0.49
 -14   0   2    0.22    0.52
   0  14   2   -0.30    0.53
  14   0   2    0.06    0.48
  14   0  -2   -0.56    0.46
 -14   0  -2   -0.24    0.52
   0  14  -2   -0.29    0.49
  14  -2  -2   -0.70    0.48
   2 -14   2    0.79    0.51
 -14   2  -2    0.49    0.52
  -2  14   2   -0.39    0.52
   2  14  -2    0.09    0.55
  -2 -14  -2    1.28    0.55
 -14  -2   2    0.71    0.54
  14   2   2    0.24    0.53
   2  14   2    0.16    0.57
 -14   2   2    0.00    0.52
  14  -2   2    0.07    0.48
 -14  -2  -2   -0.05    0.55
  -2  14  -2   -1.26    0.46
  -2 -14   2    0.41    0.53
   2 -14  -2   -0.26    0.48
  14   2  -2    0.31    0.53
   4  14  -2    0.19    0.57
  14  -4  -2    0.55    0.52
  14   4   2   -1.02    0.52
  -4  14   2    0.56    0.52
 -14  -4   2    1.00    0.56
  -4 -14  -2    1.15    0.58
   4 -14   2    0.13    0.46
 -14   4  -2    0.55    0.53
  -4 -14   2   -0.27    0.51
  14  -4   2   -0.09    0.49
  14   4  -2    0.66    0.57
 -14   4   2    0.78    0.59
   4 -14  -2    0.71    0.53
 -14  -4  -2    0.23    0.59
  -4  14  -2    0.19    0.47
   4 -14  -2   -0.01    0.49
   4  14   2    0.39    0.56
  14   6   2    0.06    0.52
  -6 -14  -2    0.86    0.59
   6  14  -2    0.77    0.61
 -14  -6   2   -0.14    0.59
  14  -6  -2    0.59    0.54
 -14   6  -2    0.24    0.59
   6 -14   2   -0.54    0.51
  -6  14   2    0.57    0.55
   6  14   2    0.48    0.58
  -6 -14   2   -0.14    0.57
   6 -14  -2   -1.15    0.50
  -6  14  -2   -0.73    0.57
 -14   6   2   -0.35    0.56
  14  -6   2   -0.64    0.52
 -14  -6  -2    0.20    0.61
  14   6  -2   -0.73    0.46
 -14  -8   2   -0.40    0.54
  14  -8  -2   -0.46    0.57
   8  14  -2   -0.25    0.59
   8 -14   2   -0.88    0.57
 -14   8   2   -0.56    0.57
   8 -14  -2    0.16    0.59
  14  -8   2   -0.04    0.58
   8  14   2    0.34    0.64
 -14  -8  -2   -0.71    0.59
  -1 -15  -2    6.60    0.81
   1 -15   2    7.30    0.95
   1  15  -2    8.23    1.03
  15  -1  -2    6.62    0.90
 -15  -1   2    5.91    0.75
  -1  15   2    7.29    0.86
  15   1   2    7.87    0.95
 -15   1  -2    7.82    1.06
  15  -1   2    6.10    0.75
  -1 -15   2    7.58    0.95
 -15   1   2    6.98    0.96
  15   1  -2    4.85    0.70
 -15  -1  -2    6.16    0.83
   1 -15  -2    6.77    0.94
   1  15   2    6.37    0.82
  -1  15  -2    6.01    0.79
   3  15  -2   10.05    1.07
  15   3   2    8.18    1.01
  -3 -15  -2    8.78    1.02
 -15  -3   2   10.07    1.09
   3 -15   2   10.47    1.05
  -3  15   2    8.78    1.01
 -15   3  -2    9.28    1.08
  -3  15  -2    6.59    0.95
 -15  -3  -2   10.83    1.12
  15   3  -2    8.40    1.01
   3 -15  -2    9.03    0.93
 -15   3   2    9.83    1.04
  -3 -15   2   10.71    1.04
   3  15   2   10.42    1.10
  15  -3   2    8.44    0.93
  15   5   2   11.19    1.09
  -5 -15  -2   12.20    1.13
 -15  -5   2   12.32    1.10
 -15   5  -2   12.29    1.17
  -5  15   2   11.65    1.10
   5 -15   2   11.42    0.98
   5  15  -2   12.76    1.14
 -15   5   2   15.33    1.15
  -5  15  -2   12.62    1.08
   5 -15  -2   14.02    1.04
  -5 -15   2   13.05    1.16
   5  15   2   13.18    1.22
  15   5  -2   13.51    1.13
 -15  -5  -2   12.89    1.20
  15  -7  -2    0.22    0.60
 -15  -7   2    0.32    0.63
  15  -7   2   -0.30    0.57
 -16   0   2    2.58    0.70
  16   0  -2    2.20    0.67
   0 -16  -2    1.66    0.66
  16   0   2    1.30    0.64
 -16   0  -2    0.75    0.65
   0  16  -2    0.04    0.64
   0 -16   2    1.48    0.63
   2 -16   2   -0.44    0.55
 -16   2  -2   -0.33    0.61
   2  16  -2   -0.19    0.58
  -2 -16  -2    0.20    0.66
 -16  -2   2   -0.56    0.55
  16   2   2    0.13    0.56
  -2 -16   2   -0.57    0.53
   2 -16  -2    0.71    0.59
  16  -2   2   -0.07    0.54
 -16   2   2   -0.16    0.58
  16   2  -2   -0.11    0.61
 -16  -2  -2   -0.74    0.58
 -16  -4   2    0.12    0.59
 -16   4   2   -0.53    0.59
   0   1   3   -0.01    0.16
  -1   0   3   -0.04    0.07
   0   1  -3    0.01    0.09
   0   1   3    0.14    0.12
   1   0   3   -0.03    0.13
   1   0  -3    0.27    0.15
  -1   0   3    0.12    0.14
   0   1   3    0.00    0.10
   0   1  -3    0.36    0.15
   1   0   3   -0.10    0.13
  -1   0  -3    0.06    0.14
   0  -1   3    0.10    0.13
  -1   0   3    0.15    0.15
   1   0   3    0.06    0.08
   0   1   3    0.11    0.12
   0  -1   3   -0.20    0.14
  -2   1  -3    6.62    0.36
   2  -1  -3    6.42    0.37
   1  -2   3    5.73    0.31
   2   1   3    6.06    0.40
  -2  -1   3    6.13    0.39
   2  -1  -3    5.50    0.29
  -1   2   3    5.21    0.31
  -1   2   3    5.54    0.32
   2   1   3    6.17    0.28
  -2  -1   3    5.38    0.28
   2   1   3    5.61    0.34
   1   2  -3    5.87    0.30
   1   2  -3    6.04    0.39
   1  -2   3    4.82    0.27
  -1  -2   3    5.52    0.34
   2  -1   3    6.04    0.32
   2   1  -3    5.97    0.40
   1   2   3    5.46    0.29
   1   2   3    5.38    0.32
   2   1  -3    5.69    0.30
  -2  -1  -3    5.52    0.26
   1  -2  -3    5.27    0.37
   2  -1   3    5.30    0.30
  -2   1   3    5.52    0.29
  -1   2  -3    5.86    0.31
   1  -2  -3    5.02    0.19
  -2   1   3    6.14    0.33
  -1   2  -3    5.48    0.31
   1   2   3    5.68    0.30
  -1  -2   3    5.82    0.26
   0   3   3    0.22    0.22
   0  -3   3    0.21    0.19
   3   0  -3    0.33    0.21
  -3   0  -3   -0.14    0.12
   0   3  -3    0.02    0.20
  -3   0   3    0.08    0.21
  -3   0  -3    0.41    0.23
   0  -3   3    0.12    0.21
   3   0   3   -0.12    0.19
   3   0  -3   -0.09    0.21
   0   3  -3   -0.32    0.20
   0   3   3    0.00    0.12
   0  -3  -3   -0.29    0.19
   3   0   3   -0.21    0.22
   0   3   3   -0.34    0.20
  -3   0   3    0.13    0.19
  -3  -2   3   30.05    0.82
   2  -3   3   29.66    0.77
  -3   2  -3   29.35    0.60
   3  -2  -3   29.82    0.68
  -2  -3  -3   29.49    0.65
  -2   3   3   31.38    0.75
  -3   2  -3   31.57    0.79
   2   3  -3   30.38    0.75
   3   2   3   29.99    0.77
   3   2   3   31.10    0.85
   2  -3   3   30.01    0.68
   3   2   3   30.44    0.65
  -2   3   3   30.21    0.76
  -2  -3  -3   30.48    0.77
   2   3  -3   28.74    0.81
   3  -2  -3   29.13    0.76
   2   3   3   30.85    0.75
   3   2  -3   30.98    0.83
  -3  -2  -3   29.75    0.72
  -2  -3   3   29.78    0.63
  -2   3  -3   30.54    0.71
  -3   2   3   30.44    0.74
  -3   2   3   29.54    0.74
  -2  -3   3   28.41    0.78
   2   3   3   30.64    0.81
   2  -3  -3   30.33    0.79
   3  -2   3   30.55    0.74
   3   2  -3   30.99    0.75
  -2   3  -3   30.69    0.77
   3  -2   3   28.24    0.74
   3   2  -3   30.81    0.65
   1   4  -3    1.43    0.28
   4  -1  -3    1.26    0.25
  -1   4   3    1.28    0.25
   4  -1  -3    1.67    0.26
  -4  -1   3    0.83    0.25
  -1  -4  -3    0.58    0.23
  -4   1  -3    1.15    0.13
   4   1   3    1.39    0.20
   4   1   3    1.16    0.26
  -4  -1   3    1.27    0.27
   1  -4   3    1.50    0.23
   1   4  -3    0.97    0.25
  -4   1  -3    0.98    0.26
  -1   4   3    1.06    0.24
  -1  -4  -3    1.50    0.21
   1  -4   3    0.99    0.23
  -4   1   3    1.11    0.23
  -4  -1  -3    1.07    0.32
   4  -1   3    1.40    0.25
  -1  -4   3    0.80    0.26
   1  -4  -3    1.04    0.24
   4   1  -3    1.17    0.27
   4  -1   3    1.37    0.25
   1   4   3    0.78    0.19
  -4   1   3    0.86    0.24
  -1   4  -3    1.47    0.24
   4   1  -3    1.34    0.20
  -4  -1  -3    1.04    0.19
  -1   4  -3    1.19    0.26
  -1  -4   3    1.02    0.19
   1   4   3    1.16    0.30
   4  -3  -3    0.35    0.28
   3   4  -3   -0.20    0.24
  -3   4   3    0.50    0.24
   4   3   3   -0.32    0.26
  -4   3  -3   -0.16    0.25
   4   3   3    0.18    0.14
   3  -4   3    0.02    0.17
  -3   4   3    0.23    0.21
   3   4  -3    0.31    0.29
   4   3   3    0.20    0.22
  -3  -4  -3    0.35    0.14
  -4  -3   3    0.59    0.30
   3  -4   3    0.31    0.23
  -3  -4  -3   -0.04    0.23
   4  -3  -3    0.25    0.17
  -4   3  -3    0.22    0.13
   4  -3   3    0.00    0.25
   4   3  -3    0.14    0.13
  -4   3   3    0.28    0.20
   4   3  -3    0.20    0.30
  -3   4  -3    0.16    0.19
  -3  -4   3    0.97    0.31
  -4  -3  -3    0.03    0.21
   3  -4  -3    0.28    0.10
   4   3  -3   -0.13    0.26
   3  -4  -3   -0.03    0.27
  -3  -4   3    0.12    0.13
   3   4   3    0.09    0.23
  -4   3   3    0.08    0.22
   3   4   3    0.05    0.26
  -3   4  -3    0.03    0.25
   4  -3   3    0.14    0.19
   0  -5   3    0.38    0.21
   5   0   3   -0.03    0.20
   5   0  -3    0.15    0.24
  -5   0  -3    0.38    0.29
   0   5   3    0.20    0.14
   0   5  -3    0.06    0.25
  -5   0   3   -0.22    0.22
   0  -5  -3    0.18    0.21
   0  -5   3   -0.03    0.23
  -5   0  -3    0.23    0.17
   0   5   3   -0.18    0.25
   0   5   3    0.16    0.22
   0  -5  -3   -0.12    0.24
   0   5  -3   -0.10    0.22
  -5   0   3   -0.22    0.23
   5   0  -3    0.43    0.22
   5   0   3    0.08    0.25
  -5  -2   3    4.50    0.45
   5   2   3    4.68    0.45
   2  -5   3    4.91    0.43
  -5  -2   3    4.45    0.50
   2   5  -3    4.10    0.44
   5  -2  -3    5.01    0.37
  -5   2  -3    5.55    0.49
   2  -5   3    5.27    0.38
  -2   5   3    4.58    0.44
   2   5  -3    4.68    0.48
  -5   2  -3    4.73    0.22
   5  -2  -3    4.66    0.46
  -2   5   3    5.02    0.40
   5   2   3    4.82    0.29
  -2  -5  -3    4.57    0.29
  -2  -5  -3    4.65    0.44
  -5   2   3    4.86    0.42
  -2   5  -3    4.56    0.44
   2  -5  -3    4.41    0.45
   5  -2   3    4.53    0.43
  -5   2   3    5.47    0.39
  -2  -5   3    5.10    0.47
   2   5   3    4.70    0.49
  -2  -5   3    4.77    0.30
   5   2  -3    4.05    0.29
  -2   5  -3    4.88    0.35
  -5  -2  -3    4.15    0.36
   2   5   3    4.21    0.35
   5  -2   3    4.40    0.40
   5   2  -3    5.40    0.50
  -5  -2  -3    5.03    0.48
   5   4   3    2.07    0.39
   5  -4  -3    1.59    0.31
  -5   4  -3    1.70    0.30
  -5   4  -3    1.87    0.23
  -4   5   3    2.58    0.35
   5   4   3    2.39    0.33
  -4  -5  -3    2.08    0.17
   4  -5   3    2.05    0.33
   5   4   3    1.83    0.19
   4   5  -3    1.69    0.32
   5  -4  -3    1.90    0.20
   4  -5   3    2.42    0.30
   4   5  -3    1.35    0.31
  -4  -5  -3    1.85    0.30
  -4   5   3    2.32    0.32
  -5  -4   3    2.54    0.37
   5  -4   3    2.04    0.30
   5   4  -3    1.85    0.32
   4  -5  -3    1.99    0.18
   4   5   3    1.81    0.35
  -4  -5   3    2.20    0.18
  -5   4   3    2.11    0.32
   5  -4   3    1.95    0.24
   5   4  -3    1.93    0.33
   4   5   3    1.71    0.30
  -4   5  -3    1.63    0.29
  -4  -5   3    1.33    0.34
  -5  -4  -3    1.67    0.29
   4  -5  -3    1.75    0.34
  -5   4   3    1.39    0.26
  -4   5  -3    2.38    0.31
  -1  -6  -3   -0.14    0.24
  -6   1  -3    0.15    0.14
   1   6  -3    0.13    0.26
   6   1   3   -0.24    0.22
   1  -6   3    0.05    0.24
  -1   6   3   -0.32    0.23
  -1  -6  -3    0.51    0.21
   6  -1  -3    0.51    0.26
  -6  -1   3    0.26    0.26
   6  -1  -3    0.03    0.26
   1   6  -3   -0.14    0.25
  -6  -1   3   -0.04    0.26
   6   1   3    0.03    0.18
  -1   6   3    0.54    0.26
   1  -6   3    0.22    0.22
  -6   1  -3    0.14    0.26
  -1   6   3    0.13    0.10
   1  -6  -3    0.33    0.26
   1   6   3   -0.08    0.27
  -1  -6   3   -0.34    0.25
   1   6   3   -0.11    0.17
  -6   1   3    0.41    0.22
  -6  -1  -3    0.39    0.21
  -1   6  -3   -0.34    0.25
  -6  -1  -3   -0.26    0.30
   6   1  -3    0.05    0.20
  -1  -6   3    0.47    0.20
  -6   1   3    0.32    0.26
   6   1  -3   -0.01    0.29
   6  -1   3   -0.11    0.23
   6  -1   3    0.07    0.24
  -1   6  -3    0.13    0.21
  -3  -6  -3   25.01    0.80
  -6   3  -3   23.67    0.55
  -6   3  -3   23.53    0.77
   3  -6   3   21.70    0.75
  -3   6   3   22.65    0.72
  -6  -3   3   23.00    0.81
   6   3   3   22.83    0.76
   3   6  -3   22.19    0.77
  -3   6   3   23.32    0.78
  -6  -3   3   23.48    0.80
  -3  -6  -3   23.03    0.55
   6  -3  -3   22.09    0.66
   6  -3  -3   23.19    0.79
   3  -6   3   22.55    0.67
   6   3   3   23.63    0.56
   3   6  -3   23.28    0.79
   3   6   3   23.37    0.84
   3   6   3   22.88    0.71
   6  -3   3   23.01    0.77
  -3  -6   3   22.73    0.82
  -6  -3  -3   22.05    0.71
   6   3  -3   23.02    0.54
  -3   6  -3   23.77    0.64
  -6   3   3   23.32    0.69
   3  -6  -3   23.29    0.79
   6   3  -3   21.70    0.82
  -6   3   3   23.70    0.77
  -6  -3  -3   22.78    0.84
   6  -3   3   23.06    0.71
  -3   6  -3   23.68    0.75
  -3  -6   3   23.57    0.55
   5   6  -3   -0.06    0.33
   5  -6   3    0.40    0.20
  -5   6   3    0.80    0.24
  -6   5  -3    0.87    0.30
  -6  -5   3    0.39    0.31
   6  -5  -3    0.87    0.35
   6   5   3    0.45    0.32
   6  -5  -3    0.66    0.18
  -6   5  -3    0.66    0.18
   6   5   3   -0.05    0.35
  -5   6   3    0.39    0.30
  -5  -6  -3    0.60    0.30
   5   6  -3    1.10    0.34
   5  -6   3    0.55    0.31
   5   6   3    1.01    0.30
   6   5  -3    0.95    0.37
   5   6   3    0.80    0.33
  -5   6  -3    0.22    0.21
  -6   5   3    0.36    0.30
  -5  -6   3    0.57    0.31
  -6  -5  -3    0.50    0.28
   6  -5   3    0.27    0.20
   5  -6  -3    0.94    0.31
  -6   5   3    1.09    0.25
   6   5  -3   -0.03    0.31
   6  -5   3    0.57    0.31
  -5   6  -3    0.70    0.31
  -7   0   3   -0.15    0.24
   0  -7   3   -0.07    0.27
   0  -7   3   -0.16    0.20
   0   7  -3    0.01    0.26
   0   7   3    0.14    0.15
   7   0   3    0.25    0.22
  -7   0  -3   -0.28    0.18
   0   7   3   -0.31    0.25
   7   0  -3    0.43    0.24
   0   7  -3    0.13    0.25
   7   0  -3    0.37    0.29
   7   0   3    0.66    0.29
   0  -7  -3    0.36    0.29
  -7   0  -3    0.31    0.31
  -7   0   3   -0.10    0.28
   0  -7  -3   -0.24    0.23
   2   7  -3   62.31    1.48
   2  -7   3   58.71    1.39
   7   2   3   60.04    1.47
  -7  -2   3   63.57    1.48
   7   2   3   60.77    1.26
  -2   7   3   62.28    1.44
  -7   2  -3   61.12    1.23
  -2   7   3   62.65    1.48
   7  -2  -3   60.67    1.41
  -7   2  -3   61.12    1.51
   7  -2  -3   61.65    1.43
   2  -7   3   60.71    1.40
  -2  -7  -3   61.44    1.49
   2   7  -3   60.48    1.42
  -7  -2   3   60.14    1.48
  -2  -7  -3   60.67    1.27
  -7  -2  -3   61.30    1.53
   7   2  -3   60.91    1.50
  -7  -2  -3   61.27    1.38
  -7   2   3   58.95    1.44
   7  -2   3   60.96    1.40
  -2   7  -3   63.01    1.47
   2   7   3   62.23    1.35
  -2  -7   3   62.62    1.50
  -7   2   3   62.24    1.39
   7  -2   3   60.12    1.42
   2   7   3   62.41    1.52
   7   2  -3   61.30    1.25
   2  -7  -3   61.47    1.43
  -2   7  -3   61.62    1.32
  -2  -7   3   61.28    1.26
  -7   4  -3   -0.36    0.13
  -4  -7  -3    0.18    0.30
  -7  -4   3    0.06    0.32
   4   7  -3    0.25    0.31
   7  -4  -3    0.06    0.20
  -7   4  -3   -0.75    0.27
   7  -4  -3    0.04    0.32
  -4   7   3   -0.14    0.24
   4  -7   3   -0.27    0.28
   7   4   3   -0.35    0.29
  -7  -4   3   -0.03    0.33
   4  -7   3    0.02    0.23
   4   7  -3   -0.50    0.28
  -4   7   3   -0.16    0.29
   7  -4   3    0.07    0.22
   4  -7  -3    0.70    0.33
  -4   7  -3    0.38    0.20
   7   4  -3    0.31    0.33
  -7   4   3    0.17    0.22
  -4   7  -3   -0.01    0.29
  -7  -4  -3    0.33    0.38
  -7  -4  -3   -0.06    0.27
   4   7   3    0.17    0.29
   4   7   3   -0.22    0.24
   7  -4   3   -0.51    0.25
  -4  -7   3    0.36    0.33
  -7   4   3   -0.28    0.26
   6   7  -3   21.90    0.89
  -6   7   3   21.83    0.76
   6  -7   3   22.40    0.88
  -6   7   3   22.43    0.87
   7   6   3   21.42    0.95
   6   7  -3   21.93    0.91
  -6  -7  -3   22.25    0.87
   7  -6  -3   21.57    0.89
  -7  -6   3   21.06    0.92
   7   6   3   22.31    0.88
  -7   6  -3   22.57    0.88
   6  -7   3   21.84    0.70
   7   6  -3   21.32    0.88
   7  -6   3   21.46    0.70
   7  -6   3   21.46    0.84
  -7   6   3   22.18    0.74
  -7  -6  -3   21.64    0.85
  -6  -7   3   20.47    0.91
  -6   7  -3   21.36    0.83
   6   7   3   20.93    0.95
  -6   7  -3   22.28    0.70
   7   6  -3   22.97    0.92
  -7   6   3   22.04    0.87
   6   7   3   21.71    0.84
  -1   8   3    2.06    0.37
  -1  -8  -3    2.16    0.28
   1   8  -3    2.05    0.38
   8   1   3    2.79    0.35
   8  -1  -3    2.40    0.33
  -8   1  -3    1.90    0.39
  -1  -8  -3    2.05    0.34
   1   8  -3    2.59    0.34
  -8  -1   3    1.58    0.36
   8  -1  -3    2.07    0.33
   8   1   3    2.49    0.38
   1  -8   3    1.81    0.34
  -8  -1   3    2.12    0.33
  -8   1  -3    2.75    0.30
   1  -8   3    2.38    0.32
   1   8   3    2.25    0.38
   8  -1   3    1.90    0.31
   8   1  -3    2.50    0.35
  -1   8  -3    1.95    0.29
  -8   1   3    1.42    0.29
  -8   1   3    2.68    0.38
  -8  -1  -3    3.05    0.40
  -1   8  -3    3.28    0.45
  -8  -1  -3    1.54    0.38
   8   1  -3    2.75    0.41
   1   8   3    2.56    0.32
   1  -8  -3    2.19    0.32
  -1  -8   3    2.48    0.38
   1  -8  -3    1.63    0.34
   8  -1   3    2.08    0.33
  -1  -8   3    2.53    0.35
  -8  -3   3    0.61    0.35
   3   8  -3    0.24    0.30
  -3   8   3    0.02    0.32
  -3  -8  -3    0.10    0.18
  -8  -3   3    0.34    0.33
   8  -3  -3    0.34    0.26
   8  -3  -3    0.22    0.31
   8   3   3   -0.02    0.30
   3  -8   3    0.36    0.30
   3   8  -3    0.00    0.31
   3  -8   3    1.01    0.28
  -3  -8  -3    0.12    0.31
  -8   3  -3   -0.08    0.30
  -3   8   3    0.30    0.29
  -3  -8   3    0.10    0.33
   8  -3   3    0.58    0.28
  -8   3   3    0.21    0.31
  -8   3   3    0.46    0.24
   8   3  -3    0.18    0.31
  -8  -3  -3   -0.05    0.27
   3  -8  -3    0.64    0.33
  -3   8  -3   -0.20    0.28
   3   8   3    0.13    0.25
  -8  -3  -3    0.18    0.37
   3   8   3   -0.04    0.34
  -3   8  -3    0.28    0.21
   8  -3   3    0.57    0.29
   5   8  -3    5.08    0.61
  -5   8   3    4.17    0.48
  -5  -8  -3    5.11    0.53
   8  -5  -3    4.68    0.42
   8   5   3    4.53    0.53
  -8  -5   3    5.34    0.62
   5   8  -3    4.79    0.58
   5  -8   3    4.25    0.48
   5  -8   3    5.20    0.47
  -5   8   3    5.23    0.48
   8  -5  -3    4.89    0.55
  -8  -5   3    4.27    0.60
  -8   5   3    4.95    0.56
  -5   8  -3    3.99    0.52
  -8  -5  -3    4.61    0.56
   5   8   3    5.79    0.67
   8   5  -3    5.00    0.63
  -5  -8   3    6.08    0.65
   5   8   3    4.75    0.55
   8  -5   3    5.84    0.47
  -8   5   3    5.97    0.46
  -8  -5  -3    4.41    0.55
   8  -5   3    3.24    0.42
   5  -8  -3    4.99    0.54
   8  -7  -3    0.63    0.44
   7  -8   3   -0.10    0.37
   7   8  -3    0.14    0.41
  -8  -7   3    0.06    0.44
  -8   7  -3   -0.47    0.31
   8   7   3    0.18    0.37
  -7   8   3   -0.47    0.32
  -7   8   3   -0.34    0.27
  -7  -8  -3   -0.48    0.36
   8   7   3    0.01    0.42
   7   8  -3   -0.09    0.39
   8   7  -3   -0.07    0.38
  -8   7   3    0.11    0.27
   8   7  -3   -0.67    0.38
   7   8   3   -0.17    0.44
  -7   8  -3   -1.00    0.36
  -8  -7  -3   -0.56    0.38
   8  -7   3   -0.53    0.37
   7  -8  -3   -0.04    0.37
   7   8   3    0.22    0.37
  -7  -8   3   -0.27    0.41
  -8   7   3   -0.07    0.38
   0  -9   3    0.30    0.32
   0  -9  -3   -0.30    0.25
   9   0   3    0.83    0.34
  -9   0   3   -0.32    0.28
   9   0  -3    0.26    0.32
   0  -9   3    0.07    0.25
   0   9  -3   -0.15    0.30
   0  -9  -3    0.43    0.34
  -9   0  -3    0.08    0.22
  -9   0   3    0.53    0.33
  -9   0  -3   -0.64    0.34
   9   0   3    0.12    0.25
   0   9   3   -0.43    0.29
   9   0  -3   -0.21    0.26
   0   9  -3   -0.03    0.27
  -2  -9  -3    8.06    0.45
  -9   2  -3    7.77    0.63
  -2  -9  -3    7.72    0.63
   9   2   3    8.12    0.64
   9  -2  -3    8.91    0.61
   2  -9   3    8.11    0.59
  -9  -2   3    8.91    0.70
   2  -9   3    8.80    0.56
   2   9  -3    8.68    0.66
   9  -2  -3    7.45    0.58
  -9  -2   3    7.41    0.62
   2   9  -3    8.03    0.57
  -2   9   3    6.81    0.63
   2   9   3    8.83    0.49
   9   2  -3    6.96    0.65
  -9   2   3    8.69    0.66
   9  -2   3    7.92    0.58
  -9  -2  -3    8.43    0.72
   2  -9  -3    8.62    0.62
  -2  -9   3    8.22    0.65
  -2  -9   3    9.14    0.46
   2   9   3    8.16    0.63
   9  -2   3    8.48    0.57
  -9   2   3    8.44    0.53
  -9  -2  -3    7.62    0.53
  -2   9  -3    9.09    0.65
   2  -9  -3    7.13    0.56
  -4  -9  -3    3.58    0.48
  -4   9   3    1.71    0.36
   9  -4  -3    2.01    0.42
   4  -9   3    2.23    0.36
   4  -9   3    2.28    0.39
   4   9  -3    2.72    0.46
  -4   9   3    1.94    0.42
   4   9  -3    1.27    0.39
   9  -4  -3    2.92    0.36
  -9  -4   3    2.20    0.43
   9   4   3    2.08    0.46
  -9   4  -3    2.05    0.44
  -9  -4   3    2.27    0.45
  -4  -9   3    1.91    0.45
   9  -4   3    2.35    0.35
  -4   9  -3    1.70    0.41
  -9  -4  -3    1.92    0.38
  -9  -4  -3    1.86    0.48
  -9   4   3    1.94    0.40
   9   4  -3    1.84    0.46
   4   9   3    1.92    0.36
   9  -4   3    2.41    0.43
   4   9   3    0.82    0.40
  -9   4   3    2.62    0.33
   4  -9  -3    1.58    0.42
  -9  -6   3   12.98    0.89
  -6  -9  -3   12.55    0.83
  -9   6  -3   14.42    0.83
   9  -6  -3   14.09    0.85
   9   6   3   13.61    0.84
  -6   9   3   13.51    0.83
  -6   9   3   12.84    0.70
   6   9  -3   14.50    0.85
   6  -9   3   11.68    0.79
   6   9  -3   12.48    0.79
  -9  -6   3   12.50    0.86
   9  -6   3   12.56    0.76
  -9  -6  -3   14.19    0.94
   9   6  -3   13.95    0.86
   6  -9  -3   13.91    0.85
  -6  -9   3   15.15    0.90
   9  -6   3   13.52    0.63
  -6   9  -3   13.61    0.83
  -9   6   3   14.00    0.65
   6   9   3   13.49    0.74
  -9   6   3   15.25    0.84
  -9  -6  -3   13.35    0.77
   6   9   3   13.17    0.82
  -9  -8   3    5.02    0.64
  -8   9   3    4.27    0.59
   8   9  -3    4.86    0.60
  -8  -9  -3    4.03    0.57
   8   9  -3    4.37    0.59
   8  -9   3    4.11    0.57
   9  -8  -3    3.17    0.55
   9   8   3    3.45    0.55
  -9   8  -3    3.44    0.56
   9   8   3    4.46    0.65
  -9  -8  -3    5.20    0.73
  -9   8   3    4.13    0.59
   8   9   3    3.06    0.57
   8   9   3    3.31    0.54
  -8  -9   3    4.15    0.60
   9   8  -3    3.12    0.56
   9  -8   3    3.23    0.55
   8  -9  -3    5.33    0.66
  -8   9  -3    4.58    0.59
   9   8  -3    4.18    0.57
  10  -1  -3    0.29    0.31
 -10  -1   3    0.89    0.39
 -10  -1   3    1.26    0.36
 -10   1  -3    0.87    0.41
  10   1   3    0.69    0.37
   1  10  -3    1.20    0.42
  -1 -10  -3    0.91    0.41
  10  -1  -3    0.57    0.38
   1 -10   3    0.77    0.38
  -1  10   3    1.10    0.39
   1 -10   3    0.46    0.32
  -1 -10  -3    1.07    0.30
 -10   1   3    1.41    0.42
  -1 -10   3    0.55    0.28
   1 -10  -3    0.34    0.35
   1 -10  -3    1.50    0.36
  10  -1   3    1.27    0.38
 -10  -1  -3    0.98    0.44
  10  -1   3    1.10    0.32
  10   1  -3    1.16    0.43
   1  10   3    0.39    0.41
  -1 -10   3    0.53    0.36
 -10   1   3    0.75    0.32
  -1  10  -3    0.68    0.37
  10  -3  -3    0.26    0.32
  -3  10   3    0.19    0.39
  10   3   3   -0.32    0.37
   3 -10   3   -0.41    0.30
  10  -3  -3   -0.64    0.34
 -10   3  -3   -0.06    0.39
   3  10  -3   -0.21    0.33
 -10  -3   3   -0.08    0.40
   3  10  -3    0.11    0.38
 -10  -3   3    0.25    0.36
  -3 -10  -3   -0.18    0.39
   3 -10   3    0.32    0.34
  10  -3   3    0.12    0.35
  -3 -10   3   -0.30    0.37
 -10   3   3    0.08    0.37
   3 -10  -3    0.72    0.39
  -3  10  -3   -0.12    0.34
  10   3  -3   -0.21    0.40
   3  10   3   -0.03    0.41
 -10  -3  -3   -0.11    0.33
   3 -10  -3    0.07    0.35
 -10  -3  -3    0.21    0.44
 -10   3   3    0.12    0.29
  10  -3   3    0.26    0.32
  10   5   3    9.75    0.79
   5 -10   3    9.35    0.63
 -10   5  -3    9.65    0.80
   5  10  -3    9.56    0.73
   5  10  -3    8.78    0.77
   5 -10   3   10.15    0.74
  10  -5  -3    8.65    0.76
  -5 -10  -3   10.08    0.79
 -10  -5   3    9.85    0.79
 -10  -5   3   11.83    0.80
  -5  10   3    8.85    0.78
 -10  -5  -3    9.64    0.89
  10  -5   3    9.61    0.74
   5 -10  -3    8.65    0.75
  -5  10  -3    9.05    0.69
   5  10   3    9.55    0.67
 -10   5   3    9.42    0.75
   5  10   3   10.11    0.79
  -5 -10   3    9.85    0.81
  10  -5   3   10.40    0.64
   5 -10  -3    9.39    0.68
 -10  -5  -3   10.28    0.70
  10   5  -3    8.36    0.79
   7  10  -3   14.67    0.94
  10  -7  -3   17.08    0.98
  -7  10   3   15.02    0.92
 -10  -7   3   13.88    0.93
   7 -10   3   18.14    0.97
 -10  -7   3   15.68    0.97
  10   7   3   15.29    0.92
   7  10  -3   15.33    0.95
  -7 -10  -3   15.36    0.94
 -10   7  -3   13.95    0.94
  -7  10   3   15.98    0.80
  10   7  -3   15.57    0.98
 -10   7   3   15.31    0.94
 -10  -7  -3   15.50    1.03
   7  10   3   14.21    0.99
  -7 -10   3   16.32    1.01
 -10  -7  -3   15.70    0.89
  10  -7   3   15.96    0.94
  -7  10  -3   16.30    0.90
   7  10   3   15.48    0.86
   7 -10  -3   14.92    0.95
  -9  10   3    1.20    0.52
   9  10  -3    1.80    0.56
 -10  -9   3    1.18    0.53
   9  10  -3    1.68    0.53
  10  -9  -3    1.31    0.55
  10   9   3    1.00    0.55
   9 -10   3    0.92    0.54
  -9 -10  -3    2.07    0.59
 -10   9  -3    0.77    0.54
  10   9   3    0.30    0.52
  10   9  -3    0.38    0.48
  10   9  -3    0.45    0.53
 -10   9   3    0.74    0.52
   9 -10  -3    1.24    0.56
  -9 -10   3    0.32    0.55
   9  10   3    1.11    0.58
  10  -9   3    0.97    0.55
   9  10   3    1.29    0.53
 -10  -9  -3    1.58    0.54
  -9  10  -3    1.94    0.58
   0 -11  -3   -0.21    0.30
  11   0  -3   -0.41    0.39
   0 -11   3   -0.10    0.30
  11   0   3    0.17    0.41
   0 -11  -3   -0.45    0.39
 -11   0  -3    0.33    0.43
   0  11   3    0.66    0.42
   0 -11   3    0.50    0.39
   0  11  -3    0.32    0.40
 -11   0   3   -0.53    0.38
 -11   0   3    0.16    0.36
 -11  -2   3   48.37    1.40
  11  -2  -3   46.96    1.37
 -11  -2   3   47.48    1.46
  11  -2  -3   49.13    1.35
  11   2   3   45.16    1.41
 -11   2  -3   45.88    1.49
  -2  11   3   47.38    1.46
  -2 -11  -3   47.00    1.46
   2  11  -3   48.44    1.49
   2 -11   3   46.63    1.40
   2 -11   3   48.51    1.34
   2  11   3   45.44    1.49
 -11   2   3   48.66    1.45
  -2 -11   3   47.19    1.46
  11  -2   3   46.83    1.33
 -11  -2  -3   46.33    1.52
   2 -11  -3   45.82    1.34
  -2  11  -3   47.42    1.44
  11   2  -3   47.72    1.47
  11  -2   3   49.50    1.42
   2 -11  -3   47.35    1.42
   4 -11   3    0.36    0.41
   4  11  -3   -0.14    0.37
  11  -4  -3    0.14    0.35
 -11  -4   3    0.43    0.46
   4  11  -3    0.55    0.45
  11   4   3   -0.11    0.40
  -4 -11  -3   -0.17    0.41
   4 -11   3    0.11    0.35
  -4  11   3   -0.03    0.43
 -11   4  -3   -0.31    0.41
 -11  -4   3   -0.62    0.37
  11  -4  -3   -0.28    0.41
  -4  11  -3    0.55    0.45
 -11  -4  -3    0.28    0.49
  11   4  -3    0.17    0.43
   4 -11  -3    0.22    0.39
   4  11   3   -0.45    0.43
   4 -11  -3    0.39    0.41
  11  -4   3   -0.35    0.38
  11  -4   3   -0.05    0.34
  -4 -11   3   -0.70    0.41
 -11   4   3   -0.16    0.41
  11  -6  -3   37.11    1.34
 -11   6  -3   37.68    1.39
  11   6   3   36.12    1.38
  -6 -11  -3   35.96    1.37
   6  11  -3   37.97    1.30
   6  11  -3   36.61    1.40
   6 -11   3   39.12    1.34
  -6  11   3   37.24    1.36
 -11  -6   3   38.76    1.37
 -11  -6   3   38.30    1.39
  -6 -11   3   37.83    1.42
   6 -11  -3   37.05    1.35
  11  -6   3   39.96    1.36
   6 -11  -3   41.07    1.29
   6  11   3   36.79    1.44
 -11  -6  -3   38.31    1.47
 -11   6   3   36.59    1.35
 -11  -6  -3   37.85    1.29
  11   6  -3   39.13    1.42
  -6  11  -3   37.36    1.36
  11   8   3    0.34    0.51
   8  11  -3   -0.20    0.49
   8 -11   3    0.50    0.50
  -8 -11  -3    0.92    0.52
  -8  11   3    0.88    0.54
 -11   8  -3    0.03    0.52
 -11  -8   3    0.25    0.50
   8  11  -3   -0.07    0.44
 -11  -8   3   -0.38    0.48
  11  -8  -3   -0.42    0.51
  -8  11  -3    0.11    0.51
   8 -11  -3    0.44    0.54
  11   8  -3    0.08    0.52
  11  -8   3    0.63    0.51
 -11  -8  -3    0.55    0.59
 -11  -8  -3   -0.92    0.46
  -8 -11   3   -0.21    0.53
   8  11   3    0.12    0.46
 -11   8   3    0.08    0.48
   8  11   3    0.40    0.53
  10  11  -3    6.44    0.92
  10  11  -3    6.96    0.98
 -10 -11  -3    8.19    0.99
  11  10   3    8.74    0.98
  11 -10  -3    7.58    1.00
 -10  11   3    9.28    1.06
 -11 -10   3    7.57    1.06
 -11  10  -3    9.03    1.00
  10 -11   3    9.53    0.98
 -11 -10   3    8.14    1.02
  11  10  -3    8.16    0.98
  10  11   3    8.01    0.89
  11 -10   3    8.08    0.97
 -11  10   3    8.44    1.00
 -10  11  -3    8.45    1.01
  10  11   3    8.10    1.00
 -11 -10  -3    7.42    0.95
 -10 -11   3    8.71    1.11
 -11 -10  -3    8.76    1.07
  10 -11  -3    7.85    0.90
  -1 -12  -3    3.26    0.56
  12  -1  -3    2.99    0.52
   1 -12   3    2.54    0.44
  -1  12   3    3.28    0.56
  12   1   3    1.93    0.48
   1 -12   3    2.66    0.51
   1  12  -3    1.69    0.50
 -12   1  -3    2.07    0.55
 -12  -1   3    3.17    0.55
 -12   1   3    2.87    0.53
  12  -1   3    2.24    0.50
  12   1  -3    1.99    0.49
   1  12   3    2.71    0.58
  -1  12  -3    2.19    0.50
   1 -12  -3    2.05    0.44
   1 -12  -3    1.90    0.51
 -12  -1  -3    2.53    0.59
  -1 -12   3    3.30    0.56
 -12  -3   3   -0.61    0.37
  -3 -12  -3    0.04    0.46
  12   3   3    0.22    0.44
 -12   3  -3    0.29    0.46
   3 -12   3    1.27    0.44
  -3  12   3    0.95    0.49
   3 -12   3    0.63    0.42
   3  12  -3    0.84    0.49
  12  -3  -3    0.15    0.40
  12  -3  -3    0.47    0.44
 -12  -3   3    0.53    0.48
  -3 -12   3   -0.74    0.43
  12   3  -3    0.50    0.50
   3  12   3    1.28    0.53
  12  -3   3    0.96    0.43
  12  -3   3    0.39    0.41
   3 -12  -3    0.34    0.43
 -12  -3  -3   -0.16    0.49
  -3  12  -3    0.30    0.47
 -12   3   3    0.63    0.44
   3 -12  -3    0.69    0.45
 -12  -5   3    5.39    0.64
  -5  12   3    4.78    0.66
 -12   5  -3    4.82    0.65
   5 -12   3    4.61    0.60
  12   5   3    4.12    0.59
 -12  -5   3    4.71    0.65
  12  -5  -3    4.14    0.59
   5  12  -3    3.81    0.61
  -5 -12  -3    4.45    0.63
  12  -5   3    4.32    0.59
  -5 -12   3    4.27    0.63
  -5  12  -3    4.70    0.65
   5  12   3    3.98    0.65
   5 -12  -3    4.54    0.58
   5 -12  -3    4.90    0.63
  12   5  -3    4.53    0.65
 -12   5   3    5.57    0.80
 -12  -5  -3    4.27    0.68
  12  -7  -3   -0.10    0.48
  12   7   3   -0.23    0.48
 -12  -7   3   -0.37    0.48
 -12  -7   3   -0.21    0.50
   7 -12   3   -0.36    0.49
   7  12  -3    1.01    0.55
  -7  12   3   -0.10    0.52
  -7 -12  -3   -0.07    0.50
   7  12  -3    0.79    0.48
 -12   7  -3    0.13    0.52
   7 -12  -3   -0.11    0.51
  12   7  -3   -0.50    0.53
 -12   7   3   -0.51    0.46
 -12  -7  -3   -0.08    0.60
  -7  12  -3    0.02    0.51
  -7 -12   3   -0.10    0.54
   7  12   3   -0.89    0.52
  12  -7   3    0.31    0.52
   9  12  -3    8.19    0.96
 -12   9  -3    6.68    0.83
   9  12  -3    6.76    0.94
 -12  -9   3    5.33    0.77
  -9 -12  -3    5.99    0.80
   9 -12   3    6.32    0.79
  12  -9  -3    7.29    0.85
  12   9   3    8.38    0.94
 -12  -9   3    7.20    0.95
  -9  12   3    5.68    0.79
  12  -9   3    7.29    0.95
 -12  -9  -3    7.94    1.04
  -9  12  -3    6.95    0.96
   9  12   3    6.68    0.86
 -12   9   3    5.88    0.78
  12   9  -3    6.42    0.91
 -12  -9  -3    6.33    0.90
   9 -12  -3    7.50    0.99
  -9 -12   3    6.02    0.81
 -11 -12  -3   -0.31    0.59
 -12 -11   3    0.02    0.64
  12  11   3   -0.45    0.54
 -12 -11   3    0.85    0.63
  11  12  -3   -0.60    0.57
  11  12  -3    0.26    0.61
 -12 -11  -3   -0.76    0.57
  11  12   3    0.44    0.55
  12  11  -3    0.39    0.60
   0  13   3    0.18    0.50
 -13   0  -3    0.12    0.53
   0 -13   3    0.30    0.46
  13   0  -3    0.23    0.48
   0 -13  -3    0.14    0.46
   0  13  -3    0.33    0.48
  13   0   3    0.42    0.48
 -13   0   3   -0.59    0.46
 -13   2  -3   13.82    1.02
   2 -13   3   10.18    0.79
  13  -2  -3   11.00    0.83
   2 -13   3   11.31    0.88
  -2  13   3   12.58    0.97
  13   2   3   10.95    0.93
   2  13  -3   10.80    0.96
 -13  -2   3   13.56    1.02
  -2 -13  -3   11.40    0.96
   2 -13  -3   10.35    0.87
 -13   2   3   12.18    0.92
  -2 -13   3   10.71    0.91
   2 -13  -3   11.37    0.79
 -13  -2  -3   11.63    1.01
  13  -2   3    9.92    0.83
   2  13   3   10.57    0.96
  -2  13  -3   11.66    0.91
  13   2  -3    9.70    0.93
  13   4   3    1.38    0.56
   4 -13   3    1.03    0.47
  -4  13   3    0.76    0.52
 -13  -4   3    1.36    0.57
   4  13  -3    1.51    0.58
 -13  -4   3    1.30    0.55
  -4 -13  -3    0.54    0.50
 -13   4  -3    1.37    0.59
  13  -4  -3    0.82    0.49
  13   4  -3    1.87    0.59
   4 -13  -3    1.53    0.51
 -13   4   3    0.23    0.51
  -4  13  -3    0.37    0.51
 -13  -4  -3    0.17    0.59
  13  -4   3    1.72    0.51
  -4 -13   3    0.14    0.49
   4  13   3    1.80    0.60
  13  -4   3    0.87    0.45
   4 -13  -3    0.78    0.47
   6  13  -3    2.80    0.67
 -13   6  -3    3.94    0.65
  -6 -13  -3    3.53    0.66
 -13  -6   3    3.26    0.61
  13  -6  -3    2.80    0.62
  13   6   3    3.96    0.64
 -13  -6   3    5.05    0.70
   6 -13   3    4.88    0.66
  -6  13   3    3.78    0.70
 -13  -6  -3    4.70    0.73
  -6 -13   3    2.58    0.65
   6 -13  -3    3.99    0.66
  13  -6   3    3.98    0.65
 -13   6   3    3.29    0.64
   6  13   3    3.77    0.68
  -6  13  -3    2.68    0.65
  13   6  -3    2.90    0.62
  -8  13   3    2.98    0.71
  -8 -13  -3    4.38    0.74
 -13  -8   3    4.02    0.71
 -13  -8   3    4.49    0.71
 -13   8  -3    4.78    0.76
  13  -8  -3    3.38    0.69
  13   8   3    4.36    0.69
   8 -13   3    3.87    0.69
   8  13  -3    4.55    0.74
 -13  -8  -3    3.51    0.76
   8  13   3    4.41    0.76
  -8 -13   3    3.60    0.70
   8 -13  -3    2.91    0.70
  -8  13  -3    3.52    0.70
  13  -8   3    4.17    0.71
 -13   8   3    4.36    0.74
  13   8  -3    3.09    0.70
 -13 -10   3    8.82    1.06
 -13 -10   3    8.15    0.94
  10  13  -3    7.77    1.00
  -1  14   3    6.45    0.90
 -14   1  -3    7.02    0.99
 -14  -1   3    7.58    0.94
   1  14  -3    5.80    0.77
  14  -1  -3    5.34    0.78
  -1 -14  -3    5.83    0.75
   1 -14   3    6.65    0.82
  14   1   3    5.35    0.71
  14  -1   3    6.50    0.84
   1  14   3    6.03    0.79
   1 -14  -3    5.85    0.70
  14   1  -3    5.82    0.73
  -1  14  -3    7.51    0.90
  -1 -14   3    6.48    0.85
 -14  -1  -3    6.15    0.79
 -14   1   3    7.10    0.89
   3 -14   3    1.34    0.51
  -3  14   3    1.24    0.52
  14   3   3    1.22    0.59
 -14  -3   3    0.18    0.54
 -14   3  -3    0.77    0.58
   3 -14   3    1.38    0.50
  -3 -14  -3    1.87    0.61
   3  14  -3    0.77    0.56
   3  14   3    0.96    0.57
  14  -3   3    2.14    0.53
   3 -14  -3    1.42    0.52
 -14   3   3    1.26    0.56
   3 -14  -3    2.13    0.57
 -14  -3  -3    1.18    0.63
  14   3  -3    1.21    0.63
  -3  14  -3    0.90    0.53
  -3 -14   3    1.87    0.59
   5 -14   3   -0.59    0.47
  -5  14   3    0.22    0.53
  14  -5  -3    0.42    0.52
 -14   5  -3    0.97    0.58
  14   5   3    0.18    0.56
  -5 -14  -3    0.04    0.55
   5  14  -3   -0.07    0.53
 -14  -5   3   -0.05    0.54
  14  -5   3    0.15    0.50
   5 -14  -3   -0.11    0.52
 -14   5   3    0.52    0.56
   5 -14  -3    0.90    0.51
  14   5  -3    0.20    0.53
  -5 -14   3    0.32    0.56
 -14  -5  -3    0.19    0.61
   5  14   3    0.26    0.61
  -5  14  -3    0.69    0.56
  14   7   3   -0.25    0.53
 -14   7  -3    1.03    0.65
 -14  -7   3   -0.22    0.53
  -7 -14  -3    1.12    0.64
   7 -14   3    0.39    0.57
  -7  14   3   -0.42    0.57
  14  -7  -3    0.82    0.57
   7  14  -3    0.14    0.58
  14  -7   3    0.58    0.55
 -14   7   3   -0.17    0.56
  -7  14  -3   -0.13    0.58
 -14  -7  -3   -0.06    0.62
   7 -14  -3   -0.92    0.51
  -7 -14   3   -1.15    0.52
  14   7  -3    1.17    0.64
   7  14   3   -0.27    0.58
 -14  -9   3    8.84    1.04
 -14  -9   3    9.28    1.05
   0 -15  -3    0.55    0.56
  15   0  -3   -0.56    0.50
 -15   0  -3    0.14    0.59
   0 -15   3    0.12    0.55
  15   0   3   -0.40    0.51
 -15   0   3    1.27    0.58
   0  15  -3    0.07    0.54
   0  15   3   -1.10    0.48
   2  15  -3   32.97    1.48
 -15   2  -3   33.98    1.54
  15   2   3   36.23    1.51
  15  -2  -3   32.66    1.39
  -2 -15  -3   35.26    1.49
 -15  -2   3   34.68    1.46
  -2  15   3   35.69    1.51
   2 -15   3   37.70    1.45
  -2  15  -3   33.56    1.48
  -2 -15   3   33.22    1.44
 -15  -2  -3   34.03    1.58
 -15   2   3   36.34    1.49
  15  -2   3   34.92    1.42
   2  15   3   34.03    1.53
   2 -15  -3   33.84    1.43
  15   2  -3   33.47    1.52
  -4  15   3    0.23    0.57
   4 -15   3   -0.02    0.50
 -15  -4   3    0.27    0.56
   4  15  -3   -0.67    0.56
 -15   4  -3    0.04    0.62
  15   4   3   -0.71    0.57
  -4 -15  -3    0.99    0.64
  15   4  -3    1.34    0.67
   4 -15  -3   -0.02    0.53
 -15  -4  -3    0.36    0.63
  -4  15  -3   -0.78    0.50
   4 -15  -3   -0.18    0.50
   4  15   3    0.49    0.63
  -4 -15   3    0.41    0.58
 -15   4   3    0.41    0.59
   6 -15   3   20.25    1.18
 -15  -6   3   21.31    1.33
   6  15  -3   19.26    1.30
  15  -6  -3   19.76    1.21
 -15   6   3   19.06    1.26
   6 -15  -3   19.74    1.21
 -15  -6  -3   18.26    1.34
  15  -6   3   17.83    1.17
 -16  -1   3    1.81    0.66
   1  16  -3    1.87    0.65
  -1 -16  -3    1.88    0.66
 -16   1  -3    2.10    0.70
  16   1   3    2.04    0.68
   1 -16   3    2.45    0.64
  16  -1  -3    1.26    0.62
  -1  16  -3    1.69    0.66
 -16   1   3    2.25    0.68
 -16  -1  -3    1.78    0.69
  16   1  -3    1.43    0.64
   1 -16  -3    1.19    0.64
  -1 -16   3    1.57    0.65
  16  -1   3    1.12    0.62
   3  16  -3   -1.26    0.62
 -16  -3   3   -0.23    0.58
   3 -16  -3    0.70    0.58
 -16   3   3    0.43    0.63
   5 -16   3    4.01    0.76
   5 -16  -3    4.95    0.78
   0   0   4    0.10    0.16
   0   0  -4   -0.20    0.15
   0   0   4    0.16    0.14
   0   0  -4   -0.02    0.10
   1   1   4   -0.24    0.16
   1  -1   4   -0.31    0.11
   1  -1  -4    0.16    0.23
  -1  -1   4    0.05    0.19
  -1   1  -4   -0.10    0.15
   1   1   4   -0.02    0.14
  -1   1   4    0.10    0.17
   1  -1  -4   -0.21    0.14
  -1   1   4    0.03    0.12
   1   1  -4    0.05    0.10
  -1   1  -4    0.02    0.18
   1   1   4    0.12    0.19
  -1  -1   4    0.23    0.18
   1  -1   4    0.05    0.18
   1   1  -4    0.18    0.19
   1   1   4    0.02    0.18
   0   2  -4   -0.52    0.22
   2   0   4   -0.65    0.11
   0  -2   4   -0.50    0.20
   0  -2   4   -0.80    0.21
  -2   0  -4   -0.75    0.21
   2   0   4   -1.04    0.20
  -2   0   4   -0.87    0.22
   0   2  -4   -0.42    0.17
   0   2   4   -0.33    0.20
   2   0   4   -0.92    0.21
   2   0  -4   -0.26    0.24
   2   0  -4   -0.67    0.23
   0   2   4   -0.48    0.14
   0   2   4   -0.60    0.19
  -2   0   4   -0.38    0.15
   0  -2  -4   -0.77    0.22
   2  -2  -4  172.60    3.12
   2   2   4  170.17    3.05
   2  -2   4  170.01    3.17
  -2   2   4  169.43    3.11
  -2  -2  -4  165.99    3.15
   2  -2   4  170.91    3.09
   2   2  -4  163.40    3.22
  -2  -2   4  169.41    3.03
   2  -2   4  172.76    3.07
   2   2   4  164.61    3.19
   2   2  -4  169.12    3.10
  -2  -2   4  172.47    3.22
   2  -2  -4  169.65    3.10
   2   2   4  170.72    3.17
  -2   2  -4  163.81    3.13
  -2   2   4  170.90    3.18
   1  -3   4    0.29    0.19
  -3   1  -4    0.48    0.24
   3   1   4    0.00    0.18
   1   3  -4    0.51    0.20
   3   1   4    0.13    0.22
   1  -3   4    0.33    0.23
  -3  -1   4    0.37    0.26
  -1  -3  -4    0.08    0.19
  -1   3   4    0.47    0.22
   3  -1  -4    0.12    0.21
  -1   3   4    0.11    0.21
   1   3  -4   -0.03    0.25
  -3  -1   4    0.10    0.21
   3  -1  -4    0.44    0.26
  -3  -1  -4    0.55    0.16
   3  -1   4    0.50    0.23
  -1  -3   4    0.25    0.25
   3   1  -4    0.49    0.22
  -1   3  -4    0.22    0.20
   1   3   4    0.27    0.22
  -1  -3   4    0.43    0.18
   1   3   4    0.40    0.18
  -1   3  -4   -0.12    0.21
   1  -3  -4    0.27    0.26
   1  -3  -4    0.45    0.10
   1   3   4    0.09    0.23
  -3   1   4    0.40    0.19
  -3   1   4    0.17    0.21
   3   1  -4    0.26    0.27
   3  -1   4    0.31    0.24
  -3  -1  -4    0.16    0.25
   3  -3   4    0.30    0.26
   3  -3  -4   -0.19    0.13
   3   3   4    0.01    0.23
   3  -3   4    0.21    0.14
   3   3  -4    0.23    0.23
   3  -3  -4    0.55    0.28
  -3  -3   4   -0.01    0.29
  -3  -3  -4   -0.09    0.20
  -3   3  -4    0.08    0.23
   3  -3   4   -0.09    0.19
   3   3   4    0.07    0.27
   3   3   4   -0.05    0.17
  -3   3   4   -0.13    0.21
  -3  -3   4    0.24    0.16
   3   3  -4    0.34    0.30
  -3   3   4    0.00    0.21
  -4   0  -4   -0.28    0.13
   0  -4  -4    0.07    0.22
  -4   0   4   -0.33    0.22
  -4   0  -4    0.24    0.29
   4   0   4    0.20    0.20
   0   4  -4    0.11    0.22
   0  -4   4   -0.08    0.22
  -4   0   4    0.03    0.21
   0  -4   4    0.00    0.20
   0   4   4   -0.16    0.24
   4   0  -4   -0.33    0.22
   0   4   4    0.00    0.13
   4   0  -4    0.32    0.22
   0   4  -4   -0.06    0.21
   0   4   4   -0.01    0.23
   4   0   4    0.12    0.22
   2   4  -4    0.02    0.24
  -2   4   4   -0.20    0.23
  -2  -4  -4   -0.37    0.25
   2  -4   4   -0.28    0.19
  -2   4   4    0.09    0.24
  -4   2  -4    0.28    0.28
   4   2   4   -0.26    0.27
  -4  -2   4   -0.05    0.29
  -4  -2   4   -0.06    0.26
   4   2   4    0.06    0.25
   2   4  -4    0.19    0.28
   4   2   4   -0.45    0.17
   4  -2  -4   -0.33    0.20
   4  -2  -4    0.01    0.28
   2  -4   4   -0.40    0.25
  -2  -4  -4   -0.15    0.18
   2  -4  -4    0.13    0.25
  -2   4  -4    0.19    0.23
   4  -2   4   -0.24    0.21
  -2   4  -4   -0.41    0.21
  -4   2   4    0.03    0.23
   4   2  -4   -0.66    0.25
  -4  -2  -4   -0.40    0.19
   4   2  -4   -0.22    0.18
   4  -2   4    0.22    0.25
  -4  -2  -4    0.01    0.30
   2   4   4   -0.11    0.21
  -4   2   4   -0.20    0.23
  -2  -4   4    0.02    0.17
   2   4   4   -0.15    0.29
  -2  -4   4   -0.17    0.27
  -4   4  -4    0.04    0.25
   4  -4   4   -0.06    0.23
   4  -4  -4   -0.16    0.28
   4   4   4    0.19    0.32
   4  -4   4    0.41    0.20
  -4  -4   4   -0.17    0.28
  -4   4   4    0.01    0.23
  -4   4   4   -0.09    0.22
   4   4  -4   -0.20    0.31
   4   4  -4    0.10    0.24
   4  -4  -4   -0.05    0.12
   4   4   4    0.39    0.26
  -4  -4  -4    0.46    0.24
   4  -4   4    0.00    0.15
  -4  -4   4   -0.29    0.13
   1  -5   4   -0.02    0.22
  -1  -5  -4    0.01    0.19
   1  -5   4    0.14    0.22
  -5   1  -4    0.03    0.25
  -5  -1   4    0.17    0.24
  -1  -5  -4   -0.13    0.25
   5  -1  -4    0.06    0.24
   1   5  -4   -0.48    0.23
  -1   5   4    0.31    0.25
   5   1   4    0.42    0.23
  -1   5   4    0.35    0.25
   5  -1  -4   -0.26    0.24
   1   5  -4    0.32    0.27
   5   1   4    0.41    0.20
  -5   1  -4    0.26    0.11
  -5  -1   4   -0.19    0.25
   1   5   4    0.40    0.29
   5   1  -4    0.40    0.28
  -5  -1  -4   -0.24    0.29
  -5   1   4    0.25    0.23
  -1   5  -4    0.17    0.21
   5  -1   4    0.28    0.24
  -5  -1  -4    0.02    0.17
   1  -5  -4    0.34    0.23
  -1   5  -4    0.21    0.24
   1   5   4    0.11    0.17
   5   1  -4    0.18    0.20
  -1  -5   4   -0.06    0.19
   5  -1   4    0.23    0.22
  -1  -5   4    0.16    0.25
  -5   1   4   -0.01    0.23
  -3  -5  -4    0.94    0.16
   3   5  -4    0.84    0.32
  -5   3  -4    0.87    0.12
   3  -5   4    0.77    0.20
   5   3   4    0.95    0.29
  -3   5   4    1.29    0.29
  -5  -3   4    0.92    0.33
   5  -3  -4    0.30    0.19
   5   3   4    0.96    0.34
   3  -5   4    0.99    0.29
  -5   3  -4    0.86    0.29
  -3   5   4    0.69    0.25
  -3  -5  -4    0.55    0.28
   3   5  -4    0.76    0.26
   5   3   4    0.92    0.17
   5  -3  -4    0.47    0.28
   5   3  -4    0.85    0.32
  -5   3   4    0.63    0.25
  -5   3   4    0.52    0.23
  -3   5  -4    0.46    0.27
  -3  -5   4    1.18    0.33
   3  -5  -4    0.33    0.29
   5  -3   4    0.89    0.28
  -5  -3  -4    0.72    0.23
   5   3  -4    0.95    0.27
  -3   5  -4    1.08    0.22
   5   3  -4    0.84    0.17
   5  -3   4    1.11    0.23
  -3  -5   4    0.86    0.15
   3   5   4    0.92    0.29
   3   5   4    0.71    0.23
   5   5  -4    0.02    0.11
  -5   5   4   -0.15    0.25
   5   5   4   -0.47    0.26
   5  -5  -4   -0.15    0.13
   5   5   4   -0.38    0.33
  -5   5  -4    0.29    0.25
   5  -5   4   -0.10    0.16
   5  -5  -4   -0.57    0.30
  -5  -5  -4   -0.19    0.11
   5   5  -4   -0.22    0.27
   5  -5   4   -0.07    0.18
  -5  -5  -4   -0.15    0.25
  -5   5   4    0.16    0.23
  -5  -5   4    0.04    0.31
   5   5  -4    0.15    0.30
   5  -5   4    0.08    0.26
  -6   0  -4    1.95    0.28
   0  -6  -4    1.99    0.28
   0   6   4    2.57    0.38
   0  -6   4    2.03    0.27
  -6   0   4    1.87    0.31
   6   0   4    1.59    0.30
   6   0  -4    2.41    0.35
   6   0   4    1.90    0.27
   0  -6   4    1.66    0.31
   6   0  -4    2.53    0.29
   0   6   4    2.40    0.22
   0  -6  -4    2.26    0.33
   0   6   4    2.11    0.34
  -6   0   4    2.18    0.31
  -6   0  -4    1.91    0.36
   0   6  -4    1.57    0.30
   0   6  -4    1.93    0.29
  -6   2  -4  114.11    2.09
   2   6  -4  114.04    2.35
   2  -6   4  113.76    2.27
  -2  -6  -4  115.23    2.15
   6   2   4  113.30    2.13
  -2   6   4  114.95    2.33
   2  -6   4  115.02    2.26
   6  -2  -4  115.46    2.29
  -6  -2   4  112.58    2.31
  -6  -2   4  111.73    2.36
  -2  -6  -4  112.49    2.36
   6   2   4  112.55    2.36
   2   6  -4  110.28    2.31
  -6   2  -4  115.84    2.37
  -2   6   4  112.99    2.34
   6  -2  -4  114.26    2.29
  -6  -2  -4  111.13    2.40
   2   6   4  116.53    2.24
  -2  -6   4  115.51    2.14
   2  -6  -4  115.39    2.29
   6   2  -4  114.97    2.41
   2   6   4  112.36    2.38
  -6  -2  -4  109.64    2.24
   6  -2   4  113.60    2.32
   6   2  -4  109.21    2.12
  -2  -6   4  112.14    2.37
  -6   2   4  108.49    2.28
  -2   6  -4  112.72    2.32
   6  -2   4  113.17    2.26
  -6   2   4  113.19    2.29
  -2   6  -4  115.08    2.25
  -6  -4   4    0.67    0.33
   4  -6   4    0.84    0.22
   4   6  -4    0.51    0.34
   4  -6   4    0.50    0.31
  -6   4  -4    0.83    0.15
   6  -4  -4    0.88    0.35
   6   4   4    1.02    0.38
  -4   6   4    0.92    0.26
  -6   4  -4    0.73    0.30
   4   6  -4    0.54    0.30
  -4  -6  -4    0.63    0.29
  -4  -6  -4    0.81    0.14
   6   4   4    0.88    0.29
  -4   6   4    0.54    0.26
   6  -4  -4    1.07    0.21
   6   4   4    1.24    0.17
   6  -4   4    0.89    0.32
   6   4  -4    0.72    0.30
   6  -4   4    0.28    0.23
   6   4  -4    0.92    0.37
   6   4  -4    0.74    0.14
   4   6   4    1.14    0.29
   4  -6  -4    0.75    0.31
  -4  -6   4    1.21    0.35
  -6  -4  -4    0.54    0.26
  -4   6  -4    1.01    0.29
   4   6   4    0.89    0.32
  -4   6  -4    1.03    0.23
  -6   4   4    0.35    0.26
  -6   4   4    0.55    0.24
  -4  -6   4    1.03    0.15
   6   6  -4   65.54    1.66
  -6  -6  -4   66.34    1.60
  -6   6  -4   64.62    1.61
  -6   6   4   65.07    1.50
   6  -6   4   66.60    1.46
   6   6  -4   64.09    1.60
   6   6   4   65.47    1.70
   6  -6   4   65.35    1.38
   6  -6   4   64.99    1.58
  -6  -6   4   61.77    1.62
  -6   6   4   63.07    1.58
   6   6   4   68.80    1.60
   7   1   4    0.66    0.31
  -1   7   4    0.26    0.28
  -1  -7  -4    0.54    0.23
  -1   7   4    0.51    0.30
   1  -7   4    0.43    0.27
   7   1   4    0.31    0.21
   1   7  -4    0.55    0.28
   1   7  -4    0.56    0.28
  -7  -1   4    0.52    0.27
   7  -1  -4    0.62    0.29
  -7   1  -4    0.10    0.31
   7  -1  -4   -0.07    0.26
  -1  -7  -4    0.65    0.30
  -7  -1   4    0.51    0.28
  -7   1  -4    0.26    0.15
   1  -7   4    0.60    0.25
  -1   7  -4    0.75    0.25
  -1   7  -4    0.86    0.27
  -7   1   4    0.40    0.27
   1   7   4    0.40    0.18
   7  -1   4    0.62    0.25
   7   1  -4    0.47    0.32
  -1  -7   4    0.49    0.27
   7   1  -4    0.61    0.23
   1   7   4    0.40    0.29
  -1  -7   4    0.53    0.21
  -7  -1  -4    0.00    0.31
  -7  -1  -4    0.36    0.22
  -7   1   4    0.61    0.26
   1  -7  -4    0.38    0.27
   7  -1   4    0.36    0.28
  -7  -3   4    0.08    0.30
   7   3   4    0.25    0.17
  -3  -7  -4   -0.03    0.16
   3  -7   4    0.28    0.29
   7   3   4   -0.12    0.29
   3   7  -4    0.01    0.29
   7  -3  -4   -0.01    0.23
   3   7  -4   -0.16    0.27
  -7  -3   4    0.38    0.31
  -3  -7  -4   -0.13    0.28
  -7   3  -4    0.08    0.12
  -3   7   4    0.11    0.26
   7  -3  -4    0.14    0.32
  -7   3  -4    0.03    0.27
  -3   7   4    0.09    0.26
   3  -7   4    0.37    0.23
   7  -3   4    0.47    0.28
  -7   3   4    0.28    0.26
   7  -3   4    0.10    0.23
   7   3  -4    0.33    0.34
  -3  -7   4    0.11    0.32
   3   7   4    0.01    0.32
  -7  -3  -4    0.18    0.32
   3  -7  -4    0.20    0.31
  -7  -3  -4   -0.09    0.23
   3   7   4    0.12    0.23
  -3  -7   4    0.19    0.17
   7   3  -4    0.04    0.16
  -3   7  -4   -0.36    0.28
  -7   3   4    0.32    0.24
  -3   7  -4   -0.04    0.21
   5  -7   4    0.51    0.32
  -7  -5   4    1.04    0.37
   7  -5  -4    0.82    0.34
   7   5   4    0.78    0.35
   7   5   4    0.87    0.33
  -5  -7  -4   -0.28    0.30
  -5   7   4    1.21    0.29
   5   7  -4    0.51    0.33
   7  -5  -4    0.78    0.21
   5  -7   4    0.18    0.22
   5   7  -4    0.47    0.36
  -7   5  -4    0.41    0.27
  -5   7   4    0.63    0.33
  -5   7  -4    0.63    0.24
   5   7   4    0.08    0.30
   7  -5   4    1.04    0.34
   7  -5   4    0.69    0.24
   7   5  -4    0.58    0.33
   5  -7  -4    1.84    0.40
  -5   7  -4    0.93    0.35
  -7   5   4   -0.08    0.24
   7   5  -4    0.92    0.35
  -7   5   4    0.46    0.32
   5   7   4    0.56    0.37
  -5  -7   4    0.56    0.35
  -7  -5  -4    0.37    0.31
  -7   7   4   -0.15    0.27
  -7   7   4    0.35    0.36
   7   7  -4    0.27    0.37
  -7   7  -4    0.15    0.33
  -7  -7   4   -0.54    0.34
   7   7  -4    0.56    0.40
   7   7   4   -0.13    0.41
   7   7   4   -0.40    0.29
   7  -7  -4   -0.14    0.38
   7  -7   4   -0.13    0.36
  -7  -7  -4    0.15    0.34
  -8   0  -4    0.25    0.19
   8   0  -4   -0.13    0.24
  -8   0   4   -0.23    0.25
   0  -8  -4    0.19    0.30
   0  -8   4    0.21    0.24
   8   0   4    0.32    0.24
  -8   0  -4    0.01    0.31
   0   8  -4    0.00    0.27
  -8   0   4    0.02    0.29
   0   8   4    0.06    0.28
   8   0   4   -0.18    0.29
   0  -8   4   -0.06    0.27
   0   8  -4   -0.09    0.29
   0  -8  -4    0.20    0.25
   8   0  -4    0.00    0.31
   8  -2  -4    0.32    0.31
  -2  -8  -4    0.30    0.33
  -2   8   4    0.40    0.31
   2   8  -4    0.50    0.32
  -8  -2   4   -0.03    0.30
  -8   2  -4    0.78    0.33
   8   2   4    0.30    0.21
  -2   8   4    0.76    0.31
   2  -8   4   -0.05    0.26
   2  -8   4    0.39    0.28
   8  -2  -4   -0.19    0.25
  -8  -2   4    0.15    0.31
  -2  -8  -4   -0.07    0.20
   2   8  -4    0.41    0.31
   8   2   4    0.11    0.30
  -8   2   4   -0.31    0.29
   2  -8  -4    0.18    0.31
  -8  -2  -4   -0.02    0.32
  -2  -8   4   -0.16    0.32
   8   2  -4   -0.12    0.28
  -8  -2  -4    0.45    0.25
  -8   2   4   -0.06    0.25
   2   8   4   -0.10    0.21
  -2  -8   4    0.09    0.20
  -2   8  -4   -0.18    0.23
   8  -2   4    0.16    0.27
   2   8   4    0.20    0.34
   8  -2   4   -0.11    0.26
   8   2  -4    0.19    0.21
  -2   8  -4    0.09    0.29
   4  -8   4    0.09    0.25
   8   4   4    0.17    0.32
   4   8  -4    0.50    0.33
   8  -4  -4    0.31    0.36
   4  -8   4   -0.04    0.32
  -4   8   4    0.32    0.28
   4   8  -4    0.22    0.32
  -4   8   4   -0.30    0.31
  -8  -4   4   -0.38    0.34
  -8   4  -4    0.27    0.33
  -8  -4   4   -0.03    0.34
  -4  -8  -4   -0.11    0.32
   8  -4  -4    0.12    0.23
   8  -4   4   -0.08    0.26
  -8   4   4    0.48    0.31
  -4   8  -4   -0.08    0.23
  -4   8  -4    0.27    0.32
  -8  -4  -4    0.28    0.41
   8   4  -4   -0.18    0.37
   4   8   4   -0.25    0.31
   4  -8  -4   -0.49    0.33
   4   8   4   -0.27    0.27
  -8   4   4    0.09    0.24
  -8  -4  -4   -0.34    0.26
   8  -4   4   -0.49    0.30
  -4  -8   4   -0.24    0.33
   8  -6  -4    0.65    0.42
  -8  -6   4    1.00    0.41
  -6  -8  -4    0.96    0.39
   6   8  -4    0.48    0.40
  -6   8   4    0.53    0.31
  -6   8   4    1.01    0.37
   8   6   4    0.67    0.42
   6  -8   4    0.30    0.37
  -8   6  -4    0.57    0.32
   8   6   4    0.99    0.41
   6   8  -4    1.10    0.40
   6   8   4    0.61    0.42
   8   6  -4    1.36    0.40
  -8   6   4    0.75    0.38
   6  -8  -4    0.99    0.43
   6   8   4    1.24    0.36
   8  -6   4    0.51    0.39
  -6   8  -4    0.26    0.38
  -6  -8   4    1.16    0.45
   8  -6   4    0.90    0.28
   8   6  -4    1.07    0.40
  -8   6   4    0.84    0.30
  -8  -6  -4    0.67    0.36
  -8   8   4    0.56    0.33
   8  -8   4    0.04    0.44
  -8  -8  -4    0.04    0.42
  -8  -8   4    0.67    0.48
  -8   8   4    0.58    0.41
   8   8  -4   -0.29    0.44
   8  -8  -4    0.00    0.45
   8   8   4   -0.87    0.38
  -8   8  -4    0.16    0.43
   8   8  -4    0.16    0.39
   8   8   4    0.70    0.45
  -9   1  -4    0.68    0.40
   9  -1  -4    0.36    0.30
  -1   9   4   -0.04    0.34
  -1  -9  -4   -0.10    0.34
   1   9  -4    0.28    0.33
   1  -9   4    0.85    0.30
   9  -1  -4    0.15    0.33
  -1  -9  -4    0.16    0.25
  -9  -1   4    0.02    0.29
  -9  -1   4   -0.11    0.33
   9   1   4    0.12    0.33
   1  -9   4    0.23    0.31
   9   1   4    0.42    0.25
   1   9  -4    0.12    0.30
   9   1  -4   -0.29    0.30
   1  -9  -4    0.22    0.29
  -9   1   4    0.01    0.33
  -9  -1  -4    0.61    0.37
   9  -1   4    0.45    0.32
   1  -9  -4   -0.10    0.32
   9  -1   4    0.46    0.29
  -1   9  -4    0.78    0.29
  -9  -1  -4    0.00    0.24
  -1  -9   4    0.03    0.32
   9   1  -4    0.38    0.26
   1   9   4    0.67    0.38
  -1  -9   4    0.19    0.24
  -1   9  -4    0.20    0.32
  -9   1   4   -0.09    0.27
   3  -9   4    0.39    0.30
  -3   9   4    0.87    0.38
   3   9  -4    0.70    0.36
  -3  -9  -4    0.43    0.36
  -3   9   4    1.27    0.36
   9   3   4    1.18    0.39
  -9  -3   4    0.80    0.36
  -9  -3   4    0.63    0.37
   3  -9   4    0.83    0.33
  -9   3  -4    0.85    0.39
   3   9  -4    0.26    0.34
   9  -3  -4    0.33    0.35
   9  -3  -4   -0.09    0.30
  -9   3   4    0.85    0.35
   9  -3   4    0.44    0.31
   9  -3   4    0.09    0.32
  -9  -3  -4    0.24    0.30
   3   9   4    0.58    0.27
   3  -9  -4    0.78    0.35
   3   9   4    0.33    0.36
  -3  -9   4    0.46    0.38
   3  -9  -4    0.34    0.33
  -9  -3  -4    0.45    0.41
  -3   9  -4    0.49    0.36
   9   3  -4    0.63    0.40
  -9   3   4    0.48    0.28
   5   9  -4   -0.36    0.35
   9   5   4    0.34    0.38
  -9  -5   4    0.63    0.42
   5   9  -4   -0.47    0.34
  -5  -9  -4   -0.38    0.36
   5  -9   4    0.35    0.38
   9  -5  -4   -0.10    0.40
  -5   9   4   -0.10    0.30
  -9  -5   4   -0.05    0.40
  -9   5  -4   -0.32    0.36
   5  -9   4   -0.22    0.28
  -5   9   4   -0.12    0.35
  -9  -5  -4   -0.22    0.31
  -5   9  -4   -0.40    0.36
   9  -5   4   -0.17    0.26
   5  -9  -4    0.18    0.41
  -9   5   4   -0.26    0.31
  -9  -5  -4   -0.57    0.43
  -9   5   4    0.23    0.28
   5   9   4    0.24    0.43
   5   9   4   -0.31    0.29
   9   5  -4    0.01    0.34
  -5  -9   4    0.68    0.43
   9  -5   4   -0.50    0.34
  -7  -9  -4    0.59    0.43
  -9  -7   4    0.26    0.47
  -9   7  -4    0.88    0.46
   9  -7  -4    1.45    0.50
  -7   9   4    0.56    0.42
  -9  -7   4    0.81    0.46
  -7   9   4    1.03    0.35
   9   7   4    0.18    0.37
   7  -9   4    0.30    0.43
   9   7   4    1.62    0.51
   7   9  -4    0.16    0.40
   7   9  -4    0.84    0.45
  -7  -9   4    0.54    0.48
   9   7  -4    0.70    0.42
  -9  -7  -4    0.37    0.41
   7   9   4    0.23    0.39
  -9  -7  -4    1.10    0.56
   9  -7   4    0.48    0.46
  -9   7   4    0.68    0.33
  -7   9  -4    0.61    0.43
   9   7  -4    1.27    0.46
   7   9   4    1.01    0.50
   7  -9  -4    0.32    0.41
  -9   7   4    0.98    0.43
  -9   9  -4   -0.71    0.39
  -9  -9  -4    0.74    0.50
   9   9  -4    0.29    0.44
   9  -9  -4    0.16    0.49
   9  -9   4   -0.38    0.44
  -9   9   4   -0.53    0.46
   9   9   4   -0.57    0.49
  -9  -9   4    0.03    0.48
   9   9  -4    0.17    0.46
   9   9   4   -0.61    0.42
   0  10  -4    0.93    0.39
 -10   0   4    1.16    0.35
   0 -10  -4    1.14    0.40
  10   0  -4    1.14    0.38
  10   0   4    1.20    0.41
  10   0  -4    0.95    0.32
  10   0   4    0.64    0.31
 -10   0  -4    1.15    0.45
   0  10   4    0.12    0.38
   0 -10   4    1.14    0.38
   0 -10  -4    1.29    0.34
 -10   0   4    0.99    0.39
   0 -10   4    0.79    0.30
   2  10  -4   53.89    1.51
   2  10  -4   53.05    1.40
  10  -2  -4   52.40    1.44
  -2 -10  -4   51.74    1.50
  10  -2  -4   54.71    1.43
 -10  -2   4   51.91    1.50
 -10   2  -4   53.14    1.55
   2 -10   4   52.64    1.38
  -2  10   4   52.18    1.50
   2 -10   4   53.79    1.44
 -10  -2   4   54.02    1.45
  10   2   4   54.43    1.52
   2 -10  -4   54.76    1.41
 -10   2   4   51.01    1.45
  -2  10  -4   52.74    1.49
  10  -2   4   53.24    1.38
  10  -2   4   54.43    1.46
  -2 -10   4   51.57    1.49
  10   2  -4   53.43    1.54
 -10   2   4   52.96    1.37
   2  10   4   53.10    1.54
 -10  -2  -4   53.09    1.59
   2 -10  -4   54.66    1.48
 -10  -4   4    2.38    0.48
 -10   4  -4    2.85    0.50
 -10  -4   4    3.89    0.52
   4  10  -4    2.82    0.49
  10   4   4    2.40    0.48
  10  -4  -4    3.03    0.48
  -4  10   4    3.13    0.51
  10  -4  -4    2.80    0.39
   4 -10   4    2.14    0.44
   4 -10   4    3.35    0.42
   4  10  -4    3.04    0.47
  -4 -10  -4    3.08    0.50
  -4  10  -4    2.71    0.46
 -10  -4  -4    2.84    0.56
  10  -4   4    1.91    0.39
 -10   4   4    2.46    0.37
  10   4  -4    3.01    0.52
   4  10   4    2.07    0.47
  10  -4   4    2.68    0.43
 -10  -4  -4    3.32    0.45
  -4 -10   4    2.75    0.52
   4 -10  -4    3.70    0.51
   4 -10  -4    2.11    0.42
 -10   4   4    2.22    0.43
   6 -10   4   57.64    1.60
  -6 -10  -4   55.37    1.67
 -10   6  -4   57.14    1.68
  -6  10   4   59.94    1.68
  10  -6  -4   60.17    1.67
  -6  10   4   56.63    1.54
   6  10  -4   57.61    1.67
  10   6   4   57.28    1.67
 -10  -6   4   58.64    1.70
   6  10  -4   60.36    1.67
 -10  -6   4   58.99    1.68
 -10   6   4   57.14    1.64
   6  10   4   56.20    1.54
   6 -10  -4   59.35    1.68
  -6 -10   4   60.01    1.73
  10   6  -4   56.78    1.71
  10  -6   4   57.60    1.64
 -10  -6  -4   57.69    1.61
 -10  -6  -4   55.51    1.76
  -6  10  -4   54.86    1.65
   6  10   4   57.49    1.75
 -10   8  -4    0.23    0.49
  -8  10   4    0.98    0.51
   8 -10   4    0.77    0.49
  10   8   4    0.34    0.47
  -8 -10  -4    0.00    0.45
   8  10  -4   -0.08    0.47
  10  -8  -4    0.01    0.51
 -10  -8   4    0.59    0.50
 -10  -8   4    0.21    0.51
   8  10  -4    0.49    0.44
   8  10   4    0.31    0.43
   8 -10  -4    0.52    0.49
  10   8  -4    0.91    0.51
   8  10   4    0.78    0.55
 -10  -8  -4    0.55    0.57
  10  -8   4    0.27    0.43
  -8 -10   4    0.75    0.55
 -10   8   4    0.63    0.49
  -8  10  -4    0.19    0.48
 -10  -8  -4   -0.09    0.44
  10 -10   4   20.04    1.14
  10  10  -4   16.96    1.12
  10  10   4   17.94    1.16
  10 -10  -4   17.64    1.15
 -10  10  -4   18.89    1.15
  10  10  -4   16.49    1.04
 -10  10   4   18.81    1.15
  10  10   4   19.78    1.07
 -10 -10   4   17.61    1.14
 -10 -10  -4   17.60    1.14
   1  11  -4   -0.01    0.40
  11  -1  -4    0.08    0.40
  -1 -11  -4    0.43    0.43
   1 -11   4   -0.03    0.37
 -11  -1   4    0.59    0.36
  11  -1  -4   -0.19    0.33
 -11  -1   4    0.56    0.41
 -11   1  -4   -0.33    0.41
  -1  11   4    0.93    0.43
  11   1   4   -0.49    0.39
   1 -11   4    0.35    0.34
 -11  -1  -4   -0.61    0.43
 -11   1   4    0.39    0.42
  -1 -11   4    1.09    0.44
  -1  11  -4    0.25    0.39
  11  -1   4   -0.18    0.36
   1 -11  -4    0.11    0.34
   1  11   4   -0.02    0.43
 -11   1   4   -0.12    0.32
  11   1  -4   -0.27    0.40
  11  -1   4   -0.50    0.32
   1 -11  -4    0.42    0.41
   3 -11   4   -0.18    0.36
  11   3   4   -0.44    0.42
  -3 -11  -4   -0.30    0.42
 -11  -3   4    0.04    0.39
 -11   3  -4    0.62    0.45
   3  11  -4    0.50    0.43
   3 -11   4   -0.02    0.37
  11  -3  -4   -0.40    0.35
  -3  11   4   -0.13    0.40
  11  -3  -4   -0.80    0.37
 -11  -3   4    0.33    0.44
 -11   3   4    0.03    0.41
  11   3  -4    0.79    0.45
  11  -3   4   -0.32    0.34
 -11  -3  -4    0.20    0.49
   3 -11  -4    0.59    0.40
  11  -3   4   -0.39    0.35
   3  11   4    0.30    0.44
  -3 -11   4    0.10    0.40
   3 -11  -4    0.12    0.39
  -3  11  -4   -0.11    0.41
 -11  -5   4   -0.21    0.44
   5  11  -4    0.35    0.45
 -11  -5   4    0.40    0.43
 -11   5  -4    0.26    0.45
  11   5   4   -0.10    0.44
   5 -11   4    0.15    0.43
  -5  11   4    0.46    0.46
  11  -5  -4    0.02    0.43
   5  11  -4   -0.08    0.42
  -5 -11  -4    0.08    0.45
  11  -5   4    0.66    0.44
   5  11   4    0.35    0.47
   5 -11  -4    0.51    0.40
  -5 -11   4    0.20    0.44
  11   5  -4    0.42    0.50
 -11   5   4    0.24    0.43
  -5  11  -4    0.97    0.46
 -11  -5  -4    1.23    0.55
   5 -11  -4   -0.23    0.43
  11  -5   4   -0.39    0.33
  11   7   4    0.31    0.45
 -11  -7   4    0.91    0.54
  11  -7  -4   -0.26    0.47
   7 -11   4   -0.33    0.46
   7  11  -4    0.44    0.47
 -11   7  -4    1.04    0.53
  -7  11   4    0.10    0.49
   7  11  -4   -0.39    0.47
  -7  11   4   -0.34    0.38
  -7 -11  -4    0.29    0.47
 -11  -7   4    0.71    0.52
  11  -7   4   -0.64    0.39
  -7  11  -4   -0.54    0.47
  -7 -11   4   -0.46    0.50
  11   7  -4    0.54    0.54
   7 -11  -4   -0.14    0.48
 -11   7   4   -0.34    0.46
 -11  -7  -4    0.01    0.54
   7  11   4   -0.49    0.50
 -11  -7  -4    0.04    0.46
   9 -11   4    0.16    0.54
  11  -9  -4    1.12    0.53
 -11  -9   4    0.04    0.55
 -11  -9   4   -0.19    0.54
  -9  11   4   -0.31    0.52
   9  11  -4    0.23    0.51
  11   9   4   -0.24    0.47
  -9 -11  -4   -0.05    0.53
 -11   9  -4   -0.09    0.51
   9  11  -4   -0.12    0.51
 -11  -9  -4    0.17    0.50
  11  -9   4    0.18    0.52
 -11  -9  -4    0.27    0.59
   9  11   4    1.19    0.60
   9  11   4    0.95    0.50
 -11   9   4    0.55    0.55
  -9 -11   4   -0.08    0.55
   9 -11  -4    0.46    0.59
  -9  11  -4    0.11    0.56
  11   9  -4    0.64    0.56
  11  11  -4    0.19    0.55
  11 -11  -4    0.06    0.61
 -11 -11  -4    1.61    0.71
 -11 -11   4    0.86    0.59
 -11  11  -4   -0.63    0.56
  11  11  -4   -0.11    0.57
  11 -11   4   -0.47    0.56
 -11  11   4   -1.23    0.53
  11  11   4   -0.71    0.56
 -11 -11   4   -0.28    0.60
  11  11   4   -0.03    0.52
 -11 -11  -4   -0.60    0.56
   0 -12  -4   -0.12    0.42
 -12   0   4   -0.28    0.42
   0  12  -4   -0.59    0.42
  12   0   4    0.64    0.45
   0  12   4    0.18    0.46
 -12   0  -4   -0.18    0.48
  12   0  -4    0.02    0.43
   0 -12   4    0.61    0.45
 -12   2  -4    0.32    0.50
 -12  -2   4   -0.08    0.43
   2 -12   4    0.22    0.40
  12  -2  -4    0.36    0.40
  12   2   4    0.15    0.46
   2 -12   4    0.47    0.38
  -2 -12  -4    0.29    0.46
  12  -2  -4   -0.67    0.38
   2  12  -4    0.06    0.47
 -12  -2   4    0.23    0.43
  -2  12   4   -0.08    0.42
  12  -2   4   -0.06    0.41
  -2  12  -4    0.44    0.44
   2  12   4   -0.50    0.45
  -2 -12   4   -0.02    0.42
  12   2  -4   -0.37    0.46
 -12   2   4   -0.46    0.42
   2 -12  -4    0.38    0.39
   2 -12  -4   -0.16    0.43
  12  -2   4   -0.36    0.36
 -12  -2  -4   -0.73    0.45
 -12  -4   4    0.68    0.47
   4 -12   4    0.65    0.44
  12   4   4   -0.17    0.47
   4  12  -4    0.93    0.49
  -4 -12  -4   -0.05    0.44
 -12  -4   4    0.04    0.49
 -12   4  -4    0.39    0.48
  12  -4  -4    0.34    0.45
  -4  12   4    0.46    0.42
  -4  12  -4   -0.06    0.44
  12   4  -4   -0.04    0.50
  -4 -12   4    0.13    0.45
   4  12   4   -0.53    0.45
   4 -12  -4   -0.52    0.42
 -12  -4  -4    0.32    0.54
   4 -12  -4    0.05    0.42
 -12   4   4    0.78    0.46
  12  -4   4    0.01    0.42
  12  -4   4    0.36    0.39
  -6 -12  -4   -0.20    0.50
  -6  12   4   -0.54    0.47
 -12  -6   4    0.09    0.48
   6 -12   4   -0.41    0.45
   6  12  -4   -0.50    0.46
  12   6   4    0.34    0.47
 -12  -6   4   -0.10    0.50
 -12   6  -4    0.60    0.49
  12  -6  -4   -0.33    0.49
   6  12  -4   -0.26    0.44
 -12   6   4   -0.21    0.48
 -12  -6  -4    0.08    0.56
  12  -6   4   -0.20    0.45
  -6 -12   4    0.54    0.54
   6 -12  -4    0.37    0.44
  12   6  -4    0.89    0.49
   6 -12  -4   -0.14    0.49
   6  12   4   -0.33    0.52
  -6  12  -4   -1.05    0.46
  -8 -12  -4   -0.27    0.52
 -12  -8   4   -0.99    0.51
  12  -8  -4   -0.01    0.54
   8  12  -4   -0.03    0.48
  12   8   4   -0.62    0.51
  -8  12   4   -0.23    0.54
 -12  -8   4    0.56    0.56
 -12   8  -4    0.76    0.56
   8 -12   4    0.32    0.56
   8  12  -4    0.72    0.55
  12  -8   4   -0.28    0.50
  12   8  -4    0.25    0.52
   8  12   4   -0.51    0.54
   8 -12  -4   -0.10    0.56
  -8  12  -4    0.50    0.56
 -12  -8  -4   -0.35    0.60
 -12   8   4    0.49    0.55
  -8 -12   4   -0.45    0.55
  12 -10  -4   -0.05    0.63
 -10  12   4    1.25    0.62
  12  10   4    0.57    0.57
 -10 -12  -4    2.16    0.64
  10  12  -4    0.82    0.58
 -12 -10   4    0.19    0.57
 -12 -10   4    0.46    0.62
  10  12  -4    0.87    0.57
 -12  10  -4    0.08    0.61
  10 -12   4   -0.08    0.55
 -10  12  -4    1.42    0.67
  10 -12  -4    1.48    0.66
  12 -10   4   -0.51    0.59
 -12 -10  -4    1.34    0.63
  12  10  -4    0.54    0.59
  10  12   4    2.13    0.68
 -12  10   4    0.49    0.63
 -10 -12   4    0.91    0.67
 -12 -10  -4    0.35    0.65
   1  13  -4   -0.56    0.46
  13   1   4   -0.38    0.41
  -1  13   4   -0.62    0.40
  -1 -13  -4    0.63    0.49
   1 -13   4   -0.38    0.42
  13  -1  -4    0.02    0.46
 -13   1  -4    0.80    0.54
 -13  -1   4    0.53    0.48
  -1 -13   4   -0.29    0.43
  13   1  -4   -0.06    0.44
   1 -13  -4   -0.15    0.45
 -13   1   4    0.14    0.49
 -13  -1  -4    0.67    0.57
   1  13   4   -0.24    0.52
  13  -1   4   -0.04    0.43
  -1  13  -4   -0.87    0.41
   3 -13   4    0.12    0.43
   3  13  -4    0.99    0.53
  -3 -13  -4   -0.51    0.47
  13   3   4    0.68    0.47
  -3  13   4    0.24    0.44
 -13  -3   4   -0.02    0.50
  13  -3  -4    0.28    0.46
   3 -13   4   -0.37    0.41
 -13   3  -4    1.31    0.56
  13  -3  -4    0.49    0.48
  -3  13  -4    0.19    0.46
  -3 -13   4    0.50    0.49
   3 -13  -4    0.83    0.49
  13  -3   4   -0.20    0.43
  13   3  -4    0.43    0.50
   3  13   4    0.01    0.52
 -13  -3  -4    0.18    0.56
 -13   3   4    0.15    0.50
  13  -3   4    0.65    0.44
   3 -13  -4    0.76    0.50
  -5  13   4   -0.02    0.46
  13   5   4    0.25    0.51
  -5 -13  -4   -0.68    0.49
   5  13  -4   -0.01    0.50
  13  -5  -4    0.05    0.47
 -13  -5   4   -0.28    0.50
 -13   5  -4   -0.02    0.55
 -13  -5   4   -0.64    0.48
   5 -13   4    0.64    0.48
   5 -13  -4    0.38    0.51
 -13  -5  -4   -0.78    0.54
  13  -5   4   -0.30    0.47
  -5  13  -4   -0.25    0.49
  -5 -13   4    0.11    0.55
  13   5  -4    1.07    0.57
 -13   5   4   -0.82    0.48
   5 -13  -4   -0.19    0.46
   5  13   4   -0.68    0.50
 -13  -7   4   -0.19    0.55
  13   7   4    0.54    0.57
  13  -7  -4    0.68    0.58
 -13  -7   4    0.30    0.54
   7 -13   4    0.15    0.53
 -13   7  -4    0.21    0.58
  -7  13   4    0.56    0.57
  -7 -13  -4    0.69    0.57
   7  13  -4    0.48    0.58
  -7  13  -4    0.00    0.55
  13   7  -4   -0.10    0.49
   7  13   4    0.94    0.62
   7 -13  -4    0.23    0.54
 -13  -7  -4   -0.16    0.60
  13  -7   4    0.15    0.54
 -13   7   4   -0.35    0.54
  -7 -13   4   -0.15    0.58
 -13   9  -4   -0.28    0.61
   9  13  -4    0.27    0.60
  -9 -13  -4   -0.27    0.60
  13  -9  -4    1.82    0.64
 -13  -9   4   -0.02    0.60
 -13  -9   4    0.11    0.56
   9 -13   4    0.10    0.55
  -9  13   4    0.75    0.61
  13   9   4   -0.11    0.52
 -13   9   4   -0.72    0.57
  -9 -13   4    0.37    0.67
  13   9  -4   -0.04    0.59
   9 -13  -4   -0.03    0.60
   9  13   4   -0.35    0.62
  13  -9   4    0.06    0.57
 -13  -9  -4    0.54    0.69
  -9  13  -4    0.67    0.63
   0 -14  -4    3.41    0.64
 -14   0   4    2.88    0.63
  14   0   4    2.24    0.59
   0  14  -4    1.76    0.60
   0 -14   4    3.07    0.62
   0  14   4    3.91    0.68
 -14   0  -4    2.59    0.65
  14   0  -4    4.76    0.68
   2 -14   4   31.99    1.30
  14  -2  -4   31.15    1.30
  -2 -14  -4   30.35    1.38
   2  14  -4   31.07    1.38
 -14   2  -4   33.48    1.43
 -14  -2   4   31.24    1.34
  -2  14   4   28.70    1.37
  14   2   4   31.65    1.38
 -14   2   4   34.02    1.40
  -2 -14   4   33.48    1.38
  14   2  -4   30.27    1.38
   2 -14  -4   28.56    1.34
 -14  -2  -4   32.21    1.47
  -2  14  -4   30.23    1.32
   2  14   4   33.35    1.39
  14  -2   4   28.54    1.27
 -14   4  -4    0.75    0.54
   4  14  -4   -0.12    0.55
 -14  -4   4    0.76    0.56
  -4 -14  -4    0.85    0.58
   4 -14   4   -0.54    0.43
  14   4   4   -0.26    0.53
  -4  14   4   -0.42    0.51
  14  -4  -4    0.35    0.50
  14   4  -4    0.49    0.50
  -4  14  -4    0.35    0.51
  14  -4   4    1.38    0.52
   4 -14  -4    1.03    0.54
   4 -14  -4    0.11    0.48
  14  -4   4    1.01    0.52
 -14   4   4    0.14    0.55
  -4 -14   4    1.32    0.56
   4  14   4    0.01    0.56
 -14  -4  -4    0.90    0.61
  -6 -14  -4   14.85    1.13
 -14  -6   4   16.13    1.13
   6  14  -4   13.99    1.14
 -14   6  -4   19.04    1.22
   6 -14   4   16.58    1.08
  -6  14   4   16.45    1.14
  14   6   4   14.76    1.12
  14  -6  -4   13.88    1.06
 -14  -6  -4   16.10    1.24
   6  14   4   16.35    1.24
 -14   6   4   14.09    1.11
  14   6  -4   15.70    1.16
   6 -14  -4   16.92    1.16
  -6 -14   4   14.89    1.17
  -6  14  -4   15.24    1.13
  14  -6   4   18.13    1.12
  14  -8  -4    1.38    0.64
   8  14  -4    2.29    0.69
 -14  -8   4    1.23    0.63
   8 -14   4    2.04    0.71
   8 -14  -4    1.26    0.71
  14  -8   4    1.68    0.65
 -14  -8  -4    0.86    0.70
 -14   8   4    0.89    0.64
  -1 -15  -4    0.77    0.60
  15   1   4    0.30    0.55
  -1  15   4   -0.98    0.53
 -15  -1   4   -0.94    0.51
   1 -15   4    1.42    0.55
 -15   1  -4    0.32    0.60
  15  -1  -4    0.55    0.55
   1  15  -4    0.19    0.56
 -15   1   4   -0.14    0.54
   1 -15  -4    0.27    0.57
 -15  -1  -4    0.05    0.58
  15   1  -4   -0.63    0.53
  15  -1   4    0.01    0.53
  -1  15  -4   -0.21    0.54
  -1 -15   4   -0.66    0.49
   1  15   4   -0.53    0.56
 -15  -3   4   -0.48    0.53
 -15   3  -4   -0.60    0.54
  -3  15   4   -0.21    0.58
  -3 -15  -4    0.68    0.59
  15   3   4    0.03    0.59
   3  15  -4    0.39    0.59
  15  -3   4   -0.71    0.47
 -15   3   4   -0.41    0.55
   3  15   4    0.68    0.60
  15   3  -4   -0.22    0.60
 -15  -3  -4    1.10    0.66
  -3 -15   4    0.11    0.58
   3 -15  -4   -0.04    0.56
  -3  15  -4    0.15    0.53
   5  15  -4   -0.19    0.58
  -5 -15  -4    0.02    0.63
 -15   5  -4    0.00    0.62
 -15  -5   4   -0.05    0.58
   5 -15   4    0.28    0.54
  -5  15   4    0.41    0.60
  15   5   4   -0.15    0.63
   5 -15  -4   -0.54    0.51
  -5 -15   4    0.21    0.62
 -15   5   4   -0.56    0.57
   5 -15  -4   -0.37    0.53
  15   5  -4   -0.46    0.57
   5  15   4   -0.14    0.62
 -15  -5  -4    0.34    0.66
  -5  15  -4    0.23    0.55
  15  -7  -4   -0.83    0.54
  15  -7   4   -0.68    0.57
 -16   0  -4    0.81    0.69
  16   0   4    0.09    0.55
 -16   0   4    0.99    0.59
   0 -16   4   -0.03    0.54
   0  16  -4    0.15    0.62
   0 -16  -4    1.30    0.67
  16   0  -4   -0.12    0.57
 -16  -2   4    0.95    0.61
   2  16  -4   -1.11    0.54
  16  -2   4   -0.82    0.51
   2 -16  -4    0.11    0.57
  16   2  -4    0.08    0.56
 -16   2   4   -0.50    0.56
  -2 -16   4    0.90    0.62
 -16   4   4   -0.08    0.63
   4 -16  -4    0.51    0.56
  -1   0   5    0.06    0.19
   0   1  -5   -0.22    0.18
   0   1   5   -0.03    0.18
   1   0   5    0.00    0.17
   1   0   5    0.14    0.13
   0   1   5    0.07    0.20
  -1   0  -5    0.29    0.17
  -1   0   5    0.02    0.22
   0  -1   5    0.10    0.18
   1   0  -5   -0.13    0.18
   0  -1   5   -0.25    0.17
   1   0   5    0.01    0.19
   0   1  -5    0.03    0.10
   0  -1  -5    0.16    0.16
   0   1   5   -0.09    0.16
   2   1   5   17.42    0.57
  -2  -1   5   19.10    0.45
   2   1   5   18.51    0.48
  -2   1  -5   19.40    0.56
   2  -1  -5   17.91    0.61
  -2  -1   5   17.54    0.57
   1  -2   5   17.74    0.53
  -2  -1   5   17.74    0.54
   1  -2   5   17.47    0.49
   1   2  -5   19.38    0.46
   2   1   5   18.36    0.55
  -1   2   5   18.32    0.51
   1   2  -5   18.50    0.61
   2  -1  -5   18.61    0.55
  -1   2   5   18.24    0.53
   2  -1   5   18.69    0.39
   2  -1   5   18.51    0.55
  -2   1   5   18.29    0.46
   2   1  -5   19.08    0.63
   1   2   5   18.44    0.58
   1  -2  -5   18.13    0.45
  -1   2  -5   18.30    0.55
  -2   1   5   18.25    0.57
   1   2   5   18.81    0.55
  -1   2  -5   18.60    0.50
   2  -1   5   18.29    0.56
   1   2   5   18.48    0.53
  -1  -2   5   18.54    0.60
   1  -2  -5   18.80    0.57
  -1  -2   5   19.33    0.53
   1   2   5   18.28    0.51
   0   3   5    0.16    0.14
   0  -3   5    0.18    0.22
   0   3   5    0.57    0.23
   3   0  -5    0.18    0.26
  -3   0  -5    0.10    0.25
   0   3  -5    0.22    0.24
  -3   0   5   -0.11    0.23
   3   0  -5    0.00    0.24
   3   0   5   -0.07    0.21
   0  -3  -5    0.02    0.24
   0  -3   5   -0.32    0.20
   0   3   5   -0.12    0.22
  -3   0  -5   -0.06    0.11
   0   3  -5   -0.06    0.18
   3   0   5    0.17    0.21
  -3   0   5   -0.16    0.16
   2  -3   5   74.03    1.49
   3  -2  -5   70.70    1.49
  -2   3   5   74.26    1.46
  -2  -3  -5   71.00    1.48
  -2   3   5   71.15    1.50
   3  -2  -5   70.13    1.43
  -3   2  -5   74.76    1.50
   2   3  -5   72.12    1.56
  -3  -2   5   70.38    1.40
   3   2   5   73.22    1.56
   3   2   5   73.31    1.41
  -3  -2   5   71.04    1.56
   2  -3   5   71.18    1.40
   3   2   5   72.63    1.51
   2   3  -5   72.38    1.43
   2  -3  -5   69.97    1.49
   2   3   5   73.72    1.43
  -2  -3   5   70.68    1.39
  -2   3  -5   73.26    1.49
   3   2  -5   69.26    1.54
   2   3   5   73.15    1.56
  -3   2   5   71.53    1.44
   2   3   5   70.79    1.47
  -2  -3   5   72.25    1.56
   3   2  -5   70.95    1.43
   2  -3  -5   72.23    1.37
   3  -2   5   72.16    1.49
  -3   2   5   72.16    1.50
  -3  -2  -5   71.31    1.45
   3  -2   5   69.12    1.46
  -2   3  -5   71.54    1.47
  -4  -1   5    0.85    0.23
   4   1   5    0.50    0.20
   4   1   5    0.42    0.23
   4  -1  -5    0.72    0.25
  -1   4   5    0.52    0.24
   4  -1  -5    0.58    0.25
   1  -4   5    0.41    0.22
  -4  -1   5    0.36    0.27
   1   4  -5    0.53    0.21
   1  -4   5    0.56    0.25
  -1   4   5    0.59    0.24
  -4   1  -5    1.08    0.28
  -1  -4  -5    0.66    0.22
   1   4  -5    0.55    0.26
   1  -4  -5    0.24    0.23
   1  -4  -5    0.77    0.10
   1   4   5    0.47    0.28
   4   1  -5    0.48    0.22
  -1  -4   5    0.46    0.20
   1   4   5    0.36    0.18
  -4   1   5    0.36    0.24
   4  -1   5    0.63    0.24
  -1   4  -5    0.71    0.25
  -4   1   5    0.72    0.22
   4   1  -5    0.30    0.29
  -1   4  -5    0.38    0.22
   4  -1   5    0.44    0.24
   1   4   5    0.44    0.26
  -4  -1  -5    0.55    0.31
  -4  -1  -5    0.54    0.16
  -1  -4   5    0.68    0.26
   4  -3  -5    0.15    0.29
   4   3   5    0.00    0.27
   3  -4   5    0.19    0.16
  -4   3  -5    0.00    0.25
  -3  -4  -5   -0.14    0.22
  -3  -4  -5    0.00    0.17
  -3   4   5    0.25    0.23
   4   3   5    0.06    0.18
   4  -3  -5    0.08    0.17
  -3   4   5   -0.24    0.22
   3  -4   5    0.10    0.22
   3   4  -5    0.24    0.30
  -4  -3   5   -0.01    0.30
   3   4  -5   -0.12    0.23
   4   3   5   -0.24    0.22
  -4   3   5    0.07    0.22
  -3   4  -5    0.19    0.21
  -3   4  -5   -0.10    0.23
   4  -3   5    0.43    0.26
  -3  -4   5    0.28    0.16
   4  -3   5   -0.25    0.19
   4   3  -5    0.10    0.31
   3   4   5    0.16    0.27
   3   4   5   -0.15    0.22
   4   3  -5   -0.41    0.22
   3  -4  -5   -0.04    0.28
   3  -4  -5   -0.02    0.10
   4  -3   5    0.03    0.11
  -4  -3  -5   -0.16    0.19
  -4   3   5   -0.02    0.21
  -3  -4   5   -0.61    0.27
   5   0   5   -0.28    0.21
   0  -5  -5    0.28    0.23
   0   5  -5    0.02    0.23
  -5   0   5   -0.25    0.20
  -5   0  -5   -0.06    0.28
   0   5   5   -0.37    0.20
   5   0   5   -0.24    0.24
  -5   0  -5   -0.21    0.13
   0   5  -5    0.05    0.25
  -5   0   5   -0.04    0.24
   5   0  -5    0.41    0.24
   5   0  -5   -0.47    0.27
   0  -5   5   -0.42    0.20
   0   5   5    0.27    0.26
   0   5   5   -0.13    0.13
   0  -5   5   -0.16    0.24
  -5   2  -5    1.75    0.33
   2  -5   5    1.57    0.24
  -2   5   5    1.28    0.27
   5   2   5    1.80    0.22
   5  -2  -5    1.59    0.31
  -2   5   5    1.62    0.28
   5   2   5    1.61    0.31
  -5  -2   5    2.07    0.29
   2   5  -5    1.35    0.32
   2  -5   5    1.36    0.28
   5  -2  -5    1.84    0.26
  -2  -5  -5    2.24    0.32
  -5  -2   5    1.24    0.32
   2   5  -5    1.51    0.28
  -2  -5  -5    1.34    0.21
   5  -2   5    1.23    0.26
  -2  -5   5    1.67    0.20
   2   5   5    1.83    0.35
  -5  -2  -5    0.96    0.21
   2   5   5    1.14    0.22
   5   2  -5    1.10    0.22
  -5   2   5    1.89    0.26
  -2  -5   5    1.85    0.34
   2  -5  -5    1.84    0.31
  -2   5  -5    1.52    0.25
  -5   2   5    1.78    0.27
   5  -2   5    1.34    0.27
   5   2  -5    1.16    0.29
  -5  -2  -5    2.43    0.38
  -2   5  -5    1.48    0.26
  -4  -5  -5    1.12    0.17
  -4   5   5    1.01    0.26
   5   4   5    1.42    0.30
   5  -4  -5    1.50    0.34
  -4   5   5    1.22    0.28
   5   4   5    1.59    0.20
   5  -4  -5    1.37    0.19
  -5  -4   5    1.10    0.33
   4  -5   5    1.73    0.33
   4  -5   5    1.35    0.20
   4   5  -5    1.94    0.37
   5   4   5    0.42    0.33
   4   5  -5    0.87    0.29
  -4  -5  -5    1.57    0.29
  -5   4  -5    1.19    0.30
   4   5   5    1.60    0.38
  -4  -5   5    1.26    0.18
  -5   4   5    0.92    0.26
   5  -4   5    1.51    0.32
   5  -4   5    1.61    0.22
   5   4  -5    1.42    0.30
   4  -5  -5    1.58    0.34
  -4   5  -5    1.65    0.25
   5   4  -5    1.00    0.32
   5   4  -5    1.48    0.19
   5  -4   5    1.46    0.24
  -5   4   5    1.16    0.26
  -4   5  -5    1.09    0.27
  -4  -5   5    1.13    0.33
   4   5   5    0.84    0.26
  -5  -4  -5    1.39    0.27
   4  -5  -5    1.20    0.15
  -1   6   5   15.04    0.64
  -6   1  -5   15.99    0.39
  -1   6   5   17.39    0.64
   6   1   5   15.10    0.64
  -6  -1   5   16.91    0.61
  -1  -6  -5   16.37    0.65
   1   6  -5   15.46    0.66
   1  -6   5   15.20    0.58
   1  -6   5   15.25    0.58
  -6  -1   5   15.44    0.65
   1   6  -5   15.82    0.61
  -6   1  -5   15.54    0.65
   6  -1  -5   16.31    0.63
   6  -1  -5   15.66    0.61
   6   1   5   15.06    0.53
  -1  -6  -5   15.12    0.54
   6  -1   5   14.62    0.57
  -6   1   5   15.40    0.61
   6  -1   5   14.60    0.62
  -1  -6   5   14.90    0.64
  -1  -6   5   15.57    0.53
   6   1  -5   16.03    0.54
   1   6   5   15.74    0.47
   6   1  -5   15.74    0.67
  -6  -1  -5   15.43    0.50
   1  -6  -5   15.08    0.61
  -1   6  -5   16.03    0.62
  -1   6  -5   15.80    0.58
   1   6   5   15.93    0.69
  -6   1   5   15.86    0.59
   3  -6   5   18.90    0.70
   6  -3  -5   18.89    0.73
   6   3   5   17.21    0.66
  -6  -3   5   19.61    0.72
  -3   6   5   19.07    0.68
  -6   3  -5   19.75    0.71
   3  -6   5   20.02    0.62
   6   3   5   18.52    0.53
   3   6  -5   18.60    0.76
  -3   6   5   19.39    0.71
  -6  -3   5   18.36    0.76
  -3  -6  -5   18.81    0.72
   3   6  -5   17.73    0.69
   6  -3  -5   18.35    0.60
  -3  -6  -5   18.81    0.52
   6  -3   5   19.61    0.67
  -3  -6   5   19.39    0.77
  -3  -6   5   18.90    0.52
  -6  -3  -5   19.28    0.62
  -6  -3  -5   18.43    0.82
  -6   3   5   19.14    0.65
   3   6   5   18.36    0.62
   6  -3   5   17.68    0.69
   6   3  -5   19.02    0.52
   3  -6  -5   18.03    0.72
  -3   6  -5   19.75    0.61
  -6   3   5   19.11    0.67
   6   3  -5   17.37    0.77
  -3   6  -5   19.04    0.70
   5   6  -5    1.19    0.35
   5  -6   5    0.84    0.20
  -5  -6  -5    0.24    0.29
  -6   5  -5    0.89    0.30
   6   5   5    0.24    0.36
   6  -5  -5    0.81    0.18
   6  -5  -5    0.46    0.35
  -5   6   5    0.88    0.31
  -5   6   5    1.01    0.28
   6   5   5    0.79    0.31
   5  -6   5    0.74    0.31
  -6  -5   5    0.97    0.35
   5   6  -5    0.48    0.30
   6   5  -5    0.22    0.31
   6  -5   5    1.06    0.24
  -5   6  -5    0.41    0.23
  -6   5   5    0.96    0.28
  -5   6  -5    0.00    0.31
  -6  -5  -5    0.33    0.27
   5   6   5    0.38    0.28
   5  -6  -5    1.07    0.33
  -6   5   5    0.42    0.28
   6   5  -5    1.20    0.31
   5   6   5    0.73    0.37
   6  -5   5    0.85    0.33
  -5  -6   5    0.81    0.36
   7   0   5   -0.42    0.22
   0   7   5    0.16    0.14
   0   7  -5   -0.08    0.26
   0  -7  -5    0.03    0.28
  -7   0   5    0.33    0.26
   7   0   5    0.16    0.28
   0  -7   5   -0.16    0.27
   0  -7  -5    0.34    0.24
   0   7  -5    0.07    0.26
  -7   0   5   -0.24    0.27
   7   0  -5   -0.24    0.27
   0  -7   5   -0.11    0.21
   7   0  -5    0.14    0.25
  -7   0  -5   -0.20    0.16
  -7   0  -5   -0.37    0.26
   0   7   5    0.49    0.31
  -7  -2   5   69.75    1.66
   2   7  -5   70.63    1.61
  -2  -7  -5   72.62    1.67
  -2  -7  -5   72.21    1.46
   2  -7   5   69.62    1.56
  -2   7   5   69.03    1.62
  -7  -2   5   69.77    1.61
  -7   2  -5   68.59    1.34
  -7   2  -5   69.89    1.67
   7   2   5   70.17    1.44
   2  -7   5   69.95    1.56
   7  -2  -5   71.13    1.61
   7  -2  -5   69.75    1.58
   7   2   5   69.77    1.65
  -2   7   5   68.65    1.63
   2   7  -5   73.08    1.65
  -2  -7   5   70.14    1.67
   7   2  -5   69.22    1.69
   2   7   5   68.65    1.68
  -7   2   5   68.56    1.58
  -7   2   5   72.03    1.60
   7  -2   5   69.26    1.62
  -2   7  -5   70.96    1.53
   2   7   5   71.27    1.49
   7   2  -5   69.70    1.43
   7  -2   5   70.01    1.57
  -2   7  -5   69.39    1.61
  -2  -7   5   73.28    1.45
  -7  -2  -5   68.96    1.70
  -7  -2  -5   70.42    1.51
   2  -7  -5   72.34    1.60
   7  -4  -5   -0.11    0.21
  -7   4  -5    0.30    0.31
   4  -7   5    0.09    0.22
  -7  -4   5    0.07    0.30
   4  -7   5    0.07    0.29
  -7  -4   5    0.05    0.33
   4   7  -5   -0.14    0.33
  -4   7   5    0.15    0.27
   4   7  -5    0.25    0.30
  -4  -7  -5    0.16    0.30
  -4   7   5    0.28    0.29
   7   4   5   -0.06    0.30
   7  -4  -5   -0.03    0.33
   7  -4   5   -0.11    0.30
  -7  -4  -5    0.02    0.25
  -4  -7   5    0.39    0.35
  -7  -4  -5    0.42    0.39
  -7   4   5   -0.16    0.27
   4   7   5   -0.34    0.34
  -4   7  -5   -0.12    0.29
   7  -4   5   -0.11    0.23
   7   4  -5    0.39    0.32
  -4   7  -5    0.32    0.22
   4  -7  -5   -0.23    0.34
   4   7   5    0.08    0.26
  -7   4   5    0.49    0.25
  -7  -6   5   52.14    1.46
   7   6   5   50.91    1.39
   6   7  -5   52.82    1.40
  -7   6  -5   50.94    1.40
   7   6   5   49.68    1.48
  -6   7   5   52.18    1.39
   6  -7   5   49.39    1.35
  -6  -7  -5   50.13    1.37
   6   7  -5   51.38    1.46
  -6   7   5   52.17    1.31
   7  -6  -5   51.22    1.40
   6  -7  -5   50.20    1.42
  -7   6   5   51.37    1.37
  -7  -6  -5   49.43    1.34
   7   6  -5   52.44    1.47
  -6   7  -5   50.69    1.24
   6   7   5   49.39    1.46
  -7   6   5   52.37    1.31
   7   6  -5   51.95    1.37
  -6   7  -5   50.60    1.40
   6   7   5   53.94    1.38
  -6  -7   5   49.49    1.43
   7  -6   5   50.61    1.27
   7  -6   5   51.65    1.39
  -8  -1   5    0.58    0.30
  -1  -8  -5    0.24    0.24
   8  -1  -5    0.82    0.31
   8   1   5    0.77    0.35
   8  -1  -5    0.69    0.30
   1   8  -5    0.78    0.32
  -1   8   5    0.49    0.30
   1  -8   5    0.75    0.28
   8   1   5    0.54    0.23
  -1  -8  -5    0.59    0.30
   1  -8   5    2.05    0.32
  -8   1  -5    0.92    0.36
   1   8  -5    1.40    0.34
  -8  -1   5    0.68    0.32
  -1   8  -5    0.73    0.30
  -8   1   5    1.00    0.32
  -1  -8   5    1.36    0.35
   1  -8  -5    0.90    0.31
  -8  -1  -5    1.06    0.24
   1   8   5    0.84    0.20
   8  -1   5    0.65    0.27
   1  -8  -5    0.56    0.30
  -1   8  -5    0.74    0.28
   8   1  -5    0.66    0.31
  -8  -1  -5    0.96    0.39
  -8   1   5    0.47    0.28
   8   1  -5    0.80    0.27
   1   8   5    0.76    0.35
   8  -1   5    1.19    0.33
  -1  -8   5    0.61    0.24
  -8  -3   5    0.07    0.32
   3  -8   5    0.05    0.25
   3   8  -5    0.01    0.30
   3  -8   5   -0.10    0.30
  -3  -8  -5   -0.18    0.19
   8  -3  -5   -0.07    0.25
  -8  -3   5   -0.21    0.30
  -3  -8  -5    0.37    0.33
  -8   3  -5   -0.12    0.33
  -3   8   5    0.44    0.30
   8  -3  -5    0.29    0.34
   3   8  -5    0.03    0.31
   8   3   5    0.67    0.33
  -3   8   5    0.76    0.33
  -3   8  -5    0.06    0.27
  -3  -8   5    0.10    0.33
  -3  -8   5    0.06    0.20
  -3   8  -5   -0.09    0.22
   3  -8  -5   -0.39    0.32
   8  -3   5    0.33    0.28
   3   8   5    0.05    0.24
  -8   3   5   -0.03    0.26
   8   3  -5   -0.58    0.31
  -8  -3  -5   -0.20    0.38
   3   8   5    0.04    0.35
   8  -3   5    0.23    0.30
  -8   3   5    0.25    0.29
  -8  -3  -5   -0.60    0.24
   5  -8   5    2.84    0.33
  -8   5  -5    2.44    0.44
   5  -8   5    2.30    0.38
   5   8  -5    2.06    0.40
  -8  -5   5    3.10    0.45
  -8  -5   5    2.32    0.45
   5   8  -5    2.96    0.46
   8  -5  -5    3.19    0.47
  -5  -8  -5    2.60    0.43
  -5   8   5    2.53    0.39
  -5   8   5    3.16    0.45
   8   5   5    2.69    0.43
   5   8   5    2.85    0.49
   5   8   5    3.50    0.46
  -8  -5  -5    3.35    0.41
  -8   5   5    3.24    0.43
  -8   5   5    3.01    0.37
   8  -5   5    2.89    0.45
   8   5  -5    2.32    0.47
  -5   8  -5    2.99    0.43
  -5  -8   5    2.48    0.45
   8  -5   5    2.36    0.34
   5  -8  -5    2.07    0.42
  -8  -5  -5    3.23    0.53
  -8   7  -5    0.21    0.42
   8  -7  -5    0.53    0.45
   7   8  -5   -0.30    0.42
   7   8  -5    0.55    0.41
   7  -8   5    0.09    0.38
  -8  -7   5    0.27    0.44
   8   7   5    0.60    0.40
   8   7   5   -0.08    0.37
  -7   8   5    0.75    0.33
  -7   8   5    0.27    0.39
  -7  -8  -5    0.05    0.38
  -7  -8   5    0.21    0.46
   8  -7   5   -0.79    0.36
   8   7  -5    0.65    0.43
  -8   7   5    0.63    0.38
  -8  -7  -5    0.13    0.36
   7  -8  -5    0.84    0.46
  -8   7   5    0.79    0.31
   7   8   5   -0.75    0.44
   8   7  -5    0.36    0.38
  -7   8  -5    0.23    0.38
   7   8   5   -0.22    0.34
  -9   0   5    0.12    0.31
   0  -9   5    0.42    0.26
   9   0  -5    0.32    0.29
  -9   0   5    0.14    0.32
   0  -9  -5   -0.05    0.34
  -9   0  -5   -0.40    0.34
   0   9   5   -0.50    0.33
   0   9  -5   -0.11    0.31
   9   0   5    0.45    0.27
   9   0   5    0.42    0.31
   0   9  -5    0.19    0.30
   0  -9  -5    0.37    0.28
   9   0  -5    0.41    0.34
   0  -9   5    0.60    0.33
   9  -2  -5    2.44    0.39
  -9  -2   5    3.19    0.42
   9   2   5    2.44    0.40
   2  -9   5    3.50    0.47
  -2  -9  -5    2.72    0.31
  -9  -2   5    2.97    0.42
  -2   9   5    2.59    0.43
  -9   2  -5    2.78    0.47
   2  -9   5    2.98    0.38
   9  -2  -5    2.74    0.40
  -2  -9  -5    2.21    0.42
   2   9  -5    2.98    0.44
   2   9  -5    2.50    0.40
   2  -9  -5    3.06    0.42
  -9   2   5    3.59    0.49
  -9  -2  -5    2.61    0.48
   9  -2   5    2.26    0.38
  -9   2   5    2.34    0.39
  -2   9  -5    2.67    0.43
   9  -2   5    2.73    0.38
   2   9   5    2.53    0.44
   9   2  -5    2.01    0.39
  -2  -9   5    3.24    0.44
  -9  -2  -5    2.09    0.33
  -2   9  -5    3.08    0.36
  -2  -9   5    2.61    0.31
   2  -9  -5    2.03    0.40
  -9  -4   5    1.54    0.43
  -9   4  -5    1.16    0.39
   9  -4  -5    1.29    0.41
   9   4   5    1.35    0.38
  -4  -9  -5    1.67    0.41
  -9  -4   5    0.57    0.39
   4   9  -5    1.45    0.39
   4  -9   5    1.66    0.34
  -4   9   5    1.59    0.38
   9  -4  -5    1.24    0.30
   4  -9   5    1.40    0.40
  -4   9   5    0.74    0.36
   4   9  -5    2.33    0.42
  -9   4   5    1.89    0.34
  -9  -4  -5    1.48    0.35
  -4  -9   5    1.39    0.45
   9  -4   5    1.08    0.32
   9   4  -5    2.32    0.48
   4   9   5    1.63    0.33
  -9   4   5    1.54    0.37
   9  -4   5    1.21    0.37
   4   9   5    1.04    0.38
  -4   9  -5    1.64    0.38
  -9  -4  -5    0.90    0.46
   4  -9  -5    1.95    0.44
  -9  -6   5    0.34    0.41
   6  -9   5    0.42    0.40
   9  -6  -5   -0.36    0.36
   9   6   5    0.37    0.40
  -6  -9  -5   -0.28    0.36
  -9   6  -5    0.67    0.39
  -6   9   5    0.31    0.33
   6   9  -5    0.44    0.41
  -6   9   5    0.19    0.40
   6   9  -5    0.57    0.42
  -9  -6   5   -0.53    0.42
   9  -6   5   -0.35    0.33
  -9   6   5    0.52    0.32
  -9  -6  -5    0.04    0.36
   9   6  -5    0.19    0.39
   6  -9  -5    0.34    0.43
  -9   6   5   -0.06    0.36
  -6  -9   5   -0.05    0.44
   6   9   5   -0.13    0.43
   9  -6   5   -0.14    0.28
   6   9   5   -0.41    0.32
  -9  -6  -5    0.03    0.48
  -6   9  -5    0.42    0.40
   8  -9   5    4.07    0.59
  -9  -8   5    4.47    0.62
   8   9  -5    3.64    0.56
  -8  -9  -5    4.42    0.58
  -9   8  -5    3.52    0.55
  -8   9   5    3.00    0.45
   9   8   5    4.28    0.64
  -8   9   5    4.33    0.57
   9   8   5    5.73    0.68
   9  -8  -5    3.65    0.58
   8   9  -5    4.02    0.60
   8  -9  -5    3.81    0.55
   8   9   5    3.19    0.53
   9  -8   5    3.03    0.51
  -9   8   5    4.36    0.59
  -8   9  -5    3.22    0.59
   8   9   5    3.80    0.64
   9   8  -5    2.71    0.53
  -9  -8  -5    4.90    0.71
   9   8  -5    3.57    0.62
  -8  -9   5    3.33    0.64
  -9   8   5    3.85    0.56
 -10  -1   5    0.33    0.36
  -1 -10  -5    0.42    0.29
  10  -1  -5    0.94    0.36
   1  10  -5    0.35    0.37
   1 -10   5    0.79    0.37
  10   1   5    0.10    0.38
   1 -10   5    0.61    0.30
   1  10  -5    0.05    0.33
 -10   1  -5   -0.26    0.41
  10  -1  -5    0.24    0.33
 -10  -1   5    0.19    0.35
  -1  10   5    0.47    0.40
  -1 -10  -5    0.07    0.34
  -1 -10   5    0.20    0.38
   1  10   5   -0.33    0.41
 -10   1   5    0.19    0.37
   1 -10  -5    0.58    0.39
  -1  10  -5    0.78    0.37
 -10  -1  -5    0.11    0.41
 -10   1   5   -0.30    0.31
  10  -1   5    0.18    0.30
  -1 -10   5    0.32    0.27
   1 -10  -5    0.58    0.35
  10   1  -5    0.04    0.40
  10  -1   5    0.42    0.35
  -3  10   5   13.05    0.82
 -10  -3   5   15.75    0.84
  -3 -10  -5   13.92    0.83
 -10  -3   5   13.19    0.79
   3 -10   5   13.95    0.72
  10  -3  -5   13.38    0.78
 -10   3  -5   13.00    0.84
  10  -3  -5   13.20    0.72
  10   3   5   14.35    0.80
   3 -10   5   13.72    0.77
   3  10  -5   14.16    0.81
   3  10  -5   12.55    0.76
 -10   3   5   14.49    0.80
  10  -3   5   14.04    0.73
   3 -10  -5   12.36    0.76
  -3 -10   5   13.26    0.84
  10   3  -5   13.19    0.79
 -10  -3  -5   12.53    0.91
  -3  10  -5   13.07    0.80
   3 -10  -5   13.38    0.77
 -10   3   5   13.24    0.69
   3  10   5   13.75    0.82
  10  -3   5   13.33    0.74
  10  -5  -5    0.01    0.43
 -10  -5   5    0.65    0.43
 -10   5  -5    0.86    0.44
   5  10  -5    0.75    0.43
  -5  10   5    1.38    0.46
   5  10  -5    0.08    0.42
  10   5   5    0.81    0.43
 -10  -5   5    0.82    0.45
  -5  10   5    0.50    0.37
   5 -10   5    0.65    0.41
  -5 -10  -5    0.59    0.43
 -10   5   5    0.65    0.33
 -10  -5  -5    0.81    0.39
  10  -5   5    0.51    0.39
  10  -5   5    0.16    0.32
  -5  10  -5   -0.07    0.40
 -10  -5  -5    0.75    0.53
   5 -10  -5    0.29    0.44
   5  10   5    1.65    0.50
  -5 -10   5    0.87    0.45
  10   5  -5    1.41    0.43
 -10   5   5    0.91    0.41
  10   7   5    4.94    0.71
 -10   7  -5    5.89    0.78
  10  -7  -5    7.35    0.85
  -7 -10  -5    6.21    0.82
 -10  -7   5    4.18    0.64
 -10  -7   5    4.43    0.60
  -7  10   5    6.81    0.78
   7  10  -5    5.81    0.76
  -7  10   5    5.38    0.63
   7 -10   5    5.13    0.62
   7  10  -5    4.22    0.59
  -7  10  -5    5.81    0.78
 -10  -7  -5    5.67    0.73
  10  -7   5    5.62    0.77
  -7 -10   5    6.11    0.84
   7  10   5    5.61    0.77
   7 -10  -5    4.83    0.63
   7  10   5    5.36    0.67
  10   7  -5    6.91    0.81
 -10   7   5    5.09    0.60
 -10  -7  -5    5.40    0.74
 -10   9  -5    4.88    0.67
 -10  -9   5    5.21    0.73
   9 -10   5    5.47    0.75
 -10  -9   5    5.25    0.68
  -9  10   5    6.03    0.84
  -9 -10  -5    4.59    0.66
  10  -9  -5    5.06    0.72
   9  10  -5    5.02    0.67
  10   9   5    5.90    0.75
  10   9   5    5.26    0.65
   9  10  -5    5.23    0.65
  10   9  -5    4.85    0.65
   9  10   5    5.69    0.75
  10  -9   5    4.75    0.68
  -9  10  -5    5.38    0.70
  10   9  -5    5.12    0.71
  -9 -10   5    5.41    0.71
   9 -10  -5    4.90    0.68
   9  10   5    4.15    0.60
 -10   9   5    3.99    0.65
 -10  -9  -5    5.50    0.80
   0 -11   5   -0.34    0.29
  11   0  -5    0.42    0.42
 -11   0   5    0.05    0.36
   0  11  -5   -0.23    0.37
 -11   0   5    0.11    0.39
   0 -11   5    0.66    0.41
   0 -11  -5    0.02    0.41
 -11   0  -5   -0.03    0.44
   0 -11  -5    0.58    0.34
   0  11   5    1.25    0.46
  11   0   5    0.29    0.37
   2  11  -5   60.04    1.70
  11   2   5   61.43    1.75
  11  -2  -5   63.01    1.68
 -11  -2   5   61.18    1.68
  -2 -11  -5   62.22    1.73
 -11   2  -5   60.98    1.78
  11  -2  -5   62.27    1.62
  -2  11   5   60.07    1.69
 -11  -2   5   62.87    1.68
   2 -11   5   62.18    1.58
   2 -11   5   61.84    1.62
   2 -11  -5   64.84    1.62
   2 -11  -5   60.60    1.69
 -11  -2  -5   65.79    1.85
  11  -2   5   63.62    1.69
 -11   2   5   62.13    1.67
  11   2  -5   62.94    1.76
   2  11   5   59.68    1.73
 -11   2   5   60.76    1.59
  -2  11  -5   58.37    1.66
  -2 -11   5   60.63    1.71
  11  -2   5   61.65    1.59
   4  11  -5    0.17    0.39
 -11   4  -5    0.26    0.41
  11  -4  -5    0.02    0.43
   4  11  -5   -0.03    0.42
   4 -11   5   -0.02    0.38
  -4  11   5    0.58    0.45
  11   4   5    0.63    0.45
 -11  -4   5    0.46    0.45
  -4 -11  -5   -0.68    0.37
 -11  -4   5    0.20    0.42
  11   4  -5    0.50    0.48
  11  -4   5    0.30    0.39
 -11  -4  -5    0.98    0.53
   4 -11  -5    0.26    0.41
   4  11   5   -0.56    0.45
  11  -4   5   -0.12    0.34
  -4 -11   5   -0.26    0.45
 -11   4   5    0.43    0.42
  -4  11  -5   -0.30    0.41
   4 -11  -5    0.30    0.40
  -6  11   5   28.57    1.12
 -11   6  -5   28.93    1.24
   6  11  -5   30.61    1.23
 -11  -6   5   27.64    1.20
  -6 -11  -5   27.67    1.19
  11  -6  -5   28.28    1.19
  -6  11   5   28.36    1.22
 -11  -6   5   30.53    1.23
   6  11  -5   28.96    1.24
  11   6   5   28.97    1.21
   6 -11   5   27.39    1.16
  11   6  -5   29.74    1.27
 -11   6   5   28.30    1.21
  11  -6   5   29.63    1.19
  -6  11  -5   27.55    1.17
   6  11   5   29.48    1.31
  -6 -11   5   25.54    1.24
 -11  -6  -5   30.50    1.34
   6 -11  -5   27.55    1.20
   8 -11   5   -0.02    0.51
 -11  -8   5   -0.03    0.53
  11  -8  -5    0.15    0.52
  11   8   5   -0.34    0.42
   8  11  -5    0.13    0.51
  -8 -11  -5    0.22    0.50
   8  11  -5    0.25    0.50
 -11   8  -5    0.22    0.52
  -8  11   5   -0.60    0.49
 -11  -8   5   -0.68    0.49
 -11  -8  -5   -0.29    0.45
 -11  -8  -5    0.12    0.55
   8  11   5    0.32    0.55
  -8  11  -5   -0.43    0.50
 -11   8   5   -0.13    0.50
  11  -8   5   -0.08    0.49
   8 -11  -5   -0.24    0.50
   8  11   5    0.46    0.44
  11   8  -5   -0.27    0.45
  -8 -11   5   -0.45    0.55
 -10 -11  -5   18.86    1.17
  11 -10  -5   20.12    1.25
 -11 -10   5   19.51    1.14
 -10  11   5   17.35    1.14
  10  11  -5   18.52    1.23
  11  10   5   19.37    1.10
 -11  10  -5   19.30    1.22
  10  11  -5   19.57    1.18
 -11 -10   5   19.46    1.31
  10 -11   5   21.68    1.20
  11 -10   5   20.18    1.19
 -10 -11   5   16.90    1.26
 -10  11  -5   21.32    1.25
 -11 -10  -5   20.02    1.30
  10  11   5   18.70    1.07
  11  10  -5   20.47    1.25
 -11  10   5   17.54    1.17
 -11 -10  -5   20.51    1.21
  10  11   5   20.91    1.27
  10 -11  -5   19.93    1.16
   1  12  -5    1.54    0.49
   1 -12   5    0.79    0.37
 -12   1  -5    0.24    0.44
  -1  12   5    1.22    0.51
  12  -1  -5    0.45    0.45
 -12  -1   5    1.08    0.48
  12   1   5    0.23    0.43
   1 -12   5    0.85    0.44
 -12  -1   5    1.24    0.45
  -1 -12  -5    0.86    0.47
 -12   1   5    1.01    0.48
  12  -1   5    1.39    0.47
   1 -12  -5    0.56    0.39
  12   1  -5    1.70    0.50
  -1 -12   5    1.47    0.48
 -12  -1  -5    0.90    0.56
   1  12   5    0.48    0.45
   1 -12  -5    1.32    0.48
  -1  12  -5    1.04    0.48
 -12  -3   5    0.06    0.44
  -3 -12  -5   -0.35    0.45
  12  -3  -5    0.27    0.43
  12  -3  -5    0.01    0.39
 -12   3  -5    0.08    0.47
   3 -12   5   -0.27    0.39
   3 -12   5    0.07    0.38
   3  12  -5   -0.06    0.45
  -3  12   5    0.40    0.47
  12   3   5   -0.83    0.46
 -12  -3   5    0.12    0.46
 -12   3   5   -0.01    0.45
  12  -3   5   -0.17    0.42
   3 -12  -5    0.08    0.43
  -3 -12   5    0.19    0.46
  12  -3   5   -0.77    0.35
  12   3  -5    0.37    0.50
  -3  12  -5   -0.13    0.45
   3 -12  -5   -0.87    0.39
   3  12   5   -0.41    0.46
 -12  -3  -5    0.17    0.55
  12   5   5    2.57    0.56
 -12  -5   5    4.09    0.62
 -12   5  -5    3.19    0.58
 -12  -5   5    3.09    0.58
  -5 -12  -5    4.22    0.64
   5  12  -5    3.12    0.59
  12  -5  -5    2.85    0.57
  -5  12   5    2.92    0.60
   5 -12   5    2.92    0.53
  12   5  -5    2.38    0.60
   5  12   5    2.82    0.66
  -5  12  -5    3.37    0.59
   5 -12  -5    2.84    0.55
  12  -5   5    2.92    0.56
  -5 -12   5    2.05    0.53
 -12   5   5    2.69    0.57
  12  -5   5    2.70    0.47
   5 -12  -5    3.36    0.57
 -12  -5  -5    2.58    0.64
 -12  -7   5   -0.40    0.51
 -12  -7   5    0.17    0.50
   7 -12   5   -0.09    0.49
  12  -7  -5    0.31    0.50
  12   7   5   -0.61    0.48
   7  12  -5    0.12    0.51
 -12   7  -5    0.20    0.51
  -7  12   5    0.33    0.52
   7  12  -5    0.05    0.52
  -7 -12  -5   -0.22    0.52
  -7 -12   5   -0.49    0.55
   7  12   5   -0.16    0.52
 -12  -7  -5   -0.47    0.58
  12   7  -5    0.59    0.56
  12  -7   5    0.37    0.49
  -7  12  -5   -0.10    0.52
 -12   7   5   -0.61    0.48
   7 -12  -5    0.25    0.45
   7 -12  -5   -0.31    0.52
 -12  -9   5    5.20    0.72
   9 -12   5    3.21    0.69
 -12  -9   5    4.55    0.76
  -9 -12  -5    4.23    0.73
  12   9   5    3.46    0.64
   9  12  -5    3.94    0.67
   9  12  -5    3.49    0.68
  12  -9  -5    4.00    0.75
 -12   9  -5    3.89    0.75
  -9  12   5    4.18    0.72
  12  -9   5    2.56    0.67
  -9 -12   5    3.51    0.73
 -12   9   5    5.45    0.74
  -9  12  -5    3.25    0.68
  12   9  -5    4.43    0.76
   9 -12  -5    4.33    0.76
 -12  -9  -5    4.43    0.79
   9  12   5    3.41    0.74
  11  12  -5    0.82    0.65
 -11 -12  -5    0.13    0.62
  12  11   5    0.10    0.57
  11  12  -5    0.05    0.59
 -12 -11  -5    0.67    0.64
   0  13  -5   -0.63    0.43
   0 -13   5   -0.12    0.44
 -13   0   5    0.66    0.51
  13   0   5   -0.25    0.45
 -13   0  -5    0.03    0.53
  13   0  -5    0.27    0.50
   0  13   5   -0.93    0.46
   0 -13  -5   -0.55    0.46
   2 -13   5    2.83    0.48
  -2 -13  -5    3.41    0.60
 -13   2  -5    2.50    0.59
   2 -13   5    2.37    0.54
  13  -2  -5    3.46    0.58
 -13  -2   5    2.29    0.56
  -2  13   5    3.01    0.61
   2  13  -5    2.77    0.61
  13   2   5    3.16    0.62
  -2  13  -5    1.86    0.49
 -13  -2  -5    2.52    0.65
  13  -2   5    2.26    0.53
  -2 -13   5    2.65    0.58
   2 -13  -5    3.82    0.59
   2 -13  -5    2.46    0.49
 -13   2   5    3.00    0.58
   2  13   5    2.62    0.62
  13   2  -5    2.90    0.57
 -13  -4   5    1.01    0.50
  -4 -13  -5    1.55    0.58
  -4  13   5    1.32    0.54
   4 -13   5    1.78    0.50
  13  -4  -5    1.30    0.52
 -13  -4   5    2.05    0.58
  13   4   5    1.58    0.58
 -13   4  -5    1.17    0.57
   4  13  -5    1.97    0.59
   4  13   5    1.37    0.58
   4 -13  -5    1.16    0.52
   4 -13  -5    1.38    0.53
  13  -4   5    0.57    0.47
  13   4  -5    1.63    0.61
  13  -4   5    1.61    0.48
 -13   4   5    1.05    0.54
  -4  13  -5    1.94    0.56
  -4 -13   5    0.87    0.58
 -13  -4  -5    1.07    0.63
 -13  -6   5    6.13    0.85
  13  -6  -5    4.27    0.69
  13   6   5    5.09    0.72
   6  13  -5    4.88    0.73
  -6  13   5    4.94    0.72
  -6 -13  -5    4.86    0.73
   6 -13   5    5.71    0.70
 -13   6  -5    3.48    0.62
 -13  -6   5    5.58    0.72
  13  -6   5    6.11    0.86
   6 -13  -5    6.78    0.87
   6 -13  -5    6.47    0.77
   6  13   5    6.26    0.80
  -6  13  -5    5.65    0.74
  -6 -13   5    4.36    0.71
 -13   6   5    4.52    0.68
 -13  -6  -5    3.64    0.72
  13   6  -5    4.52    0.67
   8 -13   5    2.24    0.63
  13   8   5    3.52    0.69
   8  13  -5    3.33    0.69
  -8 -13  -5    2.45    0.67
  -8  13   5    2.38    0.70
  13  -8  -5    2.30    0.66
 -13   8  -5    2.89    0.70
 -13  -8   5    3.04    0.68
 -13  -8  -5    3.87    0.77
   8  13   5    2.18    0.70
   8 -13  -5    1.65    0.67
 -13   8   5    3.62    0.71
  13  -8   5    2.81    0.66
  -8  13  -5    2.19    0.64
  -8 -13   5    3.49    0.73
  13   8  -5    2.21    0.63
  10  13  -5    0.61    0.59
  10  13  -5   -0.07    0.56
 -14  -1   5    0.59    0.51
  14   1   5    1.85    0.58
 -14   1  -5    1.32    0.63
  -1  14   5    1.13    0.58
  14  -1  -5    0.56    0.50
   1  14  -5    0.57    0.54
   1 -14   5    0.89    0.51
  -1 -14  -5    0.94    0.53
  -1  14  -5    1.15    0.57
   1 -14  -5    0.95    0.53
 -14   1   5    1.04    0.55
 -14  -1  -5    1.72    0.64
  -1 -14   5    1.70    0.58
   1  14   5    0.62    0.58
  14   1  -5   -0.48    0.52
  14  -1   5    1.30    0.54
  -3  14   5    1.74    0.61
   3  14  -5    2.04    0.58
 -14  -3   5    1.07    0.55
 -14   3  -5    0.64    0.55
  14   3   5    0.59    0.53
  -3 -14  -5    1.34    0.59
   3 -14   5    0.39    0.46
   3  14   5    1.41    0.63
   3 -14  -5    0.54    0.49
  14  -3   5    0.42    0.47
  -3  14  -5    0.83    0.50
   3 -14  -5    2.05    0.58
 -14   3   5    0.29    0.53
  14   3  -5    1.33    0.57
  -3 -14   5    0.62    0.56
 -14  -3  -5    1.19    0.66
   5 -14   5    3.95    0.64
  14  -5  -5    5.33    0.70
   5  14  -5    5.96    0.77
  -5  14   5    4.87    0.73
 -14  -5   5    5.51    0.75
  14   5   5    5.27    0.78
 -14   5  -5    5.10    0.77
  -5 -14  -5    5.15    0.76
   5  14   5    6.31    0.84
  -5 -14   5    5.23    0.74
 -14   5   5    4.75    0.71
 -14  -5  -5    4.42    0.83
  14   5  -5    5.68    0.81
   5 -14  -5    5.26    0.71
   5 -14  -5    7.56    0.93
  -5  14  -5    6.14    0.78
  14  -5   5    5.51    0.72
   7 -14   5    3.54    0.69
 -14  -7   5    3.99    0.71
 -14   7  -5    4.19    0.77
  -7 -14  -5    4.24    0.76
  -7  14   5    4.47    0.74
  14  -7  -5    3.55    0.70
   7  14  -5    4.40    0.73
  14   7   5    4.18    0.77
 -14  -7  -5    4.20    0.82
 -14   7   5    3.96    0.73
   7  14   5    3.83    0.77
  -7  14  -5    4.66    0.77
  14   7  -5    3.41    0.66
  14  -7   5    3.48    0.67
  -7 -14   5    4.61    0.81
   7 -14  -5    3.90    0.72
   9  14  -5    0.68    0.64
  15   0  -5   -0.72    0.49
   0 -15   5    1.08    0.55
  15   0   5    0.03    0.54
 -15   0   5    0.10    0.54
   0 -15  -5    0.40    0.54
   0  15   5   -0.10    0.58
   0  15  -5   -0.02    0.55
 -15   0  -5   -0.49    0.56
  -2  15   5   32.07    1.48
 -15  -2   5   32.73    1.45
  15   2   5   32.79    1.47
 -15   2  -5   32.56    1.52
  -2 -15  -5   35.73    1.52
   2  15  -5   36.81    1.54
   2  15   5   33.09    1.55
  15   2  -5   32.91    1.50
 -15  -2  -5   34.42    1.60
  15  -2   5   32.03    1.40
   2 -15  -5   34.68    1.44
  -2  15  -5   32.46    1.43
  -2 -15   5   36.11    1.48
 -15   2   5   32.28    1.43
  15   4   5   -0.33    0.59
  -4  15   5   -0.12    0.55
 -15   4  -5    0.33    0.58
   4 -15   5   -0.23    0.47
  -4 -15  -5   -0.05    0.56
   4  15  -5   -0.33    0.57
  15   4  -5    0.53    0.62
  -4  15  -5    0.72    0.55
 -15   4   5   -0.30    0.54
  -4 -15   5    0.32    0.59
 -15  -4  -5    1.55    0.70
   4 -15  -5    0.16    0.52
   4  15   5   -0.62    0.55
   4 -15  -5    0.34    0.57
   6  15  -5   29.24    1.46
  15  -6  -5   27.80    1.35
   6 -15   5   29.07    1.38
   6 -15  -5   26.96    1.37
  15  -6   5   30.88    1.39
 -15   6   5   27.60    1.44
   1 -16   5    0.28    0.56
   1  16  -5    0.21    0.59
  16  -1  -5    0.12    0.56
  16   1   5   -0.44    0.56
   1 -16  -5    0.17    0.61
  -1 -16   5    0.89    0.60
  -1  16  -5    0.66    0.60
  16  -1   5    0.53    0.59
  16   1  -5    1.12    0.63
   3  16  -5    0.76    0.65
 -16   3   5   -0.33    0.60
  16  -3   5    0.11    0.56
   3 -16  -5    1.24    0.61
   0   0  -6   -0.03    0.19
   0   0   6   -0.04    0.23
   0   0   6    0.05    0.19
   0   0  -6   -0.02    0.13
  -1  -1   6   22.75    0.63
   1   1   6   21.90    0.58
  -1  -1   6   21.36    0.59
  -1   1   6   21.41    0.59
   1   1   6   22.34    0.56
   1   1  -6   22.61    0.65
  -1   1  -6   22.01    0.62
   1   1   6   21.38    0.60
   1  -1   6   22.94    0.63
  -1   1   6   22.21    0.50
   1   1   6   21.26    0.63
  -1   1   6   22.15    0.63
  -1   1  -6   21.15    0.54
   1  -1  -6   21.66    0.58
   1  -1   6   21.72    0.53
  -2   0   6   -0.28    0.24
  -2   0   6    0.23    0.21
   2   0   6    0.07    0.13
   0  -2   6   -0.35    0.19
  -2   0   6    0.27    0.11
   2   0  -6    0.31    0.24
  -2   0  -6    0.07    0.21
   0   2   6    0.10    0.21
   0   2  -6   -0.15    0.14
   2   0   6    0.19    0.23
   0   2   6   -0.41    0.23
   0   2   6    0.19    0.21
   0  -2   6    0.13    0.21
   0  -2  -6    0.11    0.16
   0   2  -6    0.17    0.25
   2   0   6    0.20    0.23
   2   2   6   -0.17    0.18
  -2   2  -6    0.20    0.20
   2   2   6   -0.12    0.26
   2   2  -6    0.22    0.17
  -2   2   6    0.14    0.17
   2  -2   6   -0.07    0.21
   2   2   6    0.05    0.21
  -2  -2   6   -0.25    0.26
   2   2  -6   -0.17    0.28
   2  -2  -6   -0.07    0.25
   2  -2   6    0.21    0.14
  -2   2  -6    0.05    0.23
   2  -2  -6   -0.09    0.18
   2   2   6   -0.14    0.23
  -2   2   6    0.28    0.23
  -2  -2   6    0.25    0.22
   1   3  -6   38.97    0.84
  -1  -3  -6   38.78    0.91
  -3   1  -6   37.76    0.92
   3   1   6   37.08    0.87
   3   1   6   39.80    0.94
   1  -3   6   38.84    0.87
  -1   3   6   38.55    0.89
   3  -1  -6   39.15    0.92
   1  -3   6   40.05    0.92
   1   3  -6   38.35    0.97
  -3  -1   6   38.37    0.97
  -3  -1   6   38.53    0.82
   3  -1  -6   37.14    0.96
  -3  -1   6   36.83    0.88
   3  -1   6   39.00    0.94
   3  -1   6   38.45    0.90
   1  -3  -6   38.44    0.79
  -3   1   6   37.54    0.95
   3   1  -6   39.32    0.92
  -1   3  -6   39.02    0.93
  -1   3  -6   37.05    0.86
   1   3   6   36.84    0.95
   1   3   6   38.68    0.92
   1  -3  -6   39.85    0.95
  -3   1   6   38.59    0.82
   3   1  -6   37.35    0.98
  -3  -1  -6   36.49    0.96
  -1  -3   6   39.30    0.97
  -1  -3   6   38.89    0.87
  -3  -1  -6   37.95    0.82
  -3   3   6   49.82    1.12
   3   3   6   52.03    1.09
  -3  -3   6   50.30    1.24
   3  -3   6   51.50    1.18
  -3  -3  -6   50.37    1.14
   3  -3  -6   49.66    1.21
   3   3   6   50.95    1.25
   3   3  -6   51.14    1.11
   3  -3   6   53.10    1.01
   3  -3  -6   50.37    1.05
  -3   3  -6   50.70    1.16
   3  -3   6   50.30    1.15
  -3  -3   6   50.37    1.06
   3   3  -6   50.50    1.25
  -3   3   6   51.58    1.18
  -3   3  -6   50.03    1.15
   4   0  -6    0.01    0.27
   0   4   6    0.28    0.14
   0  -4  -6    0.31    0.25
  -4   0   6    0.01    0.25
   0   4   6    0.17    0.24
   0  -4   6    0.14    0.21
   0   4   6    0.20    0.24
  -4   0   6    0.27    0.19
   0   4  -6    0.01    0.24
  -4   0  -6    0.48    0.28
   0   4  -6    0.20    0.21
   0  -4   6   -0.14    0.24
   4   0   6    0.28    0.25
  -4   0  -6    0.51    0.12
   4   0   6    0.41    0.24
   4   0  -6    0.59    0.26
  -4   2  -6    0.94    0.28
  -2  -4  -6    0.48    0.21
   2  -4   6    0.46    0.20
   2   4  -6    0.37    0.27
   2   4  -6    0.56    0.22
  -2  -4  -6    0.63    0.24
  -4  -2   6    0.54    0.27
  -4  -2   6    0.48    0.22
  -2   4   6    0.34    0.23
   4   2   6    0.74    0.21
   4  -2  -6    0.14    0.29
   2  -4   6    0.23    0.23
  -2   4   6    0.10    0.25
   4  -2  -6    0.62    0.22
   4   2   6    0.62    0.26
  -2   4  -6    0.18    0.22
  -2   4  -6    0.65    0.23
   2   4   6    0.49    0.20
   2  -4  -6    0.04    0.28
  -2  -4   6    0.83    0.27
   4   2  -6    0.93    0.24
   2   4   6    0.35    0.29
   2  -4  -6    0.33    0.12
   2   4   6    0.45    0.25
  -4  -2  -6    1.05    0.34
   4  -2   6    0.19    0.22
   4  -2   6    0.61    0.24
  -4  -2  -6    0.30    0.18
   4   2  -6    0.67    0.32
  -4   2   6    0.46    0.25
  -2  -4   6    0.75    0.19
  -4   2   6    0.45    0.21
  -4  -4  -6    0.07    0.22
   4   4   6   -0.13    0.32
  -4  -4   6    0.12    0.17
   4   4   6   -0.07    0.18
   4  -4   6   -0.05    0.20
   4   4  -6   -0.04    0.23
   4   4  -6    0.47    0.34
   4  -4  -6    0.77    0.29
  -4   4   6   -0.05    0.22
   4   4   6   -0.05    0.22
   4  -4   6   -0.18    0.23
  -4  -4   6    0.07    0.30
  -4   4   6   -0.32    0.23
  -4   4  -6   -0.12    0.21
   4  -4  -6   -0.05    0.14
   4  -4   6   -0.11    0.14
  -4   4  -6   -0.31    0.22
   5  -1  -6    7.96    0.47
   1  -5   6    7.60    0.45
  -5   1  -6    7.76    0.53
  -1  -5  -6    7.42    0.43
  -5  -1   6    8.22    0.44
   5  -1  -6    7.57    0.49
   5   1   6    7.93    0.42
  -1   5   6    7.55    0.48
   1   5  -6    8.19    0.51
  -1   5   6    7.75    0.48
   1  -5   6    8.06    0.46
   1   5  -6    7.21    0.44
  -5  -1   6    7.55    0.51
   5   1   6    7.78    0.50
   5  -1   6    8.22    0.48
  -1  -5   6    7.54    0.40
   1  -5  -6    7.84    0.23
  -1   5  -6    7.75    0.45
   1   5   6    7.07    0.49
   5   1  -6    7.57    0.54
  -1  -5   6    7.36    0.50
  -5  -1  -6    8.20    0.57
  -5  -1  -6    8.24    0.34
  -5   1   6    8.32    0.49
  -5   1   6    7.60    0.43
   1   5   6    6.56    0.51
  -1   5  -6    7.71    0.48
   1  -5  -6    7.34    0.49
   5  -1   6    8.33    0.47
   5   1  -6    8.21    0.45
   3   5  -6   16.87    0.71
  -3   5   6   16.37    0.62
  -3  -5  -6   16.13    0.50
   3  -5   6   17.13    0.52
   3  -5   6   16.65    0.64
   5   3   6   14.95    0.51
   5  -3  -6   14.98    0.63
  -3   5   6   15.18    0.62
   5   3   6   16.03    0.68
  -3  -5  -6   14.56    0.62
   5   3   6   15.31    0.64
  -5   3  -6   15.56    0.65
   5  -3  -6   16.22    0.53
  -5  -3   6   14.99    0.62
  -5  -3   6   15.87    0.71
   3   5  -6   14.15    0.58
   5   3  -6   15.86    0.71
   5  -3   6   16.50    0.59
   5   3  -6   16.28    0.59
  -5  -3  -6   14.62    0.54
   3   5   6   16.03    0.57
  -3   5  -6   16.12    0.57
  -3  -5   6   15.54    0.70
  -5   3   6   14.86    0.59
  -3   5  -6   16.61    0.62
   3  -5  -6   15.36    0.68
  -3  -5   6   15.60    0.47
   3   5   6   14.63    0.67
  -5   3   6   15.01    0.57
   5   3  -6   16.66    0.51
   5  -5  -6    0.54    0.14
  -5  -5  -6    0.96    0.27
  -5  -5   6    0.45    0.30
   5   5   6    0.65    0.28
  -5  -5  -6    0.62    0.18
   5  -5   6    0.57    0.31
   5  -5  -6    0.69    0.30
  -5   5  -6    0.35    0.26
  -5   5   6    0.41    0.26
   5   5  -6    0.46    0.28
  -5   5   6    0.55    0.28
   5   5  -6    0.34    0.35
   5   5   6    0.91    0.39
   5  -5   6    0.70    0.17
  -5   5  -6    0.68    0.25
  -5  -5   6    0.32    0.16
   0   6  -6    1.24    0.28
   0   6   6    0.90    0.30
   0   6   6    0.95    0.15
   0   6   6    1.07    0.30
  -6   0   6    1.07    0.26
   6   0  -6    1.01    0.28
   0  -6   6    1.06    0.29
   0  -6   6    1.45    0.26
  -6   0  -6    1.02    0.17
   0   6  -6    1.84    0.30
   0  -6  -6    0.85    0.26
   6   0  -6    1.21    0.33
   6   0   6    1.78    0.28
   6   0   6    1.76    0.32
  -6   0   6    1.20    0.30
  -6   0  -6    0.56    0.27
  -2   6   6    0.11    0.25
   2  -6   6    0.33    0.23
  -2   6   6    0.02    0.25
  -2  -6  -6    0.05    0.28
   6  -2  -6   -0.12    0.23
   6   2   6    0.14    0.20
   2  -6   6    0.23    0.25
  -2  -6  -6    0.02    0.19
  -6  -2   6    0.16    0.28
   6   2   6    0.46    0.29
  -6  -2   6   -0.05    0.24
  -6   2  -6    0.09    0.30
   6  -2  -6    0.23    0.29
   2   6  -6    0.25    0.29
   2   6  -6    0.16    0.24
  -6   2   6   -0.19    0.24
   2  -6  -6    0.04    0.28
  -2  -6   6   -0.34    0.18
   6  -2   6   -0.02    0.24
  -6  -2  -6   -0.51    0.31
  -2   6  -6   -0.11    0.23
   2   6   6    0.00    0.30
  -2   6  -6   -0.07    0.23
  -6  -2  -6   -0.07    0.17
  -6   2   6    0.44    0.24
   6   2  -6    0.01    0.20
  -2  -6   6    0.04    0.28
   6   2  -6   -0.26    0.30
   2   6   6   -0.04    0.20
   6  -2   6    0.00    0.24
  -4   6   6   -0.32    0.24
   4  -6   6    0.22    0.20
  -4  -6  -6    0.43    0.28
   6   4   6   -0.10    0.28
   4  -6   6   -0.07    0.27
   6  -4  -6    0.16    0.20
  -4  -6  -6    0.49    0.17
  -6  -4   6    0.33    0.33
   4   6  -6    0.37    0.27
  -4   6   6    0.18    0.27
   6   4   6    0.20    0.19
   6   4   6   -0.44    0.33
  -6   4  -6    0.04    0.27
   4   6  -6    0.18    0.32
   6  -4  -6    0.41    0.29
  -4  -6   6    0.22    0.32
   6  -4   6    0.27    0.26
  -6   4   6   -0.13    0.25
   6  -4   6    0.21    0.22
  -6   4   6    0.05    0.26
   6   4  -6   -0.01    0.33
  -4   6  -6    0.01    0.27
  -6  -4  -6    0.31    0.22
   4   6   6    0.00    0.24
  -4   6  -6    0.03    0.22
   4  -6  -6    0.17    0.31
   4   6   6   -0.01    0.29
   6   4  -6   -0.14    0.16
   6   4  -6    0.39    0.27
  -4  -6   6    0.28    0.16
  -6   6  -6    0.60    0.31
  -6   6   6   -0.12    0.27
   6  -6  -6    0.71    0.39
  -6  -6  -6   -0.39    0.27
  -6   6  -6    0.21    0.25
   6   6  -6    0.14    0.36
   6   6   6   -0.21    0.28
   6   6  -6   -0.03    0.29
  -6  -6   6   -0.10    0.35
  -6   6   6   -0.42    0.28
   6  -6   6    0.24    0.31
   6   6   6   -0.02    0.37
  -7   1  -6   34.11    1.03
  -7  -1   6   35.36    1.03
  -7   1  -6   35.83    0.73
   7  -1  -6   34.63    1.00
  -1   7   6   34.32    1.03
   7  -1  -6   36.26    0.99
   1   7  -6   35.56    1.02
   7   1   6   35.23    1.04
   1  -7   6   36.19    0.98
  -1   7   6   34.98    1.02
  -7  -1   6   34.65    0.96
   1   7  -6   36.55    0.99
   7   1   6   34.84    0.89
   1  -7   6   35.59    0.95
  -1  -7  -6   33.43    1.02
  -1  -7  -6   34.62    0.91
   1  -7  -6   36.18    0.97
   1   7   6   35.96    0.82
   7   1  -6   35.58    0.91
  -1   7  -6   35.33    0.99
  -7   1   6   34.15    1.00
   7   1  -6   34.28    1.06
  -7  -1  -6   35.66    0.85
  -1  -7   6   34.04    0.89
   7  -1   6   34.87    1.01
  -1  -7   6   33.41    1.01
   1   7   6   37.07    1.06
   7  -1   6   33.32    0.95
  -7   1   6   33.49    0.96
  -1   7  -6   35.14    0.95
  -3  -7  -6   24.03    0.86
  -3   7   6   24.73    0.86
  -3   7   6   24.60    0.83
   7  -3  -6   25.02    0.77
  -7  -3   6   24.83    0.82
   3  -7   6   23.62    0.82
   7   3   6   25.94    0.89
   7   3   6   24.78    0.68
   3   7  -6   23.94    0.81
  -3  -7  -6   25.59    0.66
   3  -7   6   24.15    0.74
   3   7  -6   25.49    0.91
  -7  -3   6   23.25    0.89
   7  -3  -6   24.89    0.86
  -7   3  -6   24.84    0.89
   3   7   6   27.04    0.75
   3   7   6   24.53    0.94
  -3  -7   6   25.06    0.66
  -7  -3  -6   25.06    0.74
  -7   3   6   25.99    0.81
  -7  -3  -6   24.08    0.93
  -7   3   6   23.93    0.80
   7   3  -6   24.51    0.92
   3  -7  -6   24.46    0.84
  -3  -7   6   26.91    0.93
   7   3  -6   24.97    0.66
   7  -3   6   24.46    0.84
   7  -3   6   25.20    0.81
  -3   7  -6   24.08    0.75
  -3   7  -6   25.67    0.85
   7   5   6   19.56    0.91
   5   7  -6   19.93    0.87
  -7  -5   6   20.59    0.89
   7   5   6   20.39    0.81
  -5   7   6   21.32    0.81
  -5  -7  -6   20.72    0.81
  -5   7   6   18.92    0.74
   5  -7   6   20.53    0.79
   7  -5  -6   19.88    0.87
  -7   5  -6   19.75    0.83
   5   7  -6   18.48    0.80
  -7   5   6   17.48    0.76
  -5   7  -6   19.58    0.81
   7  -5   6   20.75    0.72
   7  -5   6   20.30    0.82
   5   7   6   19.86    0.75
   5  -7  -6   19.38    0.81
   7   5  -6   20.79    0.91
   5   7   6   18.67    0.91
  -5   7  -6   19.37    0.69
  -7   5   6   19.10    0.75
  -5  -7   6   21.16    0.90
   7   5  -6   19.19    0.79
  -7  -5  -6   18.78    0.75
   7  -7  -6   24.97    1.03
  -7   7   6   24.72    0.87
   7   7  -6   25.04    0.97
   7  -7   6   26.80    1.00
   7   7  -6   24.53    1.04
  -7  -7  -6   24.07    0.95
   7   7   6   25.48    1.09
  -7   7  -6   22.80    0.83
  -7  -7   6   24.82    1.05
   7   7   6   23.98    0.91
  -7   7  -6   27.04    1.01
  -7   7   6   24.08    0.95
   0   8   6    0.67    0.34
  -8   0   6    0.97    0.31
   0   8  -6    0.77    0.30
   0  -8   6    0.63    0.30
   8   0  -6    0.93    0.32
   0   8  -6    1.07    0.33
   0  -8   6    0.33    0.25
  -8   0   6    0.50    0.31
   8   0   6    0.54    0.32
   8   0  -6    1.06    0.30
   8   0   6    1.16    0.28
   0  -8  -6    0.56    0.27
   0  -8  -6    0.51    0.32
  -8   0  -6    0.92    0.37
  -2  -8  -6   -0.03    0.22
   2   8  -6    0.02    0.32
   8   2   6   -0.39    0.31
  -2   8   6    0.35    0.32
   8   2   6    0.29    0.22
  -8  -2   6   -0.41    0.30
  -2  -8  -6    0.03    0.33
   8  -2  -6    0.38    0.32
   2  -8   6   -0.17    0.26
   2  -8   6    0.07    0.26
   8  -2  -6    0.39    0.29
  -8   2  -6    0.15    0.35
  -2   8   6   -0.45    0.27
   2   8  -6    0.00    0.28
  -8  -2   6   -0.04    0.29
  -8  -2  -6    0.18    0.23
  -2  -8   6    0.31    0.23
   8   2  -6    0.23    0.23
   2  -8  -6   -0.25    0.30
  -8  -2  -6    0.41    0.36
   8  -2   6    0.37    0.29
   2   8   6    0.25    0.21
   8   2  -6    0.10    0.32
  -2   8  -6    0.03    0.25
  -2  -8   6    0.40    0.33
   8  -2   6    0.23    0.29
  -8   2   6   -0.08    0.26
  -2   8  -6    0.47    0.29
   2   8   6    0.30    0.34
  -8   2   6    0.22    0.28
  -4   8   6    0.46    0.31
  -4   8   6    0.70    0.35
   8  -4  -6    0.45    0.37
   8   4   6    0.06    0.29
  -8   4  -6    0.78    0.36
  -8  -4   6    0.90    0.35
   8  -4  -6    0.27    0.25
  -8  -4   6    0.14    0.36
   4  -8   6    0.71    0.34
   4   8  -6    1.28    0.34
  -4  -8  -6    0.02    0.33
   4   8  -6    0.97    0.40
   4  -8   6    0.45    0.25
   8  -4   6    0.63    0.30
  -4   8  -6    0.05    0.25
   4   8   6    0.12    0.24
   8  -4   6    0.44    0.28
  -8  -4  -6    0.70    0.43
  -4   8  -6    0.18    0.31
  -8   4   6    0.90    0.30
   4  -8  -6    0.03    0.34
   8   4  -6    0.41    0.41
  -8   4   6    0.65    0.31
  -4  -8   6    0.44    0.35
  -8  -4  -6    0.24    0.27
   4   8   6    0.43    0.40
   8  -6  -6   -0.10    0.36
   8   6   6    0.80    0.38
  -8  -6   6    0.37    0.38
  -6  -8  -6   -0.18    0.35
  -8   6  -6   -0.41    0.33
   8   6   6    0.45    0.44
  -8  -6   6    0.43    0.43
   6  -8   6    0.37    0.39
  -6   8   6    0.65    0.33
  -6   8   6    1.03    0.38
   6   8  -6    0.65    0.43
   6   8  -6    0.19    0.37
   8  -6   6    0.44    0.37
  -6  -8   6    0.47    0.44
  -8   6   6    0.29    0.30
   8  -6   6    0.17    0.27
   8   6  -6    0.15    0.42
   6   8   6    0.88    0.33
   6   8   6    0.44    0.46
   8   6  -6   -0.08    0.33
   6  -8  -6    0.58    0.43
  -8  -6  -6   -0.51    0.32
  -8   6   6    0.53    0.37
  -6   8  -6    0.05    0.37
   8   8   6   -0.18    0.36
  -8  -8  -6    0.83    0.39
   8   8  -6    0.22    0.39
  -8   8  -6   -0.32    0.42
  -8   8   6   -0.21    0.31
   8   8   6   -0.73    0.45
  -8   8   6   -0.43    0.40
  -8  -8   6    0.45    0.48
   8   8  -6   -0.12    0.45
   8  -8  -6    0.23    0.46
   8  -8   6   -0.07    0.40
   1   9  -6    0.47    0.34
   1   9  -6    0.19    0.33
   9  -1  -6   -0.19    0.31
   1  -9   6    0.06    0.26
   9   1   6    0.19    0.25
  -9  -1   6    0.12    0.32
   1  -9   6    0.14    0.31
  -1   9   6   -0.12    0.30
  -9  -1   6   -0.30    0.33
  -9   1  -6   -0.13    0.37
  -1  -9  -6   -0.23    0.30
  -1  -9  -6    0.51    0.28
   9   1   6    0.08    0.34
   9  -1  -6    0.02    0.30
  -1   9  -6    0.12    0.30
  -9   1   6    0.12    0.29
   9  -1   6   -0.46    0.31
  -1  -9   6    0.10    0.25
   1   9   6   -0.03    0.36
   1  -9  -6   -0.04    0.31
  -9   1   6    0.00    0.31
  -1  -9   6   -0.42    0.31
   9  -1   6    0.02    0.29
   9   1  -6   -0.01    0.27
   1  -9  -6   -0.20    0.31
   9   1  -6    0.37    0.35
  -9  -1  -6    0.68    0.41
  -1   9  -6    0.19    0.31
  -3   9   6    6.45    0.64
   3  -9   6    7.38    0.54
  -9   3  -6    5.86    0.67
   3   9  -6    7.92    0.65
   3   9  -6    6.38    0.61
   9  -3  -6    7.21    0.56
  -3  -9  -6    6.97    0.67
  -3   9   6    6.78    0.60
  -9  -3   6    6.96    0.67
   9   3   6    7.77    0.66
   9  -3  -6    7.90    0.69
   3  -9   6    7.64    0.59
  -9  -3   6    8.16    0.63
  -9  -3  -6    6.79    0.67
   9  -3   6    6.07    0.56
   9   3  -6    5.90    0.69
  -3   9  -6    7.52    0.62
  -3  -9   6    7.06    0.63
   3   9   6    6.66    0.71
  -9   3   6    6.59    0.63
  -9  -3  -6    7.33    0.55
  -9   3   6    7.41    0.58
   9  -3   6    7.23    0.60
   3  -9  -6    8.15    0.66
  -9   5  -6    1.83    0.45
  -5   9   6    0.44    0.33
  -5   9   6    1.58    0.43
   5   9  -6    1.23    0.44
  -5  -9  -6    1.03    0.43
   9  -5  -6    0.86    0.44
   5  -9   6    1.40    0.39
   5   9  -6    0.45    0.38
  -9  -5   6    0.76    0.44
  -9  -5   6    1.05    0.42
   9   5   6    0.65    0.38
  -9   5   6    0.82    0.32
  -5  -9   6    0.07    0.42
   9  -5   6    0.81    0.39
  -5   9  -6    0.55    0.39
   5   9   6    0.25    0.30
  -9   5   6    0.85    0.38
  -9  -5  -6    0.31    0.34
   9   5  -6    0.37    0.38
   5  -9  -6    1.44    0.47
   9  -5   6    0.30    0.31
   5   9   6    1.08    0.48
  -9  -5  -6    0.43    0.49
  -7   9   6    9.37    0.70
  -9  -7   6   10.11    0.87
  -9  -7   6    8.63    0.76
   9  -7  -6    9.46    0.84
  -7   9   6    8.25    0.75
   7   9  -6    9.30    0.79
   9   7   6    8.52    0.87
  -9   7  -6    8.58    0.79
   7  -9   6    7.76    0.69
  -7  -9  -6    9.68    0.78
   9   7   6    8.64    0.73
   7   9  -6    8.70    0.87
   7   9   6    9.03    0.89
  -7  -9   6    9.87    0.89
   7  -9  -6   10.44    0.78
  -9   7   6    6.99    0.63
  -9  -7  -6    9.15    0.94
  -9   7   6    9.48    0.78
   9  -7   6    8.87    0.78
  -9  -7  -6   10.61    0.73
   9   7  -6    8.05    0.82
  -7   9  -6    7.56    0.76
   7   9   6    9.80    0.69
  -9  -9   6   10.85    0.97
   9   9   6   11.37    0.93
  -9   9  -6   12.43    0.87
   9   9  -6   12.13    0.87
   9   9   6   13.77    0.87
   9  -9  -6   14.22    0.99
   9  -9   6   11.51    0.91
   9   9  -6   12.72    0.98
  -9  -9  -6   12.23    0.88
  -9   9   6   13.82    0.99
   0 -10   6    1.28    0.40
   0  10  -6    0.88    0.36
  10   0   6    1.41    0.40
  10   0   6    0.81    0.32
   0 -10   6    1.35    0.33
 -10   0   6    0.39    0.37
 -10   0  -6    0.31    0.44
  10   0  -6    1.07    0.41
   0  10  -6    0.95    0.37
   0  10   6    0.77    0.41
  10   0  -6    0.96    0.34
   0 -10  -6    0.90    0.33
   0 -10  -6    0.91    0.41
 -10   0   6    0.69    0.38
  10   2   6    0.40    0.36
 -10   2  -6   -0.31    0.36
  10  -2  -6    0.07    0.35
   2 -10   6   -0.03    0.33
  10  -2  -6   -0.35    0.31
  -2  10   6    0.23    0.38
 -10  -2   6    0.10    0.36
 -10  -2   6   -0.05    0.37
   2  10  -6    0.36    0.38
   2 -10   6    0.23    0.33
  -2 -10  -6   -0.24    0.39
   2  10  -6    0.61    0.37
  10  -2   6    0.10    0.34
 -10   2   6    0.49    0.34
 -10   2   6    0.40    0.35
   2 -10  -6   -0.48    0.35
   2  10   6    0.04    0.40
  -2 -10   6    0.04    0.38
  10  -2   6    0.00    0.33
 -10  -2  -6   -0.13    0.39
  -2  10  -6   -0.13    0.34
   2 -10  -6   -0.35    0.36
  10   2  -6    0.67    0.43
  -4  10   6    0.40    0.36
 -10   4  -6    0.36    0.38
  -4  10   6    0.66    0.42
  10  -4  -6    0.91    0.43
 -10  -4   6    1.22    0.44
   4  10  -6    0.08    0.38
  10   4   6    0.68    0.38
 -10  -4   6    0.52    0.40
   4  10  -6    1.03    0.41
  -4 -10  -6    0.60    0.42
   4 -10   6    0.65    0.39
  10   4  -6   -0.07    0.38
   4 -10  -6    0.68    0.44
 -10   4   6    0.60    0.33
  10  -4   6    0.84    0.35
   4  10   6    0.78    0.41
 -10   4   6    0.50    0.37
  -4  10  -6    0.32    0.35
 -10  -4  -6    1.23    0.51
  10  -4   6    1.04    0.42
  -4 -10   6    0.35    0.40
  -6  10   6   -0.16    0.40
 -10  -6   6   -0.02    0.46
  10  -6  -6    0.41    0.48
   6 -10   6   -0.96    0.39
  -6  10   6   -0.42    0.35
 -10  -6   6   -0.38    0.42
 -10   6  -6   -0.14    0.43
  10   6   6    0.18    0.40
   6  10  -6    0.22    0.45
   6  10  -6    0.12    0.43
  -6 -10  -6   -0.59    0.40
   6 -10  -6    0.42    0.48
  -6 -10   6   -0.19    0.46
 -10   6   6    0.72    0.35
   6  10   6    0.17    0.35
   6  10   6    0.08    0.48
  10   6  -6    0.00    0.47
  -6  10  -6   -0.72    0.39
 -10  -6  -6    0.42    0.38
  10  -6   6    0.29    0.39
 -10   6   6   -0.25    0.39
  10  -6   6   -0.20    0.31
 -10  -6  -6   -0.28    0.45
  -8  10   6    0.02    0.39
  -8 -10  -6   -0.04    0.46
   8 -10   6   -0.05    0.47
 -10  -8   6   -0.20    0.50
  -8  10   6   -0.08    0.44
  10   8   6    0.01    0.45
 -10  -8   6    0.04    0.48
   8  10  -6    0.13    0.47
   8  10  -6   -0.31    0.47
 -10   8  -6    0.01    0.49
  10  -8  -6    0.29    0.54
 -10  -8  -6    0.66    0.59
  10  -8   6    0.51    0.49
   8  10   6    0.00    0.40
  -8 -10   6   -0.47    0.51
 -10   8   6   -0.28    0.47
   8 -10  -6   -0.41    0.47
  10   8  -6   -0.45    0.49
  -8  10  -6    0.09    0.48
 -10  -8  -6    0.25    0.45
   8  10   6   -0.38    0.49
 -10 -10   6   -0.29    0.54
 -10 -10  -6    0.03    0.52
  10 -10  -6   -0.69    0.47
 -10  10  -6    0.01    0.55
  10  10   6    0.08    0.56
  10 -10   6   -0.07    0.53
  10  10   6   -0.02    0.49
 -10  10   6   -0.46    0.53
  10  10  -6    0.40    0.53
  10  10  -6    0.06    0.50
  11  -1  -6   14.03    0.85
   1  11  -6   14.20    0.83
  -1 -11  -6   13.94    0.87
   1 -11   6   14.68    0.74
 -11  -1   6   13.90    0.84
   1 -11   6   14.45    0.80
 -11   1  -6   14.85    0.95
  11  -1  -6   13.68    0.77
 -11  -1   6   13.72    0.85
  -1  11   6   14.90    0.90
  11   1   6   14.24    0.87
 -11  -1  -6   13.99    0.95
  11  -1   6   13.92    0.75
  11   1  -6   13.41    0.86
  11  -1   6   11.98    0.82
  -1  11  -6   13.51    0.82
  -1 -11   6   13.33    0.87
 -11   1   6   13.05    0.84
 -11   1   6   12.52    0.74
   1 -11  -6   15.83    0.80
   1 -11  -6   14.11    0.85
   1  11   6   12.43    0.90
   3  11  -6   20.35    1.00
  11  -3  -6   19.35    0.96
 -11   3  -6   16.83    0.93
  -3 -11  -6   18.47    0.98
  11  -3  -6   19.58    0.89
 -11  -3   6   18.50    0.97
  11   3   6   19.23    0.98
 -11  -3   6   17.07    0.96
   3  11  -6   21.80    0.95
  -3  11   6   18.98    0.97
   3 -11   6   19.68    0.87
   3 -11   6   20.41    0.89
   3 -11  -6   19.73    0.92
  11  -3   6   17.68    0.88
 -11   3   6   19.45    0.86
 -11   3   6   19.50    0.97
 -11  -3  -6   19.91    1.12
   3 -11  -6   19.41    0.95
  -3 -11   6   18.81    1.00
  11   3  -6   19.81    1.02
  -3  11  -6   18.44    0.95
  11  -3   6   19.39    0.93
   3  11   6   19.92    1.06
 -11   5  -6   15.21    0.91
 -11  -5   6   16.38    0.96
   5  11  -6   18.44    0.99
   5  11  -6   16.53    0.96
  11   5   6   16.24    0.95
   5 -11   6   16.12    0.90
  -5  11   6   15.94    0.95
 -11  -5   6   16.40    0.95
  -5 -11  -6   15.49    0.96
  11  -5  -6   15.84    0.94
  -5  11   6   14.54    0.89
  -5 -11   6   15.22    0.99
  11   5  -6   15.74    1.01
 -11  -5  -6   15.91    1.08
  11  -5   6   15.41    0.83
  11  -5   6   15.04    0.91
   5  11   6   16.96    1.05
 -11   5   6   16.40    0.92
  -5  11  -6   15.84    0.94
   5 -11  -6   14.70    0.93
 -11  -7   6    4.97    0.65
  -7 -11  -6    5.86    0.83
 -11   7  -6    6.34    0.85
   7  11  -6    5.84    0.68
   7  11  -6    4.85    0.65
  11  -7  -6    4.85    0.67
   7 -11   6    5.89    0.67
  -7  11   6    5.43    0.67
 -11  -7   6    5.43    0.68
  11   7   6    6.69    0.77
  -7  11   6    4.94    0.66
  -7  11  -6    6.57    0.83
   7 -11  -6    6.86    0.89
  11   7  -6    4.58    0.63
 -11  -7  -6    7.86    1.00
  -7 -11   6    4.72    0.71
 -11   7   6    5.96    0.80
  11  -7   6    6.16    0.83
   7  11   6    6.39    0.93
  11  -9  -6    9.92    1.01
   9  11  -6    9.91    0.94
  -9  11   6    8.05    0.92
 -11  -9   6    8.69    1.00
   9  11  -6    9.55    1.01
   9 -11   6    7.47    0.93
  -9 -11  -6    7.67    0.97
  11   9   6    8.85    0.91
 -11   9  -6    8.36    0.98
 -11  -9   6   11.19    0.97
 -11  -9  -6    7.13    1.03
  -9 -11   6    7.07    1.01
   9 -11  -6   10.05    1.01
  11   9  -6    8.99    0.99
 -11  -9  -6    7.54    0.93
 -11   9   6    8.00    0.93
  11  -9   6    8.80    0.96
   9  11   6   10.49    1.07
  -9  11  -6    9.57    1.00
   9  11   6    8.53    0.84
 -11  11   6    4.87    0.76
  11  11  -6    3.08    0.67
 -11 -11   6    5.99    0.86
  11  11   6    7.83    0.92
 -11 -11  -6    6.27    0.80
 -11  11  -6    5.81    0.80
  11 -11  -6    5.03    0.80
  11  11   6    5.79    0.76
  11 -11   6    6.40    0.82
 -11 -11  -6    7.41    0.97
  12   0   6    1.56    0.46
  12   0  -6    2.33    0.51
   0  12  -6    1.96    0.51
 -12   0   6    2.14    0.48
   0  12   6    1.83    0.49
   0 -12  -6    3.49    0.56
 -12   0  -6    2.10    0.58
 -12   0   6    2.96    0.52
   0 -12   6    2.57    0.49
  12   2   6   -0.20    0.47
  -2 -12  -6    0.27    0.45
 -12  -2   6   -0.15    0.44
 -12   2  -6    0.68    0.47
  12  -2  -6    0.34    0.45
   2 -12   6   -0.04    0.37
  -2  12   6    0.18    0.48
  12  -2  -6    0.36    0.42
   2  12  -6    0.25    0.45
 -12  -2   6   -0.76    0.42
   2 -12   6    0.57    0.42
   2 -12  -6    0.21    0.40
  12   2  -6   -0.37    0.47
   2 -12  -6    0.83    0.45
  -2  12  -6    0.03    0.40
   2  12   6    0.67    0.49
 -12  -2  -6    0.14    0.54
  12  -2   6    0.09    0.39
  12  -2   6   -0.08    0.40
 -12   2   6   -0.64    0.40
  -2 -12   6    0.91    0.46
  12   4   6    1.16    0.54
 -12  -4   6    0.55    0.48
 -12   4  -6    0.87    0.48
  -4 -12  -6    1.33    0.54
  -4  12   6    0.72    0.48
  12  -4  -6    0.08    0.46
 -12  -4   6    1.00    0.49
   4 -12   6    0.41    0.45
   4  12  -6    0.63    0.49
   4 -12  -6    1.15    0.49
  12   4  -6    0.13    0.44
  -4 -12   6    0.90    0.51
 -12   4   6    1.66    0.48
   4 -12  -6    0.33    0.45
  -4  12  -6    1.08    0.48
 -12  -4  -6    1.54    0.60
  12  -4   6    1.16    0.45
  12  -4   6    1.42    0.43
   4  12   6    1.18    0.52
  -6 -12  -6   -0.10    0.47
   6  12  -6    0.41    0.48
 -12  -6   6    0.71    0.49
 -12  -6   6    0.32    0.49
  12   6   6    0.10    0.51
  12  -6  -6    0.44    0.51
   6  12  -6    0.05    0.50
 -12   6  -6   -0.04    0.49
  -6  12   6   -0.60    0.49
   6 -12   6   -0.49    0.41
   6  12   6    0.10    0.58
  -6 -12   6    1.10    0.57
 -12   6   6    0.54    0.50
   6 -12  -6    1.18    0.54
  -6  12  -6    0.08    0.49
   6 -12  -6    0.08    0.44
 -12  -6  -6    0.20    0.58
  12   6  -6   -0.36    0.44
  12  -6   6   -0.40    0.47
   8 -12   6    0.54    0.54
  12  -8  -6    0.44    0.59
  -8  12   6    1.00    0.60
   8  12  -6    0.66    0.55
  12   8   6    0.30    0.49
  -8 -12  -6    0.71    0.56
   8  12  -6    0.86    0.55
 -12  -8   6    0.74    0.58
 -12   8  -6    0.50    0.59
  12  -8   6    0.94    0.57
   8  12   6    0.87    0.62
 -12  -8  -6    0.38    0.65
  12   8  -6   -0.37    0.55
   8 -12  -6    0.54    0.59
 -12   8   6    1.01    0.56
  -8 -12   6    0.25    0.57
  -8  12  -6    0.34    0.55
 -12 -10   6   -0.48    0.60
 -12  10  -6    0.14    0.62
  10  12  -6   -0.27    0.54
  10  12  -6   -0.31    0.55
  12 -10  -6   -0.39    0.61
 -10  12   6   -0.09    0.56
 -10 -12  -6    1.20    0.65
  10 -12   6   -0.75    0.57
  12  10   6   -0.78    0.51
 -10 -12   6    0.51    0.65
  10 -12  -6    0.14    0.65
 -10  12  -6    0.00    0.60
 -12  10   6    0.22    0.58
 -12 -10  -6   -0.83    0.65
  10  12   6    0.01    0.63
  12 -10   6    0.55    0.61
  12  10  -6    1.14    0.64
  -1  13   6   -0.34    0.48
   1  13  -6    0.29    0.49
 -13   1  -6    0.23    0.55
  13   1   6   -0.07    0.47
  13  -1  -6   -0.76    0.43
   1 -13   6    0.54    0.47
 -13  -1   6   -0.40    0.45
  -1 -13  -6    0.65    0.50
   1  13   6    0.21    0.51
 -13  -1  -6    0.45    0.58
  -1  13  -6    0.82    0.49
 -13   1   6    0.56    0.49
  13  -1   6   -0.05    0.43
  13   1  -6   -0.31    0.48
  -1 -13   6    0.61    0.48
   1 -13  -6    0.21    0.49
   3 -13   6    0.80    0.44
  -3  13   6    1.07    0.50
   3  13  -6    0.87    0.52
 -13  -3   6    0.60    0.48
 -13   3  -6    0.29    0.53
  13   3   6    0.34    0.54
  -3 -13  -6    0.81    0.54
  13  -3  -6    0.06    0.45
 -13  -3   6   -0.39    0.46
   3  13   6   -0.50    0.53
 -13  -3  -6    1.19    0.59
  13  -3   6   -0.06    0.44
  13   3  -6    0.34    0.52
   3 -13  -6    0.92    0.49
  -3  13  -6    0.00    0.46
  13  -3   6   -0.06    0.45
  -3 -13   6    0.14    0.51
   3 -13  -6    1.45    0.52
 -13   3   6    0.45    0.46
  -5  13   6    6.77    0.88
  13   5   6    7.78    0.93
   5  13  -6    6.97    0.87
 -13  -5   6    7.13    0.86
  13  -5  -6    8.37    0.89
   5 -13   6    7.14    0.81
 -13   5  -6    6.78    0.95
  -5 -13  -6    6.00    0.89
 -13   5   6    8.72    0.87
  -5  13  -6    9.10    0.93
   5 -13  -6    7.17    0.86
   5  13   6    7.13    0.85
  13  -5   6    8.14    0.86
  -5 -13   6    6.93    0.93
  13   5  -6    7.94    0.96
 -13  -5  -6    8.17    1.06
   5 -13  -6    7.86    0.91
  13  -7  -6    4.95    0.74
  -7  13   6    5.35    0.73
 -13  -7   6    5.55    0.74
  -7 -13  -6    5.11    0.73
  13   7   6    3.87    0.75
   7  13  -6    4.95    0.72
 -13   7  -6    7.46    0.99
   7 -13   6    4.96    0.69
  13  -7   6    4.98    0.70
 -13  -7  -6    5.43    0.82
  -7  13  -6    5.30    0.74
  13   7  -6    4.84    0.76
   7 -13  -6    4.84    0.74
   7  13   6    5.41    0.77
  -7 -13   6    6.44    0.84
 -13   7   6    5.91    0.76
 -13  -9   6    6.20    0.84
  13   9   6    5.74    0.80
   9  13  -6    5.98    0.79
  -9 -13  -6    7.43    1.00
   9 -13   6    6.76    0.93
  -9  13   6    4.75    0.80
   9  13  -6    4.79    0.75
  13  -9  -6    5.48    0.85
   9 -13  -6    5.63    0.96
  13  -9   6    7.40    1.05
  13   9  -6    6.36    0.91
 -13  -9  -6    4.72    0.88
 -13   9   6    6.11    0.79
  14   0  -6   -0.67    0.51
   0  14  -6    0.44    0.51
   0 -14   6    1.32    0.54
 -14   0  -6    1.13    0.61
   0  14   6    1.20    0.62
 -14   0   6    0.63    0.52
   0 -14  -6    0.52    0.53
  14   0   6    0.80    0.53
  -2  14   6    0.31    0.51
   2  14  -6   -0.61    0.49
 -14   2  -6    0.03    0.54
 -14  -2   6    0.73    0.51
  14   2   6    0.11    0.52
  14  -2  -6    1.26    0.51
   2 -14   6    0.44    0.47
  -2 -14  -6    0.82    0.55
  14  -2   6    0.43    0.49
  14   2  -6    0.00    0.54
   2  14   6   -0.01    0.52
  -2  14  -6    0.56    0.53
   2 -14  -6   -0.59    0.48
 -14  -2  -6   -0.20    0.62
  -2 -14   6   -0.60    0.50
 -14   2   6   -0.12    0.50
   4 -14   6    0.13    0.46
  -4  14   6    0.99    0.54
  14   4   6   -0.26    0.57
   4  14  -6   -0.47    0.53
  -4 -14  -6    0.15    0.54
  14  -4  -6   -0.23    0.51
 -14   4  -6    0.19    0.60
 -14  -4  -6    0.46    0.65
  14   4  -6    0.35    0.57
   4 -14  -6   -0.04    0.49
   4  14   6   -0.13    0.55
  -4 -14   6    0.54    0.59
  14  -4   6    0.09    0.49
   4 -14  -6    0.18    0.52
  -4  14  -6    0.04    0.50
  14  -4   6    0.49    0.50
 -14   4   6    0.59    0.54
  -6 -14  -6    0.01    0.57
  14   6   6    0.44    0.57
   6  14  -6   -0.64    0.56
 -14   6  -6   -0.04    0.54
  14  -6  -6   -0.35    0.51
  -6  14   6    0.46    0.55
   6 -14   6   -0.58    0.51
 -14  -6   6   -0.22    0.54
 -14  -6  -6   -1.40    0.60
   6  14   6   -0.34    0.59
  14   6  -6   -0.17    0.60
 -14   6   6   -0.07    0.55
  -6  14  -6    0.56    0.59
  14  -6   6    1.12    0.55
  -6 -14   6    0.05    0.59
   6 -14  -6    1.73    0.58
   6 -14  -6    0.12    0.54
 -14  -8   6    0.53    0.59
  14  -8  -6   -0.52    0.58
   8  14  -6    0.53    0.62
 -14   8   6    0.74    0.63
 -15   1  -6   11.26    1.13
  -1  15   6    8.90    1.08
  -1 -15  -6    9.85    1.04
  15   1   6    9.78    0.99
   1 -15   6    9.94    0.99
   1  15  -6    9.58    1.04
  15  -1  -6   11.81    1.02
  -1  15  -6   11.55    1.02
 -15   1   6   10.49    1.13
  15   1  -6   10.24    1.03
  -1 -15   6    8.99    0.97
 -15  -1  -6    9.76    1.13
   1 -15  -6   10.11    1.01
   1  15   6    9.91    1.11
  15  -1   6    9.04    0.99
  -3 -15  -6    3.44    0.71
  15   3   6    3.79    0.75
  -3  15   6    2.85    0.71
   3  15  -6    2.51    0.64
 -15   3  -6    4.28    0.77
  -3 -15   6    2.03    0.67
  -3  15  -6    2.65    0.64
  15  -3   6    1.98    0.61
  15   3  -6    4.44    0.75
 -15  -3  -6    3.48    0.79
 -15   3   6    3.88    0.71
   3  15   6    3.93    0.76
   3 -15  -6    3.20    0.69
  -5  15   6    4.79    0.79
   5  15  -6    5.59    0.78
   5 -15   6    4.72    0.68
 -15   5   6    7.20    0.96
  -5 -15   6    4.90    0.85
   5 -15  -6    4.34    0.76
   5 -15  -6    6.54    0.78
 -15  -5  -6    4.42    0.87
  -5  15  -6    4.28    0.73
   7  15  -6    3.42    0.77
 -15   7   6    5.92    0.85
  16   0   6    1.52    0.67
   0  16  -6    1.00    0.62
   0 -16   6    1.71    0.64
  16   0  -6    0.61    0.56
   2  16  -6    0.24    0.60
  16   2  -6    0.16    0.69
  16  -2   6    0.88    0.56
  -2 -16   6    1.33    0.66
   2 -16  -6    1.35    0.63
   0  -1   7    0.31    0.22
   1   0   7    0.13    0.25
   0   1   7    0.13    0.19
   0   1  -7   -0.19    0.11
   1   0   7    0.18    0.16
   0   1   7    0.17    0.18
  -1   0  -7    0.29    0.17
   0  -1   7   -0.07    0.20
   0   1   7   -0.37    0.24
   1   0  -7   -0.38    0.22
  -1   0   7    0.05    0.24
   0  -1  -7   -0.30    0.19
  -1   0  -7    0.49    0.22
  -1   0   7    0.31    0.22
   0   1  -7   -0.17    0.21
  -2   1  -7    5.79    0.35
   1  -2   7    6.29    0.35
   2  -1  -7    6.36    0.51
  -1   2   7    5.42    0.34
  -1   2   7    6.22    0.42
   2  -1  -7    5.45    0.41
  -2  -1   7    6.13    0.45
   1   2  -7    5.84    0.45
  -2  -1   7    6.51    0.22
   2   1   7    6.28    0.41
   2   1   7    5.96    0.42
  -2  -1   7    6.16    0.43
   1  -2   7    6.38    0.39
   2   1   7    6.17    0.32
   1   2  -7    6.06    0.25
  -1  -2   7    5.80    0.40
   2   1  -7    5.95    0.46
   1   2   7    6.13    0.38
   1   2   7    6.77    0.45
  -1   2  -7    6.09    0.32
   1   2   7    5.69    0.45
  -1  -2   7    6.23    0.43
  -2   1   7    5.48    0.42
   1   2   7    6.32    0.35
  -2  -1  -7    6.30    0.44
   2  -1   7    6.00    0.26
  -2   1   7    5.90    0.27
   2  -1   7    6.70    0.44
   1  -2  -7    6.22    0.33
   1  -2  -7    6.38    0.51
  -1   2  -7    6.08    0.38
   3   0  -7   -0.11    0.26
   3   0   7   -0.17    0.12
   0  -3  -7   -0.35    0.25
   0   3   7   -0.07    0.17
  -3   0   7   -0.10    0.23
  -3   0  -7   -0.37    0.23
   0   3  -7   -0.37    0.17
  -3   0   7    0.28    0.15
   3   0   7    0.02    0.23
   3   0  -7    0.10    0.28
   0   3  -7    0.12    0.26
   0  -3   7    0.04    0.23
   3   0   7    0.42    0.24
   0  -3  -7    0.02    0.16
   0   3   7    0.03    0.22
   0  -3   7    0.01    0.22
   0   3   7    0.37    0.24
  -2   3   7   13.50    0.48
   2   3  -7   13.11    0.43
   3  -2  -7   11.52    0.55
   3  -2  -7   12.47    0.49
  -3   2  -7   12.51    0.51
   3   2   7   12.22    0.58
  -2   3   7   13.21    0.51
  -3  -2   7   11.51    0.58
   2  -3   7   11.99    0.55
   3   2   7   13.60    0.52
   2   3  -7   12.61    0.60
  -3  -2   7   13.17    0.51
   2  -3   7   12.67    0.42
   3   2   7   13.05    0.46
   3  -2   7   13.06    0.55
  -2   3  -7   13.17    0.53
  -2  -3   7   12.53    0.47
  -3   2   7   12.73    0.44
   2   3   7   12.65    0.52
   3   2  -7   13.14    0.61
   3  -2   7   12.89    0.30
  -3   2   7   12.44    0.54
  -2  -3   7   12.83    0.56
  -3  -2  -7   12.89    0.44
   2   3   7   12.69    0.51
   2  -3  -7   12.85    0.40
   2   3   7   12.65    0.59
   3   2  -7   12.73    0.42
   3  -2   7   12.57    0.53
   2  -3  -7   13.99    0.62
  -2   3  -7   12.76    0.49
  -4  -1   7    2.18    0.33
  -4  -1   7    1.73    0.21
   4  -1  -7    1.69    0.33
  -1   4   7    1.98    0.29
  -4   1  -7    2.05    0.29
   4   1   7    2.08    0.26
  -1   4   7    1.81    0.26
   4   1   7    1.71    0.29
   1   4  -7    1.63    0.32
   1   4  -7    1.87    0.23
   1  -4   7    1.97    0.26
   1  -4   7    1.59    0.28
   4  -1  -7    1.93    0.29
  -1  -4  -7    2.09    0.27
   1  -4  -7    2.25    0.30
   4  -1   7    2.08    0.30
   1   4   7    2.26    0.33
  -4  -1  -7    2.17    0.25
  -1   4  -7    2.62    0.35
  -1   4  -7    2.01    0.30
   4   1  -7    2.24    0.35
   1  -4  -7    2.20    0.21
   1   4   7    1.86    0.27
  -1  -4   7    1.57    0.25
   4  -1   7    1.89    0.30
  -1  -4   7    1.71    0.31
  -4   1   7    1.61    0.28
  -4   1   7    2.17    0.22
  -4  -1  -7    1.28    0.31
   1   4   7    1.50    0.27
   4   1  -7    1.95    0.30
  -3   4   7    0.05    0.24
  -4  -3   7    0.17    0.27
  -4  -3   7    0.32    0.21
   3  -4   7   -0.13    0.16
   3   4  -7    0.25    0.21
  -4   3  -7    0.29    0.26
   3   4  -7    0.11    0.28
   4  -3  -7    0.31    0.31
   4   3   7    0.29    0.31
   4   3   7    0.09    0.22
   3  -4   7   -0.21    0.27
  -3   4   7    0.04    0.22
   4  -3  -7   -0.24    0.18
   4   3   7   -0.16    0.25
  -3  -4  -7   -0.23    0.20
  -4  -3  -7    0.09    0.19
   3   4   7    0.10    0.23
   3   4   7    0.36    0.32
  -3   4  -7   -0.05    0.22
   3  -4  -7    0.36    0.31
   4   3  -7   -0.03    0.28
   3   4   7   -0.06    0.21
   4  -3   7   -0.33    0.26
  -4   3   7   -0.20    0.24
   3  -4  -7   -0.02    0.14
  -3  -4   7   -0.14    0.18
   4  -3   7   -0.08    0.22
  -3   4  -7   -0.29    0.20
  -4   3   7   -0.04    0.20
  -3  -4   7    0.00    0.31
   4   3  -7    0.07    0.21
   5   0   7    0.03    0.24
  -5   0  -7    0.47    0.12
   0   5   7   -0.26    0.25
   5   0  -7    0.08    0.29
   0  -5  -7   -0.33    0.25
   0  -5   7   -0.25    0.25
  -5   0  -7    0.24    0.28
  -5   0   7   -0.16    0.19
   0   5  -7    0.21    0.22
   0   5  -7    0.00    0.25
   5   0  -7   -0.34    0.25
   5   0   7    0.00    0.23
   0   5   7    0.04    0.24
   0   5   7   -0.01    0.13
  -5   0   7   -0.17    0.27
   0  -5   7    0.00    0.23
   5   2   7    0.07    0.21
   5  -2  -7    0.90    0.31
   5  -2  -7    0.51    0.24
   2  -5   7    0.03    0.21
  -2   5   7    0.45    0.27
  -2   5   7    0.49    0.26
   5   2   7    0.94    0.29
  -5   2  -7    0.68    0.29
   2   5  -7    0.24    0.22
  -5  -2   7    0.38    0.23
   2  -5   7    0.49    0.26
  -2  -5  -7    0.50    0.26
  -5  -2   7    0.25    0.30
   2   5  -7    0.30    0.33
  -2  -5  -7    0.78    0.22
   2   5   7    0.69    0.21
  -5   2   7    0.61    0.26
   5   2  -7    0.31    0.22
  -5   2   7    0.09    0.21
  -2   5  -7    0.57    0.24
   5  -2   7    0.05    0.24
  -2  -5   7    0.31    0.20
  -2   5  -7   -0.10    0.23
   5  -2   7    0.39    0.27
   5   2  -7    0.63    0.29
  -5  -2  -7    0.72    0.19
  -5  -2  -7    0.84    0.34
  -2  -5   7    0.09    0.28
   2  -5  -7    0.55    0.30
   2   5   7    0.62    0.31
  -4  -5  -7    0.10    0.25
   5  -4  -7    0.06    0.18
   5   4   7    0.69    0.27
  -5   4  -7    0.24    0.26
   4   5  -7   -0.23    0.24
  -4   5   7    0.17    0.24
   4  -5   7    0.02    0.26
  -5  -4   7    0.51    0.33
  -4   5   7    0.44    0.25
   5   4   7   -0.04    0.21
   5   4   7   -0.14    0.29
   4   5  -7    0.38    0.34
   5  -4  -7   -0.08    0.31
  -4  -5  -7    0.29    0.19
   4  -5   7    0.47    0.17
   4  -5  -7    0.19    0.32
  -5   4   7    0.02    0.23
   5   4  -7    0.42    0.21
  -5  -4  -7    0.19    0.22
   4   5   7    0.47    0.35
   5  -4   7    0.29    0.27
   5  -4   7    0.23    0.12
   4   5   7   -0.30    0.24
   5   4  -7    0.14    0.24
   5  -4   7    0.30    0.23
  -4   5  -7    0.04    0.24
  -4  -5   7    0.21    0.19
   4  -5  -7    0.02    0.12
  -4   5  -7    0.30    0.26
  -4  -5   7    0.00    0.31
  -5   4   7    0.41    0.27
   5   4  -7   -0.09    0.28
   6   1   7    1.71    0.32
  -6  -1   7    1.81    0.35
  -1   6   7    2.35    0.34
  -1  -6  -7    2.11    0.28
   1   6  -7    1.13    0.32
   1   6  -7    1.43    0.28
   6   1   7    1.99    0.27
  -1   6   7    1.57    0.30
   6  -1  -7    1.30    0.29
   6  -1  -7    1.17    0.30
  -6  -1   7    1.72    0.27
   1  -6   7    1.54    0.29
   1  -6   7    1.51    0.28
  -6   1  -7    2.33    0.34
  -1  -6   7    2.13    0.28
  -6  -1  -7    1.43    0.19
   1   6   7    0.82    0.31
   1  -6  -7    1.53    0.31
   6   1  -7    1.88    0.29
  -6  -1  -7    1.78    0.36
   6  -1   7    1.75    0.30
   1   6   7    1.45    0.30
  -1  -6   7    1.25    0.32
  -6   1   7    1.85    0.27
   6  -1   7    1.99    0.32
  -6   1   7    1.40    0.31
   1   6   7    1.50    0.21
   6   1  -7    1.73    0.33
  -1   6  -7    2.20    0.30
  -1   6  -7    1.54    0.29
   6   3   7    3.67    0.47
   3   6  -7    3.89    0.40
   6  -3  -7    3.40    0.37
   3  -6   7    4.73    0.47
   3   6  -7    4.07    0.54
   3  -6   7    3.91    0.37
   6  -3  -7    3.85    0.52
   6   3   7    3.70    0.35
  -3  -6  -7    5.16    0.48
  -3   6   7    4.31    0.45
  -3  -6  -7    4.00    0.35
  -3   6   7    2.76    0.35
  -6  -3   7    3.80    0.46
  -6   3  -7    3.69    0.49
  -6  -3   7    2.95    0.41
   6   3  -7    3.80    0.55
  -3   6  -7    4.17    0.44
  -3   6  -7    3.33    0.38
   6  -3   7    4.54    0.44
  -6   3   7    3.45    0.43
   6   3  -7    3.72    0.36
   6  -3   7    4.44    0.47
  -6  -3  -7    3.59    0.34
   3  -6  -7    4.46    0.51
  -3  -6   7    5.29    0.55
   3   6   7    3.53    0.38
  -6   3   7    3.56    0.41
   3   6   7    4.07    0.50
  -3  -6   7    3.35    0.32
  -6  -3  -7    3.77    0.46
   6   5   7   -0.28    0.32
  -5  -6  -7    0.35    0.27
   5   6  -7    0.31    0.29
   6  -5  -7    0.16    0.34
  -5   6   7    0.04    0.27
  -6  -5   7    0.26    0.37
   5  -6   7    0.33    0.31
   6   5   7    0.24    0.29
  -6   5  -7   -0.22    0.25
   5   6  -7   -0.27    0.34
  -5   6   7    0.10    0.27
   6  -5   7   -0.17    0.29
  -6   5   7    0.29    0.28
  -5   6  -7   -0.16    0.27
   5  -6  -7    0.17    0.35
  -6  -5  -7   -0.21    0.23
  -5   6  -7    0.33    0.25
   6   5  -7    0.12    0.37
  -6   5   7    0.36    0.28
  -5  -6   7    0.06    0.36
   5   6   7    0.25    0.27
   6   5  -7   -0.07    0.27
   6  -5   7    0.22    0.24
   5   6   7   -0.14    0.36
   0   7   7    0.20    0.27
  -7   0   7   -0.15    0.28
   0   7  -7    0.16    0.28
  -7   0   7   -0.08    0.24
  -7   0  -7    0.16    0.31
   0  -7  -7   -0.13    0.24
   0   7   7    0.02    0.29
   7   0   7   -0.05    0.23
   7   0   7   -0.12    0.25
   0  -7   7   -0.12    0.24
   7   0  -7   -0.10    0.30
   0   7  -7    0.14    0.26
   7   0  -7    0.17    0.27
   0  -7   7   -0.14    0.26
  -7   0  -7   -0.11    0.14
   0   7   7    0.14    0.13
  -7  -2   7   11.37    0.66
  -7   2  -7   11.51    0.67
   2   7  -7   12.10    0.65
  -2  -7  -7   12.50    0.64
  -2   7   7   10.24    0.59
   2   7  -7   12.33    0.60
  -2  -7  -7   11.72    0.49
   7   2   7   11.63    0.51
   7   2   7   11.56    0.59
  -7  -2   7   11.73    0.58
  -2   7   7   11.44    0.61
   7  -2  -7   11.65    0.62
   2  -7   7   10.98    0.58
   7  -2  -7   12.10    0.58
   2  -7   7   11.38    0.55
   7  -2   7   11.34    0.60
  -2   7  -7   12.34    0.59
  -2  -7   7   11.26    0.47
  -7   2   7   10.56    0.58
  -2  -7   7   11.23    0.65
   2  -7  -7   11.53    0.63
   2   7   7   10.46    0.63
  -2   7  -7   11.21    0.56
  -7  -2  -7   11.38    0.47
   7   2  -7   11.97    0.51
   7  -2   7   10.57    0.58
   2   7   7   11.58    0.47
  -7  -2  -7   10.66    0.66
  -7   2   7   11.52    0.57
   7   2  -7   11.79    0.69
  -4   7   7    2.81    0.40
   7   4   7    2.43    0.37
   4   7  -7    2.19    0.35
  -7   4  -7    1.30    0.35
  -4  -7  -7    2.29    0.31
   7  -4  -7    2.29    0.29
  -4  -7  -7    2.55    0.40
  -7  -4   7    2.43    0.42
   4   7  -7    3.19    0.45
   4  -7   7    2.32    0.38
  -7  -4   7    3.55    0.50
  -4   7   7    2.08    0.33
   7  -4  -7    2.93    0.43
   4  -7   7    2.38    0.28
   7   4  -7    1.71    0.39
   4   7   7    2.30    0.45
   4   7   7    3.06    0.41
  -7  -4  -7    2.16    0.30
  -4   7  -7    2.42    0.31
  -7   4   7    1.71    0.33
  -4  -7   7    2.22    0.43
   7  -4   7    2.25    0.38
  -7   4   7    1.85    0.33
  -4   7  -7    1.60    0.33
   4  -7  -7    1.39    0.37
   7  -4   7    2.57    0.33
  -7  -4  -7    1.93    0.41
   7   6   7    5.17    0.63
  -6  -7  -7    4.58    0.55
  -6   7   7    4.91    0.61
  -6   7   7    5.56    0.54
   7  -6  -7    5.25    0.68
   6   7  -7    5.48    0.67
  -7   6  -7    5.26    0.59
   6   7  -7    5.26    0.55
  -7  -6   7    5.64    0.69
   6  -7   7    5.30    0.61
   7   6   7    5.11    0.54
   7  -6   7    5.27    0.48
   6   7   7    4.50    0.51
   6   7   7    5.41    0.72
   7  -6   7    4.32    0.59
  -6   7  -7    5.63    0.51
  -7   6   7    5.42    0.55
  -6   7  -7    5.68    0.55
   7   6  -7    5.57    0.69
  -7  -6  -7    4.21    0.50
   7   6  -7    5.44    0.59
  -6  -7   7    4.89    0.68
  -7   6   7    5.02    0.55
   6  -7  -7    6.03    0.68
  -8   1  -7   -0.02    0.34
  -1   8   7    0.04    0.30
  -8  -1   7   -0.05    0.27
   1   8  -7    0.46    0.33
  -1  -8  -7    0.17    0.26
  -1   8   7    0.03    0.32
   1  -8   7    0.00    0.26
  -1  -8  -7   -0.34    0.30
   8  -1  -7    0.35    0.28
   8  -1  -7   -0.18    0.30
   1   8  -7   -0.26    0.27
   1  -8   7    0.67    0.29
   8   1   7   -0.11    0.24
  -8  -1   7   -0.37    0.30
   8   1   7   -0.23    0.30
   8   1  -7   -0.46    0.31
  -1   8  -7    0.28    0.29
   8  -1   7    0.12    0.27
   8  -1   7   -0.45    0.28
  -1  -8   7   -0.06    0.23
  -8  -1  -7    0.25    0.36
  -1  -8   7   -0.13    0.31
  -8   1   7   -0.01    0.27
   8   1  -7    0.22    0.27
   1   8   7    0.00    0.34
  -8   1   7    0.09    0.29
  -1   8  -7    0.13    0.29
   1  -8  -7    0.09    0.29
  -8  -3   7    6.62    0.54
  -8   3  -7    7.91    0.64
   3  -8   7    6.96    0.55
  -3   8   7    7.09    0.57
   3   8  -7    5.63    0.60
  -3  -8  -7    6.52    0.41
   8  -3  -7    6.36    0.51
  -8  -3   7    5.90    0.66
   8   3   7    5.60    0.56
   3   8  -7    6.26    0.54
  -3  -8  -7    7.01    0.61
   8  -3  -7    5.93    0.60
  -3   8   7    6.70    0.60
   3  -8   7    6.79    0.50
  -8  -3  -7    6.48    0.70
   3   8   7    6.43    0.47
  -8  -3  -7    6.66    0.47
  -8   3   7    6.32    0.52
  -3   8  -7    6.75    0.49
   8  -3   7    7.20    0.54
  -3   8  -7    6.25    0.56
  -8   3   7    7.05    0.53
  -3  -8   7    5.91    0.56
   8  -3   7    6.89    0.56
   3  -8  -7    6.58    0.59
   8   3  -7    7.38    0.67
   3   8   7    6.51    0.66
  -3  -8   7    6.83    0.41
   5  -8   7    2.25    0.41
  -5   8   7    1.48    0.38
   5   8  -7    1.91    0.38
  -5   8   7    1.67    0.38
  -8  -5   7    1.03    0.36
   8   5   7    1.37    0.40
  -8   5  -7    1.33    0.39
  -5  -8  -7    2.08    0.39
  -8  -5   7    1.79    0.44
   5   8  -7    0.75    0.42
   8  -5  -7    1.61    0.46
  -8   5   7    1.89    0.38
  -8   5   7    1.37    0.34
  -5  -8   7    1.32    0.44
  -5   8  -7    0.52    0.32
   5   8   7    1.54    0.32
   8  -5   7    1.83    0.41
   5   8   7    2.21    0.49
  -5   8  -7    1.37    0.30
  -8  -5  -7    1.50    0.48
   8   5  -7    2.23    0.49
  -8  -5  -7    1.36    0.33
   8  -5   7    0.99    0.31
   5  -8  -7    1.07    0.43
  -8   7  -7    0.17    0.30
  -7   8   7    0.60    0.39
   7  -8   7    0.10    0.39
   7   8  -7   -0.08    0.36
   8  -7  -7    0.03    0.46
  -8  -7   7    0.73    0.45
   7   8  -7   -0.21    0.44
  -7  -8  -7   -0.13    0.36
   8   7   7   -0.33    0.42
  -7   8   7    0.25    0.33
  -8   7  -7   -0.36    0.40
   8   7   7   -0.18    0.31
  -8   7   7    0.02    0.33
   8   7  -7   -0.04    0.37
   7   8   7   -0.11    0.32
  -8   7   7   -0.09    0.36
   7   8   7    0.17    0.48
   8  -7   7   -0.01    0.38
  -7   8  -7   -0.01    0.38
  -8  -7  -7    0.15    0.33
   7  -8  -7    0.50    0.46
  -7  -8   7    0.76    0.45
   8   7  -7    0.26    0.46
   0   9  -7    0.57    0.32
   9   0  -7    0.09    0.33
  -9   0  -7   -0.31    0.31
  -9   0   7    0.03    0.31
   0   9  -7    0.01    0.34
   0   9   7    0.16    0.33
   9   0  -7   -0.09    0.29
   9   0   7    0.26    0.29
   9   0   7   -0.11    0.29
   0  -9   7    0.29    0.33
  -9   0   7    0.23    0.33
   0  -9  -7   -0.07    0.35
   0  -9  -7   -0.50    0.29
   0  -9   7    0.23    0.28
  -2  -9  -7    0.44    0.36
   2   9  -7   -0.27    0.35
   9   2   7    0.27    0.37
   2   9  -7    0.35    0.33
   9  -2  -7    0.93    0.34
  -2  -9  -7    0.88    0.27
   2  -9   7    0.58    0.32
  -9  -2   7    0.47    0.34
   9  -2  -7    0.28    0.36
  -9  -2   7    0.49    0.38
  -2   9   7    0.01    0.33
  -9   2  -7    0.45    0.35
  -2   9   7    0.19    0.35
   2  -9   7    0.41    0.30
  -2   9  -7    1.35    0.33
   2  -9  -7    0.50    0.35
  -2   9  -7    0.59    0.35
   2   9   7    0.00    0.38
  -9   2   7    0.23    0.31
  -9   2   7    0.56    0.32
  -9  -2  -7   -0.09    0.41
  -2  -9   7    0.09    0.38
  -2  -9   7    0.03    0.24
   9   2  -7    0.19    0.39
   9  -2   7    0.93    0.34
   9  -2   7   -0.11    0.30
  -9  -4   7    0.13    0.36
  -4   9   7   -0.57    0.33
  -4  -9  -7    0.39    0.37
   4   9  -7   -0.11    0.38
  -4   9   7   -0.10    0.32
   9   4   7    0.22    0.36
  -9  -4   7    0.14    0.40
   9  -4  -7   -0.04    0.28
  -9   4  -7    0.67    0.39
   4   9  -7    0.02    0.33
   4  -9   7    0.25    0.35
   9  -4  -7   -0.38    0.38
  -9   4   7    0.20    0.32
   9   4  -7    0.28    0.43
   4   9   7    0.26    0.42
  -9  -4  -7   -0.34    0.28
   9  -4   7   -0.18    0.30
   4  -9  -7    0.08    0.40
  -9   4   7   -0.56    0.30
   4   9   7   -0.09    0.26
  -9  -4  -7    0.95    0.44
   9  -4   7    0.23    0.31
  -4   9  -7   -0.23    0.33
  -4  -9   7    0.27    0.42
  -9   6  -7    0.16    0.40
   6  -9   7    1.42    0.45
   6   9  -7    0.47    0.39
   6   9  -7    0.61    0.45
   9  -6  -7    0.64    0.46
  -6  -9  -7    0.82    0.41
  -6   9   7    0.41    0.39
   9   6   7    0.34    0.41
  -9  -6   7    1.25    0.43
  -9  -6   7    0.81    0.46
  -6   9   7    0.34    0.35
  -6  -9   7    0.09    0.45
   6   9   7   -0.63    0.38
  -9  -6  -7    0.02    0.49
  -9   6   7    0.26    0.34
   9  -6   7    0.10    0.40
   9   6  -7    0.49    0.44
  -6   9  -7    1.15    0.43
   6   9   7    0.77    0.32
  -9  -6  -7   -0.06    0.34
   9  -6   7    0.47    0.32
   6  -9  -7    0.33    0.47
  -9   6   7    0.52    0.39
  -9  -8   7    0.88    0.52
   9   8   7    1.65    0.56
  -9   8  -7    1.05    0.50
  -8  -9  -7    1.30    0.46
   8  -9   7    1.70    0.51
   8   9  -7    0.83    0.46
  -8   9   7    1.25    0.42
   9   8   7    0.68    0.43
   8   9  -7    0.72    0.51
  -8   9   7    1.52    0.49
   9  -8  -7    1.32    0.50
  -9  -8  -7    1.42    0.47
   8  -9  -7    1.09    0.53
   8   9   7    2.11    0.46
   9   8  -7    1.21    0.46
  -9   8   7    0.89    0.41
   9   8  -7    1.47    0.55
  -8  -9   7    0.71    0.49
   8   9   7    2.05    0.59
   9  -8   7    1.62    0.50
  -8   9  -7    0.89    0.47
  -9   8   7    1.23    0.47
  10  -1  -7   -0.19    0.34
 -10   1  -7   -0.18    0.42
  10  -1  -7    0.18    0.35
   1 -10   7   -0.02    0.31
   1 -10   7    0.10    0.35
  -1 -10  -7   -0.30    0.29
  10   1   7    0.74    0.40
 -10  -1   7    0.15    0.36
   1  10  -7    0.07    0.36
  -1 -10  -7    0.34    0.39
   1  10  -7   -0.24    0.38
 -10  -1   7   -0.44    0.34
  -1  10   7    0.43    0.40
   1 -10  -7    0.01    0.36
  10  -1   7   -0.06    0.32
  -1  10  -7   -0.48    0.32
  -1 -10   7    0.37    0.39
   1 -10  -7    0.12    0.34
 -10   1   7   -0.32    0.33
 -10   1   7   -0.04    0.33
 -10  -1  -7   -0.16    0.40
   1  10   7   -0.18    0.36
  10   1  -7    0.74    0.41
  10  -1   7    0.13    0.36
  -1 -10   7   -0.02    0.28
  10  -3  -7    0.27    0.40
  -3  10   7    0.03    0.36
 -10   3  -7    0.10    0.43
 -10  -3   7    0.29    0.37
 -10  -3   7    0.52    0.40
   3  10  -7    0.55    0.40
  -3 -10  -7    0.52    0.43
  10  -3  -7    0.66    0.34
   3 -10   7    0.61    0.36
   3  10  -7   -0.16    0.37
  10   3   7    0.29    0.41
   3 -10   7   -0.06    0.32
  -3  10   7    1.21    0.41
  -3  10  -7    0.03    0.37
 -10   3   7    0.47    0.35
  10   3  -7    0.09    0.43
  -3 -10   7    0.68    0.44
   3 -10  -7    0.20    0.39
  10  -3   7   -0.08    0.32
 -10   3   7   -0.04    0.33
   3  10   7   -0.17    0.42
  10  -3   7   -0.20    0.34
 -10  -3  -7   -0.72    0.44
  -5  10   7    0.27    0.42
   5 -10   7    0.23    0.41
  -5  10   7    0.81    0.39
   5  10  -7    0.17    0.41
 -10   5  -7   -0.20    0.41
  10  -5  -7    0.24    0.46
  -5 -10  -7   -0.02    0.42
 -10  -5   7    0.23    0.41
 -10  -5   7   -0.07    0.39
   5  10  -7   -0.35    0.36
  10   5   7   -0.59    0.39
   5 -10  -7    0.07    0.46
  10  -5   7    0.40    0.34
 -10   5   7    0.03    0.39
   5  10   7    0.48    0.47
  10   5  -7   -0.92    0.38
  -5  10  -7    0.44    0.43
  -5 -10   7    0.82    0.48
 -10  -5  -7    0.70    0.53
 -10   5   7    0.70    0.36
  10  -5   7   -0.20    0.39
  10   7   7    0.63    0.44
 -10  -7   7    0.47    0.46
 -10   7  -7    0.59    0.49
   7 -10   7    0.23    0.40
   7  10  -7    0.42    0.48
  -7 -10  -7   -0.25    0.43
  10  -7  -7    0.83    0.52
   7  10  -7    0.44    0.45
 -10  -7   7    0.71    0.52
  -7  10   7    0.88    0.40
  -7  10   7    0.35    0.46
 -10   7   7    0.64    0.39
 -10  -7  -7    0.14    0.57
 -10  -7  -7    0.42    0.40
  10  -7   7    0.74    0.47
  -7  10  -7   -0.05    0.41
   7  10   7    0.05    0.51
   7  10   7   -0.31    0.34
   7 -10  -7   -0.48    0.48
 -10   7   7    0.16    0.43
  10   7  -7    0.52    0.52
  -7 -10   7    0.78    0.52
  -9  10   7    0.26    0.50
   9  10  -7    0.55    0.55
 -10  -9   7    0.81    0.53
   9 -10   7    1.93    0.55
  10   9   7    0.41    0.50
  -9 -10  -7   -0.20    0.47
  10   9   7   -0.05    0.47
 -10  -9   7    0.23    0.55
   9  10  -7    0.24    0.44
 -10   9  -7    1.40    0.58
  10  -9  -7   -0.62    0.46
  10   9  -7   -0.26    0.55
  -9 -10   7   -0.01    0.53
 -10   9   7    0.18    0.52
 -10  -9  -7   -0.47    0.52
   9  10   7   -0.13    0.45
 -10  -9  -7   -0.75    0.48
  -9  10  -7    0.32    0.51
   9  10   7   -1.17    0.52
   9 -10  -7    0.31    0.56
  10  -9   7    0.32    0.50
  11   0   7   -0.29    0.39
   0 -11  -7   -0.06    0.36
 -11   0  -7    0.12    0.47
   0 -11  -7   -0.19    0.42
   0 -11   7    0.03    0.38
 -11   0   7   -0.85    0.37
   0  11  -7    0.16    0.38
   0  11   7   -0.27    0.41
   0 -11   7    0.26    0.32
 -11   0   7   -0.75    0.37
  11   0  -7    0.44    0.43
   2 -11   7    8.87    0.70
  11   2   7    6.41    0.76
   2  11  -7    8.96    0.74
  -2 -11  -7    9.38    0.81
   2  11  -7    7.98    0.74
 -11   2  -7    7.59    0.84
  11  -2  -7    8.59    0.73
   2 -11   7    8.85    0.72
  -2  11   7    7.34    0.78
 -11  -2   7    8.23    0.75
  11  -2  -7    8.85    0.76
 -11  -2   7    8.23    0.75
  11   2  -7    8.91    0.77
  -2  11  -7    8.24    0.76
   2 -11  -7    8.16    0.71
 -11   2   7    6.79    0.64
   2 -11  -7    7.92    0.75
  11  -2   7    6.70    0.69
 -11  -2  -7    6.73    0.86
  11  -2   7    7.90    0.71
  -2 -11   7    8.34    0.79
 -11   2   7    7.53    0.75
   2  11   7    8.97    0.84
   4  11  -7    0.15    0.43
  11   4   7   -0.48    0.40
  -4  11   7   -0.03    0.43
  -4  11   7    0.01    0.39
 -11  -4   7    0.25    0.43
 -11  -4   7    0.14    0.43
  11  -4  -7    0.36    0.44
   4 -11   7    0.77    0.40
   4  11  -7    0.13    0.42
  -4 -11  -7   -0.33    0.44
 -11   4  -7   -0.17    0.43
  -4  11  -7    0.44    0.43
   4 -11  -7    0.10    0.42
   4  11   7   -0.13    0.45
  11  -4   7   -0.25    0.41
  11  -4   7    0.29    0.37
 -11   4   7   -0.40    0.34
  -4 -11   7    0.54    0.47
 -11   4   7   -0.03    0.39
 -11  -4  -7   -0.36    0.50
  11   4  -7   -0.32    0.42
   6  11  -7    2.67    0.57
 -11   6  -7    4.02    0.58
  -6 -11  -7    3.04    0.56
  11  -6  -7    2.01    0.55
 -11  -6   7    2.62    0.53
  -6  11   7    3.04    0.51
  11   6   7    3.09    0.58
 -11  -6   7    3.27    0.58
  -6  11   7    3.34    0.56
   6  11  -7    2.95    0.56
   6 -11   7    2.47    0.52
  11   6  -7    2.57    0.60
  -6 -11   7    3.28    0.64
 -11   6   7    2.93    0.54
  -6  11  -7    3.55    0.60
   6 -11  -7    2.17    0.55
   6  11   7    1.58    0.57
  11  -6   7    2.39    0.45
 -11  -6  -7    3.04    0.66
  11  -6   7    2.92    0.54
   8  11  -7    2.99    0.61
  11  -8  -7    3.69    0.69
 -11  -8   7    3.94    0.70
  11   8   7    3.39    0.63
  -8 -11  -7    4.08    0.65
 -11   8  -7    3.70    0.63
   8  11  -7    4.27    0.64
  -8  11   7    4.00    0.65
  -8  11   7    3.03    0.53
   8 -11   7    4.08    0.67
 -11  -8  -7    4.15    0.73
  -8  11  -7    2.97    0.64
   8  11   7    3.71    0.74
  11   8  -7    4.58    0.70
 -11   8   7    6.22    0.84
   8 -11  -7    3.94    0.69
  11  -8   7    3.28    0.63
  -8 -11   7    3.00    0.69
  10 -11   7    0.60    0.50
  10  11  -7    1.22    0.62
  11  10   7   -0.20    0.53
  11 -10  -7    0.37    0.62
 -11 -10   7    0.62    0.62
 -11  10  -7    1.84    0.64
 -10 -11  -7    1.90    0.60
 -10  11   7    1.00    0.58
 -11  10   7    0.01    0.56
 -11 -10  -7    1.24    0.66
  11 -10   7    0.70    0.57
 -10 -11   7    0.51    0.62
  11  10  -7    0.76    0.58
 -10  11  -7    0.93    0.58
  10  11   7    0.13    0.47
  10 -11  -7   -0.01    0.60
  10  11   7    1.61    0.68
 -11 -10  -7    0.42    0.56
  12   1   7    4.40    0.61
   1 -12   7    4.58    0.58
   1 -12   7    5.42    0.60
 -12  -1   7    5.46    0.69
  -1  12   7    5.50    0.79
 -12   1  -7    3.90    0.63
 -12  -1   7    5.22    0.70
  12  -1  -7    5.84    0.71
  -1 -12  -7    5.00    0.64
   1  12  -7    6.13    0.78
  12  -1   7    4.26    0.58
 -12   1   7    5.36    0.71
  12   1  -7    4.32    0.59
   1  12   7    4.31    0.64
   1 -12  -7    4.77    0.67
  -1  12  -7    4.29    0.57
   1 -12  -7    4.50    0.60
 -12   1   7    5.12    0.59
  -1 -12   7    4.36    0.57
 -12  -1  -7    4.32    0.65
  12   3   7   -0.71    0.46
 -12  -3   7   -0.39    0.42
  12  -3  -7    0.07    0.45
   3 -12   7    0.47    0.42
 -12   3  -7   -0.03    0.42
 -12  -3   7    0.58    0.46
  -3  12   7    0.70    0.47
   3  12  -7   -0.06    0.42
  -3 -12  -7    0.08    0.46
  -3  12  -7    0.26    0.43
   3 -12  -7   -0.04    0.43
   3  12   7   -0.34    0.50
  12   3  -7   -0.65    0.48
  12  -3   7    0.18    0.42
 -12   3   7   -0.43    0.43
   3 -12  -7    0.18    0.44
 -12  -3  -7   -0.60    0.53
  -3 -12   7    0.55    0.49
  12  -3   7   -0.46    0.40
 -12   5  -7    0.54    0.52
  -5 -12  -7    1.12    0.53
  -5  12   7   -0.57    0.44
 -12  -5   7    0.64    0.50
   5  12  -7    0.48    0.48
   5 -12   7   -0.15    0.43
   5  12  -7    0.87    0.48
  12   5   7    0.01    0.50
  12  -5  -7    0.61    0.51
   5 -12  -7    0.03    0.48
  12  -5   7   -0.33    0.38
 -12   5   7    0.36    0.47
   5 -12  -7    0.78    0.49
  12  -5   7    0.89    0.49
 -12  -5  -7    1.41    0.59
  12   5  -7   -0.14    0.53
  -5 -12   7    0.67    0.52
  -5  12  -7    0.97    0.49
   5  12   7    1.50    0.57
   7 -12   7    6.89    0.84
   7  12  -7    8.28    0.96
 -12  -7   7    7.95    0.92
  12  -7  -7    7.22    0.94
  12   7   7    6.41    0.89
 -12   7  -7    8.56    0.96
  -7 -12  -7    7.72    0.94
  -7  12   7    8.17    0.83
   7  12  -7    6.77    0.85
  -7  12   7    8.77    0.92
  12   7  -7    7.75    0.96
   7  12   7    6.44    0.81
  12  -7   7    6.74    0.92
  -7  12  -7    7.79    0.89
   7 -12  -7    8.31    0.95
  -7 -12   7    6.71    0.84
 -12   7   7    6.66    0.92
 -12  -7  -7    7.67    1.06
 -12  -9   7   -0.39    0.59
   9 -12   7   -0.30    0.55
  -9 -12  -7   -0.07    0.57
 -12   9  -7   -0.19    0.55
  12   9   7    1.20    0.63
  12  -9  -7    0.44    0.62
  -9  12   7    0.42    0.60
   9  12  -7    1.97    0.63
 -12  -9  -7    0.27    0.64
   9  12   7    0.10    0.62
  12  -9   7    1.15    0.60
  12   9  -7   -0.17    0.51
  -9 -12   7    0.81    0.65
 -12   9   7    0.23    0.57
   9 -12  -7    0.68    0.56
  -9  12  -7   -0.05    0.59
 -11 -12  -7    0.07    0.64
  12  11   7    0.04    0.58
 -13   0  -7   -0.19    0.53
 -13   0   7   -0.15    0.46
   0  13  -7    0.32    0.48
   0  13   7   -0.01    0.54
  13   0   7   -0.14    0.45
  13   0  -7    0.30    0.50
   0 -13  -7   -0.79    0.46
   0 -13   7    0.29    0.47
  13  -2  -7    2.01    0.52
   2 -13   7    1.87    0.48
  13   2   7    1.25    0.56
 -13   2  -7    1.91    0.57
 -13  -2   7    2.62    0.57
   2 -13   7    2.27    0.52
   2  13  -7    2.38    0.58
  -2  13   7    1.54    0.55
 -13  -2   7    1.70    0.57
  -2 -13  -7    1.44    0.54
 -13  -2  -7    2.48    0.67
   2  13   7    2.14    0.60
  -2  13  -7    1.99    0.53
   2 -13  -7    1.96    0.51
 -13   2   7    2.13    0.54
  13   2  -7    2.11    0.55
  13  -2   7    3.47    0.58
  -2 -13   7    3.34    0.65
   2 -13  -7    1.81    0.57
  -4 -13  -7    0.99    0.55
  13   4   7    0.06    0.52
   4  13  -7    1.15    0.55
  -4  13   7    0.05    0.49
  13  -4  -7    0.89    0.51
   4 -13   7    0.82    0.47
 -13   4  -7    0.88    0.56
 -13  -4   7   -0.18    0.49
   4 -13  -7    1.45    0.54
 -13   4   7    1.06    0.52
   4 -13  -7    0.76    0.54
  13  -4   7    1.11    0.49
   4  13   7    0.55    0.57
  13   4  -7    0.86    0.56
 -13  -4  -7    0.54    0.63
  -4 -13   7    0.13    0.54
  13  -4   7    0.58    0.46
  -4  13  -7    1.09    0.52
   6  13  -7    1.41    0.59
  -6  13   7    2.44    0.63
 -13   6  -7    0.23    0.56
   6 -13   7    0.85    0.53
 -13  -6   7    2.11    0.59
  13   6   7    1.58    0.61
  -6 -13  -7    1.06    0.57
  13  -6  -7    1.04    0.57
  -6 -13   7    0.69    0.59
 -13  -6  -7    1.89    0.71
  -6  13  -7    1.05    0.58
  13  -6   7    1.70    0.59
   6  13   7    1.26    0.62
   6 -13  -7    1.13    0.57
   6 -13  -7    1.46    0.55
 -13   6   7    2.40    0.57
  13   6  -7    1.12    0.58
  13  -8  -7   -0.13    0.56
  13   8   7   -0.34    0.57
  -8  13   7   -0.38    0.54
   8  13  -7   -0.22    0.55
  -8 -13  -7   -0.34    0.54
   8 -13   7   -0.32    0.52
   8  13  -7   -0.08    0.54
 -13  -8   7    0.41    0.60
 -13   8  -7    0.58    0.62
 -13   8   7   -1.00    0.52
  -8 -13   7    0.08    0.63
   8 -13  -7    0.41    0.62
 -13  -8  -7   -0.58    0.64
  -8  13  -7   -0.19    0.55
  13   8  -7    0.65    0.59
  13  -8   7   -1.04    0.51
   8  13   7   -1.15    0.55
  10  13  -7    0.51    0.60
 -14   1  -7    0.09    0.61
   1  14  -7   -0.07    0.52
  14   1   7    1.66    0.57
  -1  14   7    0.35    0.54
  -1 -14  -7    0.93    0.57
  14  -1  -7    1.21    0.56
   1 -14   7    1.17    0.53
 -14  -1  -7    0.21    0.60
   1 -14  -7   -0.19    0.50
  -1  14  -7    0.60    0.53
  14   1  -7    0.56    0.55
   1  14   7    0.40    0.56
  -1 -14   7    0.72    0.53
  14  -1   7    0.28    0.51
 -14   3  -7    0.46    0.56
  14   3   7    0.79    0.58
  -3  14   7    1.11    0.58
   3 -14   7    0.34    0.48
  -3 -14  -7    0.64    0.57
   3  14  -7    0.41    0.55
  14   3  -7    0.59    0.58
  -3 -14   7    0.41    0.57
   3  14   7    0.22    0.59
  14  -3   7    0.35    0.47
   3 -14  -7   -0.38    0.52
 -14   3   7    0.42    0.53
 -14  -3  -7    0.75    0.64
   3 -14  -7    0.06    0.48
  -3  14  -7    1.41    0.52
   5 -14   7    0.19    0.50
 -14   5  -7    0.05    0.58
  14   5   7    0.57    0.59
  -5 -14  -7    1.12    0.60
  -5  14   7   -0.04    0.53
   5  14  -7    0.13    0.54
  14  -5  -7    1.18    0.56
 -14  -5   7    0.69    0.55
 -14   5   7   -0.24    0.50
  -5  14  -7    1.01    0.57
   5 -14  -7    0.20    0.54
  -5 -14   7    0.05    0.59
  14   5  -7    0.72    0.62
 -14  -5  -7    0.13    0.69
   5 -14  -7    1.10    0.56
   5  14   7    0.85    0.61
  14  -5   7    0.17    0.51
   7 -14   7   -0.26    0.54
 -14  -7   7    0.13    0.58
  14   7   7   -0.47    0.57
  14  -7  -7   -0.66    0.53
   7  14  -7    0.32    0.59
  -7  14   7   -0.25    0.54
  -7 -14  -7    0.33    0.61
 -14   7   7    0.51    0.57
   7 -14  -7   -0.37    0.59
  -7  14  -7    0.59    0.59
  14  -7   7    0.36    0.57
 -14  -7  -7    0.45    0.69
   0  15   7   -0.27    0.56
   0 -15   7   -0.16    0.53
   0  15  -7   -0.27    0.50
   0 -15  -7   -0.51    0.53
 -15   0  -7   -0.55    0.61
  15   0  -7    0.37    0.58
  15   0   7   -0.11    0.55
   2  15  -7    2.67    0.67
  -2 -15  -7    5.21    0.79
 -15   2  -7    7.40    1.05
  -2  15   7    3.93    0.74
  15   2   7    3.01    0.65
   2  15   7    4.59    0.79
  15   2  -7    3.84    0.72
  15  -2   7    3.19    0.66
  -2  15  -7    3.91    0.67
   2 -15  -7    5.18    0.76
  -2 -15   7    3.97    0.74
 -15  -2  -7    3.39    0.79
  -4  15   7    0.24    0.61
  15   4   7    0.67    0.62
   4  15  -7    0.46    0.61
   4 -15   7    0.08    0.50
 -15   4  -7    0.60    0.61
  -4 -15  -7    0.55    0.58
  -4  15  -7   -0.09    0.53
 -15  -4  -7    0.95    0.69
  15  -4   7    1.38    0.55
   4 -15  -7    0.60    0.59
   4  15   7   -0.17    0.58
  -4 -15   7    0.75    0.64
   4 -15  -7    0.81    0.59
  15   4  -7    0.60    0.64
   6  15  -7    3.19    0.73
   6 -15   7    2.39    0.65
  15  -6  -7    2.49    0.66
  15  -6   7    2.92    0.70
   6 -15  -7    2.67    0.69
   6 -15  -7    2.93    0.69
   1  16  -7   -0.98    0.55
  16  -1   7   -0.32    0.57
  -1  16  -7   -0.34    0.57
  16   1  -7   -0.10    0.63
  -1 -16   7    0.16    0.63
   3  16  -7    4.35    0.78
  16  -3   7    6.73    0.94
   0   0   8  153.02    2.88
   0   0   8  153.59    2.89
   0   0  -8  149.54    2.92
   0   0  -8  152.71    2.76
  -1  -1  -8   -0.06    0.21
  -1   1  -8    0.04    0.21
   1  -1   8    0.06    0.17
  -1  -1   8    0.09    0.24
   1   1  -8   -0.30    0.23
  -1   1  -8   -0.29    0.15
  -1   1   8    0.12    0.15
  -1  -1   8   -0.23    0.23
   1   1   8   -0.20    0.19
  -1   1   8    0.02    0.23
   1   1   8   -0.07    0.21
  -1   1   8   -0.43    0.28
   1   1   8    0.07    0.27
   1  -1   8   -0.33    0.24
   1  -1  -8   -0.26    0.22
   1   1   8   -0.14    0.21
   0  -2  -8    0.10    0.18
   0   2   8    0.14    0.29
   0   2  -8    0.28    0.14
   0  -2   8    0.18    0.25
   0   2   8    0.17    0.22
   2   0  -8    0.15    0.25
  -2   0   8    0.16    0.26
   2   0   8   -0.30    0.22
   0   2  -8    0.39    0.26
   2   0   8    0.33    0.15
   0  -2   8    0.54    0.23
  -2   0   8   -0.04    0.27
   0   2   8    0.04    0.21
  -2   0  -8    0.11    0.21
   2   0   8   -0.14    0.22
  -2  -2   8   -0.44    0.25
   2   2   8   -0.58    0.22
  -2   2   8   -0.46    0.16
  -2  -2   8   -0.91    0.26
   2  -2   8    0.05    0.28
   2   2  -8   -0.51    0.14
   2   2  -8   -0.43    0.29
  -2   2  -8   -0.29    0.20
   2   2   8   -0.02    0.21
   2   2   8   -0.36    0.26
   2   2   8    0.00    0.26
   2  -2   8   -0.40    0.15
  -2   2   8   -0.64    0.24
   2  -2  -8   -0.63    0.29
   2  -2  -8   -0.71    0.19
  -2   2  -8   -0.59    0.24
  -3  -1   8    0.15    0.13
  -3   1  -8   -0.04    0.22
   3  -1  -8   -0.20    0.29
   3  -1  -8    0.31    0.25
   3   1   8    0.05    0.23
   1  -3   8    0.19    0.21
   1   3  -8    0.21    0.28
  -1   3   8    0.00    0.20
   3   1   8    0.73    0.25
  -3  -1   8    0.83    0.29
   1  -3   8    0.19    0.23
  -1   3   8    0.24    0.22
  -3  -1   8   -0.08    0.25
   1   3  -8    0.35    0.16
   3   1   8    0.51    0.17
   1   3   8   -0.15    0.26
  -1  -3   8    0.16    0.26
   1   3   8    0.23    0.22
   3  -1   8    0.30    0.11
  -1  -3   8    0.27    0.23
   3   1  -8    0.58    0.31
  -1   3  -8    0.05    0.25
  -3   1   8    0.29    0.15
   1   3   8    0.54    0.25
   3  -1   8    0.26    0.24
   1  -3  -8    0.27    0.16
  -1   3  -8    0.32    0.18
   1  -3  -8    0.34    0.28
   3  -1   8    0.18    0.23
  -3  -1  -8    0.12    0.26
   1   3   8    0.24    0.19
  -3   1   8    0.17    0.27
  -3   3  -8    0.26    0.23
   3   3   8    0.08    0.29
  -3   3   8    0.16    0.19
   3  -3  -8   -0.34    0.30
   3   3  -8    0.04    0.32
   3   3  -8    0.17    0.18
  -3   3  -8   -0.36    0.23
  -3  -3   8   -0.13    0.22
  -3   3   8   -0.21    0.24
   3  -3   8   -0.36    0.22
  -3  -3   8    0.29    0.29
   3   3   8    0.03    0.23
   3   3   8   -0.07    0.22
   3  -3   8    0.00    0.13
   3   3   8    0.20    0.24
   3  -3  -8   -0.03    0.20
   0   4   8  930.25   16.44
   4   0   8  859.33   16.51
   0   4   8  865.01   16.25
   0   4   8  883.22   16.38
  -4   0   8  975.38   16.13
  -4   0  -8  931.90   16.29
   0  -4   8  973.33   16.44
   4   0   8  891.85   15.94
   0  -4   8  974.69   15.94
   0   4  -8  876.96   16.51
  -4   0  -8  834.47   16.26
   0  -4  -8  902.22   15.97
   4   0  -8  919.83   15.97
   0   4  -8  901.34   16.17
  -4   0   8  967.77   16.49
   4   0  -8  893.17   16.52
   2   4  -8    0.28    0.32
   2  -4   8   -0.17    0.20
  -4   2  -8   -0.02    0.25
   4   2   8    0.00    0.23
   4   2   8   -0.12    0.24
   4  -2  -8   -0.27    0.30
  -2   4   8    0.00    0.26
  -4  -2   8    0.59    0.30
  -4  -2   8   -0.48    0.18
  -4  -2   8    0.02    0.23
   2   4  -8    0.03    0.19
  -2   4   8    0.35    0.23
   4  -2  -8    0.13    0.23
  -2  -4  -8   -0.06    0.22
   2  -4   8    0.00    0.24
  -2   4  -8    0.15    0.21
  -4  -2  -8   -0.06    0.17
   4  -2   8   -0.06    0.24
  -4  -2  -8   -0.19    0.28
  -2  -4   8    0.56    0.30
   2   4   8   -0.18    0.24
   4   2  -8   -0.16    0.32
  -4   2   8    0.19    0.18
  -4   2   8    0.15    0.25
   2   4   8   -0.11    0.20
   2  -4  -8    0.44    0.31
   2  -4  -8    0.14    0.15
  -2   4  -8    0.08    0.25
   2   4   8    0.16    0.24
   2   4   8   -0.23    0.29
  -2  -4   8    0.11    0.21
   4  -2   8    0.46    0.24
  -4  -4  -8   61.89    1.39
  -4   4   8   61.28    1.36
   4  -4   8   63.01    1.44
  -4   4   8   61.01    1.43
   4   4   8   61.95    1.32
  -4  -4   8   58.34    1.48
  -4  -4   8   60.27    1.29
   4   4  -8   62.53    1.52
   4   4  -8   61.67    1.34
   4  -4  -8   60.99    1.26
   4   4   8   61.69    1.41
  -4   4  -8   61.39    1.41
   4   4   8   59.67    1.52
   4  -4  -8   60.61    1.45
  -4   4  -8   60.99    1.41
   4  -4   8   61.29    1.21
   1  -5   8    0.69    0.27
   5   1   8   -0.27    0.23
  -1  -5  -8    0.20    0.24
  -1   5   8    0.96    0.27
   1  -5   8    0.28    0.24
   1   5  -8    0.29    0.21
  -5  -1   8    0.33    0.31
   5   1   8    0.50    0.27
  -5   1  -8    0.20    0.26
   5  -1  -8    0.17    0.29
  -1   5   8    0.12    0.22
   5  -1  -8   -0.13    0.25
   1   5  -8    0.12    0.30
  -5  -1   8    0.39    0.19
  -5  -1  -8    0.27    0.30
   1   5   8   -0.18    0.27
   1   5   8    0.25    0.26
   5   1  -8    0.93    0.33
  -1   5  -8    0.24    0.26
  -5   1   8    0.33    0.24
   1  -5  -8    0.58    0.13
  -1  -5   8    0.49    0.29
  -5   1   8   -0.15    0.19
   5  -1   8    0.58    0.26
   1  -5  -8   -0.17    0.26
  -1  -5   8    0.14    0.21
   5   1  -8    0.12    0.25
  -1   5  -8    0.36    0.23
   1   5   8    0.21    0.17
  -5  -1  -8    0.56    0.16
   5  -1   8    0.10    0.25
  -5  -3   8    0.73    0.33
   5  -3  -8    1.21    0.24
   5   3   8    0.82    0.27
   5   3   8    1.32    0.25
   5  -3  -8    0.37    0.28
  -3   5   8    1.13    0.31
   3  -5   8    1.32    0.22
   5   3   8    0.85    0.31
  -3  -5  -8    1.15    0.27
  -3  -5  -8    0.94    0.23
   3  -5   8    0.64    0.31
  -5  -3   8    1.55    0.26
  -3   5   8    0.66    0.26
   3   5  -8    0.81    0.35
  -5   3  -8    0.79    0.26
   3   5  -8    0.68    0.23
   3  -5  -8    1.14    0.14
  -3  -5   8    0.96    0.34
   3   5   8    0.53    0.33
  -5   3   8    0.85    0.27
   5  -3   8    0.87    0.27
  -3   5  -8    1.11    0.27
   5   3  -8    1.20    0.37
  -5   3   8    1.13    0.24
   3  -5  -8    0.80    0.30
  -3   5  -8    0.80    0.26
  -3  -5   8    1.13    0.22
  -5  -3  -8    0.96    0.21
   5   3  -8    1.18    0.27
   3   5   8    0.69    0.23
  -5  -3  -8    1.38    0.35
   5  -3   8    0.62    0.30
   5   5   8    0.06    0.34
  -5   5  -8    0.01    0.25
   5   5   8    0.03    0.28
   5   5  -8   -0.33    0.35
  -5   5  -8    0.24    0.26
  -5   5   8    0.14    0.28
   5  -5  -8   -0.01    0.16
  -5  -5  -8   -0.31    0.21
   5   5   8   -0.14    0.20
  -5   5   8    0.07    0.25
  -5  -5   8   -0.07    0.19
   5   5  -8    0.20    0.26
   5  -5  -8    0.25    0.34
   5  -5   8    0.15    0.27
  -5  -5   8   -0.04    0.34
  -6   0   8    1.29    0.25
   6   0  -8    0.14    0.30
   6   0  -8    0.48    0.28
   0  -6   8    0.55    0.24
   0   6   8    0.64    0.29
   0  -6  -8    0.99    0.29
   0   6  -8    0.72    0.30
  -6   0  -8    1.09    0.14
   0  -6   8    0.38    0.27
   6   0   8    0.60    0.25
   0   6   8    0.58    0.15
   6   0   8    0.70    0.29
  -6   0  -8    0.58    0.31
   0   6   8    0.84    0.30
   0   6  -8    0.61    0.26
  -6   0   8    0.21    0.30
   2   6  -8    0.43    0.24
  -2   6   8   -0.22    0.24
  -6  -2   8   -0.06    0.23
   6  -2  -8   -0.50    0.27
   6  -2  -8    0.15    0.26
  -2   6   8   -0.12    0.26
   6   2   8    0.13    0.23
  -6  -2   8   -0.15    0.30
   2  -6   8   -0.16    0.26
   6   2   8   -0.45    0.27
  -2  -6  -8   -0.29    0.21
   2  -6   8   -0.03    0.24
   2   6  -8    0.09    0.32
  -6   2  -8    0.19    0.30
  -2  -6  -8   -0.17    0.27
  -6   2   8    0.44    0.29
  -2  -6   8   -0.59    0.19
   2   6   8   -0.26    0.20
   6   2  -8   -0.27    0.23
   2   6   8   -0.16    0.31
   6  -2   8   -0.10    0.26
   6   2  -8   -0.28    0.28
  -6  -2  -8    0.02    0.17
  -6   2   8   -0.08    0.22
  -2  -6   8   -0.40    0.30
   6  -2   8    0.12    0.27
  -6  -2  -8   -0.58    0.33
   2  -6  -8   -0.11    0.29
  -2   6  -8   -0.22    0.22
  -2   6  -8    0.27    0.26
   6   4   8    0.09    0.22
   6   4   8   -0.07    0.30
  -4   6   8   -0.22    0.24
  -4   6   8    0.41    0.28
   6  -4  -8    0.27    0.21
  -4  -6  -8   -0.03    0.27
  -6  -4   8    0.10    0.27
   6   4   8    0.11    0.30
  -6   4  -8    0.27    0.30
  -6  -4   8    0.50    0.33
   4  -6   8    0.16    0.20
  -4  -6  -8    0.30    0.20
   6  -4  -8    0.57    0.35
   4   6  -8    0.18    0.25
   4   6  -8    0.35    0.36
   4  -6   8    0.42    0.27
   6  -4   8   -0.31    0.29
  -6   4   8    0.60    0.26
   4   6   8    0.32    0.36
   4   6   8    0.40    0.25
   6  -4   8   -0.04    0.24
   6   4  -8    0.27    0.23
  -6  -4  -8    0.32    0.22
   4  -6  -8   -0.04    0.32
  -4   6  -8    0.06    0.24
  -4  -6   8   -0.11    0.18
   6   4  -8    0.32    0.31
  -4   6  -8    0.03    0.27
  -4  -6   8   -0.31    0.33
  -6  -4  -8   -0.02    0.34
  -6   4   8    0.08    0.27
   6   6  -8   -0.53    0.37
   6   6  -8   -0.65    0.28
   6   6   8   -0.40    0.29
   6   6   8   -0.21    0.39
  -6   6   8    0.11    0.30
   6  -6  -8   -0.04    0.36
  -6   6  -8   -0.03    0.30
  -6  -6  -8    0.08    0.27
  -6   6  -8   -0.12    0.26
  -6  -6   8   -0.71    0.31
  -6   6   8    0.14    0.30
   6  -6   8    0.14    0.31
   7  -1  -8    0.53    0.29
   1   7  -8    0.30    0.32
   1  -7   8    0.89    0.29
   7  -1  -8    1.16    0.32
  -7  -1   8    0.58    0.26
  -1  -7  -8    0.63    0.25
   1  -7   8    0.57    0.27
  -7  -1   8    0.43    0.32
   7   1   8    0.91    0.33
   7   1   8    0.54    0.25
  -7   1  -8    1.02    0.36
  -1   7   8    0.62    0.30
   1   7  -8    0.46    0.27
  -1   7   8    0.85    0.32
  -7  -1  -8    0.62    0.18
  -1   7  -8    1.08    0.29
   7   1  -8    1.04    0.28
  -7  -1  -8    0.21    0.33
   1   7   8    0.61    0.19
   1   7   8    0.71    0.34
  -1  -7   8    0.97    0.31
  -7   1   8    0.08    0.29
  -1  -7   8    0.48    0.24
   1  -7  -8    0.51    0.30
   1   7   8    0.84    0.31
  -1   7  -8    0.46    0.29
   7   1  -8    0.67    0.35
   7  -1   8    0.52    0.29
   7  -1   8    0.61    0.28
  -7   1   8    1.01    0.27
  -7   3  -8    0.22    0.33
   3  -7   8    0.18    0.24
   3  -7   8   -0.07    0.28
   7   3   8   -0.65    0.29
  -3  -7  -8   -0.15    0.20
   7   3   8    0.25    0.24
   7  -3  -8   -0.15    0.31
   7  -3  -8   -0.07    0.25
  -7  -3   8    0.03    0.35
  -3   7   8   -0.13    0.27
   3   7  -8    0.05    0.36
  -7  -3   8   -0.12    0.26
  -3  -7  -8    0.49    0.31
   3   7  -8    0.00    0.26
  -3   7   8    0.11    0.27
  -3  -7   8    0.06    0.20
  -3   7  -8    0.07    0.27
  -3  -7   8   -0.10    0.30
   3   7   8    0.34    0.35
   7  -3   8   -0.47    0.29
  -7  -3  -8   -0.08    0.38
   7   3  -8   -0.10    0.34
   3   7   8    0.08    0.24
  -7  -3  -8   -0.10    0.20
  -7   3   8   -0.24    0.27
  -3   7  -8    0.12    0.26
  -7   3   8   -0.19    0.24
   7  -3   8    0.58    0.29
   3  -7  -8   -0.69    0.30
   7   3  -8    0.48    0.24
   5  -7   8    0.89    0.34
   7  -5  -8    0.89    0.37
   7   5   8    0.81    0.37
  -7   5  -8    1.35    0.33
   5   7  -8    1.61    0.34
  -5   7   8    0.91    0.35
  -5   7   8    1.77    0.37
   5   7  -8    0.45    0.38
  -7  -5   8    1.16    0.34
   7   5   8    1.12    0.36
  -7  -5   8    1.77    0.43
  -5  -7  -8    0.83    0.31
  -7  -5  -8    1.30    0.42
  -7   5   8    0.98    0.32
   7  -5   8    1.61    0.32
  -5  -7   8    1.02    0.40
  -5   7  -8    1.55    0.36
  -5   7  -8    1.21    0.29
   7  -5   8    1.23    0.35
   5  -7  -8    1.47    0.41
  -7  -5  -8    1.08    0.29
   5   7   8    0.83    0.31
   7   5  -8    0.66    0.41
  -7   5   8    1.01    0.33
   5   7   8    0.96    0.40
  -7   7  -8   -0.09    0.29
   7  -7   8   -0.20    0.37
  -7  -7  -8    0.19    0.33
   7   7   8    0.02    0.32
   7   7   8    0.60    0.40
   7  -7  -8   -0.18    0.37
  -7  -7   8   -0.72    0.42
  -7   7   8    0.08    0.35
   7   7  -8   -0.24    0.40
  -7   7  -8    0.25    0.34
  -7   7   8   -0.31    0.32
   7   7  -8    0.00    0.35
   8   0   8   22.21    0.78
   8   0   8   22.35    0.86
   0   8   8   22.59    0.83
   0   8  -8   22.29    0.83
   0  -8  -8   22.63    0.81
  -8   0   8   22.84    0.78
   0  -8   8   21.62    0.83
   0   8   8   21.54    0.87
   8   0  -8   21.76    0.87
   0   8  -8   23.15    0.80
   8   0  -8   22.56    0.81
   0  -8   8   23.67    0.76
  -8   0  -8   23.49    0.93
  -8   0   8   22.79    0.87
  -2   8   8    0.09    0.31
   2  -8   8    0.26    0.30
  -2  -8  -8    0.57    0.34
   2   8  -8    0.13    0.30
   2   8  -8    0.64    0.38
   8  -2  -8    0.26    0.34
   8   2   8    0.82    0.35
   8   2   8    0.17    0.24
  -8  -2   8    0.09    0.35
   2  -8   8    0.64    0.29
  -2   8   8    0.25    0.30
  -8  -2   8    0.41    0.29
  -8   2  -8   -0.05    0.34
  -2  -8  -8    0.32    0.24
   8  -2  -8    0.29    0.29
   8  -2   8    0.44    0.29
  -8  -2  -8    0.48    0.35
   8  -2   8    0.46    0.32
   2   8   8   -0.06    0.22
  -2   8  -8    0.47    0.28
  -8   2   8   -0.16    0.27
   8   2  -8    0.28    0.25
  -8   2   8    0.40    0.31
   2  -8  -8    0.09    0.33
  -2  -8   8    0.54    0.24
   2   8   8    0.07    0.37
   8   2  -8    0.51    0.34
  -2  -8   8   -0.42    0.33
  -2   8  -8    0.10    0.27
   8  -4  -8  385.91    7.09
  -8  -4   8  390.97    7.11
   4   8  -8  387.96    7.14
  -4   8   8  380.97    7.18
   8  -4  -8  387.74    7.12
  -4  -8  -8  382.21    7.27
  -8   4  -8  377.76    7.21
  -8  -4   8  379.26    7.32
   8   4   8  373.04    7.30
  -4   8   8  376.80    7.24
   4  -8   8  378.87    7.04
   4   8  -8  378.31    7.31
   8  -4   8  381.62    7.06
  -8   4   8  383.44    7.21
  -8  -4  -8  386.14    7.13
   4   8   8  378.08    7.14
  -8  -4  -8  384.39    7.33
  -4   8  -8  378.51    7.15
  -4  -8   8  387.43    7.34
   8  -4   8  371.93    7.22
   8   4  -8  372.16    7.37
   4  -8  -8  378.49    7.09
   4   8   8  376.95    7.30
  -8   4   8  380.26    7.11
  -4   8  -8  381.95    7.17
   8   6   8    0.36    0.44
   8   6   8   -0.40    0.36
  -8  -6   8    0.15    0.44
   8  -6  -8    0.19    0.43
  -6   8   8   -0.18    0.35
   6   8  -8    0.05    0.34
  -6   8   8   -0.04    0.32
   6   8  -8    0.06    0.42
   6  -8   8    0.39    0.38
  -8   6  -8   -0.45    0.36
  -6  -8  -8    0.01    0.37
  -8  -6   8    0.04    0.36
  -6   8  -8    0.33    0.29
  -8   6   8    0.22    0.34
  -8  -6  -8    0.69    0.51
   6   8   8   -0.07    0.45
  -8  -6  -8   -0.52    0.29
   8  -6   8    0.17    0.37
  -8   6   8   -0.41    0.32
   6  -8  -8   -0.28    0.44
  -6  -8   8    0.58    0.44
   8  -6   8    0.00    0.28
   8   6  -8   -0.11    0.44
   6   8   8    0.12    0.31
  -6   8  -8   -0.13    0.37
   8   8   8    3.32    0.52
   8   8   8    2.07    0.56
  -8   8   8    2.16    0.45
   8  -8   8    1.92    0.44
  -8   8   8    4.34    0.56
  -8  -8  -8    1.94    0.46
  -8  -8   8    1.92    0.55
   8   8  -8    2.15    0.51
   8   8  -8    1.67    0.44
   8  -8  -8    3.04    0.58
  -8   8  -8    2.29    0.50
   9   1   8    0.80    0.38
  -9   1  -8    0.07    0.38
  -9  -1   8    0.54    0.32
   1   9  -8    0.91    0.35
   9   1   8    0.82    0.29
  -1   9   8    0.37    0.35
  -1  -9  -8    1.11    0.40
   1  -9   8    0.86    0.34
   9  -1  -8    0.40    0.35
  -9  -1   8    0.93    0.39
  -1   9   8    1.15    0.37
   1   9  -8    0.64    0.39
   9  -1  -8    0.45    0.35
   1  -9   8    0.89    0.32
  -1  -9  -8    0.12    0.28
  -9   1   8    0.28    0.34
   9   1  -8    0.64    0.38
  -1   9  -8    0.64    0.34
  -9   1   8    0.11    0.31
   1  -9  -8    0.41    0.34
  -1  -9   8    0.65    0.27
   9  -1   8    0.51    0.34
   9  -1   8    0.59    0.33
  -1  -9   8    0.86    0.38
  -1   9  -8    0.48    0.35
   9   1  -8    1.24    0.33
  -9  -1  -8    0.41    0.40
   1   9   8    0.56    0.36
  -3  -9  -8    0.84    0.36
  -9  -3   8    1.24    0.37
   9  -3  -8    1.68    0.43
  -9  -3   8    1.07    0.41
   3   9  -8    0.80    0.35
   9  -3  -8    1.59    0.35
   9   3   8    1.04    0.40
  -3   9   8    1.14    0.38
   3  -9   8    1.31    0.33
   3   9  -8    0.54    0.42
  -9   3  -8    1.15    0.43
   3  -9   8    0.94    0.37
  -3   9   8    0.82    0.37
   9   3  -8    0.88    0.44
   3   9   8    0.72    0.39
  -9  -3  -8    1.61    0.48
   9  -3   8    1.19    0.38
   3  -9  -8    1.30    0.41
  -3   9  -8    1.07    0.32
  -9   3   8    0.45    0.34
  -9   3   8    0.99    0.34
   9  -3   8    1.91    0.39
  -3  -9   8    1.05    0.42
  -3   9  -8    0.76    0.36
  -9  -5   8    0.22    0.43
   5   9  -8    0.10    0.42
   9   5   8    0.11    0.37
  -5  -9  -8    0.88    0.40
  -9  -5   8    0.02    0.36
   9  -5  -8   -0.08    0.38
  -9   5  -8    0.29    0.40
  -5   9   8    0.11    0.38
  -5   9   8    0.03    0.35
   5  -9   8    0.10    0.33
   5   9  -8   -0.30    0.36
   5   9   8   -0.13    0.43
  -9  -5  -8   -0.55    0.28
   5  -9  -8    0.80    0.45
  -5  -9   8   -0.81    0.43
  -9   5   8   -0.16    0.31
  -9  -5  -8   -0.40    0.47
   9  -5   8   -0.07    0.30
   5   9   8    0.46    0.33
   9   5  -8    0.56    0.44
  -5   9  -8    0.30    0.39
  -9   5   8    0.05    0.35
   9  -5   8   -0.23    0.35
   9  -7  -8    1.76    0.55
  -7   9   8    1.15    0.42
  -7  -9  -8    1.15    0.45
  -9   7  -8    1.62    0.44
   7   9  -8    0.65    0.50
   9   7   8    1.81    0.49
   7  -9   8    0.96    0.43
  -9  -7   8    1.77    0.45
  -7   9   8    1.60    0.46
   7   9  -8    1.72    0.44
  -9  -7   8    1.61    0.53
   9  -7   8    1.85    0.44
   9   7  -8    2.07    0.55
   7   9   8    1.89    0.57
  -7  -9   8    2.10    0.55
  -7   9  -8    1.83    0.49
   7  -9  -8    1.30    0.51
  -9   7   8    1.86    0.47
  -9   7   8    1.73    0.42
  -9  -7  -8    1.42    0.43
   7   9   8    1.36    0.43
  -9  -7  -8    1.16    0.58
  -9   9   8    0.03    0.37
   9   9   8   -0.39    0.40
   9   9   8    0.17    0.51
  -9   9  -8   -0.24    0.46
   9   9  -8    0.87    0.55
  -9  -9   8   -0.01    0.50
   9   9  -8    0.28    0.45
  -9   9   8   -0.20    0.46
   9  -9   8    0.03    0.48
   9  -9  -8    0.55    0.53
  -9  -9  -8    0.18    0.46
 -10   0   8    1.65    0.41
 -10   0   8    2.03    0.44
   0  10  -8    1.56    0.42
 -10   0  -8    1.84    0.51
  10   0  -8    1.00    0.39
   0 -10  -8    2.36    0.41
  10   0  -8    1.93    0.39
   0 -10  -8    1.40    0.43
  10   0   8    0.80    0.39
   0  10  -8    1.64    0.40
   0  10   8    0.95    0.45
   0 -10   8    1.30    0.35
  10   0   8    1.82    0.36
   0 -10   8    0.82    0.38
 -10   2  -8   -0.02    0.44
  -2  10   8   -0.04    0.36
   2  10  -8   -0.47    0.36
  10  -2  -8   -0.16    0.36
   2 -10   8   -0.10    0.32
 -10  -2   8    0.02    0.35
 -10  -2   8    0.37    0.40
  -2  10   8    0.04    0.39
  10  -2  -8   -0.02    0.34
  10   2   8    0.27    0.35
  -2 -10  -8    0.31    0.41
   2  10  -8   -0.64    0.40
   2 -10   8    0.40    0.36
  -2 -10   8    0.19    0.43
 -10  -2  -8    0.35    0.47
  10  -2   8   -0.64    0.33
  10   2  -8   -0.38    0.39
  10  -2   8   -0.06    0.35
   2 -10  -8   -0.52    0.34
   2  10   8   -0.30    0.41
  -2  10  -8   -0.19    0.36
 -10   2   8    0.39    0.37
 -10   2   8    0.77    0.36
   4  10  -8    0.73    0.41
  -4  10   8    0.64    0.40
  -4  10   8    0.46    0.41
 -10   4  -8    0.99    0.43
  -4 -10  -8    1.18    0.43
  10   4   8    0.77    0.40
   4  10  -8    1.07    0.45
 -10  -4   8    1.27    0.41
  10  -4  -8    1.03    0.46
   4 -10   8    1.12    0.41
 -10  -4   8    1.35    0.47
  10  -4   8    1.20    0.37
 -10   4   8    0.73    0.38
  10   4  -8    1.76    0.46
  -4 -10   8    0.50    0.47
  -4  10  -8    0.60    0.42
 -10  -4  -8    1.35    0.54
 -10   4   8    1.45    0.40
   4 -10  -8    0.87    0.45
   4  10   8    0.55    0.46
  10  -4   8    1.02    0.42
  -6 -10  -8   -0.03    0.42
  -6  10   8    0.04    0.44
  -6  10   8    0.21    0.38
 -10   6  -8   -0.06    0.44
   6  10  -8   -0.09    0.46
   6 -10   8   -0.03    0.42
   6  10  -8    0.20    0.42
 -10  -6   8    0.74    0.48
  10  -6  -8   -0.06    0.48
  10   6   8    0.22    0.41
 -10  -6   8    0.26    0.41
  10   6  -8    0.92    0.53
 -10   6   8    0.19    0.41
   6  10   8    0.38    0.50
  10  -6   8    0.18    0.34
   6 -10  -8    1.48    0.53
  10  -6   8   -0.17    0.40
  -6 -10   8    0.09    0.48
 -10  -6  -8    0.54    0.55
  -6  10  -8   -0.60    0.39
 -10   6   8   -0.29    0.35
  -8 -10  -8    0.22    0.48
  -8  10   8    0.06    0.48
  10  -8  -8    0.47    0.48
  -8  10   8    0.45    0.42
  10   8   8   -0.08    0.46
   8  10  -8    0.20    0.47
 -10   8  -8   -0.66    0.47
 -10  -8   8   -0.18    0.50
   8 -10   8   -0.23    0.46
   8  10  -8    1.16    0.58
   8  10   8    0.50    0.54
 -10   8   8   -0.28    0.36
  -8  10  -8    0.16    0.46
 -10  -8  -8   -0.47    0.54
 -10   8   8   -0.21    0.46
 -10  -8  -8    0.33    0.44
   8  10   8   -0.33    0.38
   8 -10  -8    0.12    0.53
  -8 -10   8    0.26    0.52
  10   8  -8    0.06    0.51
  10  -8   8    0.08    0.49
  10 -10   8   -0.29    0.50
  10  10  -8    0.86    0.59
  10 -10  -8   -0.05    0.57
 -10  10  -8   -0.66    0.52
 -10 -10   8    1.40    0.64
 -10 -10  -8    0.58    0.53
  10  10   8    0.59    0.50
  10  10   8    1.20    0.60
 -10  10   8    0.67    0.54
 -11  -1   8    0.50    0.39
   1 -11   8    0.77    0.41
  11  -1  -8    0.19    0.39
 -11   1  -8   -0.20    0.45
  -1  11   8    0.53    0.39
  11  -1  -8    0.74    0.43
 -11  -1   8    0.28    0.42
  11   1   8    0.30    0.39
   1  11  -8    0.35    0.47
   1  11  -8    0.62    0.41
  -1 -11  -8    0.01    0.42
   1 -11   8    0.06    0.34
   1  11   8   -0.04    0.45
   1 -11  -8    0.34    0.39
  -1  11  -8    0.44    0.38
  11   1  -8    0.72    0.47
 -11   1   8    0.55    0.39
 -11  -1  -8    0.10    0.49
   1 -11  -8   -0.08    0.42
  11  -1   8    0.22    0.41
  -1 -11   8    0.68    0.45
  11  -1   8   -0.07    0.37
 -11   1   8    0.96    0.40
   3  11  -8    0.82    0.46
 -11  -3   8   -0.04    0.39
  11  -3  -8    0.26    0.39
  -3  11   8   -0.20    0.40
  11  -3  -8   -0.32    0.41
   3  11  -8    0.92    0.44
 -11   3  -8    0.58    0.47
  11   3   8    0.25    0.45
 -11  -3   8    0.81    0.45
   3 -11   8    0.60    0.39
  -3 -11  -8    0.02    0.43
  -3  11   8    0.75    0.41
  -3 -11   8    0.82    0.47
  11   3  -8    0.53    0.44
  -3  11  -8    0.25    0.42
   3 -11  -8    0.04    0.42
  11  -3   8    0.71    0.43
 -11   3   8   -0.01    0.38
 -11  -3  -8   -0.13    0.46
  11  -3   8    0.31    0.38
   3 -11  -8    0.18    0.41
 -11   3   8   -0.27    0.35
   3  11   8   -0.01    0.47
  11  -5  -8    0.86    0.51
  -5  11   8    0.40    0.45
  -5  11   8    1.07    0.44
 -11  -5   8    1.09    0.51
   5  11  -8    1.36    0.47
  -5 -11  -8    1.12    0.49
 -11   5  -8    1.04    0.49
  11   5   8    0.34    0.43
   5 -11   8    1.73    0.47
   5  11  -8    1.57    0.47
  11  -5   8    1.14    0.41
 -11   5   8    0.86    0.41
  11   5  -8    0.94    0.54
  11  -5   8    0.80    0.48
   5  11   8    2.06    0.59
 -11  -5  -8    1.86    0.59
  -5 -11   8    0.96    0.53
  -5  11  -8    0.86    0.45
 -11   5   8    0.53    0.44
   5 -11  -8    0.68    0.48
  -7 -11  -8   -0.17    0.45
 -11   7  -8    0.49    0.52
   7  11  -8   -0.26    0.46
  -7  11   8   -0.75    0.39
  -7  11   8   -0.34    0.47
 -11  -7   8   -0.01    0.52
  11   7   8   -0.61    0.46
   7 -11   8   -0.28    0.44
  11  -7  -8   -0.29    0.50
   7  11  -8   -0.52    0.50
   7  11   8    0.04    0.54
  11   7  -8   -0.69    0.50
  11  -7   8    0.28    0.50
 -11   7   8   -0.16    0.46
  -7 -11   8   -0.95    0.50
   7 -11  -8   -0.28    0.51
 -11  -7  -8   -0.64    0.58
  -7  11  -8    0.03    0.49
  -9  11   8    1.37    0.58
  11   9   8    0.27    0.52
 -11   9  -8   -0.10    0.53
  -9 -11  -8    0.53    0.55
 -11  -9   8    0.30    0.59
   9 -11   8    1.18    0.56
   9  11  -8    2.07    0.63
  11  -9  -8    1.47    0.58
  11   9  -8    1.30    0.55
   9  11   8    0.73    0.64
  -9  11  -8    0.40    0.57
   9 -11  -8    0.29    0.62
  -9 -11   8    0.36    0.59
 -11  -9  -8    0.90    0.67
 -11   9   8    1.06    0.57
  11  -9   8    0.89    0.55
 -11  11   8    1.00    0.58
 -11 -11   8   -0.60    0.62
  11  11   8   -0.15    0.53
  11  11  -8   -0.37    0.57
 -11 -11  -8   -0.53    0.60
  12   0  -8  171.45    3.76
 -12   0  -8  167.40    3.81
   0  12   8  174.68    3.81
 -12   0   8  174.05    3.65
  12   0   8  174.09    3.78
   0 -12  -8  169.51    3.76
 -12   0   8  171.01    3.69
   0 -12   8  170.16    3.68
   0  12  -8  170.09    3.68
  12  -2  -8   -0.05    0.42
 -12   2  -8    0.62    0.54
   2  12  -8    0.03    0.44
   2 -12   8   -0.50    0.39
   2 -12   8   -0.21    0.38
  -2  12   8   -0.30    0.44
  12   2   8   -0.56    0.39
  -2 -12  -8   -0.85    0.44
 -12  -2   8    0.02    0.47
  12  -2  -8    0.19    0.43
 -12   2   8    0.01    0.42
 -12  -2  -8    0.70    0.56
   2  12   8   -0.20    0.50
  -2  12  -8   -0.34    0.39
  12  -2   8    0.86    0.44
 -12   2   8   -0.33    0.39
  12   2  -8    0.30    0.44
   2 -12  -8   -0.35    0.43
   2 -12  -8    0.18    0.44
  12  -2   8   -0.38    0.37
  -2 -12   8   -0.64    0.45
 -12  -4   8    0.40    0.49
   4  12  -8    0.52    0.48
  -4 -12  -8    0.52    0.50
  -4  12   8   -0.29    0.43
  12  -4  -8    1.02    0.50
  12   4   8    1.06    0.50
 -12   4  -8    0.98    0.51
   4 -12   8   -0.66    0.41
   4  12  -8   -0.18    0.46
   4  12   8    0.76    0.52
 -12  -4  -8    0.16    0.58
  -4  12  -8   -0.18    0.45
   4 -12  -8    0.74    0.46
  -4 -12   8    0.25    0.51
  12   4  -8    0.54    0.47
   4 -12  -8   -0.37    0.43
 -12   4   8    0.20    0.44
  12  -4   8    0.51    0.42
  12  -4   8    0.74    0.46
  -6  12   8    2.85    0.60
   6  12  -8    2.14    0.57
 -12   6  -8    2.05    0.57
   6 -12   8    2.93    0.56
  12  -6  -8    2.38    0.61
  -6 -12  -8    2.22    0.59
  -6  12   8    2.86    0.55
   6  12  -8    2.72    0.59
  12   6   8    2.90    0.63
 -12  -6   8    2.61    0.60
  12   6  -8    3.52    0.68
 -12  -6  -8    3.57    0.73
   6 -12  -8    2.11    0.60
 -12   6   8    3.52    0.60
   6  12   8    2.28    0.65
  12  -6   8    3.30    0.62
  -6 -12   8    2.14    0.65
  -6  12  -8    1.90    0.57
  -8  12   8   86.70    2.27
 -12  -8   8   86.01    2.43
   8 -12   8   84.32    2.32
  -8  12   8   83.26    2.37
  12  -8  -8   85.87    2.39
   8  12  -8   85.56    2.38
 -12   8  -8   84.64    2.41
  -8 -12  -8   86.83    2.37
  12   8   8   89.66    2.41
 -12   8   8   85.40    2.31
  12   8  -8   84.63    2.43
 -12  -8  -8   84.52    2.52
  -8 -12   8   84.38    2.45
  12  -8   8   84.49    2.33
   8  12   8   83.48    2.52
   8 -12  -8   85.47    2.40
  -8  12  -8   87.90    2.39
  12  10   8    0.35    0.54
 -10 -12  -8    1.29    0.62
  10  12  -8    1.78    0.62
 -10  12   8    0.76    0.60
 -12 -10   8    1.22    0.66
  12  10  -8    1.42    0.67
 -12  10   8    1.10    0.65
   1  13  -8    0.35    0.48
  13  -1  -8    0.60    0.50
 -13   1  -8    0.27    0.50
   1 -13   8    1.51    0.50
  -1  13   8   -0.59    0.49
  13   1   8    0.23    0.50
 -13  -1   8    0.57    0.47
  -1 -13  -8    0.22    0.50
   1  13   8    1.04    0.57
  -1 -13   8    0.59    0.52
 -13  -1  -8   -0.16    0.58
  -1  13  -8    1.11    0.47
  13   1  -8    0.47    0.51
   1 -13  -8    0.89    0.54
  13  -1   8    0.85    0.48
   3  13  -8    1.64    0.56
  13   3   8    2.09    0.60
 -13  -3   8    0.61    0.53
  -3 -13  -8    1.00    0.54
  13  -3  -8    1.94    0.51
   3 -13   8    1.77    0.48
 -13   3  -8    1.21    0.58
  -3  13   8    0.50    0.52
   3 -13  -8    2.16    0.54
 -13  -3  -8    2.17    0.66
 -13   3   8    0.97    0.49
  -3 -13   8    1.83    0.59
  13   3  -8    0.91    0.57
  13  -3   8    0.71    0.49
   3  13   8    0.33    0.54
  13  -3   8    0.91    0.49
  -3  13  -8    0.75    0.51
   3 -13  -8    1.44    0.56
 -13  -5   8    0.03    0.51
 -13   5  -8    0.07    0.54
  13  -5  -8    0.42    0.52
  -5  13   8   -0.12    0.51
   5 -13   8    0.05    0.48
  13   5   8   -0.70    0.51
   5  13  -8   -0.62    0.46
  -5 -13  -8    0.21    0.54
 -13   5   8    0.00    0.50
  13   5  -8   -0.03    0.58
   5 -13  -8    0.30    0.51
  -5  13  -8    0.10    0.50
  13  -5   8    0.60    0.44
 -13  -5  -8   -0.62    0.61
   5  13   8    0.53    0.59
   5 -13  -8   -0.08    0.50
  13  -5   8    0.64    0.51
  -5 -13   8   -0.53    0.55
 -13   7  -8    1.97    0.64
   7  13  -8    1.48    0.65
   7 -13   8    1.60    0.58
  13   7   8    0.62    0.60
   7  13  -8    1.62    0.60
  -7 -13  -8    1.72    0.64
  -7  13   8    0.96    0.60
  13  -7  -8    1.24    0.63
 -13  -7   8    1.01    0.63
   7 -13  -8    1.12    0.55
 -13  -7  -8    1.11    0.71
   7  13   8    1.65    0.68
  13   7  -8    1.41    0.64
 -13   7   8    1.16    0.57
   7 -13  -8    2.10    0.61
  13  -7   8    0.77    0.60
  -7 -13   8    1.18    0.66
  -7  13  -8    0.88    0.60
  -9  13   8    0.69    0.61
   9  13  -8   -0.10    0.58
  13   9   8    0.16    0.60
  -9 -13  -8   -0.21    0.58
 -13  -9   8    0.56    0.58
 -13   9   8   -0.79    0.55
   0  14   8    2.48    0.63
  14   0  -8    1.87    0.60
   0 -14   8    2.97    0.62
   0  14  -8    1.96    0.57
  14   0   8    1.94    0.59
   0 -14  -8    2.54    0.62
 -14   0  -8    2.82    0.71
  14   2   8   -0.05    0.53
  -2  14   8   -0.80    0.50
  -2 -14  -8   -0.56    0.51
 -14   2  -8    0.36    0.60
   2  14  -8    0.56    0.53
 -14  -2  -8   -0.31    0.60
   2  14   8   -0.59    0.52
  14   2  -8    0.67    0.56
   2 -14  -8    0.04    0.53
  14  -2   8   -0.04    0.48
  -2 -14   8   -0.01    0.53
  -2  14  -8   -0.39    0.48
   4  14  -8    1.81    0.60
  -4  14   8   -0.28    0.54
   4 -14   8    0.74    0.49
 -14  -4   8    1.25    0.56
 -14   4  -8    0.14    0.58
  -4 -14  -8    1.63    0.61
  14   4   8    0.27    0.55
  -4 -14   8    0.19    0.59
   4  14   8    0.79    0.63
 -14  -4  -8    0.67    0.67
   4 -14  -8    1.20    0.57
  14  -4   8    0.17    0.49
  14   4  -8   -0.02    0.59
  -4  14  -8    0.63    0.54
   4 -14  -8    1.28    0.61
  14  -4   8    0.84    0.50
  14   6   8   -0.17    0.59
 -14  -6   8    0.27    0.58
  -6 -14  -8    0.41    0.55
   6  14  -8    0.22    0.56
  -6  14   8    0.09    0.54
   6 -14   8   -0.17    0.52
 -14   6  -8    0.30    0.57
  14  -6  -8    0.58    0.58
   6  14   8    0.27    0.61
   6 -14  -8   -0.07    0.52
  14  -6   8   -0.67    0.53
 -14  -6  -8    1.52    0.70
  14   6  -8    0.52    0.60
   6 -14  -8   -0.34    0.55
  -6  14  -8    0.00    0.56
  -6 -14   8   -0.25    0.60
 -14  -8   8   -0.08    0.61
 -14   8   8    0.38    0.62
  -1 -15  -8    1.12    0.61
   1  15  -8   -0.34    0.54
 -15   1  -8    0.33    0.67
  15  -1  -8    0.42    0.59
  -1  15   8    0.37    0.58
  15   1   8    1.33    0.60
  15   1  -8   -0.45    0.53
   1 -15  -8   -0.54    0.54
  -1 -15   8    1.00    0.61
   1  15   8    1.24    0.64
  -1  15  -8    0.00    0.53
 -15  -1  -8   -0.08    0.61
  15  -1   8    0.70    0.56
  -3 -15  -8    0.44    0.62
  15   3   8    0.95    0.62
   3  15  -8    0.42    0.56
  -3  15   8    0.06    0.60
 -15   3  -8   -0.76    0.57
  15  -3   8    0.09    0.53
 -15  -3  -8   -0.51    0.65
  -3  15  -8   -0.63    0.50
   3 -15  -8   -0.02    0.57
  15   3  -8   -0.02    0.60
  -3 -15   8   -1.02    0.56
   3  15   8    0.64    0.63
   5 -15   8   -0.12    0.52
   5  15  -8    1.12    0.63
   5 -15  -8   -0.03    0.56
   5 -15  -8   -0.25    0.55
   0 -16   8    2.50    0.67
   0  16  -8    2.59    0.68
  16   0  -8    2.94    0.75
   2  16  -8    2.05    0.69
  16  -2   8    1.56    0.65
  -1   0   9    0.26    0.24
   0  -1   9    0.37    0.26
   0  -1  -9    0.00    0.22
   0   1   9   -0.26    0.18
   1   0   9    0.42    0.19
  -1   0   9    0.31    0.29
   0   1   9   -0.04    0.20
  -1   0  -9    0.11    0.24
   0   1   9    0.25    0.26
   0  -1   9    0.56    0.21
   1   0   9    0.15    0.26
   0   1  -9   -0.22    0.24
   1   0  -9    0.04    0.25
   0   1  -9   -0.21    0.11
  -1   0  -9   -0.19    0.17
   2   1   9    0.26    0.23
   2   1   9    0.24    0.18
  -1   2   9    0.25    0.18
  -2  -1   9    0.34    0.27
   1  -2   9    0.29    0.20
  -2  -1   9    0.15    0.27
   1   2  -9    0.30    0.12
   2  -1  -9    0.37    0.24
   2   1   9    0.11    0.26
  -2   1  -9    0.24    0.19
   1  -2   9    0.93    0.27
  -1   2   9    0.67    0.25
  -2   1  -9    0.38    0.23
   1   2  -9   -0.28    0.27
  -1   2   9    0.17    0.26
   1  -2  -9   -0.03    0.19
   1   2   9    0.48    0.28
  -1  -2   9    0.59    0.25
  -1  -2   9    0.26    0.24
   1  -2  -9    0.22    0.29
  -2   1   9    0.41    0.13
  -2  -1  -9    0.64    0.24
  -1   2  -9    0.70    0.27
  -2   1   9    0.25    0.23
  -2   1   9    0.40    0.30
   2  -1   9    0.55    0.16
   1   2   9    0.09    0.24
  -1   2  -9    0.20    0.16
   2  -1   9    0.51    0.25
   1   2   9    0.21    0.21
   2   1  -9    0.33    0.28
   1   2   9    0.48    0.22
  -3   0   9    0.07    0.26
   0  -3  -9    0.20    0.17
   3   0  -9   -0.18    0.26
   0   3  -9   -0.09    0.16
   3   0   9   -0.07    0.25
   0  -3   9    0.04    0.24
  -3   0   9   -0.03    0.11
   3   0   9    0.01    0.25
   0  -3   9    0.14    0.25
   3   0   9   -0.09    0.14
   0   3   9    0.02    0.23
  -3   0   9   -0.03    0.27
   0   3  -9   -0.33    0.26
   0   3   9    0.14    0.23
   0  -3  -9   -0.19    0.29
   3   0  -9   -0.29    0.31
  -3   0  -9   -0.37    0.21
   3   2   9    1.20    0.26
  -3   2  -9    0.90    0.25
   3  -2  -9    1.16    0.26
  -3  -2   9    1.22    0.29
  -2   3   9    1.30    0.29
   2   3  -9    1.03    0.17
  -3  -2   9    1.11    0.27
   2   3  -9    1.15    0.34
   3  -2  -9    0.66    0.28
  -3  -2   9    1.14    0.17
  -3   2  -9    0.99    0.25
   3   2   9    1.02    0.28
   2  -3   9    1.36    0.30
   3   2   9    1.27    0.22
  -2   3   9    1.13    0.21
   2  -3   9    1.16    0.20
   3   2   9    1.33    0.31
   3   2  -9    0.59    0.29
  -2  -3   9    1.12    0.26
  -2  -3   9    1.29    0.32
   2   3   9    1.25    0.28
   2   3   9    0.89    0.24
  -2   3  -9    1.29    0.28
   3  -2   9    1.24    0.15
   2  -3  -9    1.10    0.20
  -3   2   9    1.10    0.27
  -2   3  -9    1.18    0.22
   3  -2   9    1.32    0.30
   2   3   9    1.21    0.30
   2   3   9    1.33    0.25
   2  -3  -9    1.46    0.33
  -3   2   9    1.09    0.18
   1  -4   9    1.22    0.26
   1   4  -9    0.73    0.19
  -1   4   9    0.43    0.27
   4  -1  -9    0.80    0.29
   4   1   9    0.41    0.25
   4  -1  -9    0.38    0.29
  -4  -1   9    0.75    0.16
  -1  -4  -9    0.44    0.28
   1   4  -9    0.74    0.31
  -1   4   9    0.65    0.23
  -4  -1   9    0.78    0.31
   1  -4   9    0.33    0.27
   4   1   9    0.55    0.26
  -4   1  -9    0.66    0.25
  -4   1   9    0.69    0.17
  -1   4  -9    0.27    0.20
   1   4   9    0.61    0.20
   1  -4  -9    0.73    0.16
   1   4   9    0.74    0.26
  -4   1   9    0.85    0.30
   4   1  -9    0.94    0.30
  -1  -4   9    0.33    0.24
   1  -4  -9    0.72    0.29
   4   1  -9    0.22    0.30
   1   4   9    0.97    0.29
   4  -1   9    0.79    0.10
   4  -1   9    0.22    0.27
  -4  -1  -9    0.47    0.27
   4  -1   9    0.77    0.28
  -1   4  -9    0.76    0.28
  -4  -1  -9    0.42    0.16
  -1  -4   9    0.34    0.28
  -4   3  -9    5.98    0.47
   4   3   9    5.31    0.55
  -4  -3   9    5.91    0.55
  -3   4   9    6.24    0.42
  -3   4   9    5.99    0.49
   3   4  -9    6.65    0.59
   4   3   9    6.12    0.45
   4  -3  -9    6.58    0.57
   3  -4   9    6.67    0.34
  -4  -3   9    6.89    0.44
   3   4  -9    6.28    0.37
   3  -4   9    6.12    0.50
   4  -3  -9    6.48    0.41
  -4   3  -9    6.15    0.48
   3   4   9    6.10    0.42
   3  -4  -9    6.78    0.37
   3   4   9    6.41    0.46
  -3  -4   9    6.76    0.41
   3  -4  -9    6.98    0.57
  -3  -4   9    7.18    0.57
   3   4   9    7.65    0.58
  -4   3   9    6.13    0.40
  -4  -3  -9    6.90    0.39
   4  -3   9    6.88    0.47
  -3   4  -9    6.06    0.49
   4   3  -9    6.40    0.58
   4  -3   9    6.52    0.50
   3   4   9    6.04    0.44
   4   3  -9    6.54    0.37
  -3   4  -9    5.70    0.44
  -4   3   9    6.25    0.49
   0   5   9    0.06    0.25
   5   0  -9    0.20    0.27
   0  -5   9   -0.23    0.25
  -5   0   9    0.01    0.18
   5   0  -9   -0.14    0.28
   0  -5   9   -0.37    0.23
   0   5   9    0.09    0.16
   0   5   9    0.56    0.28
   0   5  -9   -0.16    0.26
   5   0   9    0.13    0.24
   5   0   9    0.09    0.24
   0  -5  -9   -0.08    0.28
   0   5  -9   -0.11    0.20
  -5   0  -9    0.17    0.28
  -5   0  -9   -0.02    0.12
  -5   0   9   -0.53    0.27
   5  -2  -9    0.30    0.31
  -5   2  -9   -0.13    0.25
  -2  -5  -9   -0.05    0.23
  -5  -2   9   -0.34    0.19
  -2   5   9    0.08    0.23
   5  -2  -9    0.11    0.24
   5   2   9    0.17    0.25
   2   5  -9   -0.30    0.19
   5   2   9   -0.15    0.26
   2  -5   9   -0.18    0.26
   2   5  -9    0.33    0.33
  -5  -2   9   -0.34    0.29
  -2   5   9    0.16    0.24
   2  -5   9    0.22    0.23
  -2  -5   9    0.05    0.30
  -2   5  -9   -0.12    0.21
  -5   2   9    0.19    0.19
   2   5   9   -0.27    0.25
  -2   5  -9   -0.06    0.24
   2   5   9   -0.05    0.29
   5   2  -9    0.20    0.29
   2  -5  -9   -0.37    0.30
  -5   2   9    0.16    0.26
  -5  -2  -9   -0.21    0.16
   2  -5  -9    0.24    0.14
   2   5   9   -0.11    0.19
  -5  -2  -9    0.26    0.29
  -2  -5   9    0.37    0.22
   5  -2   9   -0.04    0.25
   5   2  -9    0.26    0.27
   5  -2   9    0.26    0.24
   4  -5   9    3.31    0.31
  -5  -4   9    4.06    0.55
  -4   5   9    2.95    0.33
   5  -4  -9    3.36    0.47
   4  -5   9    2.59    0.35
   4   5  -9    2.30    0.42
   5   4   9    3.63    0.45
  -5   4  -9    3.44    0.45
  -5   4  -9    1.86    0.32
  -5  -4   9    3.01    0.36
   4   5  -9    2.71    0.31
   5   4   9    3.04    0.40
  -4   5   9    3.47    0.46
   5   4   9    4.12    0.57
   5  -4  -9    3.55    0.34
  -4  -5  -9    2.59    0.32
  -4  -5   9    3.35    0.44
  -4   5  -9    3.25    0.43
   5   4  -9    3.35    0.45
  -5   4   9    2.53    0.35
   4   5   9    3.07    0.37
  -4   5  -9    3.66    0.45
   4  -5  -9    2.93    0.27
  -4  -5   9    2.87    0.34
   5  -4   9    2.87    0.34
   4   5   9    3.37    0.41
   4   5   9    4.43    0.59
   4  -5  -9    2.60    0.37
  -5  -4  -9    2.92    0.37
  -5   4   9    3.89    0.42
   5   4  -9    3.12    0.39
   5  -4   9    2.41    0.37
   6   1   9   -0.28    0.24
   1   6  -9    0.09    0.21
  -6  -1   9   -0.04    0.32
  -1   6   9    0.10    0.24
   1   6  -9   -0.07    0.29
   6  -1  -9    0.20    0.30
   6  -1  -9   -0.25    0.24
   6   1   9   -0.06    0.27
   1  -6   9    0.23    0.26
  -6  -1   9    0.23    0.20
   1  -6   9    0.14    0.25
  -6   1  -9   -0.44    0.28
  -1   6   9    0.23    0.27
  -1  -6  -9   -0.60    0.23
  -6   1   9    0.03    0.21
  -6  -1  -9    0.10    0.31
  -1   6  -9    0.11    0.28
   6   1  -9    0.02    0.25
  -1  -6   9    0.51    0.30
   1   6   9   -0.24    0.28
  -1   6  -9   -0.04    0.22
  -6   1   9   -0.28    0.27
   1   6   9    0.07    0.18
  -1  -6   9    0.34    0.23
   1   6   9    0.02    0.27
   1  -6  -9    0.42    0.13
   1  -6  -9   -0.34    0.29
   6   1  -9    0.30    0.32
   6  -1   9    0.21    0.26
   6  -1   9    0.02    0.25
  -6  -1  -9    0.27    0.15
  -6  -3   9   -0.10    0.22
   6  -3  -9    0.07    0.24
   3   6  -9    0.67    0.36
   3   6  -9    0.42    0.24
   6  -3  -9   -0.11    0.31
  -6   3  -9    0.35    0.29
   6   3   9    0.37    0.31
   6   3   9   -0.06    0.22
   3  -6   9    0.22    0.30
   3  -6   9    0.01    0.21
  -3   6   9    0.29    0.28
  -6  -3   9    0.14    0.30
  -3  -6  -9   -0.20    0.26
  -3  -6  -9    0.10    0.22
  -3   6   9    0.22    0.27
  -3  -6   9    0.28    0.21
   3   6   9    0.10    0.35
  -6  -3  -9    0.01    0.19
  -6   3   9   -0.15    0.26
  -6  -3  -9    0.10    0.35
   6   3  -9    0.27    0.36
   3   6   9    0.10    0.24
  -3  -6   9   -0.64    0.30
  -3   6  -9   -0.03    0.25
   6   3  -9    0.67    0.26
  -6   3   9    0.28    0.23
   6  -3   9    0.12    0.30
   6  -3   9    0.16    0.26
   3  -6  -9    0.15    0.32
  -3   6  -9    0.02    0.26
   5  -6   9    0.22    0.32
  -5   6   9   -0.17    0.27
   6  -5  -9   -0.31    0.35
  -6   5  -9   -0.05    0.28
  -6  -5   9   -0.35    0.31
   6   5   9   -0.01    0.37
   6   5   9   -0.77    0.28
   5   6  -9    0.25    0.27
  -6   5  -9    0.36    0.30
  -5   6   9   -0.26    0.28
  -5  -6  -9    0.01    0.21
  -5  -6  -9    0.17    0.28
   5   6  -9   -0.32    0.37
   5   6   9   -0.19    0.33
  -6   5   9   -0.21    0.28
   6   5  -9    0.06    0.26
  -5   6  -9    0.33    0.28
  -5  -6   9   -0.55    0.35
  -6  -5  -9    0.17    0.23
   5   6   9   -0.09    0.26
  -5   6  -9    0.17    0.31
  -6   5   9    0.08    0.26
   5  -6  -9    0.38    0.36
   6  -5   9   -0.13    0.31
   6   5  -9   -0.27    0.37
   7   0   9   -0.08    0.24
  -7   0   9    0.27    0.24
   0   7   9   -0.37    0.30
   7   0  -9   -0.57    0.27
  -7   0   9   -0.02    0.30
   0  -7   9    0.02    0.26
   0   7  -9   -0.19    0.29
   0  -7   9    0.06    0.28
   0  -7  -9   -0.09    0.27
  -7   0  -9    0.02    0.32
   0   7   9    0.39    0.30
   7   0   9    0.01    0.28
   0   7  -9   -0.17    0.24
   7   0  -9    0.16    0.29
   2  -7   9    2.68    0.35
   2   7  -9    1.43    0.40
  -2   7   9    1.81    0.33
  -7   2  -9    2.32    0.39
  -7  -2   9    2.17    0.41
   2   7  -9    3.20    0.41
  -2  -7  -9    2.79    0.32
  -2  -7  -9    2.52    0.38
  -7  -2   9    2.94    0.41
   7   2   9    3.08    0.40
   2  -7   9    2.60    0.36
   7   2   9    2.15    0.36
  -2   7   9    2.79    0.38
   7  -2  -9    3.02    0.42
   7  -2  -9    3.58    0.47
   7  -2   9    3.18    0.47
   7   2  -9    3.22    0.47
  -7   2   9    3.17    0.41
  -2  -7   9    2.42    0.30
   2   7   9    2.09    0.40
   2  -7  -9    2.69    0.38
  -7   2   9    2.69    0.38
   2   7   9    3.32    0.36
  -2  -7   9    3.57    0.45
  -7  -2  -9    2.86    0.31
   7   2  -9    2.03    0.32
  -2   7  -9    3.13    0.37
  -2   7  -9    3.09    0.36
   7  -2   9    3.16    0.40
  -7  -2  -9    3.11    0.46
  -4  -7  -9    0.61    0.23
  -4   7   9    0.73    0.31
  -7  -4   9    0.73    0.31
   4  -7   9    0.77    0.34
  -7   4  -9    0.91    0.35
   4   7  -9    0.53    0.39
  -4   7   9    0.72    0.32
   7  -4  -9    0.59    0.24
   7   4   9    0.77    0.34
   7  -4  -9    0.50    0.37
  -4  -7  -9    0.69    0.32
  -7  -4   9    0.19    0.36
   4   7  -9    0.66    0.29
  -4   7  -9    0.71    0.28
   4   7   9    0.54    0.29
  -7  -4  -9    0.54    0.23
  -7   4   9    0.72    0.29
   7   4  -9    0.67    0.39
   4  -7  -9    0.58    0.37
  -4   7  -9    0.64    0.31
   7  -4   9    0.73    0.29
  -4  -7   9    0.59    0.39
   4   7   9    0.48    0.35
  -7  -4  -9    0.82    0.43
  -7   4   9    0.30    0.30
   7  -4   9    0.51    0.34
  -7   6  -9    1.13    0.38
   7   6   9    0.10    0.43
   6   7  -9    0.91    0.34
  -7  -6   9    1.43    0.47
   7   6   9    0.66    0.36
  -6   7   9    0.79    0.36
   6   7  -9    0.72    0.45
   6  -7   9    0.94    0.35
  -6  -7  -9    0.43    0.32
  -7   6  -9    0.69    0.31
   7  -6  -9    0.57    0.43
  -6   7   9    0.76    0.34
   6   7   9    0.40    0.34
  -6  -7   9    0.66    0.40
  -6   7  -9    1.32    0.33
   6  -7  -9    0.55    0.42
  -7   6   9    0.68    0.33
  -7   6   9    0.19    0.33
   6   7   9    0.80    0.42
   7  -6   9    0.73    0.40
  -7  -6  -9    0.66    0.31
   7   6  -9    1.28    0.47
  -6   7  -9    1.17    0.40
   7   6  -9    0.73    0.33
  -8  -1   9   13.20    0.61
  -1   8   9   12.19    0.70
   1   8  -9   11.53    0.62
  -1   8   9   11.47    0.68
   8   1   9   14.03    0.73
   1  -8   9   13.31    0.67
   8   1   9   12.83    0.60
  -1  -8  -9   12.09    0.70
   8  -1  -9   13.08    0.72
  -8  -1   9   13.45    0.74
  -1  -8  -9   11.96    0.61
   1   8  -9   11.39    0.70
  -8   1  -9   12.51    0.75
   8  -1  -9   12.35    0.68
   1  -8   9   12.10    0.63
   1   8   9   12.01    0.74
  -1  -8   9   11.50    0.58
  -8  -1  -9   11.98    0.77
   8  -1   9   13.05    0.64
  -1  -8   9   12.02    0.72
   8   1  -9   11.97    0.63
  -1   8  -9   13.15    0.65
  -8   1   9   12.96    0.69
  -8   1   9   12.52    0.60
   8   1  -9   12.66    0.74
   1  -8  -9   11.97    0.70
   8  -1   9   13.49    0.70
  -1   8  -9   12.86    0.67
   8  -3  -9    1.46    0.31
  -8  -3   9    1.61    0.34
  -3  -8  -9    1.11    0.34
  -3   8   9    1.66    0.37
   8   3   9    1.04    0.38
  -8   3  -9    1.93    0.42
  -3   8   9    1.45    0.37
   3  -8   9    1.30    0.32
   3   8  -9    1.86    0.45
   3   8  -9    1.89    0.35
  -3  -8  -9    1.71    0.28
  -8  -3   9    2.15    0.45
   8  -3  -9    0.95    0.40
   3  -8   9    1.79    0.32
   3   8   9    1.83    0.31
  -3   8  -9    1.30    0.34
   8   3  -9    1.40    0.42
  -3  -8   9    1.58    0.44
   3  -8  -9    1.68    0.41
  -3  -8   9    2.39    0.29
   3   8   9    1.82    0.44
  -3   8  -9    1.50    0.34
  -8   3   9    1.94    0.38
   8  -3   9    1.82    0.37
  -8   3   9    1.53    0.31
   8  -3   9    1.09    0.35
  -8  -3  -9    1.30    0.42
  -8  -3  -9    2.17    0.29
  -8  -5   9    0.71    0.42
  -8   5  -9    0.35    0.37
   8   5   9    0.19    0.38
  -5   8   9    0.20    0.35
  -8  -5   9    0.05    0.34
  -5  -8  -9    0.17    0.35
   5   8  -9    1.04    0.44
   5   8  -9    0.38    0.35
  -5   8   9    0.59    0.34
   5  -8   9   -0.25    0.35
   8  -5  -9   -0.28    0.40
  -5  -8   9    0.04    0.41
   5   8   9    0.90    0.46
   8  -5   9   -0.15    0.37
  -8  -5  -9    1.02    0.49
  -8   5   9    0.46    0.32
  -5   8  -9    0.05    0.34
   5   8   9    0.49    0.33
  -8   5   9    0.20    0.32
   5  -8  -9    1.00    0.43
   8  -5   9    0.09    0.29
  -5   8  -9    0.17    0.30
   8   5  -9   -0.21    0.36
  -8  -5  -9   -0.12    0.26
   7   8  -9   11.48    0.86
  -8  -7   9   12.21    0.91
   8   7   9   10.98    0.90
  -8   7  -9   10.34    0.80
   7  -8   9    9.65    0.77
   7   8  -9   10.69    0.75
  -7   8   9   10.36    0.73
  -7  -8  -9   10.68    0.73
  -8   7  -9   11.75    0.71
   8   7   9   11.65    0.76
  -7   8   9   11.79    0.78
   8  -7  -9   11.21    0.88
  -8  -7  -9   10.61    0.69
   8  -7   9   10.94    0.79
   8   7  -9   11.09    0.88
  -8   7   9    9.87    0.77
   7  -8  -9   11.02    0.81
  -7  -8   9   11.35    0.91
  -7   8  -9   11.76    0.81
   7   8   9   10.08    0.73
  -8   7   9   10.25    0.72
   8   7  -9   12.13    0.74
   7   8   9   10.26    0.90
   0  -9   9    0.85    0.30
   0  -9  -9   -0.08    0.35
   0  -9  -9   -0.37    0.31
   9   0   9   -0.78    0.32
  -9   0   9    0.08    0.35
   0   9  -9   -0.46    0.35
   0   9   9    0.06    0.37
  -9   0  -9    0.18    0.38
   9   0  -9   -0.11    0.32
   0  -9   9   -0.14    0.35
   9   0  -9    0.24    0.34
   9   0   9   -0.35    0.29
   0   9  -9   -0.18    0.30
  -9   0   9    0.10    0.32
   0   9   9   -0.38    0.33
  -2  -9  -9   -0.33    0.35
  -9  -2   9   -0.18    0.30
  -2  -9  -9    0.39    0.29
  -9  -2   9   -0.01    0.38
  -9   2  -9    0.03    0.39
   2   9  -9    0.15    0.39
   9   2   9    0.26    0.37
   2   9  -9    0.18    0.33
   2  -9   9   -0.47    0.29
  -2   9   9   -0.13    0.35
  -2   9   9   -0.30    0.35
   2  -9   9    0.36    0.32
   9  -2  -9    0.07    0.37
   9  -2  -9    0.17    0.32
  -2  -9   9   -0.07    0.25
  -9  -2  -9    0.29    0.43
  -9   2   9    0.13    0.33
   9  -2   9    0.05    0.31
  -2  -9   9    0.16    0.39
  -9   2   9    0.17    0.31
   9   2  -9   -0.39    0.41
  -2   9  -9    0.45    0.33
   9  -2   9    0.08    0.33
   2  -9  -9    0.04    0.34
   2   9   9    0.34    0.40
  -2   9  -9    0.04    0.32
  -9  -4   9   -0.29    0.41
  -9  -4   9    0.00    0.34
   9   4   9   -0.29    0.36
   4   9  -9   -0.43    0.41
  -4   9   9   -0.37    0.36
  -4   9   9    0.02    0.35
   4   9  -9    0.64    0.35
  -9   4  -9    0.74    0.40
  -4  -9  -9   -0.03    0.37
   9  -4  -9    1.41    0.44
   4  -9   9    0.10    0.34
   9  -4   9   -0.14    0.31
  -4   9  -9   -0.10    0.31
  -9   4   9    0.16    0.33
  -4  -9   9    0.42    0.44
  -9   4   9    0.12    0.35
   4   9   9    0.25    0.43
   9   4  -9    0.84    0.46
   9  -4   9   -0.38    0.35
   4  -9  -9    0.14    0.41
  -4   9  -9    0.18    0.35
  -9  -4  -9    0.43    0.49
  -9  -6   9    0.36    0.47
  -6  -9  -9    0.42    0.40
   6   9  -9   -0.12    0.43
   9   6   9    0.31    0.42
  -6   9   9    0.24    0.40
  -6   9   9    0.19    0.37
  -9   6  -9   -0.31    0.40
   6  -9   9    0.10    0.36
   9  -6  -9   -0.05    0.48
   6   9  -9   -0.52    0.36
  -9  -6  -9   -0.51    0.33
  -9   6   9   -0.36    0.35
  -9   6   9    0.33    0.38
   6   9   9    0.49    0.49
   6   9   9    0.30    0.36
  -6  -9   9   -0.12    0.45
   9   6  -9   -0.19    0.47
   9  -6   9    0.06    0.43
  -9  -6  -9   -0.95    0.49
  -6   9  -9    0.01    0.40
   9  -6   9    0.34    0.34
   6  -9  -9   -0.12    0.41
  -8   9   9    3.22    0.54
  -8   9   9    1.79    0.47
   9  -8  -9    2.84    0.62
   8   9  -9    3.10    0.52
   8  -9   9    3.74    0.56
  -9   8  -9    2.06    0.53
  -9  -8   9    3.50    0.64
   9   8   9    3.65    0.57
  -8  -9  -9    2.28    0.50
   9   8   9    1.42    0.56
   8   9  -9    2.82    0.62
  -9   8   9    3.27    0.49
  -8  -9   9    3.24    0.64
   8   9   9    2.18    0.60
  -9  -8  -9    2.76    0.49
   8  -9  -9    2.45    0.59
   9  -8   9    2.19    0.52
   8   9   9    3.37    0.50
   9   8  -9    3.82    0.65
  -9   8   9    2.11    0.52
  -8   9  -9    2.37    0.55
  -1 -10  -9    0.13    0.32
   1 -10   9    0.29    0.33
   1  10  -9    0.25    0.37
  10  -1  -9    0.52    0.39
  10  -1  -9    0.61    0.39
  -1  10   9    0.28    0.35
   1 -10   9    0.21    0.38
 -10  -1   9    0.51    0.41
 -10   1  -9    0.69    0.47
  10   1   9    0.89    0.42
  -1  10   9    0.79    0.41
  -1 -10  -9    0.95    0.42
 -10  -1   9    0.41    0.35
   1  10  -9    0.44    0.40
   1 -10  -9    0.60    0.38
 -10   1   9    0.87    0.35
  10  -1   9    0.29    0.35
   1  10   9    0.11    0.37
  -1  10  -9    0.67    0.37
  -1  10  -9    0.37    0.37
  -1 -10   9    0.47    0.30
 -10   1   9    0.32    0.39
 -10  -1  -9   -0.55    0.43
  10  -1   9   -0.16    0.36
  10   1  -9    0.39    0.43
  -1 -10   9   -0.01    0.40
   1 -10  -9    0.98    0.40
  10   3   9    1.04    0.45
  -3  10   9    0.19    0.39
  10  -3  -9    0.38    0.35
   3 -10   9    0.57    0.38
  -3 -10  -9    0.51    0.41
 -10   3  -9   -0.03    0.40
 -10  -3   9    0.24    0.40
  10  -3  -9    0.66    0.43
  -3  10   9    0.43    0.40
   3  10  -9   -0.15    0.36
 -10  -3   9    0.28    0.42
   3  10  -9    0.91    0.46
 -10   3   9    0.10    0.36
  -3  10  -9    0.44    0.39
  10  -3   9   -0.16    0.34
  -3 -10   9    0.72    0.45
  10   3  -9   -0.15    0.42
   3 -10  -9    0.42    0.41
   3  10   9    0.29    0.41
  10  -3   9   -0.19    0.37
 -10  -3  -9    1.08    0.53
 -10   3   9   -0.04    0.34
   5  10  -9    1.49    0.44
  10   5   9    1.06    0.47
  -5 -10  -9    0.72    0.45
   5 -10   9    0.15    0.41
  10  -5  -9    0.89    0.47
  -5  10   9    1.63    0.48
 -10   5  -9    1.12    0.46
   5  10  -9    0.81    0.47
 -10  -5   9    1.17    0.50
  -5  10   9    0.88    0.41
 -10   5   9    1.00    0.42
  10  -5   9    0.93    0.38
   5 -10  -9    0.92    0.50
 -10   5   9    1.22    0.40
   5  10   9    0.57    0.48
  -5  10  -9    1.14    0.45
  10  -5   9    0.91    0.45
  -5 -10   9    1.33    0.53
  10   5  -9    0.21    0.47
 -10  -5  -9    1.00    0.56
  -7  10   9    0.02    0.45
  10  -7  -9   -0.52    0.48
  -7  10   9   -0.28    0.42
   7  10  -9   -0.70    0.47
 -10  -7   9    0.57    0.51
   7  10  -9   -0.23    0.42
   7 -10   9   -0.81    0.43
  10   7   9    0.51    0.47
  -7 -10  -9    0.20    0.43
 -10   7  -9   -0.13    0.47
 -10   7   9    0.54    0.40
   7  10   9   -0.49    0.50
   7 -10  -9   -0.25    0.51
  -7 -10   9    0.52    0.47
  10  -7   9    0.07    0.46
  -7  10  -9   -0.63    0.42
 -10   7   9   -0.14    0.44
  10   7  -9    0.30    0.53
 -10  -7  -9   -0.19    0.54
   9  10  -9   -0.76    0.53
 -10   9  -9    0.04    0.53
  -9 -10  -9   -0.09    0.49
  10   9   9   -0.21    0.44
   9 -10   9   -0.78    0.48
  -9  10   9   -1.05    0.47
  -9  10   9    0.42    0.45
  10  -9  -9    0.36    0.57
 -10  -9   9   -0.32    0.54
   9  10   9    0.09    0.44
 -10   9   9   -0.25    0.49
   9 -10  -9   -0.11    0.48
  10   9  -9    0.75    0.55
 -10  -9  -9    0.11    0.47
  -9 -10   9    0.98    0.60
  -9  10  -9   -0.38    0.49
  10  -9   9    0.54    0.51
   9  10   9    0.50    0.60
 -10  -9  -9    0.36    0.63
  11   0   9    0.16    0.43
 -11   0  -9    0.36    0.50
 -11   0   9    0.37    0.43
 -11   0   9    0.22    0.39
   0 -11   9    0.00    0.42
   0 -11  -9    0.12    0.45
  11   0  -9    0.17    0.43
   0 -11  -9   -0.43    0.35
   0 -11   9   -0.40    0.30
   0  11  -9    0.17    0.39
   0  11   9   -0.51    0.44
  -2 -11  -9    5.12    0.74
   2  11  -9    3.52    0.54
   2 -11   9    4.17    0.59
 -11  -2   9    5.46    0.79
  -2  11   9    5.54    0.73
  11   2   9    4.79    0.62
   2  11  -9    4.33    0.57
  11  -2  -9    3.86    0.54
  11  -2  -9    4.48    0.55
   2 -11   9    4.69    0.65
 -11   2  -9    3.64    0.56
 -11   2   9    4.71    0.64
 -11   2   9    3.09    0.49
  11  -2   9    4.19    0.52
   2 -11  -9    4.01    0.56
   2 -11  -9    3.73    0.54
 -11  -2  -9    3.74    0.62
  -2  11  -9    4.99    0.58
   2  11   9    4.44    0.60
  11   2  -9    5.27    0.76
  11  -2   9    4.60    0.67
  -2 -11   9    4.03    0.59
 -11   4  -9    1.51    0.51
   4 -11   9    2.55    0.50
   4  11  -9    2.27    0.51
   4  11  -9    1.82    0.53
  -4  11   9    2.09    0.50
  -4  11   9    2.36    0.50
  11   4   9    1.79    0.48
 -11  -4   9    2.69    0.54
  -4 -11  -9    3.31    0.57
  11  -4  -9    2.80    0.54
  11   4  -9    1.57    0.54
  11  -4   9    2.30    0.51
  11  -4   9    2.81    0.47
 -11   4   9    1.69    0.46
   4 -11  -9    2.24    0.56
  -4 -11   9    3.08    0.59
 -11  -4  -9    2.43    0.64
   4  11   9    3.09    0.62
 -11   4   9    2.60    0.47
  -4  11  -9    2.72    0.53
   6 -11   9    2.39    0.54
   6  11  -9    0.91    0.54
 -11   6  -9    1.75    0.49
  11  -6  -9    2.43    0.58
  -6 -11  -9    3.75    0.60
  -6  11   9    2.43    0.55
 -11  -6   9    0.72    0.53
  -6  11   9    1.71    0.47
  11   6   9    2.13    0.53
   6  11  -9    1.08    0.51
  -6 -11   9    1.82    0.61
 -11   6   9    2.00    0.51
   6 -11  -9    1.62    0.56
  11   6  -9    1.20    0.56
 -11  -6  -9    2.56    0.63
   6  11   9    1.84    0.58
 -11   6   9    2.17    0.48
  -6  11  -9    1.75    0.51
  11  -6   9    1.25    0.43
  11  -6   9    0.87    0.51
  -8  11   9    0.11    0.45
  -8  11   9    0.17    0.52
 -11   8  -9    0.95    0.54
   8 -11   9    1.18    0.53
   8  11  -9    0.70    0.58
  -8 -11  -9    1.13    0.55
  11  -8  -9    0.40    0.58
 -11  -8   9   -0.07    0.56
  11   8   9    0.08    0.52
  11   8  -9   -0.06    0.54
  11  -8   9    1.03    0.56
 -11  -8  -9    0.64    0.65
  -8  11  -9    0.66    0.54
   8  11   9    0.67    0.59
   8 -11  -9    0.29    0.57
 -11   8   9    0.27    0.51
  -8 -11   9   -0.14    0.57
  11 -10  -9    0.37    0.67
  11  10   9    0.08    0.53
 -10  11   9    0.84    0.57
  10  11  -9    1.26    0.61
 -11  10  -9    0.37    0.59
 -10 -11  -9   -0.10    0.51
  10 -11   9   -0.35    0.49
 -11 -10   9    0.37    0.62
  11  10  -9    0.37    0.61
  10  11   9    0.25    0.61
 -11  10   9   -0.33    0.53
 -10 -11   9   -0.07    0.63
  10 -11  -9   -0.73    0.58
  11 -10   9   -0.39    0.55
 -10  11  -9    0.19    0.56
 -11 -10  -9    0.47    0.69
  12  -1  -9    0.43    0.47
  -1 -12  -9   -0.03    0.46
  -1  12   9    0.42    0.50
 -12  -1   9    0.43    0.47
   1  12  -9    0.78    0.46
   1 -12   9    0.45    0.39
 -12   1  -9    0.45    0.47
  12   1   9    0.70    0.49
   1 -12   9    0.42    0.45
  12   1  -9    0.88    0.51
 -12  -1  -9    0.49    0.55
  -1 -12   9    0.80    0.48
   1  12   9    1.23    0.49
   1 -12  -9    0.31    0.43
 -12   1   9   -0.19    0.45
  12  -1   9    1.47    0.45
  -1  12  -9    0.99    0.46
   1 -12  -9    1.54    0.48
  12  -3  -9   14.60    0.92
  -3  12   9   14.78    0.99
   3 -12   9   14.02    0.85
   3  12  -9   14.41    0.91
  12   3   9   13.92    0.95
 -12  -3   9   14.80    0.97
 -12   3  -9   12.43    0.99
  -3 -12  -9   15.02    0.99
  -3 -12   9   15.05    1.05
  12  -3   9   13.97    0.92
 -12  -3  -9   14.89    1.02
  12  -3   9   15.53    0.91
   3 -12  -9   15.08    0.95
  -3  12  -9   16.00    0.94
 -12   3   9   13.99    0.88
   3 -12  -9   14.99    0.97
   3  12   9   15.60    1.07
  12   3  -9   13.31    0.99
 -12   3   9   15.36    0.91
 -12   5  -9    7.72    0.93
  -5  12   9    7.74    0.85
   5  12  -9    7.97    0.85
  -5  12   9    6.39    0.84
  -5 -12  -9    7.00    0.92
   5 -12   9    8.38    0.81
 -12  -5   9    8.68    0.89
  12  -5  -9    7.21    0.86
  12   5   9    8.52    0.86
   5  12  -9    8.19    0.81
 -12  -5  -9    8.15    1.02
  -5  12  -9    6.82    0.81
   5  12   9    7.82    0.97
  12  -5   9    7.60    0.84
   5 -12  -9    6.76    0.86
  12   5  -9    6.56    0.88
  12  -5   9    8.07    0.75
  -5 -12   9    7.34    1.00
 -12   5   9    6.89    0.83
  12  -7  -9    1.10    0.61
  12   7   9    0.94    0.58
  -7  12   9    0.41    0.48
   7 -12   9    2.08    0.58
  -7 -12  -9   -0.05    0.51
 -12   7  -9    0.72    0.57
  -7  12   9    1.87    0.58
   7  12  -9    0.46    0.57
 -12  -7   9    0.23    0.54
  -7 -12   9    1.21    0.64
  12   7  -9    2.07    0.64
   7  12   9    0.31    0.58
   7 -12  -9    1.07    0.61
 -12   7   9    1.67    0.56
  -7  12  -9    0.97    0.55
  12  -7   9    0.53    0.56
 -12  -7  -9    1.62    0.68
  12   9   9    0.33    0.57
   9 -12   9   -0.41    0.55
  12  -9  -9   -0.25    0.62
  -9 -12  -9    0.09    0.54
 -12  -9   9    0.49    0.59
   9  12  -9    0.69    0.61
  -9  12   9    1.42    0.63
 -12   9  -9   -0.08    0.57
 -12   9   9    0.08    0.56
  -9  12  -9    1.13    0.63
  12  -9   9   -0.93    0.55
   9 -12  -9    0.00    0.61
  12   9  -9   -0.01    0.60
   9  12   9   -0.35    0.60
  -9 -12   9    0.15    0.60
 -12  -9  -9   -0.16    0.68
  12  11   9    7.96    0.98
 -11 -12  -9    7.91    1.10
   0 -13   9   -0.10    0.49
   0  13   9   -0.76    0.50
 -13   0  -9    0.41    0.58
   0  13  -9   -0.21    0.45
   0 -13  -9    0.53    0.51
 -13   0   9    0.22    0.46
  13   0  -9   -0.37    0.50
  13   0   9   -0.31    0.45
 -13  -2   9   -0.32    0.45
   2  13  -9   -1.14    0.45
   2 -13   9   -0.40    0.41
 -13   2  -9    1.15    0.59
  -2 -13  -9   -0.17    0.50
  -2  13   9    0.23    0.52
  13   2   9    0.25    0.53
 -13  -2  -9    0.77    0.62
   2  13   9   -1.11    0.51
  13  -2   9   -0.09    0.44
  13   2  -9    0.51    0.54
  -2  13  -9   -0.03    0.42
   2 -13  -9    0.01    0.50
  -2 -13   9   -0.01    0.52
   2 -13  -9   -0.41    0.44
 -13  -4   9    0.83    0.53
  -4  13   9   -0.24    0.48
  13   4   9   -0.06    0.50
  13  -4  -9    1.23    0.53
   4 -13   9   -0.37    0.44
  -4 -13  -9   -0.41    0.51
 -13   4  -9   -0.11    0.51
   4  13  -9    0.70    0.53
  13   4  -9    0.23    0.58
 -13  -4  -9    1.03    0.66
   4 -13  -9    0.60    0.52
  -4  13  -9   -0.15    0.47
   4 -13  -9   -0.74    0.47
  -4 -13   9    0.66    0.57
  13  -4   9    0.06    0.48
   4  13   9    0.35    0.56
  13  -4   9    0.41    0.47
  13   6   9    0.66    0.59
   6 -13   9    0.92    0.54
  -6 -13  -9   -0.40    0.51
  13  -6  -9   -0.06    0.55
  -6  13   9   -0.07    0.51
 -13   6  -9    0.64    0.55
 -13  -6   9    0.42    0.57
  -6  13  -9   -0.09    0.50
 -13  -6  -9    0.00    0.64
  13   6  -9   -0.31    0.53
   6  13   9    0.20    0.60
   6 -13  -9   -0.28    0.50
   6 -13  -9   -0.02    0.55
  -6 -13   9   -0.32    0.60
  13  -6   9   -0.01    0.51
 -13   8  -9    0.18    0.62
  -8 -13  -9    0.17    0.58
  13  -8  -9   -0.19    0.62
   8  13  -9    0.85    0.61
  -8  13   9   -0.59    0.54
  13   8   9    0.42    0.60
   8 -13   9    0.05    0.54
  -8  13   9    0.56    0.56
 -13  -8   9    0.08    0.59
  -8  13  -9    0.04    0.55
 -13   8   9    0.50    0.62
   8 -13  -9    0.31    0.64
  13   8  -9   -0.46    0.57
  -8 -13   9    0.11    0.61
   8  13   9   -0.20    0.65
 -13  -8  -9   -1.49    0.62
  13  -8   9    0.19    0.55
 -14   1  -9    0.97    0.63
  14  -1  -9    2.49    0.63
  -1  14   9    2.54    0.66
   1  14  -9    1.97    0.59
  14   1   9    1.51    0.58
  -1 -14  -9    1.81    0.60
   1 -14  -9    0.93    0.58
  14   1  -9    2.34    0.63
  -1 -14   9    2.23    0.63
   1  14   9    1.02    0.61
 -14  -1  -9    1.89    0.67
  -1  14  -9    1.85    0.58
  14  -1   9    2.23    0.62
   3  14  -9   -0.06    0.54
 -14   3  -9    1.53    0.63
   3 -14   9    0.88    0.49
 -14  -3   9    1.71    0.59
  -3 -14  -9    1.45    0.59
  -3  14   9    2.60    0.65
  14   3   9   -0.06    0.56
  14  -3   9    0.71    0.51
   3 -14  -9    1.07    0.56
  -3 -14   9    1.74    0.64
  -3  14  -9    1.03    0.51
  14   3  -9    2.27    0.66
 -14  -3  -9    2.02    0.75
   3 -14  -9    0.86    0.51
   3  14   9    0.69    0.63
 -14  -5   9    0.85    0.59
   5  14  -9    0.32    0.57
   5 -14   9    0.75    0.54
  -5  14   9    1.74    0.61
  14  -5  -9    0.30    0.55
 -14   5  -9    0.84    0.62
  -5 -14  -9    0.23    0.58
  14   5   9    0.06    0.56
   5 -14  -9    1.13    0.61
  -5  14  -9    0.19    0.55
  -5 -14   9    0.46    0.65
   5  14   9    1.14    0.63
 -14  -5  -9   -0.31    0.66
   5 -14  -9   -0.60    0.51
  14  -5   9    0.00    0.51
  14   5  -9    0.19    0.59
   7 -14   9    0.70    0.61
  -7  14   9    1.33    0.62
  14  -7  -9    0.48    0.61
 -14  -7   9    1.06    0.63
   7 -14  -9    1.05    0.58
   7 -14  -9    0.35    0.63
  14  -7   9    0.30    0.58
 -15   0  -9   -0.30    0.59
  15   0   9   -0.43    0.54
   0  15   9    0.62    0.62
   0 -15   9    0.31    0.54
  15   0  -9   -0.91    0.56
   0 -15  -9   -0.49    0.57
   0  15  -9   -0.47    0.53
 -15   2  -9    4.61    0.74
  15   2   9    5.33    0.78
  -2  15   9    4.29    0.80
   2  15  -9    5.90    0.76
  -2 -15  -9    4.98    0.75
   2 -15  -9    5.66    0.78
  15  -2   9    5.66    0.76
  -2 -15   9    4.16    0.74
  15   2  -9    4.03    0.72
  -2  15  -9    4.58    0.72
   2  15   9    3.87    0.78
 -15  -2  -9    4.15    0.80
   4 -15   9    0.50    0.51
  -4  15   9   -0.29    0.60
   4  15  -9    0.93    0.61
   4 -15  -9    0.15    0.56
  -4 -15   9   -0.11    0.62
   4 -15  -9    0.88    0.62
  -4  15  -9   -0.06    0.54
  15   4  -9    0.16    0.60
  15  -4   9   -0.27    0.52
 -15  -6   9    3.30    0.71
  15  -6  -9    1.97    0.69
   6 -15  -9    3.42    0.74
  15  -6   9    3.75    0.72
   1  16  -9    9.10    1.05
  -1  16  -9    8.31    1.12
  -1 -16   9    9.45    1.14
  16   1  -9    9.73    1.09
   3  16  -9    0.63    0.64
   0   0 -10    0.24    0.13
   0   0  10   -0.44    0.27
   0   0 -10    0.09    0.24
   0   0  10    0.35    0.22
  -1  -1  10    2.70    0.34
  -1   1  10    2.33    0.29
   1   1 -10    3.15    0.44
  -1  -1 -10    2.51    0.35
  -1  -1 -10    2.53    0.29
  -1   1  10    2.64    0.26
   1  -1 -10    2.52    0.30
  -1   1  10    2.42    0.36
  -1   1 -10    2.65    0.40
   1  -1  10    2.47    0.33
  -1   1 -10    2.42    0.26
   1   1  10    1.98    0.31
   1  -1  10    2.71    0.32
  -1  -1  10    2.86    0.39
   1   1  10    2.33    0.34
   0   2  10    0.23    0.27
  -2   0 -10    0.49    0.25
   2   0 -10    0.25    0.26
   0   2  10    0.62    0.22
   0  -2  10    0.37    0.24
   0   2  10    0.38    0.24
   2   0  10    0.12    0.25
   0  -2 -10    0.17    0.20
  -2   0 -10    0.63    0.20
  -2   0  10    0.41    0.29
   0   2 -10    0.18    0.26
   0   2 -10    0.52    0.14
  -2   0  10    0.22    0.26
   2   0  10    0.49    0.17
   0  -2  10    0.33    0.23
   2   0  10    0.21    0.25
   2   2  10   -0.18    0.20
   2   2 -10    0.18    0.11
   2  -2  10   -0.15    0.23
   2  -2 -10    0.03    0.21
   2  -2  10   -0.04    0.16
  -2   2 -10   -0.07    0.18
   2   2 -10    0.16    0.30
   2   2  10    0.05    0.28
  -2   2 -10   -0.06    0.25
  -2  -2  10    0.01    0.26
  -2  -2  10    0.32    0.26
   2  -2 -10   -0.03    0.33
  -2   2  10   -0.04    0.15
   2   2  10   -0.25    0.22
   2   2  10    0.25    0.25
  -2   2  10    0.38    0.25
   1   3 -10    0.03    0.14
  -3  -1  10   -0.11    0.29
  -3  -1  10    0.08    0.28
   3  -1 -10    0.29    0.27
  -1   3  10   -0.06    0.20
   1  -3  10    0.04    0.21
   1   3 -10    0.07    0.29
   1  -3  10    0.04    0.26
   3   1  10   -0.20    0.24
   3   1  10    0.58    0.27
  -3   1 -10    0.32    0.21
   3  -1 -10   -0.55    0.31
  -1   3  10    0.05    0.26
   3   1  10    0.12    0.17
  -1  -3  10    0.42    0.25
   1  -3 -10    0.41    0.30
  -1  -3  10    0.54    0.27
   3  -1  10   -0.03    0.26
  -3   1  10    0.43    0.28
   1   3  10    0.09    0.20
  -3  -1 -10    0.18    0.24
   3   1 -10    0.09    0.30
   1   3  10    0.22    0.26
  -1   3 -10    0.06    0.27
   3  -1  10    0.20    0.13
   1   3  10    0.16    0.23
  -1   3 -10   -0.21    0.17
   1   3  10    0.14    0.29
   3  -1  10   -0.04    0.24
  -3   1  10    0.33    0.14
   1  -3 -10   -0.23    0.17
  -3   3  10    6.37    0.38
   3  -3  10    6.13    0.30
   3   3  10    5.91    0.40
   3   3  10    6.06    0.43
  -3   3 -10    6.22    0.44
   3   3 -10    6.76    0.33
   3  -3 -10    6.39    0.41
  -3   3 -10    6.96    0.49
   3  -3  10    6.69    0.46
  -3  -3  10    7.26    0.47
  -3   3  10    6.46    0.49
   3  -3 -10    6.36    0.51
   3   3 -10    6.44    0.52
  -3  -3  10    6.01    0.54
   3   3  10    5.88    0.55
   3   3  10    6.07    0.50
  -4   0  10   -0.04    0.25
   0   4  10    0.19    0.25
   0  -4 -10   -0.13    0.16
  -4   0  10    0.18    0.14
   0  -4  10    0.16    0.25
   4   0  10   -0.07    0.26
   4   0 -10    0.13    0.31
   0  -4 -10    0.56    0.30
   4   0  10   -0.14    0.22
  -4   0 -10   -0.28    0.22
   4   0  10    0.13    0.14
   0  -4  10   -0.02    0.24
   0   4  10    0.05    0.25
   0   4 -10    0.26    0.18
   4   0 -10    0.40    0.32
   0   4 -10   -0.27    0.24
   4   2  10    0.31    0.20
   4  -2 -10    0.60    0.34
  -2   4  10    0.31    0.22
  -4   2 -10    0.26    0.26
   2  -4  10    0.33    0.27
   4   2  10    0.44    0.26
  -4  -2  10    0.26    0.27
   2   4 -10    0.13    0.31
  -4  -2  10    0.56    0.16
   4  -2 -10    0.39    0.26
  -4  -2  10    0.31    0.28
   4   2  10    0.43    0.27
   2   4 -10    0.32    0.18
  -2   4  10    0.46    0.27
   2  -4  10    0.39    0.21
  -4  -2 -10    0.20    0.28
   2   4  10    0.41    0.22
   2  -4 -10    0.12    0.17
  -2  -4  10    0.22    0.30
   2  -4 -10    0.39    0.33
   2   4  10    0.47    0.27
   2   4  10    0.72    0.31
   4   2 -10    0.09    0.33
  -2   4 -10    0.45    0.27
   2   4  10    0.44    0.25
  -2  -4  10    0.68    0.24
  -4   2  10    0.47    0.18
   4  -2  10    0.58    0.24
   4  -2  10    0.90    0.29
  -2   4 -10    0.45    0.21
  -4   2  10    0.75    0.29
   4  -2  10    0.56    0.09
  -4   4  10    0.11    0.28
   4  -4 -10   -0.10    0.20
  -4  -4  10    0.52    0.33
   4   4 -10    0.60    0.34
  -4   4  10   -0.19    0.21
   4  -4  10    0.08    0.27
   4   4  10   -0.14    0.23
   4   4  10    0.37    0.32
  -4  -4  10    0.04    0.22
   4  -4 -10   -0.37    0.32
  -4   4 -10   -0.09    0.26
   4   4 -10   -0.55    0.19
   4   4  10    0.08    0.25
  -4  -4 -10    0.13    0.20
  -4   4 -10   -0.26    0.23
   4  -4  10   -0.09    0.13
  -1  -5 -10    8.32    0.54
   1   5 -10    9.59    0.43
  -1   5  10    8.79    0.50
   1  -5  10    8.54    0.53
  -5   1 -10    7.82    0.52
  -1   5  10    8.41    0.53
   5   1  10    8.25    0.53
  -5  -1  10    9.34    0.37
   5  -1 -10    9.01    0.53
   5  -1 -10    8.34    0.60
   5   1  10    8.01    0.51
  -5  -1  10    9.32    0.60
   1  -5  10    8.56    0.51
   1   5 -10    8.86    0.59
   5   1 -10    9.64    0.62
   1   5  10    9.26    0.53
  -1  -5  10    8.36    0.56
   5   1 -10    7.87    0.56
   1  -5 -10    9.08    0.34
  -5  -1 -10    7.24    0.55
  -1   5 -10    8.07    0.53
  -1  -5  10    8.77    0.48
   1  -5 -10    6.65    0.57
  -5   1  10    9.51    0.58
  -5   1  10    8.28    0.38
   1   5  10    9.40    0.41
  -1   5 -10    8.85    0.46
   1   5  10    8.36    0.55
   5  -1  10    8.98    0.54
  -5  -1 -10    8.78    0.35
   5  -1  10    7.79    0.53
   5   3  10   -0.09    0.24
  -5  -3  10   -0.11    0.24
   3   5 -10    0.10    0.34
   5  -3 -10    0.15    0.24
   3  -5  10    0.04    0.20
   5  -3 -10    0.18    0.35
   5   3  10    0.54    0.28
   3   5 -10    0.01    0.20
  -3   5  10    0.03    0.24
  -3   5  10    0.46    0.29
  -5  -3  10    0.66    0.22
   3  -5  10    0.51    0.27
  -3  -5 -10   -0.07    0.24
  -5  -3  10    0.11    0.34
  -3  -5 -10    0.50    0.25
  -5   3 -10    0.52    0.28
   3   5  10    0.12    0.26
   3   5  10    0.39    0.25
   5  -3  10    0.36    0.27
   3   5  10    0.26    0.33
  -3  -5  10   -0.01    0.23
  -5  -3 -10   -0.05    0.32
   3  -5 -10    0.06    0.18
  -5  -3 -10    0.31    0.20
  -3   5 -10    0.22    0.25
  -5   3  10    0.26    0.21
  -5   3  10    0.64    0.30
  -3   5 -10    0.05    0.25
  -3  -5  10    0.32    0.34
   5  -3  10   -0.16    0.28
   5   3 -10    0.14    0.34
   3  -5 -10    0.68    0.36
   5   5 -10   26.90    1.01
   5   5  10   27.45    0.90
  -5  -5  10   26.72    1.00
  -5   5 -10   27.68    0.88
  -5   5  10   26.65    0.92
  -5   5 -10   26.42    0.89
  -5  -5 -10   28.52    0.84
   5   5  10   27.30    0.98
   5   5  10   27.95    0.81
  -5   5  10   27.56    0.84
   5   5 -10   27.83    0.81
   5  -5 -10   26.77    0.98
   5  -5  10   28.63    0.92
  -5  -5  10   26.77    0.76
   0  -6 -10    1.89    0.26
  -6   0 -10    1.07    0.15
   6   0  10    0.52    0.30
  -6   0  10    0.82    0.22
   0   6  10    0.93    0.31
   6   0 -10    0.52    0.30
   0  -6  10    0.78    0.30
   0   6 -10    1.06    0.25
  -6   0 -10    0.94    0.33
   0   6 -10    0.64    0.30
   0  -6 -10    1.19    0.33
  -6   0  10    1.11    0.33
   0  -6  10    0.85    0.28
   6   0  10    0.86    0.29
   6   0 -10    0.64    0.31
   0   6  10    1.34    0.31
  -6   2 -10    0.10    0.29
   2  -6  10   -0.06    0.26
   6  -2 -10    0.34    0.27
  -2   6  10    0.12    0.29
  -6  -2  10   -0.16    0.28
  -2  -6 -10   -0.14    0.23
   2  -6  10    0.10    0.25
   6   2  10   -0.42    0.28
   6  -2 -10    0.05    0.32
   2   6 -10   -0.22    0.21
  -2   6  10    0.22    0.26
  -6  -2  10    0.33    0.21
   2   6 -10   -0.22    0.32
   6   2  10    0.25    0.26
   2   6  10   -0.09    0.32
   2   6  10   -0.56    0.27
   6  -2  10    0.42    0.27
   6   2 -10    0.34    0.35
   2  -6 -10   -0.12    0.31
  -6   2  10    0.07    0.21
  -2  -6  10    0.15    0.23
  -6  -2 -10    0.11    0.17
  -2   6 -10    0.06    0.28
  -6   2  10   -0.32    0.28
  -2  -6  10   -0.16    0.30
   6   2 -10    0.12    0.27
   6  -2  10    0.17    0.28
  -2   6 -10   -0.13    0.23
  -6  -2 -10    0.00    0.30
   2   6  10    0.34    0.21
   6  -4 -10    0.16    0.36
   4   6 -10    0.13    0.38
  -6  -4  10    0.21    0.25
  -4   6  10    0.19    0.27
   6  -4 -10   -0.21    0.23
  -4  -6 -10   -0.04    0.26
   6   4  10    0.31    0.26
  -6  -4  10    0.13    0.35
   6   4  10    0.01    0.28
   4  -6  10   -0.18    0.31
  -6   4 -10   -0.03    0.29
  -4   6  10    0.44    0.32
  -4  -6 -10    0.53    0.24
   4   6 -10   -0.12    0.24
   4  -6 -10    0.27    0.36
  -4  -6  10   -0.53    0.36
   6   4 -10   -0.25    0.37
   6   4 -10    0.23    0.27
   4   6  10    0.94    0.39
   6  -4  10    0.33    0.28
  -4  -6  10   -0.29    0.21
   4   6  10    0.15    0.27
  -6   4  10    0.00    0.23
  -4   6 -10    0.18    0.26
  -6  -4 -10    0.25    0.40
  -6   4  10    0.42    0.31
   6  -4  10    0.41    0.34
  -6  -4 -10   -0.17    0.21
  -4   6 -10   -0.01    0.28
  -6   6  10    0.11    0.30
   6   6 -10    0.41    0.43
  -6   6 -10   -0.45    0.28
   6   6 -10   -0.13    0.27
  -6   6  10    0.24    0.32
   6  -6 -10    0.23    0.39
   6   6  10    0.15    0.40
   6  -6  10    0.01    0.36
   6   6  10   -0.33    0.28
  -6  -6 -10   -0.58    0.23
  -6  -6  10    0.13    0.40
  -6   6 -10   -0.22    0.31
   1  -7  10    8.47    0.55
   7   1  10   10.12    0.61
   7  -1 -10    8.63    0.61
  -1   7  10    8.92    0.58
  -7  -1  10    8.89    0.48
   1  -7  10    8.54    0.55
   1   7 -10    8.52    0.52
  -7  -1  10    8.78    0.65
  -1   7  10    7.45    0.57
  -7   1 -10    8.93    0.59
  -1  -7 -10    8.05    0.52
   7  -1 -10    7.95    0.60
   1   7 -10    7.96    0.64
   7   1  10    7.99    0.54
  -1  -7  10    7.83    0.52
  -7  -1 -10    8.31    0.66
   7  -1  10    7.52    0.57
   1   7  10    7.79    0.62
   1   7  10    7.91    0.60
   7   1 -10    8.04    0.64
   1  -7 -10    7.36    0.59
   7  -1  10    7.35    0.57
  -1   7 -10    8.74    0.56
  -7   1  10    8.15    0.60
  -7   1  10    7.80    0.47
  -1   7 -10    8.61    0.51
   7   1 -10    7.80    0.57
  -1  -7  10    9.18    0.62
   1   7  10    8.38    0.40
  -3   7  10    3.66    0.41
  -7  -3  10    4.30    0.60
   7   3  10    3.51    0.43
  -7   3 -10    4.24    0.55
  -3  -7 -10    4.38    0.42
  -7  -3  10    3.25    0.45
   7  -3 -10    3.92    0.51
  -3   7  10    3.73    0.43
   3  -7  10    4.54    0.44
   3   7 -10    3.98    0.44
   7  -3 -10    3.51    0.44
   3  -7  10    3.73    0.47
   7   3  10    3.67    0.45
   3   7 -10    3.70    0.48
  -3  -7 -10    3.41    0.43
  -3   7 -10    3.46    0.46
   7  -3  10    4.73    0.56
   7  -3  10    4.10    0.53
  -7   3  10    3.47    0.50
  -7  -3 -10    3.33    0.36
  -3  -7  10    4.29    0.40
  -7  -3 -10    4.02    0.58
   3  -7 -10    3.41    0.44
   7   3 -10    3.67    0.47
  -3   7 -10    3.65    0.48
  -7   3  10    4.19    0.43
   3   7  10    2.55    0.44
   7   3 -10    3.68    0.46
   3   7  10    3.72    0.44
  -3  -7  10    2.91    0.42
  -7   5 -10    2.23    0.40
  -5   7  10    2.57    0.39
   5   7 -10    2.39    0.38
   7   5  10    2.43    0.42
  -7  -5  10    2.12    0.36
  -7  -5  10    2.07    0.47
  -5   7  10    2.29    0.40
   7  -5 -10    2.08    0.41
   5   7 -10    2.00    0.47
   5  -7  10    1.98    0.42
  -5  -7 -10    2.49    0.39
  -5   7 -10    2.40    0.40
   7   5 -10    2.26    0.50
  -5  -7  10    1.19    0.45
  -7   5  10    2.38    0.40
   5   7  10    2.17    0.45
   7  -5  10    1.61    0.41
  -5   7 -10    2.02    0.35
   5   7  10    2.88    0.39
   5  -7 -10    2.29    0.46
  -7  -5 -10    2.26    0.33
  -7   5  10    2.75    0.37
   7  -5  10    2.41    0.38
  -7  -5 -10    1.38    0.49
  -7  -7 -10    8.16    0.65
   7  -7 -10    8.52    0.79
   7  -7  10    8.51    0.74
   7   7  10    8.57    0.76
  -7   7 -10    8.72    0.72
  -7   7 -10    8.00    0.64
   7   7 -10    8.11    0.63
  -7   7  10    6.86    0.67
   7   7  10    8.06    0.68
  -7   7  10    7.15    0.67
  -7  -7  10    8.76    0.82
   7   7 -10    7.40    0.81
  -8   0 -10   -0.05    0.34
  -8   0  10    0.21    0.34
   0  -8  10    0.18    0.29
   0   8 -10    0.17    0.28
   0  -8  10    0.12    0.31
   8   0 -10   -0.42    0.32
   0   8 -10    0.06    0.35
   8   0 -10    0.66    0.33
   8   0  10    0.11    0.33
   0   8  10   -0.08    0.34
   0   8  10   -0.54    0.32
   8   0  10    0.00    0.29
  -8   0  10    0.22    0.26
   0  -8 -10    0.07    0.29
   8   2  10   -0.18    0.34
   8  -2 -10    0.33    0.32
  -8  -2  10    0.26    0.28
   2   8 -10    0.44    0.30
  -8  -2  10   -0.34    0.34
  -2   8  10   -0.47    0.30
  -2   8  10    0.20    0.33
  -8   2 -10    0.27    0.36
   2  -8  10   -0.07    0.31
  -2  -8 -10   -0.36    0.33
   8  -2 -10    0.34    0.38
   2  -8  10   -0.35    0.28
   8   2  10   -0.27    0.26
  -2  -8 -10   -0.33    0.26
   2   8 -10    0.22    0.39
  -2   8 -10   -0.50    0.27
  -2  -8  10   -0.14    0.35
  -2  -8  10   -0.10    0.25
   8  -2  10    0.52    0.31
  -8   2  10   -0.21    0.25
  -2   8 -10   -0.20    0.28
   8   2 -10    0.13    0.28
   8  -2  10   -0.32    0.31
  -8  -2 -10    0.86    0.43
   2  -8 -10   -0.32    0.34
   2   8  10   -0.49    0.34
   8   2 -10   -0.04    0.33
  -8   2  10   -0.17    0.31
   8  -4 -10   -0.05    0.39
  -8   4 -10    0.26    0.37
   4   8 -10   -0.61    0.28
  -4   8  10   -0.22    0.34
  -8  -4  10    0.19    0.30
   4  -8  10   -0.25    0.35
  -8  -4  10    0.08    0.41
   4   8 -10    0.98    0.42
  -4  -8 -10    0.05    0.34
  -4   8  10    0.24    0.32
   8   4  10    0.22    0.36
   4   8  10   -0.20    0.28
   8   4 -10    0.56    0.44
  -4   8 -10    0.19    0.33
   4  -8 -10    0.46    0.40
  -8   4  10    0.05    0.29
  -4   8 -10    0.30    0.30
  -8  -4 -10    0.18    0.46
  -4  -8  10    0.33    0.41
  -8  -4 -10   -0.06    0.24
   8  -4  10    1.09    0.41
  -8   4  10    0.19    0.35
   8  -4  10    0.02    0.29
   4   8  10    0.20    0.38
  -6   8  10   -0.19    0.36
  -6   8  10    0.76    0.38
  -8   6 -10    0.07    0.34
   6  -8  10    0.82    0.42
  -8  -6  10    0.77    0.46
  -6  -8 -10    0.62    0.36
   8  -6 -10   -0.20    0.45
   8   6  10    0.46    0.37
   6   8 -10    0.36    0.36
   6   8 -10    0.33    0.47
  -8   6 -10    0.76    0.41
   8  -6  10   -0.34    0.41
   6   8  10    1.40    0.50
  -8   6  10    0.60    0.35
  -6   8 -10    1.04    0.41
   8   6 -10    0.39    0.41
  -8  -6 -10    0.98    0.33
  -6  -8  10    0.31    0.44
  -6   8 -10    1.08    0.34
   6  -8 -10    0.51    0.45
  -8  -6 -10    1.43    0.54
   6   8  10    0.68    0.37
  -8   6  10    0.24    0.37
  -8  -8 -10   -0.49    0.33
   8   8 -10   -1.10    0.46
   8   8  10   -0.34    0.39
   8  -8 -10    0.25    0.49
  -8   8  10    0.15    0.39
  -8   8  10    0.02    0.39
  -8   8 -10    0.43    0.43
   8   8  10   -0.58    0.48
   8  -8  10    0.05    0.39
  -8  -8  10   -0.31    0.46
   1   9 -10   13.52    0.70
  -9   1 -10   14.26    0.85
  -9  -1  10   15.30    0.70
  -1  -9 -10   13.67    0.78
   1  -9  10   15.11    0.76
   9  -1 -10   14.63    0.79
  -9  -1  10   14.71    0.86
  -1  -9 -10   13.86    0.69
  -1   9  10   14.36    0.79
   9  -1 -10   13.91    0.78
   1  -9  10   13.80    0.71
   1   9 -10   13.51    0.84
   9   1  10   13.43    0.69
  -1   9  10   13.29    0.78
   9  -1  10   13.95    0.76
   9   1 -10   12.84    0.80
   9   1 -10   13.93    0.72
  -9   1  10   15.07    0.69
   9  -1  10   14.21    0.71
   1  -9 -10   13.64    0.74
  -9  -1 -10   13.97    0.87
   1   9  10   15.17    0.84
  -9   1  10   12.54    0.75
  -1  -9  10   13.52    0.81
  -1   9 -10   13.95    0.77
  -1   9 -10   13.72    0.72
  -1  -9  10   13.53    0.63
   9  -3 -10    0.00    0.40
   3  -9  10    1.08    0.37
  -3   9  10    0.90    0.38
   3   9 -10    1.37    0.45
  -9   3 -10    0.57    0.42
   3   9 -10    0.31    0.34
  -9  -3  10    1.07    0.45
   9  -3 -10    0.79    0.34
   9   3  10    0.28    0.40
  -3  -9 -10    0.87    0.42
  -3   9  10    0.56    0.36
  -3   9 -10    0.48    0.34
   9   3 -10    0.96    0.45
  -9   3  10    0.89    0.38
  -3  -9  10    0.94    0.45
   9  -3  10    0.86    0.37
  -9   3  10    0.27    0.31
   3   9  10    0.77    0.44
  -3   9 -10    0.51    0.33
   3  -9 -10    0.83    0.39
  -9  -3 -10    0.41    0.46
   9  -3  10    0.85    0.40
   5   9 -10   17.14    0.81
  -5   9  10   17.70    0.89
   5   9 -10   17.79    0.97
   5  -9  10   17.26    0.88
  -5  -9 -10   18.02    0.93
   9  -5 -10   18.63    1.00
  -9   5 -10   18.29    0.95
  -5   9  10   17.09    0.86
  -9  -5  10   17.04    0.97
   9   5  10   15.03    0.89
  -9  -5 -10   17.35    1.07
   5  -9 -10   15.58    0.88
   5   9  10   18.64    1.04
   9  -5  10   18.68    0.91
   9   5 -10   18.13    1.01
  -5  -9  10   15.53    0.96
  -9   5  10   17.56    0.84
   9  -5  10   16.84    0.80
  -9   5  10   18.89    0.85
  -5   9 -10   18.44    0.89
   9   7  10    1.20    0.48
  -9   7 -10    1.22    0.41
  -7  -9 -10    1.60    0.47
   7  -9  10    1.23    0.45
  -9  -7  10    1.50    0.54
   7   9 -10    1.53    0.53
   9  -7 -10    1.85    0.56
  -7   9  10    1.15    0.45
  -9   7 -10    1.50    0.48
  -7   9  10    0.68    0.42
  -9  -7 -10    1.05    0.60
   9   7 -10    1.26    0.50
  -7   9 -10    1.57    0.48
  -9  -7 -10    0.47    0.38
   7   9  10    0.98    0.55
   9  -7  10    0.83    0.43
  -7  -9  10    0.93    0.52
   7   9  10    0.88    0.43
   7  -9 -10    0.42    0.52
  -9   7  10    1.34    0.46
  -9   7  10    0.90    0.42
  -9   9 -10   30.95    1.28
   9   9  10   28.46    1.22
  -9   9  10   29.62    1.20
  -9  -9 -10   30.91    1.20
  -9  -9  10   27.74    1.33
   9   9 -10   30.16    1.36
   9  -9  10   30.90    1.29
  -9   9  10   29.29    1.17
   9  -9 -10   28.23    1.33
   9   9  10   29.35    1.38
   0 -10 -10   -0.19    0.39
 -10   0 -10    1.05    0.47
  10   0 -10   -1.02    0.37
   0 -10  10   -0.29    0.29
   0  10  10   -0.32    0.41
   0 -10  10    0.79    0.40
   0  10 -10    0.34    0.42
   0  10 -10    0.13    0.35
  10   0  10    0.10    0.33
  10   0  10    0.04    0.38
  10   0 -10    0.26    0.36
   0 -10 -10   -0.45    0.33
 -10   0  10   -0.86    0.36
  -2 -10 -10   -0.25    0.40
 -10  -2  10    0.32    0.43
   2 -10  10   -0.04    0.35
  -2  10  10   -0.59    0.38
  10   2  10   -0.09    0.39
   2 -10  10   -0.06    0.36
   2  10 -10    0.17    0.44
  10  -2 -10    0.49    0.42
  10  -2 -10    0.39    0.38
   2  10 -10   -0.02    0.37
 -10   2 -10   -0.27    0.44
  -2  10  10    0.99    0.43
  -2 -10  10    0.36    0.42
  10  -2  10    0.30    0.38
  10  -2  10    0.11    0.37
  -2  10 -10   -0.10    0.36
 -10   2  10   -0.06    0.37
  10   2 -10   -0.10    0.39
   2  10  10   -0.58    0.43
 -10   2  10   -0.15    0.32
   2 -10 -10    0.32    0.40
  -2  10 -10   -0.17    0.34
 -10  -2 -10   -0.15    0.46
  -4  10  10    0.83    0.45
  -4 -10 -10    1.13    0.46
 -10   4 -10    1.15    0.48
  10  -4 -10    0.22    0.46
   4 -10  10    1.13    0.45
  10   4  10    1.35    0.44
   4  10 -10    0.77    0.49
   4  10 -10    2.88    0.46
  -4  10  10    0.72    0.43
 -10  -4  10    1.50    0.48
 -10   4  10    1.05    0.42
   4 -10 -10    0.77    0.46
 -10   4  10    1.75    0.42
  -4 -10  10    1.22    0.49
  10  -4  10    1.58    0.48
 -10  -4 -10    0.96    0.48
  10  -4  10    1.19    0.40
  10   4 -10    0.36    0.46
  -4  10 -10    0.44    0.40
   4  10  10    1.72    0.54
  -6 -10 -10   -0.40    0.41
   6  10 -10    0.24    0.41
   6  10 -10   -0.63    0.45
  10  -6 -10   -0.13    0.49
 -10   6 -10    0.47    0.48
  10   6  10    0.03    0.43
  -6  10  10    0.30    0.42
  -6  10  10    0.38    0.43
   6 -10  10    0.76    0.45
 -10  -6  10   -0.29    0.47
  10   6 -10    0.05    0.52
  -6 -10  10   -0.47    0.50
  -6  10 -10   -0.35    0.40
   6  10  10    0.48    0.52
 -10  -6 -10   -0.07    0.55
  10  -6  10    0.32    0.44
   6 -10 -10    0.01    0.43
 -10   6  10   -0.26    0.38
  10  -6  10   -0.48    0.33
 -10   6  10    0.68    0.43
   8  10 -10   -0.55    0.50
  -8  10  10    0.05    0.42
   8 -10  10    0.19    0.50
  10   8  10   -1.24    0.40
 -10   8 -10   -0.34    0.48
 -10  -8  10   -0.49    0.52
  -8  10  10    0.53    0.50
  -8 -10 -10    0.01    0.44
  10  -8 -10   -0.32    0.51
   8 -10 -10   -0.95    0.52
  10  -8  10   -0.47    0.49
 -10   8  10    0.21    0.41
   8  10  10   -0.59    0.43
  -8 -10  10    0.43    0.56
   8  10  10    0.56    0.59
 -10   8  10   -0.94    0.42
  -8  10 -10    0.15    0.45
  10   8 -10   -0.58    0.54
 -10  -8 -10   -0.53    0.55
 -10 -10  10   -0.04    0.57
  10  10 -10   -1.01    0.52
 -10  10 -10    0.19    0.56
  10  10  10    0.18    0.57
 -10  10  10   -0.03    0.50
  10 -10  10    0.03    0.54
  10 -10 -10    0.15    0.55
  10  10  10   -0.88    0.48
 -10 -10 -10   -0.81    0.60
 -10 -10 -10   -0.54    0.45
  11  -1 -10    5.49    0.73
   1  11 -10    5.79    0.62
 -11  -1  10    5.04    0.61
  -1 -11 -10    5.22    0.66
 -11   1 -10    5.19    0.66
  11   1  10    5.63    0.75
  -1  11  10    5.89    0.78
   1 -11  10    6.69    0.73
  11  -1 -10    7.37    0.74
   1 -11  10    5.90    0.63
   1  11 -10    5.60    0.67
   1 -11 -10    5.84    0.73
  -1 -11  10    5.74    0.75
 -11  -1 -10    5.95    0.85
  -1  11 -10    5.38    0.66
   1  11  10    6.24    0.81
   1 -11 -10    4.88    0.55
  11   1 -10    5.82    0.74
 -11   1  10    5.02    0.70
  11  -1  10    5.33    0.67
  11  -1  10    5.02    0.70
 -11  -3  10    9.10    0.85
  11  -3 -10   11.48    0.85
   3  11 -10   10.33    0.75
   3  11 -10   10.69    0.90
  -3  11  10    9.98    0.85
   3 -11  10   10.23    0.75
  -3 -11 -10    7.60    0.83
  -3  11  10    8.92    0.79
  11   3  10   10.62    0.87
 -11   3 -10    9.47    0.87
  -3 -11  10    9.76    0.87
  11  -3  10    8.88    0.77
   3 -11 -10    9.55    0.87
 -11   3  10   10.19    0.76
  11   3 -10   10.59    0.88
  -3  11 -10    9.78    0.78
 -11  -3 -10    8.90    0.88
  11  -3  10    8.43    0.76
   3  11  10    8.11    0.90
  11   5  10   10.30    0.89
  -5 -11 -10   10.39    0.86
   5 -11  10    7.67    0.79
 -11   5 -10   10.89    0.94
  -5  11  10    9.35    0.84
   5  11 -10    7.54    0.86
 -11  -5  10    9.56    0.90
   5  11 -10   10.23    0.82
  11  -5 -10    9.49    0.89
  -5  11  10    8.16    0.78
 -11   5  10    9.54    0.80
  11  -5  10    8.58    0.83
  -5  11 -10    9.76    0.82
  11   5 -10    7.21    0.88
 -11   5  10   10.46    0.81
 -11  -5 -10    9.80    1.02
  -5 -11  10    9.29    0.94
  11  -5  10   10.75    0.77
   5 -11 -10   10.66    0.90
   5  11  10    9.94    0.96
  -7  11  10    0.69    0.52
 -11  -7  10    0.89    0.53
  11  -7 -10    1.41    0.57
  -7 -11 -10    0.61    0.49
  11   7  10    1.63    0.56
 -11   7 -10    0.75    0.52
   7 -11  10    0.66    0.50
   7  11 -10    1.96    0.60
  -7  11  10    0.59    0.46
   7 -11 -10    1.51    0.59
 -11   7  10    1.18    0.44
  11  -7  10    0.61    0.53
  -7 -11  10    1.66    0.61
  -7  11 -10    0.14    0.51
  11   7 -10    0.77    0.52
 -11  -7 -10    1.90    0.69
   7  11  10    0.67    0.54
 -11   7  10    0.59    0.48
 -11   9 -10    4.92    0.74
  -9  11  10    5.59    0.68
   9  11 -10    3.05    0.72
   9 -11  10    4.55    0.72
  -9  11  10    2.78    0.62
 -11  -9  10    3.89    0.70
  -9 -11 -10    3.51    0.66
  11   9  10    3.53    0.67
  11  -9 -10    4.71    0.77
  11  -9  10    3.78    0.68
 -11  -9 -10    3.20    0.75
  -9  11 -10    4.06    0.71
  -9 -11  10    2.47    0.67
   9  11  10    3.48    0.76
  11   9 -10    3.28    0.74
 -11   9  10    3.93    0.65
   9 -11 -10    3.05    0.71
 -11  11  10    2.55    0.66
   0 -12 -10    0.89    0.49
  12   0  10    0.27    0.43
  12   0 -10    0.33    0.45
   0  12 -10    0.00    0.42
 -12   0 -10    1.19    0.56
   0  12  10    0.04    0.48
   0 -12  10    0.11    0.47
 -12   0  10    0.12    0.45
 -12   2 -10   -0.16    0.51
  12  -2 -10    0.18    0.46
  12  -2 -10    0.35    0.44
  12   2  10    0.09    0.48
  -2  12  10    0.27    0.48
   2  12 -10    0.39    0.45
 -12  -2  10   -0.83    0.43
   2 -12  10   -0.58    0.38
  -2 -12 -10    0.61    0.51
 -12  -2 -10   -0.56    0.52
  -2 -12  10    0.08    0.50
  -2  12 -10    0.12    0.40
  12  -2  10    0.27    0.43
  12   2 -10    0.06    0.48
 -12   2  10    0.24    0.45
   2 -12 -10    0.17    0.44
   2 -12 -10    0.97    0.50
   2  12  10    0.10    0.52
  12  -2  10    0.35    0.43
  12  -4 -10   -0.34    0.48
   4  12 -10    0.77    0.49
 -12   4 -10   -0.07    0.51
   4  12 -10   -0.62    0.46
  -4 -12 -10   -0.46    0.46
   4 -12  10    0.16    0.43
  12   4  10    0.39    0.51
 -12  -4  10    0.72    0.51
  -4  12  10   -0.05    0.44
  -4  12  10   -0.64    0.42
 -12  -4 -10   -0.45    0.57
  -4  12 -10    0.36    0.45
  12   4 -10    0.02    0.51
  -4 -12  10   -0.24    0.52
   4 -12 -10   -0.27    0.48
   4  12  10   -1.02    0.48
  12  -4  10    0.01    0.40
  12  -4  10   -0.06    0.44
 -12   4  10   -0.09    0.40
 -12  -6  10   -0.25    0.52
  -6  12  10   -0.10    0.49
  -6  12  10    0.62    0.49
  12   6  10   -0.22    0.51
   6 -12  10    0.16    0.47
  -6 -12 -10    1.09    0.55
  12  -6 -10    0.05    0.53
 -12   6 -10    0.06    0.53
   6  12 -10    0.55    0.52
  -6 -12  10   -0.62    0.53
   6 -12 -10   -1.06    0.52
  12  -6  10    0.11    0.41
  -6  12 -10    0.15    0.49
  12   6 -10    1.02    0.61
  12  -6  10    0.04    0.51
   6  12  10    0.64    0.59
 -12  -6 -10    0.75    0.65
   8  12 -10   -0.16    0.56
  -8  12  10    0.13    0.51
   8 -12  10   -0.24    0.53
  -8 -12 -10    0.32    0.56
  12  -8 -10   -0.30    0.59
  12   8  10   -0.43    0.48
 -12   8 -10    0.92    0.61
  -8  12  10   -0.38    0.48
 -12  -8  10    0.29    0.57
  -8 -12  10    0.56    0.61
   8 -12 -10    0.14    0.61
   8  12  10   -0.23    0.54
 -12  -8 -10    0.40    0.71
  12  -8  10   -0.56    0.52
  -8  12 -10    0.74    0.54
  12   8 -10    0.25    0.60
  10  12 -10   -0.34    0.59
  12  10  10    0.80    0.61
 -10  12  10    0.68    0.61
 -10 -12 -10    0.72    0.64
 -12  10  10   -1.26    0.50
  13  -1 -10    4.39    0.66
   1 -13  10    4.98    0.65
   1  13 -10    4.47    0.63
  13   1  10    3.34    0.63
  -1  13  10    5.89    0.75
 -13   1 -10    3.43    0.64
  -1 -13 -10    4.19    0.67
 -13  -1  10    5.86    0.82
  13  -1  10    5.45    0.70
  13   1 -10    5.04    0.73
   1  13  10    5.52    0.74
  -1 -13  10    3.95    0.65
 -13   1  10    4.68    0.65
 -13  -1 -10    3.31    0.73
  -1  13 -10    4.72    0.63
   1 -13 -10    5.24    0.68
 -13  -3  10    2.05    0.57
  13   3  10    1.69    0.60
  -3  13  10    1.63    0.56
  13  -3 -10    1.29    0.52
   3 -13  10    1.13    0.47
   3  13 -10    0.96    0.51
  -3 -13 -10    0.65    0.54
 -13   3 -10    1.88    0.59
  13  -3  10    1.30    0.52
  13  -3  10    1.61    0.52
   3 -13 -10    0.35    0.49
 -13  -3 -10    1.16    0.67
   3 -13 -10    1.98    0.56
  -3 -13  10    2.30    0.60
  -3  13 -10    1.92    0.52
   3  13  10    0.70    0.59
  13   3 -10    2.24    0.57
  -5 -13 -10   19.27    1.17
  -5  13  10   21.80    1.17
  13  -5 -10   17.60    1.12
 -13   5 -10   18.76    1.21
   5 -13  10   18.85    1.06
 -13  -5  10   18.23    1.12
  13   5  10   19.00    1.16
  -5 -13  10   18.62    1.25
  13  -5  10   20.37    1.11
 -13  -5 -10   19.52    1.33
   5 -13 -10   19.59    1.12
  -5  13 -10   18.43    1.12
   5  13  10   18.68    1.27
   5 -13 -10   18.56    1.15
  13  -5  10   18.19    1.07
  13   5 -10   17.17    1.19
   7 -13  10    0.32    0.57
  -7  13  10    0.21    0.56
 -13   7 -10    0.09    0.56
 -13  -7  10    2.02    0.64
  13   7  10    0.11    0.58
   7  13 -10    0.18    0.58
  -7 -13 -10    0.51    0.56
  -7  13  10    0.09    0.52
  13  -7 -10    0.35    0.61
  13   7 -10    0.78    0.56
 -13  -7 -10   -0.06    0.69
  -7 -13  10   -0.06    0.61
   7 -13 -10    1.39    0.63
   7  13  10    1.48    0.64
  13  -7  10    1.02    0.58
  -7  13 -10    0.61    0.56
  -9  13  10   12.77    1.11
   9  13 -10   14.31    1.16
   0  14  10    1.15    0.58
   0  14 -10    1.45    0.55
   0 -14  10    0.69    0.56
  14   0  10    0.97    0.57
   0 -14 -10    2.16    0.62
  14   0 -10    2.09    0.62
 -14   0 -10    1.33    0.67
  -2  14  10    0.57    0.59
   2  14 -10   -0.21    0.54
  -2 -14 -10    1.26    0.57
  14   2  10    0.01    0.51
 -14  -2  10    0.83    0.55
 -14   2 -10    0.40    0.59
  -2  14 -10   -0.05    0.47
  14  -2  10    0.11    0.52
 -14  -2 -10   -0.13    0.63
  14   2 -10    0.17    0.54
  -2 -14  10    0.09    0.56
   2 -14 -10   -0.75    0.50
   2  14  10    0.37    0.58
  14   4  10    0.00    0.57
  -4  14  10   -0.62    0.55
   4 -14  10    0.40    0.49
 -14  -4  10   -0.39    0.55
  -4 -14 -10    0.31    0.57
 -14   4 -10   -0.06    0.59
  -4  14 -10    1.22    0.55
  -4 -14  10   -1.12    0.55
   4 -14 -10   -0.18    0.58
 -14  -4 -10    0.04    0.64
  14  -4  10   -0.47    0.48
  14   4 -10   -1.18    0.48
  14  -4  10   -1.01    0.51
   4 -14 -10    0.46    0.53
   4  14  10    1.04    0.61
 -14  -6  10   -0.07    0.56
  14  -6 -10   -0.89    0.55
   6 -14  10   -0.49    0.51
  -6 -14 -10    0.03    0.57
  -6  14  10    0.52    0.57
  14   6  10   -0.47    0.57
   6  14  10    0.19    0.69
   6 -14 -10   -0.20    0.56
  14  -6  10    0.14    0.55
  -6  14 -10   -0.18    0.55
   6 -14 -10   -1.03    0.52
  14   6 -10    0.77    0.71
  -6 -14  10   -0.80    0.59
   1  15 -10    9.74    1.02
  -1 -15 -10   10.19    1.06
  -1  15  10   10.52    1.12
  15   1  10    8.68    1.08
 -15   1 -10   10.46    1.19
  15  -1  10    8.63    1.01
  15   1 -10   11.40    1.12
   1 -15 -10    9.40    1.03
 -15  -1 -10    9.17    1.15
  -1 -15  10    9.84    1.01
  -1  15 -10    9.27    1.03
   1  15  10    9.55    1.13
  -3  15  10    1.19    0.67
  -3 -15  10    0.84    0.64
  -3  15 -10    1.25    0.57
  15   3 -10    1.54    0.65
   3 -15 -10    2.50    0.68
  15  -3  10    2.05    0.63
 -15  -5  10    6.02    0.81
   5 -15  10    4.58    0.72
   5 -15 -10    6.76    0.91
   5 -15 -10    5.82    0.80
  16   0 -10    0.77    0.64
   0  16 -10   -0.13    0.59
   2  16 -10   -0.07    0.61
   0   1  11    0.06    0.18
   0   1  11    0.04    0.28
   1   0  11    0.12    0.29
   1   0  11    0.08    0.19
  -1   0 -11    0.24    0.17
  -1   0  11    0.18    0.29
   0   1  11   -0.27    0.21
   0  -1  11   -0.13    0.27
   0  -1 -11    0.10    0.23
   1   0 -11   -0.13    0.25
   0  -1  11   -0.07    0.22
   0   1 -11   -0.13    0.11
  -1   0  11   -0.16    0.24
  -1   0 -11    0.37    0.26
   0   1 -11    0.19    0.27
  -2  -1  11    4.15    0.45
  -1   2  11    4.67    0.33
   1   2 -11    4.13    0.48
   2   1  11    4.31    0.47
   1  -2  11    4.50    0.37
  -2  -1  11    3.73    0.46
   2   1  11    4.93    0.34
  -1  -2 -11    3.76    0.36
  -1   2  11    4.75    0.42
   1  -2  11    3.99    0.42
   1   2 -11    4.73    0.19
   2   1  11    4.98    0.43
  -2   1 -11    4.35    0.32
  -2   1 -11    3.64    0.44
   2  -1 -11    4.14    0.41
  -1   2  11    4.20    0.52
  -2   1  11    4.13    0.44
   2  -1  11    4.28    0.30
  -2  -1 -11    4.54    0.39
  -1  -2  11    4.48    0.45
  -2   1  11    4.40    0.46
   1   2  11    4.24    0.42
  -2   1  11    4.15    0.24
   1   2  11    4.23    0.37
  -1   2 -11    4.27    0.29
   1  -2 -11    4.05    0.37
   1   2  11    4.57    0.46
  -1   2 -11    4.34    0.42
   2   1 -11    4.20    0.43
  -1  -2  11    4.27    0.43
   2  -1  11    3.80    0.41
   3   0  11    0.00    0.26
   0   3  11   -0.10    0.22
  -3   0  11    0.03    0.24
   3   0  11    0.16    0.15
   0   3  11   -0.48    0.28
   0   3  11    0.25    0.24
  -3   0 -11    0.30    0.22
   3   0  11    0.03    0.26
   0   3 -11   -0.09    0.28
  -3   0  11   -0.16    0.27
   0  -3 -11   -0.19    0.18
   0  -3  11   -0.61    0.25
   3   0 -11    0.09    0.29
   0   3 -11   -0.18    0.15
   0  -3  11    0.24    0.24
  -2   3  11    3.38    0.44
   3   2  11    3.59    0.34
   2   3 -11    3.01    0.40
  -3   2 -11    3.42    0.45
   3   2  11    3.74    0.46
   3   2  11    3.41    0.41
   3  -2 -11    3.01    0.41
  -3  -2  11    3.35    0.36
  -3  -2  11    3.61    0.19
   2  -3  11    3.79    0.41
   2  -3  11    3.64    0.32
   3  -2 -11    3.27    0.41
  -3   2 -11    2.96    0.30
  -2   3  11    3.37    0.33
  -3  -2  11    3.75    0.49
   2   3 -11    3.61    0.25
   2  -3 -11    3.46    0.35
  -3   2  11    3.75    0.29
  -3  -2 -11    3.37    0.45
   3  -2  11    3.48    0.46
   2   3  11    3.50    0.48
  -3   2  11    3.03    0.44
  -2  -3  11    3.23    0.41
  -2  -3  11    3.91    0.51
   2   3  11    4.49    0.48
  -2   3 -11    3.82    0.40
   2  -3 -11    3.37    0.47
   3  -2  11    3.54    0.25
   2   3  11    3.76    0.40
   2   3  11    4.03    0.37
   3   2 -11    3.55    0.52
  -2   3 -11    3.38    0.34
   4   1  11    1.38    0.20
  -4   1 -11    1.44    0.28
  -1  -4 -11    0.87    0.33
  -4  -1  11    0.87    0.32
   4  -1 -11    1.37    0.31
   4  -1 -11    1.35    0.37
   4   1  11    1.20    0.30
  -4  -1  11    1.85    0.20
   4   1  11    1.00    0.28
   1   4 -11    1.54    0.31
  -4  -1  11    1.30    0.31
   1   4 -11    1.63    0.20
   1  -4  11    1.30    0.29
  -1   4  11    1.18    0.30
   1  -4  11    1.07    0.25
  -1   4  11    0.94    0.25
  -1  -4  11    1.53    0.31
   4  -1  11    0.82    0.31
   1   4  11    1.94    0.33
  -1  -4  11    0.58    0.26
   1  -4 -11    1.26    0.20
  -1   4 -11    1.11    0.21
   4  -1  11    1.12    0.30
   4  -1  11    1.28    0.15
   1  -4 -11    1.54    0.36
  -4   1  11    0.95    0.32
   4   1 -11    1.80    0.37
  -4  -1 -11    1.48    0.30
   1   4  11    1.27    0.23
  -1   4 -11    1.05    0.31
  -4   1  11    1.26    0.17
   1   4  11    1.31    0.27
   4   3  11    0.41    0.23
  -4  -3  11    0.43    0.18
  -4   3 -11    0.13    0.27
   3   4 -11    0.52    0.35
   3   4 -11    0.47    0.19
   4  -3 -11    0.82    0.26
  -3   4  11    0.53    0.29
  -4   3 -11    0.87    0.26
   4  -3 -11   -0.12    0.34
   4   3  11    0.68    0.29
  -4  -3  11    0.81    0.34
   3  -4  11    0.83    0.31
   4   3  11    0.41    0.27
  -3   4  11    1.01    0.24
  -4  -3  11    0.18    0.25
   4   3  11    0.72    0.32
   3  -4  11    0.67    0.19
   3   4  11    1.01    0.30
   3  -4 -11    0.42    0.21
  -3   4 -11    0.80    0.24
   3   4  11    0.35    0.25
   4   3 -11    0.34    0.35
  -3  -4  11    0.54    0.30
  -4   3  11    0.35    0.20
   3  -4 -11    0.56    0.36
   3   4  11    0.25    0.32
  -4   3  11    0.41    0.26
   4  -3  11    0.49    0.12
   4  -3  11    0.32    0.27
   3   4  11    0.08    0.24
  -3   4 -11    0.41    0.28
  -3  -4  11    0.55    0.26
  -5   0  11    0.05    0.15
   0  -5 -11    0.13    0.30
   5   0 -11    0.03    0.30
   0   5 -11    0.13    0.20
   0  -5 -11    0.05    0.17
   0   5 -11    0.40    0.30
   5   0  11   -0.10    0.25
   0  -5  11   -0.24    0.25
  -5   0 -11    0.18    0.27
   0   5  11   -0.50    0.25
   0  -5  11   -0.12    0.26
  -5   0 -11    0.09    0.13
   0   5  11    0.13    0.25
   5   0 -11    0.21    0.31
   5   0  11    0.49    0.29
  -5   0  11    0.01    0.30
   5  -2 -11   12.65    0.69
   2  -5  11   12.46    0.62
   2  -5  11   13.09    0.53
  -2   5  11   11.21    0.62
   5   2  11   12.59    0.60
  -2   5  11   12.39    0.57
  -5  -2  11   12.06    0.68
  -5  -2  11   12.77    0.43
   5   2  11   12.97    0.62
   2   5 -11   13.64    0.70
  -5   2 -11   13.04    0.61
   2   5 -11   12.76    0.48
  -2  -5 -11   12.09    0.59
   5  -2 -11   12.77    0.59
  -2   5 -11   13.55    0.62
  -5  -2 -11   12.38    0.67
  -2  -5  11   13.32    0.57
  -2  -5  11   12.00    0.65
   5  -2  11   12.19    0.64
   5   2 -11   12.45    0.60
  -5   2  11   12.53    0.64
   5  -2  11   11.49    0.60
   2   5  11   13.13    0.62
   2   5  11   13.29    0.53
   5   2 -11   12.83    0.70
  -5   2  11   12.29    0.47
   2   5  11   12.29    0.66
   2  -5 -11   13.04    0.70
  -2   5 -11   12.63    0.52
  -5  -2 -11   12.84    0.48
   2  -5 -11   12.89    0.42
  -4   5  11    1.91    0.30
  -5   4 -11    1.68    0.33
  -4  -5 -11    2.81    0.39
   5  -4 -11    1.84    0.37
   5   4  11    2.13    0.33
  -5  -4  11    2.43    0.42
   5  -4 -11    2.05    0.28
   4  -5  11    1.87    0.37
   5   4  11    1.56    0.38
   4   5 -11    2.40    0.28
  -5   4 -11    2.49    0.36
   4   5 -11    1.86    0.40
  -4   5  11    1.75    0.32
  -5  -4  11    3.22    0.40
   5   4  11    2.26    0.33
   4  -5 -11    1.56    0.36
   5   4 -11    1.74    0.42
  -4  -5  11    2.62    0.43
   4   5  11    1.05    0.30
  -4   5 -11    1.67    0.32
  -5   4  11    2.04    0.29
   5   4 -11    1.83    0.26
   4   5  11    2.48    0.43
  -4  -5  11    2.84    0.38
   4   5  11    2.14    0.32
   5  -4  11    1.33    0.32
  -5  -4 -11    2.18    0.29
  -4   5 -11    2.15    0.31
  -5   4  11    2.32    0.37
   1   6 -11    0.47    0.32
  -1   6  11    0.33    0.29
   6  -1 -11    1.28    0.33
  -1  -6 -11    0.42    0.30
   1   6 -11    0.44    0.23
  -6  -1  11    0.44    0.34
   6  -1 -11    0.81    0.36
   6   1  11    0.59    0.28
   1  -6  11    0.35    0.29
   6   1  11    0.36    0.30
  -6   1 -11    0.98    0.31
  -1   6  11    0.40    0.28
  -6  -1  11    0.67    0.20
   1  -6  11    0.87    0.28
   1   6  11    0.81    0.33
  -1   6 -11    0.78    0.31
   6  -1  11    0.54    0.29
   6  -1  11    0.51    0.28
   6   1 -11    0.49    0.36
  -6   1  11    0.81    0.33
   1  -6 -11    1.30    0.17
   6   1 -11    1.18    0.32
  -1  -6  11    0.99    0.28
  -6  -1 -11    0.94    0.34
  -1  -6  11    0.81    0.33
   1   6  11    0.79    0.21
  -6  -1 -11    0.85    0.17
   1   6  11    0.61    0.30
   1  -6 -11    0.99    0.33
  -6   1  11    0.47    0.20
  -1   6 -11    0.80    0.25
   6   3  11   -0.10    0.29
   3  -6  11   -0.38    0.29
   6  -3 -11    0.03    0.26
   3   6 -11    0.45    0.38
   6   3  11    0.59    0.28
  -6   3 -11   -0.20    0.28
  -6  -3  11    0.28    0.22
  -6  -3  11   -0.01    0.35
   3   6 -11   -0.11    0.22
  -3  -6 -11   -0.23    0.24
   3  -6  11   -0.17    0.22
  -3   6  11   -0.26    0.24
  -3   6  11   -0.12    0.30
  -3  -6 -11   -0.21    0.26
   6  -3 -11   -0.18    0.36
   6  -3  11    0.09    0.30
  -3   6 -11    0.28    0.28
  -6  -3 -11    0.16    0.20
   6  -3  11    0.01    0.27
   3  -6 -11   -0.34    0.34
  -3   6 -11    0.43    0.27
   6   3 -11   -0.46    0.28
  -3  -6  11   -0.03    0.23
   6   3 -11    0.12    0.33
  -3  -6  11    0.20    0.36
  -6   3  11   -0.06    0.21
  -6   3  11    0.08    0.31
  -6  -3 -11    0.35    0.35
   3   6  11    0.23    0.23
   3   6  11    0.08    0.35
   5   6 -11   19.59    0.93
   6  -5 -11   18.49    0.87
   6   5  11   19.66    0.92
  -6  -5  11   18.56    0.88
   5  -6  11   17.21    0.78
  -5   6  11   18.11    0.80
   6   5  11   17.46    0.81
  -5  -6 -11   17.49    0.72
   5   6 -11   18.81    0.70
  -6   5 -11   18.59    0.79
  -5   6  11   19.12    0.75
  -6   5 -11   19.56    0.78
  -5  -6 -11   18.57    0.68
   6   5 -11   17.87    0.67
   5  -6 -11   19.41    0.88
   6  -5  11   19.48    0.85
   5   6  11   19.47    0.76
  -6  -5 -11   18.49    0.70
   5   6  11   17.57    0.92
   6   5 -11   16.24    0.84
  -6   5  11   18.90    0.72
  -6   5  11   19.46    0.81
  -5   6 -11   17.95    0.77
  -5  -6  11   18.74    0.89
  -5   6 -11   19.15    0.77
   0  -7  11    0.01    0.25
  -7   0  11    0.02    0.22
   0   7  11   -0.05    0.31
   7   0 -11   -0.22    0.31
   0  -7 -11   -0.52    0.29
  -7   0 -11   -0.41    0.32
   0   7  11    0.16    0.31
   7   0  11   -0.20    0.29
   0   7 -11    0.02    0.25
  -7   0  11   -0.08    0.30
   0   7 -11   -0.43    0.30
   7   0  11    0.03    0.30
   7   0 -11   -0.31    0.32
   0  -7  11    0.02    0.31
   7  -2 -11   13.10    0.66
  -7  -2  11   13.73    0.56
  -7  -2  11   13.40    0.76
   7   2  11   12.75    0.63
   7  -2 -11   13.60    0.74
  -2  -7 -11   14.15    0.64
  -2   7  11   12.70    0.68
   2  -7  11   12.75    0.62
   2  -7  11   13.99    0.69
   2   7 -11   14.52    0.78
   2   7 -11   14.40    0.61
  -2   7  11   14.35    0.69
  -7   2 -11   13.46    0.73
   2  -7 -11   14.27    0.75
   7  -2  11   13.76    0.69
   7   2 -11   15.16    0.67
   2   7  11   13.66    0.54
  -2   7 -11   13.56    0.70
  -2  -7  11   13.46    0.60
  -7   2  11   14.02    0.57
   2   7  11   13.11    0.69
  -2  -7  11   14.01    0.74
   2   7  11   14.03    0.77
  -7   2  11   12.58    0.70
   7  -2  11   12.86    0.68
   7   2 -11   13.79    0.78
  -7  -2 -11   12.98    0.77
  -2   7 -11   13.67    0.62
  -4  -7 -11   -0.13    0.24
   7  -4 -11    0.38    0.38
   7   4  11   -0.16    0.34
   4   7 -11   -0.02    0.27
  -4   7  11    0.15    0.34
  -4   7  11   -0.07    0.30
  -7   4 -11   -0.34    0.32
  -4  -7 -11    0.14    0.30
   4  -7  11   -0.04    0.35
   4   7 -11    0.25    0.42
  -7  -4  11   -0.07    0.35
   4   7  11    0.45    0.38
  -4  -7  11   -0.26    0.38
  -7  -4 -11    0.25    0.41
   7   4 -11    0.17    0.37
   7  -4  11    0.17    0.31
   7  -4  11    0.44    0.37
  -7   4  11   -0.39    0.25
   4   7  11   -0.04    0.27
  -7   4  11   -0.26    0.31
  -4   7 -11   -0.18    0.29
  -4   7 -11   -0.09    0.29
   4  -7 -11   -0.25    0.35
  -4  -7  11   -0.18    0.23
  -7  -4 -11   -0.22    0.23
  -7   6 -11   14.29    0.75
  -6   7  11   13.61    0.78
   7   6  11   13.59    0.74
   7   6  11   14.32    0.89
   6  -7  11   13.35    0.80
  -7  -6  11   12.97    0.80
  -7   6 -11   12.16    0.76
  -6  -7 -11   14.05    0.74
   6   7 -11   14.59    0.91
   7  -6 -11   12.79    0.86
  -6   7  11   12.86    0.73
  -6  -7  11   12.44    0.86
   6   7  11   13.88    0.91
  -6   7 -11   12.95    0.76
   7   6 -11   13.61    0.89
   7  -6  11   13.76    0.81
  -7   6  11   14.12    0.70
   6  -7 -11   14.00    0.87
  -6   7 -11   13.20    0.70
  -7   6  11   12.07    0.75
  -7  -6 -11   13.10    0.69
   6   7  11   13.59    0.71
   8   1  11    3.07    0.44
   8  -1 -11    2.90    0.44
   1  -8  11    3.79    0.54
   1   8 -11    2.92    0.46
   8   1  11    4.15    0.52
  -8   1 -11    4.45    0.63
  -1  -8 -11    3.78    0.49
   8  -1 -11    3.31    0.45
   1  -8  11    4.52    0.51
  -1   8  11    3.53    0.46
  -8  -1  11    5.20    0.64
   1   8 -11    3.81    0.50
  -1   8  11    2.68    0.40
  -8   1  11    4.09    0.59
   8   1 -11    3.05    0.40
  -8  -1 -11    3.01    0.48
  -1   8 -11    3.33    0.43
   1   8  11    4.47    0.58
  -1  -8  11    3.78    0.45
  -1   8 -11    3.92    0.51
   8  -1  11    4.00    0.52
   1   8  11    3.71    0.49
   8  -1  11    3.79    0.46
  -8   1  11    3.08    0.44
   1  -8 -11    3.52    0.45
  -1  -8  11    2.93    0.45
   8   1 -11    3.36    0.48
   3   8 -11    1.27    0.32
  -3   8  11    1.12    0.35
  -3  -8 -11    1.04    0.29
   3  -8  11    1.34    0.35
  -3  -8 -11    0.23    0.37
   8  -3 -11    1.31    0.44
   8   3  11    0.67    0.37
  -8  -3  11    0.48    0.42
  -3   8  11    1.52    0.38
   8  -3 -11    1.01    0.34
   3   8 -11    1.25    0.44
  -8   3 -11    1.60    0.42
   8   3 -11    1.27    0.41
  -3   8 -11    1.12    0.36
  -3  -8  11    1.25    0.29
   8  -3  11    1.19    0.36
  -8  -3 -11    1.10    0.41
   8  -3  11    1.16    0.37
  -8   3  11    1.47    0.32
  -3  -8  11    0.66    0.40
  -3   8 -11    1.15    0.34
   3   8  11    0.52    0.41
   3  -8 -11    1.35    0.43
  -8   3  11    1.36    0.37
   5   8 -11    4.04    0.56
  -8   5 -11    3.08    0.49
   5  -8  11    3.23    0.46
  -5  -8 -11    3.70    0.47
  -5   8  11    2.60    0.44
   8  -5 -11    3.31    0.49
   8   5  11    4.00    0.52
  -8  -5  11    4.10    0.55
   5   8 -11    4.28    0.57
  -5   8  11    3.62    0.49
  -5   8 -11    4.84    0.59
   5   8  11    3.79    0.59
   8   5 -11    3.38    0.53
  -8   5  11    3.24    0.46
   5  -8 -11    3.32    0.54
  -5  -8  11    4.18    0.58
  -8  -5 -11    4.49    0.62
  -5   8 -11    4.26    0.56
  -8  -5 -11    3.36    0.46
   8  -5  11    3.97    0.53
   8  -5  11    3.12    0.43
  -8   5  11    3.98    0.55
   5   8  11    4.51    0.55
   8   7  11    0.13    0.43
  -7   8  11    0.46    0.37
  -7   8  11    0.55    0.40
  -7  -8 -11    0.22    0.36
  -8   7 -11    0.19    0.41
  -8   7 -11    0.77    0.37
   7  -8  11    0.38    0.45
   8   7  11   -0.06    0.37
  -8  -7  11    0.45    0.50
   7   8 -11    0.38    0.51
   8  -7 -11   -0.43    0.46
   7  -8 -11    0.36    0.49
   7   8  11    0.20    0.51
   8   7 -11    0.32    0.49
  -7  -8  11    0.33    0.49
  -7   8 -11    0.34    0.41
  -8   7  11    0.35    0.38
  -7   8 -11    0.13    0.34
   8  -7  11   -0.06    0.38
   7   8  11    0.34    0.38
  -8   7  11    0.70    0.39
  -8  -7 -11    0.17    0.33
   9   0 -11   -0.01    0.35
   0   9 -11    0.06    0.30
   0   9  11   -0.12    0.32
   9   0 -11    0.08    0.39
   0  -9 -11   -0.09    0.33
   0  -9  11   -0.37    0.28
   0   9  11    0.45    0.39
   9   0  11    0.06    0.37
   0  -9  11    0.31    0.36
   9   0  11   -0.03    0.32
  -9   0 -11   -0.38    0.39
  -9   0  11   -0.10    0.38
   0   9 -11    0.45    0.38
   9   2  11   19.92    0.92
  -2   9  11   18.48    0.88
  -2  -9 -11   20.24    0.78
   2  -9  11   20.36    0.85
  -2   9  11   20.03    0.91
   9  -2 -11   20.33    0.91
  -9  -2  11   21.23    0.98
   2  -9  11   19.78    0.83
   2   9 -11   21.35    0.97
   2   9 -11   21.32    0.85
  -2  -9 -11   17.44    0.89
  -9   2 -11   20.96    0.97
   9  -2 -11   20.10    0.86
   2   9  11   20.16    0.98
  -2   9 -11   20.50    0.86
   9  -2  11   20.12    0.90
  -9   2  11   19.20    0.78
  -9   2  11   19.21    0.90
  -9  -2 -11   21.07    1.02
   9   2 -11   20.24    0.98
  -2  -9  11   19.36    0.75
   2  -9 -11   20.76    0.95
  -2  -9  11   18.29    0.94
   9  -2  11   20.50    0.87
  -2   9 -11   18.98    0.83
   4   9 -11    0.84    0.47
  -9  -4  11    1.21    0.47
   9   4  11    1.57    0.46
  -9   4 -11    1.68    0.46
   4  -9  11    0.82    0.39
   4   9 -11    0.70    0.37
  -4  -9 -11    0.73    0.40
  -4   9  11    0.87    0.41
  -4   9  11    1.17    0.42
   9  -4 -11    1.17    0.47
  -4  -9  11    0.88    0.47
  -9   4  11    1.11    0.37
   9  -4  11    2.31    0.48
   9   4 -11    1.24    0.50
   9  -4  11    0.81    0.38
  -9   4  11    1.53    0.42
   4  -9 -11    1.01    0.41
  -4   9 -11    1.01    0.38
  -9  -4 -11    1.42    0.53
   4   9  11    0.78    0.48
  -4   9 -11    1.14    0.40
   6   9 -11    9.23    0.89
  -6   9  11    9.06    0.75
   6  -9  11    8.87    0.79
  -9   6 -11    9.17    0.75
   9   6  11    7.80    0.77
  -9   6 -11    8.87    0.79
  -6  -9 -11    9.40    0.74
  -6   9  11    8.58    0.73
   9  -6 -11    8.66    0.80
  -9  -6  11    9.74    0.87
   6   9  11    9.15    0.68
   9   6 -11    9.55    0.88
  -9   6  11    8.48    0.73
   6   9  11    8.79    0.92
   6  -9 -11    7.62    0.86
   9  -6  11    8.46    0.66
  -6   9 -11    6.55    0.71
   9  -6  11   10.66    0.82
  -6  -9  11    9.24    0.90
  -9  -6 -11    8.59    0.93
  -9   6  11    9.54    0.73
   9  -8 -11    3.67    0.66
  -9  -8  11    5.07    0.70
  -8   9  11    3.08    0.54
  -8   9  11    3.79    0.55
  -8  -9 -11    4.34    0.56
   8   9 -11    4.80    0.70
  -9   8 -11    6.00    0.68
   9   8  11    4.75    0.60
   8  -9  11    5.92    0.67
   9   8  11    3.64    0.67
  -9   8  11    4.19    0.57
  -9  -8 -11    4.26    0.55
  -8   9 -11    4.66    0.60
  -9  -8 -11    4.43    0.76
   9  -8  11    5.04    0.65
   8   9  11    4.87    0.75
  -9   8  11    5.46    0.75
  -8  -9  11    3.64    0.64
   8  -9 -11    4.88    0.71
   8   9  11    5.05    0.60
   9   8 -11    4.55    0.71
 -10  -1  11    8.25    0.75
  -1 -10 -11    8.45    0.77
  10  -1 -11    8.03    0.70
   1 -10  11    7.47    0.67
  -1  10  11    8.62    0.78
   1 -10  11    8.85    0.67
  10  -1 -11    9.29    0.77
  -1  10  11    7.56    0.73
   1  10 -11    9.05    0.82
 -10   1 -11    9.26    0.83
   1  10 -11    8.88    0.71
  -1 -10 -11    8.84    0.67
  -1 -10  11    7.60    0.74
 -10  -1 -11    6.88    0.82
  -1  10 -11    9.50    0.68
   1  10  11    9.49    0.82
  -1  10 -11    8.76    0.74
  10   1 -11    8.27    0.77
  -1 -10  11    8.95    0.61
  10  -1  11    8.32    0.66
 -10   1  11    7.78    0.74
  10  -1  11    8.55    0.74
   1 -10 -11    8.33    0.70
  -3  10  11    0.88    0.44
 -10  -3  11    1.41    0.49
   3  10 -11    1.12    0.39
  -3 -10 -11    1.45    0.47
  -3  10  11    0.88    0.43
   3 -10  11    1.22    0.42
 -10   3 -11    0.73    0.45
   3  10 -11    1.04    0.49
  10  -3 -11    1.30    0.49
  10   3  11    0.64    0.42
 -10  -3 -11    0.61    0.51
   3  10  11    0.63    0.49
  10  -3  11    1.21    0.43
  10  -3  11    1.59    0.42
 -10   3  11    1.28    0.43
  10   3 -11    1.85    0.51
  -3 -10  11    1.16    0.50
   3 -10 -11    1.35    0.47
  -3  10 -11    1.75    0.43
  -5  10  11    2.67    0.52
  -5  10  11    2.33    0.50
 -10   5 -11    2.42    0.56
 -10  -5  11    3.50    0.58
  10   5  11    2.39    0.54
  -5 -10 -11    4.17    0.57
  10  -5 -11    4.47    0.64
   5  10 -11    3.51    0.59
   5 -10  11    2.84    0.48
  -5 -10  11    3.07    0.59
 -10   5  11    3.03    0.47
 -10  -5 -11    2.49    0.63
   5  10  11    2.46    0.57
  10  -5  11    3.21    0.48
  -5  10 -11    2.81    0.51
 -10   5  11    2.74    0.48
  10  -5  11    4.06    0.58
  10   5 -11    4.03    0.65
   5 -10 -11    2.63    0.57
 -10  -7  11    0.33    0.55
  -7  10  11   -0.12    0.42
  -7 -10 -11    0.35    0.45
   7  10 -11    0.37    0.50
 -10   7 -11    1.05    0.43
  10  -7 -11    0.18    0.46
  10   7  11    0.88    0.51
  -7  10  11    0.01    0.43
 -10   7 -11    0.83    0.48
   7 -10  11    0.67    0.48
   7  10  11    0.84    0.53
 -10   7  11    0.88    0.47
   7 -10 -11   -0.26    0.55
 -10   7  11    0.80    0.44
  -7  10 -11    0.35    0.45
 -10  -7 -11    0.77    0.61
  -7 -10  11    0.16    0.54
  10  -7  11    0.38    0.48
  10   7 -11    0.47    0.58
  -9  10  11   15.69    1.01
  -9 -10 -11   19.93    1.08
   9 -10  11   17.61    1.09
 -10   9 -11   16.39    1.08
  10  -9 -11   14.74    1.05
 -10  -9  11   17.68    1.18
   9  10 -11   16.49    1.18
  10   9  11   14.96    1.01
  -9  10  11   15.99    0.97
   9 -10 -11   15.91    1.15
 -10  -9 -11   17.26    1.22
   9  10  11   16.87    1.20
 -10   9  11   14.80    1.00
  10   9 -11   16.58    1.16
  -9  10 -11   16.10    1.06
   9  10  11   16.50    0.96
  -9 -10  11   17.93    1.21
  10  -9  11   13.50    1.04
 -10   9  11   16.21    1.03
   0  11 -11   -0.11    0.45
   0  11  11    0.00    0.45
  11   0 -11   -0.14    0.41
 -11   0  11    0.20    0.43
   0 -11  11   -0.49    0.42
   0 -11  11   -0.11    0.33
   0 -11 -11    0.01    0.39
 -11   0 -11   -0.21    0.44
  11   0  11   -0.30    0.41
   0  11 -11    0.44    0.40
   0 -11 -11    0.35    0.45
  11  -2 -11   24.12    1.06
  -2  11  11   22.51    1.07
  11  -2 -11   23.10    1.00
   2  11 -11   24.31    1.02
   2  11 -11   23.30    1.09
  11   2  11   21.67    1.08
   2 -11  11   23.76    1.00
  -2 -11 -11   21.52    1.03
 -11  -2  11   24.75    1.13
 -11   2 -11   26.06    1.19
  -2  11  11   23.07    1.09
   2 -11 -11   23.28    1.04
  -2 -11  11   24.42    1.15
  -2  11 -11   23.31    1.02
 -11  -2 -11   23.41    1.19
  11  -2  11   23.31    1.02
  11   2 -11   23.50    1.12
 -11   2  11   24.46    1.04
   2  11  11   25.94    1.20
  11  -2  11   24.89    1.07
   4  11 -11   -0.54    0.40
   4  11 -11   -0.92    0.44
  11   4  11   -0.26    0.46
   4 -11  11   -0.01    0.42
  -4  11  11    0.51    0.44
  11  -4 -11    0.66    0.49
  -4 -11 -11    0.07    0.45
 -11   4 -11    0.12    0.47
  -4  11  11    0.24    0.45
 -11  -4  11   -0.19    0.47
  11   4 -11    0.09    0.52
   4  11  11   -0.10    0.52
  11  -4  11    0.31    0.46
 -11  -4 -11   -0.01    0.49
   4 -11 -11   -0.01    0.48
 -11   4  11   -0.33    0.39
  11  -4  11    0.00    0.39
  -4 -11  11    0.41    0.51
  -4  11 -11    0.04    0.42
  -6  11  11   11.43    0.90
  -6 -11 -11   11.03    0.91
  11   6  11   11.09    0.98
   6  11 -11   13.68    1.02
   6 -11  11   11.10    0.89
 -11   6 -11   12.37    0.97
  -6  11  11   10.29    0.84
 -11  -6  11   10.27    0.97
  11  -6 -11   11.60    0.98
  11   6 -11   11.55    1.01
  -6  11 -11   12.71    0.92
   6 -11 -11   11.25    0.98
   6  11  11   10.91    1.04
  11  -6  11   11.04    0.92
  -6 -11  11   12.61    1.04
  11  -6  11   10.03    0.79
 -11  -6 -11   10.48    1.07
 -11   6  11   11.59    0.83
  -8 -11 -11    0.28    0.50
 -11   8 -11    0.00    0.55
  -8  11  11    0.28    0.48
   8  11 -11   -0.32    0.54
   8 -11  11    0.33    0.53
 -11  -8  11   -0.12    0.54
  11  -8 -11    0.69    0.57
  -8  11  11    0.37    0.48
  11   8  11    0.45    0.54
  -8  11 -11   -0.73    0.46
   8  11  11   -0.09    0.62
  -8 -11  11   -0.23    0.55
  11   8 -11    0.26    0.58
   8 -11 -11    0.59    0.60
 -11   8  11    0.82    0.48
  11  -8  11   -0.26    0.50
 -11  -8 -11    0.43    0.66
 -11  10 -11   10.97    1.09
 -10 -11 -11   12.96    1.08
 -11 -10  11   11.51    1.13
  10  11 -11   10.69    1.12
  11  10  11   10.42    0.99
  11 -10 -11    9.00    1.12
 -10  11  11   10.96    1.07
  10 -11  11    9.68    1.03
 -11 -10 -11   13.18    1.24
 -10  11 -11   10.01    1.04
  11 -10  11   10.29    1.05
  10 -11 -11    9.50    1.12
  10  11  11   12.07    1.18
 -10 -11  11   11.30    1.17
  11  10 -11   10.78    1.14
 -11  10  11   11.15    1.14
 -12   1 -11    3.45    0.64
   1 -12  11    2.71    0.55
   1 -12  11    3.00    0.49
   1  12 -11    3.35    0.55
 -12  -1  11    2.86    0.58
  -1  12  11    3.35    0.63
  -1 -12 -11    2.91    0.58
  12   1  11    3.44    0.60
  12  -1 -11    2.35    0.52
   1 -12 -11    3.74    0.56
   1  12  11    3.37    0.64
  12  -1  11    3.39    0.56
  -1 -12  11    3.82    0.60
  12   1 -11    3.83    0.59
   1 -12 -11    2.57    0.56
 -12   1  11    2.07    0.54
 -12  -1 -11    3.52    0.65
  -1  12 -11    2.56    0.52
  -3  12  11    1.13    0.50
 -12  -3  11    0.52    0.50
   3  12 -11    0.57    0.46
  -3 -12 -11    1.38    0.55
  12   3  11    0.94    0.53
 -12   3 -11    0.88    0.54
   3 -12  11    1.42    0.47
   3  12 -11    1.34    0.55
  -3  12  11    1.16    0.51
  12  -3 -11    0.63    0.49
 -12   3  11    1.71    0.49
  -3 -12  11    1.88    0.56
   3 -12 -11    0.82    0.49
  12  -3  11    1.32    0.48
 -12  -3 -11    0.73    0.54
  -3  12 -11    1.69    0.49
  12   3 -11    1.06    0.49
  12  -3  11    1.44    0.49
   3  12  11    1.50    0.58
   3 -12 -11    0.82    0.51
  -5 -12 -11    6.93    0.85
  12  -5 -11    6.02    0.72
 -12   5 -11    5.51    0.73
 -12  -5  11    4.80    0.70
   5  12 -11    4.95    0.69
  -5  12  11    4.91    0.66
  -5  12  11    5.51    0.67
   5 -12  11    5.24    0.65
  12   5  11    5.20    0.71
 -12  -5 -11    4.73    0.76
  -5 -12  11    6.43    0.93
  12   5 -11    5.37    0.72
  -5  12 -11    5.24    0.66
  12  -5  11    7.00    0.85
   5  12  11    7.09    0.97
 -12   5  11    7.87    0.82
  12  -5  11    6.51    0.78
   5 -12 -11    5.46    0.74
  12  -7 -11   -0.37    0.57
  -7  12  11   -0.09    0.49
  -7  12  11    0.11    0.52
   7  12 -11   -0.05    0.57
 -12   7 -11    0.86    0.55
  -7 -12 -11   -0.21    0.51
 -12  -7  11   -0.65    0.54
   7 -12  11    0.46    0.53
  12   7  11    0.17    0.53
 -12  -7 -11   -0.55    0.62
  12   7 -11    0.36    0.57
   7  12  11    0.45    0.62
  -7 -12  11    0.83    0.59
   7 -12 -11    0.20    0.60
  -7  12 -11   -0.34    0.49
  12  -7  11    0.49    0.55
   9  12 -11    3.47    0.76
  -9  12  11    5.01    0.72
  -9  12  11    4.77    0.66
  -9 -12 -11    4.49    0.73
 -12  -9  11    4.14    0.75
 -12   9 -11    4.34    0.76
   9 -12  11    2.37    0.68
  12  -9 -11    2.73    0.74
  12   9  11    4.27    0.74
 -12  -9 -11    4.27    0.88
  -9  12 -11    3.72    0.71
   9 -12 -11    3.25    0.73
   9  12  11    3.32    0.79
  -9 -12  11    4.42    0.83
  12  -9  11    3.71    0.74
  12   9 -11    3.85    0.76
  13   0  11    0.35    0.51
 -13   0  11   -0.13    0.48
   0 -13 -11   -0.09    0.51
   0 -13  11    0.66    0.50
   0  13  11   -0.19    0.51
  13   0 -11    0.49    0.51
   0  13 -11    0.50    0.46
 -13   0 -11    0.07    0.55
 -13   2 -11    9.25    1.04
 -13  -2  11    8.79    0.91
   2  13 -11    8.47    0.86
  -2 -13 -11   10.89    0.98
   2 -13  11   10.30    0.83
  13   2  11   10.89    0.98
  -2  13  11   10.34    1.00
   2 -13 -11   10.12    0.91
   2 -13 -11   11.95    0.99
 -13   2  11    9.73    0.89
  -2  13 -11    9.83    0.91
  13  -2  11   12.10    0.94
   2  13  11    8.31    1.03
  13   2 -11   10.09    1.00
  -2 -13  11   10.58    0.97
 -13  -2 -11   10.57    1.09
  -4 -13 -11    0.31    0.52
 -13  -4  11    1.13    0.56
  -4  13  11    1.33    0.54
  13   4  11    0.87    0.55
 -13   4 -11    1.99    0.62
   4 -13  11    0.44    0.48
  13  -4 -11    1.01    0.55
   4 -13 -11    1.07    0.56
  -4 -13  11    0.81    0.60
  13   4 -11    0.41    0.58
  -4  13 -11    0.92    0.53
   4  13  11    1.23    0.64
  13  -4  11    0.75    0.49
 -13  -4 -11    0.28    0.65
  13  -4  11    2.02    0.54
   4 -13 -11    1.58    0.57
 -13  -6  11   13.38    1.13
  13   6  11   13.22    1.11
  -6  13  11   12.26    1.02
 -13   6 -11   15.17    1.15
  13  -6 -11   12.94    1.10
   6  13 -11   11.13    1.10
   6 -13  11   13.33    1.00
  -6 -13 -11   16.16    1.11
  -6  13  11   14.14    1.08
  13   6 -11   13.36    1.13
  -6  13 -11   12.53    1.02
  13  -6  11   13.18    1.05
 -13  -6 -11   13.90    1.27
  -6 -13  11   12.57    1.11
   6 -13 -11   11.52    1.12
   6  13  11   12.38    1.15
 -13  -8  11    1.63    0.68
  -8 -13 -11    0.85    0.62
  -8  13  11    1.85    0.62
  13   8  11    1.06    0.63
  -8  13  11    1.27    0.60
   8  13 -11    1.35    0.67
  13  -8 -11    2.11    0.72
  13  -8  11    0.48    0.60
  -8  13 -11    1.81    0.65
  -1 -14 -11   -0.13    0.57
 -14   1 -11    0.38    0.64
  -1  14  11   -0.22    0.58
  14   1  11    0.72    0.56
   1  14 -11    0.59    0.55
  14  -1 -11   -0.04    0.54
 -14  -1  11   -0.21    0.51
   1 -14 -11    0.17    0.57
  -1  14 -11    0.05    0.49
   1  14  11   -0.07    0.58
 -14  -1 -11    0.93    0.66
  14   1 -11   -0.14    0.51
  -1 -14  11    0.23    0.57
  14  -1  11    0.57    0.53
 -14   3 -11    2.21    0.65
  -3  14  11    2.28    0.65
  -3 -14 -11    3.14    0.68
  14   3  11    1.88    0.63
   3 -14  11    2.35    0.54
 -14  -3  11    3.07    0.65
   3 -14 -11    1.34    0.62
  14  -3  11    3.90    0.66
   3 -14 -11    2.34    0.59
  -3  14 -11    1.52    0.56
   3  14  11    1.74    0.65
  14   3 -11    2.21    0.64
 -14  -3 -11    2.58    0.74
  -3 -14  11    2.64    0.70
 -14   5 -11   14.21    1.19
  14   5  11   11.61    1.11
   5 -14  11   12.19    0.98
  -5  14  11   13.03    1.10
  -5 -14 -11   11.92    1.11
  14  -5 -11   12.07    1.11
 -14  -5  11   11.63    1.08
   5 -14 -11   12.67    1.14
  14   5 -11    9.80    1.10
  14  -5  11   11.59    1.01
  -5  14 -11   14.19    1.11
 -14  -5 -11   12.58    1.26
   5 -14 -11   11.56    1.04
  14  -5  11   10.35    0.94
  -5 -14  11   11.49    1.13
   5  14  11   11.76    1.17
  -7  14  11    1.86    0.67
   7 -14 -11    2.05    0.66
  15   0  11    0.60    0.60
   0 -15 -11    0.60    0.60
  15   0 -11   -0.79    0.57
   0  15  11    0.44    0.64
   0  15 -11   -0.70    0.51
 -15   0 -11   -0.72    0.66
  -2  15  11   18.53    1.29
  15   2 -11   16.45    1.21
   2  15  11   15.48    1.29
  -2 -15  11   18.70    1.22
  15  -2  11   18.61    1.18
   2 -15 -11   19.85    1.24
  -2  15 -11   15.72    1.11
 -15  -4  11   -0.06    0.55
   4 -15 -11    0.27    0.57
  -4  15 -11   -0.25    0.50
  15  -4  11   -0.13    0.54
   0   0 -12    0.03    0.12
   0   0 -12    0.27    0.25
   0   0  12   -0.12    0.22
   0   0  12   -0.04    0.26
   1   1 -12   -0.08    0.28
   1  -1  12    0.29    0.26
  -1  -1 -12   -0.30    0.23
   1  -1 -12    0.01    0.24
   1   1  12   -0.18    0.28
  -1   1  12   -0.12    0.30
  -1  -1  12   -0.01    0.29
  -1   1  12    0.28    0.15
  -1  -1 -12   -0.02    0.19
  -1  -1  12    0.16    0.25
   1  -1  12   -0.05    0.21
   1   1  12    0.09    0.20
  -1   1  12   -0.25    0.23
  -1   1 -12   -0.12    0.23
  -1   1 -12   -0.02    0.15
   0  -2 -12    1.41    0.26
   0  -2  12    1.50    0.28
  -2   0 -12    1.32    0.22
   2   0 -12    1.50    0.31
   0   2  12    1.88    0.29
   2   0  12    1.74    0.33
   2   0  12    1.06    0.22
   0   2  12    1.96    0.26
   0   2  12    1.58    0.34
  -2   0  12    2.43    0.34
   0  -2  12    1.67    0.32
   0   2 -12    1.00    0.32
  -2   0  12    1.79    0.34
  -2   0 -12    1.52    0.29
   0   2 -12    1.54    0.22
   2  -2  12  116.22    2.25
   2   2  12  116.28    2.39
   2  -2  12  119.29    2.37
   2  -2 -12  114.75    2.42
   2   2  12  118.64    2.39
   2  -2 -12  116.93    2.34
  -2   2 -12  117.03    2.25
   2   2  12  115.66    2.33
  -2   2  12  116.88    2.20
  -2   2 -12  113.27    2.42
  -2   2  12  113.71    2.38
  -2  -2  12  115.53    2.36
   2   2  12  113.84    2.30
  -2  -2  12  121.16    2.42
   2   2 -12  117.50    2.45
   3  -1 -12    0.93    0.37
  -3   1 -12    0.45    0.28
  -3  -1  12    0.20    0.30
   3  -1 -12    0.21    0.27
  -3   1 -12   -0.09    0.20
   1   3 -12    0.31    0.13
  -3  -1  12    0.53    0.30
   1  -3  12    0.96    0.31
   3   1  12    0.56    0.27
  -1  -3 -12    0.43    0.21
   3   1  12   -0.19    0.28
   3   1  12    0.17    0.18
   1   3 -12    0.08    0.30
  -1   3  12    0.19    0.21
  -1   3  12    0.46    0.27
   1  -3  12    0.49    0.22
  -3  -1 -12    0.65    0.24
   3  -1  12    0.14    0.15
  -1   3 -12    0.27    0.28
   1   3  12    0.00    0.31
  -3   1  12    0.55    0.13
  -1  -3  12    0.59    0.28
   1  -3 -12    0.37    0.20
   3  -1  12    0.62    0.29
  -1   3 -12    0.40    0.17
   1  -3 -12    0.08    0.33
   3   1 -12    0.34    0.32
   1   3  12    0.29    0.26
   1   3  12    0.54    0.24
  -1  -3  12   -0.32    0.25
  -3   1  12    0.69    0.29
   3  -3  12   -0.07    0.15
  -3  -3  12    0.09    0.27
   3   3 -12    0.06    0.33
   3   3  12   -0.36    0.28
   3   3  12   -0.06    0.28
   3  -3 -12   -0.29    0.23
   3   3  12   -0.08    0.23
  -3  -3  12    0.26    0.30
  -3   3 -12    0.63    0.27
   3   3 -12    0.17    0.14
  -3   3  12    0.05    0.27
  -3   3  12    0.09    0.18
   3  -3 -12    0.35    0.34
  -3   3 -12    0.08    0.22
   3   3  12    0.00    0.22
   3  -3  12   -0.30    0.28
  -4   0 -12    0.11    0.23
   0  -4  12    0.20    0.27
   4   0 -12    0.32    0.31
  -4   0  12   -0.19    0.28
   0   4  12    0.05    0.25
  -4   0  12    0.11    0.11
   0  -4 -12   -0.13    0.18
   0  -4  12    0.23    0.25
   4   0 -12   -0.38    0.31
   0   4  12    0.20    0.26
   4   0  12    0.08    0.26
   4   0  12   -0.02    0.27
   0  -4 -12    0.26    0.32
   4   0  12   -0.36    0.15
   0   4 -12   -0.27    0.28
   0   4 -12    0.21    0.17
  -4   2 -12    1.86    0.34
  -4   2 -12    1.15    0.28
  -4  -2  12    1.20    0.19
   2  -4  12    1.10    0.32
  -4  -2  12    1.03    0.32
   4  -2 -12    0.87    0.34
   4   2  12    1.84    0.33
   4   2  12    1.06    0.23
   4   2  12    0.83    0.30
   4  -2 -12    0.75    0.29
  -2   4  12    1.14    0.25
  -2   4  12    0.88    0.30
   2   4 -12    1.65    0.37
   2   4 -12    1.32    0.19
  -4  -2  12    1.17    0.31
   2  -4  12    1.07    0.23
  -2  -4  12    1.18    0.32
   4  -2  12    1.01    0.14
  -2  -4  12    1.25    0.28
   2   4  12    1.41    0.33
   4  -2  12    0.69    0.32
  -4  -2 -12    1.31    0.31
  -2   4 -12    1.28    0.24
   4   2 -12    0.37    0.35
   2  -4 -12    0.82    0.36
   2   4  12    1.79    0.35
  -4   2  12    1.63    0.34
   2  -4 -12    1.18    0.22
   2   4  12    1.01    0.25
  -4   2  12    0.80    0.19
   2   4  12    1.10    0.28
  -2   4 -12    1.00    0.31
  -4  -4 -12   -0.28    0.20
  -4  -4  12   -0.29    0.24
  -4   4 -12    0.28    0.29
   4   4 -12    0.12    0.36
  -4   4 -12    0.38    0.26
  -4  -4  12    0.50    0.35
   4   4  12    0.38    0.34
   4   4  12    0.45    0.30
   4  -4 -12   -0.24    0.24
   4  -4  12   -0.58    0.29
   4   4 -12   -0.15    0.18
   4  -4 -12    0.15    0.37
  -4   4  12    0.10    0.29
   4   4  12    0.04    0.26
   4   4  12    0.24    0.25
  -4   4  12    0.26    0.22
  -1   5  12    0.34    0.27
   5   1  12    0.12    0.27
   1   5 -12    0.54    0.20
  -5  -1  12    0.20    0.32
  -1  -5 -12    0.11    0.30
   5  -1 -12    0.37    0.34
  -5   1 -12    0.38    0.26
   1  -5  12    0.32    0.26
   5   1  12    0.47    0.29
   5  -1 -12   -0.06    0.31
  -5  -1  12    0.73    0.16
   1   5 -12    0.36    0.33
  -1   5  12    0.62    0.27
   1  -5  12    0.38    0.28
   1   5  12    0.43    0.22
   5   1 -12    0.12    0.33
   1   5  12    0.23    0.25
  -1   5 -12    0.59    0.28
   5  -1  12    0.24    0.29
  -5  -1 -12    0.93    0.18
  -1  -5  12    0.10    0.26
  -1   5 -12    0.05    0.21
   5  -1  12    0.36    0.28
   1   5  12    0.54    0.30
   1  -5 -12    0.41    0.18
   5   1 -12   -0.08    0.34
  -5   1  12    0.55    0.32
  -5   1  12    0.36    0.17
  -5  -1 -12    0.28    0.28
  -1  -5  12    0.69    0.30
   1  -5 -12    0.55    0.34
   3  -5  12    1.14    0.23
   5   3  12    1.21    0.32
  -5  -3  12    1.51    0.31
  -3   5  12    0.72    0.26
  -5  -3  12    0.91    0.37
   5  -3 -12    0.91    0.29
   5  -3 -12    0.82    0.39
   3   5 -12    0.83    0.39
  -5   3 -12    0.97    0.32
   3   5 -12    0.83    0.22
  -3   5  12    1.67    0.34
   5   3  12    1.03    0.32
   3  -5  12    1.61    0.35
  -5   3 -12    0.95    0.30
   3   5  12    0.71    0.27
  -3   5 -12    0.66    0.31
   3   5  12    1.62    0.32
  -5   3  12    0.85    0.32
  -3  -5  12    0.79    0.36
   3   5  12    1.73    0.32
   5   3 -12    0.93    0.41
  -5  -3 -12    1.07    0.23
  -5   3  12    1.20    0.23
   5  -3  12    0.43    0.29
   3  -5 -12    1.11    0.22
  -3  -5  12    1.11    0.28
  -3   5 -12    1.73    0.28
  -5  -3 -12    1.53    0.35
   3   5  12    0.37    0.35
   3  -5 -12    1.05    0.39
   5   5 -12   -0.24    0.35
   5   5  12   -0.13    0.36
   5   5  12    0.27    0.30
  -5   5  12   -0.01    0.31
  -5  -5 -12    0.28    0.25
   5   5  12    0.30    0.28
   5  -5 -12    0.89    0.40
  -5   5 -12    0.02    0.30
  -5  -5  12   -0.09    0.25
  -5   5  12   -0.14    0.24
  -5   5 -12   -0.19    0.28
   5  -5  12   -0.06    0.32
  -5  -5  12    0.09    0.36
   0  -6 -12    9.01    0.62
   0   6  12    8.80    0.58
   0  -6 -12    9.39    0.40
   6   0  12    8.03    0.59
  -6   0 -12    8.40    0.59
   0  -6  12    8.15    0.54
   0   6 -12    7.08    0.58
   0   6  12    8.99    0.60
   0  -6  12    7.67    0.57
   6   0 -12    8.71    0.61
  -6   0  12    9.48    0.64
   6   0 -12    7.69    0.65
   6   0  12    7.77    0.58
  -6   0  12    8.08    0.40
   0   6 -12    8.41    0.48
   2  -6  12   70.67    1.63
  -6   2 -12   67.01    1.63
  -2   6  12   69.12    1.65
   6   2  12   67.17    1.66
   2  -6  12   70.25    1.54
   6  -2 -12   67.64    1.60
   2   6 -12   69.05    1.48
   2   6 -12   69.30    1.71
  -2  -6 -12   66.04    1.58
   6   2  12   67.29    1.57
  -2   6  12   68.21    1.59
   6  -2 -12   68.61    1.69
  -6  -2  12   67.39    1.71
  -2  -6  12   68.04    1.68
  -6  -2 -12   68.64    1.45
  -2   6 -12   67.68    1.64
   2   6  12   68.87    1.64
  -6   2  12   67.15    1.45
   6   2 -12   70.63    1.60
   6  -2  12   66.79    1.65
   2  -6 -12   65.77    1.66
   6   2 -12   68.97    1.73
  -2   6 -12   69.32    1.55
  -2  -6  12   68.16    1.53
   6  -2  12   67.80    1.63
   2   6  12   70.31    1.52
   2   6  12   68.46    1.70
  -6   2  12   68.15    1.67
  -6  -2 -12   68.38    1.69
  -6   4 -12    8.67    0.61
   4  -6  12    8.84    0.65
   6  -4 -12    9.03    0.51
  -4   6  12    8.27    0.57
  -6  -4  12    7.74    0.63
  -4   6  12    7.91    0.63
   6   4  12    8.75    0.57
   4   6 -12    8.59    0.50
  -6   4 -12    9.73    0.62
   6  -4 -12    8.02    0.71
  -4  -6 -12    9.12    0.54
   4   6 -12    7.76    0.64
  -4  -6 -12    8.14    0.55
   6   4  12    8.14    0.60
  -6   4  12    8.15    0.62
  -4   6 -12    8.17    0.58
  -4  -6  12    7.86    0.49
  -4  -6  12    8.18    0.68
  -6   4  12    8.38    0.50
   6   4 -12    7.44    0.73
   4   6  12    8.97    0.56
   4  -6 -12    9.33    0.73
   6  -4  12    7.81    0.64
   4   6  12    8.92    0.72
  -4   6 -12    8.23    0.56
  -6  -4 -12    8.07    0.47
  -6  -4 -12    8.33    0.69
   6   4 -12    8.89    0.58
  -6   6  12   90.34    2.14
   6  -6  12   91.40    2.13
   6   6  12   88.09    2.23
  -6  -6  12   91.97    2.24
  -6  -6 -12   93.13    2.07
  -6   6 -12   88.98    2.09
   6   6 -12   91.08    2.25
  -6   6 -12   90.63    2.10
   6  -6 -12   90.98    2.20
  -6   6  12   91.17    2.03
   6   6  12   92.77    2.12
   7  -1 -12    0.91    0.39
   1  -7  12    0.69    0.31
  -7   1 -12    0.60    0.34
  -7  -1  12   -0.34    0.34
   1   7 -12    0.10    0.25
   7   1  12    0.86    0.34
  -1   7  12    0.33    0.32
  -1  -7 -12    0.71    0.32
  -1   7  12    0.73    0.32
   7   1  12    0.96    0.31
   1   7 -12    0.43    0.37
   7  -1 -12    0.52    0.35
   1  -7  12    0.43    0.31
   1  -7 -12   -0.13    0.31
   7   1 -12    1.20    0.35
   1   7  12    0.95    0.35
   7  -1  12    0.27    0.30
  -1  -7  12    0.76    0.29
  -7   1  12    0.73    0.33
   7  -1  12    0.68    0.35
  -7  -1 -12   -0.01    0.35
  -1   7 -12    0.17    0.32
  -1  -7  12    0.32    0.34
   1   7  12    0.10    0.34
  -1   7 -12    0.43    0.27
   7   1 -12   -0.01    0.36
  -3   7  12    0.26    0.30
   7   3  12    0.17    0.31
   7  -3 -12   -0.32    0.28
   3  -7  12    0.15    0.30
   3   7 -12    0.13    0.25
   3   7 -12   -0.13    0.39
   7  -3 -12   -0.18    0.38
  -3  -7 -12   -0.47    0.28
  -7   3 -12    0.17    0.33
  -3   7  12    0.65    0.36
  -7  -3  12   -0.09    0.34
   7   3  12    0.13    0.29
  -3  -7 -12   -0.06    0.27
   3  -7 -12   -0.04    0.38
   7   3 -12    0.14    0.40
  -3  -7  12    0.16    0.38
   3   7  12    0.18    0.25
   3   7  12   -0.97    0.33
   7  -3  12    0.43    0.32
  -3   7 -12   -0.29    0.26
  -3   7 -12    0.68    0.32
  -7   3  12   -0.21    0.23
   7   3 -12    0.21    0.30
  -3  -7  12   -0.01    0.26
   7  -3  12    0.40    0.35
  -7   3  12   -0.09    0.33
  -7  -3 -12    0.30    0.23
  -7  -3 -12    0.38    0.39
  -5   7  12    1.68    0.42
  -5   7  12    1.68    0.37
  -5  -7 -12    1.70    0.36
  -7   5 -12    1.60    0.39
   5   7 -12    1.28    0.49
  -7   5 -12    0.98    0.36
   7  -5 -12    0.94    0.46
   7   5  12    1.14    0.39
  -7  -5  12    0.94    0.41
   5  -7  12    1.05    0.37
   5   7  12    1.43    0.35
  -7   5  12    1.37    0.40
  -7   5  12    1.60    0.34
   7  -5  12    1.36    0.39
  -7  -5 -12    1.70    0.49
  -5   7 -12    1.62    0.37
  -7  -5 -12    0.92    0.28
  -5  -7  12    1.22    0.42
   7   5 -12    1.03    0.49
  -5   7 -12    1.77    0.37
   5  -7 -12    0.62    0.42
   5   7  12    1.60    0.50
   7  -7 -12   -0.12    0.46
   7   7 -12    0.37    0.46
   7  -7  12    0.13    0.41
  -7  -7 -12   -0.07    0.32
  -7   7  12   -0.23    0.37
  -7  -7  12   -0.17    0.45
  -7   7 -12    0.04    0.36
   7   7  12    0.05    0.49
  -7   7 -12   -0.01    0.39
  -7   7  12   -0.44    0.32
   7   7  12   -0.22    0.38
   0  -8 -12    0.47    0.35
   0   8 -12    0.42    0.38
   8   0  12    0.37    0.32
  -8   0  12    0.04    0.36
   0   8  12    0.05    0.34
   8   0  12    0.36    0.31
   8   0 -12    0.22    0.34
   0   8 -12    0.28    0.29
   0  -8  12    0.30    0.31
   0  -8  12    0.32    0.34
   0   8  12    0.33    0.31
   8   0 -12    0.85    0.37
  -8   0 -12    0.17    0.37
   8  -2 -12    0.63    0.36
  -2   8  12    0.41    0.33
  -2  -8 -12    0.14    0.36
   8   2  12    0.67    0.34
  -8  -2  12    0.82    0.42
   8  -2 -12    1.48    0.44
  -8   2 -12    0.62    0.39
   2   8 -12   -0.02    0.41
   8   2  12    0.86    0.39
  -2   8  12    0.94    0.34
   2  -8  12    0.51    0.33
   2  -8  12    0.58    0.34
   2   8 -12    0.72    0.30
  -2  -8 -12    0.45    0.31
  -2   8 -12    0.39    0.30
  -2  -8  12    0.58    0.30
  -8   2  12    0.44    0.37
   8  -2  12    0.76    0.37
  -2  -8  12    0.50    0.40
  -2   8 -12    0.92    0.36
   2   8  12    0.95    0.42
   8   2 -12    0.04    0.43
   2  -8 -12    1.08    0.39
   8  -2  12    0.99    0.35
   8   2 -12    1.21    0.37
  -8  -2 -12    0.98    0.45
   4   8 -12    0.41    0.46
   8  -4 -12    0.20    0.44
  -8   4 -12    0.39    0.37
  -4   8  12    0.78    0.35
   4  -8  12    1.54    0.42
   8   4  12    0.12    0.37
  -4  -8 -12    0.76    0.35
  -4   8  12    0.81    0.36
  -8  -4  12   -0.33    0.39
   4   8 -12    0.58    0.32
   4  -8 -12    0.60    0.39
  -8  -4 -12    0.28    0.42
  -8   4  12    0.68    0.31
  -4   8 -12    0.78    0.35
  -8   4  12    0.31    0.35
   4   8  12    0.54    0.30
   8  -4  12    1.05    0.40
  -4   8 -12    0.76    0.35
   8   4 -12    0.08    0.47
   8  -4  12    0.13    0.33
   4   8  12    0.45    0.43
  -4  -8  12    0.68    0.46
  -8   6 -12    2.34    0.44
   8  -6 -12    3.42    0.58
  -6  -8 -12    2.73    0.46
   8   6  12    2.84    0.47
   6  -8  12    3.45    0.49
   6   8 -12    1.95    0.52
  -8   6 -12    2.74    0.50
  -6   8  12    2.88    0.48
  -8  -6  12    2.24    0.51
  -6   8  12    2.65    0.45
   6  -8 -12    3.08    0.54
   6   8  12    3.81    0.49
  -8  -6 -12    2.33    0.59
  -8   6  12    2.96    0.44
  -6   8 -12    2.59    0.43
   8   6 -12    1.99    0.55
  -8  -6 -12    2.61    0.38
  -8   6  12    3.23    0.51
   8  -6  12    2.88    0.48
   6   8  12    2.92    0.62
  -6  -8  12    2.59    0.57
  -6   8 -12    2.72    0.46
   8   8  12    0.09    0.42
   8   8 -12    0.45    0.53
   8  -8 -12   -0.20    0.53
   8   8  12    1.11    0.57
  -8   8  12    0.88    0.43
  -8  -8 -12    0.11    0.37
  -8   8  12   -0.27    0.40
  -8  -8  12    0.18    0.50
   8  -8  12    0.07    0.46
  -8   8 -12    0.88    0.41
  -8   8 -12   -0.29    0.43
  -1  -9 -12    0.77    0.41
   1   9 -12    0.36    0.33
   9  -1 -12    0.64    0.40
  -9   1 -12    0.27    0.38
   1  -9  12    0.24    0.34
  -1  -9 -12    0.52    0.35
  -1   9  12    0.93    0.39
   1  -9  12    0.89    0.38
   1   9 -12    0.85    0.44
  -9  -1  12   -0.20    0.39
   9  -1 -12    0.29    0.39
   9   1  12    0.30    0.37
  -1   9  12    0.62    0.40
   9   1  12    0.70    0.35
  -9   1  12   -0.10    0.38
   9   1 -12    0.97    0.46
   9  -1  12    0.89    0.39
  -9  -1 -12    0.46    0.39
   9   1 -12    0.51    0.38
  -1  -9  12    0.60    0.41
   1   9  12    0.41    0.38
  -1   9 -12    0.66    0.35
   1  -9 -12    0.46    0.37
  -1  -9  12    0.11    0.31
   1   9  12    0.10    0.40
  -1   9 -12    1.03    0.42
   9  -1  12    0.72    0.38
   3   9 -12    1.42    0.48
   3  -9  12    1.10    0.39
   9   3  12    1.71    0.46
   9  -3 -12    2.43    0.50
  -3   9  12    1.27    0.42
  -3   9  12    1.27    0.42
  -9  -3  12    1.79    0.49
   3   9 -12    1.27    0.37
  -3  -9 -12    1.41    0.43
   9  -3 -12    1.15    0.38
  -9   3 -12    1.64    0.47
   9   3 -12    1.59    0.49
  -3   9 -12    1.37    0.39
   9  -3  12    1.98    0.43
  -9   3  12    1.44    0.42
   3  -9 -12    1.99    0.48
  -3  -9  12    1.56    0.48
   9  -3  12    1.45    0.43
   3   9  12    2.11    0.49
  -3   9 -12    1.37    0.38
  -9  -3 -12    0.82    0.51
  -5   9  12    0.35    0.40
   9  -5 -12   -0.30    0.44
   5  -9  12    0.17    0.43
  -9   5 -12    0.00    0.43
   5   9 -12    0.34    0.48
   9   5  12    0.30    0.41
  -9  -5  12    0.59    0.48
  -5  -9 -12    0.26    0.39
  -5   9  12    0.38    0.39
   9  -5  12    0.15    0.35
   9   5 -12   -0.21    0.48
   9  -5  12    0.41    0.44
   5  -9 -12    0.17    0.45
  -9   5  12    0.21    0.38
  -5   9 -12    0.33    0.36
   5   9  12   -0.41    0.46
  -5  -9  12    1.05    0.49
  -5   9 -12    0.59    0.38
  -9  -5 -12    0.67    0.51
  -7  -9 -12   -0.29    0.42
  -7   9  12    2.12    0.48
  -9   7 -12    0.56    0.47
  -9  -7  12    0.27    0.50
  -7   9  12    1.27    0.46
   9   7  12    1.10    0.48
  -9   7 -12    0.73    0.40
   9  -7 -12    0.48    0.53
   7  -9  12    1.05    0.50
   7   9 -12    0.84    0.51
   9   7 -12    0.34    0.49
  -7  -9  12    0.96    0.53
   9  -7  12    1.64    0.52
  -9   7  12    0.69    0.42
  -9  -7 -12    0.64    0.57
   7   9  12    0.93    0.45
   7   9  12    0.80    0.53
   7  -9 -12    1.14    0.55
  -9   7  12    1.05    0.45
  -7   9 -12    1.36    0.47
   9   9  12   -0.26    0.54
   9   9  12    0.22    0.48
   9   9 -12   -0.89    0.54
  -9   9  12    0.31    0.45
   9  -9 -12    0.20    0.55
  -9   9  12    0.19    0.44
  -9  -9  12    0.07    0.53
  -9  -9 -12    0.03    0.44
  -9   9 -12   -0.46    0.48
   9  -9  12    0.08    0.51
  10   0 -12   14.12    0.87
   0  10 -12   15.81    0.78
 -10   0 -12   16.03    0.98
   0 -10  12   13.88    0.73
   0 -10 -12   15.45    0.80
   0 -10  12   15.70    0.90
   0  10  12   16.62    0.92
   0  10  12   13.99    0.88
  10   0  12   13.30    0.80
 -10   0  12   15.28    0.90
  10   0  12   15.75    0.89
   0  10 -12   13.87    0.89
  10   0 -12   14.66    0.84
   0 -10 -12   15.24    0.88
  -2  10  12   59.06    1.67
  -2 -10 -12   59.40    1.69
  10  -2 -12   58.48    1.63
 -10   2 -12   58.53    1.74
   2  10 -12   61.94    1.71
  10  -2 -12   58.59    1.64
  -2  10  12   60.73    1.70
   2 -10  12   59.61    1.58
 -10  -2  12   58.33    1.73
   2  10 -12   61.12    1.60
  10   2  12   60.63    1.72
  -2  10 -12   59.02    1.59
  10   2 -12   58.01    1.73
  -2  10 -12   59.89    1.62
   2 -10 -12   58.67    1.64
 -10   2  12   62.16    1.68
   2  10  12   60.01    1.77
  10  -2  12   60.13    1.61
  -2 -10  12   59.41    1.71
  10  -2  12   59.86    1.69
 -10  -2 -12   59.48    1.78
  10  -4 -12    7.26    0.83
 -10   4 -12    8.19    0.82
  10   4  12    6.40    0.77
   4  10 -12    7.78    0.91
  -4  10  12    6.68    0.73
  -4 -10 -12    6.33    0.75
  -4  10  12    8.32    0.76
   4 -10  12    8.66    0.76
 -10  -4  12    8.52    0.83
   4 -10 -12    7.05    0.82
  10   4 -12    8.76    0.90
  10  -4  12    8.30    0.76
   4  10  12    8.45    0.89
  -4 -10  12    7.99    0.86
 -10   4  12    8.55    0.73
  -4  10 -12    8.14    0.71
  10  -4  12    8.03    0.70
 -10  -4 -12    6.50    0.81
  -6 -10 -12   14.41    0.91
   6 -10  12   15.11    0.94
  10   6  12   17.62    1.02
 -10   6 -12   15.25    0.99
  -6  10  12   15.68    0.94
  -6  10  12   15.73    0.94
  10  -6 -12   14.96    1.04
   6  10 -12   16.62    1.06
 -10  -6  12   16.78    1.05
   6  10  12   15.46    1.10
 -10  -6 -12   15.51    1.14
  -6  10 -12   14.68    0.92
 -10   6  12   15.11    0.92
  10  -6  12   15.46    0.86
  10  -6  12   16.39    0.99
   6 -10 -12   15.14    1.05
  -6 -10  12   14.90    1.06
  10   6 -12   16.84    1.10
   8  10 -12    5.05    0.75
  -8  10  12    6.21    0.81
  -8 -10 -12    6.77    0.78
 -10  -8  12    8.26    0.95
  -8  10  12    7.77    0.82
  10  -8 -12    7.75    0.96
   8 -10  12    5.52    0.72
  10   8  12    7.06    0.86
 -10   8 -12    7.45    0.89
  10  -8  12    6.98    0.88
  -8  10 -12    5.58    0.81
   8 -10 -12    8.17    0.99
   8  10  12    5.70    0.81
 -10   8  12    7.26    0.78
 -10  -8 -12    7.49    0.87
  -8 -10  12    5.59    0.76
  10   8 -12    6.57    0.96
  10  10  12   56.08    1.81
  10 -10 -12   59.43    1.98
 -10 -10 -12   57.44    2.07
 -10  10  12   56.78    1.80
 -10  10 -12   61.59    1.92
  10 -10  12   55.28    1.85
  10  10 -12   56.90    2.00
 -10 -10  12   57.51    1.99
  11  -1 -12    0.73    0.47
 -11  -1  12    0.24    0.45
   1 -11  12    0.74    0.39
  -1  11  12    0.15    0.48
   1  11 -12    0.97    0.41
   1 -11  12    0.65    0.45
  -1  11  12   -0.03    0.44
 -11   1 -12    0.49    0.50
  11  -1 -12    1.08    0.45
  -1 -11 -12    0.28    0.42
  11   1  12    0.08    0.44
   1  11 -12    0.06    0.48
   1  11  12    0.32    0.50
  -1 -11  12    0.55    0.48
 -11   1  12   -0.69    0.43
  11   1 -12    0.51    0.44
  11  -1  12    0.34    0.40
  11  -1  12    0.16    0.42
   1 -11 -12    0.01    0.41
 -11  -1 -12    1.16    0.54
  -1  11 -12    0.41    0.38
   1 -11 -12    0.42    0.45
  -3  11  12   -0.11    0.45
  -3 -11 -12    0.37    0.48
 -11  -3  12    0.14    0.49
  11  -3 -12    0.85    0.52
   3  11 -12   -0.15    0.52
  11   3  12    0.01    0.47
  -3  11  12   -0.18    0.44
 -11   3 -12    0.28    0.48
   3 -11  12    0.20    0.40
  11  -3  12   -0.20    0.43
  11  -3  12    0.45    0.40
   3 -11 -12    0.21    0.48
 -11   3  12   -0.25    0.41
 -11  -3 -12    0.22    0.57
  -3  11 -12    0.58    0.43
   3  11  12    0.23    0.48
  -3 -11  12   -0.74    0.47
  11   3 -12    0.02    0.51
   5  11 -12   -0.06    0.51
 -11  -5  12    0.50    0.52
  -5  11  12   -0.38    0.44
 -11   5 -12    0.94    0.53
  -5  11  12    0.67    0.47
   5 -11  12    0.89    0.47
  -5 -11 -12    1.91    0.52
  11   5  12    0.09    0.51
  11  -5 -12    0.76    0.55
  -5  11 -12   -0.19    0.41
   5 -11 -12    0.71    0.52
  11  -5  12    0.09    0.47
  11  -5  12    0.78    0.44
 -11   5  12    0.75    0.46
   5  11  12    0.70    0.51
  11   5 -12    0.64    0.52
 -11  -5 -12    0.46    0.53
  -5 -11  12   -0.63    0.50
 -11   7 -12   -0.04    0.51
  11  -7 -12    0.24    0.57
  11   7  12   -0.38    0.50
 -11  -7  12    0.24    0.55
   7 -11  12   -0.20    0.48
   7  11 -12    0.76    0.58
  -7  11  12   -0.13    0.49
  -7  11  12   -0.05    0.47
  -7 -11 -12   -0.06    0.49
  11   7 -12    0.65    0.60
 -11   7  12   -0.54    0.43
  11  -7  12    0.53    0.52
  -7 -11  12    0.15    0.57
   7 -11 -12    0.82    0.57
  -7  11 -12    0.29    0.52
 -11  -7 -12   -0.05    0.63
   7  11  12    0.74    0.62
  -9 -11 -12    0.76    0.53
  11  -9 -12    0.71    0.61
   9  11 -12   -0.62    0.60
  -9  11  12   -0.28    0.49
   9 -11  12    0.70    0.57
  -9  11  12    0.93    0.55
  11   9  12    1.05    0.60
 -11  -9  12    0.97    0.60
 -11   9 -12    0.80    0.59
 -11  -9 -12    1.56    0.70
  11  -9  12   -0.03    0.57
   9  11  12    0.30    0.65
  -9 -11  12    1.67    0.69
  11   9 -12    0.53    0.58
   9 -11 -12    1.48    0.68
  -9  11 -12    0.41    0.56
   0 -12  12    1.45    0.53
   0  12 -12    0.96    0.44
 -12   0  12    0.80    0.49
 -12   0 -12    0.17    0.53
  12   0  12    1.18    0.50
   0  12  12    0.66    0.50
  12   0 -12    0.78    0.52
   0 -12 -12    1.14    0.51
  -2 -12 -12    0.05    0.48
   2 -12  12    0.08    0.40
 -12   2 -12   -0.42    0.53
   2  12 -12   -0.88    0.50
 -12  -2  12    0.33    0.50
  12   2  12    0.06    0.46
   2  12 -12    0.62    0.45
  12  -2 -12    0.41    0.50
  -2  12  12   -0.15    0.49
  12   2 -12   -0.10    0.52
 -12  -2 -12    0.15    0.56
  -2  12 -12    0.75    0.44
 -12   2  12    0.04    0.45
   2 -12 -12    0.12    0.49
   2 -12 -12    0.58    0.48
   2  12  12   -0.17    0.51
  -2 -12  12   -0.27    0.48
  12  -2  12    0.22    0.44
  12  -2  12   -0.49    0.44
   4  12 -12    0.46    0.54
 -12   4 -12    0.96    0.56
  -4  12  12    0.42    0.49
 -12  -4  12    1.17    0.56
  12   4  12    0.97    0.51
   4 -12  12    0.48    0.47
  12  -4 -12    1.03    0.54
  -4  12  12   -0.21    0.46
  -4 -12 -12    0.60    0.51
  12   4 -12    0.56    0.53
 -12  -4 -12   -0.06    0.61
   4  12  12    0.59    0.59
 -12   4  12    0.56    0.45
  -4 -12  12    0.37    0.54
  -4  12 -12    0.93    0.49
  12  -4  12   -0.02    0.46
  12  -4  12   -0.14    0.41
   4 -12 -12    0.41    0.53
 -12   6 -12    1.58    0.59
  12   6  12    1.79    0.62
  -6  12  12    1.41    0.55
  12  -6 -12    1.38    0.62
   6 -12  12    2.10    0.55
  -6  12  12    0.82    0.52
 -12  -6  12    1.25    0.58
  -6 -12 -12    1.10    0.58
   6  12 -12    0.79    0.56
 -12   6  12    1.55    0.52
  12   6 -12    1.46    0.57
  12  -6  12    1.10    0.58
 -12  -6 -12    1.27    0.66
  -6 -12  12    0.63    0.59
  12  -6  12    1.43    0.48
   6  12  12    1.89    0.68
  -6  12 -12    1.21    0.53
   6 -12 -12    1.46    0.60
   8  12 -12    0.92    0.64
  -8  12  12    1.13    0.55
  12  -8 -12   -0.03    0.63
  12   8  12    1.42    0.62
  -8 -12 -12    1.19    0.56
   8 -12  12    0.47    0.55
 -12   8 -12    0.21    0.61
  -8  12  12    0.58    0.56
 -12  -8  12    0.89    0.62
  -8  12 -12    0.24    0.55
   8 -12 -12   -0.05    0.61
  12  -8  12    0.99    0.60
 -12  -8 -12    0.08    0.67
  12   8 -12    0.40    0.63
  -8 -12  12    1.24    0.68
   8  12  12    0.27    0.62
  12  10  12    1.59    0.65
 -10 -12 -12    0.94    0.69
  -1 -13 -12    1.19    0.56
  13   1  12   -0.11    0.50
  13  -1 -12    0.27    0.45
  -1  13  12    0.62    0.55
 -13   1 -12    1.85    0.66
 -13  -1  12    0.65    0.52
   1  13 -12    0.70    0.50
  13   1 -12   -0.25    0.52
   1  13  12    1.00    0.59
  -1  13 -12    0.38    0.46
   1 -13 -12    0.50    0.54
 -13  -1 -12   -0.67    0.60
 -13   1  12    0.14    0.50
  -1 -13  12   -0.34    0.50
  13  -1  12    0.37    0.51
   3 -13  12    0.66    0.46
  -3  13  12   -0.28    0.49
  -3 -13 -12    0.98    0.57
 -13   3 -12    1.39    0.60
  13  -3 -12    1.22    0.54
  13   3  12    0.23    0.54
 -13  -3  12    1.01    0.56
 -13   3  12    0.13    0.48
 -13  -3 -12   -0.37    0.62
  -3  13 -12    1.27    0.51
   3  13  12    1.02    0.62
  13  -3  12    0.95    0.52
  13   3 -12    0.68    0.59
   3 -13 -12    1.22    0.56
  13  -3  12    0.73    0.51
  -3 -13  12   -0.17    0.57
   3 -13 -12    0.15    0.51
  13  -5 -12   -0.67    0.50
 -13  -5  12   -0.19    0.56
   5 -13  12   -0.11    0.52
  13   5  12   -0.34    0.53
  -5  13  12   -0.06    0.53
 -13   5 -12   -0.18    0.57
  -5 -13 -12    0.43    0.55
   5  13 -12   -0.09    0.58
  -5  13  12   -0.81    0.47
   5  13  12   -0.16    0.58
 -13  -5 -12   -0.58    0.64
  13  -5  12    1.10    0.48
  13   5 -12    0.58    0.62
  -5  13 -12   -0.27    0.52
  13  -5  12    0.43    0.53
  -5 -13  12    0.37    0.59
   5 -13 -12    0.76    0.59
  13   7  12    0.34    0.62
   7  13 -12    0.82    0.61
   7 -13  12    1.89    0.62
  13  -7 -12    1.02    0.64
  -7  13  12    0.99    0.56
  -7  13  12   -0.17    0.52
 -13   7 -12    2.27    0.68
 -13  -7  12    0.74    0.62
  -7 -13 -12    0.91    0.58
  -7 -13  12    0.02    0.64
  13  -7  12    1.57    0.63
   7 -13 -12    1.19    0.62
   7  13  12    1.45    0.67
  13   7 -12   -0.22    0.56
  -7  13 -12    0.97    0.59
 -13  -7 -12    1.18    0.73
   0 -14 -12    6.56    0.95
   0  14  12    8.25    1.03
  14   0 -12    6.52    0.91
   0  14 -12    5.49    0.70
 -14   0  12    6.78    0.81
  14   0  12    6.70    0.90
 -14   0 -12    5.21    0.79
  -2 -14 -12   17.78    1.19
 -14  -2  12   17.19    1.12
  -2  14  12   15.33    1.20
 -14   2 -12   15.48    1.23
  14   2  12   17.25    1.17
   2  14  12   16.50    1.24
 -14  -2 -12   15.34    1.29
  -2 -14  12   14.44    1.18
  -2  14 -12   16.31    1.05
  14  -2  12   16.03    1.12
  14   2 -12   17.13    1.18
   2 -14 -12   16.70    1.20
 -14  -4  12    9.68    1.10
  -4 -14 -12   10.43    1.04
 -14   4 -12   10.12    1.12
  -4  14  12    8.74    1.02
   4 -14  12   10.33    0.91
  -4 -14  12    9.63    1.09
   4  14  12   10.15    1.16
   4 -14 -12    9.01    1.04
 -14  -4 -12   11.80    1.23
  14  -4  12   10.40    0.96
  14   4 -12   12.29    1.10
  -4  14 -12   12.65    1.01
  14  -4  12    9.10    1.00
   4 -14 -12   11.14    1.05
  -6  14  12   39.43    1.62
 -14  -6  12   39.83    1.62
   6 -14  12   39.50    1.57
  14  -6 -12   38.61    1.62
  14  -6  12   38.96    1.61
   6 -14 -12   38.80    1.59
  -6  14 -12   41.15    1.61
   6 -14 -12   40.85    1.68
  -1  15  12    0.66    0.61
   1  15  12    0.67    0.69
  15  -1  12   -0.04    0.54
  15   1 -12   -0.23    0.58
  -1 -15  12    0.22    0.58
  -1  15 -12    0.26    0.54
 -15  -3  12   -0.58    0.56
  15  -3  12    0.51    0.55
  -3 -15  12   -0.12    0.65
  15   3 -12    1.09    0.65
  -3  15 -12   -0.95    0.51
  -1   0  13   -0.03    0.30
   1   0 -13   -0.18    0.26
  -1   0 -13    0.06    0.26
  -1   0 -13    0.16    0.16
   0   1 -13    0.13    0.26
   0  -1  13   -0.17    0.22
  -1   0  13   -0.36    0.24
   0   1  13    0.33    0.32
   0   1  13   -0.01    0.22
   1   0  13    0.00    0.26
   1   0  13    0.18    0.20
   0  -1  13   -0.22    0.27
   0   1 -13   -0.10    0.11
   0  -1 -13   -0.02    0.16
   0  -1 -13    0.19    0.24
   1  -2  13   25.60    0.85
  -1  -2 -13   25.66    0.77
  -1   2  13   25.98    0.80
   2   1  13   25.50    0.86
  -2   1 -13   24.99    0.83
   2   1  13   25.42    0.71
  -2  -1  13   26.28    0.85
  -2  -1  13   25.54    0.82
  -1   2  13   24.89    0.89
  -2   1 -13   25.82    0.67
   2  -1 -13   24.30    0.78
   1  -2  13   26.46    0.72
   1   2 -13   25.69    0.85
  -1   2  13   26.19    0.67
   2   1 -13   25.87    0.84
  -2   1  13   24.35    0.85
   1   2  13   25.17    0.74
   1   2  13   25.75    0.88
  -2  -1 -13   24.40    0.71
  -1   2 -13   25.27    0.63
   2  -1  13   24.33    0.81
  -1  -2  13   24.85    0.82
  -1  -2  13   25.26    0.80
  -2   1  13   25.83    0.81
   1  -2 -13   24.84    0.75
   1   2  13   25.80    0.73
  -1   2 -13   25.55    0.84
  -2  -1 -13   25.59    0.80
   2  -1  13   26.02    0.67
  -2   1  13   25.83    0.56
   0  -3  13   -0.08    0.24
   3   0  13    0.15    0.17
   0  -3 -13   -0.25    0.18
   0   3  13    0.16    0.29
   0   3  13   -0.03    0.24
  -3   0  13   -0.10    0.30
   3   0  13   -0.33    0.28
   0   3  13    0.00    0.24
   0  -3  13   -0.55    0.27
  -3   0  13    0.01    0.28
   3   0 -13    0.07    0.30
   0   3 -13    0.10    0.15
  -3   0 -13   -0.05    0.19
   0   3 -13    0.16    0.28
  -3   0 -13    0.02    0.27
  -3   2 -13   38.70    0.96
   3  -2 -13   40.19    1.03
  -3   2 -13   37.73    1.08
   3   2  13   38.84    1.09
   2  -3  13   39.12    0.93
  -2   3  13   38.81    1.07
   2  -3  13   37.40    1.05
   3  -2 -13   39.13    1.16
   2   3 -13   38.85    1.12
  -3  -2  13   39.85    1.07
  -3  -2  13   37.85    1.07
   2   3 -13   39.04    0.78
   3   2  13   38.47    0.95
  -2   3  13   38.69    0.92
   3   2  13   40.47    1.06
  -3   2  13   38.21    1.07
   2   3  13   39.32    1.00
   3  -2  13   39.48    0.87
  -3   2  13   38.82    0.85
   2   3  13   38.79    1.04
   2   3  13   40.70    1.04
  -3  -2 -13   39.95    1.03
   3  -2  13   38.15    1.08
   2  -3 -13   40.10    1.18
   2   3  13   38.31    1.11
   3   2 -13   40.00    1.14
  -2   3 -13   38.06    1.07
  -2   3 -13   39.30    0.92
  -2  -3  13   37.70    1.03
  -2  -3  13   37.52    1.08
   2  -3 -13   38.77    0.96
   1   4 -13    0.11    0.31
  -4   1 -13   -0.03    0.24
   1  -4  13    0.30    0.23
  -4  -1  13   -0.51    0.26
   1   4 -13   -0.02    0.15
  -1  -4 -13    0.00    0.20
   4  -1 -13   -0.13    0.34
  -1   4  13    0.27    0.25
  -4  -1  13    0.23    0.32
   4   1  13   -0.11    0.27
  -1   4  13   -0.27    0.22
   1  -4  13   -0.20    0.27
   4  -1 -13   -0.10    0.30
   4   1  13   -0.13    0.18
   4   1  13    0.10    0.30
  -1   4 -13   -0.26    0.29
   4   1 -13    0.05    0.30
   4  -1  13    0.11    0.14
  -4   1  13    0.10    0.13
  -1   4 -13    0.12    0.18
  -1  -4  13   -0.06    0.27
   1   4  13    0.12    0.25
   1   4  13    0.08    0.28
   1  -4 -13   -0.59    0.34
   4  -1  13    0.30    0.29
  -4   1  13   -0.46    0.25
   4  -1  13   -0.15    0.24
   1  -4 -13    0.11    0.19
  -1  -4  13   -0.31    0.25
   1   4  13    0.24    0.30
  -4  -1 -13    0.34    0.25
   4  -3 -13    0.01    0.27
  -4  -3  13   -0.06    0.27
  -4   3 -13   -0.13    0.22
   4  -3 -13    0.24    0.34
   4   3  13   -0.13    0.30
   3  -4  13    0.09    0.18
   3   4 -13   -0.12    0.18
   3  -4  13    0.18    0.31
  -4   3 -13   -0.02    0.28
  -3   4  13    0.14    0.28
   4   3  13    0.14    0.22
  -4  -3  13   -0.43    0.30
   3   4 -13   -0.12    0.31
  -3   4  13    0.02    0.21
   4   3  13   -0.04    0.25
  -4  -3 -13    0.19    0.28
  -4   3  13    0.14    0.29
  -3   4 -13    0.09    0.22
  -3  -4  13    0.10    0.32
  -4   3  13    0.04    0.18
  -3   4 -13   -0.23    0.29
   3   4  13    0.74    0.31
   3  -4 -13   -0.30    0.22
  -3  -4  13   -0.01    0.25
   3   4  13   -0.10    0.23
   3   4  13   -0.44    0.22
   4  -3  13   -0.09    0.29
   4   3 -13    0.12    0.37
   3  -4 -13   -0.30    0.33
   3   4  13    0.69    0.32
   0   5 -13    0.29    0.19
  -5   0 -13    0.32    0.25
  -5   0  13   -0.17    0.31
   0  -5 -13    0.03    0.32
   0   5  13    0.03    0.27
   0  -5 -13    0.14    0.19
   0  -5  13    0.10    0.26
   5   0  13    0.05    0.28
   5   0 -13    0.20    0.33
   0   5 -13   -0.17    0.30
   5   0 -13   -0.05    0.31
   0   5  13   -0.37    0.27
   0  -5  13    0.30    0.28
   5   0  13    0.06    0.29
  -5  -2  13    3.26    0.43
  -2   5  13    3.22    0.41
   2  -5  13    2.87    0.38
  -2   5  13    3.59    0.44
   2   5 -13    3.67    0.46
   2  -5  13    2.65    0.38
   5  -2 -13    2.52    0.44
  -2  -5 -13    3.20    0.41
   5  -2 -13    2.72    0.38
   5   2  13    3.10    0.40
   2   5 -13    3.03    0.33
   5   2  13    2.37    0.36
  -5   2 -13    3.49    0.45
   2  -5 -13    3.05    0.46
   2   5  13    2.59    0.39
   5  -2  13    3.63    0.52
  -2   5 -13    3.21    0.38
  -5   2  13    2.45    0.31
   5   2 -13    3.16    0.42
   2   5  13    3.84    0.41
   5  -2  13    3.27    0.41
   2  -5 -13    2.74    0.32
  -5  -2 -13    2.97    0.32
  -5   2  13    2.93    0.40
  -2   5 -13    2.94    0.39
   5   2 -13    2.98    0.45
  -2  -5  13    3.00    0.40
  -5  -2 -13    3.47    0.50
  -2  -5  13    3.59    0.46
   2   5  13    3.34    0.45
  -5  -4  13    0.72    0.35
  -5   4 -13    1.18    0.31
  -4   5  13   -0.01    0.24
   5   4  13    0.50    0.37
  -5  -4  13    0.11    0.27
   4   5 -13    0.32    0.37
   5  -4 -13    0.31    0.26
   5   4  13    0.54    0.32
   5  -4 -13    0.93    0.41
  -5   4 -13    0.45    0.29
   4  -5  13    0.70    0.32
  -4   5  13    0.45    0.30
   5   4  13    0.37    0.30
  -4  -5 -13    0.42    0.26
   4  -5 -13    0.26    0.39
   5  -4  13    0.28    0.33
  -5  -4 -13    0.77    0.24
   4   5  13    1.03    0.33
   4   5  13    0.38    0.27
  -4  -5  13    0.24    0.27
  -4   5 -13    0.30    0.27
  -4   5 -13    1.00    0.33
   5   4 -13   -0.30    0.31
  -5   4  13    0.72    0.33
  -5   4  13    0.53    0.24
  -4  -5  13   -0.17    0.33
  -5  -4 -13   -0.21    0.35
   4   5  13    1.01    0.40
  -1   6  13    3.99    0.50
  -6   1 -13    4.26    0.54
  -1   6  13    4.39    0.50
  -6  -1  13    4.19    0.59
   6  -1 -13    4.82    0.65
   1  -6  13    4.65    0.52
   6   1  13    4.40    0.48
  -1  -6 -13    5.17    0.39
   1  -6  13    4.21    0.48
   1   6 -13    5.55    0.61
   6  -1 -13    4.28    0.53
  -1  -6 -13    4.67    0.57
   1   6 -13    4.42    0.40
   6   1  13    4.89    0.56
   6   1 -13    4.17    0.54
   6   1 -13    4.47    0.61
   1   6  13    4.46    0.51
   1  -6 -13    5.12    0.61
   6  -1  13    5.14    0.54
  -1   6 -13    4.36    0.54
  -6   1  13    5.76    0.60
  -6  -1 -13    4.91    0.55
  -1  -6  13    4.57    0.50
  -1   6 -13    4.59    0.41
   1   6  13    5.66    0.41
   1   6  13    3.97    0.46
  -1  -6  13    4.19    0.56
   6  -1  13    4.86    0.54
   6   3  13   30.91    0.98
  -6  -3  13   32.74    1.12
   3   6 -13   33.10    1.14
   6  -3 -13   31.32    1.10
   6   3  13   31.43    1.03
  -6   3 -13   31.39    1.01
  -3   6  13   32.33    0.96
   3   6 -13   32.49    0.92
  -3  -6 -13   31.16    0.98
   6  -3 -13   32.58    0.96
   3  -6  13   32.05    1.01
  -3   6  13   31.69    1.02
   6   3 -13   33.00    0.99
  -3   6 -13   32.23    0.94
  -6  -3 -13   32.68    0.87
  -6  -3 -13   31.62    1.10
  -3   6 -13   32.46    1.02
   6  -3  13   31.40    1.04
   6   3 -13   30.72    1.14
   3   6  13   32.55    1.00
  -3  -6  13   30.69    0.92
   6  -3  13   30.36    1.00
   3  -6 -13   30.85    1.10
  -3  -6  13   32.75    1.09
  -6   3  13   31.64    0.86
   3   6  13   31.96    0.94
  -6   3  13   31.21    1.05
   3   6  13   30.54    1.08
  -6   5 -13    5.71    0.58
   6   5  13    5.34    0.55
   5  -6  13    5.60    0.62
   5   6 -13    6.87    0.74
   6   5  13    4.68    0.57
  -6   5 -13    5.17    0.58
  -5   6  13    5.00    0.54
  -5  -6 -13    5.93    0.51
  -5   6  13    5.47    0.52
  -6  -5  13    5.75    0.63
   6   5  13    5.82    0.68
   6  -5 -13    6.20    0.72
   6   5 -13    6.79    0.74
  -6   5  13    5.36    0.50
  -5  -6  13    5.56    0.69
   5   6  13    6.70    0.57
   6  -5  13    7.26    0.65
   5   6  13    5.59    0.57
  -5   6 -13    5.48    0.56
  -6   5  13    4.84    0.60
  -6  -5 -13    4.78    0.46
   5   6  13    6.11    0.72
  -5  -6  13    5.73    0.51
  -5   6 -13    5.48    0.61
   5  -6 -13    5.79    0.71
   0  -7  13   -0.39    0.31
   0  -7  13   -0.13    0.29
  -7   0  13    0.49    0.37
   0  -7 -13    0.28    0.35
   0   7  13    0.22    0.32
   0   7 -13   -0.22    0.32
   0   7 -13    0.36    0.27
   0   7  13   -0.26    0.31
   7   0 -13   -0.02    0.35
   7   0  13    0.49    0.33
   7   0 -13   -0.01    0.34
  -7   0 -13    0.03    0.33
   7   0  13   -0.67    0.29
  -7  -2  13   50.07    1.50
   7  -2 -13   53.06    1.48
  -7   2 -13   53.78    1.44
   7  -2 -13   52.89    1.40
   2   7 -13   52.63    1.49
  -2   7  13   53.76    1.43
  -2   7  13   52.79    1.38
   2  -7  13   52.93    1.41
   2   7 -13   52.61    1.27
   7   2  13   55.71    1.38
  -2  -7 -13   54.36    1.38
   2  -7  13   52.96    1.32
   2   7  13   51.89    1.27
   7   2 -13   53.90    1.52
  -2  -7  13   54.45    1.48
   7  -2  13   53.73    1.42
  -2   7 -13   53.54    1.33
   7  -2  13   51.78    1.44
  -2  -7  13   53.16    1.31
  -7  -2 -13   55.52    1.51
   2   7  13   52.44    1.50
  -2   7 -13   54.40    1.43
   2   7  13   54.88    1.44
   7   2 -13   54.76    1.38
  -7   2  13   52.35    1.45
   2  -7 -13   53.61    1.48
   7   4  13    0.04    0.33
   7   4  13   -0.12    0.33
   4  -7  13   -0.21    0.31
  -7  -4  13   -0.25    0.39
  -4  -7 -13    0.37    0.33
  -7   4 -13    0.37    0.35
  -7   4 -13    0.57    0.36
  -4   7  13    0.59    0.32
  -4   7  13    0.18    0.35
   7  -4 -13    0.44    0.38
  -4  -7 -13    0.34    0.29
   4   7 -13   -0.08    0.42
   7   4 -13   -0.29    0.41
   4   7  13    0.05    0.42
  -4  -7  13    0.11    0.41
   4   7  13    0.32    0.29
  -4   7 -13   -0.28    0.32
  -7   4  13    0.28    0.36
  -4  -7  13    0.63    0.28
   4  -7 -13    0.48    0.40
   7  -4  13    0.54    0.38
  -4   7 -13    0.01    0.28
  -7  -4 -13    0.35    0.24
  -7  -4 -13   -0.01    0.42
   7  -4  13    0.27    0.33
   7  -6 -13   21.53    1.05
   7   6  13   19.32    0.88
  -7  -6  13   19.92    1.01
  -6   7  13   19.44    0.82
  -7   6 -13   20.24    0.94
   6  -7  13   18.73    0.91
  -6  -7 -13   17.72    0.80
  -7   6 -13   19.53    0.87
   7   6  13   18.73    1.02
   6   7 -13   20.95    1.06
  -6   7  13   18.54    0.92
  -6   7 -13   20.04    0.88
   7   6 -13   19.35    1.04
  -7  -6 -13   18.47    1.07
   6   7  13   19.01    1.02
  -7   6  13   21.61    0.94
  -7   6  13   18.84    0.80
  -6  -7  13   18.86    0.95
   6  -7 -13   18.98    1.03
  -6   7 -13   19.04    0.87
  -7  -6 -13   19.32    0.79
   6   7  13   19.20    0.84
   7  -6  13   19.58    0.94
   1  -8  13    0.00    0.31
   8   1  13    0.55    0.34
  -1   8  13   -0.21    0.35
  -1  -8 -13    0.32    0.33
   8   1  13    0.27    0.37
   8  -1 -13    0.30    0.39
  -1   8  13    0.13    0.36
   1  -8  13    0.28    0.34
  -8   1 -13    0.14    0.38
  -8  -1  13    0.55    0.42
   1   8 -13    0.49    0.41
   1   8 -13    0.92    0.31
   8  -1 -13   -0.16    0.34
   8   1 -13    0.43    0.40
  -8  -1 -13    0.65    0.39
   8  -1  13    0.62    0.36
   8  -1  13    0.83    0.37
  -8   1  13   -0.20    0.38
  -1   8 -13    0.74    0.37
   1   8  13    0.02    0.37
  -1  -8  13    0.21    0.32
  -1  -8  13   -0.10    0.38
  -1   8 -13    0.80    0.32
   8   1 -13    0.64    0.38
   1   8  13    0.33    0.38
   1  -8 -13    0.41    0.38
   3   8 -13    0.40    0.45
  -8   3 -13    0.21    0.37
   3  -8  13    0.09    0.35
  -3   8  13   -0.23    0.33
  -8  -3  13    0.52    0.38
  -3   8  13    0.24    0.35
  -3  -8 -13   -0.41    0.34
   8   3  13    0.32    0.39
  -3  -8 -13    0.14    0.31
   8   3  13    0.17    0.32
   8  -3 -13   -0.10    0.42
   8  -3 -13    0.02    0.33
  -3  -8  13    0.12    0.29
   3   8  13    0.55    0.43
   8   3 -13    0.03    0.46
   8  -3  13   -0.18    0.35
  -3   8 -13    0.29    0.35
  -8  -3 -13   -0.57    0.40
  -8   3  13   -0.10    0.36
  -3   8 -13   -0.07    0.30
   8  -3  13    0.24    0.34
  -3  -8  13   -0.10    0.42
   3  -8 -13    0.24    0.43
   5   8 -13    0.20    0.50
  -8   5 -13    0.64    0.42
  -5   8  13    1.39    0.39
  -8   5 -13    0.52    0.38
  -5  -8 -13    0.73    0.39
   8  -5 -13    1.58    0.46
  -5   8  13    0.31    0.40
  -8  -5  13    1.85    0.50
   8   5  13    1.27    0.43
   5  -8  13    0.66    0.43
   8   5 -13    1.90    0.52
   5  -8 -13    0.76    0.47
  -5  -8  13    0.28    0.47
   8  -5  13    0.75    0.38
   5   8  13    1.17    0.37
  -5   8 -13    0.59    0.37
   5   8  13    0.71    0.48
  -5   8 -13    1.09    0.38
  -8  -5 -13    0.98    0.52
  -8   5  13    1.22    0.43
   8   7  13   -0.84    0.37
   7   8 -13   -0.25    0.51
  -8   7 -13    0.23    0.42
  -7   8  13    0.00    0.38
  -7  -8 -13    0.21    0.35
  -8   7 -13   -0.78    0.36
   7  -8  13    0.77    0.47
  -7   8  13    0.03    0.41
  -8  -7  13   -0.20    0.43
   8  -7 -13    0.05    0.49
  -8  -7 -13   -0.86    0.31
  -8   7  13    0.34    0.38
   7   8  13    0.66    0.42
   7  -8 -13   -0.20    0.47
  -8  -7 -13    0.46    0.56
   7   8  13    0.39    0.51
  -8   7  13   -0.17    0.42
  -7   8 -13   -0.69    0.37
  -7  -8  13   -0.38    0.48
   8  -7  13   -0.12    0.44
  -7   8 -13   -0.25    0.35
   8   7 -13    0.37    0.53
   9   0  13   -0.64    0.33
  -9   0 -13    0.54    0.44
   9   0 -13    0.11    0.39
   9   0 -13    0.17    0.40
   0   9  13   -0.22    0.39
   0   9 -13   -0.28    0.40
   0   9  13   -0.19    0.39
   0  -9 -13    0.14    0.37
   0  -9  13   -0.23    0.35
   0  -9  13    0.01    0.32
   0   9 -13    0.03    0.31
   9   0  13   -0.16    0.35
  -9   0  13   -0.25    0.40
  -9   2 -13   -0.01    0.42
   2   9 -13    0.91    0.35
  -2   9  13    0.89    0.39
  -2   9  13    0.94    0.41
   9  -2 -13    0.57    0.43
   9   2  13    0.44    0.42
  -2  -9 -13    0.34    0.34
  -2  -9 -13    0.83    0.39
   2   9 -13    0.55    0.46
   2  -9  13    1.12    0.40
   9  -2 -13    0.19    0.35
  -9  -2  13    0.77    0.47
   9  -2  13    0.35    0.40
   9  -2  13    0.19    0.37
  -2  -9  13    0.48    0.33
  -9   2  13    0.49    0.40
   9   2 -13    0.34    0.41
  -9  -2 -13    0.46    0.45
  -2   9 -13    0.51    0.34
  -2  -9  13    0.21    0.42
   2   9  13    0.79    0.46
  -2   9 -13   -0.37    0.34
   2  -9 -13    0.47    0.43
   9  -4 -13    0.43    0.49
   4   9 -13    0.17    0.51
   9   4  13   -0.06    0.40
  -9   4 -13    0.89    0.42
  -4   9  13    0.77    0.44
  -4   9  13    0.89    0.39
  -9  -4  13    0.36    0.46
  -4  -9 -13    0.62    0.42
   4  -9  13    0.63    0.42
   4   9  13    0.23    0.46
  -9  -4 -13    0.69    0.46
  -4  -9  13    0.59    0.49
  -4   9 -13    0.85    0.39
   4  -9 -13    0.73    0.43
  -9   4  13    1.42    0.43
   9   4 -13    0.49    0.51
   9  -4  13    0.80    0.42
   9  -4  13    0.71    0.37
  -4   9 -13    1.11    0.39
  -6  -9 -13    0.10    0.40
  -9  -6  13    0.05    0.50
   9  -6 -13    0.37    0.52
   9   6  13    0.36    0.43
  -9   6 -13    0.28    0.43
  -9   6 -13    0.24    0.40
  -6   9  13    0.76    0.43
   6   9 -13   -0.18    0.51
  -6   9  13    0.57    0.43
   6  -9  13    0.46    0.41
   6  -9 -13    1.05    0.52
  -6  -9  13    0.84    0.50
   9   6 -13    0.09    0.52
   9  -6  13    0.27    0.47
  -9   6  13    0.59    0.43
  -6   9 -13    1.10    0.43
  -9  -6 -13    0.75    0.57
   6   9  13    0.91    0.56
  -6   9 -13   -0.16    0.37
  -9  -8  13    0.75    0.55
   8   9 -13    2.30    0.61
   9  -8 -13    1.47    0.62
   9   8  13    1.46    0.51
  -8   9  13    2.14    0.52
  -8   9  13    1.85    0.50
  -9   8 -13    2.45    0.57
   8  -9  13    0.95    0.53
  -8  -9 -13    0.61    0.45
  -9  -8 -13    0.62    0.64
   8   9  13    2.19    0.50
  -9   8  13    1.59    0.51
   9  -8  13    1.78    0.56
   8  -9 -13    0.09    0.57
  -8  -9  13    1.33    0.59
   9   8 -13    1.17    0.55
  -8   9 -13    1.17    0.51
   8   9  13    1.98    0.65
   1  10 -13    6.73    0.84
  10  -1 -13    8.15    0.78
  -1  10  13    5.93    0.74
   1 -10  13    7.21    0.66
   1 -10  13    7.94    0.74
  -1  10  13    6.36    0.77
  10  -1 -13    7.59    0.74
 -10   1 -13    7.68    0.81
  -1 -10 -13    6.32    0.66
  -1 -10 -13    6.61    0.75
   1  10 -13    8.11    0.68
 -10  -1  13    5.81    0.77
  10   1  13    6.39    0.73
   1 -10 -13    7.35    0.72
  10  -1  13    6.80    0.65
  10  -1  13    7.51    0.76
 -10  -1 -13    6.58    0.74
  -1 -10  13    6.96    0.63
  -1  10 -13    6.92    0.67
  10   1 -13    7.24    0.84
  -1  10 -13    7.61    0.73
  -1 -10  13    5.37    0.78
   1  10  13    7.17    0.80
 -10   1  13    7.06    0.78
  -3  10  13    1.36    0.48
   3 -10  13    0.65    0.42
 -10  -3  13    2.66    0.56
  10  -3 -13    0.86    0.50
 -10   3 -13    0.51    0.47
  -3  10  13    0.45    0.43
   3  10 -13    0.03    0.50
  -3 -10 -13    1.45    0.48
  10   3  13    1.70    0.49
   3  10  13    1.02    0.54
  10  -3  13    0.60    0.43
 -10   3  13    1.21    0.45
  -3  10 -13    1.45    0.43
 -10  -3 -13    0.21    0.49
  10   3 -13    0.69    0.53
  10  -3  13    0.82    0.45
   3 -10 -13    0.88    0.47
  -3  10 -13    1.43    0.43
  -3 -10  13    1.67    0.53
  10   5  13    0.78    0.49
  -5  10  13    0.31    0.43
  -5 -10 -13    0.77    0.46
 -10   5 -13    0.72    0.48
  -5  10  13    0.52    0.46
   5  10 -13    1.95    0.57
   5 -10  13    1.21    0.46
  10  -5 -13    0.86    0.52
 -10  -5  13    0.33    0.50
  10   5 -13    1.42    0.57
 -10  -5 -13   -0.09    0.54
   5  10  13    0.21    0.49
  -5  10 -13    0.46    0.44
  10  -5  13    0.66    0.41
  10  -5  13    1.55    0.48
 -10   5  13    0.48    0.43
  -5 -10  13    0.26    0.53
   5 -10 -13    1.17    0.54
 -10   7 -13   14.02    0.98
  -7 -10 -13   15.88    0.96
  -7  10  13   15.34    0.95
 -10   7 -13   15.57    0.89
  10  -7 -13   15.23    1.09
   7 -10  13   15.25    0.94
  10   7  13   14.41    0.98
   7  10 -13   13.64    1.08
  -7  10  13   13.57    0.95
 -10  -7  13   14.56    1.13
  10   7 -13   13.98    1.10
   7  10  13   17.23    1.17
  -7  10 -13   14.21    0.95
 -10  -7 -13   16.42    1.19
 -10   7  13   15.16    0.92
   7 -10 -13   15.04    1.11
  10  -7  13   14.02    1.01
  -7 -10  13   16.24    1.13
   9 -10  13    1.43    0.58
  10   9  13    0.60    0.56
 -10   9 -13    2.19    0.60
  10  -9 -13    0.80    0.64
  -9 -10 -13    1.37    0.50
   9  10 -13    0.40    0.63
  -9  10  13    0.77    0.52
 -10  -9  13    0.80    0.59
 -10   9  13    0.20    0.50
 -10  -9 -13    1.86    0.72
  10  -9  13   -0.10    0.51
  -9  10 -13    0.18    0.51
   9  10  13    0.61    0.61
   9 -10 -13    1.06    0.61
  10   9 -13    0.40    0.58
  -9 -10  13    0.72    0.61
   0  11  13    0.16    0.49
 -11   0  13    0.25    0.47
  11   0  13    0.10    0.44
   0  11 -13   -0.32    0.46
   0 -11  13    0.26    0.36
   0  11 -13    0.18    0.39
   0 -11  13    0.76    0.48
  11   0 -13    0.15    0.43
 -11   0 -13   -0.51    0.46
   0 -11 -13    0.85    0.42
   0 -11 -13   -0.56    0.42
   2 -11  13   35.13    1.24
  -2  11  13   33.44    1.30
  -2 -11 -13   33.40    1.31
 -11   2 -13   35.03    1.38
   2  11 -13   36.92    1.39
  11  -2 -13   35.95    1.29
  11  -2 -13   35.87    1.28
  -2  11  13   35.47    1.33
  11   2  13   35.27    1.35
 -11  -2  13   33.98    1.34
  11   2 -13   35.59    1.39
  11  -2  13   34.73    1.32
  -2  11 -13   36.48    1.24
   2 -11 -13   34.92    1.27
 -11  -2 -13   37.81    1.47
  -2 -11  13   35.44    1.37
   2  11  13   36.89    1.42
 -11   2  13   32.94    1.29
  11  -2  13   37.28    1.25
  11  -4 -13    0.70    0.56
  11   4  13    0.04    0.45
   4  11 -13   -0.41    0.54
 -11  -4  13    0.78    0.53
 -11   4 -13    0.30    0.48
  -4 -11 -13    0.51    0.49
  -4  11  13   -0.23    0.44
  -4  11  13    0.18    0.44
   4 -11  13    0.61    0.44
  11  -4  13   -0.09    0.44
 -11  -4 -13   -0.51    0.54
   4 -11 -13    0.57    0.52
  11  -4  13    0.00    0.40
  -4 -11  13    1.08    0.53
 -11   4  13    0.71    0.45
   4  11  13   -0.22    0.51
  -4  11 -13    0.23    0.43
  11   4 -13    0.79    0.55
   6 -11  13   29.57    1.28
  -6 -11 -13   31.28    1.28
  -6  11  13   30.59    1.29
 -11   6 -13   32.66    1.34
  -6  11  13   28.43    1.24
   6  11 -13   29.27    1.40
  11   6  13   31.00    1.37
 -11  -6  13   30.74    1.36
  11  -6 -13   28.86    1.36
  11  -6  13   28.75    1.19
  11   6 -13   28.29    1.41
  11  -6  13   30.64    1.29
   6 -11 -13   29.56    1.37
  -6  11 -13   29.68    1.24
  -6 -11  13   31.50    1.42
 -11   6  13   33.32    1.28
 -11  -6 -13   29.75    1.46
   6  11  13   28.72    1.40
  -8 -11 -13    0.67    0.51
  -8  11  13    0.29    0.48
  11  -8 -13   -0.52    0.59
 -11  -8  13    0.46    0.61
   8  11 -13   -0.04    0.58
  11   8  13   -0.02    0.56
 -11   8 -13    1.04    0.59
  -8  11  13    0.24    0.51
   8 -11  13    0.75    0.54
 -11   8  13    0.11    0.51
  11  -8  13   -0.38    0.54
   8 -11 -13   -0.14    0.56
  -8  11 -13   -0.30    0.52
   8  11  13    0.43    0.63
  -8 -11  13    0.00    0.56
 -11  -8 -13    1.26    0.70
  11   8 -13    1.04    0.66
  11  10  13    4.16    0.72
  10  11 -13    2.49    0.78
 -11  10 -13    2.94    0.70
 -10  11  13    4.07    0.70
 -10  11 -13    4.20    0.75
  12   1  13    0.57    0.49
  12  -1 -13    0.05    0.47
 -12   1 -13   -0.18    0.52
  -1 -12 -13    0.44    0.51
   1 -12  13    0.14    0.40
  -1  12  13   -0.51    0.48
 -12  -1  13   -0.50    0.47
   1 -12 -13    0.84    0.47
 -12   1  13    1.09    0.52
  -1  12 -13   -0.36    0.42
 -12  -1 -13    0.70    0.56
  12   1 -13   -0.09    0.48
   1  12  13    0.61    0.55
  -1 -12  13    0.45    0.52
   1 -12 -13    0.07    0.48
  12  -1  13    0.48    0.46
 -12   3 -13    0.65    0.52
   3  12 -13    0.83    0.57
  -3 -12 -13   -0.05    0.48
  -3  12  13    0.15    0.48
  -3  12  13   -0.96    0.44
 -12  -3  13    0.04    0.50
  12  -3 -13   -0.01    0.49
   3 -12  13   -0.73    0.39
  12   3  13   -0.08    0.47
  12  -3  13   -0.60    0.42
  12  -3  13    0.41    0.48
  -3  12 -13    0.24    0.46
  12   3 -13   -0.45    0.53
   3 -12 -13    0.50    0.50
 -12   3  13   -0.62    0.43
   3  12  13    0.45    0.56
 -12  -3 -13   -0.20    0.59
  -3 -12  13    0.03    0.52
  12   5  13    1.46    0.58
 -12   5 -13    1.67    0.60
  -5  12  13    1.56    0.54
   5 -12  13    1.17    0.51
  -5  12  13    1.21    0.54
 -12  -5  13    1.08    0.57
   5  12 -13    1.34    0.61
  12  -5 -13    0.80    0.59
  -5 -12 -13    0.22    0.53
 -12  -5 -13    1.37    0.66
  12  -5  13    1.12    0.49
   5 -12 -13    1.31    0.60
   5  12  13    0.76    0.63
  12   5 -13    1.41    0.61
  -5  12 -13    1.62    0.52
  12  -5  13    0.15    0.51
 -12   5  13    1.04    0.50
  -5 -12  13    1.25    0.61
  12   7  13    0.25    0.58
  12  -7 -13    1.19    0.65
 -12  -7  13    0.35    0.60
  -7  12  13    0.56    0.54
  -7  12  13    1.36    0.53
 -12   7 -13    0.10    0.55
   7 -12  13   -0.20    0.53
  -7 -12 -13    1.15    0.58
   7  12 -13    0.93    0.61
  -7  12 -13   -1.74    0.44
  12   7 -13    0.73    0.57
   7 -12 -13    1.00    0.65
 -12  -7 -13   -0.62    0.65
   7  12  13    0.06    0.60
  -7 -12  13   -0.72    0.57
  12  -7  13    0.86    0.57
 -12   7  13    0.53    0.48
  -9  12  13    1.49    0.59
   9  12 -13    1.47    0.71
  12   9  13    2.14    0.67
  -9 -12 -13    2.82    0.70
  -9  12 -13    2.32    0.65
 -13   0 -13   -0.51    0.57
   0  13 -13   -0.04    0.46
   0  13  13    0.56    0.55
 -13   0  13   -0.54    0.52
   0 -13 -13   -1.19    0.46
  13   0  13   -0.58    0.48
  13   0 -13   -1.37    0.45
 -13  -2  13   -0.45    0.48
  13   2  13    0.55    0.57
  -2  13  13   -0.06    0.58
  -2 -13 -13    0.78    0.55
 -13   2 -13    0.70    0.59
   2 -13  13    0.32    0.46
   2  13  13    0.57    0.58
  -2 -13  13    0.73    0.56
  13  -2  13    0.41    0.50
  -2  13 -13    0.75    0.48
  13   2 -13    0.58    0.54
   2 -13 -13    0.19    0.53
   2 -13 -13    0.46    0.52
 -13  -2 -13    1.12    0.66
 -13   2  13    0.87    0.53
 -13  -4  13    0.93    0.60
  -4  13  13    0.80    0.53
  13  -4 -13    0.34    0.57
 -13   4 -13    0.00    0.53
   4 -13  13    0.42    0.48
  -4  13  13    0.81    0.54
  -4 -13 -13    1.22    0.60
  13   4  13    1.01    0.57
  -4 -13  13    0.34    0.58
  -4  13 -13    0.31    0.50
 -13  -4 -13    1.51    0.69
  13  -4  13    1.20    0.52
 -13   4  13    0.48    0.51
   4  13  13    0.41    0.62
   4 -13 -13    0.45    0.58
  13  -4  13    0.25    0.53
  13   4 -13    1.37    0.63
  13  -6 -13    0.22    0.60
   6  13 -13   -0.07    0.56
  -6  13  13    0.90    0.55
 -13   6 -13    0.55    0.59
   6 -13  13    0.57    0.53
  13   6  13    0.53    0.61
  -6  13  13    0.14    0.53
 -13  -6  13   -0.43    0.57
  -6 -13 -13    0.24    0.56
  -6  13 -13    0.46    0.51
  13  -6  13   -0.19    0.46
  -6 -13  13    0.12    0.63
  13  -6  13    0.67    0.56
 -13  -6 -13    0.77    0.68
   6  13  13    0.51    0.64
  13   6 -13    0.71    0.66
   6 -13 -13   -0.43    0.59
  -8  13  13    2.44    0.66
   8  13 -13    3.09    0.72
  -8  13  13    1.51    0.62
  -8 -13 -13    1.80    0.64
  -1 -14 -13    3.35    0.69
  14   1  13    1.71    0.63
 -14   1 -13    1.17    0.67
  -1  14  13    1.40    0.64
 -14  -1  13    1.08    0.58
 -14   1  13    2.25    0.61
   1 -14 -13    3.64    0.70
  14   1 -13    1.03    0.62
  -1  14 -13    1.60    0.57
  14  -1  13    1.62    0.61
 -14  -1 -13    2.22    0.68
  -1 -14  13    1.97    0.64
   1  14  13    0.49    0.63
 -14  -3  13    2.21    0.64
  -3  14  13    1.15    0.66
  -3 -14 -13    2.86    0.69
 -14   3 -13    2.80    0.73
  14   3  13    2.87    0.70
   3 -14  13    1.85    0.57
  -3  14 -13    1.99    0.56
 -14  -3 -13    2.86    0.77
  -3 -14  13    1.11    0.66
   3 -14 -13    2.93    0.65
   3  14  13    2.21    0.71
  14  -3  13    2.15    0.60
  14   3 -13    2.21    0.65
   3 -14 -13    3.73    0.70
   5 -14  13    0.96    0.53
  -5  14  13    1.66    0.62
  14  -5 -13    0.67    0.62
 -14  -5  13    1.18    0.66
  14  -5  13    0.22    0.58
   5 -14 -13    2.34    0.68
  14  -5  13    0.89    0.52
  -5 -14  13    0.18    0.64
   5 -14 -13    0.76    0.63
  -5  14 -13    0.33    0.53
   0  15  13    0.63    0.70
 -15  -2  13   26.28    1.41
  -2 -15  13   24.82    1.42
  -2  15 -13   27.18    1.30
  15   2 -13   26.38    1.40
  -4  15 -13    0.26    0.60
   4 -15 -13   -0.08    0.54
   0   0 -14    0.23    0.13
   0   0  14   -0.39    0.28
   0   0 -14    0.41    0.28
   0   0  14   -0.01    0.23
  -1  -1  14   40.46    1.13
  -1   1  14   41.11    1.15
  -1   1 -14   39.99    1.10
  -1   1  14   41.99    1.08
   1   1 -14   39.55    1.11
  -1   1 -14   41.56    0.89
   1  -1  14   40.28    1.00
  -1  -1 -14   40.84    0.94
   1  -1 -14   42.90    1.07
   1  -1  14   41.04    1.12
   1   1  14   40.27    1.14
  -1  -1  14   39.96    1.06
  -1  -1 -14   39.82    1.07
   1   1  14   39.86    1.01
   0   2  14    2.33    0.32
  -2   0 -14    2.19    0.29
   0   2 -14    1.61    0.32
   0   2  14    2.66    0.35
   0   2  14    2.39    0.36
  -2   0 -14    2.01    0.31
  -2   0  14    2.38    0.37
   0   2 -14    2.15    0.21
   0  -2  14    2.08    0.32
   2   0  14    2.30    0.32
   2   0  14    2.36    0.38
   0  -2  14    2.49    0.31
  -2   0  14    1.64    0.34
   2   0 -14    2.27    0.34
   0  -2 -14    1.73    0.29
  -2  -2  14   -0.15    0.29
  -2   2  14    0.31    0.17
  -2  -2  14   -0.16    0.26
   2  -2  14   -0.02    0.20
  -2   2 -14   -0.19    0.27
   2  -2 -14    0.20    0.24
   2   2 -14    0.35    0.33
  -2   2  14    0.11    0.26
  -2  -2 -14    0.22    0.24
   2  -2  14    0.30    0.29
  -2   2 -14    0.10    0.18
  -2  -2 -14    0.00    0.24
   2   2  14   -0.01    0.32
   2  -2 -14    0.24    0.38
   2   2  14    0.11    0.22
  -2   2  14    0.00    0.31
   3  -1 -14   39.97    1.09
  -3  -1  14   39.24    1.12
   1  -3  14   40.28    1.09
   1   3 -14   41.11    0.82
   3  -1 -14   38.85    1.15
  -3  -1  14   38.92    1.11
   1   3 -14   41.33    1.15
  -1   3  14   40.94    0.97
   3   1  14   40.34    1.12
   1  -3  14   39.88    1.00
  -1  -3 -14   39.52    1.02
   3   1  14   41.22    0.96
  -3   1 -14   39.55    1.11
  -3   1 -14   39.86    0.98
  -1   3  14   38.23    1.08
   1  -3 -14   39.94    1.20
  -1   3 -14   38.74    1.12
  -3  -1 -14   40.41    1.02
  -1  -3  14   40.83    1.09
  -3  -1 -14   38.78    1.09
   3   1 -14   40.34    1.12
  -1   3 -14   38.78    0.89
   1   3  14   40.48    1.16
   3  -1  14   40.36    0.91
  -3   1  14   40.43    1.12
  -1  -3  14   38.45    1.08
   1  -3 -14   37.99    0.99
   1   3  14   40.53    1.06
   3  -1  14   42.08    1.14
   1   3  14   40.35    1.03
  -3   1  14   39.53    1.13
   3   3 -14   36.83    1.15
   3   3  14   38.15    1.07
   3  -3 -14   34.27    1.11
   3   3  14   36.33    0.98
  -3   3 -14   38.97    1.11
   3   3  14   38.91    1.06
  -3  -3  14   36.46    1.11
  -3   3  14   37.25    0.89
   3  -3 -14   37.83    0.98
  -3  -3  14   37.61    1.05
   3  -3  14   37.15    1.10
   3  -3  14   38.14    0.87
   3   3  14   36.78    1.10
  -3   3  14   37.70    1.09
  -3   3 -14   38.00    0.96
   0   4 -14    0.13    0.17
   4   0 -14    0.16    0.35
   0   4  14    0.44    0.29
   4   0 -14   -0.15    0.30
  -4   0 -14    0.00    0.22
   4   0  14    0.38    0.30
   0   4 -14    0.06    0.32
  -4   0  14    0.19    0.30
   0  -4 -14   -0.32    0.34
   0  -4  14   -0.21    0.25
   0  -4 -14   -0.14    0.19
   0  -4  14    0.36    0.26
   0   4  14    0.42    0.28
   4   0  14    0.10    0.31
   4   0  14    0.25    0.17
   4   2  14   -0.33    0.25
   4  -2 -14   -0.05    0.28
   2  -4  14    0.12    0.21
   2  -4  14    0.06    0.30
  -2   4  14   -0.44    0.29
  -4  -2  14   -0.24    0.31
   2   4 -14    0.10    0.31
   4  -2 -14   -0.03    0.36
   4   2  14   -0.21    0.28
   4   2  14    0.27    0.21
  -2   4  14   -0.01    0.22
  -4  -2  14   -0.31    0.27
  -4   2 -14    0.06    0.29
  -4   2 -14    0.08    0.24
   4   2 -14    0.52    0.35
   2  -4 -14    0.00    0.20
  -4   2  14    0.29    0.31
   2   4  14    0.11    0.32
  -2  -4  14    0.45    0.28
   2  -4 -14   -0.27    0.30
   2   4  14    0.20    0.30
  -2  -4  14    0.15    0.31
  -4  -2 -14   -0.14    0.27
  -2   4 -14    0.20    0.20
   4  -2  14    0.10    0.28
   2   4  14    0.11    0.26
   2   4  14    0.02    0.25
  -2   4 -14   -0.08    0.29
   4   4  14   -0.26    0.33
   4   4 -14    0.20    0.39
  -4   4  14   -0.25    0.21
  -4   4 -14   -0.45    0.23
  -4  -4  14    0.04    0.33
  -4   4 -14   -0.02    0.30
   4   4  14   -0.12    0.33
   4   4  14   -0.26    0.26
   4  -4 -14   -0.07    0.26
   4  -4  14   -0.32    0.31
  -4   4  14   -0.49    0.31
   4  -4 -14   -0.12    0.37
  -4  -4  14    0.23    0.28
   4   4  14   -0.41    0.24
   5  -1 -14   15.76    0.71
   1   5 -14   14.19    0.76
   1   5 -14   15.57    0.51
   1  -5  14   14.81    0.63
   5   1  14   15.54    0.72
  -5  -1  14   14.91    0.76
  -1   5  14   15.73    0.65
  -1  -5 -14   15.19    0.57
  -1  -5 -14   14.28    0.74
   5   1  14   16.00    0.71
   5  -1 -14   13.09    0.75
   1  -5  14   13.29    0.69
   5   1  14   15.70    0.52
  -1   5  14   14.19    0.70
  -5   1 -14   16.55    0.68
  -5  -1 -14   14.88    0.68
  -1   5 -14   16.46    0.74
  -1   5 -14   14.90    0.56
   5   1 -14   14.90    0.76
   5  -1  14   14.57    0.71
   5  -1  14   15.49    0.73
  -5   1  14   14.65    0.70
   1   5  14   16.15    0.68
   5   1 -14   15.09    0.75
   1   5  14   15.57    0.73
   1  -5 -14   14.93    0.78
   1  -5 -14   15.92    0.53
  -1  -5  14   14.27    0.67
  -1  -5  14   15.63    0.72
  -3   5  14   27.20    0.83
   3  -5  14   28.09    0.94
  -5  -3  14   27.78    0.91
   3   5 -14   28.18    0.99
   5  -3 -14   26.95    0.89
  -3   5  14   27.28    0.95
   5   3  14   28.04    0.93
  -5  -3  14   27.20    1.00
   5  -3 -14   25.86    0.99
   5   3  14   25.94    0.93
  -5   3 -14   27.01    0.89
  -5   3 -14   26.72    0.92
  -5  -3 -14   27.50    0.96
   5   3 -14   27.47    1.04
   3  -5 -14   27.30    1.00
  -3  -5  14   26.87    0.87
   5  -3  14   27.93    0.94
  -3  -5  14   28.11    1.00
  -5   3  14   27.47    0.96
  -3   5 -14   28.08    0.84
  -3   5 -14   26.21    0.94
   3   5  14   28.53    0.91
   3   5  14   27.52    0.87
   3   5  14   27.95    1.01
  -5  -3 -14   27.87    0.79
   3   5  14   29.23    0.94
  -5   5 -14   10.63    0.69
  -5   5  14   10.10    0.65
  -5  -5  14   11.45    0.60
  -5   5 -14   11.83    0.66
   5  -5  14   10.63    0.72
  -5  -5  14   11.40    0.78
   5  -5 -14   10.44    0.80
   5   5  14   11.24    0.67
   5   5  14    9.90    0.75
  -5  -5 -14   10.81    0.57
   5   5  14   11.38    0.66
   5   5 -14   11.79    0.80
  -5   5  14   10.53    0.57
   0   6 -14    1.27    0.26
  -6   0 -14    1.01    0.32
   0   6  14    1.11    0.34
   0   6 -14    1.82    0.40
   0  -6  14    1.96    0.35
   6   0  14    1.30    0.35
   0   6  14    1.71    0.35
   6   0 -14    0.95    0.36
  -6   0  14    0.88    0.36
   0  -6 -14    1.42    0.24
   6   0  14    0.29    0.30
   0  -6 -14    0.58    0.37
   0  -6  14    0.51    0.30
   6   0 -14    1.13    0.39
  -2   6  14    0.16    0.29
  -6  -2  14   -0.43    0.36
  -6   2 -14   -0.24    0.31
   2  -6  14    0.32    0.26
   6   2  14   -0.27    0.28
   2  -6  14    0.53    0.35
   6   2  14   -0.50    0.30
  -2   6  14   -0.29    0.27
   6  -2 -14    0.40    0.37
  -2  -6 -14   -0.24    0.31
   6  -2 -14   -0.07    0.31
   2   6 -14    0.25    0.38
  -2   6 -14    0.21    0.33
  -2   6 -14    0.32    0.25
   6  -2  14   -0.25    0.28
   2   6  14   -0.06    0.29
  -2  -6  14   -0.23    0.27
   6   2 -14   -0.19    0.36
  -6   2  14   -0.70    0.31
  -6  -2 -14   -0.32    0.31
   2   6  14    0.07    0.25
   6   2 -14   -0.23    0.33
   2   6  14    0.25    0.36
   2  -6 -14    0.42    0.40
  -2  -6  14   -0.19    0.33
   6  -2  14    0.13    0.32
  -4  -6 -14    5.14    0.50
  -6  -4  14    5.08    0.51
   6  -4 -14    5.62    0.72
   4  -6  14    4.44    0.61
   6   4  14    4.93    0.56
  -6   4 -14    4.33    0.58
  -4   6  14    5.02    0.61
  -4   6  14    4.88    0.53
  -6  -4  14    4.12    0.52
  -6   4 -14    5.35    0.57
   4   6 -14    4.76    0.63
   6   4  14    5.16    0.58
  -4  -6 -14    5.07    0.54
  -4  -6  14    3.96    0.51
  -4   6 -14    5.73    0.54
   6   4 -14    5.04    0.60
   6   4 -14    4.85    0.57
  -4   6 -14    3.31    0.43
   6  -4  14    5.15    0.63
  -6  -4 -14    4.87    0.46
   4   6  14    5.01    0.50
  -4  -6  14    4.48    0.65
   4   6  14    4.55    0.56
   4  -6 -14    3.64    0.53
  -6  -4 -14    4.38    0.63
  -6   4  14    3.92    0.53
   6  -6  14   -0.32    0.39
  -6   6  14    0.18    0.29
  -6  -6 -14   -0.63    0.26
  -6   6 -14   -0.16    0.33
   6  -6 -14    0.53    0.42
  -6  -6  14   -0.41    0.41
   6   6 -14   -1.06    0.43
   6   6  14   -0.21    0.34
  -6   6  14    0.23    0.38
  -6   6 -14   -0.19    0.34
   6   6  14    0.11    0.45
  -7   1 -14   24.25    0.96
  -1   7  14   23.58    0.89
   7  -1 -14   24.94    0.92
   7   1  14   23.04    0.88
   1   7 -14   23.17    0.97
   7   1  14   24.01    0.94
   1  -7  14   23.41    0.89
  -1  -7 -14   24.22    0.95
   1  -7  14   23.65    0.87
   1   7 -14   24.47    0.77
   7  -1 -14   24.71    0.98
  -7  -1  14   23.38    0.95
   7   1 -14   22.86    0.91
   7  -1  14   24.39    0.93
  -1  -7  14   23.58    0.87
  -1  -7  14   23.46    0.92
   7  -1  14   23.67    0.94
   1   7  14   23.98    0.95
   1   7  14   24.86    0.92
   7   1 -14   24.05    0.99
  -7   1  14   23.24    0.98
  -7  -1 -14   24.69    0.95
  -1   7 -14   22.80    0.92
  -1   7 -14   24.14    0.79
   1  -7 -14   22.17    0.95
   3   7 -14   27.39    1.13
   7  -3 -14   28.83    0.97
   3  -7  14   27.72    1.01
   7  -3 -14   28.93    1.11
  -3   7  14   28.36    1.03
  -3  -7 -14   28.36    0.98
  -7   3 -14   25.34    0.98
  -3   7  14   28.25    0.95
  -3  -7 -14   27.90    0.96
   7   3  14   28.56    0.97
  -7  -3  14   26.84    1.08
   3   7  14   26.73    1.08
   7   3 -14   30.86    0.98
  -3  -7  14   27.74    0.90
   7  -3  14   28.35    1.03
  -3  -7  14   28.41    1.08
  -7  -3 -14   29.04    1.09
   7   3 -14   29.06    1.14
  -3   7 -14   27.09    0.92
  -7   3  14   28.38    1.04
   3  -7 -14   27.61    1.09
   3   7  14   27.90    1.00
  -3   7 -14   28.77    1.01
   7  -3  14   28.09    1.03
   3   7  14   28.34    0.88
  -7  -5  14   17.46    0.96
  -7   5 -14   16.79    0.83
   5  -7  14   17.80    0.90
  -5  -7 -14   19.80    0.82
  -7   5 -14   18.65    0.87
  -5   7  14   18.18    0.91
   7  -5 -14   16.75    0.97
   7   5  14   19.56    0.88
   5   7 -14   16.19    1.00
  -5   7  14   17.66    0.80
  -5  -7  14   17.87    0.97
  -5   7 -14   17.98    0.86
   7   5 -14   17.63    0.95
   5   7  14   17.78    0.78
  -7  -5 -14   16.69    0.95
  -5   7 -14   19.80    0.83
   7  -5  14   17.06    0.90
  -7   5  14   18.21    0.89
   5  -7 -14   18.18    0.99
  -7  -5 -14   17.04    0.71
   5   7  14   18.01    0.99
   7   7 -14   12.73    0.98
   7   7  14   11.22    0.76
  -7   7  14   10.84    0.82
  -7  -7 -14   11.89    0.72
  -7   7 -14   11.03    0.84
   7  -7 -14   10.65    0.92
  -7   7 -14   12.94    0.79
   7   7  14   12.39    0.95
   7  -7  14   11.59    0.84
  -7  -7  14   12.45    0.93
   0   8 -14    0.62    0.43
   0  -8 -14    2.41    0.45
   0   8  14    1.43    0.42
  -8   0  14    1.25    0.45
   8   0  14    1.82    0.43
   0   8 -14    1.71    0.33
   0  -8  14    0.57    0.35
   8   0  14    1.38    0.40
  -8   0 -14    1.80    0.44
   0   8  14    1.82    0.43
   8   0 -14    1.66    0.44
   8   0 -14    1.10    0.44
   0  -8  14    1.52    0.42
  -2  -8 -14    1.10    0.37
   2  -8  14    1.29    0.39
  -8   2 -14    1.24    0.43
   8   2  14    1.23    0.41
   8   2  14    1.06    0.37
  -2   8  14    1.89    0.42
   2   8 -14    1.12    0.49
   8  -2 -14    1.72    0.47
  -2   8  14    1.66    0.40
  -8  -2  14    1.68    0.48
   8  -2 -14    0.93    0.38
  -2   8 -14    0.87    0.34
  -2  -8  14    1.88    0.37
  -8  -2 -14    0.58    0.43
   8  -2  14    0.92    0.40
  -8   2  14    1.65    0.43
   2  -8 -14    0.83    0.44
  -2   8 -14    1.61    0.41
   2   8  14    1.66    0.47
  -2  -8  14    1.04    0.45
   8  -2  14    1.40    0.41
   8   2 -14    0.98    0.43
   2   8  14    1.98    0.44
   8   2 -14    1.16    0.39
  -8  -4  14    0.31    0.43
  -8   4 -14    0.80    0.42
  -4  -8 -14    0.65    0.38
  -4   8  14   -0.17    0.34
   4  -8  14   -0.10    0.37
   8  -4 -14    0.62    0.48
   4   8 -14    0.68    0.48
  -4   8  14    0.73    0.41
   8   4  14   -0.12    0.40
  -4   8 -14    1.17    0.39
   4  -8 -14    0.70    0.47
   4   8  14    0.29    0.45
   8  -4  14    0.11    0.36
  -4  -8  14    0.23    0.45
  -8   4  14    0.34    0.39
   8  -4  14    0.20    0.36
   8   4 -14    0.45    0.50
  -4   8 -14    0.41    0.35
  -8  -4 -14    0.70    0.46
  -8   6 -14   -0.09    0.39
   8  -6 -14    0.18    0.46
  -8   6 -14    0.01    0.36
  -6   8  14    0.12    0.40
  -6   8  14    0.40    0.37
  -8  -6  14    0.70    0.50
   8   6  14    1.13    0.44
   6  -8  14    0.10    0.40
   6   8 -14   -0.21    0.50
  -6  -8 -14   -0.07    0.34
   6   8  14    0.28    0.48
   6   8  14   -0.15    0.36
   8  -6  14    0.08    0.43
  -8   6  14    0.44    0.42
  -6   8 -14    0.45    0.38
  -6  -8  14   -0.76    0.45
   8   6 -14    0.08    0.52
  -6   8 -14    0.94    0.40
  -8  -6 -14    0.76    0.50
   6  -8 -14    0.14    0.46
   8  -8  14    0.09    0.45
   8   8 -14   -1.06    0.47
   8  -8 -14    0.68    0.56
  -8   8  14   -0.43    0.41
  -8  -8 -14    0.11    0.37
   8   8  14   -0.58    0.51
  -8   8 -14    0.35    0.46
  -8  -8  14    0.11    0.49
  -8   8 -14   -0.02    0.39
   8   8  14   -0.08    0.41
  -9  -1  14    8.30    0.79
   9   1  14    8.38    0.69
  -1   9  14    7.50    0.72
   9   1  14    8.39    0.74
  -1   9  14    9.36    0.75
   9  -1 -14    9.29    0.74
  -1  -9 -14    8.19    0.67
   1  -9  14    8.31    0.70
   1  -9  14    9.16    0.72
   1   9 -14    9.36    0.79
   9  -1 -14    8.38    0.75
  -9   1 -14    8.14    0.79
  -1  -9  14    8.63    0.66
   1   9  14    8.55    0.73
   1   9  14    8.35    0.79
  -1   9 -14    9.13    0.65
   9  -1  14    8.27    0.71
   9   1 -14    8.37    0.79
   1  -9 -14    7.27    0.77
  -9  -1 -14    7.85    0.79
  -9   1  14    8.96    0.83
  -1  -9  14    7.21    0.74
   9   1 -14    9.19    0.75
  -1   9 -14    9.83    0.74
   9  -1  14    8.86    0.73
   3   9 -14    5.55    0.81
   9  -3 -14    7.87    0.80
  -3   9  14    8.00    0.70
  -9  -3  14    8.14    0.82
  -3  -9 -14    6.65    0.71
  -3   9  14    7.60    0.74
   9   3  14    7.72    0.75
   3  -9  14    7.67    0.71
  -9   3 -14    8.40    0.77
  -3   9 -14    8.71    0.64
  -3  -9  14    7.84    0.81
   9  -3  14    6.11    0.70
   9   3 -14    8.52    0.83
   9  -3  14    8.78    0.74
  -3   9 -14    8.82    0.70
   3   9  14    7.99    0.84
   3  -9 -14    8.01    0.79
  -9   3  14    8.22    0.74
  -9  -3 -14    8.55    0.84
  -9   5 -14    0.08    0.39
   5   9 -14    0.24    0.52
  -9  -5  14   -0.36    0.45
  -5  -9 -14   -0.42    0.37
   5  -9  14   -0.46    0.39
   9  -5 -14    0.02    0.47
  -5   9  14    0.03    0.39
  -5   9  14    0.05    0.38
  -9   5 -14   -0.59    0.40
   9   5  14   -0.67    0.40
  -5  -9  14   -0.13    0.45
  -9   5  14    0.62    0.42
   9   5 -14   -0.18    0.47
  -5   9 -14    0.27    0.38
   5  -9 -14    0.22    0.48
   5   9  14   -0.02    0.49
  -9  -5 -14   -0.27    0.50
   9  -5  14   -0.17    0.37
   9  -5  14   -0.28    0.37
  -5   9 -14   -0.42    0.36
  -9   7 -14   10.74    0.88
  -7   9  14   10.43    0.83
  -7  -9 -14   10.36    0.82
  -9  -7  14   10.67    0.99
  -9   7 -14   11.87    0.83
  -7   9  14   10.71    0.87
   7  -9  14   10.19    0.80
   9   7  14   10.11    0.85
   7   9 -14    9.98    1.00
   9  -7 -14   10.47    0.99
  -9  -7 -14   11.59    1.04
  -7   9 -14   12.02    0.87
  -7  -9  14   11.08    0.99
   9  -7  14   10.14    0.88
  -9   7  14   11.67    0.84
   7  -9 -14   10.84    0.90
   9   7 -14   11.14    0.98
   7   9  14   11.60    1.03
  -9   9  14    0.98    0.50
   9  -9 -14    0.57    0.61
   9   9  14   -0.07    0.48
   9   9 -14   -0.37    0.58
   9  -9  14   -0.17    0.50
  -9  -9 -14    0.62    0.64
   9   9  14    0.39    0.58
  -9  -9  14   -0.53    0.48
  -9   9 -14    0.91    0.52
   0  10  14    5.90    0.77
  10   0  14    6.45    0.76
  10   0 -14    6.40    0.75
   0 -10 -14    7.43    0.73
 -10   0  14    6.26    0.77
   0  10 -14    7.19    0.80
  10   0  14    4.60    0.65
 -10   0 -14    6.52    0.82
   0 -10  14    6.09    0.63
   0  10  14    6.80    0.75
  10   0 -14    7.15    0.75
   0 -10  14    5.76    0.75
   0  10 -14    6.41    0.65
  -2  10  14   -0.23    0.42
 -10   2 -14    0.18    0.48
  10   2  14   -0.19    0.42
  10  -2 -14    0.15    0.43
  -2  10  14   -0.31    0.40
 -10  -2  14   -0.19    0.43
   2  10 -14    0.23    0.53
   2 -10  14   -0.27    0.37
  10  -2 -14   -0.62    0.45
  -2 -10 -14    0.41    0.44
  -2  10 -14    0.30    0.41
   2  10  14    0.20    0.48
 -10   2  14   -0.38    0.41
  10  -2  14   -0.31    0.39
  -2  10 -14   -0.21    0.36
  10  -2  14    0.16    0.41
   2 -10 -14   -0.57    0.41
  10   2 -14   -0.27    0.43
 -10  -2 -14    0.18    0.50
  -2 -10  14   -0.65    0.42
  -4  10  14    2.76    0.51
  10   4  14    2.47    0.53
  -4 -10 -14    2.30    0.51
 -10  -4  14    2.77    0.57
  -4  10  14    3.03    0.56
 -10   4 -14    1.83    0.52
   4  10 -14    2.48    0.60
   4 -10  14    2.76    0.53
  10  -4 -14    2.51    0.58
   4  10  14    2.58    0.58
 -10   4  14    2.00    0.50
   4 -10 -14    2.84    0.58
  -4  10 -14    2.84    0.49
 -10  -4 -14    2.11    0.61
  10  -4  14    1.47    0.51
  10   4 -14    1.79    0.60
  -4  10 -14    1.58    0.45
  10  -4  14    2.24    0.49
  -4 -10  14    1.70    0.55
 -10   6 -14    0.34    0.43
  -6 -10 -14    0.72    0.46
  -6  10  14   -0.33    0.40
 -10   6 -14    0.03    0.47
   6  10 -14    0.24    0.55
  -6  10  14    0.37    0.48
   6 -10  14    0.88    0.46
 -10  -6  14    0.08    0.51
  10   6  14    0.20    0.47
  10  -6 -14   -0.17    0.51
  10  -6  14    0.21    0.48
  10   6 -14    0.66    0.59
 -10   6  14   -0.25    0.43
  -6  10 -14    0.02    0.44
  -6 -10  14    0.14    0.51
   6 -10 -14    0.61    0.58
 -10  -6 -14    0.05    0.58
   6  10  14   -0.13    0.56
  -8  10  14    2.40    0.57
  -8 -10 -14    2.87    0.55
 -10  -8  14    2.55    0.68
   8 -10  14    2.68    0.61
  10  -8 -14    2.63    0.70
 -10   8 -14    1.25    0.56
  10   8  14    2.21    0.59
   8  10 -14    3.57    0.70
   8  10  14    3.18    0.68
  10   8 -14    2.96    0.69
  -8  10 -14    2.55    0.58
 -10  -8 -14    2.87    0.71
  -8 -10  14    2.16    0.64
  10  -8  14    3.09    0.62
 -10   8  14    2.41    0.58
   8 -10 -14    1.96    0.61
 -10  10 -14   -0.42    0.53
  10 -10  14   -0.76    0.52
  10  10 -14   -0.28    0.61
 -10  10  14    0.08    0.50
  10 -10 -14   -1.01    0.58
 -10 -10  14   -0.33    0.55
 -10 -10 -14    0.40    0.68
   1 -11  14   11.11    0.76
 -11   1 -14   12.15    0.96
  11   1  14   11.13    0.92
  -1  11  14   13.06    0.92
  11  -1 -14   13.31    0.88
  -1 -11 -14   13.86    0.94
 -11  -1  14   12.20    0.93
  -1  11  14   14.34    0.96
  11  -1 -14   12.09    0.85
   1  11 -14   12.63    1.00
 -11  -1 -14   11.80    0.98
   1  11  14   14.14    1.06
  11   1 -14   12.24    0.95
  11  -1  14   12.22    0.88
  -1  11 -14   12.93    0.93
 -11   1  14   12.77    0.92
  -1  11 -14   13.06    0.84
  -1 -11  14   13.79    0.96
   1 -11 -14   11.80    0.85
  11  -1  14   11.24    0.89
  -3  11  14    7.42    0.81
  -3  11  14    7.08    0.85
  11  -3 -14    5.98    0.69
  11   3  14    5.68    0.82
   3  11 -14    8.33    0.99
   3 -11  14    6.80    0.80
  -3 -11 -14    8.14    0.84
 -11  -3  14    7.31    0.89
 -11   3 -14    7.19    0.86
  11  -3  14    9.83    0.83
 -11   3  14    5.72    0.67
  -3 -11  14    7.00    0.89
  11   3 -14    7.72    0.88
  11  -3  14    7.33    0.83
   3 -11 -14    8.13    0.85
  -3  11 -14    7.10    0.73
   3  11  14    6.96    0.93
 -11  -3 -14    7.82    0.98
 -11   5 -14    7.27    0.89
  11   5  14    7.18    0.87
  -5  11  14    9.28    0.92
  11  -5 -14    7.65    0.97
 -11  -5  14    7.62    0.92
  -5 -11 -14    8.05    0.86
  -5  11  14    7.06    0.81
   5  11 -14    6.95    0.94
   5 -11  14    6.14    0.80
  11   5 -14    6.26    0.77
  -5  11 -14    8.10    0.78
  -5 -11  14    7.07    0.79
  11  -5  14    7.35    0.82
   5  11  14    8.70    0.99
 -11  -5 -14    8.49    1.05
 -11   5  14    8.47    0.88
   5 -11 -14    8.29    0.93
  11  -5  14    7.72    0.84
   7 -11  14   10.61    0.95
 -11   7 -14    9.13    0.89
  -7 -11 -14    9.26    0.96
  -7  11  14    9.41    0.92
 -11  -7  14    9.46    1.02
  11   7  14   11.37    0.98
  11  -7 -14    8.69    1.05
  -7  11  14   11.83    0.95
   7  11 -14   10.26    1.09
 -11   7 -14   12.17    1.06
  11  -7  14   11.97    0.98
 -11  -7 -14    9.34    1.13
  -7 -11  14   11.97    1.10
  11   7 -14    9.71    1.07
   7 -11 -14    8.99    1.06
   7  11  14    9.56    1.11
 -11   7  14   10.80    0.90
  -7  11 -14   10.10    0.93
   9 -11  14    4.51    0.72
  -9  11  14    7.34    0.94
 -11   9 -14    7.21    0.99
 -11  -9  14    5.45    0.83
  -9 -11 -14    6.30    0.90
   9  11 -14    6.21    0.83
  11  -9 -14    5.85    0.87
  11   9  14    5.05    0.74
 -11  -9 -14    5.08    0.89
   9  11  14    4.10    0.80
  -9  11 -14    6.08    0.79
  11  -9  14    5.11    0.78
   9 -11 -14    5.52    0.86
  -9 -11  14    4.17    0.78
 -11   9  14    5.18    0.70
  11   9 -14    5.20    0.87
 -12   0 -14    2.82    0.64
  12   0 -14    1.74    0.57
   0  12  14    2.66    0.64
   0 -12 -14    2.84    0.60
   0 -12  14    0.92    0.57
  12   0  14    1.36    0.50
 -12   0  14    2.75    0.61
  12  -2 -14    0.54    0.53
  12   2  14    0.85    0.52
  -2  12  14    0.34    0.55
 -12   2 -14   -0.37    0.53
  -2 -12 -14   -0.17    0.49
   2 -12  14    0.51    0.44
 -12  -2  14    1.05    0.53
  -2  12  14    0.49    0.52
   2  12 -14    0.27    0.57
  -2 -12  14    0.07    0.53
  12   2 -14    0.63    0.55
 -12  -2 -14    0.38    0.57
  12  -2  14    0.01    0.44
  -2  12 -14   -0.13    0.42
 -12   2  14   -0.19    0.44
  12  -2  14    1.08    0.49
   2  12  14    0.38    0.54
   2 -12 -14   -0.14    0.47
  -4  12  14    2.47    0.60
  12  -4 -14    3.34    0.66
  -4 -12 -14    2.19    0.62
 -12   4 -14    0.83    0.55
   4 -12  14    2.46    0.57
  12   4  14    2.03    0.62
   4  12 -14    3.23    0.68
 -12  -4  14    2.86    0.65
  -4  12  14    2.96    0.60
  12  -4  14    1.77    0.57
 -12   4  14    1.44    0.52
  12  -4  14    2.85    0.56
   4  12  14    2.30    0.64
  12   4 -14    2.37    0.63
   4 -12 -14    2.33    0.64
  -4  12 -14    2.16    0.53
  -4 -12  14    2.81    0.68
 -12  -4 -14    3.13    0.76
   6 -12  14    1.05    0.55
 -12   6 -14    1.63    0.53
  12  -6 -14    1.08    0.65
  12   6  14    1.03    0.58
   6  12 -14    1.47    0.62
 -12  -6  14    1.26    0.60
  -6  12  14    0.73    0.54
  -6 -12 -14    0.21    0.54
 -12   6 -14    1.24    0.58
  -6  12  14    1.21    0.54
  12   6 -14    1.12    0.68
  12  -6  14    2.17    0.55
  12  -6  14    0.06    0.51
   6  12  14    1.32    0.65
  -6 -12  14    0.56    0.64
   6 -12 -14    1.22    0.64
 -12  -6 -14    0.27    0.66
  -6  12 -14    1.74    0.55
 -12   6  14    2.07    0.55
  12   8  14    0.11    0.55
   8  12 -14    0.01    0.61
  12  -8 -14    1.34    0.69
  -8  12  14   -0.15    0.52
 -12  -8  14    0.50    0.64
 -12   8 -14    0.90    0.63
  -8 -12 -14    1.89    0.59
   8 -12  14    0.91    0.56
  12  -8  14   -0.26    0.58
  -8 -12  14    0.67    0.68
 -12  -8 -14    0.88    0.73
   8  12  14    0.06    0.66
   8 -12 -14    0.03    0.65
  12   8 -14   -0.64    0.67
  -8  12 -14    0.91    0.59
 -13  -1  14    0.66    0.55
  -1  13  14    0.48    0.58
  -1 -13 -14    0.66    0.55
  13   1  14    0.11    0.52
 -13   1 -14    0.12    0.60
   1  13  14   -0.48    0.53
 -13  -1 -14    0.23    0.62
  13  -1  14    0.92    0.55
  -1 -13  14    0.12    0.53
  13   1 -14    0.04    0.51
   1 -13 -14    0.20    0.57
 -13   1  14   -0.63    0.50
  13  -3 -14    4.70    0.77
 -13   3 -14    4.27    0.70
  -3  13  14    7.02    0.96
  13   3  14    6.57    0.93
 -13  -3  14    4.31    0.70
   3 -13  14    6.46    0.84
  -3 -13 -14    6.79    0.95
  -3 -13  14    5.32    0.75
 -13   3  14    5.97    0.71
  13   3 -14    5.78    0.80
   3  13  14    4.02    0.76
   3 -13 -14    5.32    0.73
  -3  13 -14    5.39    0.66
  13  -3  14    4.20    0.67
  13  -3  14    5.58    0.69
   3 -13 -14    5.18    0.71
 -13  -3 -14    6.43    0.87
  -5 -13 -14    0.46    0.57
   5  13 -14   -0.54    0.55
 -13   5 -14    1.07    0.63
 -13  -5  14    0.54    0.62
  13   5  14    0.65    0.58
  -5  13  14    1.44    0.57
  -5  13  14   -0.02    0.53
   5 -13  14    0.11    0.50
  13  -5 -14   -1.58    0.52
  -5 -13  14    0.01    0.60
 -13   5  14   -0.09    0.50
   5  13  14    0.99    0.63
 -13  -5 -14    0.99    0.72
  13  -5  14    0.35    0.56
  -5  13 -14    0.63    0.54
  13  -5  14   -0.38    0.47
   5 -13 -14   -0.97    0.52
  13   5 -14   -0.12    0.63
   7  13 -14    3.79    0.74
  13  -7 -14    4.28    0.79
  -7  13  14    3.63    0.67
  -7  13  14    2.48    0.66
  -7 -13 -14    3.43    0.71
  -7  13 -14    3.81    0.71
  13  -7  14    3.63    0.71
  14   0  14    3.16    0.66
   0  14  14    3.50    0.74
 -14   0 -14    3.49    0.75
 -14   0  14    4.01    0.72
  14   0 -14    4.76    0.76
   0 -14 -14    4.69    0.74
  -2 -14 -14    0.13    0.58
 -14   2 -14    1.04    0.65
  14   2  14   -0.28    0.57
  -2  14  14   -0.01    0.60
 -14  -2  14   -0.22    0.53
  14   2 -14   -0.06    0.59
   2  14  14   -0.05    0.60
 -14   2  14    1.53    0.57
  14  -2  14   -0.73    0.49
  -2 -14  14   -0.37    0.56
 -14  -2 -14   -0.32    0.67
   2 -14 -14    0.86    0.61
 -14  -4  14    2.33    0.67
   4 -14  14    3.60    0.64
  -4  14  14    3.69    0.71
  14   4 -14    4.55    0.80
  -4  14 -14    4.14    0.67
   4 -14 -14    2.71    0.70
   4  14  14    3.33    0.81
  -4 -14  14    4.10    0.76
   4 -14 -14    4.15    0.72
  14  -4  14    3.34    0.65
  -6  14  14   -0.12    0.59
 -15  -1  14    2.57    0.70
  15   1 -14    0.68    0.66
   1   0  15   -0.02    0.21
   0   1 -15    0.04    0.29
   1   0  15   -0.24    0.30
   0  -1 -15   -0.21    0.16
   0   1  15   -0.23    0.32
   0   1  15   -0.01    0.23
   0  -1  15   -0.20    0.27
  -1   0 -15   -0.31    0.26
   1   0 -15    0.13    0.28
   0  -1  15    0.07    0.25
  -1   0  15   -0.20    0.31
   0  -1 -15   -0.40    0.24
  -1   0 -15    0.13    0.15
   0   1 -15   -0.19    0.11
  -1   0  15    0.11    0.26
  -2   1 -15    9.20    0.58
   2   1  15   10.57    0.48
  -1   2  15    9.76    0.56
   2   1  15    9.75    0.60
  -1   2  15   10.30    0.63
  -2   1 -15    9.88    0.42
  -1   2  15   11.23    0.43
  -1  -2 -15   11.11    0.57
  -2  -1  15   10.34    0.63
   1  -2  15    9.98    0.58
   2  -1 -15   10.56    0.56
  -2  -1  15   10.61    0.59
   1  -2  15   10.87    0.50
   1   2 -15   10.82    0.63
  -2  -1 -15   10.84    0.48
  -1   2 -15   10.10    0.38
  -1   2 -15   10.55    0.57
   1  -2 -15    9.70    0.52
   2   1 -15   10.73    0.62
   1   2  15    9.87    0.68
  -2  -1 -15   10.05    0.57
  -2   1  15    9.47    0.58
   2  -1  15    9.77    0.63
   2  -1  15   10.71    0.45
  -1  -2  15   10.52    0.62
   1   2  15   11.03    0.50
  -1  -2  15   10.02    0.58
  -2   1  15   11.72    0.69
   1   2  15   10.73    0.54
   0  -3  15    0.01    0.25
   0   3 -15    0.17    0.30
   0   3  15    0.06    0.24
   0   3  15    0.12    0.25
   3   0  15   -0.12    0.18
   0   3  15   -0.45    0.31
  -3   0  15    0.21    0.30
  -3   0 -15    0.21    0.28
   3   0  15   -0.12    0.26
   0  -3 -15    0.19    0.22
  -3   0 -15   -0.25    0.20
  -3   0  15   -0.35    0.29
   0   3 -15   -0.11    0.14
   0  -3  15   -0.27    0.28
   3   0 -15    0.09    0.30
   3  -2 -15   13.86    0.79
   2  -3  15   14.40    0.55
  -3  -2  15   15.47    0.72
  -3   2 -15   14.43    0.70
   3   2  15   15.21    0.74
  -3  -2  15   15.26    0.71
  -3   2 -15   14.49    0.55
   2  -3  15   15.57    0.73
   3  -2 -15   14.15    0.64
   3   2  15   14.54    0.57
  -2   3  15   14.84    0.68
  -2  -3 -15   13.93    0.62
  -2   3  15   15.47    0.54
   3   2  15   14.83    0.68
   2   3 -15   14.30    0.75
   2   3  15   15.40    0.67
   2   3  15   15.12    0.75
  -2   3 -15   14.97    0.71
  -3  -2 -15   14.77    0.66
  -3   2  15   14.58    0.69
   3   2 -15   14.55    0.75
   2   3  15   14.67    0.60
  -2  -3  15   15.10    0.69
   2  -3 -15   14.33    0.58
   2  -3 -15   14.29    0.79
  -3  -2 -15   15.17    0.63
  -2  -3  15   13.68    0.68
   3  -2  15   15.44    0.73
   3  -2  15   14.78    0.49
  -2   3 -15   15.04    0.53
   1  -4  15    0.43    0.25
  -4  -1  15    0.14    0.30
   1   4 -15    0.46    0.35
  -1   4  15    0.10    0.29
   4   1  15   -0.03    0.19
  -4  -1  15    0.18    0.30
   4   1  15    0.26    0.31
   4   1  15    0.00    0.30
   1  -4  15    0.09    0.31
  -4   1 -15    0.11    0.26
   4  -1 -15    0.31    0.31
  -1  -4 -15    0.32    0.23
  -4   1 -15    0.01    0.24
  -1   4  15    0.03    0.26
   4  -1 -15    0.50    0.38
  -1   4 -15    0.12    0.18
  -1  -4  15    0.08    0.28
   1   4  15    0.13    0.27
  -4  -1 -15    0.10    0.26
  -1   4 -15    0.19    0.30
   4   1 -15    0.36    0.35
   1   4  15    0.60    0.29
  -4   1  15    0.32    0.32
   1  -4 -15   -0.03    0.21
   1   4  15    0.13    0.32
  -1  -4  15    0.01    0.28
   1  -4 -15    0.35    0.39
   4  -1  15    0.03    0.33
  -4   3 -15    2.73    0.41
   3  -4  15    2.84    0.43
   4   3  15    4.43    0.42
  -3   4  15    3.93    0.46
   4  -3 -15    2.63    0.45
  -3   4  15    3.54    0.38
   3   4 -15    3.34    0.48
   4   3  15    3.06    0.44
   4  -3 -15    3.85    0.48
  -4  -3  15    3.95    0.53
   4   3  15    4.23    0.50
  -4   3 -15    3.01    0.34
  -4  -3  15    4.16    0.57
   3   4  15    3.42    0.42
   3  -4 -15    3.01    0.41
   3   4  15    4.00    0.47
   4   3 -15    3.18    0.45
   3   4  15    3.72    0.45
  -4  -3 -15    3.37    0.48
   3   4  15    3.97    0.44
  -3  -4  15    3.22    0.41
  -3   4 -15    4.11    0.46
  -4   3  15    3.97    0.53
  -3   4 -15    3.64    0.40
   4  -3  15    4.62    0.57
  -3  -4  15    5.25    0.58
   3  -4 -15    3.95    0.50
   0   5  15    0.06    0.29
   0   5 -15    0.12    0.20
   5   0  15   -0.10    0.33
  -5   0 -15   -0.11    0.25
   0   5  15   -0.31    0.29
  -5   0  15    0.36    0.34
   0  -5  15   -0.10    0.28
   5   0 -15    0.85    0.37
   5   0  15    0.47    0.33
   0  -5 -15   -0.13    0.35
   0  -5 -15    0.12    0.20
   0  -5  15   -0.63    0.28
   0   5 -15    0.05    0.33
   5   0 -15   -0.32    0.35
   5   2  15    2.39    0.39
   5   2  15    2.98    0.42
  -5   2 -15    2.04    0.39
   5  -2 -15    3.08    0.41
  -5  -2  15    2.17    0.38
   2  -5  15    2.75    0.42
  -5  -2  15    2.92    0.47
  -2   5  15    2.28    0.40
   2  -5  15    3.04    0.41
  -5   2 -15    2.58    0.37
   5  -2 -15    2.71    0.47
   2   5 -15    2.63    0.46
  -2  -5 -15    2.96    0.40
   5   2  15    3.04    0.37
  -2   5  15    1.87    0.33
  -2  -5 -15    2.93    0.44
  -5   2  15    3.15    0.44
   5   2 -15    2.52    0.42
   5  -2  15    2.38    0.42
   2   5  15    3.41    0.44
  -2  -5  15    3.04    0.39
  -2  -5  15    3.40    0.44
   2   5  15    1.96    0.35
   2  -5 -15    2.62    0.28
   2   5  15    2.63    0.41
  -2   5 -15    2.76    0.41
   2  -5 -15    1.94    0.41
   2   5  15    2.57    0.42
  -5  -2 -15    2.94    0.40
  -2   5 -15    2.76    0.39
  -4   5  15    0.80    0.34
  -5   4 -15    1.03    0.33
  -5  -4  15    0.95    0.33
  -5   4 -15    0.67    0.33
  -5  -4  15    1.35    0.43
   5   4  15    0.64    0.34
   5  -4 -15    1.79    0.42
   4  -5  15    0.86    0.39
  -4   5  15    0.77    0.27
   4   5 -15    0.53    0.45
   5   4  15    1.05    0.38
  -4   5 -15    1.21    0.30
   5   4 -15    0.79    0.44
   5  -4  15    0.86    0.39
   4  -5 -15    0.72    0.39
  -4   5 -15    1.15    0.37
   4   5  15    1.44    0.42
  -5  -4 -15    0.84    0.26
  -4  -5  15    1.40    0.42
   4   5  15    1.14    0.33
  -5  -4 -15    0.30    0.36
  -5   4  15    0.80    0.38
   4   5  15    1.12    0.38
  -4  -5  15    0.92    0.33
   4   5  15    0.89    0.32
  -1   6  15    4.67    0.54
   6  -1 -15    4.44    0.61
  -1   6  15    4.89    0.56
   1   6 -15    4.23    0.62
  -6  -1  15    4.16    0.51
   6   1  15    4.18    0.55
  -6   1 -15    4.09    0.52
  -1  -6 -15    5.39    0.60
   6   1  15    3.66    0.45
   1  -6  15    5.20    0.56
   6  -1 -15    4.10    0.53
  -1  -6 -15    5.24    0.41
   1  -6  15    5.47    0.51
  -6   1  15    4.93    0.62
   1   6  15    4.97    0.54
   1   6  15    4.48    0.58
   6  -1  15    4.25    0.56
   6  -1  15    5.50    0.59
   6   1 -15    5.16    0.62
  -1  -6  15    4.28    0.55
  -6  -1 -15    4.18    0.54
  -1   6 -15    4.32    0.58
  -1  -6  15    4.97    0.54
   6   1 -15    5.12    0.65
   1  -6 -15    4.58    0.65
  -1   6 -15    5.30    0.44
   6  -3 -15    7.39    0.75
  -3   6  15    6.43    0.63
  -6   3 -15    8.55    0.65
  -6   3 -15    7.86    0.59
  -3   6  15    8.17    0.58
   6   3  15    8.33    0.64
   3  -6  15    8.23    0.67
  -6  -3  15    6.83    0.69
   3   6 -15    8.46    0.77
   6  -3 -15    7.87    0.59
   6   3  15    7.98    0.62
  -3  -6 -15    6.48    0.62
   6   3 -15    7.16    0.75
   3   6  15    7.34    0.68
   3   6  15    8.13    0.56
  -3   6 -15    6.81    0.52
   6   3 -15    7.09    0.65
  -6  -3 -15    7.72    0.65
  -3  -6  15    6.77    0.57
  -6   3  15    8.01    0.66
  -3   6 -15    7.07    0.61
   3  -6 -15    5.73    0.73
   6  -3  15    9.22    0.69
   3   6  15    7.82    0.60
  -3  -6  15    8.47    0.70
   5  -6  15    1.60    0.45
   5   6 -15    1.53    0.51
  -6  -5  15    1.05    0.35
  -5   6  15    1.46    0.43
  -6   5 -15    0.98    0.36
  -6   5 -15    1.05    0.40
  -5  -6 -15    1.06    0.32
  -6  -5  15    1.53    0.47
   6   5  15    1.31    0.38
   6  -5 -15    1.58    0.50
   6   5  15    1.48    0.39
   5   6  15    1.18    0.36
  -6  -5 -15    0.55    0.44
  -5   6 -15    1.82    0.37
  -5  -6  15    1.04    0.34
   5  -6 -15    1.37    0.49
  -6  -5 -15    0.86    0.30
  -5  -6  15    0.87    0.44
   5   6  15    1.23    0.38
  -5   6 -15    1.13    0.39
   6  -5  15    1.19    0.39
  -6   5  15    1.46    0.43
   6   5 -15    1.62    0.51
   5   6  15    1.54    0.48
   7   0 -15    0.08    0.39
  -7   0  15   -0.59    0.36
   7   0  15    0.24    0.34
   7   0  15    0.89    0.37
   7   0 -15   -0.26    0.39
   0  -7  15    0.09    0.31
   0   7  15    0.06    0.34
   0  -7 -15    0.16    0.39
   0   7 -15    0.45    0.39
  -7   0 -15   -0.44    0.32
   0   7  15    0.06    0.34
   0  -7  15    0.03    0.33
  -2   7  15   11.85    0.68
   7   2  15   11.09    0.71
   2   7 -15   12.00    0.82
   7   2  15   11.76    0.75
   7  -2 -15   11.77    0.81
  -7  -2  15   10.49    0.80
  -2  -7 -15   11.58    0.73
  -7   2 -15   11.47    0.72
   7  -2 -15   11.34    0.71
   2  -7  15   12.42    0.74
   7  -2  15   11.92    0.75
  -2  -7  15   11.84    0.65
  -2   7 -15   11.03    0.73
  -7   2  15   11.49    0.77
  -7  -2 -15   11.61    0.77
   7   2 -15   10.76    0.82
   2   7  15   11.46    0.71
  -2  -7  15   10.85    0.75
   7  -2  15   13.41    0.77
   2   7  15   11.75    0.78
   7   2 -15   11.94    0.75
  -2   7 -15   10.84    0.62
   2  -7 -15   11.35    0.80
  -7   4 -15    0.59    0.35
  -7  -4  15    1.24    0.45
   7  -4 -15    0.31    0.42
  -4   7  15   -0.02    0.37
  -4  -7 -15    0.54    0.32
   7   4  15   -0.07    0.35
  -4  -7 -15    0.35    0.33
  -7   4 -15    0.83    0.39
   7   4  15    0.11    0.37
  -4   7  15   -0.10    0.32
   4  -7  15    0.23    0.38
   4   7 -15    0.98    0.50
  -4  -7  15    0.30    0.45
   4   7  15   -0.17    0.44
   7   4 -15    0.42    0.49
   4   7  15    0.21    0.32
  -4  -7  15    0.45    0.32
   4  -7 -15    0.40    0.42
  -4   7 -15    0.42    0.32
   7  -4  15    1.14    0.42
  -4   7 -15    0.63    0.36
  -7   4  15    0.48    0.38
  -7  -4 -15    0.37    0.45
  -6   7  15    5.55    0.71
  -7  -6  15    4.48    0.59
   6   7 -15    5.70    0.70
  -7   6 -15    5.05    0.70
  -7   6 -15    4.90    0.65
   6  -7  15    5.06    0.72
  -6  -7 -15    3.97    0.47
   7   6  15    4.06    0.51
   7  -6 -15    4.40    0.61
   7   6 -15    4.35    0.65
  -6   7 -15    5.52    0.69
   6  -7 -15    4.84    0.63
  -6   7 -15    3.71    0.50
  -7  -6 -15    4.98    0.55
  -6  -7  15    4.30    0.63
  -7   6  15    5.09    0.71
   6   7  15    4.82    0.65
  -7  -6 -15    5.62    0.79
   6   7  15    3.57    0.48
   7  -6  15    6.54    0.74
   8   1  15    7.49    0.64
  -1  -8 -15    7.62    0.71
  -1   8  15    6.10    0.68
   1   8 -15    5.73    0.77
   8   1  15    5.04    0.66
   8  -1 -15    5.72    0.72
   8  -1 -15    8.02    0.69
   1  -8  15    6.65    0.64
  -1   8  15    6.46    0.60
  -8   1 -15    6.34    0.69
  -8  -1  15    6.85    0.75
   1  -8  15    6.98    0.64
   8   1 -15    6.32    0.75
   8  -1  15    6.58    0.67
   8  -1  15    6.83    0.69
   1  -8 -15    7.69    0.73
  -1   8 -15    6.17    0.55
  -1  -8  15    7.30    0.68
   8   1 -15    7.76    0.73
   1   8  15    5.86    0.75
   1   8  15    6.82    0.66
  -8  -1 -15    6.79    0.72
  -1  -8  15    7.41    0.61
  -1   8 -15    5.52    0.65
  -8   1  15    7.52    0.74
   8   3  15    1.24    0.40
   8  -3 -15    1.00    0.50
   8   3  15    0.95    0.42
   3  -8  15    1.18    0.42
  -8  -3  15    0.96    0.48
   3   8 -15    1.45    0.54
  -3  -8 -15    0.74    0.40
  -8   3 -15    1.37    0.43
  -3  -8 -15    1.09    0.39
  -3   8  15    1.19    0.39
  -3   8  15    1.42    0.43
  -3   8 -15    0.86    0.41
   8   3 -15    1.04    0.49
  -8  -3 -15    0.66    0.45
  -8   3  15    1.48    0.44
   8  -3  15    1.26    0.41
   3   8  15    1.73    0.49
  -3  -8  15    1.47    0.37
   8  -3  15    2.08    0.43
  -3  -8  15    1.31    0.47
  -3   8 -15    1.02    0.36
   3  -8 -15    1.58    0.51
  -5   8  15   -0.49    0.34
  -5  -8 -15   -0.03    0.37
   5   8 -15   -1.06    0.46
  -8  -5  15    0.06    0.47
   5  -8  15    0.79    0.43
  -5   8  15    0.08    0.42
  -8   5 -15    0.11    0.40
   8  -5 -15   -0.05    0.42
  -8   5 -15    1.15    0.44
   8   5  15    0.12    0.39
   5   8  15    0.35    0.48
  -5  -8  15    0.74    0.49
  -8   5  15    0.14    0.41
   5  -8 -15   -0.25    0.44
  -5   8 -15    0.02    0.34
  -5   8 -15   -0.11    0.37
   8   5 -15    0.73    0.52
  -8  -5 -15    0.45    0.49
   8  -5  15   -0.72    0.39
   8   7  15    8.05    0.77
   7  -8  15    8.43    0.82
  -7   8  15    7.94    0.81
  -7  -8 -15    6.86    0.66
   7   8 -15    8.78    0.95
   8  -7 -15    7.08    0.91
  -8   7 -15    7.16    0.75
  -8   7 -15    7.29    0.78
  -8  -7  15    8.76    0.93
  -7   8 -15    8.08    0.77
   8   7 -15    8.91    0.97
  -7  -8  15    7.96    0.89
  -7   8 -15    7.26    0.78
   7   8  15    6.78    0.71
   8  -7  15    8.35    0.82
  -8  -7 -15    7.16    0.91
   7   8  15    7.64    0.92
  -8   7  15    8.20    0.79
   7  -8 -15    6.98    0.91
   0   9  15   -0.41    0.38
   9   0 -15    0.11    0.44
   0  -9 -15   -0.64    0.39
   0   9 -15   -0.24    0.42
   0   9  15    0.27    0.42
   0  -9  15    0.42    0.37
   9   0  15    0.02    0.38
   0  -9  15    0.32    0.42
   9   0 -15   -0.03    0.43
  -9   0 -15    0.15    0.44
   9   0  15   -0.23    0.40
  -9   0  15    0.05    0.44
   2   9 -15    0.13    0.49
  -9  -2  15    0.12    0.43
   9  -2 -15   -0.46    0.45
  -2  -9 -15    0.26    0.41
   9  -2 -15    0.06    0.41
  -2   9  15   -0.13    0.40
  -9   2 -15    1.05    0.46
  -2  -9 -15    0.04    0.36
  -2   9  15   -0.19    0.40
   9   2  15   -0.26    0.39
   2  -9  15   -0.07    0.38
  -2   9 -15   -0.64    0.31
  -2  -9  15    0.33    0.35
  -2  -9  15    0.13    0.43
   9  -2  15    0.28    0.39
  -9  -2 -15    0.01    0.46
  -9   2  15   -0.67    0.37
   9   2 -15    0.81    0.51
   2  -9 -15   -0.10    0.42
   9  -2  15   -0.45    0.39
   2   9  15   -0.27    0.39
  -2   9 -15    0.46    0.41
   2   9  15    0.10    0.44
   9   4  15    0.41    0.43
  -4  -9 -15    0.02    0.39
   4   9 -15    0.24    0.51
  -9   4 -15    0.19    0.42
   4  -9  15   -0.07    0.41
   9  -4 -15    0.19    0.51
  -4   9  15    0.40    0.40
  -9  -4  15    1.15    0.48
  -4   9  15    0.10    0.43
   9  -4  15   -0.06    0.43
   4   9  15    0.12    0.48
  -4   9 -15    0.09    0.41
  -4   9 -15    0.40    0.37
  -9   4  15    0.21    0.41
   4  -9 -15   -0.20    0.46
  -4  -9  15    0.60    0.48
  -9  -4 -15    0.48    0.50
   9   4 -15    0.90    0.48
   9  -4  15   -0.37    0.37
   6   9 -15   -0.64    0.50
  -6   9  15    0.26    0.44
  -9   6 -15    0.41    0.45
   9   6  15   -0.55    0.43
  -9  -6  15   -0.77    0.47
  -6  -9 -15   -0.33    0.37
   6  -9  15   -0.86    0.42
  -9   6 -15   -0.15    0.40
   9  -6 -15    0.02    0.50
  -6   9 -15   -0.16    0.39
   9  -6  15    0.34    0.47
   6   9  15   -0.48    0.52
  -6   9 -15    0.11    0.39
  -9  -6 -15    0.30    0.56
  -9   6  15   -0.14    0.43
   6  -9 -15    0.34    0.53
  -6  -9  15   -0.48    0.50
   9   6 -15    0.07    0.56
   9   8  15    0.63    0.49
  -8   9  15    1.30    0.52
   8   9 -15    0.58    0.60
  -9  -8  15    1.65    0.61
   9  -8 -15    0.68    0.60
  -9   8 -15    0.93    0.51
  -9   8 -15    0.89    0.46
   8  -9  15    0.00    0.48
  -8  -9 -15   -0.21    0.40
   9  -8  15   -0.51    0.49
  -8  -9  15    0.65    0.55
   9   8 -15    0.31    0.60
  -8   9 -15    1.43    0.52
  -9  -8 -15    0.68    0.63
  -9   8  15    0.04    0.48
   8   9  15   -0.25    0.53
   8  -9 -15   -0.33    0.55
   1 -10  15    0.70    0.40
 -10  -1  15    0.81    0.48
  -1  10  15    1.27    0.48
  10  -1 -15    1.04    0.48
 -10   1 -15    0.83    0.51
  10  -1 -15    0.71    0.46
   1  10 -15    2.04    0.56
  -1  10  15    2.01    0.50
  10   1  15    0.80    0.44
  -1 -10 -15    0.37    0.41
  -1 -10 -15    0.55    0.45
   1  10  15    0.32    0.51
  10  -1  15    1.41    0.49
 -10  -1 -15    1.25    0.51
  -1  10 -15    0.95    0.49
  -1 -10  15    1.10    0.40
  10  -1  15    0.74    0.44
   1 -10 -15    1.36    0.47
 -10   1  15    1.03    0.49
  -1 -10  15    0.31    0.46
  10   1 -15    0.39    0.52
   1  10  15    0.55    0.42
   3  10 -15    0.92    0.56
   3 -10  15    1.11    0.46
 -10   3 -15    0.78    0.49
 -10  -3  15    0.91    0.54
  -3 -10 -15    0.47    0.44
  -3  10  15    0.01    0.45
  10  -3 -15    1.29    0.52
  10   3  15    1.65    0.52
  -3  10  15    0.96    0.45
  10   3 -15   -0.14    0.53
  10  -3  15    0.99    0.47
  -3  10 -15    0.38    0.42
  10  -3  15    1.16    0.43
   3 -10 -15    1.21    0.53
  -3  10 -15    1.27    0.42
  -3 -10  15    0.75    0.53
 -10  -3 -15    0.85    0.57
 -10   3  15    0.66    0.46
   3  10  15    0.54    0.53
   5  10 -15    0.54    0.57
  -5 -10 -15   -0.43    0.43
   5 -10  15   -0.41    0.39
  10   5  15   -0.42    0.46
  -5  10  15    0.44    0.44
 -10   5 -15    0.12    0.48
  10  -5 -15   -0.30    0.48
 -10   5 -15    0.32    0.45
 -10  -5  15    0.32    0.52
  -5  10  15    0.63    0.48
  10  -5  15   -0.04    0.47
   5 -10 -15   -0.42    0.52
  10   5 -15    0.17    0.55
 -10   5  15    0.40    0.45
   5  10  15    0.42    0.55
  -5 -10  15   -0.77    0.48
  10  -5  15    0.22    0.42
  -5  10 -15    0.20    0.43
 -10  -5 -15    0.79    0.61
 -10   7 -15    1.83    0.57
  10  -7 -15    2.53    0.67
  -7  10  15    1.81    0.56
 -10  -7  15    1.29    0.61
  10   7  15    0.85    0.53
   7 -10  15    0.30    0.50
 -10   7 -15    1.39    0.51
  -7 -10 -15    0.65    0.45
   7  10 -15    0.44    0.59
  10   7 -15    1.69    0.66
  -7  10 -15    0.67    0.49
 -10   7  15    1.95    0.56
   7  10  15    1.21    0.61
   7 -10 -15    2.04    0.63
  10  -7  15    1.41    0.54
 -10  -7 -15    2.04    0.71
  -7 -10  15    1.18    0.59
   9  10 -15    0.08    0.60
  -9  10  15    0.26    0.52
 -10   9 -15    0.42    0.54
   9 -10  15   -0.83    0.44
  10   9  15   -0.30    0.49
  10  -9 -15    0.64    0.64
 -10  -9  15   -0.02    0.60
  10   9 -15   -0.69    0.62
  10  -9  15    0.26    0.56
  -9  10 -15    0.50    0.52
 -10   9  15    0.88    0.54
 -10  -9 -15   -0.47    0.63
   9  10  15   -0.91    0.56
   9 -10 -15    1.06    0.64
  -9 -10  15   -0.08    0.55
   0  11  15   -0.79    0.43
   0 -11 -15   -0.90    0.39
   0 -11  15    0.35    0.47
  11   0  15   -0.13    0.46
   0 -11 -15   -0.48    0.44
 -11   0  15   -0.43    0.45
  11   0 -15   -0.39    0.49
   0  11  15   -0.22    0.47
   0 -11  15    0.23    0.41
   0  11 -15   -0.22    0.50
 -11   0 -15   -0.54    0.50
   2  11 -15    4.70    0.70
  -2 -11 -15    4.99    0.66
 -11   2 -15    4.24    0.65
  11   2  15    4.41    0.64
 -11  -2  15    4.75    0.66
  -2  11  15    5.43    0.69
  11  -2 -15    6.27    0.87
   2 -11  15    4.61    0.58
  -2  11  15    7.38    0.85
  -2  11 -15    6.31    0.69
  11   2 -15    4.99    0.67
  11  -2  15    4.36    0.61
 -11  -2 -15    4.30    0.70
 -11   2  15    5.72    0.79
  11  -2  15    4.99    0.63
   2  11  15    5.27    0.70
  -2  11 -15    6.04    0.74
  -2 -11  15    5.02    0.66
   2 -11 -15    4.89    0.63
   4 -11  15    1.49    0.49
  -4  11  15    1.42    0.52
  -4 -11 -15    1.87    0.56
  11  -4 -15    0.78    0.58
  11   4  15    1.38    0.53
 -11   4 -15    1.78    0.54
  -4  11  15    1.03    0.49
   4  11 -15    0.44    0.60
 -11  -4  15    1.12    0.57
   4  11  15    1.37    0.61
 -11   4  15    1.04    0.48
   4 -11 -15    2.00    0.59
 -11  -4 -15    1.18    0.62
  -4 -11  15    1.60    0.58
  -4  11 -15    1.79    0.49
  11  -4  15    1.37    0.49
  11  -4  15    2.03    0.55
  11   4 -15    1.44    0.58
  11  -6 -15    2.58    0.71
 -11  -6  15    3.04    0.66
  -6  11  15    3.27    0.57
   6 -11  15    2.91    0.60
   6  11 -15    3.34    0.71
  11   6  15    2.79    0.61
 -11   6 -15    3.52    0.59
  -6 -11 -15    2.92    0.59
  -6  11  15    2.62    0.62
 -11   6 -15    3.89    0.67
   6  11  15    4.28    0.74
   6 -11 -15    2.72    0.65
  11   6 -15    3.30    0.69
  -6  11 -15    3.64    0.59
 -11   6  15    3.65    0.62
 -11  -6 -15    2.32    0.72
  11  -6  15    2.61    0.63
  -6 -11  15    3.52    0.71
  -8  11  15    0.58    0.55
   8  11 -15   -0.61    0.60
   8 -11  15    0.42    0.57
 -11   8 -15    0.22    0.57
 -11  -8  15   -0.26    0.56
  -8 -11 -15    0.23    0.49
  11   8  15    0.33    0.57
  11  -8 -15    0.88    0.65
  11   8 -15   -0.70    0.61
   8 -11 -15    0.19    0.62
  -8  11 -15   -0.46    0.51
  -8 -11  15   -0.15    0.61
  11  -8  15   -0.35    0.54
 -11  -8 -15    0.54    0.70
   8  11  15    0.95    0.64
 -11   8  15    0.72    0.55
 -10  11  15    1.15    0.58
 -11  10  15    0.20    0.53
   1  12 -15    0.65    0.57
  12  -1 -15    0.73    0.52
   1 -12  15    0.54    0.46
  -1 -12 -15    0.99    0.52
  12   1  15    1.18    0.53
  -1  12  15    0.88    0.56
 -12  -1  15    0.77    0.53
 -12   1 -15    0.31    0.56
  12   1 -15    0.68    0.56
   1 -12 -15    0.52    0.50
  12  -1  15    0.05    0.51
   1 -12 -15    1.34    0.56
   1  12  15    0.72    0.58
 -12   1  15    0.55    0.52
 -12  -1 -15    1.34    0.64
  -1 -12  15    0.60    0.52
  -3 -12 -15   10.76    0.96
 -12  -3  15    9.92    0.98
 -12   3 -15   11.65    1.02
  -3  12  15    9.70    1.02
  12   3  15   12.11    1.00
   3  12 -15   11.33    1.04
  12  -3 -15   12.54    1.06
  -3  12  15   11.58    0.98
   3 -12  15   10.68    0.86
  12   3 -15   11.17    1.05
 -12   3  15   11.16    0.93
  12  -3  15   10.49    0.93
  -3 -12  15   12.52    1.03
  12  -3  15   10.85    0.92
   3 -12 -15   10.29    0.95
  -3  12 -15   12.10    0.92
   3  12  15   13.30    1.10
 -12  -3 -15   12.08    1.13
  -5  12  15    3.07    0.60
 -12   5 -15    3.98    0.70
  -5 -12 -15    3.89    0.65
  12  -5 -15    3.22    0.69
  12   5  15    1.57    0.62
   5 -12  15    2.89    0.61
 -12  -5  15    3.24    0.71
  -5  12  15    2.78    0.63
   5  12 -15    2.54    0.69
  -5 -12  15    3.25    0.72
  12  -5  15    3.07    0.60
  12  -5  15    2.93    0.63
 -12   5  15    5.02    0.67
   5 -12 -15    2.26    0.67
 -12  -5 -15    3.69    0.76
  -5  12 -15    3.00    0.58
   5  12  15    1.87    0.66
  12   5 -15    2.35    0.64
 -12   7 -15    1.54    0.64
  12   7  15    0.61    0.57
  12  -7 -15    1.74    0.67
   7  12 -15    1.46    0.68
  -7  12  15    0.82    0.58
  -7 -12 -15    0.78    0.58
 -12  -7  15    1.00    0.63
   7 -12  15    1.54    0.58
   7  12  15    1.28    0.71
  -7 -12  15    1.42    0.68
  12  -7  15    1.54    0.60
 -12  -7 -15    1.60    0.72
  12   7 -15    1.09    0.70
  -7  12 -15    1.24    0.56
 -12   7  15    1.02    0.56
   7 -12 -15    1.47    0.69
  12   9  15    0.36    0.68
  13   0  15   -0.28    0.54
  13   0 -15    1.25    0.58
 -13   0  15    0.39    0.55
 -13   0 -15    0.48    0.59
   0  13  15   -0.37    0.56
   0 -13 -15    0.31    0.56
   2 -13  15    1.12    0.49
  -2 -13 -15    1.26    0.59
 -13  -2  15    1.08    0.60
  13   2  15    0.63    0.58
 -13   2 -15    1.52    0.65
  -2  13  15    2.11    0.64
   2 -13 -15    0.32    0.57
  13  -2  15    1.17    0.55
 -13  -2 -15    1.81    0.67
  13   2 -15    1.13    0.59
   2  13  15    2.51    0.68
  -2 -13  15    1.22    0.62
   2 -13 -15    1.09    0.58
 -13   2  15    1.20    0.56
  -4  13  15    0.51    0.56
  13   4  15    1.07    0.59
 -13   4 -15   -0.64    0.54
  -4  13  15    0.40    0.54
   4 -13  15    0.19    0.49
  13  -4 -15   -1.07    0.50
 -13  -4  15   -0.28    0.55
   4  13 -15   -0.54    0.58
  -4 -13 -15    0.40    0.55
 -13   4  15   -0.39    0.51
   4  13  15    0.17    0.60
 -13  -4 -15    1.00    0.69
  13  -4  15   -0.45    0.46
   4 -13 -15   -0.30    0.55
  -4  13 -15   -0.73    0.47
  13   4 -15    0.13    0.57
  -4 -13  15   -0.48    0.58
  13  -4  15   -0.69    0.50
 -13   6 -15    0.94    0.62
 -13  -6  15    0.71    0.66
  -6 -13 -15    1.51    0.61
   6  13 -15    0.22    0.64
  -6  13  15    0.29    0.57
  -6  13  15    0.62    0.60
   6 -13  15    1.45    0.59
  13   6  15    1.14    0.65
 -13   6 -15    1.06    0.56
  13  -6 -15    1.10    0.66
  -6  13 -15    1.05    0.58
   6  13  15    0.33    0.63
  -6 -13  15    0.26    0.61
  13  -6  15    1.86    0.57
  13  -6  15    0.62    0.58
   6 -13 -15    0.75    0.64
 -13   6  15    0.27    0.59
  -1 -14 -15    0.72    0.60
  -1  14  15    0.06    0.58
 -14  -1  15    0.00    0.59
  14   1  15    0.44    0.57
 -14   1 -15   -0.72    0.57
 -14   1  15    0.51    0.58
  14   1 -15    0.80    0.60
  14  -1  15    0.95    0.60
   1  14  15   -0.31    0.59
 -14  -1 -15   -0.43    0.64
   1 -14 -15   -0.77    0.54
  -3  14  15    0.62    0.64
 -14   3 -15   -0.43    0.61
 -14  -3  15   -1.16    0.52
   3 -14 -15   -0.49    0.54
  -3 -14  15   -0.45    0.58
 -14   3  15    0.15    0.52
  14  -3  15   -0.13    0.52
   3  14  15   -1.16    0.61
  14   3 -15   -0.20    0.60
  -5  14  15    0.53    0.60
  14  -5 -15   -1.01    0.58
   5 -14  15   -0.25    0.54
  14  -5  15    0.26    0.57
   5 -14 -15   -0.18    0.66
  -5  14 -15   -0.19    0.54
  14  -5  15    0.10    0.53
 -15   0  15    0.90    0.63
   0   0 -16  522.11   10.01
   0   0  16  547.91    9.93
   0   0 -16  552.23    9.62
   0   0  16  538.39    9.77
   1  -1 -16   -0.04    0.25
   1  -1  16   -0.11    0.22
  -1  -1 -16    0.36    0.19
  -1   1  16    0.04    0.26
  -1  -1  16   -0.18    0.29
  -1   1  16    0.17    0.30
  -1  -1 -16   -0.38    0.24
  -1   1 -16   -0.06    0.30
   1   1  16   -0.11    0.22
   1   1 -16    0.11    0.30
  -1  -1  16    0.00    0.27
   1  -1  16   -0.34    0.29
  -1   1 -16   -0.10    0.15
   1   1  16   -0.17    0.30
   0   2 -16   -0.45    0.28
   0   2  16   -0.08    0.33
   0  -2  16    0.39    0.27
  -2   0 -16   -0.28    0.25
   0  -2 -16   -0.31    0.24
  -2   0 -16   -0.02    0.18
  -2   0  16   -0.08    0.29
   0   2  16   -0.19    0.25
   0   2  16   -0.37    0.19
   0  -2  16    0.30    0.28
   2   0 -16    0.04    0.28
   2   0  16   -0.09    0.30
   2   0  16   -0.35    0.20
  -2   0  16    0.11    0.33
  -2  -2 -16   -0.24    0.24
  -2  -2  16    0.21    0.31
   2  -2 -16   -0.32    0.25
  -2  -2 -16   -0.08    0.23
   2   2  16    0.05    0.24
  -2   2  16    0.34    0.29
   2   2 -16    0.22    0.33
  -2   2 -16    0.41    0.31
   2  -2  16    0.10    0.21
   2   2  16   -0.27    0.33
  -2   2  16   -0.08    0.34
  -2   2 -16   -0.20    0.17
  -2  -2  16   -0.18    0.30
   2  -2  16   -0.30    0.27
  -1   3  16    0.48    0.30
   3  -1 -16    1.23    0.32
  -3   1 -16    0.30    0.21
  -1  -3 -16    0.44    0.25
  -3  -1  16    0.81    0.34
  -1   3  16    0.31    0.37
  -3  -1  16    0.73    0.35
   3   1  16    0.45    0.22
  -3   1 -16    0.49    0.33
   1  -3  16    0.75    0.26
   3   1  16    1.01    0.35
   1   3 -16    0.83    0.32
   1  -3  16    1.45    0.36
  -1   3  16    0.57    0.24
  -1   3 -16    0.41    0.18
   3  -1  16    0.69    0.21
   1  -3 -16    0.51    0.25
  -3  -1 -16    0.58    0.31
  -3   1  16    0.70    0.33
  -1   3 -16    0.22    0.31
   1   3  16    0.96    0.28
  -1  -3  16    1.11    0.32
   3  -1  16    0.77    0.35
  -3   1  16    0.17    0.34
   1   3  16    0.71    0.37
  -3  -1 -16    0.74    0.25
  -1  -3  16    0.64    0.29
   1   3  16    0.08    0.26
   3   1 -16    0.77    0.36
   1  -3 -16    0.21    0.42
  -3  -3  16    0.14    0.31
  -3   3 -16   -0.23    0.31
   3  -3  16   -0.30    0.28
  -3   3  16    0.00    0.31
   3   3  16    0.20    0.28
   3  -3 -16   -0.69    0.37
   3   3 -16   -0.31    0.33
  -3  -3 -16   -0.15    0.25
  -3  -3  16   -0.04    0.34
  -3  -3 -16    0.45    0.29
   3  -3 -16   -0.05    0.26
  -3   3 -16   -0.45    0.20
   3   3  16    0.15    0.24
   3   3  16    0.39    0.36
   4   0 -16   10.31    0.65
   4   0 -16   10.95    0.74
   0  -4 -16   10.79    0.76
   0   4  16   10.38    0.59
  -4   0  16   11.45    0.69
   0  -4 -16   11.47    0.52
   4   0  16   11.45    0.46
   0  -4  16   10.32    0.61
   0  -4  16   11.84    0.61
   4   0  16   10.39    0.68
  -4   0  16   10.82    0.68
  -4   0 -16   10.21    0.64
   0   4 -16   10.02    0.66
  -4   0 -16   11.35    0.55
   0   4  16   10.79    0.61
  -4   2 -16   -0.30    0.31
   2  -4  16    0.32    0.31
   2  -4  16   -0.17    0.23
  -4   2 -16   -0.61    0.22
   2   4 -16    0.11    0.36
  -4  -2  16   -0.03    0.34
   4   2  16   -0.02    0.23
   4   2  16   -0.44    0.31
  -4  -2  16    0.50    0.34
  -2   4  16    0.05    0.24
   4  -2 -16   -0.31    0.27
   4  -2 -16    0.03    0.38
  -2  -4 -16    0.07    0.25
  -2   4  16    0.37    0.34
   4   2  16    0.17    0.31
   2  -4 -16   -0.38    0.22
   4   2 -16    0.09    0.38
   4  -2  16   -0.24    0.34
   2   4  16   -0.15    0.36
   2   4  16   -0.04    0.27
  -2   4 -16    0.01    0.20
   2  -4 -16    0.32    0.39
   2   4  16    0.04    0.30
  -2  -4  16   -0.16    0.31
  -2  -4  16    0.04    0.32
  -4  -2 -16    0.26    0.28
  -4   2  16   -0.43    0.27
  -2   4 -16    0.46    0.32
  -4   4 -16  352.15    6.85
   4   4  16  356.37    6.74
  -4  -4 -16  350.93    6.76
   4   4  16  360.81    6.70
  -4   4  16  357.78    6.84
   4  -4 -16  355.45    6.69
   4  -4 -16  353.27    6.76
  -4  -4  16  355.25    6.86
   4  -4  16  366.16    6.68
   4   4  16  359.94    6.80
  -4  -4  16  361.33    6.58
  -4   4 -16  352.53    6.61
   4   4  16  355.81    6.65
   4   4 -16  342.87    6.90
   5   1  16    0.47    0.35
  -1   5  16    0.64    0.34
  -5  -1  16    0.14    0.36
   1   5 -16    0.62    0.38
  -5   1 -16    0.74    0.36
   1  -5  16    0.29    0.28
   5   1  16    0.55    0.34
   1  -5  16    0.82    0.36
  -1  -5 -16    0.94    0.26
  -5   1 -16    0.12    0.28
  -1   5  16    0.08    0.30
   5  -1 -16    0.71    0.41
   5  -1 -16    0.76    0.38
  -1  -5 -16    0.76    0.41
   5   1 -16    0.52    0.39
   1  -5 -16    0.68    0.24
   1   5  16    0.75    0.30
  -5   1  16    0.35    0.35
   1   5  16    0.86    0.34
  -1  -5  16    0.14    0.32
  -5  -1 -16    0.88    0.33
  -1   5 -16    0.68    0.25
  -1   5 -16    1.01    0.39
  -1  -5  16    0.49    0.34
   5   1 -16    0.05    0.38
   1  -5 -16    0.43    0.40
   5  -1  16    0.85    0.36
  -3   5  16    1.12    0.38
   3   5 -16    1.72    0.42
   3  -5  16    1.94    0.40
  -5   3 -16    1.72    0.34
   5   3  16    1.49    0.41
  -5   3 -16    1.95    0.41
  -5  -3  16    1.66    0.38
   5   3  16    1.72    0.37
   5   3  16    1.78    0.31
   5  -3 -16    2.18    0.47
  -5  -3  16    2.04    0.42
   5  -3 -16    1.71    0.37
  -3  -5  16    1.77    0.42
  -5   3  16    1.30    0.39
  -3   5 -16    1.89    0.40
   3   5  16    2.30    0.44
   5  -3  16    1.29    0.36
  -5  -3 -16    1.70    0.36
   3  -5 -16    0.92    0.47
   3   5  16    2.14    0.41
   5   3 -16    0.66    0.44
   3   5  16    1.65    0.34
  -3  -5  16    1.67    0.37
   3   5  16    1.74    0.36
  -3   5 -16    2.20    0.32
   5  -5 -16    0.00    0.39
  -5  -5 -16    0.03    0.26
  -5  -5  16   -0.27    0.30
   5  -5  16   -0.29    0.37
  -5  -5  16    0.31    0.43
   5   5  16   -0.37    0.31
   5   5  16   -0.71    0.35
   5   5 -16   -0.02    0.43
  -5   5 -16    0.03    0.30
  -5   5 -16   -0.57    0.35
   5   5  16    0.62    0.40
  -5   5  16   -0.34    0.35
   0  -6 -16   -0.64    0.37
   6   0  16    0.35    0.33
   6   0 -16   -0.03    0.38
   0  -6  16    0.07    0.32
  -6   0 -16   -0.18    0.30
   0   6  16   -0.04    0.33
   6   0  16    0.05    0.35
   0  -6  16    0.10    0.32
   6   0 -16   -1.04    0.35
   0   6 -16    0.20    0.36
  -6   0  16    0.20    0.33
   0   6  16   -0.14    0.31
  -6   2 -16   -0.08    0.30
  -2   6  16   -0.18    0.31
  -2  -6 -16   -0.19    0.35
  -6   2 -16    0.52    0.35
  -2  -6 -16   -0.07    0.24
   6  -2 -16    0.86    0.38
   6   2  16    0.20    0.34
   6  -2 -16    0.34    0.42
   2  -6  16   -0.06    0.36
   2   6 -16    0.11    0.41
  -2   6  16   -0.52    0.29
   6   2  16    0.30    0.35
  -6  -2  16    0.26    0.37
  -2  -6  16    0.14    0.35
  -2   6 -16    0.18    0.25
   2  -6 -16   -0.60    0.41
   6  -2  16    0.02    0.36
   2   6  16   -0.53    0.29
  -6   2  16    0.32    0.37
  -6  -2 -16   -0.01    0.33
   6   2 -16    0.23    0.40
   2   6  16    0.19    0.38
  -2   6 -16   -0.18    0.34
   6   2 -16    0.09    0.38
  -2  -6  16   -0.43    0.30
  -6  -4  16    0.15    0.31
   4   6 -16   -0.31    0.45
  -4   6  16   -0.73    0.36
  -6  -4  16   -0.31    0.36
  -6   4 -16   -0.12    0.35
  -6   4 -16   -0.01    0.32
   6   4  16    0.56    0.37
   6   4  16    0.10    0.36
   4  -6  16   -0.07    0.39
   6  -4 -16    0.75    0.48
  -4  -6 -16   -0.20    0.34
  -4  -6 -16    0.08    0.29
  -4   6 -16   -0.14    0.29
   6  -4  16    0.46    0.42
  -6  -4 -16    0.52    0.38
  -4  -6  16    0.25    0.41
   6   4 -16    0.09    0.42
  -4   6 -16   -0.65    0.34
   4  -6 -16    0.10    0.45
   4   6  16    0.02    0.32
  -6   4  16    0.02    0.38
  -4  -6  16    0.19    0.32
   4   6  16    0.76    0.42
  -6  -4 -16    0.07    0.26
   4   6  16   -0.08    0.31
  -6   6 -16    0.15    0.37
   6   6  16   -0.02    0.37
  -6   6 -16    0.05    0.36
  -6  -6  16    0.00    0.46
   6   6 -16   -0.29    0.46
  -6  -6 -16    0.32    0.30
   6   6  16   -0.12    0.43
  -6   6  16   -0.31    0.37
   6  -6 -16   -0.41    0.46
   6  -6  16    0.52    0.41
   7   1  16    1.85    0.42
  -7  -1  16    1.08    0.46
   1  -7  16    0.81    0.34
   7  -1 -16    1.09    0.40
   1  -7  16    1.75    0.41
   7  -1 -16    0.46    0.45
  -7   1 -16    1.24    0.40
  -1  -7 -16    0.96    0.42
  -1   7  16    0.66    0.37
  -1   7  16    1.22    0.36
   7   1  16    1.33    0.42
   1   7 -16    1.38    0.45
  -1  -7  16    1.28    0.40
   1   7  16    1.14    0.42
  -7  -1 -16    1.18    0.39
  -1   7 -16    1.09    0.39
   7   1 -16    1.55    0.43
  -1  -7  16    1.67    0.39
  -7   1  16    1.32    0.43
   1  -7 -16    1.09    0.45
   7  -1  16    1.05    0.40
   1   7  16    0.54    0.37
   7   1 -16    0.85    0.42
   7  -1  16    1.35    0.40
  -3   7  16    0.37    0.32
  -7   3 -16    0.38    0.36
   7   3  16    0.44    0.38
   7  -3 -16    0.36    0.37
  -3   7  16   -0.06    0.33
   7   3  16    0.58    0.39
   3   7 -16    0.54    0.48
  -7  -3  16    0.95    0.47
  -3  -7 -16   -0.23    0.34
   7  -3 -16    0.18    0.47
   3  -7  16    0.89    0.41
  -7   3 -16    0.59    0.40
   3  -7 -16   -0.49    0.44
   7  -3  16   -0.17    0.37
   7   3 -16    0.80    0.40
  -7  -3 -16    0.44    0.42
   3   7  16    0.48    0.37
  -3  -7  16    0.59    0.41
   7   3 -16    1.17    0.50
  -3   7 -16   -0.18    0.29
  -3   7 -16    0.08    0.36
  -7   3  16    0.30    0.39
  -3  -7  16    0.14    0.33
   3   7  16    0.77    0.43
  -5   7  16    2.54    0.51
  -7   5 -16    2.27    0.45
   7  -5 -16    3.08    0.60
  -5  -7 -16    3.01    0.43
  -7   5 -16    2.60    0.47
   5  -7  16    2.53    0.50
   5   7 -16    2.74    0.61
  -7  -5  16    3.33    0.56
   7   5  16    2.36    0.47
  -5  -7  16    2.22    0.53
  -7  -5 -16    3.45    0.56
   7   5 -16    3.41    0.62
   5  -7 -16    2.86    0.58
   5   7  16    2.68    0.43
  -5   7 -16    1.48    0.38
   5   7  16    3.20    0.55
   7  -5  16    3.13    0.53
  -7   5  16    3.43    0.52
  -5   7 -16    3.74    0.50
   7   7  16    0.56    0.52
  -7   7 -16   -0.19    0.40
  -7  -7  16   -0.30    0.48
  -7   7 -16    0.37    0.42
   7   7 -16   -0.94    0.50
   7   7  16   -0.23    0.36
  -7  -7 -16   -0.42    0.32
  -7  -7 -16   -0.81    0.48
  -7   7  16    0.60    0.44
   7  -7  16    0.64    0.46
   7  -7 -16    0.38    0.51
   0   8  16  237.78    4.80
  -8   0 -16  238.02    4.81
   8   0  16  242.57    4.71
   0   8 -16  233.82    4.87
  -8   0  16  243.43    4.92
   8   0 -16  239.72    4.88
   0  -8  16  242.45    4.79
   0  -8  16  244.44    4.67
   8   0 -16  244.04    4.74
   0  -8 -16  240.05    4.75
   8   0  16  232.73    4.88
   0   8  16  238.04    4.85
  -2   8  16    0.08    0.39
   8   2  16    0.45    0.39
   2   8 -16   -0.38    0.45
  -2   8  16   -0.13    0.36
  -2  -8 -16    0.08    0.39
   2  -8  16    0.33    0.40
  -8   2 -16    0.04    0.40
  -8  -2  16    0.28    0.41
   8  -2 -16   -0.83    0.43
   8   2  16   -0.72    0.37
   8  -2 -16   -0.28    0.37
   8  -2  16    0.00    0.39
   2   8  16   -0.32    0.37
   2   8  16   -0.17    0.42
  -2  -8  16   -0.14    0.34
   8   2 -16   -0.51    0.43
  -2   8 -16   -0.50    0.36
  -2  -8  16    0.06    0.43
  -8   2  16    0.08    0.41
  -8  -2 -16   -0.55    0.40
   8   2 -16    0.07    0.40
   2  -8 -16    0.64    0.46
  -2   8 -16    0.51    0.32
   8  -2  16    0.41    0.40
   8  -4 -16    0.14    0.47
  -4   8  16    0.64    0.39
  -8  -4  16    0.16    0.47
  -8   4 -16    0.11    0.40
   4  -8  16    0.10    0.42
   4   8 -16    0.14    0.47
  -8   4 -16    0.65    0.42
  -4   8  16   -0.29    0.41
   8   4  16   -0.30    0.41
  -4  -8 -16    1.30    0.41
  -4   8 -16    0.77    0.41
   8   4 -16    0.40    0.51
   8  -4  16    1.10    0.46
  -8   4  16    1.50    0.44
  -8  -4 -16    0.12    0.47
   4   8  16    0.73    0.49
  -4   8 -16    0.75    0.37
   4  -8 -16    1.40    0.47
  -4  -8  16    0.69    0.48
   8   6  16    0.59    0.46
  -8   6 -16    1.03    0.46
  -8   6 -16   -0.14    0.43
  -6   8  16    0.35    0.46
   8  -6 -16    0.75    0.55
   6   8 -16    0.04    0.55
  -8  -6  16    0.19    0.51
  -6  -8 -16    0.62    0.39
   6  -8  16    0.58    0.47
   6   8  16    1.44    0.56
   8   6 -16    1.02    0.57
  -6   8 -16    0.78    0.40
  -6   8 -16    0.68    0.42
  -8   6  16    0.50    0.46
  -8  -6 -16   -0.04    0.49
   6   8  16    1.14    0.42
  -6  -8  16    1.43    0.54
   8  -6  16    0.70    0.47
   6  -8 -16    0.93    0.54
  -8  -8  16  120.55    3.00
  -8   8 -16  119.00    2.80
  -8   8  16  121.54    2.91
   8  -8  16  119.12    2.87
   8   8  16  122.15    2.85
   8   8 -16  118.69    3.03
   8  -8 -16  116.34    2.93
  -8  -8 -16  120.40    3.03
  -8   8 -16  121.88    2.84
  -9   1 -16    0.78    0.47
   9   1  16    1.03    0.44
  -1   9  16    1.89    0.48
   9   1  16    0.70    0.46
  -9  -1  16    1.28    0.50
  -1  -9 -16    1.27    0.43
   1  -9  16    1.29    0.44
  -1   9  16    0.47    0.42
   1   9 -16    1.84    0.51
   9  -1 -16    1.83    0.48
   9  -1 -16    0.91    0.48
   9   1 -16    1.30    0.48
   1   9  16    1.47    0.48
  -9   1  16    0.93    0.47
  -9  -1 -16    0.55    0.46
   9  -1  16    0.72    0.43
   1   9  16    0.14    0.43
  -1  -9  16    0.52    0.39
   9  -1  16    0.73    0.41
   9   1 -16    1.28    0.48
   1  -9 -16    0.95    0.46
  -1   9 -16    0.98    0.45
  -1  -9  16    0.86    0.46
  -9  -3  16    4.52    0.65
   9   3  16    3.28    0.53
  -3  -9 -16    2.07    0.48
   3   9 -16    3.05    0.62
  -3   9  16    2.70    0.51
  -9   3 -16    2.11    0.48
   3  -9  16    2.05    0.45
   9  -3 -16    3.33    0.58
  -3   9  16    2.93    0.49
  -3   9 -16    2.78    0.51
   3   9  16    3.03    0.60
  -3   9 -16    3.73    0.46
  -9  -3 -16    3.29    0.59
   9  -3  16    2.92    0.51
   9   3 -16    2.53    0.57
   3  -9 -16    2.68    0.55
  -3  -9  16    4.06    0.59
  -9   3  16    3.19    0.55
   9  -3  16    3.10    0.53
   9  -5 -16    0.09    0.54
   9   5  16    1.11    0.49
  -5   9  16    0.83    0.45
  -9   5 -16    0.86    0.45
   5  -9  16    0.13    0.46
  -9   5 -16    0.67    0.45
  -5  -9 -16   -0.26    0.40
   5   9 -16   -0.36    0.55
  -9  -5  16    0.39    0.52
   5   9  16    0.08    0.52
   9  -5  16   -0.25    0.45
   5  -9 -16   -0.08    0.50
  -5  -9  16    1.80    0.54
  -5   9 -16    0.08    0.43
   9   5 -16   -0.11    0.55
  -9   5  16    0.33    0.45
  -5   9 -16    0.81    0.40
  -9  -5 -16   -0.45    0.50
  -9   7 -16    3.20    0.57
   7  -9  16    3.52    0.61
   9  -7 -16    2.48    0.60
   9   7  16    2.10    0.55
  -9  -7  16    2.52    0.62
   7   9 -16    2.13    0.67
  -9   7 -16    2.97    0.57
  -7  -9 -16    3.73    0.54
  -7   9  16    2.68    0.57
  -9   7  16    2.45    0.57
  -9  -7 -16    2.94    0.69
  -7   9 -16    3.00    0.52
   7   9  16    2.92    0.66
   9   7 -16    2.17    0.68
  -7  -9  16    3.33    0.64
   9  -7  16    2.21    0.59
   7  -9 -16    2.49    0.65
  -7   9 -16    2.97    0.54
  -9   9 -16   -0.25    0.50
  -9   9  16   -0.49    0.47
  -9  -9 -16   -1.04    0.59
   9   9 -16    0.67    0.63
   9  -9  16   -0.19    0.52
   9   9  16   -0.20    0.50
   9  -9 -16    0.27    0.62
  -9  -9  16    0.00    0.54
  10   0 -16   -0.15    0.48
 -10   0 -16   -0.64    0.45
  10   0  16   -0.04    0.41
   0 -10 -16    0.41    0.45
   0 -10  16   -0.10    0.39
   0  10 -16    0.03    0.47
 -10   0  16   -0.24    0.45
   0  10  16    0.42    0.48
  10   0 -16    0.81    0.46
   0 -10  16   -0.67    0.42
  10   0  16    0.97    0.48
   0  10  16    0.41    0.43
  -2  10  16    0.26    0.44
   2 -10  16    0.15    0.40
 -10  -2  16    0.73    0.50
  10   2  16   -0.15    0.45
  -2  10  16   -0.32    0.41
 -10   2 -16   -0.79    0.44
  -2 -10 -16   -0.03    0.42
   2  10 -16   -0.83    0.50
  10  -2 -16   -0.33    0.46
   2  10  16    0.94    0.53
  -2  10 -16   -0.22    0.42
  10   2 -16   -0.42    0.46
 -10  -2 -16    0.07    0.50
  10  -2  16   -0.96    0.39
  -2 -10  16    0.07    0.46
 -10   2  16   -0.55    0.43
   2 -10 -16   -0.70    0.44
  10  -2  16    0.13    0.43
 -10   4 -16    0.23    0.47
 -10  -4  16   -0.13    0.50
  10  -4 -16   -0.22    0.52
  -4  10  16   -0.29    0.41
  10   4  16   -0.03    0.45
  -4 -10 -16   -0.34    0.43
  -4  10  16    0.07    0.44
   4 -10  16    0.11    0.44
   4  10 -16    0.62    0.57
  -4  10 -16    0.16    0.43
 -10  -4 -16   -0.10    0.52
   4 -10 -16   -0.41    0.47
  10  -4  16   -0.30    0.44
 -10   4  16   -0.38    0.42
  -4 -10  16    0.18    0.53
   4  10  16   -0.53    0.48
  10   4 -16    0.02    0.55
  10  -4  16    0.54    0.43
  -4  10 -16    0.89    0.41
  -6  10  16    0.42    0.49
   6  10 -16    0.75    0.61
  10  -6 -16    0.30    0.57
 -10   6 -16    0.12    0.48
  10   6  16    0.34    0.50
 -10  -6  16    0.19    0.56
 -10   6 -16    1.15    0.47
  -6 -10 -16    0.82    0.47
   6 -10  16    0.24    0.43
  -6 -10  16    0.07    0.51
  -6  10 -16    0.02    0.44
  10   6 -16   -0.61    0.49
  10  -6  16    0.55    0.52
   6 -10 -16    0.45    0.58
   6  10  16    1.16    0.59
 -10  -6 -16   -0.10    0.58
 -10   6  16    0.43    0.48
 -10   8 -16    0.45    0.50
   8  10 -16    0.18    0.58
  -8 -10 -16    0.56    0.47
   8 -10  16   -0.25    0.51
  10  -8 -16    0.25    0.64
  -8  10  16   -0.29    0.48
  10   8  16   -0.16    0.49
 -10  -8  16    1.06    0.61
 -10  -8 -16   -1.09    0.58
  10   8 -16   -0.48    0.60
   8 -10 -16   -0.66    0.58
  10  -8  16   -0.26    0.54
  -8 -10  16    0.02    0.54
  -8  10 -16    0.17    0.48
   8  10  16   -0.10    0.58
 -10   8  16    0.24    0.52
 -10  10  16    0.73    0.56
 -10  10 -16    0.26    0.55
   1  11 -16    1.37    0.59
   1 -11  16    1.37    0.46
  11  -1 -16    1.83    0.56
  -1  11  16    1.13    0.54
 -11   1 -16    1.50    0.57
  11  -1 -16    0.98    0.52
  11   1  16    2.29    0.57
  -1  11  16    1.18    0.51
 -11  -1  16    1.27    0.54
  -1 -11 -16    0.98    0.52
  11  -1  16    0.92    0.50
  -1  11 -16    1.29    0.53
   1  11  16    1.75    0.59
  11  -1  16    2.06    0.54
   1 -11 -16    0.55    0.51
 -11  -1 -16    1.53    0.57
  11   1 -16    1.83    0.59
 -11   1  16    1.72    0.57
  -1 -11  16    1.12    0.54
  -3  11  16    0.65    0.50
   3 -11  16   -0.23    0.41
  11  -3 -16    1.08    0.56
  -3  11  16    0.11    0.48
 -11  -3  16    0.00    0.52
   3  11 -16   -0.07    0.59
  11   3  16   -0.10    0.49
 -11   3 -16   -0.21    0.50
  -3 -11 -16    0.25    0.49
 -11   3  16   -0.24    0.46
 -11  -3 -16    0.34    0.57
  -3 -11  16    0.15    0.54
   3  11  16    1.06    0.56
   3 -11 -16    0.00    0.50
  11  -3  16    0.63    0.46
  11  -3  16    0.90    0.47
  11   3 -16   -0.34    0.58
  11   5  16    1.55    0.58
   5  11 -16    0.89    0.63
  11  -5 -16    1.50    0.64
  -5 -11 -16    2.12    0.56
 -11  -5  16    2.09    0.65
   5 -11  16    2.03    0.54
 -11   5 -16    1.28    0.56
 -11   5 -16    1.74    0.55
  -5  11  16    1.48    0.56
  11  -5  16    1.84    0.53
  -5  11 -16    1.27    0.50
 -11   5  16    1.74    0.55
 -11  -5 -16    2.21    0.69
  11   5 -16    2.81    0.72
   5 -11 -16    2.36    0.64
  11  -5  16    1.56    0.56
  -5 -11  16    3.05    0.67
   5  11  16    2.65    0.67
 -11  -7  16   -0.23    0.55
  11   7  16    0.38    0.55
   7  11 -16    0.03    0.62
 -11   7 -16    0.64    0.55
  11  -7 -16   -0.90    0.57
 -11   7 -16   -0.04    0.47
  -7  11  16   -0.61    0.50
  -7 -11 -16    0.44    0.51
   7 -11  16   -0.29    0.50
   7 -11 -16    0.07    0.64
 -11   7  16    0.49    0.53
  -7  11 -16   -0.06    0.50
  11  -7  16    0.83    0.60
 -11  -7 -16   -0.55    0.63
  -7 -11  16    0.88    0.63
  11   7 -16    0.04    0.63
   7  11  16    0.41    0.64
  11   9  16    2.99    0.68
 -11   9 -16    3.16    0.69
  -9  11  16    3.13    0.69
  -9  11 -16    2.99    0.65
 -11   9  16    2.42    0.64
 -12   0  16    1.09    0.57
   0 -12 -16    1.39    0.56
  12   0 -16    0.08    0.48
 -12   0 -16    0.23    0.59
  12   0  16    1.03    0.56
   0  12  16    1.56    0.60
 -12  -2  16    1.01    0.59
  -2  12  16    0.80    0.53
   2 -12  16    0.44    0.45
  12   2  16   -0.13    0.50
 -12   2 -16    1.28    0.58
  -2 -12 -16    0.49    0.53
  12  -2 -16    0.87    0.55
   2  12 -16    0.96    0.61
  -2  12  16    0.58    0.55
   2  12  16    0.05    0.59
 -12   2  16   -0.02    0.50
   2 -12 -16    0.85    0.52
  12   2 -16    1.08    0.59
  -2 -12  16   -0.36    0.55
  12  -2  16    0.72    0.51
  12  -2  16    0.79    0.50
 -12  -2 -16    1.88    0.64
   4 -12  16   86.10    2.26
 -12   4 -16   86.29    2.38
  12   4  16   82.52    2.37
  -4 -12 -16   85.31    2.35
 -12  -4  16   85.16    2.42
  12  -4 -16   82.82    2.33
  -4  12  16   81.95    2.29
   4  12 -16   85.60    2.40
  -4  12  16   85.96    2.37
  -4 -12  16   87.88    2.42
  12   4 -16   86.00    2.48
  12  -4  16   85.68    2.27
  12  -4  16   82.33    2.34
 -12  -4 -16   85.37    2.50
   4 -12 -16   87.68    2.36
   4  12  16   84.56    2.46
 -12   4  16   86.54    2.34
   6 -12  16    0.26    0.53
 -12   6 -16    0.08    0.49
   6  12 -16    0.63    0.65
  12  -6 -16    0.64    0.67
  -6 -12 -16    0.00    0.52
  12   6  16   -0.17    0.57
 -12   6 -16    0.23    0.59
  -6  12  16    1.09    0.56
 -12  -6  16    0.50    0.62
 -12   6  16    0.09    0.51
  12  -6  16    0.12    0.56
  12   6 -16    0.23    0.59
  -6  12 -16   -0.03    0.49
 -12  -6 -16    0.66    0.69
   6  12  16    0.60    0.65
   6 -12 -16    0.28    0.63
  -6 -12  16   -0.90    0.57
  12   8  16    1.11    0.63
  -8  12  16    1.55    0.69
  -8 -12 -16    2.18    0.64
 -12   8  16    2.65    0.65
  -8  12 -16    0.98    0.58
 -13   1 -16    1.46    0.65
  -1  13  16    0.53    0.58
 -13  -1  16    1.94    0.63
  -1 -13 -16    1.40    0.60
  13   1  16    0.28    0.58
  13   1 -16    1.36    0.59
   1  13  16    1.25    0.63
  13  -1  16    2.55    0.65
 -13   1  16    1.08    0.57
   1 -13 -16    2.07    0.62
 -13  -1 -16    1.19    0.65
 -13   3 -16    2.30    0.66
  -3  13  16    2.75    0.64
  -3  13  16    1.37    0.62
  13   3  16    2.62    0.64
 -13  -3  16    1.75    0.63
   3 -13  16    1.11    0.53
  -3 -13 -16    2.28    0.66
   3  13  16    1.51    0.68
  13  -3  16    2.56    0.61
   3 -13 -16    2.08    0.63
 -13  -3 -16    2.32    0.72
  13   3 -16    2.39    0.63
  -3 -13  16    2.90    0.67
 -13   3  16    1.61    0.58
  13  -3  16    1.64    0.60
   5  13 -16   -0.85    0.59
  -5  13  16   -0.44    0.55
  13   5  16   -0.45    0.56
 -13  -5  16    0.51    0.60
  13  -5 -16    0.82    0.62
   5 -13  16   -0.61    0.47
  -5 -13 -16    0.97    0.58
 -13   5 -16    1.77    0.67
 -13   5  16    1.20    0.60
   5 -13 -16    0.77    0.60
   5  13  16    1.40    0.66
  13   5 -16    1.52    0.68
  13  -5  16    0.13    0.57
 -13  -5 -16   -0.14    0.69
  -5 -13  16   -0.13    0.60
  13  -5  16    0.43    0.54
  -7  13 -16    4.94    0.73
 -14   0  16    0.16    0.60
 -14   0 -16    0.47    0.66
   0  14  16   -1.77    0.55
 -14  -2  16   -0.18    0.56
  -2  14  16   -0.02    0.61
  -2 -14  16   -0.09    0.66
  14   2 -16    0.84    0.56
   2  14  16   -0.08    0.62
 -14   2  16   -0.54    0.53
  14  -2  16   -0.04    0.59
   4 -14  16   -0.17    0.53
  -4  14  16    0.44    0.63
 -14   4  16   -0.53    0.55
   4 -14 -16   -0.65    0.60
  -4 -14  16   -0.07    0.67
  -1   0 -17    0.01    0.30
   1   0  17   -0.03    0.24
   1   0  17    0.26    0.33
   0   1 -17    0.05    0.30
   1   0 -17   -0.13    0.29
   0  -1 -17   -0.09    0.26
   0  -1  17    0.31    0.26
   0   1  17   -0.15    0.34
   0  -1  17    0.26    0.34
  -1   0 -17   -0.08    0.16
   0   1  17   -0.05    0.26
  -1   0  17    0.05    0.27
  -1   0  17   -0.28    0.32
  -2   1 -17    0.22    0.32
   2   1  17    0.02    0.23
  -1   2  17    0.80    0.31
  -2  -1  17    0.81    0.32
   2   1  17    0.06    0.34
   2  -1 -17    0.43    0.29
  -1   2  17    0.47    0.38
  -2   1 -17    0.34    0.19
   1  -2  17    0.36    0.26
  -1  -2 -17    0.56    0.24
   1  -2  17    0.31    0.34
  -2  -1  17   -0.19    0.29
  -1  -2 -17    0.20    0.26
   1   2 -17    0.66    0.33
   2  -1  17    0.42    0.35
   1   2  17    0.58    0.38
  -1  -2  17    0.18    0.29
  -1   2 -17    0.29    0.33
   2   1 -17   -0.07    0.31
  -2  -1 -17    0.37    0.22
   1   2  17    0.52    0.26
  -1  -2  17    0.78    0.35
   1  -2 -17    0.39    0.28
  -2   1  17    0.76    0.32
  -2  -1 -17    0.09    0.30
  -2   1  17    0.85    0.38
   2  -1  17    0.18    0.21
   0   3  17    0.18    0.38
   0   3  17   -0.31    0.26
   3   0 -17   -0.33    0.30
   0  -3  17    0.27    0.29
   0  -3  17    0.40    0.34
   3   0  17    0.44    0.36
   0   3  17    0.35    0.26
  -3   0 -17    0.05    0.32
  -3   0  17   -0.37    0.30
   3   0  17   -0.13    0.20
  -3   0  17    0.08    0.36
   0  -3 -17    0.10    0.23
   0   3 -17    0.23    0.30
  -3   0 -17    0.29    0.21
  -3  -2  17    0.47    0.35
  -2   3  17    0.25    0.29
   3   2  17    0.78    0.26
   2   3 -17    0.50    0.38
  -2  -3 -17    0.40    0.28
  -3   2 -17    0.68    0.33
  -3   2 -17    0.30    0.22
   3  -2 -17    0.06    0.29
  -3  -2  17    0.49    0.34
   2  -3  17    0.51    0.25
   3   2  17   -0.20    0.34
   2  -3  17    0.02    0.31
   3  -2 -17   -0.04    0.36
  -2  -3  17    0.59    0.36
   2  -3 -17    0.71    0.42
   2   3  17    0.30    0.26
   2   3  17   -0.03    0.36
   2   3  17    0.37    0.29
  -2  -3  17    0.56    0.35
  -2   3 -17    0.32    0.20
   3  -2  17    0.35    0.37
   2  -3 -17    0.61    0.26
  -3  -2 -17    0.33    0.30
  -3  -2 -17    0.71    0.27
   3   2 -17    0.61    0.34
  -3   2  17    0.35    0.33
  -2   3 -17   -0.28    0.33
   1   4 -17    6.53    0.64
   1  -4  17    6.09    0.52
  -1   4  17    5.35    0.55
  -4   1 -17    6.82    0.62
   4  -1 -17    7.20    0.61
   1  -4  17    7.29    0.58
  -4  -1  17    7.21    0.63
   4  -1 -17    5.94    0.69
  -4  -1  17    6.71    0.63
  -1  -4 -17    5.98    0.46
   4   1  17    6.36    0.62
  -4   1 -17    6.73    0.48
   4   1  17    8.09    0.44
  -1  -4  17    6.80    0.60
   1   4  17    7.33    0.54
   4  -1  17    6.44    0.65
  -1  -4  17    7.44    0.57
  -4  -1 -17    7.24    0.60
   1   4  17    6.69    0.56
  -1   4 -17    7.41    0.63
  -4   1  17    6.65    0.62
   4   1 -17    6.74    0.65
   1   4  17    6.76    0.67
  -4  -1 -17    6.85    0.51
   1  -4 -17    8.19    0.68
   1  -4 -17    6.47    0.48
   3  -4  17    2.54    0.41
   4   3  17    2.80    0.45
   3   4 -17    2.84    0.50
   4  -3 -17    3.52    0.53
   4   3  17    2.75    0.34
   4   3  17    2.42    0.41
  -4  -3  17    2.91    0.47
  -4   3 -17    2.56    0.41
  -3  -4 -17    3.45    0.48
  -4  -3  17    2.59    0.40
  -4   3 -17    3.02    0.36
  -3   4  17    3.00    0.44
   4  -3 -17    2.31    0.37
   3   4  17    2.28    0.44
   3   4  17    4.03    0.54
   3  -4 -17    2.56    0.49
  -3   4 -17    3.02    0.42
  -4  -3 -17    3.44    0.43
   3   4  17    3.33    0.43
  -3  -4  17    3.05    0.46
  -3   4 -17    2.34    0.44
  -3  -4  17    3.20    0.43
   3   4  17    2.97    0.37
  -4   3  17    2.27    0.41
   4  -3  17    2.77    0.46
   3  -4 -17    2.97    0.36
   4   3 -17    2.83    0.46
  -5   0 -17    0.03    0.33
   0  -5 -17    0.23    0.41
   5   0  17   -0.14    0.34
   5   0  17    0.01    0.30
  -5   0  17   -0.20    0.36
   0  -5  17   -0.29    0.34
   0   5 -17   -0.06    0.33
   5   0 -17   -0.20    0.37
  -5   0 -17   -0.05    0.27
   5   0 -17   -0.07    0.37
   0   5  17   -0.33    0.31
   0   5  17   -0.08    0.30
   0  -5 -17   -0.01    0.22
   0  -5  17   -0.23    0.29
  -5   2 -17    0.85    0.32
  -5  -2  17    0.43    0.36
   5   2  17    0.19    0.35
   5  -2 -17    0.78    0.37
   5  -2 -17    0.68    0.44
  -2   5  17    1.18    0.37
  -5   2 -17    1.48    0.39
  -2  -5 -17    0.94    0.28
  -5  -2  17   -0.06    0.37
   2  -5  17    0.41    0.38
   5   2  17    0.46    0.38
   2   5 -17    0.83    0.41
   5   2 -17    1.19    0.45
  -5  -2 -17    1.27    0.35
  -2   5 -17    0.94    0.34
   2  -5 -17    1.49    0.45
  -2  -5  17    0.89    0.35
   2   5  17    0.99    0.40
  -2  -5  17    0.69    0.36
  -5   2  17    0.54    0.36
   5  -2  17    0.97    0.40
   2   5  17    1.48    0.40
   2   5  17    0.83    0.33
   5   4  17    0.68    0.36
   5   4  17    0.26    0.40
   4  -5  17    0.58    0.40
  -5   4 -17    0.45    0.32
  -5   4 -17    0.38    0.38
  -4   5  17    0.68    0.39
   4   5 -17    0.50    0.48
   5  -4 -17    0.54    0.50
  -5  -4  17    0.65    0.34
   5   4  17    0.96    0.31
  -5  -4  17    0.10    0.41
  -4  -5  17    0.75    0.42
   4   5  17    0.48    0.34
  -4   5 -17    0.16    0.39
  -5   4  17   -0.04    0.37
   4   5  17   -0.09    0.38
  -4   5 -17    0.44    0.29
  -5  -4 -17    0.48    0.35
   4  -5 -17    0.48    0.49
   4   5  17    0.71    0.33
  -4  -5  17    0.22    0.33
   5  -4  17    0.57    0.39
   5   4 -17    0.86    0.48
   4   5  17    0.68    0.41
   6  -1 -17    0.72    0.44
  -6   1 -17    0.17    0.31
  -6  -1  17    0.24    0.37
   1   6 -17   -0.14    0.34
  -1  -6 -17    0.36    0.25
  -1   6  17    0.01    0.34
  -6   1 -17    0.59    0.38
   1  -6  17   -0.11    0.30
   6   1  17   -0.40    0.33
   1  -6  17   -0.05    0.34
   6   1  17   -0.28    0.34
  -1  -6 -17   -0.38    0.36
   6  -1 -17   -0.11    0.38
  -1   6  17    0.72    0.35
   1   6  17    0.10    0.35
   1   6  17    0.21    0.34
  -1   6 -17    0.00    0.38
   6   1 -17   -0.14    0.38
   1  -6 -17   -0.03    0.41
   6  -1  17    0.50    0.39
   6  -1  17    0.68    0.37
  -6   1  17    0.28    0.35
  -1  -6  17    0.09    0.33
   6   1 -17    0.45    0.41
  -1  -6  17    0.09    0.34
  -6  -1 -17    0.55    0.33
  -6   3 -17    0.04    0.31
   6  -3 -17   -0.35    0.43
   6   3  17   -0.12    0.39
  -6  -3  17    0.26    0.41
   6  -3 -17    0.09    0.35
   3   6 -17   -0.14    0.43
   3  -6  17   -0.07    0.33
  -3   6  17   -0.21    0.36
  -3  -6 -17    0.33    0.37
  -6   3 -17    0.23    0.35
   6   3  17   -0.32    0.36
  -6  -3 -17   -0.80    0.32
   6   3 -17   -0.47    0.43
  -3  -6  17   -0.47    0.30
  -3  -6  17    0.73    0.41
  -6   3  17   -0.09    0.38
  -3   6 -17   -0.09    0.38
   3  -6 -17   -0.14    0.40
   6  -3  17    0.19    0.40
  -3   6 -17    0.25    0.28
   6   3 -17    0.30    0.40
   3   6  17    0.04    0.39
   3   6  17    0.37    0.33
   3   6  17   -0.13    0.31
  -5  -6 -17    0.18    0.30
   6   5  17    0.57    0.40
   6   5  17   -0.27    0.36
  -6  -5  17    0.43    0.45
   5  -6  17   -0.26    0.36
   5   6 -17   -0.08    0.47
  -5   6  17    0.16    0.35
  -6   5 -17    0.29    0.36
  -6  -5  17   -0.22    0.34
   6  -5 -17   -0.10    0.43
  -6   5 -17   -0.04    0.40
  -5   6 -17   -0.05    0.33
   5   6  17    0.37    0.36
  -6   5  17    0.00    0.39
  -5  -6  17   -0.25    0.42
  -6  -5 -17    0.29    0.40
   6  -5  17   -0.45    0.41
   5   6  17    0.33    0.44
   5  -6 -17    0.27    0.45
   5   6  17    0.29    0.39
   6   5 -17    0.33    0.48
  -5  -6  17    0.29    0.35
  -5   6 -17    0.16    0.40
  -6  -5 -17    0.54    0.29
   7   0  17   -0.19    0.39
   0   7  17    0.54    0.40
   0  -7  17    0.04    0.35
   7   0  17    0.33    0.36
  -7   0  17    0.07    0.41
  -7   0 -17   -0.04    0.34
   7   0 -17   -0.63    0.38
   0   7 -17   -0.03    0.40
   0  -7 -17   -0.05    0.43
   0   7  17   -0.24    0.33
   7   0 -17   -0.46    0.42
   0  -7  17   -0.39    0.35
   7   2  17    1.02    0.41
  -2   7  17    0.63    0.42
   2  -7  17    0.34    0.39
   7   2  17    0.40    0.40
  -2  -7 -17    0.61    0.40
  -7   2 -17    0.28    0.38
   2   7 -17    1.40    0.49
   7  -2 -17    0.57    0.39
  -2   7  17    0.39    0.35
  -7   2 -17    0.50    0.40
  -7  -2  17    0.60    0.44
   7  -2 -17    0.33    0.45
   7  -2  17    0.43    0.37
  -7  -2 -17    0.24    0.38
   7   2 -17    1.32    0.50
  -2  -7  17    0.37    0.34
   7  -2  17    1.69    0.45
   2  -7 -17    0.70    0.48
  -7   2  17    0.72    0.44
   2   7  17    0.86    0.38
   2   7  17    0.84    0.45
  -2  -7  17    1.00    0.42
  -2   7 -17    0.36    0.40
   7   2 -17    0.78    0.43
  -7   4 -17    8.37    0.75
  -4  -7 -17    5.92    0.67
   7   4  17    8.26    0.71
  -4  -7 -17    7.23    0.67
   4  -7  17    7.46    0.74
   4   7 -17    7.63    0.87
  -7  -4  17    8.21    0.82
   7   4  17    6.99    0.71
  -7   4 -17    8.04    0.73
  -4   7  17    6.66    0.75
   7  -4 -17    8.45    0.86
  -7   4  17    8.41    0.77
   4   7  17    6.68    0.62
   7  -4  17    6.93    0.75
  -4  -7  17    7.96    0.65
  -7  -4 -17    7.33    0.76
  -4  -7  17    7.30    0.78
   4  -7 -17    7.36    0.86
   4   7  17    7.08    0.83
  -4   7 -17    8.07    0.59
  -4   7 -17    7.41    0.71
   7   4 -17    7.55    0.87
   7   6  17    0.83    0.42
  -6  -7 -17   -0.08    0.32
   7  -6 -17   -0.02    0.45
  -6   7  17   -0.21    0.44
   6  -7  17   -0.01    0.39
  -7  -6  17    0.73    0.51
  -7   6 -17    0.41    0.43
  -7   6 -17    0.18    0.39
   6   7 -17   -0.28    0.52
  -7   6  17    0.24    0.45
  -6   7 -17    0.21    0.38
   7  -6  17    0.06    0.45
   6  -7 -17    0.40    0.48
  -7  -6 -17   -0.24    0.46
   6   7  17    0.11    0.48
   6   7  17    0.35    0.38
  -6  -7  17   -0.18    0.49
   7   6 -17    0.24    0.53
  -6   7 -17   -0.02    0.41
  -1   8  17    3.02    0.49
   8  -1 -17    3.15    0.52
   1   8 -17    2.81    0.53
   1  -8  17    4.49    0.55
   8   1  17    3.63    0.52
  -1  -8 -17    3.02    0.53
  -8   1 -17    3.47    0.51
   8   1  17    4.63    0.54
   8  -1 -17    2.98    0.55
  -1   8  17    3.59    0.52
  -8  -1  17    3.35    0.57
  -8  -1 -17    3.09    0.53
  -1   8 -17    2.62    0.50
   8   1 -17    4.34    0.57
  -8   1  17    2.93    0.54
  -1  -8  17    2.94    0.50
  -1  -8  17    3.10    0.47
   1  -8 -17    3.86    0.58
   8  -1  17    3.46    0.53
   8   1 -17    3.54    0.57
   1   8  17    3.49    0.48
   1   8  17    4.56    0.57
   8  -1  17    3.83    0.55
  -3   8  17   20.82    0.98
   3   8 -17   21.04    1.11
  -3  -8 -17   20.78    0.94
   8   3  17   21.29    0.98
   8   3  17   21.15    1.00
  -3  -8 -17   21.83    0.95
   8  -3 -17   22.33    1.11
   3  -8  17   21.65    0.99
  -8   3 -17   20.52    0.95
  -8   3 -17   20.97    1.00
  -8  -3  17   21.81    1.11
   3   8  17   21.23    0.96
  -3  -8  17   22.47    1.03
  -3  -8  17   20.76    0.89
   8  -3  17   20.02    0.99
  -3   8 -17   21.08    0.99
  -8  -3 -17   21.85    1.06
   3   8  17   22.34    1.06
   3  -8 -17   22.11    1.10
   8   3 -17   19.63    1.10
  -8   3  17   20.77    1.00
   8  -3  17   20.00    0.99
  -8   5 -17    7.49    0.80
   5   8 -17    6.38    0.91
  -8  -5  17    8.85    0.88
  -5   8  17    8.42    0.79
  -5  -8 -17    8.64    0.69
   8   5  17    7.43    0.76
   5  -8  17    8.17    0.78
   8  -5 -17    7.30    0.90
  -8   5 -17    8.88    0.80
   5   8  17    8.11    0.88
   5  -8 -17    8.14    0.82
  -8  -5 -17    8.19    0.86
  -8   5  17    8.98    0.82
  -5   8 -17    6.72    0.65
  -5   8 -17    8.05    0.76
   8  -5  17    7.59    0.71
   8   5 -17    9.60    0.96
  -5  -8  17    8.66    0.87
  -7  -8 -17    6.16    0.70
   7  -8  17    5.53    0.68
  -7   8  17    4.79    0.65
  -8   7 -17    6.80    0.77
  -8  -7  17    6.64    0.90
   7   8 -17    6.47    0.94
  -8   7 -17    6.55    0.78
   8  -7 -17    7.87    0.96
   8   7  17    5.65    0.73
   7  -8 -17    5.37    0.73
  -8   7  17    4.99    0.64
   7   8  17    6.51    0.77
  -7  -8  17    5.61    0.73
   7   8  17    5.63    0.76
  -7   8 -17    7.26    0.78
   8  -7  17    6.54    0.74
  -8  -7 -17    4.24    0.68
  -7   8 -17    5.96    0.74
   8   7 -17    6.54    0.81
  -9   0 -17   -0.27    0.42
   9   0 -17    0.69    0.47
   9   0  17   -0.31    0.42
   0  -9 -17    0.10    0.43
   0  -9  17    0.23    0.41
  -9   0  17   -0.02    0.47
   0  -9  17    0.38    0.39
   0   9 -17   -0.35    0.44
   0   9  17   -0.54    0.42
   9   0  17   -0.46    0.38
   0   9  17    0.33    0.42
   9   0 -17   -0.12    0.47
   2   9 -17    1.38    0.57
  -2   9  17    2.17    0.48
  -2  -9 -17    0.65    0.41
  -9   2 -17    1.84    0.50
   9   2  17    0.83    0.47
  -9  -2  17    0.11    0.48
   9  -2 -17    0.29    0.49
  -2   9  17    0.71    0.44
   9  -2 -17    0.41    0.41
   2  -9  17    0.57    0.43
  -9  -2 -17    0.87    0.49
  -2  -9  17    0.91    0.47
  -2  -9  17    0.72    0.39
   2   9  17    1.64    0.46
   9   2 -17    0.34    0.54
   2   9  17    0.65    0.51
   2  -9 -17    1.23    0.50
  -9   2  17    0.75    0.47
   9  -2  17    1.11    0.49
  -2   9 -17    0.77    0.45
   9  -2  17    0.47    0.46
  -9   4 -17    0.96    0.47
   4   9 -17    0.62    0.56
   9   4  17    0.95    0.51
  -9   4 -17    0.64    0.45
   9  -4 -17    0.77    0.54
  -4  -9 -17    0.26    0.42
   4  -9  17    0.13    0.43
  -4   9  17    0.37    0.47
  -9  -4  17    1.08    0.53
   4   9  17   -0.15    0.50
  -4   9 -17    0.77    0.46
  -4  -9  17    0.09    0.49
   9   4 -17    1.38    0.59
  -9  -4 -17    0.14    0.50
   9  -4  17    0.64    0.47
  -9   4  17    1.40    0.48
  -4   9 -17    0.57    0.39
   4  -9 -17    0.43    0.49
   9  -6 -17    1.41    0.58
   9   6  17    0.18    0.48
  -9   6 -17    0.83    0.49
   6   9 -17    0.25    0.55
  -6   9  17    1.07    0.51
  -9   6 -17   -0.17    0.42
   6  -9  17   -0.18    0.46
  -9  -6  17    0.59    0.56
  -6  -9 -17    0.85    0.44
  -6   9 -17    0.05    0.41
  -9   6  17    0.17    0.47
   6   9  17    0.75    0.56
   6  -9 -17   -0.46    0.53
  -6   9 -17    0.02    0.45
   9  -6  17    1.65    0.57
  -6  -9  17    0.59    0.54
   9   6 -17    0.57    0.54
  -9  -6 -17   -0.08    0.55
  -8   9  17   -0.24    0.47
  -9   8 -17   -0.06    0.45
  -8  -9 -17   -0.21    0.57
   9  -8 -17    0.35    0.62
   9   8  17   -0.14    0.46
  -9  -8  17   -0.04    0.54
  -9   8 -17    0.47    0.50
   8  -9  17   -0.99    0.48
   8   9 -17   -1.10    0.58
  -8  -9  17    1.14    0.58
  -8   9 -17   -0.11    0.47
   8   9  17   -0.14    0.56
   8  -9 -17   -0.17    0.61
   9  -8  17   -0.10    0.50
   9   8 -17    0.74    0.65
  -9  -8 -17   -0.59    0.57
  -9   8  17   -0.04    0.51
  10   1  17    0.15    0.45
 -10   1 -17   -0.21    0.47
   1 -10  17    0.07    0.40
 -10  -1  17    0.39    0.51
  -1  10  17    0.36    0.48
  -1  10  17    0.72    0.46
  10  -1 -17   -0.02    0.43
  10  -1 -17   -0.05    0.46
  -1 -10 -17    0.20    0.43
   1  10 -17    0.74    0.54
  10  -1  17    0.24    0.46
   1  10  17    0.04    0.44
  -1 -10  17   -0.01    0.46
  10  -1  17    0.11    0.43
  10   1 -17   -0.13    0.49
  -1  10 -17    0.27    0.48
   1  10  17    1.22    0.54
 -10  -1 -17    0.60    0.51
  -1 -10  17    0.66    0.41
   1 -10 -17    1.11    0.50
 -10   1  17   -0.12    0.48
  -3  10  17    0.26    0.47
 -10  -3  17    0.31    0.51
   3 -10  17   -0.09    0.43
  10  -3 -17    0.78    0.54
 -10   3 -17    0.90    0.49
  -3  10  17    0.71    0.47
   3  10 -17   -0.20    0.54
  -3 -10 -17    0.64    0.48
  10   3  17    0.26    0.49
   3  10  17   -0.06    0.51
  10   3 -17   -0.29    0.52
 -10   3  17    0.89    0.49
  -3  10 -17    0.97    0.45
   3 -10 -17    0.16    0.50
  -3 -10  17   -0.30    0.47
  10  -3  17   -0.60    0.44
  10  -3  17    0.05    0.46
 -10  -3 -17    0.33    0.54
   5 -10  17   -0.34    0.43
   5  10 -17   -1.48    0.53
 -10   5 -17   -0.19    0.46
  10   5  17    0.40    0.49
  -5 -10 -17    0.41    0.44
  10  -5 -17    0.84    0.55
 -10  -5  17    0.49    0.57
 -10   5 -17   -0.71    0.47
  -5  10  17   -0.11    0.47
 -10  -5 -17   -0.79    0.53
  -5 -10  17    0.10    0.54
  -5  10 -17   -0.08    0.42
  10   5 -17   -0.08    0.57
   5  10  17   -0.74    0.53
   5 -10 -17   -0.27    0.54
 -10   5  17    0.08    0.48
  -5  10 -17    1.13    0.48
  10  -5  17    0.46    0.48
 -10  -7  17    0.37    0.59
  -7  10  17    0.86    0.53
 -10   7 -17    0.27    0.51
  -7 -10 -17   -0.66    0.41
  10  -7 -17    0.03    0.60
   7 -10  17    0.06    0.51
  10   7  17    0.73    0.53
   7  10 -17    0.42    0.60
 -10   7 -17    0.58    0.49
   7  10  17    0.13    0.60
  10   7 -17    0.74    0.63
 -10  -7 -17    0.21    0.63
  -7  10 -17    0.15    0.46
  10  -7  17    0.23    0.55
   7 -10 -17    0.99    0.64
 -10   7  17   -0.22    0.50
  -7 -10  17    0.18    0.55
 -10   9 -17    0.44    0.55
 -10  -9  17    0.66    0.65
  -9 -10 -17    0.68    0.67
   9 -10  17    0.32    0.58
  10   9  17   -0.02    0.52
   9  10 -17    0.49    0.62
  -9  10  17   -0.29    0.52
  10  -9 -17    0.50    0.67
  10  -9  17   -0.73    0.57
 -10  -9 -17   -0.03    0.65
  -9  10 -17   -0.33    0.50
 -10   9  17    0.92    0.55
  -9 -10  17    0.16    0.59
  10   9 -17   -0.91    0.64
   9 -10 -17    0.89    0.69
  11   0  17   -0.35    0.48
   0  11  17    0.06    0.51
   0 -11 -17   -0.42    0.44
  11   0 -17   -0.36    0.47
   0  11  17   -0.84    0.42
   0  11 -17    0.69    0.52
 -11   0  17    0.38    0.55
   0 -11  17   -0.47    0.41
 -11   0 -17    0.16    0.53
  -2  11  17    0.56    0.51
  -2  11  17    0.91    0.49
  -2 -11 -17    1.75    0.57
 -11  -2  17    1.23    0.59
  11  -2 -17    2.36    0.60
 -11   2 -17    1.34    0.55
  11   2  17    0.84    0.52
   2 -11  17    1.22    0.49
   2  11 -17    0.60    0.59
   2 -11 -17    1.25    0.53
  11  -2  17    1.53    0.52
   2  11  17    1.18    0.59
  -2 -11  17    0.62    0.53
  -2  11 -17    1.72    0.55
 -11   2  17    1.43    0.56
 -11  -2 -17    1.98    0.59
  11  -2  17    2.27    0.56
  11   2 -17    1.44    0.63
  11   4  17    1.75    0.58
  -4 -11 -17    1.09    0.54
  11  -4 -17    1.46    0.59
   4 -11  17    0.66    0.50
   4  11 -17    1.17    0.64
  -4  11  17    1.67    0.58
 -11   4 -17    1.50    0.56
 -11  -4  17    1.67    0.62
 -11  -4 -17    2.08    0.66
   4  11  17    1.34    0.62
  11  -4  17    1.13    0.53
  -4 -11  17    1.68    0.61
 -11   4  17    1.74    0.57
   4 -11 -17    1.46    0.61
  11  -4  17    2.02    0.54
  11   4 -17    1.40    0.65
 -11   6 -17    0.45    0.49
   6  11 -17    0.47    0.63
 -11   6 -17    1.14    0.58
  11   6  17    1.11    0.58
  -6  11  17    0.71    0.54
 -11  -6  17    1.06    0.60
   6 -11  17    0.26    0.50
  -6 -11 -17    0.34    0.50
  11  -6 -17    1.38    0.65
  11   6 -17    0.76    0.64
 -11   6  17    0.53    0.52
   6 -11 -17    1.39    0.65
  11  -6  17    1.19    0.56
  -6  11 -17    0.09    0.46
   6  11  17    0.05    0.60
 -11  -6 -17    1.04    0.65
  -6 -11  17   -0.03    0.58
  11  -8 -17   14.15    1.25
  11   8  17   12.51    1.12
   8  11 -17   13.43    1.23
 -11   8 -17   12.88    1.14
  -8  11  17   15.24    1.16
   8 -11  17   13.20    1.10
 -11  -8 -17   14.54    1.27
  -8  11 -17   13.93    1.06
  -8 -11  17   12.40    1.14
 -11   8  17   13.32    1.07
  11  -8  17   13.26    1.10
  11   8 -17   12.39    1.33
   8 -11 -17   14.19    1.38
   8  11  17   14.80    1.26
  -1  12  17   16.91    1.17
  12   1  17   16.21    1.12
   1 -12  17   17.02    0.98
  -1 -12 -17   18.42    1.12
 -12   1 -17   18.61    1.18
   1  12 -17   15.34    1.12
  -1  12  17   19.66    1.14
 -12  -1  17   19.02    1.17
   1  12  17   19.00    1.24
  12   1 -17   16.33    1.13
  12  -1  17   18.47    1.13
 -12  -1 -17   18.91    1.22
 -12   1  17   19.42    1.14
   1 -12 -17   17.98    1.05
  -3 -12 -17    5.30    0.71
  12   3  17    4.27    0.68
  -3  12  17    7.61    0.94
 -12  -3  17    5.56    0.75
  12  -3 -17    7.22    0.92
  -3  12  17    6.13    0.77
 -12   3 -17    5.13    0.74
   3 -12  17    5.92    0.80
   3  12 -17    6.47    0.84
  12   3 -17    5.57    0.80
   3 -12 -17    5.52    0.72
 -12   3  17    4.33    0.66
 -12  -3 -17    6.01    0.83
   3  12  17    5.05    0.77
  -3 -12  17    5.31    0.74
  12  -3  17    6.49    0.74
  12  -3  17    7.44    0.95
  -5  12  17    1.00    0.56
 -12   5 -17    1.87    0.64
 -12  -5  17   -0.30    0.58
   5  12 -17    0.70    0.63
 -12   5 -17    1.39    0.56
  12   5  17    0.90    0.60
   5 -12  17    0.02    0.52
  12  -5 -17    1.64    0.68
  -5 -12 -17    0.49    0.56
   5 -12 -17    1.25    0.62
 -12  -5 -17   -0.32    0.65
   5  12  17    1.46    0.67
  12   5 -17    0.77    0.61
  12  -5  17    2.02    0.60
 -12   5  17    0.67    0.57
  -5 -12  17   -0.33    0.58
   7  12 -17   23.98    1.45
  12   7  17   21.53    1.32
  12  -7 -17   22.00    1.44
 -12   7 -17   22.96    1.30
  -7  12  17   23.52    1.32
  -7 -12 -17   21.56    1.21
  12  -7  17   21.76    1.42
   7  12  17   23.03    1.42
 -12   7  17   20.83    1.28
  -7  12 -17   22.30    1.24
   0 -13 -17   -0.26    0.56
  13   0  17    0.38    0.55
 -13   0 -17    0.32    0.58
  13   0 -17    0.77    0.57
   0  13  17   -0.23    0.57
 -13   0  17   -1.30    0.52
  13   2  17    0.16    0.58
  -2  13  17    2.00    0.64
  -2  13  17    1.49    0.62
 -13  -2  17    0.90    0.61
  -2 -13 -17    1.51    0.59
 -13   2 -17    2.16    0.67
  13  -2  17    1.51    0.59
 -13   2  17    1.01    0.55
 -13  -2 -17    1.06    0.65
  -2 -13  17    0.33    0.60
  13   2 -17    1.56    0.64
   2  13  17    0.42    0.61
   2 -13 -17    0.33    0.58
   2 -13 -17    2.23    0.63
   4  13 -17   -0.50    0.64
  13  -4 -17    0.10    0.62
  -4 -13 -17    0.57    0.57
  -4  13  17    0.86    0.61
 -13  -4  17   -0.07    0.56
   4 -13  17   -0.07    0.50
 -13   4 -17    0.51    0.62
  13   4  17   -0.14    0.59
 -13  -4 -17    0.35    0.67
  13   4 -17    0.34    0.63
  13  -4  17    0.35    0.53
   4 -13 -17   -0.17    0.55
   4  13  17    1.35    0.68
 -13   4  17   -0.89    0.52
  13  -4  17    0.32    0.55
  -4 -13  17    0.54    0.63
   6  13 -17    0.58    0.66
 -13   6 -17   -0.29    0.52
 -13   6  17    0.03    0.57
  -1  14  17    0.38    0.63
 -14  -1  17    0.41    0.62
   1  14  17   -0.92    0.57
 -14   1  17    0.51    0.56
  14   1 -17    0.45    0.62
  -3  14  17    2.18    0.67
 -14   3  17    0.62    0.58
  -3 -14  17    0.45    0.65
   3 -14 -17    1.00    0.60
   0   0 -18    0.03    0.31
   0   0  18   -0.11    0.26
   0   0  18    0.21    0.36
  -1   1 -18    6.57    0.60
  -1   1  18    6.25    0.53
   1   1  18    7.09    0.61
   1  -1 -18    6.77    0.55
   1   1 -18    5.52    0.59
   1   1  18    6.81    0.51
  -1  -1  18    6.30    0.54
   1  -1  18    6.59    0.63
   1  -1  18    7.05    0.49
  -1   1  18    5.97    0.64
  -1  -1  18    5.28    0.62
  -1  -1 -18    7.13    0.57
  -2   0  18    0.57    0.33
   0   2  18    1.01    0.31
  -2   0 -18    0.55    0.35
   0  -2 -18    0.65    0.30
   0  -2  18    0.87    0.31
   2   0  18    0.89    0.25
   2   0  18    0.79    0.38
   0   2 -18    0.47    0.34
  -2   0  18    1.55    0.42
   0   2  18    0.68    0.40
   0  -2  18    0.83    0.38
   2   0 -18    0.85    0.34
  -2   0 -18    0.97    0.24
  -2  -2 -18   -0.19    0.29
   2  -2 -18   -0.05    0.26
   2   2 -18   -0.07    0.33
  -2   2  18    0.28    0.38
  -2  -2  18    0.01    0.31
  -2  -2  18   -0.03    0.32
  -2  -2 -18   -0.22    0.24
  -2   2 -18    0.69    0.36
   2   2  18    0.21    0.27
   2  -2  18   -0.12    0.23
  -2   2  18    0.07    0.29
   2  -2  18    0.03    0.34
   2   2  18    0.35    0.39
  -3   1 -18   -0.07    0.21
  -1   3  18    0.21    0.40
  -1  -3 -18    0.78    0.29
  -3   1 -18    0.37    0.31
   1  -3  18    0.15    0.27
  -1   3  18    0.13    0.32
   3   1  18    0.46    0.26
   1  -3  18    1.20    0.39
  -3  -1  18    0.40    0.34
   3  -1 -18    0.21    0.33
   1   3 -18    0.31    0.38
  -3  -1  18    0.43    0.37
   3   1  18    0.56    0.38
   3  -1  18    0.48    0.24
  -3  -1 -18    1.18    0.35
  -1   3 -18    0.23    0.34
   1   3  18    0.13    0.28
  -1  -3  18    0.85    0.33
  -3   1  18    0.36    0.34
   1   3  18    0.49    0.31
  -1  -3  18    0.07    0.34
   3  -1  18   -0.09    0.36
   1  -3 -18    0.33    0.27
  -3   1  18    0.47    0.37
   3   1 -18    0.00    0.35
   1   3  18    0.02    0.38
  -3  -1 -18    0.59    0.26
   3   3 -18    0.57    0.40
   3  -3 -18    0.71    0.41
  -3  -3  18   -0.10    0.34
   3  -3 -18    0.14    0.29
   3   3  18    0.14    0.38
   3   3  18    0.10    0.27
  -3  -3  18   -0.28    0.35
  -3  -3 -18    0.25    0.30
  -3   3 -18   -0.11    0.36
  -3   3 -18   -0.11    0.23
  -3   3  18    0.43    0.34
  -3  -3 -18    1.01    0.32
   3  -3  18   -0.40    0.37
  -4   0  18   -0.12    0.35
   0  -4  18    0.12    0.30
   0   4  18    0.24    0.39
  -4   0 -18   -0.29    0.24
   4   0 -18    0.44    0.42
   0  -4  18    0.29    0.31
   4   0 -18   -0.35    0.34
   0   4 -18    0.03    0.32
   0  -4 -18    0.07    0.24
  -4   0  18   -0.08    0.37
  -4   0 -18   -0.03    0.32
   0   4  18    0.28    0.32
   4   0  18    0.33    0.36
   0  -4 -18    0.63    0.41
  -4  -2  18    0.73    0.37
   4   2  18    0.69    0.27
  -2   4  18    1.01    0.38
  -2  -4 -18    0.13    0.27
   2   4 -18    0.72    0.41
   4   2  18    0.38    0.39
   4  -2 -18    0.52    0.45
  -4   2 -18    0.48    0.27
   4  -2 -18    0.32    0.32
   2  -4  18    0.74    0.41
  -4  -2  18    0.48    0.38
  -4   2 -18    0.83    0.37
   4   2 -18    0.85    0.42
   2  -4 -18    0.37    0.27
  -4   2  18    0.88    0.39
   2   4  18    1.11    0.31
   2   4  18    1.28    0.42
  -2  -4  18    0.29    0.36
  -2   4 -18    0.51    0.34
   2  -4 -18    0.68    0.45
   2   4  18    0.28    0.33
  -2  -4  18    0.50    0.36
  -4  -2 -18    0.95    0.31
  -4  -2 -18    1.08    0.36
   4  -2  18    0.48    0.41
   4   4  18   -0.39    0.27
  -4   4  18   -0.41    0.36
   4   4  18    0.04    0.34
  -4  -4  18    0.51    0.36
   4  -4  18    0.10    0.36
   4   4  18   -0.13    0.39
  -4   4 -18   -0.02    0.27
   4  -4 -18    0.16    0.39
  -4   4 -18    0.07    0.33
  -4  -4 -18   -0.49    0.30
  -4  -4  18   -0.69    0.37
   4   4 -18   -0.36    0.45
   1  -5  18   11.34    0.69
   5  -1 -18   12.92    0.85
  -5  -1  18   11.94    0.79
  -5   1 -18   10.22    0.61
   5  -1 -18   11.77    0.77
  -5   1 -18   12.78    0.75
  -1   5  18   10.97    0.72
   1   5 -18   12.21    0.80
  -1  -5 -18   11.89    0.82
   5   1  18   12.10    0.77
  -1  -5 -18   11.92    0.60
   1  -5  18   12.21    0.66
   5  -1  18   11.32    0.77
   1  -5 -18   12.06    0.59
   1   5  18   11.33    0.68
  -5   1  18   11.75    0.76
  -1  -5  18   12.50    0.72
   5   1 -18   13.50    0.82
   1  -5 -18   12.47    0.79
   1   5  18   11.69    0.67
  -1   5 -18   11.78    0.71
   5   1 -18   11.77    0.80
  -5  -1 -18   11.90    0.74
  -5  -1 -18   12.20    0.66
  -1  -5  18   11.16    0.71
   5   3  18    3.22    0.51
  -3  -5 -18    2.71    0.37
  -5   3 -18    2.37    0.44
   3  -5  18    3.00    0.44
   5  -3 -18    3.00    0.45
   3   5 -18    3.44    0.52
  -5  -3  18    2.43    0.49
  -3   5  18    3.23    0.48
  -5   3 -18    3.22    0.39
  -5  -3  18    2.43    0.45
   5  -3 -18    3.61    0.59
   5   3  18    2.80    0.45
   3   5  18    2.92    0.50
  -5   3  18    4.24    0.62
  -3   5 -18    1.74    0.45
  -5  -3 -18    2.19    0.41
  -3  -5  18    3.46    0.50
   3   5  18    2.24    0.39
   3   5  18    2.20    0.44
  -3  -5  18    2.86    0.44
   3  -5 -18    1.97    0.50
   5   3 -18    1.33    0.50
   5  -3  18    1.75    0.42
  -5   5 -18   15.82    0.87
   5   5  18   16.30    0.89
   5   5  18   16.25    0.82
  -5  -5 -18   16.21    0.89
   5  -5 -18   15.17    0.98
  -5  -5 -18   15.93    0.74
  -5   5  18   15.53    0.88
  -5  -5  18   16.85    0.93
  -5   5 -18   16.66    0.77
   5   5 -18   15.98    1.00
   5  -5  18   15.15    0.89
  -5  -5  18   15.20    0.79
   6   0 -18    1.38    0.45
   0  -6 -18    0.90    0.46
   6   0  18    1.13    0.42
   0   6  18    1.53    0.41
   0  -6  18    1.20    0.37
   0   6 -18    1.57    0.43
  -6   0  18    1.05    0.44
   6   0  18    1.24    0.43
   0  -6  18    0.88    0.39
  -6   0 -18    0.67    0.34
   6   0 -18    0.66    0.45
   0   6  18    1.21    0.38
   2   6 -18    0.49    0.44
  -6   2 -18   -0.28    0.30
  -2   6  18    0.21    0.38
  -2  -6 -18   -0.16    0.26
   2  -6  18   -0.28    0.38
  -2  -6 -18   -0.44    0.40
   6  -2 -18   -0.93    0.42
  -6   2 -18    0.43    0.38
   6  -2 -18    0.36    0.40
   6   2  18    0.14    0.38
   6   2  18    0.45    0.40
  -6  -2  18    0.16    0.41
  -6   2  18    0.10    0.39
   2   6  18   -0.38    0.36
   2  -6 -18   -0.28    0.43
   2   6  18   -0.40    0.31
  -2   6 -18    0.09    0.38
   6   2 -18    0.21    0.41
   6  -2  18   -0.16    0.39
  -6  -2 -18   -0.10    0.33
  -2  -6  18    0.07    0.39
  -2  -6  18   -0.24    0.33
   6   2 -18    0.52    0.46
  -6   4 -18    0.64    0.34
  -4   6  18    0.13    0.39
   6   4  18    0.97    0.41
   4  -6  18    0.17    0.41
  -6   4 -18    0.64    0.43
  -6  -4  18    0.16    0.34
  -6  -4  18    0.68    0.47
   6   4  18    0.20    0.41
   6  -4 -18    1.50    0.55
   4   6 -18    0.65    0.51
  -4  -6 -18    0.55    0.41
   4   6  18    0.14    0.37
   6   4 -18    0.77    0.54
  -4   6 -18    0.49    0.32
  -4  -6  18    0.88    0.38
   4  -6 -18    0.49    0.51
   4   6  18    0.11    0.42
  -4  -6  18   -0.07    0.39
   4   6  18    0.85    0.43
   4   6  18   -0.08    0.34
  -4   6 -18    0.24    0.41
  -6   4  18    0.72    0.39
  -6  -4 -18    0.48    0.41
   6  -4  18    0.48    0.44
   6  -6 -18    0.13    0.51
  -6  -6 -18   -0.74    0.39
   6  -6  18   -0.10    0.43
   6   6  18    0.10    0.39
  -6   6  18    0.06    0.43
  -6  -6 -18    0.26    0.31
  -6  -6  18    0.16    0.48
  -6   6 -18   -0.52    0.40
   6   6 -18    0.46    0.53
  -6   6 -18    0.02    0.36
  -7   1 -18    0.03    0.34
   7   1  18   -0.21    0.40
  -1  -7 -18   -0.11    0.42
  -7  -1  18   -0.28    0.42
   7  -1 -18    0.40    0.48
   1   7 -18    0.16    0.41
   1  -7  18    0.20    0.38
  -1   7  18    0.26    0.35
   7  -1 -18   -0.51    0.39
   7   1  18   -0.49    0.38
   7  -1  18    0.07    0.38
  -1  -7  18   -0.06    0.39
   7  -1  18   -0.10    0.38
  -1  -7  18   -0.18    0.35
  -1   7 -18    0.54    0.42
   1   7  18    0.81    0.38
   7   1 -18    0.46    0.42
  -7   1  18   -0.46    0.38
  -7  -1 -18   -0.39    0.35
   1  -7 -18   -0.08    0.46
   1   7  18   -0.45    0.39
   7   1 -18    0.24    0.46
   7   3  18    1.71    0.48
  -7   3 -18    2.75    0.51
  -7   3 -18    1.51    0.42
   3   7 -18    1.66    0.53
   3  -7  18    2.12    0.44
   7  -3 -18    1.92    0.55
  -3  -7 -18    1.81    0.46
   7   3  18    2.32    0.49
  -7  -3  18    2.18    0.54
  -3   7  18    1.58    0.46
   7   3 -18    1.60    0.57
  -7   3  18    0.96    0.41
  -3  -7  18    1.02    0.40
  -3  -7  18    2.13    0.50
  -3   7 -18    1.41    0.46
  -7  -3 -18    1.32    0.44
   7   3 -18    2.38    0.48
   7  -3  18    1.91    0.47
   3  -7 -18    1.13    0.53
   3   7  18    1.60    0.49
   3   7  18    1.39    0.42
  -7   5 -18    0.30    0.38
  -5   7  18   -0.06    0.45
   5  -7  18   -0.09    0.46
   5   7 -18    0.20    0.52
  -7  -5  18   -0.31    0.46
   7  -5 -18    0.27    0.46
  -7   5 -18    1.00    0.45
  -5  -7 -18    0.12    0.34
   7   5  18    0.47    0.41
   7   5 -18    0.77    0.55
   7  -5  18   -0.06    0.46
  -5   7 -18    0.54    0.44
  -7  -5 -18    0.38    0.47
   5   7  18    0.19    0.47
   5   7  18    0.19    0.38
   5  -7 -18    0.35    0.47
  -7   5  18   -0.19    0.42
  -5  -7  18    0.36    0.49
  -5   7 -18    0.89    0.38
  -7  -7 -18   -0.12    0.49
   7   7 -18   -0.42    0.54
   7   7  18    0.24    0.44
  -7   7  18    0.18    0.45
  -7   7 -18   -0.46    0.39
  -7   7 -18   -0.30    0.41
   7  -7 -18   -0.57    0.52
   7  -7  18    0.40    0.42
  -7  -7  18    0.25    0.51
   8   0 -18    0.46    0.47
  -8   0  18    0.43    0.45
   0  -8  18    0.54    0.41
   8   0 -18   -0.35    0.45
   8   0  18    0.13    0.42
   0  -8 -18   -0.08    0.44
   0  -8  18    0.24    0.39
   0   8  18    0.28    0.43
   8   0  18   -0.37    0.41
  -8   0 -18    0.35    0.40
   0   8  18   -0.69    0.36
   0   8 -18   -0.27    0.42
  -2   8  18    0.95    0.44
  -8  -2  18   -0.07    0.46
  -8   2 -18    0.24    0.42
   8  -2 -18   -0.14    0.40
   8   2  18    0.85    0.43
   8   2  18   -0.05    0.41
   8  -2 -18    0.50    0.50
   2   8 -18   -0.12    0.47
  -2  -8 -18    0.41    0.44
   2  -8  18    1.02    0.46
   8   2 -18    0.60    0.51
   8  -2  18    0.52    0.46
   8  -2  18    0.61    0.39
  -2  -8  18    0.65    0.40
  -2   8 -18    0.32    0.43
  -8  -2 -18   -0.56    0.39
  -8   2  18    0.51    0.44
   2   8  18   -0.05    0.45
   2   8  18    0.37    0.41
   8   2 -18    1.16    0.45
   2  -8 -18   -0.25    0.47
  -2  -8  18    0.47    0.44
   8   4  18   -0.21    0.40
   8  -4 -18   -0.27    0.51
  -8  -4  18    0.36    0.49
  -8   4 -18   -0.55    0.39
   4   8 -18   -0.11    0.52
  -8   4 -18    0.27    0.41
  -4   8  18   -0.40    0.43
  -4  -8 -18    0.18    0.38
   4  -8  18   -0.29    0.42
  -4  -8  18   -0.14    0.46
  -8  -4 -18    0.95    0.48
   4   8  18    0.09    0.50
  -8   4  18    0.52    0.47
   4  -8 -18   -0.24    0.50
  -4   8 -18   -0.07    0.42
   8  -4  18   -0.33    0.45
   8   4 -18    0.73    0.54
   6   8 -18   -0.14    0.56
  -8   6 -18    0.63    0.44
   8  -6 -18   -1.19    0.49
  -8  -6  18   -0.07    0.54
  -6  -8 -18   -0.05    0.37
  -6   8  18    0.39    0.49
  -8   6 -18    0.55    0.48
   8   6  18    0.03    0.44
   6  -8  18   -0.28    0.43
  -6   8 -18    0.27    0.46
   8   6 -18   -0.26    0.55
  -8  -6 -18   -0.22    0.47
   6  -8 -18    0.52    0.54
  -6  -8  18    0.92    0.55
   6   8  18    0.31    0.53
  -8   6  18    0.56    0.47
  -6   8 -18   -0.35    0.38
   8  -6  18   -0.16    0.42
  -8   8 -18   -0.01    0.48
  -8  -8  18    0.25    0.57
  -8  -8 -18   -0.75    0.51
  -8   8 -18   -1.41    0.42
   8   8  18   -0.13    0.48
   8   8 -18    0.01    0.56
   8  -8 -18   -0.37    0.49
   8  -8  18   -0.45    0.50
  -8   8  18   -0.35    0.47
  -1   9  18    9.22    0.81
  -1  -9 -18    8.62    0.79
   1   9 -18   10.24    0.93
   9   1  18    7.98    0.77
   9  -1 -18    9.38    0.88
   9   1  18    7.98    0.81
   9  -1 -18    8.59    0.88
   1  -9  18    9.45    0.77
  -9   1 -18    7.07    0.82
  -1   9  18    9.03    0.82
  -9  -1  18    7.27    0.86
  -1  -9  18    9.19    0.84
   1   9  18    9.18    0.86
  -9   1  18   10.20    0.89
   1   9  18    7.92    0.78
  -9  -1 -18    8.60    0.82
  -1   9 -18    9.33    0.81
   9   1 -18    8.00    0.86
   9   1 -18   10.14    0.88
   1  -9 -18    7.89    0.86
  -1  -9  18    8.16    0.73
   9  -1  18    8.88    0.81
   9  -1  18    8.94    0.80
   9   3  18    2.52    0.56
   3   9 -18    3.08    0.64
  -3  -9 -18    4.48    0.59
  -9   3 -18    2.54    0.56
   9  -3 -18    3.10    0.64
  -3   9  18    2.55    0.51
   3  -9  18    2.21    0.49
  -9   3 -18    2.45    0.51
  -9  -3  18    2.64    0.59
   9  -3  18    2.77    0.54
   3   9  18    4.02    0.62
  -9  -3 -18    2.43    0.57
   9   3 -18    3.68    0.67
  -9   3  18    3.68    0.59
   3  -9 -18    4.13    0.66
  -3   9 -18    3.47    0.56
   9  -3  18    2.36    0.53
  -3  -9  18    2.76    0.56
  -5  -9 -18   19.54    0.98
   5  -9  18   19.35    1.04
   9  -5 -18   21.24    1.17
   9   5  18   18.14    1.04
  -9   5 -18   18.91    1.07
   5   9 -18   19.24    1.21
  -9   5 -18   19.17    1.08
  -5   9  18   19.16    1.05
  -9  -5  18   21.29    1.18
  -5   9 -18   20.00    1.03
   5  -9 -18   20.19    1.16
  -9   5  18   19.88    1.08
   5   9  18   19.55    1.17
   9  -5  18   17.33    1.04
   9   5 -18   18.88    1.20
  -5  -9  18   19.38    1.13
  -9  -5 -18   19.14    1.13
   9  -7 -18   -0.08    0.60
   9   7  18    0.34    0.51
  -7  -9 -18    0.22    0.42
  -9   7 -18   -0.28    0.47
  -9   7 -18   -0.13    0.49
  -9  -7  18    0.79    0.56
   7  -9  18    0.59    0.52
  -7   9  18   -0.50    0.49
   7   9 -18   -0.18    0.59
  -9  -7 -18    1.03    0.60
  -7  -9  18   -0.62    0.55
  -7   9 -18    0.41    0.47
   9  -7  18   -0.51    0.50
  -7   9 -18   -0.73    0.41
   9   7 -18    0.52    0.62
   7   9  18    0.50    0.59
  -9   7  18   -0.77    0.48
   7  -9 -18   -0.13    0.57
   9  -9  18   11.19    1.02
  -9  -9  18   13.71    1.17
  -9   9  18   11.96    1.01
   9  -9 -18   14.17    1.22
  -9  -9 -18   13.04    1.22
  -9   9 -18   12.73    0.99
   9   9 -18   12.24    1.19
  10   0 -18    0.63    0.54
   0  10  18    1.06    0.49
   0 -10 -18    0.75    0.49
  10   0  18    0.72    0.51
  10   0  18    0.97    0.47
   0  10 -18    1.15    0.54
  10   0 -18    1.57    0.54
 -10   0  18    0.75    0.54
   0 -10  18    0.80    0.44
 -10   0 -18   -0.14    0.46
   0  10  18    0.29    0.51
  -2 -10 -18   -0.02    0.44
   2 -10  18    0.85    0.47
 -10   2 -18    0.86    0.51
 -10  -2  18    0.05    0.53
   2  10 -18   -0.08    0.54
  10   2  18    0.02    0.48
  10  -2 -18   -0.86    0.49
  -2  10  18    0.13    0.46
  -2  10 -18    1.04    0.48
 -10  -2 -18    0.72    0.52
 -10   2  18   -0.53    0.47
  10  -2  18    0.07    0.49
   2  10  18    0.20    0.52
  10   2 -18    0.19    0.53
  -2 -10  18    0.30    0.51
  10  -2  18    0.10    0.46
   2 -10 -18    0.30    0.50
  -4 -10 -18    0.30    0.45
   4  10 -18   -0.53    0.57
   4 -10  18    0.27    0.48
  10  -4 -18    0.64    0.59
 -10   4 -18    0.24    0.46
  -4  10  18    0.87    0.51
 -10  -4  18    0.69    0.58
  10   4  18    0.14    0.49
 -10   4 -18    0.17    0.47
  -4 -10  18    0.09    0.52
   4  10  18   -0.01    0.54
 -10  -4 -18    0.57    0.57
   4 -10 -18    0.82    0.58
  10  -4  18    1.00    0.52
 -10   4  18    0.94    0.52
  10   4 -18    0.31    0.60
  -4  10 -18    0.16    0.45
 -10  -6  18   -0.15    0.54
  10  -6 -18   -0.14    0.57
  10   6  18   -0.37    0.48
  -6  10  18   -0.45    0.49
 -10   6 -18   -0.38    0.46
 -10   6 -18    0.79    0.50
   6  10 -18   -0.03    0.58
  -6 -10 -18    0.07    0.48
   6 -10  18    0.77    0.54
 -10  -6 -18   -0.88    0.58
   6 -10 -18    0.38    0.58
  10   6 -18    0.06    0.60
 -10   6  18   -0.04    0.47
   6  10  18   -0.15    0.56
  -6 -10  18    0.02    0.52
  10  -6  18    0.55    0.52
  10   8  18    0.35    0.52
 -10   8 -18    0.61    0.53
  -8  10  18    0.16    0.52
   8 -10  18    0.58    0.51
 -10   8 -18   -0.48    0.50
 -10  -8  18   -0.08    0.60
  10  -8 -18    0.62    0.65
   8  10 -18   -0.33    0.66
  10   8 -18    0.21    0.61
   8 -10 -18   -0.44    0.60
  -8  10 -18   -0.32    0.50
   8  10  18   -0.80    0.58
 -10  -8 -18    0.84    0.66
  -8 -10  18    1.43    0.66
 -10   8  18   -0.42    0.53
  10  -8  18    0.24    0.57
 -10  10 -18    0.28    0.57
  -1 -11 -18    5.26    0.69
  -1  11  18    4.76    0.68
  11   1  18    3.92    0.66
  -1  11  18    4.30    0.67
 -11  -1  18    3.85    0.67
 -11   1 -18    4.63    0.69
   1  11 -18    2.96    0.67
   1 -11  18    4.21    0.60
  11  -1 -18    4.18    0.64
 -11   1  18    3.98    0.66
 -11  -1 -18    3.17    0.66
   1  11  18    4.15    0.70
  -1  11 -18    2.76    0.62
   1 -11 -18    4.72    0.67
  11  -1  18    2.32    0.57
  11   1 -18    3.86    0.64
  11  -1  18    3.97    0.64
  -3  11  18    0.21    0.51
 -11   3 -18   -0.06    0.51
 -11  -3  18    0.36    0.56
   3 -11  18    0.29    0.46
   3  11 -18   -0.48    0.57
  -3 -11 -18   -0.31    0.48
  11   3  18    0.13    0.50
  11  -3 -18    0.25    0.58
  -3 -11  18    1.23    0.56
   3 -11 -18   -0.06    0.51
   3  11  18    0.06    0.57
 -11  -3 -18    0.50    0.59
  11  -3  18    0.80    0.53
  -3  11 -18   -0.24    0.44
 -11   3  18    0.81    0.51
  11   3 -18   -0.06    0.51
  11  -3  18   -0.26    0.47
   5  11 -18    1.57    0.68
  11  -5 -18    0.21    0.60
 -11  -5  18    2.06    0.64
  -5 -11 -18    1.40    0.56
 -11   5 -18    1.97    0.59
  -5  11  18    0.90    0.56
  11   5  18    0.46    0.57
 -11   5 -18    0.79    0.53
   5 -11  18    1.48    0.55
 -11   5  18    0.28    0.55
 -11  -5 -18    0.52    0.63
  11   5 -18    1.38    0.69
  11  -5  18    0.12    0.54
   5  11  18    0.54    0.59
   5 -11 -18    0.94    0.62
  -5 -11  18    0.38    0.59
  11   7  18    1.01    0.56
   7  11 -18    1.05    0.69
   7 -11  18    0.53    0.53
 -11  -7  18    0.61    0.63
 -11   7 -18    1.72    0.62
 -11   7 -18    1.22    0.54
  -7  11  18    1.44    0.61
  -7 -11 -18    2.09    0.58
  11  -7 -18    1.58    0.70
  11   7 -18    1.91    0.71
  -7 -11  18    1.37    0.64
   7 -11 -18    1.29    0.69
 -11   7  18    2.65    0.64
   7  11  18    1.46    0.66
 -11  -7 -18    1.54    0.75
  11  -7  18    2.39    0.67
  11   9  18    0.81    0.63
  -9  11 -18    1.05    0.60
   0 -12 -18    0.86    0.56
  12   0 -18   -0.27    0.55
 -12   0 -18    0.40    0.56
   0  12  18    0.16    0.55
  12   0  18    0.67    0.53
   0  12 -18   -1.23    0.55
 -12   0  18   -0.36    0.53
 -12   2 -18   -0.40    0.54
  12  -2 -18   -0.82    0.56
   2  12 -18   -0.74    0.56
  -2 -12 -18    0.36    0.56
   2 -12  18   -0.42    0.45
  12   2  18   -0.02    0.49
 -12  -2  18    0.39    0.57
  -2  12  18    0.42    0.54
  -2 -12  18   -0.12    0.55
  12  -2  18   -0.19    0.48
   2 -12 -18    0.65    0.54
  12  -2  18    0.19    0.49
 -12  -2 -18    0.56    0.60
 -12   2  18   -0.45    0.51
   2  12  18   -0.77    0.53
  12   2 -18   -0.49    0.57
 -12   4 -18   -0.03    0.54
  12   4  18   -0.26    0.55
   4  12 -18   -0.31    0.62
  -4 -12 -18    0.66    0.55
 -12  -4  18   -0.28    0.53
   4 -12  18    0.51    0.53
  12  -4 -18   -0.23    0.59
  -4  12  18   -1.55    0.46
  12   4 -18    0.74    0.64
  12  -4  18    0.48    0.55
 -12   4  18   -0.04    0.52
  12  -4  18   -0.34    0.53
 -12  -4 -18   -0.22    0.62
  -4 -12  18   -0.56    0.55
   4 -12 -18    0.34    0.59
   4  12  18    0.12    0.61
   6 -12  18   -0.07    0.51
  12   6  18   -0.07    0.54
 -12   6 -18   -0.10    0.58
 -12   6 -18    0.78    0.54
  12  -6 -18   -1.05    0.60
  -6 -12 -18    0.90    0.57
  -6  12  18   -0.41    0.54
   6  12 -18    0.00    0.63
 -12   6  18   -0.40    0.50
  -6 -12  18    0.84    0.64
 -12  -6 -18   -0.97    0.65
   6  12  18   -0.86    0.60
   6 -12 -18    0.02    0.65
  12  -6  18   -0.11    0.55
 -13   1 -18    7.10    0.88
  -1 -13 -18    8.57    1.01
  -1  13  18    9.70    1.04
 -13  -1  18    8.05    1.11
  13   1  18    8.27    0.99
 -13  -1 -18    6.74    0.88
  13   1 -18    8.33    0.99
   1  13  18    9.51    1.14
  13  -1  18    7.91    1.00
 -13   1  18    9.33    1.01
   1 -13 -18    8.50    1.02
 -13  -3  18    0.92    0.64
 -13   3 -18    1.26    0.63
   3  13 -18   -0.50    0.66
   3 -13  18    1.46    0.56
  -3 -13 -18    1.09    0.62
  13  -3  18    1.65    0.63
  -3 -13  18    0.63    0.62
   3 -13 -18    2.49    0.67
   3  13  18    1.45    0.68
 -13  -3 -18    2.99    0.76
  13   3 -18    0.82    0.62
 -13   3  18    0.67    0.57
  13  -3  18    2.24    0.65
 -13   5 -18    8.18    1.02
  13  -5 -18    8.09    0.94
   5  13 -18    6.94    0.91
  13  -5  18    5.49    0.78
 -13   5  18    7.69    1.00
   0  14  18    0.32    0.64
   0  -1  19    0.09    0.31
   0   1  19   -0.07    0.37
   1   0  19    0.31    0.27
   1   0 -19   -0.43    0.32
  -1   0 -19   -0.41    0.31
   0   1  19   -0.08    0.28
   0  -1 -19   -0.22    0.30
  -1   0  19    0.10    0.36
  -1   0  19   -0.20    0.29
   0   1 -19   -0.06    0.33
   1   0  19    0.04    0.36
   0  -1  19   -0.45    0.27
   1  -2  19   12.96    0.71
  -1  -2 -19   10.74    0.65
   2   1  19   12.23    0.78
  -2   1 -19   11.64    0.73
   2  -1 -19   10.78    0.66
  -1   2  19   12.41    0.68
   1  -2  19   11.98    0.62
   2   1  19   11.69    0.58
  -2  -1  19   11.24    0.75
  -1   2  19   10.40    0.73
  -2  -1  19   11.08    0.70
   1   2 -19   11.93    0.69
  -1  -2  19   11.13    0.69
  -2  -1 -19   12.36    0.68
   1   2  19   11.62    0.61
  -2   1  19   12.04    0.81
   2  -1  19   12.20    0.56
  -1  -2  19   10.89    0.65
   1  -2 -19   12.05    0.64
   2  -1  19   11.70    0.75
  -2   1  19   12.56    0.70
   2   1 -19   12.04    0.72
  -1   2 -19   11.92    0.73
   1   2  19   11.59    0.79
   0  -3  19    0.17    0.36
   3   0  19    0.05    0.37
   3   0  19   -0.02    0.23
   0  -3  19    0.26    0.31
   0   3 -19    0.82    0.36
   0   3  19   -0.54    0.39
   3   0 -19    0.08    0.36
   0  -3 -19   -0.05    0.28
  -3   0  19    0.15    0.39
  -3   0 -19    0.41    0.35
  -3   0  19    0.20    0.35
   0   3  19    0.45    0.32
  -2  -3 -19    4.05    0.47
   3  -2 -19    3.83    0.56
   3  -2 -19    3.89    0.52
  -2   3  19    3.65    0.47
  -3  -2  19    3.61    0.49
  -2  -3 -19    2.96    0.40
   2   3 -19    3.70    0.53
   3   2  19    4.31    0.46
   3   2  19    3.14    0.52
  -3   2 -19    4.20    0.61
   2  -3  19    3.55    0.51
  -3  -2  19    2.45    0.42
  -3   2  19    2.51    0.43
  -2  -3  19    3.91    0.50
  -2  -3  19    3.41    0.44
  -3  -2 -19    2.79    0.41
   3   2 -19    3.26    0.46
   2   3  19    3.67    0.50
   2  -3 -19    2.10    0.48
  -3  -2 -19    3.80    0.48
  -2   3 -19    3.04    0.47
   2   3  19    4.27    0.56
   3  -2  19    2.92    0.44
   2  -3 -19    2.89    0.38
  -4   1 -19    1.37    0.30
   1  -4  19    1.07    0.33
  -1  -4 -19    1.12    0.32
   4  -1 -19    1.07    0.42
   1   4 -19    1.18    0.43
  -4  -1  19    0.66    0.39
   1  -4  19    1.40    0.42
  -4  -1  19    1.20    0.42
  -1   4  19    1.03    0.38
  -4   1 -19    1.32    0.41
   4  -1 -19    1.68    0.41
   4   1  19    0.95    0.42
  -1   4 -19    1.63    0.43
   1  -4 -19    0.99    0.30
  -4  -1 -19    1.12    0.30
   1   4  19    1.36    0.35
   1   4  19    1.67    0.46
   4  -1  19    0.96    0.41
  -1  -4  19    1.30    0.39
  -4   1  19    1.42    0.42
   4   1 -19    1.27    0.43
  -1  -4  19    1.00    0.40
  -4  -1 -19    0.65    0.35
   1  -4 -19    1.90    0.51
   4  -3 -19    0.54    0.35
   4  -3 -19    0.96    0.44
   3   4 -19    0.04    0.42
  -3  -4 -19    0.42    0.31
   4   3  19    1.01    0.31
  -4  -3  19    0.72    0.42
   3  -4  19    0.67    0.43
  -4   3 -19    1.43    0.43
  -3  -4 -19    0.45    0.33
   4   3  19    0.52    0.43
  -3   4  19    0.75    0.40
  -4  -3  19    1.03    0.39
  -3   4 -19    0.75    0.42
  -3  -4  19    0.44    0.38
  -4   3  19    0.46    0.38
   4   3 -19    0.23    0.41
   3   4  19    1.34    0.45
   3  -4 -19    0.03    0.44
  -4  -3 -19    0.46    0.34
   4  -3  19    1.06    0.44
  -4  -3 -19    0.41    0.33
  -3  -4  19    0.19    0.39
   3   4  19    0.46    0.32
   3  -4 -19    0.52    0.32
  -5   0 -19   -0.51    0.27
  -5   0 -19   -0.12    0.36
   0  -5  19    0.14    0.38
   5   0 -19   -0.36    0.40
   5   0 -19    0.18    0.44
   0  -5 -19    0.03    0.26
   0   5 -19    0.40    0.39
  -5   0  19   -0.19    0.40
   0  -5  19    0.33    0.33
   5   0  19   -0.19    0.37
   0  -5 -19   -0.01    0.46
   0   5  19   -0.17    0.33
   2  -5  19   23.50    0.95
  -2  -5 -19   21.70    0.83
  -5  -2  19   22.31    1.00
  -5   2 -19   23.60    0.85
  -5  -2  19   23.70    0.96
   5   2  19   21.92    1.00
   5  -2 -19   25.08    0.98
   5  -2 -19   22.32    1.07
  -2   5  19   22.57    0.94
  -5   2 -19   20.76    0.96
   2   5 -19   21.18    0.97
   2   5  19   23.88    0.92
  -5   2  19   21.25    0.97
   2   5  19   23.80    1.03
   2   5  19   21.75    0.90
  -5  -2 -19   21.25    0.88
  -2  -5  19   21.81    0.96
   5   2 -19   23.38    1.07
  -2   5 -19   23.74    1.01
   2  -5 -19   23.20    1.10
  -5  -2 -19   23.95    0.97
  -2  -5  19   25.14    0.96
   5  -2  19   23.21    1.02
  -4   5  19    1.02    0.44
  -4  -5 -19    1.13    0.42
  -5   4 -19    1.38    0.35
   5   4  19    0.30    0.39
   5  -4 -19    1.13    0.54
  -5   4 -19    0.17    0.39
  -5  -4  19    1.25    0.48
   5   4  19    1.21    0.46
   4  -5  19    0.00    0.36
  -5  -4  19    0.73    0.39
   4   5 -19    1.48    0.52
   5   4 -19    0.15    0.47
  -4  -5  19    1.09    0.46
  -4  -5  19    0.06    0.37
   4  -5 -19    0.59    0.54
   5  -4  19    0.39    0.42
   4   5  19    0.76    0.44
  -4   5 -19    0.75    0.43
  -5   4  19    0.27    0.42
   4   5  19    1.41    0.40
   4   5  19    1.07    0.44
   4   5  19    0.81    0.35
  -5  -4 -19    1.12    0.39
   1  -6  19   14.11    0.84
  -6   1 -19   14.58    0.76
   6  -1 -19   13.33    0.92
  -6   1 -19   15.43    0.86
  -6  -1  19   15.28    0.91
  -1  -6 -19   13.99    0.90
  -1   6  19   13.29    0.80
   6   1  19   15.32    0.88
   6  -1 -19   14.56    0.88
   6   1  19   15.17    0.85
   1   6 -19   15.41    0.91
   6   1 -19   14.84    0.90
  -6  -1 -19   13.97    0.74
  -1  -6  19   15.15    0.82
  -1  -6  19   15.56    0.82
  -6   1  19   15.27    0.88
   1  -6 -19   16.46    0.97
  -1   6 -19   15.89    0.89
   6   1 -19   15.06    0.91
   6  -1  19   14.44    0.88
   1   6  19   15.16    0.79
  -6   3 -19    1.32    0.44
  -3  -6 -19    0.21    0.30
   3  -6  19    0.75    0.42
   6  -3 -19    0.63    0.52
   6   3  19    1.07    0.44
  -6   3 -19    0.73    0.35
  -6  -3  19    0.16    0.45
  -3  -6 -19    0.44    0.41
   6   3  19    0.51    0.43
  -3   6  19    0.02    0.40
   3   6 -19    1.01    0.46
  -3  -6  19    1.08    0.41
  -3  -6  19    0.43    0.41
   6  -3  19    0.67    0.45
   3   6  19    0.55    0.42
  -6  -3 -19    0.80    0.37
   6   3 -19    0.82    0.44
   6   3 -19    0.87    0.51
  -3   6 -19    0.15    0.42
   3   6  19   -0.13    0.34
   3  -6 -19    0.91    0.53
  -6   3  19    0.41    0.40
   6   5  19   10.71    0.83
  -6  -5  19   10.93    0.89
  -6   5 -19   11.83    0.76
   5  -6  19   11.29    0.80
   5   6 -19   11.51    0.89
  -6   5 -19   10.45    0.83
  -5   6  19   10.34    0.77
  -5  -6 -19   11.26    0.70
   6   5  19   11.99    0.84
   6  -5 -19   12.37    0.98
   5   6  19   11.03    0.84
   6  -5  19   11.46    0.88
   5  -6 -19   11.19    0.97
  -6  -5 -19   12.42    0.83
   5   6  19   11.69    0.91
   5   6  19   11.42    0.75
  -6   5  19   11.97    0.88
  -5   6 -19   10.92    0.84
  -5  -6  19   10.17    0.85
  -5  -6  19   11.12    0.77
   6   5 -19   10.52    0.96
   0  -7 -19   -0.09    0.47
  -7   0  19    0.40    0.45
  -7   0 -19   -0.33    0.35
   0   7  19    0.52    0.38
   7   0  19   -0.13    0.41
   7   0 -19    0.05    0.44
   0  -7  19    0.06    0.40
   0   7 -19    0.18    0.43
   7   0 -19   -0.21    0.46
   0  -7  19   -0.08    0.36
   7   0  19   -0.42    0.35
  -2   7  19    0.17    0.42
  -7   2 -19    0.54    0.40
   2  -7  19    1.91    0.47
   7  -2 -19    0.74    0.44
   2   7 -19    0.32    0.47
  -7  -2  19   -0.33    0.43
  -7   2 -19    0.83    0.40
  -2  -7 -19    0.04    0.43
   7  -2 -19    1.10    0.53
   7   2  19    0.60    0.44
   7   2  19    1.06    0.46
   7   2 -19    0.62    0.43
   2   7  19    0.56    0.40
  -2   7 -19    1.58    0.46
  -2  -7  19    0.56    0.39
   7  -2  19    0.29    0.43
  -7  -2 -19    0.31    0.40
   7   2 -19    0.56    0.52
   2   7  19    0.50    0.42
  -2  -7  19   -0.04    0.40
   2  -7 -19    0.54    0.49
  -7   2  19    0.42    0.46
   4  -7  19    0.04    0.45
  -7   4 -19    0.38    0.43
   4   7 -19    0.15    0.55
  -4  -7 -19   -0.14    0.41
  -7   4 -19    0.23    0.38
  -7  -4  19    0.11    0.43
   7  -4 -19    0.93    0.55
   7   4  19    0.81    0.44
   7   4  19   -0.30    0.44
  -4  -7 -19    0.52    0.36
  -4   7  19   -0.08    0.40
  -7  -4 -19    0.33    0.42
  -4  -7  19    1.12    0.47
  -4  -7  19    0.16    0.38
  -4   7 -19    0.25    0.42
   4   7  19   -0.27    0.37
   7  -4  19   -0.57    0.38
  -7   4  19    0.48    0.46
   4  -7 -19    0.48    0.53
   4   7  19    0.50    0.47
   7   4 -19    0.49    0.53
  -6   7  19    0.22    0.46
   7   6  19   -0.08    0.41
  -7   6 -19    0.71    0.45
  -6  -7 -19    0.20    0.46
  -6  -7 -19    0.12    0.35
   6  -7  19   -0.35    0.45
  -7  -6  19   -0.36    0.47
   7  -6 -19   -0.39    0.46
  -7   6 -19    0.24    0.41
   6   7 -19    0.48    0.58
   6   7  19   -0.41    0.41
   6  -7 -19    1.12    0.53
  -6   7 -19   -0.38    0.39
  -7  -6 -19   -0.01    0.45
  -6  -7  19    0.80    0.52
   6   7  19   -0.27    0.47
  -7   6  19   -0.43    0.44
   7  -6  19    0.10    0.48
  -6   7 -19   -0.07    0.45
   7   6 -19   -0.32    0.52
  -8  -1  19    2.33    0.57
  -1   8  19    3.74    0.56
   8   1  19    2.48    0.52
  -8   1 -19    2.18    0.48
   8  -1 -19    2.93    0.58
  -1  -8 -19    2.53    0.55
   1   8 -19    1.44    0.52
   8   1  19    2.81    0.53
   1  -8  19    2.51    0.48
   8  -1 -19    2.40    0.54
   8   1 -19    2.64    0.55
  -1  -8  19    2.12    0.46
   8  -1  19    2.30    0.53
  -8  -1 -19    1.86    0.46
  -1  -8  19    3.40    0.53
  -1   8 -19    1.59    0.48
   8  -1  19    2.81    0.54
   1   8  19    2.89    0.54
   1   8  19    3.06    0.51
   8   1 -19    3.13    0.59
  -8   1  19    3.20    0.58
   1  -8 -19    2.70    0.58
  -3  -8 -19    1.80    0.48
   3   8 -19    1.70    0.60
  -8   3 -19    0.93    0.46
   8   3  19    2.37    0.53
  -8  -3  19    2.03    0.55
  -3   8  19    1.33    0.45
  -8   3 -19    2.17    0.48
   8   3  19    1.27    0.48
   3  -8  19    2.26    0.55
   8  -3 -19    2.45    0.63
  -8   3  19    1.95    0.50
   3   8  19    1.75    0.46
  -8  -3 -19    1.21    0.48
  -3   8 -19    2.24    0.51
  -3  -8  19    2.38    0.47
   3  -8 -19    1.90    0.59
   8   3 -19    1.22    0.57
  -3  -8  19    1.88    0.54
   3   8  19    1.78    0.54
   8  -3  19    1.30    0.51
   5   8 -19    3.11    0.70
   8   5  19    3.55    0.57
  -8   5 -19    3.60    0.54
  -5   8  19    3.78    0.57
  -8   5 -19    2.67    0.54
   5  -8  19    3.51    0.59
  -8  -5  19    3.45    0.64
  -5  -8 -19    3.17    0.50
   8  -5 -19    2.92    0.60
  -8   5  19    2.72    0.56
  -5  -8  19    3.39    0.62
  -5   8 -19    3.25    0.56
   8  -5  19    3.25    0.60
   5   8  19    3.01    0.61
   8   5 -19    2.97    0.65
   5  -8 -19    2.99    0.59
  -8  -5 -19    2.88    0.59
   7  -8  19    0.46    0.51
  -8   7 -19    0.38    0.46
   7   8 -19    1.54    0.65
  -8  -7  19    0.72    0.56
  -8   7 -19    0.99    0.49
  -7   8  19    0.49    0.54
   8  -7 -19    0.71    0.59
  -7  -8 -19    0.64    0.54
   8   7  19    0.64    0.47
   8  -7  19    1.14    0.56
   7  -8 -19   -0.23    0.59
  -8   7  19    0.00    0.48
  -7   8 -19    0.33    0.47
  -7  -8  19    1.39    0.59
  -7   8 -19    0.38    0.43
  -8  -7 -19    0.66    0.56
   8   7 -19    0.70    0.62
  -9   0 -19   -0.29    0.42
  -9   0  19    0.50    0.51
   0   9 -19    0.10    0.47
   0  -9 -19   -0.33    0.45
   9   0 -19   -0.63    0.47
   9   0  19   -0.04    0.41
   9   0 -19   -0.15    0.49
   0   9  19    0.18    0.42
   0  -9  19   -0.46    0.41
   9   0  19    0.09    0.46
   9   2  19   15.02    0.96
   9  -2 -19   14.02    1.07
  -2   9  19   16.05    0.96
  -9   2 -19   14.61    0.97
   2   9 -19   14.43    1.03
   2  -9  19   15.48    0.94
  -9  -2  19   13.06    1.02
  -2  -9 -19   14.77    0.90
   9  -2  19   15.23    0.95
  -9  -2 -19   14.67    1.00
  -2  -9  19   15.04    0.84
   2  -9 -19   14.67    1.01
  -2   9 -19   14.47    0.92
   9  -2  19   15.42    0.98
  -2  -9  19   14.08    0.92
   2   9  19   15.39    1.05
   2   9  19   14.58    0.92
   9   2 -19   15.09    1.05
  -9   2  19   14.37    1.00
  -9  -4  19    1.17    0.56
   9   4  19    0.76    0.49
   9  -4 -19    0.63    0.56
   4  -9  19    0.37    0.46
  -9   4 -19    1.30    0.50
  -9   4 -19    0.81    0.48
   4   9 -19    0.43    0.56
  -4  -9 -19    0.42    0.44
  -4   9  19    1.00    0.48
   9  -4  19    0.61    0.51
   4   9  19    0.48    0.56
  -4   9 -19    0.74    0.49
  -9  -4 -19    0.76    0.55
  -9   4  19    0.68    0.50
  -4  -9  19    1.02    0.53
   9   4 -19    0.57    0.55
   4  -9 -19   -0.23    0.50
  -6  -9 -19   19.23    1.01
  -9   6 -19   19.90    1.10
   9   6  19   16.64    1.05
  -9  -6  19   17.21    1.15
  -6   9  19   17.73    1.11
   6  -9  19   17.87    1.08
  -9   6 -19   19.93    1.10
   9  -6 -19   17.32    1.21
   6   9 -19   19.90    1.24
   6   9  19   19.68    1.20
  -9  -6 -19   17.42    1.18
   6  -9 -19   17.52    1.22
  -6   9 -19   19.32    1.07
   9  -6  19   18.66    1.10
   9   6 -19   18.31    1.25
  -9   6  19   20.90    1.12
  -6  -9  19   19.89    1.20
  -8  -9 -19    1.47    0.65
   8   9 -19    1.09    0.66
  -8   9  19    1.49    0.57
   8  -9  19    0.84    0.55
   9  -8 -19    1.01    0.66
   9   8  19    1.98    0.58
  -9  -8  19    0.44    0.60
  -9   8 -19    1.46    0.53
  -9   8 -19    1.57    0.54
  -8  -9  19    0.88    0.61
   9  -8  19    1.00    0.58
  -9  -8 -19    1.36    0.62
  -8   9 -19    0.39    0.49
  -9   8  19    1.10    0.59
   8  -9 -19    0.97    0.66
   9   8 -19    1.89    0.67
  -8   9 -19    0.69    0.53
 -10   1 -19    2.71    0.58
  -1  10  19    3.12    0.59
   1 -10  19    2.05    0.53
   1  10 -19    2.19    0.59
 -10  -1  19    1.86    0.60
  10   1  19    1.99    0.56
  10  -1 -19    3.95    0.65
  10  -1 -19    2.63    0.60
  -1 -10 -19    2.28    0.57
   1  10  19    2.05    0.58
   1 -10 -19    3.50    0.63
   1  10  19    2.46    0.55
 -10   1  19    2.74    0.58
  10  -1  19    2.21    0.53
 -10  -1 -19    1.52    0.57
  -1 -10  19    2.61    0.53
  10   1 -19    2.91    0.59
  -1  10 -19    2.11    0.57
  10  -1  19    3.15    0.61
  10   3  19    4.46    0.67
  -3  10  19    2.50    0.56
   3 -10  19    2.24    0.56
  -3 -10 -19    4.06    0.61
 -10  -3  19    3.66    0.65
   3  10 -19    3.44    0.71
 -10   3 -19    3.69    0.62
 -10   3 -19    3.96    0.63
  10  -3 -19    3.59    0.68
 -10  -3 -19    3.31    0.63
  10   3 -19    4.36    0.72
  10  -3  19    3.08    0.57
 -10   3  19    3.79    0.64
   3 -10 -19    3.98    0.67
  -3 -10  19    4.32    0.65
  10  -3  19    3.65    0.61
  -3  10 -19    2.94    0.56
   3  10  19    3.64    0.68
 -10   5 -19   17.34    1.07
   5  10 -19   16.60    1.28
  -5  10  19   17.10    1.10
   5 -10  19   16.45    1.06
  10  -5 -19   17.86    1.20
 -10   5 -19   17.52    1.07
  10   5  19   16.91    1.08
 -10  -5  19   17.40    1.17
  -5 -10 -19   17.84    1.01
   5 -10 -19   15.43    1.18
  10  -5  19   17.99    1.11
 -10   5  19   16.83    1.09
  10   5 -19   18.47    1.24
  -5  10 -19   19.44    1.05
  -5 -10  19   16.33    1.16
   5  10  19   14.74    1.20
 -10  -5 -19   17.29    1.16
  10   7  19    1.53    0.58
 -10  -7  19    1.48    0.63
 -10   7 -19    1.15    0.55
   7  10 -19    0.79    0.67
  -7  10  19    1.34    0.56
   7 -10  19    0.46    0.54
  10  -7 -19    0.84    0.66
 -10   7 -19    0.62    0.52
  10  -7  19    1.41    0.58
 -10   7  19    0.76    0.57
 -10  -7 -19    0.29    0.61
   7 -10 -19    1.76    0.70
  -7 -10  19    1.11    0.64
  10   7 -19    0.72    0.66
   7  10  19    1.39    0.66
 -10   9 -19    4.49    0.72
  -9  10 -19    2.86    0.65
 -10   9  19    4.63    0.80
   0 -11 -19   -0.62    0.47
  11   0 -19    0.61    0.56
 -11   0  19   -0.71    0.50
   0  11  19    0.78    0.53
  11   0  19   -0.66    0.47
   0  11  19    1.07    0.53
 -11   0 -19    0.81    0.54
   0 -11  19    0.07    0.46
   0  11 -19   -0.87    0.49
   2 -11  19    3.60    0.61
  11  -2 -19    2.16    0.63
  -2  11  19    2.18    0.57
  -2 -11 -19    3.31    0.63
   2  11 -19    2.48    0.68
  11   2  19    1.65    0.55
 -11  -2  19    2.61    0.63
 -11   2 -19    3.26    0.65
  11   2 -19    3.07    0.71
 -11  -2 -19    2.89    0.65
   2  11  19    2.77    0.65
 -11   2  19    2.50    0.63
   2 -11 -19    3.01    0.64
  -2 -11  19    2.10    0.60
  -2  11 -19    2.88    0.62
  11  -2  19    2.56    0.61
  11  -2  19    2.67    0.58
   4 -11  19   -0.53    0.47
   4  11 -19   -0.28    0.63
  -4 -11 -19   -0.67    0.50
  11  -4 -19   -0.92    0.55
 -11   4 -19   -0.48    0.49
 -11   4 -19    0.11    0.50
 -11  -4  19   -0.17    0.54
  -4  11  19    0.26    0.53
  11   4  19   -0.39    0.53
   4  11  19    0.14    0.59
  -4 -11  19   -0.36    0.53
   4 -11 -19    1.14    0.64
 -11   4  19    0.05    0.53
  11  -4  19    0.01    0.51
  11   4 -19   -0.18    0.60
 -11  -4 -19   -0.31    0.60
  -6 -11 -19    5.11    0.69
 -11  -6  19    4.44    0.76
  11  -6 -19    3.99    0.77
  11   6  19    4.07    0.69
   6 -11  19    3.83    0.67
  -6  11  19    4.23    0.70
 -11   6 -19    4.69    0.68
   6  11 -19    5.64    0.84
 -11   6 -19    2.91    0.64
  11   6 -19    3.89    0.82
 -11  -6 -19    5.43    0.84
  -6 -11  19    3.00    0.68
  11  -6  19    3.14    0.66
 -11   6  19    3.95    0.68
   6  11  19    4.52    0.77
   6 -11 -19    3.27    0.75
 -11   8 -19    0.15    0.56
  11   8  19    0.39    0.59
 -12  -1  19    4.10    0.76
  -1  12  19    2.32    0.62
   1  12 -19    2.94    0.72
  12   1  19    3.53    0.64
 -12   1 -19    3.42    0.70
  -1 -12 -19    4.99    0.72
 -12   1  19    3.93    0.71
  -1  12 -19    3.94    0.71
  12   1 -19    5.62    0.77
  12  -1  19    3.31    0.67
   1 -12 -19    4.06    0.69
   1  12  19    3.30    0.72
 -12  -1 -19    3.23    0.71
 -12   3 -19    1.88    0.61
   3 -12  19    1.91    0.58
  12  -3 -19    0.92    0.62
  -3 -12 -19    2.27    0.61
   3  12 -19    1.80    0.71
  -3  12  19    1.70    0.61
  12   3  19    0.96    0.56
 -12  -3  19    0.76    0.61
  12  -3  19    1.48    0.59
  -3 -12  19    1.45    0.63
  12  -3  19    1.56    0.60
 -12  -3 -19    1.87    0.68
  12   3 -19    2.08    0.70
 -12   3  19    1.77    0.61
   3 -12 -19    1.30    0.62
   3  12  19    0.46    0.62
   5 -12  19    2.68    0.65
 -12   5 -19    4.23    0.69
 -12   5 -19    2.93    0.68
  -5  12  19    1.59    0.67
  12  -5 -19    4.73    0.82
   5  12 -19    1.80    0.73
  -5 -12 -19    1.10    0.60
  12   5  19    1.91    0.67
 -12  -5  19    2.14    0.69
 -12  -5 -19    3.11    0.79
   5  12  19    2.13    0.72
  12  -5  19    1.40    0.64
   5 -12 -19    1.32    0.66
  12   5 -19    3.57    0.82
  -5 -12  19    2.96    0.70
 -12   5  19    2.93    0.69
  -7 -12 -19   -0.05    0.54
 -12   7 -19    1.20    0.57
   0  13  19    0.60    0.61
 -13   0  19    0.75    0.62
 -13   0 -19    0.15    0.63
 -13  -2  19    7.05    0.90
 -13   2 -19    9.12    1.06
   2  13 -19    7.83    0.98
  13   2 -19    9.90    1.07
 -13  -2 -19   10.23    1.17
   2  13  19   12.23    1.13
   2 -13 -19   10.87    1.04
 -13   2  19    7.76    0.99
  13  -4 -19   -0.08    0.61
   4  13 -19   -0.66    0.66
   4 -13  19   -0.09    0.54
  13  -4  19    0.31    0.57
   4  13  19    0.29    0.65
   4 -13 -19    0.36    0.62
  -4 -13  19   -0.66    0.57
 -13   4  19    0.01    0.57
   0   0  20    0.09    0.30
   0   0  20   -0.29    0.38
   0   0 -20   -0.27    0.33
   1   1  20   -0.08    0.28
   1  -1 -20   -0.11    0.33
  -1   1  20    0.01    0.31
  -1  -1  20   -0.16    0.40
  -1  -1 -20   -0.48    0.32
   1  -1  20    0.07    0.27
  -1   1  20    0.11    0.40
   1   1 -20   -0.17    0.35
  -1  -1  20   -0.20    0.32
   1   1  20    0.33    0.42
   1  -1  20   -0.28    0.38
  -1   1 -20   -0.20    0.35
  -2   0 -20    1.14    0.37
   2   0 -20    2.03    0.42
   0  -2  20    1.11    0.44
  -2   0  20    1.81    0.40
   0   2  20    1.54    0.35
  -2   0  20    1.01    0.39
   0   2 -20    1.99    0.43
   0   2  20    1.21    0.45
   2   0  20    1.87    0.32
   0  -2  20    1.61    0.37
   0  -2 -20    2.59    0.39
   2   0  20    1.47    0.45
  -2   2  20   59.94    1.57
  -2   2  20   57.84    1.66
  -2  -2  20   58.06    1.60
  -2   2 -20   59.35    1.59
   2   2  20   57.85    1.46
   2  -2 -20   57.32    1.51
   2   2  20   59.92    1.66
  -2  -2  20   59.47    1.56
   2  -2  20   60.35    1.63
  -2  -2 -20   60.20    1.56
   2   2 -20   59.76    1.63
   1  -3  20    0.40    0.32
   3   1  20    0.49    0.28
   3   1  20   -0.04    0.39
  -1  -3 -20    0.63    0.32
   1   3 -20    1.10    0.43
   1  -3  20   -0.09    0.35
  -3  -1  20    0.25    0.37
   3  -1 -20    0.63    0.37
  -3   1 -20    0.16    0.35
  -1   3  20    0.83    0.43
  -3  -1  20    0.95    0.41
  -1   3  20    0.19    0.34
  -1  -3  20    0.03    0.36
  -1   3 -20    0.96    0.41
  -3  -1 -20    0.66    0.38
  -3   1  20    0.52    0.42
   1   3  20    0.31    0.37
  -1  -3  20    0.38    0.35
   3   1 -20    0.64    0.41
  -3   1  20    0.82    0.39
   1  -3 -20    0.60    0.31
   3  -1  20    0.13    0.38
   1   3  20    0.71    0.32
  -3  -3  20    0.34    0.38
   3   3  20    0.59    0.45
  -3  -3  20   -0.11    0.37
   3  -3 -20   -0.57    0.45
  -3   3 -20    0.08    0.39
   3  -3 -20   -0.34    0.31
  -3   3  20   -0.77    0.32
   3  -3  20   -0.46    0.34
   3   3 -20    0.44    0.43
  -3  -3 -20    0.31    0.33
   3   3  20   -0.07    0.28
   4   0  20   -0.01    0.40
   0   4  20   -0.04    0.32
   4   0 -20    0.03    0.46
   0  -4  20    0.19    0.32
   0  -4  20    0.31    0.41
  -4   0  20   -0.50    0.35
  -4   0 -20    0.03    0.35
   0  -4 -20   -0.72    0.46
   0  -4 -20    0.49    0.30
  -4   0  20   -0.14    0.41
   0   4 -20    0.55    0.41
   0   4  20   -0.19    0.45
   4   0 -20   -0.42    0.36
  -2   4  20    1.59    0.43
   4  -2 -20    1.22    0.40
   2   4 -20    1.04    0.42
   4  -2 -20    1.00    0.49
  -4   2 -20    1.13    0.44
   4   2  20    1.62    0.47
   2  -4  20    0.64    0.40
  -2  -4 -20    1.47    0.36
  -4  -2  20    1.53    0.43
  -4  -2  20    1.41    0.43
   2  -4 -20    1.23    0.33
  -4   2  20    1.70    0.44
   2   4  20    1.54    0.49
   2  -4 -20    1.52    0.52
   4   2 -20    1.48    0.47
   2   4  20    0.99    0.35
  -2  -4  20    2.00    0.44
  -4  -2 -20    1.73    0.40
   4  -2  20    1.64    0.43
  -2   4 -20    1.37    0.45
  -4  -2 -20    1.41    0.35
  -2  -4  20    1.49    0.42
   4   4  20   -0.24    0.41
   4  -4 -20   -0.08    0.48
   4   4  20    0.08    0.32
   4  -4  20   -0.06    0.36
  -4   4 -20    0.53    0.43
  -4  -4  20    0.16    0.43
  -4  -4 -20    0.72    0.37
  -4   4  20   -0.42    0.37
  -4  -4 -20   -0.20    0.33
  -4  -4  20   -0.14    0.36
   4   4 -20    0.42    0.48
  -1  -5 -20    0.65    0.47
  -5   1 -20    0.61    0.42
   1  -5  20    0.83    0.44
   1   5 -20    1.08    0.42
   5  -1 -20    0.81    0.51
  -1   5  20    0.22    0.38
  -1  -5 -20    0.26    0.28
  -5  -1  20    0.35    0.42
   5   1  20    0.00    0.39
  -5   1 -20    0.55    0.31
   5  -1 -20    0.34    0.40
  -5  -1 -20    0.97    0.42
  -1   5 -20    0.28    0.39
   5  -1  20    0.91    0.46
  -5  -1 -20    0.79    0.33
  -5   1  20    0.71    0.41
  -1  -5  20    0.41    0.40
   1  -5 -20    0.51    0.50
   5   1 -20    0.95    0.48
   1   5  20    1.03    0.38
   5   1 -20    0.83    0.46
  -1  -5  20    0.76    0.38
   5  -3 -20    2.18    0.45
  -5  -3  20    1.93    0.49
   3   5 -20    1.93    0.52
   5  -3 -20    1.91    0.53
  -5   3 -20    1.44    0.45
  -3   5  20    1.62    0.44
   5   3  20    1.90    0.44
  -5  -3  20    1.84    0.45
   5   3  20    1.91    0.50
   3  -5  20    1.99    0.48
  -3  -5 -20    2.32    0.39
  -3   5 -20    2.63    0.51
   3  -5 -20    1.89    0.56
   5   3 -20    2.05    0.52
   3   5  20    1.99    0.46
  -3  -5  20    2.76    0.49
  -5  -3 -20    1.50    0.42
   3   5  20    1.51    0.49
   5  -3  20    2.50    0.48
  -5  -3 -20    1.74    0.40
  -5   3  20    1.09    0.44
   3   5  20    2.18    0.41
  -3  -5  20    1.26    0.43
  -5  -5  20   -0.21    0.37
  -5   5 -20    0.54    0.45
  -5  -5  20   -0.08    0.43
  -5  -5 -20   -0.19    0.38
   5  -5 -20   -0.03    0.50
   5   5  20   -0.03    0.41
   5   5  20    0.06    0.44
   5   5 -20   -0.28    0.52
  -5   5  20    0.06    0.41
   5  -5  20   -0.73    0.35
  -6   0 -20   12.23    0.82
  -6   0  20   11.14    0.86
   6   0  20   11.72    0.82
   6   0 -20    9.73    0.82
   0   6 -20   12.15    0.85
  -6   0 -20   10.99    0.70
   0   6  20   10.19    0.77
   0  -6  20   11.94    0.81
   0  -6 -20   12.70    0.92
   6   0 -20   11.69    0.88
   0  -6  20   11.02    0.73
  -2  -6 -20   59.92    1.75
  -2   6  20   62.50    1.71
   6   2  20   60.94    1.72
   2   6 -20   57.50    1.73
  -6   2 -20   60.12    1.72
   6   2  20   62.58    1.72
  -6   2 -20   61.24    1.58
   6  -2 -20   61.52    1.67
  -6  -2  20   60.79    1.77
   6  -2 -20   60.07    1.78
   2  -6  20   59.86    1.71
   6   2 -20   62.66    1.73
  -6  -2 -20   63.70    1.66
   2  -6 -20   60.40    1.81
   2   6  20   61.01    1.64
   6   2 -20   63.47    1.80
  -2   6 -20   59.83    1.73
  -6   2  20   60.04    1.73
  -2  -6  20   61.30    1.67
   6  -2  20   60.20    1.72
  -2  -6  20   61.25    1.65
  -6  -4  20    8.26    0.69
  -6   4 -20    8.02    0.81
   6   4  20    8.13    0.79
   6  -4 -20    7.76    0.91
  -4  -6 -20    6.96    0.74
  -4   6  20    8.63    0.78
   6   4  20    7.19    0.81
   4  -6  20    7.13    0.78
  -6  -4  20    7.30    0.84
   4   6 -20    7.81    0.90
  -4  -6 -20    7.57    0.64
  -6   4  20    8.02    0.80
   6  -4  20    8.03    0.73
   4  -6 -20    9.28    0.94
  -6  -4 -20    8.13    0.70
  -4  -6  20    7.73    0.69
  -4   6 -20    8.24    0.84
  -4  -6  20    7.37    0.78
   4   6  20    7.22    0.66
   4   6  20    8.02    0.79
   6   4 -20    7.90    0.89
   4   6  20    7.63    0.81
  -6  -6 -20   19.36    1.03
  -6  -6  20   17.07    1.04
   6  -6 -20   19.23    1.09
  -6   6  20   19.72    1.05
   6   6 -20   18.05    1.14
   6  -6  20   16.11    0.95
   6   6  20   19.26    0.99
  -6   6 -20   17.05    1.02
   7   1  20    1.40    0.49
   7  -1 -20    0.53    0.51
  -1   7  20    1.03    0.42
   7  -1 -20    0.24    0.44
   7   1  20    1.46    0.48
  -7  -1  20    1.56    0.49
   1   7 -20    1.22    0.52
  -7   1 -20    0.54    0.37
  -7   1 -20    0.89    0.46
  -1  -7 -20    0.59    0.48
   1  -7  20    0.93    0.47
  -7  -1 -20    0.17    0.37
   7   1 -20    1.58    0.55
   1  -7 -20   -0.18    0.52
  -7   1  20    1.12    0.48
  -1  -7  20    0.94    0.43
  -1   7 -20    1.30    0.46
   7   1 -20    1.53    0.52
   7  -1  20    0.83    0.48
  -1  -7  20    1.06    0.43
   1   7  20    1.38    0.43
  -7   3 -20    0.18    0.42
  -7  -3  20   -0.14    0.48
   7   3  20   -0.01    0.44
   3  -7  20   -0.11    0.44
   7   3  20   -0.20    0.42
   7  -3 -20    0.92    0.51
  -3  -7 -20   -0.03    0.45
  -7   3 -20    0.02    0.37
   3   7 -20   -0.51    0.51
  -3   7  20   -0.65    0.38
  -3   7 -20   -0.23    0.40
  -7   3  20    0.37    0.44
   7   3 -20   -0.09    0.45
   7   3 -20    0.42    0.55
  -3  -7  20   -0.19    0.42
   7  -3  20   -0.13    0.46
  -7  -3 -20   -0.28    0.40
   3   7  20    0.88    0.43
  -3  -7  20    0.40    0.41
   3   7  20   -0.05    0.44
   3  -7 -20    0.36    0.52
   5  -7  20    1.66    0.49
  -7   5 -20    1.43    0.51
   7   5  20    2.10    0.51
  -5   7  20    1.29    0.51
   7  -5 -20    1.51    0.62
  -7   5 -20    1.58    0.44
   5   7 -20   -0.16    0.51
  -5  -7 -20    1.17    0.41
  -7  -5  20    1.18    0.56
  -7   5  20    1.49    0.49
   5   7  20    1.60    0.54
  -5   7 -20    1.67    0.50
   7  -5  20    1.20    0.50
  -5  -7  20    1.17    0.52
  -7  -5 -20    1.32    0.50
   5  -7 -20    0.98    0.60
   7   5 -20    0.77    0.57
   7   7 -20   -0.72    0.54
   7   7  20    0.79    0.47
  -7  -7 -20   -0.77    0.45
  -7  -7  20   -0.10    0.52
  -7   7  20   -0.16    0.46
   7  -7  20   -0.27    0.52
   7  -7 -20   -0.42    0.53
  -7   7 -20    0.49    0.50
   8   0  20    0.83    0.49
  -8   0  20    0.19    0.51
   8   0 -20    0.15    0.51
   0  -8 -20    0.79    0.52
   8   0 -20    0.22    0.49
   0   8 -20    0.36    0.46
   0   8  20    0.51    0.41
   8   0  20    0.78    0.48
  -8   0 -20    0.71    0.43
   0  -8  20    0.72    0.46
  -8  -2  20    0.06    0.46
  -8   2 -20    0.51    0.46
   2  -8  20    0.24    0.44
   2   8 -20   -0.58    0.48
  -8   2 -20    0.58    0.44
   8   2  20    0.79    0.47
  -2  -8 -20    0.77    0.49
  -2   8  20    0.97    0.47
   8  -2 -20   -0.43    0.50
   8   2  20    0.21    0.46
   8   2 -20    0.36    0.49
  -2   8 -20    1.05    0.47
  -8  -2 -20    0.09    0.43
   8  -2  20    0.31    0.48
   2  -8 -20    1.21    0.53
   2   8  20    0.87    0.48
  -2  -8  20   -0.30    0.39
  -8   2  20    0.48    0.47
   2   8  20    0.05    0.42
  -2  -8  20    0.60    0.46
   8   2 -20    0.61    0.56
  -8   4 -20   -0.63    0.42
  -4  -8 -20    0.08    0.38
   8  -4 -20   -0.32    0.50
  -8   4 -20    0.67    0.43
   4   8 -20    0.16    0.52
  -8  -4  20   -0.70    0.50
  -4   8  20    1.03    0.49
   8   4  20   -0.28    0.43
   4  -8  20   -0.31    0.47
   8   4 -20    0.78    0.58
  -4   8 -20   -0.74    0.42
  -8   4  20   -0.07    0.47
   8  -4  20   -0.02    0.46
  -4  -8  20   -0.08    0.47
   4   8  20    0.51    0.50
   4  -8 -20    0.05    0.53
  -8  -4 -20   -0.27    0.46
   6   8 -20    5.29    0.81
  -8   6 -20    6.08    0.79
  -8  -6  20    3.09    0.66
  -8   6 -20    6.44    0.85
   8   6  20    5.33    0.66
   6  -8  20    5.72    0.72
   8  -6 -20    5.65    0.79
  -6   8  20    5.42    0.68
   8  -6  20    6.21    0.87
  -6   8 -20    5.12    0.68
   6   8  20    5.16    0.72
  -8  -6 -20    4.80    0.69
  -8   6  20    5.01    0.69
   8   6 -20    3.86    0.72
  -6  -8  20    5.79    0.75
   6  -8 -20    4.28    0.75
  -8  -8  20    2.00    0.64
   8  -8  20    0.93    0.58
  -8   8 -20    0.08    0.52
  -8  -8 -20    0.46    0.56
   8   8 -20    0.28    0.62
  -8   8  20    0.19    0.57
   8  -8 -20    1.27    0.64
   9   1  20    2.43    0.56
  -1   9  20    2.89    0.55
   1  -9  20    1.98    0.52
  -1  -9 -20    1.42    0.53
  -9  -1  20    2.65    0.62
   1   9 -20    1.59    0.57
   9  -1 -20    1.94    0.53
  -9   1 -20    2.08    0.53
   9  -1 -20    2.42    0.58
   9   1  20    1.80    0.52
   1   9  20    1.79    0.51
  -1  -9  20    2.24    0.54
   9   1 -20    1.54    0.57
  -9  -1 -20    1.18    0.51
  -1  -9  20    0.76    0.48
   9  -1  20    1.12    0.51
  -1   9 -20    1.51    0.52
  -9   1  20    2.57    0.58
   9   1 -20    1.92    0.55
   9  -1  20    1.61    0.54
   1  -9 -20    1.49    0.54
  -3  -9 -20    1.97    0.52
   9  -3 -20    1.58    0.60
  -9   3 -20    1.37    0.51
   3   9 -20    2.54    0.63
   3  -9  20    2.16    0.57
   9   3  20    3.31    0.59
  -9   3 -20    2.63    0.54
  -9  -3  20    1.62    0.57
  -3   9  20    2.09    0.53
  -3   9 -20    2.49    0.54
   3   9  20    2.45    0.59
   9  -3  20    2.38    0.56
  -9  -3 -20    1.23    0.55
   9   3 -20    1.61    0.63
   3  -9 -20    2.91    0.63
  -3  -9  20    1.90    0.57
  -9   3  20    2.71    0.57
  -9   5 -20    1.11    0.51
   5  -9  20   -0.05    0.50
   5   9 -20   -0.29    0.58
   9   5  20   -0.99    0.44
  -9   5 -20   -0.02    0.48
  -9  -5  20   -0.47    0.50
   9  -5 -20    0.23    0.59
  -5  -9 -20    0.61    0.44
  -5   9  20    0.24    0.50
   5  -9 -20   -0.07    0.49
   5   9  20    0.06    0.53
  -9  -5 -20   -0.50    0.48
   9  -5  20    0.20    0.53
  -5  -9  20    0.49    0.55
  -5   9 -20    0.66    0.48
  -9   5  20    0.46    0.53
   9   5 -20    0.78    0.57
  -7   9  20    2.64    0.62
  -9   7 -20    3.84    0.62
   7  -9  20    2.70    0.64
   7   9 -20    2.54    0.72
   9  -7 -20    1.78    0.65
  -9   7 -20    2.23    0.57
  -9  -7  20    3.77    0.73
   9   7  20    2.99    0.60
   9   7 -20    2.74    0.76
   7   9  20    2.51    0.68
  -9  -7 -20    3.12    0.69
  -7   9 -20    2.31    0.59
   9  -7  20    3.33    0.70
  -9   7  20    2.70    0.61
  -7  -9  20    2.59    0.69
   7  -9 -20    1.13    0.65
  -9  -9 -20    0.06    0.61
  -9   9  20   -0.34    0.54
  10   0  20   11.25    0.96
   0 -10  20   14.30    0.98
 -10   0  20   14.60    1.08
   0 -10 -20   13.87    1.00
  10   0  20   15.28    0.99
  10   0 -20   13.53    1.05
 -10   0 -20   11.44    0.95
  10   0 -20   12.98    1.04
   0  10  20   13.43    0.95
   0  10 -20   12.88    1.06
 -10   2 -20   23.77    1.18
  -2  10  20   21.44    1.15
   2  10 -20   23.43    1.27
  -2 -10 -20   21.97    1.12
  10   2  20   21.70    1.16
  10  -2 -20   21.47    1.20
   2 -10  20   22.60    1.11
 -10  -2  20   22.05    1.25
  -2  10 -20   21.54    1.12
  10   2 -20   21.68    1.21
   2 -10 -20   19.50    1.17
  10  -2  20   24.19    1.16
  -2 -10  20   21.00    1.11
   2  10  20   23.86    1.20
 -10   2  20   20.68    1.17
   2  10  20   23.19    1.14
 -10  -2 -20   21.84    1.16
  -4 -10 -20   14.95    1.03
 -10  -4  20   14.68    1.09
  -4  10  20   17.28    1.09
 -10   4 -20   16.70    1.08
  10   4  20   15.66    1.06
 -10   4 -20   15.38    1.03
   4  10 -20   17.12    1.20
   4 -10  20   14.00    1.01
  10  -4 -20   14.08    1.11
 -10   4  20   15.94    1.09
  10   4 -20   14.68    1.15
   4 -10 -20   15.71    1.13
  10  -4  20   14.66    1.07
   4  10  20   15.18    1.13
 -10  -4 -20   14.14    1.14
  -4  10 -20   16.07    1.01
  -4 -10  20   15.86    1.09
 -10   6 -20   55.17    1.77
  10   6  20   57.71    1.84
  -6 -10 -20   56.12    1.75
   6 -10  20   55.83    1.83
   6  10 -20   55.71    1.96
  -6  10  20   55.69    1.86
  10  -6 -20   56.66    1.96
 -10   6 -20   56.49    1.83
 -10  -6  20   54.61    1.92
 -10  -6 -20   55.03    1.92
   6 -10 -20   55.12    1.94
  10  -6  20   55.40    1.85
 -10   6  20   57.70    1.88
  -6  10 -20   55.92    1.79
  10   6 -20   53.67    1.94
   6  10  20   56.36    1.94
  -6 -10  20   52.81    1.93
  10   8  20    5.44    0.76
 -10   8 -20    5.77    0.74
  -8  10  20    6.30    0.84
  -8 -10 -20    6.02    0.84
 -10   8 -20    5.78    0.76
 -10   8  20    4.21    0.76
 -10  -8 -20    7.52    1.08
  11   1  20    0.51    0.51
 -11   1 -20   -0.41    0.54
  -1  11  20   -0.59    0.49
   1  11 -20    0.28    0.59
  11  -1 -20    0.33    0.56
  -1 -11 -20    0.58    0.53
 -11  -1  20    0.32    0.61
   1 -11  20    0.46    0.48
   1  11  20    0.88    0.55
  -1  11 -20    0.24    0.58
  11  -1  20    0.99    0.55
 -11   1  20   -0.06    0.52
 -11  -1 -20   -0.44    0.52
  11   1 -20   -0.55    0.58
   1 -11 -20    0.28    0.54
  11  -1  20   -0.47    0.45
 -11   3 -20    0.68    0.51
  -3 -11 -20   -0.43    0.50
  11   3  20   -0.12    0.49
 -11  -3  20    1.21    0.62
   3 -11  20   -0.21    0.50
   3  11 -20   -0.09    0.62
  -3  11  20   -0.56    0.48
  11  -3 -20    1.12    0.63
 -11   3 -20    1.10    0.56
   3  11  20    0.56    0.59
  -3  11 -20    1.09    0.52
  11  -3  20   -0.12    0.53
   3 -11 -20    0.27    0.60
 -11  -3 -20   -0.61    0.54
 -11   3  20    0.51    0.54
  11   3 -20   -0.41    0.58
  11  -3  20    0.63    0.52
  -3 -11  20    0.03    0.53
   5 -11  20    0.79    0.57
  -5  11  20    1.38    0.59
  11  -5 -20    1.91    0.67
 -11   5 -20    1.54    0.58
  11   5  20    1.22    0.59
   5  11 -20    1.58    0.73
 -11   5 -20    1.23    0.58
 -11  -5  20    1.72    0.65
  -5 -11 -20    0.76    0.53
  11   5 -20    1.75    0.72
 -11  -5 -20   -0.52    0.60
  -5 -11  20    0.66    0.59
  11  -5  20    1.20    0.60
 -11   5  20    0.95    0.59
   5 -11 -20    1.59    0.69
   5  11  20    0.70    0.66
 -11   7 -20    0.35    0.57
  11   7  20   -0.49    0.54
 -11   7 -20   -0.12    0.55
 -11   7  20   -0.48    0.58
   7  11  20   -0.01    0.64
 -11  -7 -20   -0.20    0.68
   0  12 -20    0.85    0.61
  12   0  20    0.19    0.56
   0 -12 -20    0.16    0.58
 -12   0  20    0.42    0.60
   0  12  20    1.18    0.57
 -12   0 -20    0.38    0.60
  -2  12  20    0.22    0.55
   2  12 -20   -0.33    0.63
   2 -12  20    0.82    0.52
 -12  -2  20   -0.03    0.61
  -2 -12 -20    0.29    0.58
  12   2  20    0.47    0.57
 -12   2 -20    0.22    0.53
 -12   2  20    0.57    0.57
  12  -2  20    0.24    0.57
 -12  -2 -20    0.49    0.64
   2  12  20    0.69    0.60
   2 -12 -20    1.26    0.60
  12   2 -20    0.04    0.55
  12  -2  20    0.39    0.55
  12  -4 -20    1.17    0.67
  12   4  20    2.39    0.68
 -12   4 -20    0.76    0.57
  -4 -12 -20    1.63    0.60
 -12   4 -20   -0.08    0.56
 -12  -4  20    0.85    0.70
   4  12 -20   -1.47    0.63
   4 -12  20    0.39    0.54
 -12   4  20    0.06    0.58
  12  -4  20    0.99    0.59
 -12  -4 -20    1.80    0.70
  -4 -12  20    1.20    0.59
   4 -12 -20    0.49    0.63
  12   4 -20    0.33    0.62
   4  12  20    0.41    0.61
  -6 -12 -20    1.35    0.61
 -13   1 -20    1.59    0.65
 -13  -1 -20    1.93    0.70
  13   1 -20    1.51    0.68
   3 -13  20    3.65    0.69
   3  13 -20    2.67    0.79
   3  13  20    3.22    0.75
   3 -13 -20    3.57    0.74
   0   1  21   -0.18    0.36
  -1   0 -21    0.14    0.35
   0  -1  21   -0.47    0.38
   1   0 -21   -0.24    0.34
   0  -1 -21    0.33    0.36
   0   1  21   -0.10    0.30
  -1   0  21    0.18    0.33
  -1   0  21    0.73    0.43
   1   0  21    0.46    0.31
   0  -1  21    0.07    0.32
   0   1 -21   -0.02    0.37
   1   0  21   -0.24    0.41
  -1   2  21    6.11    0.65
   1   2 -21    8.12    0.72
  -1  -2 -21    6.20    0.59
   1  -2  21    7.08    0.56
   2  -1 -21    7.60    0.67
  -2  -1  21    7.83    0.75
   1  -2  21    6.60    0.72
  -2  -1  21    7.40    0.66
   2   1  21    5.30    0.74
  -2   1 -21    7.09    0.69
   2   1  21    6.12    0.54
  -1   2  21    6.64    0.77
  -1  -2  21    7.06    0.67
   1   2  21    6.78    0.60
   1  -2 -21    5.74    0.58
  -1   2 -21    6.87    0.70
   2  -1  21    6.89    0.66
  -2   1  21    7.31    0.65
  -2   1  21    6.46    0.77
   2   1 -21    7.41    0.67
  -2  -1 -21    6.56    0.64
  -1  -2  21    6.20    0.62
   1   2  21    6.81    0.77
  -3   0 -21    0.18    0.40
   0  -3  21   -0.18    0.33
   0   3  21    0.47    0.45
   0  -3 -21    0.07    0.31
   3   0 -21   -0.01    0.39
   0  -3  21    0.26    0.41
   0   3  21    0.50    0.34
   3   0  21   -0.17    0.41
  -3   0  21    0.18    0.37
   0   3 -21   -0.26    0.34
  -3   0  21    0.13    0.44
   3  -2 -21   16.46    0.79
   3   2  21   16.12    0.71
  -3  -2  21   16.82    0.88
   2   3 -21   16.78    0.93
  -3  -2  21   17.11    0.86
  -2   3  21   16.52    0.83
  -2  -3 -21   15.10    0.77
   3   2  21   15.42    0.93
   3  -2 -21   17.65    1.02
   2  -3  21   16.18    0.92
  -3   2 -21   16.47    0.91
  -3   2  21   15.95    0.84
   2  -3 -21   16.50    0.75
   3  -2  21   16.17    0.92
  -2  -3  21   14.90    0.88
   3   2 -21   16.36    0.91
  -2   3 -21   15.89    0.83
  -2  -3  21   16.51    0.86
  -3  -2 -21   16.27    0.84
   2   3  21   16.69    0.74
   2   3  21   16.48    0.94
   2  -3 -21   17.81    1.03
  -4  -1  21    0.25    0.40
  -4  -1  21    0.07    0.40
  -4   1 -21   -0.29    0.40
  -1  -4 -21   -0.01    0.30
  -1   4  21   -0.19    0.35
   4  -1 -21   -0.19    0.38
   4  -1 -21    0.68    0.50
   1  -4  21    0.02    0.41
   4   1  21    0.07    0.44
   1   4 -21    0.19    0.41
   1  -4 -21    0.00    0.43
  -1  -4  21   -0.37    0.34
  -1   4 -21    0.24    0.36
  -1  -4  21    0.25    0.42
   1   4  21    0.01    0.34
  -4  -1 -21   -0.15    0.38
   4   1 -21   -0.48    0.40
   1   4  21   -0.22    0.44
   4  -1  21    0.51    0.46
   1  -4 -21    0.05    0.31
  -4   1  21    0.22    0.40
  -4  -3  21   -0.06    0.40
  -4   3 -21    0.38    0.43
   4  -3 -21   -0.74    0.34
  -4  -3  21   -0.41    0.39
  -3  -4 -21   -0.61    0.31
   3   4 -21    0.27    0.46
   3  -4  21   -0.28    0.42
   4   3  21    0.07    0.46
   4  -3 -21   -0.88    0.47
  -3   4  21    0.50    0.40
  -3   4 -21    0.56    0.44
   3  -4 -21    0.18    0.48
  -3  -4  21    0.21    0.40
   4   3 -21   -0.74    0.42
  -3  -4  21    0.47    0.39
  -4   3  21    0.29    0.40
   3   4  21   -0.86    0.41
  -4  -3 -21   -0.02    0.35
   3   4  21   -0.81    0.31
   4  -3  21    0.50    0.45
  -5   0 -21    0.09    0.37
   0   5  21    0.20    0.35
   0   5 -21    0.49    0.40
  -5   0  21    0.18    0.41
   0  -5  21    0.20    0.34
   5   0  21   -0.19    0.43
   0  -5 -21   -0.01    0.48
   5   0 -21    0.10    0.44
   0  -5  21    0.18    0.42
   5   0 -21    0.05    0.48
  -5   2 -21    5.26    0.74
   2   5 -21    4.44    0.59
  -2  -5 -21    4.79    0.57
   5  -2 -21    4.15    0.55
   5   2  21    4.12    0.58
   5  -2 -21    5.19    0.66
   2  -5  21    3.84    0.58
  -2   5  21    4.13    0.54
  -5  -2  21    5.09    0.72
  -5  -2  21    5.28    0.69
   2   5  21    4.56    0.59
  -2   5 -21    4.20    0.57
   2  -5 -21    6.13    0.77
  -2  -5  21    5.30    0.71
  -5  -2 -21    4.49    0.65
  -2  -5  21    3.89    0.54
   5   2 -21    3.75    0.59
  -5  -2 -21    4.07    0.55
   5  -2  21    4.51    0.58
   2   5  21    5.85    0.78
  -5   2  21    3.17    0.53
  -5  -4  21    0.59    0.41
   5  -4 -21    0.50    0.53
  -5   4 -21   -0.31    0.38
   5   4  21    0.05    0.46
   4  -5  21    0.31    0.44
  -4   5  21    0.41    0.39
  -4  -5 -21    0.40    0.34
   4   5 -21    0.21    0.47
  -4  -5 -21    0.09    0.39
  -5  -4  21    0.17    0.44
   4   5  21    0.17    0.35
  -5   4  21    0.41    0.44
   4  -5 -21   -0.06    0.48
   4   5  21   -0.38    0.44
  -4   5 -21   -0.72    0.41
  -4  -5  21   -0.42    0.41
  -5  -4 -21    0.03    0.35
  -4  -5  21   -0.26    0.41
   5   4 -21    0.04    0.51
   5  -4  21    0.48    0.47
  -5  -4 -21    0.66    0.39
   1   6 -21    9.46    0.85
  -6  -1  21    8.20    0.83
   6  -1 -21    7.60    0.81
  -1  -6 -21    7.51    0.86
  -6   1 -21    8.69    0.80
   6  -1 -21    9.71    0.90
   6   1  21    9.92    0.84
   1  -6  21    8.40    0.79
  -1   6  21    8.62    0.73
   6  -1  21    9.90    0.84
   1   6  21    7.60    0.73
   6   1 -21    7.67    0.88
   1  -6 -21    9.74    0.93
  -6   1  21    9.76    0.82
  -6  -1 -21    9.01    0.64
  -1  -6  21    8.43    0.77
   6   1 -21    9.38    0.86
  -6  -1 -21    9.45    0.78
  -1   6 -21   10.79    0.84
  -1  -6  21    9.03    0.75
   3   6 -21    2.69    0.55
  -6   3 -21    4.17    0.60
  -6  -3  21    3.32    0.59
  -3   6  21    4.33    0.57
  -3  -6 -21    3.74    0.59
  -3  -6 -21    4.30    0.48
   6   3  21    2.86    0.52
   3  -6  21    2.84    0.55
   6  -3 -21    2.88    0.61
   6   3  21    4.20    0.61
  -3  -6  21    4.86    0.58
   3  -6 -21    4.75    0.70
  -3   6 -21    3.79    0.57
   6  -3  21    4.35    0.61
  -3  -6  21    4.53    0.58
  -6  -3 -21    3.69    0.54
   3   6  21    3.82    0.50
  -6   3  21    3.66    0.58
   6   3 -21    5.49    0.74
  -6  -3 -21    3.21    0.50
   6   3 -21    4.17    0.67
   6   5  21    0.38    0.45
   5   6 -21    0.45    0.55
  -6  -5  21    1.23    0.49
   5  -6  21    0.30    0.48
  -5   6  21    0.41    0.47
  -5  -6 -21    0.38    0.44
   6  -5 -21   -0.12    0.55
  -6   5 -21    0.77    0.48
   6   5  21    0.38    0.48
  -5  -6  21    0.93    0.50
  -6   5  21   -0.28    0.44
  -5   6 -21    0.34    0.47
   5  -6 -21    1.42    0.61
   6  -5  21    0.26    0.49
   5   6  21    0.84    0.47
  -6  -5 -21    0.26    0.41
   6   5 -21    1.71    0.61
   5   6  21    0.28    0.43
   0  -7 -21    0.38    0.50
   0  -7  21   -0.15    0.42
   7   0 -21   -0.32    0.46
   7   0 -21   -0.09    0.46
  -7   0 -21   -0.01    0.35
   0   7  21   -0.05    0.39
  -7   0 -21   -0.86    0.41
  -7   0  21   -0.59    0.43
   7   0  21    0.35    0.45
   0   7 -21   -0.42    0.43
   7   2  21   13.11    0.96
  -7   2 -21   14.23    0.93
   2   7 -21   14.27    1.00
  -7  -2  21   14.49    0.99
   7  -2 -21   13.77    0.90
   2  -7  21   14.53    0.94
  -2  -7 -21   13.88    0.97
   7   2  21   14.08    0.92
   7  -2 -21   13.97    1.02
  -2   7  21   12.67    0.88
  -7   2 -21   13.70    0.82
  -2  -7  21   13.93    0.87
   2  -7 -21   13.90    1.05
   2   7  21   13.74    0.84
  -2   7 -21   16.16    0.95
  -2  -7  21   15.59    0.92
   7  -2  21   14.53    0.95
   7   2 -21   13.25    0.91
   7   2 -21   14.50    1.01
  -7   2  21   13.82    0.95
  -7  -2 -21   13.01    0.83
  -4  -7 -21    0.03    0.46
   4  -7  21   -0.25    0.44
   7   4  21    0.38    0.49
  -7   4 -21    0.14    0.48
  -7  -4  21   -0.03    0.50
   7  -4 -21    1.22    0.59
  -4   7  21   -0.48    0.44
   7   4  21    0.03    0.46
   4   7 -21   -0.20    0.57
   4   7  21   -0.15    0.40
  -4  -7  21    0.19    0.46
   4   7  21   -0.27    0.46
   7  -4  21   -0.04    0.47
  -4  -7  21    1.01    0.49
  -7   4  21    0.55    0.49
   7   4 -21    0.29    0.58
   4  -7 -21   -0.15    0.56
  -7  -4 -21   -0.62    0.39
  -4   7 -21   -0.10    0.46
  -6  -7 -21   13.46    0.98
  -6   7  21   16.34    1.04
   7  -6 -21   15.64    1.14
   6  -7  21   14.22    0.93
   6   7 -21   13.57    1.13
  -7  -6  21   12.30    1.00
   7   6  21   14.01    0.92
  -7   6 -21   13.05    0.98
   7   6 -21   13.94    1.15
  -6  -7  21   12.89    1.02
  -6   7 -21   13.30    0.98
  -7   6  21   13.47    1.02
   6  -7 -21   12.66    1.10
   7  -6  21   13.30    1.02
  -7  -6 -21   13.26    1.00
   8   1  21    0.14    0.46
   8   1  21    0.44    0.49
  -8   1 -21   -0.47    0.43
   1   8 -21   -0.16    0.50
  -1  -8 -21    0.28    0.49
  -8  -1  21   -0.52    0.49
   1  -8  21   -0.47    0.45
   8  -1 -21   -0.12    0.45
   8  -1 -21    0.35    0.54
  -8   1 -21   -0.29    0.41
  -1   8  21    0.15    0.44
  -8   1  21    0.73    0.48
  -1  -8  21   -0.69    0.42
   8   1 -21   -0.35    0.50
   8  -1  21   -0.06    0.48
   1   8  21   -0.40    0.37
   8   1 -21   -0.13    0.49
   1  -8 -21    0.06    0.52
  -1   8 -21    0.15    0.46
  -8  -1 -21    0.13    0.41
  -1  -8  21    0.41    0.43
   3  -8  21   -0.23    0.47
  -3  -8 -21   -0.24    0.44
  -8  -3  21    0.11    0.51
   3   8 -21   -1.22    0.50
   8  -3 -21    0.27    0.57
   8   3  21   -0.25    0.47
  -3   8  21    0.06    0.46
  -8   3 -21    0.11    0.47
  -8   3 -21    0.07    0.41
  -3   8 -21    0.43    0.47
   8  -3  21   -0.16    0.48
   8   3 -21   -0.67    0.51
  -8   3  21   -0.35    0.46
  -3  -8  21   -0.27    0.44
  -8  -3 -21   -0.30    0.44
   3   8  21    0.17    0.43
   3  -8 -21    0.04    0.55
  -3  -8  21   -0.12    0.43
   8  -5 -21    0.76    0.59
  -5  -8 -21    0.30    0.40
  -8   5 -21    0.60    0.53
  -5   8  21    0.38    0.50
   5  -8  21    0.66    0.53
   5   8 -21    0.54    0.61
  -8  -5  21    0.62    0.54
   8   5  21    0.85    0.49
  -8   5  21    0.90    0.50
  -5   8 -21   -0.30    0.49
   5  -8 -21    0.73    0.59
   5   8  21   -0.37    0.52
  -8  -5 -21    0.05    0.47
   8   5 -21    0.03    0.60
   8  -5  21    0.11    0.52
  -5  -8  21   -0.44    0.49
   7   8 -21   -0.20    0.63
  -7  -8 -21    0.07    0.49
  -8  -7  21   -1.13    0.53
  -8   7 -21   -1.28    0.46
   8  -7 -21    0.77    0.63
   8   7  21   -0.82    0.45
   7  -8  21   -0.43    0.52
  -7   8  21    0.30    0.56
  -7   8 -21    0.55    0.51
  -8  -7 -21    0.52    0.53
   7  -8 -21    0.81    0.62
  -8   7  21   -0.27    0.51
   8  -7  21    0.70    0.57
  -7  -8  21    0.12    0.56
   8   7 -21   -0.77    0.60
   0   9 -21    0.14    0.49
   0   9  21   -0.08    0.45
   9   0 -21   -0.09    0.53
   9   0  21    0.15    0.48
   0  -9  21   -0.83    0.42
  -9   0 -21   -0.07    0.44
   9   0  21   -0.38    0.48
   0  -9 -21    0.01    0.51
  -9   0  21    0.48    0.52
   9   0 -21    0.44    0.52
  -9   2 -21    0.83    0.51
  -2   9  21    1.05    0.51
   9  -2 -21    0.70    0.57
   9   2  21    0.12    0.50
   2  -9  21    0.59    0.50
  -2  -9 -21    0.81    0.51
  -9  -2  21    0.34    0.56
   2   9 -21    0.50    0.58
  -9   2 -21    0.68    0.48
  -2  -9  21    0.82    0.50
  -9  -2 -21    1.35    0.51
   9   2 -21    0.44    0.56
   2  -9 -21    1.76    0.60
   9  -2  21    0.93    0.55
  -2   9 -21    0.42    0.48
   2   9  21    1.43    0.51
  -2  -9  21    0.37    0.48
  -9   2  21    0.43    0.53
  -4   9  21    0.40    0.50
  -9   4 -21    0.54    0.51
  -4  -9 -21   -0.04    0.44
   9  -4 -21   -0.50    0.56
   4  -9  21   -0.01    0.51
   9   4  21   -0.11    0.51
  -9   4 -21   -0.53    0.44
   4   9 -21   -0.28    0.60
  -9  -4  21    0.23    0.51
  -9   4  21   -0.84    0.49
   9   4 -21   -0.58    0.52
   9  -4  21   -0.66    0.49
  -4  -9  21    0.37    0.54
   4  -9 -21    0.66    0.57
  -4   9 -21    0.63    0.49
   4   9  21   -0.47    0.50
  -9  -4 -21   -0.53    0.51
  -9   6 -21    3.68    0.66
   6   9 -21    1.75    0.75
   9  -6 -21    2.33    0.71
  -6   9  21    2.29    0.63
   6  -9  21    1.63    0.58
  -9  -6  21    1.94    0.66
   9   6  21    2.25    0.60
   9   6 -21    2.30    0.69
   6  -9 -21    2.88    0.70
  -9  -6 -21    1.88    0.62
   6   9  21    2.12    0.64
  -6  -9  21    2.19    0.65
   9  -6  21    1.54    0.56
  -9   6  21    3.09    0.65
  -6   9 -21    3.35    0.64
   8   9 -21   -0.31    0.65
  -9  -8  21   -0.42    0.59
   9  -8 -21    1.36    0.69
  -9   8 -21    0.88    0.59
  -8  -9 -21   -0.45    0.57
   8  -9  21   -0.05    0.57
  -8   9  21    0.24    0.54
  -9   8  21    0.37    0.60
   9  -8  21   -0.13    0.58
   8  -9 -21    0.39    0.64
  -8  -9  21    0.17    0.59
  -8   9 -21   -0.34    0.51
  -9  -8 -21    0.31    0.60
   9   8 -21    1.22    0.75
   1 -10  21    0.70    0.50
 -10   1 -21   -0.09    0.50
  -1  10  21   -0.36    0.45
 -10  -1  21   -0.28    0.54
  10   1  21   -0.56    0.47
  -1 -10 -21    0.02    0.49
   1  10 -21    0.38    0.55
  10  -1 -21    0.33    0.53
  10  -1  21    0.92    0.54
 -10  -1 -21    0.08    0.51
   1  10  21   -0.27    0.47
   1 -10 -21   -0.39    0.50
 -10   1  21   -0.86    0.49
  10   1 -21   -0.29    0.55
  10  -1  21   -0.14    0.50
  -1  10 -21   -0.61    0.49
 -10   3 -21    6.07    0.87
  -3  10  21    6.95    0.89
 -10  -3  21    6.85    0.99
  -3 -10 -21    5.78    0.81
  10   3  21    6.92    0.90
 -10   3 -21    4.45    0.66
   3  10 -21    4.50    0.78
  10  -3 -21    5.96    0.79
   3 -10  21    7.01    0.85
  10  -3  21    6.32    0.88
  -3  10 -21    7.72    0.85
  10   3 -21    7.09    1.02
   3 -10 -21    7.29    0.97
 -10  -3 -21    5.67    0.73
 -10   3  21    5.22    0.70
  -3 -10  21    5.65    0.73
  10   5  21    2.47    0.63
  10  -5 -21    3.80    0.77
 -10   5 -21    3.69    0.64
 -10   5 -21    2.76    0.63
  -5  10  21    3.74    0.68
   5  10 -21    3.79    0.78
 -10  -5  21    2.84    0.65
   5 -10  21    2.38    0.65
  -5 -10 -21    2.87    0.60
   5 -10 -21    3.13    0.71
   5  10  21    3.00    0.68
  10  -5  21    2.31    0.67
 -10  -5 -21    3.13    0.70
  -5 -10  21    1.74    0.64
 -10   5  21    4.34    0.70
  10   5 -21    2.76    0.70
  -5  10 -21    2.26    0.58
   7 -10  21    0.78    0.66
  10   7  21   -0.40    0.55
  -7  10  21    0.17    0.57
  10  -7 -21    0.04    0.64
   7  10 -21    0.31    0.67
 -10   7 -21    0.46    0.55
  10  -7  21    1.10    0.64
   7  10  21    0.65    0.63
  -7 -10  21    1.48    0.66
 -10  -7 -21    0.45    0.62
 -10   7  21    0.58    0.59
   0 -11 -21   -0.09    0.50
  11   0  21   -0.43    0.55
 -11   0 -21    0.35    0.53
   0  11  21   -0.14    0.47
   0  11 -21   -0.31    0.55
  11   0 -21    0.01    0.56
 -11   0  21    0.05    0.54
  11   2  21   15.05    1.10
   2  11 -21   15.62    1.19
  -2  11  21   14.63    1.07
 -11   2 -21   14.65    1.10
 -11   2 -21   15.45    1.05
  -2 -11 -21   15.09    1.08
   2 -11  21   15.17    1.03
 -11  -2  21   15.24    1.18
  11  -2 -21   13.68    1.09
 -11  -2 -21   15.92    1.16
  11   2 -21   14.64    1.10
  11  -2  21   13.73    1.05
 -11   2  21   15.30    1.12
  -2  11 -21   14.16    1.10
   2 -11 -21   15.59    1.12
   4  11 -21    0.26    0.65
 -11   4 -21    2.02    0.60
  -4  11  21   -0.01    0.55
   4 -11  21   -0.10    0.50
  11   4  21   -0.47    0.53
  -4 -11 -21    0.63    0.53
 -11  -4  21    0.55    0.56
  11  -4 -21    1.17    0.65
 -11   4 -21    0.12    0.53
  11   4 -21   -0.40    0.61
   4 -11 -21    0.49    0.63
  -4  11 -21   -0.54    0.45
  -4 -11  21    0.47    0.61
  11  -4  21   -0.14    0.57
 -11  -4 -21   -0.53    0.56
   4  11  21    0.52    0.62
 -11   4  21    0.14    0.58
  11  -6 -21    5.84    0.89
  -6 -11 -21    4.04    0.71
 -11   6 -21    5.09    0.74
  11   6  21    4.67    0.75
 -11   6 -21    5.62    0.76
 -11   6  21    5.20    0.80
   6  11  21    6.07    0.87
 -11  -6 -21    5.57    0.85
  -6 -11  21    5.94    0.84
  12   1  21    0.20    0.57
 -12   1 -21   -0.72    0.56
  -1  12  21   -0.43    0.55
   1  12 -21   -0.85    0.62
  -1 -12 -21   -0.22    0.56
 -12  -1  21    0.33    0.63
  -1  12 -21    0.20    0.57
  12   1 -21    0.59    0.63
  12  -1  21    0.45    0.61
 -12   1  21   -0.25    0.55
 -12  -1 -21    1.05    0.66
   1 -12 -21    0.25    0.58
   3 -12  21    0.30    0.53
   3  12 -21   -1.93    0.61
 -12   3 -21   -0.07    0.61
 -12   3 -21    0.05    0.56
  -3 -12 -21    0.14    0.53
  12  -3 -21   -0.36    0.60
  12  -3  21    0.69    0.59
 -12  -3 -21   -0.13    0.60
  12   3 -21    0.86    0.68
 -12   3  21    0.02    0.56
   3 -12 -21    0.25    0.60
 -12   5 -21    0.14    0.58
   5  12  21    1.49    0.70
   2  13 -21    0.49    0.69
   2 -13 -21    2.12    0.66
   0   0 -22    0.31    0.37
   0   0  22    0.06    0.32
   0   0  22   -0.08    0.42
   1  -1 -22   25.49    0.99
   1   1 -22   26.70    1.07
  -1   1  22   27.28    1.01
  -1  -1 -22   26.75    1.03
  -1   1  22   26.67    1.14
   1  -1  22   29.33    0.94
   1  -1  22   25.39    1.07
  -1   1 -22   27.47    1.08
  -1  -1  22   27.67    1.01
  -1  -1  22   27.62    1.12
   1   1  22   26.18    0.94
   1   1  22   26.63    1.14
   0   2  22    0.38    0.47
   0  -2  22   -0.14    0.32
  -2   0 -22    0.31    0.39
   2   0 -22    0.41    0.39
   0  -2  22   -0.02    0.43
  -2   0  22   -0.13    0.36
   2   0  22    0.05    0.29
  -2   0  22    0.17    0.42
   0  -2 -22   -0.53    0.33
   0   2 -22    0.28    0.41
   2   0  22   -0.55    0.40
   0   2  22   -0.15    0.34
   2  -2  22   -0.46    0.40
   2   2 -22   -0.02    0.43
  -2  -2  22    0.26    0.43
  -2   2  22    0.44    0.39
   2   2  22   -0.48    0.29
   2  -2 -22   -0.26    0.34
  -2  -2 -22   -0.28    0.35
   2   2  22    0.34    0.48
  -2   2  22   -0.08    0.46
  -2  -2  22    0.75    0.39
  -2   2 -22    0.03    0.42
  -1   3  22   25.41    1.03
   3   1  22   26.01    1.14
  -3  -1  22   27.65    1.07
   3  -1 -22   26.75    1.03
  -1  -3 -22   24.91    0.96
  -1   3  22   25.50    1.17
   1   3 -22   25.02    1.04
  -3   1 -22   28.73    1.10
  -3  -1  22   27.39    1.12
   1  -3  22   26.34    1.06
  -3  -1 -22   26.05    1.05
   3  -1  22   25.54    1.11
   1  -3 -22   24.34    0.96
   3   1 -22   26.24    1.08
  -1   3 -22   25.59    1.08
   1   3  22   26.16    0.98
  -3   1  22   24.74    1.12
  -1  -3  22   29.13    1.03
   1   3  22   26.55    1.17
  -3   1  22   25.91    1.05
  -1  -3  22   24.74    1.09
  -3  -3  22   22.82    1.04
   3  -3  22   24.12    1.07
   3  -3 -22   22.81    1.17
  -3   3  22   24.59    1.03
   3   3  22   20.74    1.07
  -3  -3 -22   22.31    0.99
   3  -3 -22   22.84    0.92
  -3   3 -22   23.27    1.06
   3   3 -22   23.70    1.11
  -3  -3  22   25.89    1.07
   3   3  22   23.40    0.87
   0   4 -22   -0.26    0.41
   0  -4 -22   -0.08    0.32
  -4   0  22    0.16    0.44
   0   4  22    0.58    0.51
   0  -4  22   -0.13    0.33
   0   4  22   -0.16    0.35
   0  -4 -22   -0.31    0.49
   4   0  22    0.94    0.42
   4   0 -22   -0.70    0.45
   4   0 -22    0.43    0.42
  -4   0  22   -0.29    0.38
  -4   0 -22   -0.20    0.43
   0  -4  22    0.13    0.43
  -2   4  22    2.99    0.50
  -4  -2  22    2.57    0.51
  -4  -2  22    3.21    0.53
   4   2  22    2.37    0.55
  -2  -4 -22    2.61    0.43
   4  -2 -22    2.51    0.47
   4  -2 -22    2.05    0.55
   2  -4  22    2.68    0.49
   2   4 -22    2.71    0.56
  -4   2 -22    2.63    0.52
  -2  -4  22    2.20    0.47
   2   4  22    3.90    0.47
   2  -4 -22    1.43    0.60
   4   2 -22    2.26    0.54
   4  -2  22    2.05    0.50
   2   4  22    2.12    0.52
  -4   2  22    2.42    0.48
  -2  -4  22    3.41    0.55
  -2   4 -22    3.41    0.55
  -4  -2 -22    2.81    0.50
  -4  -4  22   -0.16    0.40
   4  -4 -22    0.43    0.48
   4   4 -22    0.77    0.50
   4  -4  22    0.64    0.49
  -4  -4  22   -0.66    0.39
   4   4  22   -0.35    0.46
  -4   4 -22   -0.19    0.45
  -4  -4 -22    0.00    0.35
  -4   4  22   -0.23    0.42
  -5  -1  22   25.92    1.14
   5  -1 -22   26.68    1.12
   1   5 -22   24.57    1.14
   5  -1 -22   24.86    1.19
  -1  -5 -22   26.11    0.94
  -1   5  22   24.74    1.05
   5   1  22   25.52    1.15
   1  -5  22   23.42    1.09
  -5   1 -22   24.41    1.11
  -1  -5 -22   24.23    1.16
  -1   5 -22   24.22    1.10
   5  -1  22   27.70    1.11
  -1  -5  22   26.84    1.13
   1   5  22   24.04    1.00
   1  -5 -22   25.97    1.24
  -5   1  22   23.78    1.10
   5   1 -22   24.92    1.15
  -1  -5  22   25.18    1.01
   5   1 -22   26.37    1.15
  -5  -1 -22   25.79    1.10
  -5  -3  22   16.52    1.01
   5   3  22   17.51    1.02
  -3  -5 -22   16.80    0.83
  -3   5  22   17.70    0.95
   5  -3 -22   16.84    1.08
   3   5 -22   16.95    1.04
  -5  -3  22   16.83    0.93
   3  -5  22   16.71    1.01
  -5   3 -22   16.55    0.97
   5  -3  22   17.00    1.02
   3  -5 -22   19.26    1.11
  -3  -5  22   16.74    0.93
  -3   5 -22   16.96    0.96
  -3  -5  22   16.70    0.93
  -5  -3 -22   16.23    0.90
   3   5  22   16.46    1.01
   3   5  22   18.21    0.87
   5   3 -22   16.18    1.06
  -5   3  22   15.99    0.95
  -5  -5 -22   10.64    0.78
  -5   5 -22    9.72    0.89
   5  -5 -22    9.62    1.01
  -5  -5  22    8.95    0.88
  -5  -5  22   10.39    0.81
   5  -5  22    9.80    0.81
   5   5 -22    9.18    0.99
   5   5  22    9.40    0.90
  -5   5  22    9.62    0.87
   6   0 -22    7.74    0.88
   0  -6 -22    9.58    0.92
   0   6  22    7.60    0.73
   0  -6  22    9.14    0.81
  -6   0 -22    7.99    0.81
   6   0 -22    9.98    0.87
   6   0  22    9.15    0.86
   0   6 -22    8.33    0.84
  -6   0  22    6.34    0.79
  -6  -2  22    0.04    0.46
   2  -6  22    0.77    0.47
   6  -2 -22   -0.25    0.48
  -6   2 -22   -0.13    0.44
   6   2  22    0.14    0.46
  -2  -6 -22   -0.69    0.47
   2   6 -22    0.42    0.47
   6  -2 -22   -0.83    0.41
  -2   6  22   -0.29    0.43
  -2   6 -22    0.06    0.45
  -2  -6  22   -0.18    0.43
  -6   2  22   -0.46    0.42
  -2  -6  22    0.35    0.43
   2   6  22    0.30    0.37
   6   2 -22    0.58    0.52
   2  -6 -22    0.40    0.56
  -6  -2 -22   -0.27    0.41
   6  -2  22    0.66    0.50
   6   2 -22    0.49    0.47
   6   4  22    1.54    0.54
   6   4  22    1.92    0.49
   6  -4 -22    1.37    0.55
  -6  -4  22    1.01    0.46
  -4   6  22    1.13    0.50
  -6  -4  22    1.63    0.52
  -4  -6 -22    1.22    0.40
   4  -6  22    1.71    0.49
   4   6 -22    2.54    0.63
  -4  -6 -22    1.29    0.50
  -6   4 -22    0.85    0.50
   4  -6 -22    2.18    0.63
  -6  -4 -22    1.04    0.44
   4   6  22    1.26    0.42
   6  -4  22    1.05    0.51
  -4  -6  22    0.70    0.48
  -4  -6  22    1.54    0.47
  -6   4  22    1.07    0.49
   4   6  22    1.46    0.52
  -4   6 -22    2.44    0.55
  -6  -4 -22    1.38    0.45
   6   4 -22    0.84    0.54
  -6  -6  22   -0.32    0.49
   6   6 -22   -0.68    0.51
  -6   6  22   -0.43    0.46
  -6  -6 -22   -0.74    0.42
   6  -6 -22    0.21    0.59
  -6   6 -22    0.93    0.50
   6  -6  22    0.17    0.45
   6   6  22   -0.40    0.43
   7  -1 -22   13.87    0.99
  -1   7  22   15.75    0.90
   1  -7  22   14.66    0.95
  -7   1 -22   13.12    0.94
   1   7 -22   17.06    1.03
  -1  -7 -22   13.45    0.99
   7   1  22   14.36    1.01
  -7  -1  22   14.09    1.00
   7  -1 -22   14.11    1.02
   1   7  22   14.62    0.87
  -7  -1 -22   13.42    0.93
  -1  -7  22   12.82    0.89
  -1  -7  22   14.50    0.89
  -1   7 -22   13.69    0.95
  -7   1  22   15.09    0.98
   1  -7 -22   14.17    1.06
   7   1 -22   14.06    1.00
   7   1 -22   15.84    1.00
   7  -1  22   13.95    0.97
   7  -3 -22   10.41    1.02
   7   3  22   10.40    0.97
  -3  -7 -22   10.24    0.88
   7   3  22   11.03    0.88
  -3   7  22   10.29    0.85
   3  -7  22   12.68    0.94
  -7  -3  22    9.73    0.94
   3   7 -22   10.78    0.99
  -7   3 -22   12.35    0.92
  -3  -7  22   11.83    0.88
  -7  -3 -22    9.93    0.83
   7  -3  22   10.34    0.91
  -7   3  22    9.68    0.81
  -3  -7  22   11.88    0.87
   7   3 -22   12.44    1.04
  -3   7 -22   11.05    0.92
   3  -7 -22   10.09    1.02
   7   3 -22   11.70    0.93
   3   7  22   12.60    0.86
   7  -5 -22   10.14    1.05
   5  -7  22   10.53    0.86
  -5   7  22   10.55    0.95
   5   7 -22    9.17    1.06
   7   5  22    9.79    0.89
  -7   5 -22   10.35    0.92
  -7  -5  22    9.56    0.97
  -5  -7 -22   11.14    0.91
   5  -7 -22   10.55    1.07
   7   5 -22   10.03    1.07
  -5  -7  22   10.69    0.93
  -7  -5 -22    9.07    0.87
  -7   5  22    9.13    0.92
   7  -5  22   10.86    0.95
  -5   7 -22   10.10    0.93
  -7   7 -22   10.92    1.05
   7   7 -22   10.05    1.13
  -7  -7  22    9.93    1.02
  -7   7  22   11.60    1.00
   7  -7  22   10.30    1.01
   7  -7 -22   12.75    1.13
  -7  -7 -22   10.09    0.92
   7   7  22   10.50    0.95
   0   8 -22    0.99    0.52
  -8   0  22    1.26    0.55
   8   0  22    1.67    0.55
   0  -8 -22    1.98    0.63
  -8   0 -22    0.32    0.44
   8   0 -22    0.33    0.53
  -8   0 -22    0.64    0.49
   0   8  22    0.64    0.44
   8   0 -22    0.93    0.55
   0  -8  22    0.75    0.49
  -8   2 -22    0.57    0.51
  -2   8  22    0.31    0.45
  -8  -2  22   -0.33    0.50
   2   8 -22    0.18    0.55
   8  -2 -22    1.40    0.60
   8   2  22   -0.33    0.49
   8   2  22    0.02    0.50
  -2  -8 -22    0.10    0.49
   2  -8  22    0.43    0.51
   2  -8 -22   -0.42    0.53
  -2  -8  22    0.44    0.46
   8  -2  22   -0.08    0.48
  -8   2  22    0.47    0.51
   8   2 -22    0.30    0.55
   2   8  22    0.32    0.43
  -2   8 -22    0.03    0.48
  -2  -8  22   -0.30    0.43
  -8  -2 -22   -0.03    0.41
   8   2 -22   -0.94    0.46
   4  -8  22    0.10    0.49
   8   4  22    1.80    0.56
   8  -4 -22    0.26    0.60
   4   8 -22    0.38    0.62
  -8   4 -22    1.43    0.54
  -4   8  22    0.37    0.49
  -8  -4  22    0.92    0.55
  -4  -8 -22    0.24    0.42
  -4   8 -22    1.14    0.53
  -4  -8  22    0.62    0.51
   8   4 -22    1.08    0.63
  -8   4  22    0.67    0.56
   4  -8 -22    0.46    0.61
   8  -4  22    0.49    0.53
  -8  -4 -22    0.27    0.48
  -6  -8 -22    4.74    0.68
   6   8 -22    5.78    0.84
  -6   8  22    2.55    0.61
   6  -8  22    4.85    0.73
  -8   6 -22    4.70    0.68
   8  -6 -22    4.33    0.75
  -8  -6  22    3.52    0.68
   8   6  22    3.27    0.63
   8  -6  22    5.65    0.76
   8   6 -22    3.86    0.76
  -8   6  22    4.27    0.70
   6  -8 -22    4.63    0.78
  -6   8 -22    5.13    0.69
  -6  -8  22    3.59    0.68
  -8  -6 -22    2.46    0.61
  -8  -8  22   -0.87    0.57
   8  -8 -22    0.67    0.67
   8   8 -22   -1.00    0.60
  -8   8  22    0.32    0.58
  -8  -8 -22   -1.15    0.50
   8  -8  22   -0.19    0.57
  -8   8 -22    1.38    0.58
   9  -1 -22    5.48    0.74
   1   9 -22    7.38    0.82
   1  -9  22    7.48    0.92
   9   1  22    7.67    0.93
  -9   1 -22    6.06    0.79
  -9  -1  22    6.27    0.81
  -1   9  22    8.13    0.86
  -1  -9 -22    6.08    0.74
   9   1  22    7.17    0.90
  -9   1 -22    7.13    0.87
   9   1 -22    6.93    0.95
   1   9  22    6.18    0.84
  -9  -1 -22    5.96    0.69
  -1  -9  22    6.75    0.79
   9  -1  22    7.86    0.90
   9   1 -22    7.38    0.92
  -9   1  22    5.98    0.88
  -1   9 -22    7.16    0.87
   1  -9 -22    9.04    0.97
   9  -3 -22   12.98    1.09
  -9  -3  22   12.92    1.07
  -9   3 -22   12.35    1.00
   9   3  22   11.96    1.01
  -3   9  22   13.63    0.99
   3  -9  22   12.29    0.98
   3   9 -22   10.38    1.08
   9  -3  22   13.81    1.02
   9   3 -22   12.89    1.09
  -9   3  22   11.46    0.99
  -9  -3 -22   10.67    0.91
   3   9  22   11.86    0.97
  -3   9 -22   13.74    0.99
  -3  -9  22   13.23    1.02
   3  -9 -22   15.23    1.13
   5   9 -22    8.38    1.09
   9  -5 -22    9.16    1.06
  -9   5 -22    9.83    1.00
  -9  -5  22    7.45    0.98
   9   5  22    7.18    0.89
  -5   9  22   10.40    0.98
  -5  -9 -22    7.13    0.81
   5  -9  22   10.56    1.00
  -9   5  22    7.01    0.93
  -5  -9  22    9.16    1.02
   9   5 -22    7.57    1.08
   5  -9 -22    9.17    1.06
  -9  -5 -22    7.32    0.96
   9  -5  22    7.86    0.96
  -5   9 -22   11.30    1.04
   7  -9  22    5.16    0.78
  -7  -9 -22    5.49    0.76
   9  -7 -22    4.21    0.80
  -9   7 -22    6.32    0.77
   9   7  22    5.01    0.74
   7   9 -22    4.11    0.81
  -9  -7  22    5.05    0.78
  -7   9  22    7.40    0.98
  -9   7  22    5.48    0.78
   7  -9 -22    3.73    0.78
   9   7 -22    7.36    0.93
   9  -7  22    4.70    0.76
  -7  -9  22    5.94    0.81
  -9  -7 -22    5.62    0.78
  -7   9 -22    6.57    0.93
  -9   9 -22    0.31    0.58
  10   0 -22    5.28    0.73
  10   0 -22    6.29    0.89
  10   0  22    5.36    0.73
   0 -10 -22    5.50    0.74
   0  10 -22    6.16    0.77
 -10   0 -22    4.61    0.67
 -10   0  22    4.52    0.74
   0  10  22    5.49    0.68
   0 -10  22    6.18    0.83
  10   0  22    6.75    0.87
   2 -10  22    0.27    0.52
  10  -2 -22    1.60    0.64
   2  10 -22    0.01    0.61
 -10   2 -22   -0.06    0.46
 -10  -2  22   -0.03    0.58
  -2  10  22   -0.25    0.50
 -10   2 -22   -0.56    0.51
  10   2  22   -0.46    0.54
  -2  10 -22    0.28    0.49
  10   2 -22    0.16    0.58
  10  -2  22    0.54    0.52
 -10  -2 -22   -0.90    0.45
 -10   2  22    0.04    0.52
   2 -10 -22    0.53    0.60
   2  10  22   -0.55    0.45
 -10   4 -22    8.73    0.96
  -4 -10 -22    8.80    0.93
  10   4  22   10.82    1.00
 -10   4 -22    9.23    1.00
   4 -10  22    9.69    0.97
   4  10 -22    8.98    1.10
  -4  10  22    8.58    0.98
 -10  -4  22    9.96    1.06
  10  -4 -22    8.43    1.09
 -10  -4 -22    7.36    1.02
  10   4 -22    9.70    1.12
  10  -4  22   10.30    1.06
 -10   4  22    7.57    1.00
  -4 -10  22    8.73    0.98
   4 -10 -22   10.05    1.10
  -4  10 -22    9.76    0.99
 -10   6 -22    1.11    0.58
   6  10 -22    0.01    0.69
  -6  10  22    0.36    0.57
 -10  -6  22   -1.08    0.56
  10   6  22   -0.22    0.50
   6 -10  22    0.14    0.58
  10  -6 -22    0.40    0.65
   6  10  22    0.36    0.60
  10  -6  22   -0.34    0.54
  -6 -10  22   -1.00    0.54
  -6  10 -22    1.18    0.57
   6 -10 -22    0.01    0.62
 -10   6  22    0.39    0.57
  10   6 -22   -0.31    0.66
 -10  -6 -22    0.63    0.60
  11   1  22    2.96    0.69
 -11  -1  22    5.12    0.80
  -1  11  22    4.73    0.71
   1 -11  22    3.30    0.66
 -11   1 -22    2.57    0.63
   1  11 -22    2.75    0.72
  -1  11 -22    3.08    0.68
  11  -1  22    2.86    0.68
  11   1 -22    3.10    0.71
  11  -1  22    3.36    0.69
 -11  -1 -22    3.77    0.69
   1  11  22    2.39    0.62
   1 -11 -22    3.00    0.68
 -11   1  22    3.22    0.67
 -11  -3  22    5.87    0.84
  11  -3 -22    5.59    0.78
  -3  11  22    6.18    0.79
   3  11 -22    5.99    0.87
 -11   3 -22    6.09    0.78
   3 -11  22    5.62    0.74
  11   3  22    5.52    0.79
 -11   3 -22    5.42    0.74
  -3 -11 -22    6.59    0.79
  11   3 -22    7.44    1.04
  -3 -11  22    6.13    0.81
   3 -11 -22    5.54    0.79
  -3  11 -22    8.03    0.97
 -11  -3 -22    6.58    0.94
  11  -3  22    5.45    0.72
 -11   3  22    4.56    0.75
  11   5  22    3.61    0.71
  11  -5 -22    3.38    0.76
 -11   5 -22    2.66    0.66
  -5 -11 -22    2.01    0.60
 -11   5 -22    2.46    0.66
  11  -5  22    2.87    0.70
  -5 -11  22    3.24    0.71
 -11  -5 -22    2.84    0.74
   0  12 -22    3.24    0.74
 -12   0 -22    4.48    0.75
   2 -12  22    0.70    0.57
   2  12 -22    0.10    0.69
 -12   2 -22    0.77    0.59
   2 -12 -22    1.54    0.66
 -12  -2 -22    1.58    0.66
  12   2 -22    0.55    0.60
  12  -2  22    1.27    0.62
 -12   4 -22    1.45    0.61
  -4 -12  22    2.30    0.69
  -1   0  23    0.84    0.46
  -1   0 -23   -0.52    0.39
   0  -1  23    0.32    0.46
   0   1 -23    0.62    0.43
   0  -1  23    0.52    0.35
   0   1  23    0.14    0.45
   1   0 -23   -0.69    0.36
  -1   0  23    0.12    0.36
   0  -1 -23    0.62    0.40
   1   0  23    0.64    0.49
   1   0  23   -0.18    0.31
   0   1  23    0.54    0.35
  -1  -2 -23    8.47    0.74
   2   1  23    9.72    0.81
   2   1  23   10.31    0.68
  -2  -1  23    9.74    0.83
  -2  -1  23   10.60    0.78
  -1   2  23   10.37    0.74
   1  -2  23   11.31    0.87
  -2   1 -23   10.38    0.82
   1   2 -23   10.99    0.83
   2  -1 -23   10.10    0.77
  -1   2  23   10.46    0.90
  -2  -1 -23   10.43    0.76
   1   2  23   10.49    0.88
   1  -2 -23   10.56    0.70
   2  -1  23   10.67    0.87
  -1  -2  23   10.73    0.79
  -1  -2  23   12.52    0.78
   2   1 -23    9.49    0.79
  -2   1  23   10.57    0.82
   1   2  23   10.01    0.66
  -1   2 -23    9.52    0.82
  -2   1  23   11.59    0.77
   0   3  23    0.23    0.48
   3   0  23    0.38    0.46
   3   0 -23   -0.05    0.40
  -3   0 -23   -0.23    0.40
  -3   0  23    0.67    0.46
   0  -3  23    0.31    0.46
   0   3 -23    0.60    0.45
   0  -3  23   -0.09    0.35
   0  -3 -23   -0.77    0.30
  -3   0  23    1.05    0.45
   0   3  23    0.11    0.35
  -2   3  23   12.98    0.82
   2   3 -23   10.75    0.89
   3  -2 -23   11.71    0.77
   3   2  23   11.73    0.91
  -3   2 -23   12.24    0.89
   2  -3  23   12.56    0.91
  -3  -2  23   10.57    0.81
   3  -2 -23   11.09    0.96
  -2  -3 -23   13.68    0.79
  -3  -2  23   12.13    0.87
  -3   2  23   12.64    0.83
   3  -2  23   12.40    0.83
   2   3  23   13.17    0.92
  -2  -3  23   12.21    0.79
   3   2 -23   14.74    0.92
  -3  -2 -23   11.29    0.82
   2  -3 -23   12.38    0.75
  -2   3 -23   13.88    0.90
   2  -3 -23   10.93    0.97
  -2  -3  23   10.86    0.86
   2   3  23   12.52    0.74
  -1  -4 -23    1.64    0.39
   4  -1 -23    1.42    0.45
   4  -1 -23    2.53    0.62
  -1   4  23    1.59    0.43
  -4  -1  23    0.85    0.45
   1   4 -23    1.58    0.52
  -4  -1  23    1.62    0.49
   1  -4  23    2.44    0.55
  -4   1 -23    0.76    0.46
   4   1  23    2.26    0.56
   1   4  23    1.81    0.43
   4   1 -23    0.66    0.47
   1  -4 -23    2.17    0.57
   1   4  23    1.41    0.54
   1  -4 -23    1.15    0.38
  -4  -1 -23    2.36    0.51
  -1   4 -23    1.79    0.49
  -1  -4  23    1.58    0.51
  -1  -4  23    1.26    0.42
   4  -1  23    1.49    0.51
  -4   1  23    1.47    0.49
  -4   3 -23    0.17    0.47
  -4  -3  23    0.14    0.45
  -3   4  23    0.01    0.42
   4   3  23    0.95    0.52
   3   4 -23   -0.29    0.48
   4  -3 -23   -0.61    0.52
   3  -4  23    0.21    0.48
  -3  -4 -23    0.18    0.37
  -4  -3  23    0.78    0.44
   3   4  23   -0.38    0.47
  -3  -4  23    0.34    0.45
   3  -4 -23    0.49    0.54
   4   3 -23   -0.03    0.49
   3   4  23    0.03    0.36
  -3   4 -23    0.70    0.46
  -4  -3 -23    0.06    0.40
  -3  -4  23    0.10    0.41
   4  -3  23    0.62    0.49
  -4   3  23    0.25    0.45
   0  -5  23   -0.25    0.46
  -5   0  23    0.50    0.44
  -5   0 -23    0.44    0.44
   5   0 -23    0.44    0.52
   0   5  23    0.39    0.40
   0  -5 -23   -0.57    0.52
   5   0 -23   -0.15    0.45
   0   5 -23    0.34    0.46
   5   0  23    0.44    0.48
   5  -2 -23    5.57    0.77
   5   2  23    5.52    0.69
  -2  -5 -23    3.48    0.63
  -5  -2  23    5.42    0.74
   2   5 -23    4.14    0.64
   2  -5  23    4.96    0.65
   5  -2 -23    4.73    0.70
  -5  -2  23    3.70    0.56
  -5   2 -23    4.61    0.62
  -2   5  23    5.18    0.70
  -2  -5 -23    5.36    0.61
   2   5  23    4.07    0.64
  -2  -5  23    4.80    0.60
   5   2 -23    4.81    0.65
  -2   5 -23    5.61    0.79
   2   5  23    5.39    0.68
  -5   2  23    4.54    0.62
  -2  -5  23    4.64    0.56
  -5  -2 -23    4.04    0.57
   5  -2  23    5.97    0.80
   2  -5 -23    3.81    0.66
   5  -4 -23    0.80    0.59
  -4   5  23   -0.55    0.41
   5   4  23    1.17    0.53
  -4  -5 -23    0.30    0.36
   4  -5  23   -0.55    0.48
  -5  -4  23    0.48    0.48
   4   5 -23   -0.45    0.53
  -5   4 -23   -0.37    0.43
  -5  -4  23    0.10    0.42
  -4   5 -23    0.34    0.49
  -4  -5  23    0.20    0.45
  -5   4  23   -0.92    0.42
   4  -5 -23   -0.24    0.57
  -4  -5  23    0.28    0.45
   4   5  23    0.31    0.52
   5   4 -23    0.01    0.54
  -5  -4 -23    0.29    0.41
   5  -4  23    0.27    0.45
   1  -6  23    5.82    0.79
  -6  -1  23    6.82    0.84
   6   1  23    7.78    0.86
  -1  -6 -23    7.83    0.92
   6  -1 -23    6.62    0.89
   6  -1 -23    5.61    0.66
  -6   1 -23    7.46    0.81
  -1   6  23    6.44    0.74
   1   6 -23    7.26    0.87
  -1  -6  23    7.67    0.81
  -6  -1 -23    6.18    0.79
   6   1 -23    7.09    0.86
  -6   1  23    6.17    0.82
   6   1 -23    6.51    0.88
  -1  -6  23    7.45    0.76
  -1   6 -23    7.96    0.85
   1   6  23    8.47    0.74
   1  -6 -23    5.95    0.77
   6  -1  23    6.45    0.86
  -6   3 -23    5.95    0.75
  -6  -3  23    7.55    0.86
   6  -3 -23    4.46    0.73
   6   3  23    6.98    0.87
  -3  -6 -23    6.07    0.83
   3  -6  23    6.79    0.87
   3   6 -23    5.95    0.75
  -3   6  23    7.20    0.79
  -6   3  23    6.54    0.81
   3  -6 -23    7.47    1.01
   6   3 -23    4.05    0.66
  -3  -6  23    8.92    0.79
  -3   6 -23    4.91    0.64
  -6  -3 -23    7.12    0.77
   6  -3  23    5.67    0.72
  -3  -6  23    7.07    0.83
   3   6  23    5.80    0.72
   6   3 -23    6.66    0.88
   6   5  23    3.72    0.63
  -5  -6 -23    4.31    0.54
   5   6 -23    2.65    0.68
  -6  -5  23    2.61    0.58
   6  -5 -23    2.93    0.67
  -5   6  23    2.79    0.60
   5  -6  23    2.01    0.54
  -6   5 -23    2.51    0.61
  -6   5  23    4.35    0.66
   6  -5  23    3.23    0.65
  -5  -6  23    3.57    0.61
   5  -6 -23    3.27    0.69
   5   6  23    3.07    0.60
  -5   6 -23    2.18    0.57
  -6  -5 -23    4.21    0.57
   6   5 -23    2.91    0.70
   7   0 -23    1.00    0.57
   0  -7  23    0.26    0.48
  -7   0 -23    0.67    0.48
  -7   0  23    0.70    0.50
   7   0  23   -0.35    0.47
   0  -7 -23   -0.52    0.51
   0   7  23    0.99    0.45
   0   7 -23   -0.22    0.44
   7   0 -23   -0.93    0.48
   2   7 -23    6.84    0.91
  -2  -7 -23    7.39    0.92
  -2   7  23    6.26    0.80
   2  -7  23    8.57    0.87
  -7  -2  23    5.94    0.87
   7  -2 -23    8.10    0.99
  -7   2 -23    7.64    0.86
   7   2  23    7.76    0.89
   2   7  23    7.30    0.75
   2  -7 -23    6.14    0.80
  -7  -2 -23    7.87    0.82
   7  -2  23    8.92    0.91
  -2  -7  23    6.59    0.80
  -2  -7  23    6.72    0.79
   7   2 -23    8.67    0.88
  -2   7 -23    8.42    0.87
   7   2 -23    7.82    0.93
  -7   2  23    7.46    0.85
   7   4  23    2.54    0.55
  -4   7  23    0.76    0.51
   4  -7  23    1.60    0.58
  -4  -7 -23    1.18    0.52
   7  -4 -23    1.57    0.62
  -7  -4  23    1.27    0.54
   4   7 -23    1.27    0.66
  -7   4 -23    1.71    0.53
  -4   7 -23    3.13    0.59
  -7  -4 -23    0.83    0.46
   7   4 -23    2.42    0.68
   4   7  23    1.76    0.48
  -4  -7  23    2.01    0.55
   4  -7 -23    1.68    0.66
   7  -4  23    0.79    0.54
  -7   4  23    1.06    0.52
   6  -7  23    5.22    0.72
   7   6  23    5.38    0.70
   6   7 -23    4.84    0.78
  -6   7  23    4.70    0.68
  -7  -6  23    5.15    0.72
  -7   6 -23    5.19    0.71
   7  -6 -23    5.27    0.81
  -6   7 -23    5.38    0.72
  -7   6  23    6.00    0.75
  -6  -7  23    5.31    0.72
   6  -7 -23    5.14    0.80
   7  -6  23    4.50    0.70
   7   6 -23    5.43    0.82
  -7  -6 -23    5.31    0.70
   8   1  23    0.41    0.51
  -1   8  23    1.03    0.50
  -8   1 -23    1.50    0.54
   1   8 -23    0.75    0.58
   1  -8  23    0.04    0.48
   8  -1 -23    0.26    0.53
  -8  -1  23    0.54    0.56
  -1  -8 -23    0.73    0.57
   8  -1 -23    1.08    0.60
  -8  -1 -23    0.11    0.48
   8  -1  23   -0.15    0.51
   8   1 -23    0.51    0.56
  -8   1  23    0.09    0.51
   1   8  23    0.47    0.45
   1  -8 -23    0.67    0.56
  -1   8 -23    0.43    0.52
   8   1 -23    0.79    0.56
  -1  -8  23   -0.10    0.47
  -3   8  23    3.97    0.64
   8  -3 -23    7.56    0.99
   3   8 -23    5.58    0.78
  -8   3 -23    3.89    0.67
   3  -8  23    6.25    0.88
   8   3  23    5.12    0.70
  -8  -3  23    6.49    0.91
  -3  -8 -23    6.10    0.71
   3   8  23    5.88    0.76
  -3  -8  23    6.03    0.86
  -8  -3 -23    4.22    0.67
   8   3 -23    4.28    0.74
  -8   3  23    6.24    0.87
   8  -3  23    6.05    0.74
   3  -8 -23    7.27    0.85
  -3   8 -23    5.43    0.71
   8   5  23    2.40    0.62
   8  -5 -23    1.64    0.68
  -8   5 -23    2.46    0.60
  -8  -5  23    1.54    0.62
  -5   8  23    2.31    0.59
   5  -8  23    1.63    0.63
   5   8 -23    0.66    0.61
   8  -5  23    2.17    0.63
  -8  -5 -23    1.88    0.54
  -5  -8  23    2.28    0.62
  -5   8 -23    1.80    0.60
  -8   5  23    2.26    0.61
   8   5 -23    1.06    0.70
   5  -8 -23    2.04    0.69
  -8   7 -23    0.77    0.58
   7  -8  23    0.56    0.53
  -7  -8 -23   -0.31    0.49
  -7   8  23    1.09    0.59
  -8  -7  23   -0.36    0.56
   7   8 -23    0.04    0.67
   8  -7 -23    0.88    0.66
   8   7  23    2.15    0.61
  -8  -7 -23   -0.14    0.49
   8  -7  23    0.20    0.60
   7  -8 -23    0.72    0.68
  -7   8 -23    0.24    0.56
  -7  -8  23    1.31    0.62
   8   7 -23    0.17    0.67
  -8   7  23    1.07    0.58
   9   0 -23   -0.22    0.49
   9   0 -23   -0.45    0.53
   0   9 -23    0.19    0.55
   0  -9  23    0.64    0.51
  -9   0  23    0.71    0.55
  -9   0 -23    0.21    0.52
   0   9  23    0.00    0.47
   9   0  23    0.68    0.55
   0  -9 -23    0.22    0.56
   2  -9  23    0.49    0.51
   9  -2 -23    0.58    0.59
  -9  -2  23    0.62    0.59
   9   2  23    0.41    0.53
   2   9 -23    0.61    0.59
  -2  -9 -23    1.10    0.56
  -2   9  23    0.83    0.53
  -9   2 -23    0.97    0.52
  -2   9 -23    1.22    0.54
   2  -9 -23    1.56    0.64
  -9   2  23    1.02    0.57
   9   2 -23    1.24    0.59
  -9  -2 -23    0.47    0.49
   9  -2  23    0.57    0.55
   2   9  23    0.81    0.51
  -9   4 -23   -0.08    0.52
  -9  -4  23   -0.14    0.54
   4   9 -23   -0.37    0.60
  -4  -9 -23    0.14    0.46
   4  -9  23   -0.37    0.49
   9   4  23    0.56    0.54
  -4   9  23    0.13    0.49
   9  -4 -23    0.58    0.61
   9  -4  23    0.89    0.56
  -9  -4 -23   -0.55    0.49
  -4   9 -23    0.40    0.51
  -4  -9  23    0.16    0.54
  -9   4  23    0.18    0.55
   9   4 -23   -1.54    0.53
   4  -9 -23   -0.76    0.56
   9  -6 -23   -0.42    0.63
   6  -9  23    0.34    0.57
   6   9 -23   -0.11    0.65
  -9   6 -23    0.62    0.55
  -9  -6  23    0.13    0.58
  -6   9  23   -0.37    0.53
   9   6  23    0.75    0.56
  -6   9 -23    0.63    0.56
  -9  -6 -23    0.78    0.58
  -9   6  23    0.25    0.56
   9   6 -23    0.85    0.69
   9  -6  23    0.95    0.61
  -6  -9  23    0.29    0.59
   6  -9 -23    0.75    0.67
  -8  -9 -23   -0.60    0.53
  -9   8 -23    0.96    0.63
  -8   9 -23    0.48    0.56
  -9  -8 -23    0.63    0.63
   1  10 -23    1.68    0.63
 -10  -1  23    2.42    0.70
  10  -1 -23    1.88    0.63
   1 -10  23    2.66    0.62
  -1 -10 -23    1.97    0.61
  10   1  23    2.55    0.65
 -10   1 -23    3.09    0.65
  -1  10  23    1.18    0.56
  -1  10 -23    0.72    0.58
 -10   1  23    2.70    0.65
   1 -10 -23    1.62    0.66
  10  -1  23    2.21    0.63
  10   1 -23    2.09    0.64
 -10  -1 -23    1.96    0.59
   1  10  23    2.11    0.58
   3 -10  23    1.98    0.62
  10  -3 -23    1.67    0.66
 -10  -3  23    2.69    0.71
  10   3  23    1.91    0.68
   3  10 -23    3.15    0.73
 -10   3 -23    3.26    0.68
  -3  10  23    2.56    0.62
  -3 -10 -23    2.86    0.62
  -3  10 -23    3.21    0.60
  -3 -10  23    3.01    0.64
   3 -10 -23    3.17    0.70
  10  -3  23    2.40    0.65
 -10  -3 -23    1.80    0.59
 -10   3  23    3.34    0.70
  10   3 -23    2.83    0.75
  -5 -10 -23    1.83    0.55
 -10   5 -23    2.27    0.65
  10   5  23    1.06    0.60
  10  -5 -23    2.17    0.74
  -5  10  23    2.27    0.68
 -10  -5  23    2.26    0.76
   5 -10  23    2.17    0.61
   5  10 -23    0.22    0.69
 -10   5  23    1.06    0.63
  -5 -10  23    0.18    0.58
  10  -5  23    0.52    0.58
  -5  10 -23    1.98    0.60
 -10  -5 -23    1.80    0.62
  10   5 -23    1.23    0.72
   5 -10 -23    2.13    0.71
  10   7  23    1.51    0.62
  -7 -10 -23    0.81    0.57
  -7  10 -23    0.56    0.60
 -10  -7 -23    0.43    0.61
  11   0  23   -0.40    0.57
 -11   0 -23   -0.22    0.53
   0  11  23    0.17    0.55
 -11   0  23   -0.43    0.57
   0  11 -23   -0.92    0.54
   0 -11 -23    0.43    0.58
 -11  -2  23    3.37    0.77
  11   2  23    3.32    0.70
 -11   2 -23    3.22    0.69
  -2 -11 -23    2.23    0.65
  -2  11  23    3.21    0.67
  11  -2 -23    3.20    0.72
   2  11 -23    3.21    0.76
 -11   2 -23    3.72    0.67
   2 -11  23    1.86    0.65
  11  -2  23    2.91    0.68
 -11   2  23    2.20    0.66
 -11  -2 -23    2.86    0.69
   2 -11 -23    3.92    0.74
  11   2 -23    3.35    0.76
  -2  11 -23    4.60    0.73
  11  -4 -23   -0.47    0.64
   4 -11  23    1.07    0.62
  -4 -11 -23    0.06    0.54
  -4 -11  23    0.02    0.58
 -11  -4 -23    0.00    0.57
  11  -4  23    1.00    0.60
  -4  11 -23    0.64    0.52
 -12   1 -23    7.43    1.07
   1  12 -23    6.98    0.92
  12   1 -23    5.28    0.86
 -12  -1 -23    6.55    0.85
   1 -12 -23    8.47    1.08
  -1  12 -23    6.73    0.85
 -12   3 -23    0.58    0.60
  12  -3 -23    1.91    0.70
   0   0  24    3.57    0.47
   0   0  24    2.80    0.53
   0   0 -24    4.01    0.56
   1   1  24   -0.25    0.33
  -1   1  24   -0.19    0.48
   1  -1 -24    0.34    0.38
   1  -1  24    0.43    0.48
  -1  -1  24   -0.30    0.46
  -1   1 -24   -0.01    0.41
  -1  -1  24   -0.17    0.36
   1   1  24   -0.34    0.47
  -1  -1 -24    0.63    0.43
  -1   1  24   -0.09    0.36
   1   1 -24    0.04    0.42
  -2   0 -24   -0.34    0.40
   0  -2  24   -0.02    0.45
   0   2  24    0.12    0.50
   2   0 -24    0.04    0.40
   0  -2 -24    0.89    0.41
   0   2 -24    0.11    0.43
   2   0  24    0.53    0.50
  -2   0  24    0.21    0.42
   0   2  24    0.30    0.37
  -2   0  24    0.53    0.42
   0  -2  24    0.16    0.38
   2   2  24    0.35    0.35
  -2  -2  24    0.74    0.51
   2  -2  24    0.11    0.47
  -2   2  24   -0.13    0.50
  -2  -2  24   -0.51    0.38
   2   2 -24    0.56    0.47
  -2   2 -24    0.49    0.45
   2  -2 -24    0.01    0.38
  -2  -2 -24    0.00    0.39
  -2   2  24   -0.50    0.39
   2   2  24    0.28    0.47
   3   1  24    0.67    0.50
  -1   3  24    0.36    0.54
   1   3 -24    0.43    0.45
   3  -1 -24   -0.23    0.49
  -3  -1  24   -0.19    0.47
   1  -3  24    0.22    0.49
  -3   1 -24    0.09    0.42
   3  -1 -24    0.11    0.41
  -1  -3 -24   -0.20    0.37
  -3  -1  24   -0.30    0.42
  -1   3  24    0.23    0.41
   1   3  24    1.73    0.56
  -1  -3  24    0.13    0.48
   1  -3 -24   -0.19    0.55
  -1   3 -24    0.52    0.43
  -3  -1 -24    0.49    0.43
   1  -3 -24    0.15    0.34
  -1  -3  24   -0.02    0.40
   3  -1  24    0.10    0.47
   3   1 -24    1.54    0.48
  -3   1  24    1.00    0.48
  -3   1  24    0.07    0.40
   1   3  24    0.36    0.37
   3  -3 -24    0.83    0.41
   3  -3  24    0.17    0.48
  -3  -3  24   -0.55    0.44
  -3  -3 -24   -0.67    0.38
  -3  -3  24   -0.46    0.42
   3   3 -24   -0.05    0.46
   3   3  24    0.49    0.48
  -3   3 -24   -0.02    0.41
  -3   3  24    0.37    0.42
   3  -3 -24    0.16    0.54
   0   4  24  130.03    2.99
  -4   0  24  141.04    3.11
   0   4 -24  134.51    3.12
  -4   0 -24  137.01    3.09
   4   0 -24  132.93    3.06
   4   0  24  135.21    3.11
  -4   0  24  134.61    3.08
   0  -4  24  133.31    3.06
   4   0 -24  130.78    3.10
   0  -4 -24  137.73    3.18
   0  -4 -24  131.77    2.95
   4   2  24   -0.82    0.46
   2  -4  24    0.27    0.51
   4  -2 -24   -0.29    0.46
  -2   4  24    0.49    0.42
  -2  -4 -24   -0.27    0.34
  -4  -2  24   -0.53    0.43
   4  -2 -24    0.17    0.42
   2   4 -24    0.30    0.51
  -4  -2  24    0.66    0.47
  -4   2 -24    0.93    0.50
   2   4  24    0.31    0.37
  -2  -4  24   -0.11    0.40
   4   2 -24    0.43    0.48
   4  -2  24    0.75    0.50
  -4   2  24   -0.06    0.43
   2   4  24    0.38    0.51
  -4  -2 -24    0.00    0.43
  -2   4 -24   -0.47    0.43
  -2  -4  24   -0.18    0.46
   2  -4 -24   -0.31    0.55
  -4   4  24    3.77    0.60
   4   4  24    3.85    0.65
  -4  -4 -24    4.12    0.56
   4  -4  24    4.42    0.67
  -4   4 -24    3.64    0.61
   4  -4 -24    3.63    0.67
  -4  -4  24    3.40    0.56
   4   4 -24    5.11    0.70
  -4  -4  24    2.88    0.56
  -1  -5 -24   -0.41    0.52
   5   1  24    0.02    0.51
  -5  -1  24    0.21    0.44
  -5   1 -24    1.35    0.49
   1  -5  24   -0.01    0.49
   5  -1 -24    0.39    0.56
  -1   5  24    0.71    0.44
   1   5 -24   -0.37    0.47
   5  -1 -24    0.64    0.47
   5   1 -24    0.25    0.49
   5   1 -24    0.24    0.50
   5  -1  24    0.99    0.52
   1   5  24    0.06    0.41
  -1   5 -24    1.67    0.52
  -5   1  24   -0.39    0.45
   1  -5 -24    1.52    0.60
  -5  -1 -24    1.50    0.50
  -1  -5  24    0.00    0.48
  -1  -5  24    0.25    0.41
   5   3  24    2.04    0.59
   3  -5  24    1.50    0.56
  -5  -3  24    1.92    0.55
  -3   5  24    0.87    0.48
   5  -3 -24    2.66    0.67
   3   5 -24    1.60    0.60
  -5   3 -24    2.13    0.57
  -5  -3  24    1.02    0.49
  -3  -5 -24    2.29    0.46
   5  -3  24    1.71    0.60
   3   5  24    1.69    0.45
   5   3 -24    1.47    0.56
  -3   5 -24    2.01    0.57
  -5   3  24    1.23    0.51
  -3  -5  24    1.83    0.51
  -5  -3 -24    1.30    0.47
  -3  -5  24    1.85    0.53
   3   5  24    1.78    0.58
   3  -5 -24    2.84    0.65
   5   5  24    0.17    0.53
   5   5 -24    0.00    0.56
  -5   5  24    0.40    0.47
   5  -5 -24   -0.02    0.54
   5  -5  24   -0.38    0.51
  -5   5 -24    0.91    0.54
  -5  -5  24    0.32    0.49
  -5  -5  24   -0.50    0.44
  -5  -5 -24   -0.07    0.39
   0  -6 -24    0.96    0.56
   0   6  24    1.19    0.46
   6   0 -24    1.36    0.55
  -6   0 -24    0.93    0.51
  -6   0  24    0.30    0.48
   0  -6  24    0.69    0.50
   6   0  24    1.55    0.56
   0   6 -24    0.14    0.47
   6   0 -24    0.96    0.55
   2  -6  24    0.01    0.50
  -2  -6 -24   -0.53    0.48
  -2   6  24    0.03    0.43
   6  -2 -24    0.47    0.53
  -6  -2  24    0.29    0.50
   6   2  24   -0.05    0.51
   2   6 -24   -0.25    0.51
  -6   2 -24    0.13    0.51
  -2  -6  24    0.56    0.51
   6   2 -24    0.70    0.53
   6   2 -24   -0.50    0.53
   2   6  24   -0.47    0.39
   2  -6 -24    0.65    0.59
  -2  -6  24    0.57    0.44
  -2   6 -24   -0.26    0.45
   6  -2  24   -0.68    0.49
  -6   2  24   -0.08    0.47
  -6  -2 -24    0.07    0.44
  -4  -6 -24    0.88    0.52
   6  -4 -24    1.58    0.66
  -6  -4  24    0.41    0.51
   4  -6  24    0.71    0.57
   4   6 -24    0.61    0.59
  -6   4 -24    1.11    0.53
   6   4  24    0.38    0.55
  -6  -4  24    0.66    0.48
  -4   6  24    1.12    0.53
   6   4 -24   -0.34    0.55
  -4  -6  24    1.48    0.55
  -4  -6  24    1.06    0.49
   4  -6 -24    0.75    0.64
  -6   4  24    0.94    0.50
  -6  -4 -24    0.58    0.47
  -4   6 -24    0.55    0.48
   4   6  24    0.26    0.55
   6  -4  24    0.93    0.57
   6  -6 -24    0.96    0.64
  -6  -6  24    0.14    0.54
  -6   6  24    0.18    0.54
   6   6 -24   -0.13    0.62
  -6   6 -24    0.62    0.55
  -6  -6 -24    0.56    0.43
   6  -6  24    0.62    0.58
   7   1  24    1.36    0.55
   1  -7  24    1.00    0.52
   7  -1 -24    0.37    0.55
  -7  -1  24    0.67    0.52
  -7   1 -24    1.46    0.51
  -1   7  24    0.92    0.46
   7  -1 -24    0.93    0.60
  -1  -7 -24    1.68    0.58
   1   7 -24    0.95    0.56
  -1   7 -24    0.53    0.50
   7  -1  24    1.88    0.59
   1   7  24    0.83    0.46
   7   1 -24    1.06    0.56
  -7   1  24    1.03    0.56
   1  -7 -24    1.41    0.61
  -1  -7  24    1.20    0.54
   7   1 -24    0.11    0.57
  -7  -1 -24    1.09    0.52
  -7   3 -24   -0.04    0.50
   7   3  24   -0.95    0.51
  -3   7  24    0.04    0.48
   3   7 -24    0.60    0.59
   7  -3 -24   -0.10    0.55
  -7  -3  24    0.46    0.55
  -3  -7 -24    0.25    0.53
   3  -7  24    0.16    0.53
   7  -3  24    0.24    0.54
   7   3 -24    0.56    0.53
  -7   3  24   -0.02    0.48
  -3  -7  24    0.60    0.50
  -3   7 -24    1.04    0.54
  -7  -3 -24   -0.44    0.45
   3   7  24    1.08    0.46
   7   3 -24    0.06    0.58
  -3  -7  24    0.26    0.48
   3  -7 -24    1.00    0.64
  -5   7  24    1.79    0.59
   5  -7  24    1.90    0.62
   7  -5 -24    2.34    0.67
   5   7 -24    0.60    0.66
  -7   5 -24    0.88    0.55
  -7  -5  24    1.26    0.56
   5  -7 -24    2.53    0.70
   7  -5  24    3.58    0.68
  -7   5  24    2.95    0.63
  -5   7 -24    2.32    0.62
   7   5 -24    1.41    0.66
  -5  -7  24    1.66    0.58
  -7  -5 -24    1.59    0.51
   7  -7 -24   -0.05    0.60
   7  -7  24    0.08    0.54
  -7   7  24    0.17    0.56
   7   7 -24   -0.21    0.65
  -7  -7  24   -0.09    0.55
  -7   7 -24   -0.29    0.53
   8   0 -24    4.13    0.72
   0   8 -24    5.40    0.75
   8   0  24    3.61    0.65
  -8   0  24    3.50    0.64
   8   0 -24    5.19    0.73
  -8   0 -24    4.90    0.66
   0  -8 -24    3.77    0.70
   0   8  24    6.47    0.80
   0  -8  24    3.98    0.66
  -2  -8 -24   -0.19    0.51
   8  -2 -24    0.00    0.59
   2   8 -24   -0.26    0.56
  -8   2 -24   -0.22    0.50
  -2   8  24    0.55    0.49
   8   2  24    0.55    0.57
  -8  -2  24    0.90    0.59
   2  -8  24    0.56    0.54
   2   8  24    0.23    0.45
  -2  -8  24    0.71    0.50
  -8  -2 -24    0.41    0.51
   2  -8 -24    0.51    0.59
  -8   2  24    0.21    0.53
   8   2 -24    0.22    0.56
   8  -2  24   -0.54    0.52
   8   2 -24    0.16    0.52
  -2   8 -24    1.00    0.53
  -4  -8 -24   77.48    2.08
   4   8 -24   73.57    2.29
  -8   4 -24   74.67    2.21
  -4   8  24   74.73    2.18
   4  -8  24   73.62    2.16
  -8  -4  24   73.39    2.24
   8  -4 -24   77.00    2.28
   8   4  24   77.65    2.18
  -4  -8  24   73.14    2.16
   4  -8 -24   74.08    2.29
  -4   8 -24   78.54    2.21
   8  -4  24   74.63    2.19
  -8   4  24   74.19    2.22
   4   8  24   74.08    2.07
   8   4 -24   74.68    2.29
  -8  -4 -24   75.38    2.14
   6   8 -24   -0.50    0.63
   8  -6 -24    0.84    0.67
  -6   8  24    1.22    0.60
  -8  -6  24   -0.64    0.56
   6  -8  24    1.24    0.58
  -8   6 -24   -0.04    0.57
   8   6  24    0.01    0.54
   8  -6  24    0.17    0.55
   8   6 -24    1.13    0.65
  -8   6  24    0.57    0.58
   6  -8 -24   -0.19    0.65
  -6   8 -24   -0.10    0.52
  -6  -8  24    0.23    0.55
  -8   8 -24    5.21    0.77
   1   9 -24    1.65    0.64
  -1   9  24    1.24    0.54
  -9  -1  24    1.21    0.60
   9   1  24    1.64    0.60
  -1  -9 -24    0.85    0.60
  -9   1 -24    0.98    0.53
   1  -9  24    1.22    0.59
   9  -1 -24    0.24    0.62
   1   9  24    1.23    0.51
   9  -1  24    0.80    0.58
  -9   1  24    0.92    0.58
   1  -9 -24    1.35    0.64
  -1   9 -24    1.02    0.56
   9   1 -24    1.05    0.56
  -9  -1 -24    1.06    0.54
   9   1 -24    0.34    0.59
  -1  -9  24    1.03    0.56
   3  -9  24    2.97    0.65
  -9   3 -24    3.08    0.68
   3   9 -24    2.14    0.72
  -9  -3  24    2.87    0.70
   9   3  24    1.84    0.61
   9  -3 -24    3.24    0.74
  -3   9  24    2.10    0.61
   3  -9 -24    1.45    0.66
   9   3 -24    1.25    0.65
  -3   9 -24    2.75    0.63
  -3  -9  24    2.60    0.61
   3   9  24    2.11    0.58
  -9   3  24    1.45    0.58
   9  -3  24    2.70    0.65
  -9  -5  24    0.54    0.55
  -5   9  24    0.91    0.56
   9  -5 -24    0.85    0.65
   9   5  24    0.71    0.58
  -9   5 -24   -0.33    0.56
   5  -9  24    1.00    0.57
   5   9 -24   -0.52    0.63
  -5  -9  24   -0.17    0.56
   9  -5  24    0.77    0.60
   5  -9 -24   -0.02    0.63
  -9   5  24   -0.04    0.54
   9   5 -24   -0.52    0.62
  -5   9 -24   -0.35    0.52
   9   7  24    4.34    0.72
  -9  -7 -24    3.20    0.71
  -7   9 -24    3.54    0.70
   0  10  24    1.44    0.55
  10   0  24    1.83    0.62
   0  10 -24    1.38    0.64
 -10   0 -24    0.34    0.56
   0 -10  24    0.98    0.55
 -10   0  24    1.91    0.65
   0 -10 -24    2.20    0.64
  10   2  24    0.75    0.56
   2 -10  24    0.45    0.54
  10  -2 -24   -0.44    0.56
  -2  10  24    0.35    0.53
 -10   2 -24    0.35    0.52
   2  10 -24   -0.67    0.64
 -10  -2  24    0.28    0.60
  10  -2  24    0.44    0.60
   2 -10 -24    0.68    0.62
  10   2 -24    0.39    0.64
 -10   2  24    0.47    0.58
   2  10  24   -0.35    0.48
  -2  10 -24    1.07    0.54
 -10   4 -24    0.42    0.59
   4 -10  24    1.14    0.59
  10   4  24    1.92    0.64
   4  10 -24    0.45    0.71
  -4 -10 -24    0.57    0.52
  10  -4 -24    1.46    0.67
  10   4 -24    0.09    0.68
  -4 -10  24    0.56    0.59
  -4  10 -24    1.08    0.55
 -10  -4 -24    0.66    0.57
  10  -4  24    1.58    0.67
   4 -10 -24    0.79    0.64
  10   6  24    0.80    0.66
 -10  -6 -24    0.40    0.58
  -6  10 -24    0.72    0.58
   1  11 -24    0.59    0.66
   1 -11  24    0.96    0.60
   1 -11 -24    1.23    0.65
  11   1 -24    1.55    0.67
  11  -1  24    2.09    0.66
  -1  11 -24   -0.06    0.61
   1  11  24    0.88    0.58
  -3 -11 -24    0.75    0.56
  11  -3 -24    0.62    0.65
   3 -11  24    0.63    0.58
  11   3 -24    0.65    0.72
  11  -3  24    1.01    0.64
  -3  11 -24    1.02    0.58
 -11  -3 -24    1.00    0.59
  -1   0  25   -0.46    0.47
   1   0  25   -1.21    0.46
   0   1  25   -0.77    0.49
   1   0 -25   -0.08    0.41
   0   1 -25    0.11    0.42
   0   1  25    0.21    0.38
  -1   0 -25    0.16    0.43
   0  -1  25    0.19    0.36
   0  -1 -25   -0.59    0.40
  -1   0  25   -0.38    0.38
   0  -1  25   -0.86    0.44
   2   1  25    1.09    0.53
  -1   2  25    1.86    0.45
   1   2 -25    0.57    0.45
  -2   1 -25    0.59    0.49
  -2  -1  25    1.16    0.46
  -1  -2 -25    1.27    0.45
  -2  -1  25    1.19    0.47
   2  -1 -25    0.76    0.44
   1  -2  25    1.25    0.53
  -1   2  25    0.66    0.53
  -2   1  25    1.02    0.43
   1   2  25    0.50    0.52
  -2  -1 -25    0.60    0.46
   1   2  25    1.23    0.39
   1  -2 -25    1.09    0.43
  -1  -2  25    1.69    0.50
  -1  -2  25    0.58    0.41
   2  -1  25    0.73    0.51
   2   1 -25    0.82    0.49
  -2   1  25    0.14    0.52
  -1   2 -25    0.48    0.46
  -3   0  25   -0.10    0.49
   3   0  25   -0.15    0.50
   0  -3 -25   -0.36    0.37
   0   3  25    0.36    0.53
  -3   0  25    0.23    0.43
   3   0 -25    0.33    0.46
   0   3  25   -0.15    0.36
   0  -3  25    0.92    0.54
  -3   0 -25    0.39    0.45
   0   3 -25   -0.12    0.43
   2  -3  25   -0.01    0.50
  -2  -3 -25    0.68    0.42
   3   2  25   -0.25    0.53
  -3  -2  25    0.23    0.43
   3  -2 -25   -0.24    0.53
  -2   3  25   -0.36    0.39
  -3  -2  25    0.14    0.43
   2   3 -25    0.07    0.46
   3  -2 -25   -0.13    0.42
  -3   2 -25   -0.45    0.46
   2  -3 -25    0.69    0.40
  -2  -3  25    0.61    0.48
   2   3  25    0.70    0.38
  -3  -2 -25    0.95    0.44
   3  -2  25    0.07    0.48
   2   3  25   -0.51    0.49
  -2  -3  25   -0.10    0.41
  -3   2  25    0.80    0.47
  -2   3 -25    1.42    0.52
   2  -3 -25    0.05    0.56
   3   2 -25    0.07    0.47
  -1   4  25    1.75    0.46
   4   1  25    0.24    0.54
  -1  -4 -25    1.86    0.45
   1  -4  25    1.61    0.56
  -4  -1  25    2.01    0.55
   4  -1 -25    2.01    0.59
  -4  -1  25    0.81    0.48
   4  -1 -25    1.34    0.49
  -4   1 -25    2.02    0.55
   1   4 -25    1.03    0.53
  -1   4 -25    2.00    0.55
  -4   1  25    2.39    0.55
   1   4  25    1.63    0.59
  -4  -1 -25    0.99    0.49
   1  -4 -25    1.19    0.62
   1   4  25    1.01    0.42
   4  -1  25    2.37    0.59
  -1  -4  25    2.01    0.57
  -1  -4  25    1.22    0.47
   4   1 -25    2.12    0.55
  -4  -3  25    8.74    0.84
  -4  -3  25    8.13    0.88
   4   3  25    7.63    0.91
   3   4 -25    7.23    0.91
  -4   3 -25    6.82    0.87
  -3  -4 -25    7.32    0.75
   3  -4  25    7.35    0.90
   4  -3 -25    7.32    0.84
  -3   4  25    6.80    0.81
  -4  -3 -25    7.18    0.77
  -4   3  25    5.94    0.80
  -3   4 -25    8.39    0.90
   4  -3  25    8.42    0.91
  -3  -4  25    6.05    0.71
  -3  -4  25    7.64    0.79
   3  -4 -25    7.29    0.99
   3   4  25    6.94    0.97
   4   3 -25    7.65    0.90
   5   0 -25    0.99    0.52
   5   0  25    0.64    0.51
  -5   0 -25    0.07    0.47
   0   5  25    0.13    0.42
  -5   0  25   -0.58    0.46
   0   5 -25    0.51    0.50
   0  -5  25   -0.21    0.47
   0  -5 -25    0.85    0.52
   5   0 -25    0.01    0.49
  -5  -2  25    1.67    0.54
   2  -5  25    1.90    0.57
   5  -2 -25    2.76    0.66
  -2  -5 -25    2.75    0.63
  -2   5  25    2.14    0.52
  -5   2 -25    2.01    0.54
   5   2  25    1.67    0.59
  -5  -2  25    1.53    0.54
   2   5 -25    2.69    0.60
  -2  -5  25    1.88    0.57
   2   5  25    1.99    0.48
  -5   2  25    2.11    0.54
   2  -5 -25    2.36    0.63
  -2   5 -25    0.96    0.54
   2   5  25    2.10    0.61
  -2  -5  25    1.80    0.50
   5  -2  25    1.34    0.57
  -5  -2 -25    2.46    0.56
   5   2 -25    1.92    0.62
   5   4  25    1.68    0.59
  -4   5  25    2.50    0.56
   4   5 -25    2.54    0.66
  -5  -4  25    3.37    0.59
  -5  -4  25    3.08    0.60
   4  -5  25    1.78    0.60
   5  -4 -25    1.58    0.66
  -5   4 -25    3.10    0.62
  -4  -5 -25    2.17    0.49
  -5  -4 -25    1.99    0.52
   4  -5 -25    2.04    0.69
  -5   4  25    1.85    0.56
   5  -4  25    2.16    0.55
  -4  -5  25    2.13    0.54
   4   5  25    3.73    0.64
   5   4 -25    1.83    0.66
  -4  -5  25    2.41    0.56
  -4   5 -25    1.69    0.58
   1   6 -25    1.04    0.56
  -6  -1  25   -0.56    0.47
  -6   1 -25    0.57    0.55
  -1   6  25   -0.38    0.42
   6  -1 -25   -1.06    0.52
   6  -1 -25    1.11    0.55
   6   1  25    0.73    0.58
  -1  -6 -25    1.03    0.62
   1  -6  25    0.72    0.55
  -1   6 -25    0.63    0.53
   6  -1  25    0.71    0.53
   6   1 -25   -0.58    0.50
   1   6  25    0.82    0.45
  -6  -1 -25    0.06    0.49
  -1  -6  25   -0.24    0.50
  -6   1  25    0.05    0.49
   6   1 -25   -0.01    0.52
   1  -6 -25    0.40    0.57
   3   6 -25   -0.36    0.54
  -6  -3  25    0.16    0.51
   6  -3 -25    0.30    0.61
  -6   3 -25    0.76    0.53
   3  -6  25   -0.66    0.50
   6   3  25   -0.43    0.52
  -3   6  25    0.96    0.51
  -3  -6 -25   -0.19    0.51
   3   6  25    0.03    0.40
  -3  -6  25    0.21    0.50
  -6   3  25   -0.19    0.47
   3  -6 -25   -0.96    0.58
  -3   6 -25    0.20    0.51
  -6  -3 -25    0.74    0.50
   6   3 -25    0.08    0.54
   6   3 -25   -0.07    0.55
  -3  -6  25    0.76    0.48
   6  -3  25    0.01    0.56
   6  -5 -25    1.29    0.68
  -6   5 -25    1.23    0.60
  -5   6  25    1.53    0.55
   5  -6  25    1.27    0.60
  -6  -5  25    1.35    0.59
   5   6 -25    1.35    0.69
  -6   5  25    1.57    0.57
  -6  -5 -25    2.34    0.52
   5  -6 -25    0.71    0.65
  -5  -6  25    1.70    0.56
  -5   6 -25    1.65    0.57
   6   5 -25    0.33    0.64
   6  -5  25    1.74    0.62
   7   0 -25    0.26    0.57
  -7   0 -25    0.75    0.53
  -7   0  25   -0.20    0.49
   0   7  25   -0.42    0.44
   0  -7 -25    0.52    0.58
   0  -7  25    0.48    0.53
   7   0  25   -0.04    0.51
   7   0 -25    0.13    0.57
   0   7 -25    0.56    0.55
   7   2  25    1.47    0.60
   2  -7  25    0.79    0.55
  -7  -2  25    0.33    0.55
  -2  -7 -25    0.03    0.54
  -2   7  25    0.37    0.49
   7  -2 -25    0.75    0.61
  -7   2 -25   -0.38    0.53
   2   7 -25    0.12    0.59
   7  -2  25    0.35    0.53
   7   2 -25    0.86    0.56
   2  -7 -25   -0.87    0.58
   7   2 -25   -0.31    0.57
  -2   7 -25    0.38    0.50
  -7   2  25    0.20    0.53
  -2  -7  25    0.83    0.54
  -7  -2 -25    0.11    0.49
   2   7  25    0.28    0.45
   4  -7  25    2.29    0.63
  -7   4 -25    4.34    0.70
  -7  -4  25    2.73    0.62
  -4   7  25    2.68    0.61
  -4  -7 -25    3.09    0.62
   4   7 -25    3.18    0.73
   7  -4 -25    2.81    0.73
   7  -4  25    2.41    0.60
   7   4 -25    2.57    0.75
  -4  -7  25    2.73    0.61
  -7  -4 -25    3.28    0.58
  -7   4  25    4.26    0.69
  -4   7 -25    3.75    0.66
   4  -7 -25    3.09    0.73
  -6   7  25   -0.03    0.52
   6   7 -25    0.37    0.67
  -7  -6  25   -0.11    0.53
   7  -6 -25   -0.54    0.64
   6  -7  25    0.00    0.56
  -7   6 -25   -0.27    0.56
  -7  -6 -25    0.38    0.46
  -6   7 -25   -0.82    0.54
  -7   6  25   -0.46    0.52
   6  -7 -25    1.16    0.71
   7   6 -25   -0.27    0.67
  -6  -7  25    0.36    0.54
   7  -6  25    0.33    0.58
   1  -8  25   16.22    1.06
  -8  -1  25   15.09    1.11
   1   8 -25   13.20    1.11
   8   1  25   13.00    1.10
  -8   1 -25   16.02    1.09
  -1   8  25   14.59    1.01
   8  -1 -25   13.97    1.12
  -1  -8 -25   14.79    1.11
   1  -8 -25   14.50    1.16
   8   1 -25   13.17    1.05
   8  -1  25   13.92    1.08
  -8  -1 -25   14.53    1.02
  -8   1  25   13.32    1.07
   1   8  25   13.55    0.96
  -1  -8  25   14.03    1.02
  -1   8 -25   13.65    1.05
   8   1 -25   13.54    1.11
  -8  -3  25    6.10    0.81
  -8   3 -25    6.57    0.81
  -3   8  25    6.18    0.90
   3  -8  25    7.32    0.84
  -3  -8 -25    6.69    0.89
   8  -3 -25    9.48    1.08
   3   8 -25    7.39    1.04
  -8  -3 -25    6.17    0.87
   3   8  25    7.56    0.82
   3  -8 -25    9.44    1.11
  -3   8 -25    8.49    0.95
  -3  -8  25    6.72    0.75
   8  -3  25    7.16    0.99
  -8   3  25    7.17    0.95
   8   3 -25    6.70    0.88
   8  -5 -25    0.19    0.64
   5  -8  25    1.16    0.59
  -8  -5  25    0.80    0.59
  -8   5 -25    1.05    0.57
  -5   8  25    0.62    0.58
   5   8 -25    0.97    0.68
  -5   8 -25    1.28    0.61
  -8  -5 -25   -0.04    0.50
   8   5 -25    0.51    0.66
   5  -8 -25    2.11    0.73
  -5  -8  25    1.28    0.59
   8  -5  25    0.49    0.57
  -8   5  25    0.21    0.56
  -8   7 -25   18.25    1.36
  -7   8 -25   19.20    1.29
   0  -9 -25    0.74    0.62
   0   9  25    0.21    0.51
   9   0  25    0.35    0.54
  -9   0 -25    0.05    0.53
  -9   0  25   -0.20    0.55
   0  -9  25    0.68    0.57
   9   0 -25    0.39    0.60
   0   9 -25    0.08    0.55
   9   0 -25    0.15    0.58
   2  -9  25    3.22    0.68
  -9  -2  25    3.78    0.76
   2   9 -25    2.98    0.70
  -2   9  25    2.05    0.61
  -9   2 -25    2.88    0.67
  -2  -9 -25    2.42    0.65
   9  -2 -25    3.54    0.76
  -9   2  25    2.91    0.65
  -9  -2 -25    3.32    0.66
   9  -2  25    1.92    0.64
   2  -9 -25    3.48    0.73
  -2   9 -25    3.08    0.66
   9   2 -25    2.29    0.70
   2   9  25    4.13    0.64
   4  -9  25   -0.67    0.55
   9  -4 -25    0.51    0.66
   4   9 -25    0.27    0.69
  -9  -4  25    1.39    0.65
   9   4  25   -0.04    0.55
  -4  -9 -25   -0.46    0.45
  -9   4 -25   -0.32    0.56
  -4   9  25    0.35    0.52
  -4  -9  25   -0.48    0.52
  -4   9 -25    0.14    0.54
  -9   4  25    1.07    0.62
   9  -4  25   -0.07    0.57
   4  -9 -25   -0.37    0.62
  -9  -4 -25   -0.65    0.54
   9   4 -25    0.04    0.66
   9   6  25    2.38    0.63
  -6  -9  25    1.26    0.66
  -6   9 -25    0.41    0.60
   1 -10  25    0.13    0.55
   1  10 -25    0.07    0.61
 -10   1 -25    0.19    0.59
  10  -1 -25   -0.40    0.60
  -1 -10 -25   -0.36    0.56
  -1  10  25    0.56    0.55
 -10  -1  25    0.95    0.66
   1  10  25   -0.13    0.52
  10   1 -25   -0.64    0.58
  10  -1  25    1.05    0.60
 -10   1  25   -0.13    0.59
  -1  10 -25   -0.45    0.56
 -10  -1 -25    0.37    0.59
   1 -10 -25    0.15    0.59
   3 -10  25   -0.95    0.53
  10  -3 -25    0.02    0.59
  10   3  25   -0.04    0.60
  -3 -10 -25   -0.34    0.51
   3 -10 -25   -1.08    0.58
  10   3 -25    0.43    0.70
  -3  10 -25    1.55    0.60
  10  -3  25   -0.27    0.58
  -5 -10  25   -0.21    0.57
   0 -11 -25    0.38    0.61
   2 -11  25    0.89    0.64
  11  -2 -25    0.87    0.66
  11   2 -25    0.41    0.70
  11  -2  25   -0.15    0.58
   0   0  26   -0.42    0.50
   0   0  26    0.40    0.41
   0   0 -26    0.68    0.47
   1   1  26    2.42    0.59
   1   1 -26    2.94    0.58
  -1   1  26    2.77    0.51
  -1  -1 -26    3.17    0.54
  -1  -1  26    3.73    0.53
  -1  -1  26    4.17    0.65
  -1   1  26    2.02    0.58
   1  -1 -26    1.66    0.49
   1  -1  26    2.31    0.59
  -1   1 -26    2.99    0.56
   0   2  26    1.43    0.57
  -2   0  26    2.39    0.61
   0  -2  26    1.94    0.59
   0   2 -26    1.27    0.53
  -2   0 -26    1.92    0.54
   2   0 -26    2.67    0.56
   0   2  26    0.97    0.42
   2   0  26    1.97    0.56
  -2   0  26    1.60    0.48
   0  -2 -26    2.09    0.49
   2   2 -26    0.35    0.49
   2  -2 -26    0.82    0.57
   2  -2  26   -0.40    0.52
  -2   2  26   -0.27    0.40
  -2   2  26   -0.15    0.51
  -2  -2  26    0.04    0.47
  -2   2 -26    0.61    0.47
   2  -2 -26    0.26    0.40
   2   2  26   -0.99    0.46
  -2  -2  26    0.01    0.42
  -2  -2 -26    0.07    0.41
  -1   3  26    2.30    0.51
   1   3 -26    2.70    0.55
   1  -3  26    1.30    0.56
  -3   1 -26    1.91    0.53
   3  -1 -26    1.53    0.51
  -3  -1  26    1.64    0.57
  -1   3  26    2.10    0.63
  -3  -1  26    1.92    0.51
  -1  -3 -26    2.17    0.50
   3  -1 -26    2.71    0.66
   3   1  26    3.06    0.63
  -1  -3  26    1.92    0.48
  -1   3 -26    2.21    0.58
   3   1 -26    2.42    0.55
  -3   1  26    2.25    0.52
  -3  -1 -26    1.47    0.51
   1  -3 -26    2.41    0.64
   1   3  26    1.76    0.48
   1   3  26    1.81    0.63
   1  -3 -26    1.00    0.45
   3  -1  26    1.72    0.61
  -1  -3  26    1.56    0.58
  -3   1  26    2.68    0.65
   3   3 -26   -0.48    0.48
  -3   3 -26    0.22    0.51
  -3  -3 -26   -0.65    0.38
   3  -3  26   -0.30    0.51
   3  -3 -26    0.25    0.58
  -3   3  26   -0.28    0.43
   3   3  26   -0.22    0.49
  -3  -3  26   -0.77    0.44
  -3  -3  26    0.30    0.50
   4   0 -26    0.44    0.49
   4   0 -26   -0.15    0.53
  -4   0  26   -0.33    0.46
   0   4 -26    0.52    0.49
  -4   0 -26    0.35    0.47
   0  -4 -26    0.54    0.59
   0   4  26    0.15    0.44
   4   0  26    0.30    0.56
   0  -4  26   -0.57    0.49
   4  -2 -26   -0.04    0.44
  -4  -2  26    0.94    0.52
   4   2  26    0.03    0.53
  -4  -2  26    1.19    0.52
   2  -4  26    1.09    0.57
  -4   2 -26    0.47    0.52
  -2   4  26    0.53    0.45
   4  -2 -26   -0.14    0.59
   2   4 -26    0.26    0.53
  -2  -4 -26    0.76    0.42
  -2  -4  26    0.98    0.51
   4   2 -26    0.58    0.52
   2   4  26   -0.34    0.53
   4  -2  26    1.01    0.55
   2   4  26    0.27    0.45
   2  -4 -26    1.20    0.63
  -4   2  26   -0.47    0.45
  -4  -2 -26    0.33    0.46
  -2  -4  26    0.23    0.45
  -2   4 -26    0.78    0.52
   4   4  26   -0.11    0.50
   4  -4 -26    0.39    0.60
   4   4 -26    0.35    0.54
  -4  -4 -26   -0.56    0.41
  -4  -4  26   -0.10    0.45
   4  -4  26    0.78    0.56
  -4   4  26    0.02    0.47
  -4  -4  26    0.27    0.50
  -4   4 -26    0.11    0.50
   5   1  26    4.90    0.73
   5  -1 -26    4.23    0.64
  -1   5  26    5.19    0.63
   1  -5  26    4.21    0.71
  -1  -5 -26    4.62    0.75
   1   5 -26    5.00    0.71
  -5  -1  26    4.10    0.62
  -5   1 -26    4.74    0.66
   5  -1 -26    4.23    0.70
   1  -5 -26    5.40    0.81
  -5   1  26    4.27    0.62
  -5  -1 -26    5.40    0.68
   5   1 -26    3.44    0.65
   5   1 -26    4.28    0.69
  -1  -5  26    4.47    0.71
   5  -1  26    4.63    0.68
  -1   5 -26    4.01    0.62
   1   5  26    4.14    0.58
   3  -5  26    2.28    0.63
   5  -3 -26    2.12    0.68
  -5  -3  26    1.33    0.56
  -5  -3  26    1.65    0.53
  -5   3 -26    1.94    0.60
   5   3  26    1.92    0.63
   3   5 -26    0.48    0.55
  -3   5  26    1.63    0.51
  -3  -5  26    1.84    0.52
  -5   3  26    2.29    0.55
   5  -3  26    1.66    0.59
   3   5  26    2.25    0.63
  -3   5 -26    1.85    0.58
  -5  -3 -26    1.21    0.53
   3  -5 -26    2.18    0.71
  -3  -5  26    1.72    0.57
   5   3 -26    1.03    0.60
  -5   5 -26    8.12    0.96
  -5  -5  26    7.50    0.90
   5  -5  26   10.11    1.01
   5  -5 -26    7.67    1.08
  -5   5  26    6.98    0.91
   5   5  26    6.89    0.95
  -5  -5  26    8.97    0.92
   5   5 -26    9.36    1.09
  -5  -5 -26    9.67    0.82
   0   6 -26    0.65    0.55
   0   6  26   -0.55    0.41
   0  -6  26    0.80    0.53
  -6   0  26   -0.29    0.50
   0  -6 -26    0.67    0.60
   6   0  26    0.44    0.54
   6   0 -26    0.07    0.52
  -6   0 -26    0.53    0.54
   6   0 -26    1.55    0.60
  -2   6  26   -0.13    0.46
   2  -6  26   -0.79    0.53
   6  -2 -26    0.62    0.62
  -2  -6 -26    0.14    0.58
   6   2  26    0.87    0.61
  -6  -2  26    0.39    0.54
  -6   2 -26   -0.04    0.49
   2   6 -26   -1.13    0.51
  -2   6 -26    0.15    0.50
  -6   2  26    0.26    0.51
  -2  -6  26    0.17    0.53
   6  -2  26    0.01    0.52
   2  -6 -26    0.60    0.59
  -6  -2 -26   -0.80    0.45
   2   6  26    0.03    0.43
   6   2 -26   -0.42    0.54
   6   2 -26   -0.70    0.56
   4  -6  26    2.40    0.67
   6   4  26    0.98    0.58
  -6  -4  26    1.43    0.54
   6  -4 -26    1.53    0.68
  -6   4 -26    2.47    0.63
  -4   6  26    0.98    0.54
   4   6 -26    1.40    0.65
  -4  -6 -26    0.51    0.57
  -6  -4  26    2.94    0.63
  -6  -4 -26    2.70    0.56
   6   4 -26    2.43    0.58
   6  -4  26    1.83    0.61
  -4   6 -26    1.38    0.60
   4  -6 -26    2.18    0.71
   6   4 -26    1.74    0.67
  -6   4  26    2.34    0.61
  -4  -6  26    3.08    0.63
  -4  -6  26    1.54    0.57
  -6   6  26    0.30    0.52
   6   6 -26    0.35    0.65
  -6   6 -26    0.73    0.59
   6  -6 -26   -0.03    0.59
   6  -6  26   -0.25    0.55
  -6  -6  26    0.25    0.54
  -1   7  26   -0.18    0.44
  -1  -7 -26   -0.33    0.58
   1  -7  26   -0.69    0.51
   7  -1 -26    0.33    0.57
  -7  -1  26    0.12    0.53
   1   7 -26    0.25    0.56
  -7   1 -26    1.15    0.59
   7   1  26   -0.42    0.56
   7   1 -26   -0.14    0.55
  -7  -1 -26    0.23    0.53
   7  -1  26    0.52    0.55
  -7   1  26    0.05    0.54
  -1  -7  26    0.59    0.54
   1  -7 -26    0.20    0.62
  -1   7 -26   -0.07    0.49
   1   7  26   -0.67    0.43
   7   1 -26   -0.89    0.57
  -7   3 -26    1.12    0.59
   3  -7  26    0.72    0.60
  -7  -3  26   -0.06    0.56
   7   3  26    0.65    0.58
  -3   7  26    0.71    0.54
   3   7 -26   -0.08    0.63
   7  -3 -26    0.30    0.60
  -3  -7 -26   -0.11    0.55
  -7  -3 -26   -0.23    0.50
  -3   7 -26    0.85    0.53
   3  -7 -26    0.02    0.64
   7   3 -26    0.40    0.61
  -3  -7  26   -0.39    0.47
   7  -3  26    0.45    0.55
  -7   3  26    1.20    0.57
  -3  -7  26    0.53    0.53
   7   3 -26    0.59    0.56
  -7   5 -26    0.34    0.57
  -7  -5  26    0.65    0.57
   5  -7  26    0.98    0.62
  -5   7  26    1.27    0.61
   5   7 -26    0.27    0.69
   7  -5 -26    1.96    0.70
   7  -5  26    1.13    0.65
  -5   7 -26   -0.41    0.55
   5  -7 -26    0.66    0.69
  -7  -5 -26    1.78    0.56
  -5  -7  26    0.41    0.55
   7   5 -26   -0.22    0.66
  -7   5  26    0.54    0.57
  -7   7 -26    0.93    0.65
  -7  -7  26   -0.26    0.56
   0  -8  26   -0.44    0.52
   8   0 -26   -0.11    0.57
  -8   0 -26   -0.47    0.53
   8   0 -26   -0.82    0.53
   0   8  26   -0.14    0.49
   0  -8 -26    0.49    0.63
   8   0  26   -0.44    0.53
   0   8 -26    0.44    0.56
  -8   0  26    0.30    0.56
  -2   8  26    0.69    0.54
   8   2  26    1.56    0.61
  -8  -2  26    0.42    0.60
  -8   2 -26    0.62    0.53
   8  -2 -26   -0.73    0.60
   2   8 -26    1.14    0.63
  -2  -8 -26   -0.05    0.56
   2  -8  26    0.20    0.58
   2   8  26    1.10    0.53
  -2  -8  26   -0.01    0.54
  -2   8 -26    0.77    0.57
   2  -8 -26    1.44    0.68
   8   2 -26    0.30    0.64
  -8   2  26    0.18    0.55
   8  -2  26    0.86    0.59
   8   2 -26    1.30    0.59
  -8  -2 -26    0.87    0.55
   8  -4 -26   -0.56    0.61
   4   8 -26    0.38    0.71
   4  -8  26    0.02    0.56
  -8  -4  26   -0.27    0.57
  -4   8  26    1.21    0.59
  -8   4 -26    0.42    0.57
  -8  -4 -26   -0.55    0.48
  -4   8 -26    1.46    0.59
   8   4 -26    0.14    0.69
  -4  -8  26    0.09    0.54
   4  -8 -26   -0.07    0.63
   8  -4  26   -0.05    0.60
  -8   4  26    0.18    0.57
  -6  -8  26    0.07    0.54
  -6   8 -26    1.16    0.60
  -8  -6 -26    0.18    0.49
  -1   9  26    4.84    0.69
  -9   1 -26    4.97    0.77
   1  -9  26    4.62    0.75
  -1  -9 -26    5.23    0.79
   9  -1 -26    3.56    0.74
   9   1  26    5.58    0.75
  -9  -1  26    4.23    0.77
   1   9 -26    4.58    0.76
   1  -9 -26    5.21    0.79
  -1  -9  26    5.71    0.75
   1   9  26    6.20    0.85
   9  -1  26    6.23    0.80
  -9  -1 -26    4.94    0.71
   9   1 -26    5.12    0.80
  -9   1  26    5.40    0.81
  -1   9 -26    3.23    0.67
  -9   3 -26    2.24    0.73
  -3   9  26    2.07    0.63
   3  -9  26    1.65    0.64
   9  -3 -26    0.84    0.65
   3   9 -26    3.02    0.81
  -9  -3  26    2.05    0.71
   3   9  26    1.89    0.60
  -3   9 -26    1.91    0.65
   3  -9 -26    2.30    0.73
  -9  -3 -26    2.04    0.62
   9  -3  26    2.29    0.70
   9   3 -26    2.27    0.73
  -9  -5 -26    4.51    0.71
  -5  -9  26    4.86    0.76
   0 -10  26    1.63    0.66
   0 -10 -26    1.59    0.67
  10   0  26    2.66    0.68
   0  10  26    2.43    0.67
   2 -10  26   -0.02    0.58
  10  -2 -26   -0.84    0.60
  10  -2  26   -0.50    0.58
   2  10  26   -0.31    0.52
  10   2 -26   -0.22    0.59
   2 -10 -26   -0.22    0.66
  -1   0 -27   -0.12    0.45
   1   0 -27   -0.75    0.43
  -1   0  27    0.37    0.52
   0   1  27   -0.61    0.38
   0   1  27    0.02    0.55
   0  -1  27   -0.11    0.50
   1   0  27   -0.38    0.54
   0   1 -27    0.43    0.47
   0  -1 -27    0.60    0.46
  -1   0  27    0.25    0.42
  -1   2  27   18.67    0.97
  -2  -1  27   18.49    1.02
   1  -2  27   18.54    1.14
  -1  -2 -27   18.64    1.01
  -1   2  27   18.28    1.15
  -2  -1  27   17.58    1.02
  -2   1 -27   18.55    1.07
   2  -1 -27   17.52    0.99
   2   1  27   17.76    1.15
   1   2 -27   17.09    1.05
  -1   2 -27   17.78    1.07
   1  -2 -27   19.00    0.97
  -2   1  27   17.13    1.12
  -2   1  27   16.21    0.97
   2  -1  27   18.57    1.06
  -2  -1 -27   17.39    1.02
  -1  -2  27   15.04    1.07
  -1  -2  27   17.45    0.97
   2   1 -27   19.97    1.08
   1   2  27   18.34    1.15
   3   0  27    0.32    0.56
  -3   0 -27    0.78    0.52
   0   3  27   -0.79    0.50
   0  -3  27   -1.50    0.49
  -3   0  27   -0.11    0.53
   0   3  27    0.33    0.42
   3   0 -27    0.30    0.46
   0  -3 -27   -0.14    0.41
  -3   0  27   -0.20    0.44
   0   3 -27    0.46    0.49
   2  -3  27    7.88    0.97
   3  -2 -27    8.34    0.85
  -3  -2  27    9.07    0.84
   2   3 -27    8.24    0.95
  -2  -3 -27    7.80    0.83
  -3   2 -27    8.44    0.92
   3  -2 -27    8.03    1.02
   3   2  27    8.84    0.97
  -3  -2  27    9.71    0.93
  -2   3  27    7.88    0.83
   2  -3 -27    7.82    1.03
   2   3  27    8.82    0.98
  -2   3 -27    9.05    0.94
  -2  -3  27    9.28    0.87
   3   2 -27    9.00    0.93
  -3  -2 -27    7.66    0.82
  -2  -3  27    7.80    0.92
   3  -2  27   10.56    1.02
  -3   2  27    8.46    0.90
   4   1  27   -0.19    0.56
  -4   1 -27   -0.38    0.49
   1  -4  27    0.66    0.58
  -4  -1  27   -0.34    0.48
   1   4 -27    0.46    0.55
  -4  -1  27    0.35    0.54
  -1   4  27    0.61    0.44
   4  -1 -27    0.45    0.57
   4  -1 -27   -0.10    0.47
  -1  -4  27    0.53    0.55
  -4  -1 -27   -0.02    0.46
  -4   1  27    1.07    0.53
  -1   4 -27    0.69    0.52
   1   4  27    0.49    0.60
   4   1 -27    0.38    0.51
   1   4  27    0.57    0.44
   4  -1  27   -0.16    0.56
   1  -4 -27    0.58    0.62
   4  -3 -27    1.54    0.65
  -4   3 -27    0.92    0.55
  -3   4  27    0.63    0.49
   3  -4  27    0.78    0.58
  -4  -3  27    0.79    0.52
   4   3  27    0.74    0.57
  -3  -4 -27    1.05    0.47
  -4  -3  27    1.48    0.54
   3   4 -27   -0.04    0.53
   4   3 -27    0.98    0.57
  -3   4 -27    0.39    0.54
  -4   3  27    0.91    0.53
  -4  -3 -27    0.62    0.48
  -3  -4  27    0.88    0.56
   4  -3  27    1.10    0.53
   3  -4 -27    1.40    0.64
   3   4  27    1.22    0.63
  -3  -4  27    1.15    0.50
   0  -5 -27   -0.17    0.57
   0   5 -27    0.67    0.54
   0   5  27    0.41    0.45
   5   0 -27    0.64    0.54
   5   0  27    0.50    0.57
  -5   0  27    0.18    0.52
  -5   0 -27    0.14    0.50
   5   0 -27    0.04    0.55
   0  -5  27    0.08    0.57
  -2  -5 -27   17.35    1.17
  -2   5  27   14.39    0.98
   5   2  27   17.38    1.15
   2  -5  27   12.45    1.06
   2   5 -27   16.34    1.15
  -5  -2  27   13.99    1.04
  -5  -2  27   14.88    1.05
   5  -2 -27   16.69    1.19
  -5   2 -27   16.31    1.10
  -2   5 -27   17.19    1.10
   5  -2  27   16.40    1.13
   2  -5 -27   14.42    1.18
   5   2 -27   11.84    1.07
  -5  -2 -27   16.39    1.08
  -2  -5  27   15.18    1.12
   5   2 -27   15.43    1.09
  -5   2  27   16.11    1.06
   4   5 -27    1.03    0.66
   5   4  27   -0.02    0.55
  -5   4 -27    0.58    0.58
  -5  -4  27    0.27    0.51
  -4   5  27    0.66    0.51
   4  -5  27    1.44    0.63
   5  -4 -27   -0.22    0.55
  -4  -5 -27    0.42    0.47
  -5  -4  27    0.43    0.52
  -4  -5  27    0.58    0.52
  -5  -4 -27   -0.19    0.44
  -4  -5  27    0.22    0.48
  -5   4  27    0.33    0.54
   5   4 -27   -0.67    0.59
   4  -5 -27   -0.18    0.62
  -4   5 -27    0.50    0.55
   5  -4  27   -0.11    0.57
   4   5  27    0.79    0.60
   6  -1 -27    9.57    1.00
   6  -1 -27    7.98    1.04
   6   1  27    7.05    0.87
  -1  -6 -27    8.32    1.04
  -1   6  27    8.84    0.93
  -6  -1  27    8.54    0.95
   1  -6  27    9.67    0.99
   1   6 -27   10.54    1.04
  -6   1 -27    8.41    0.95
  -6   1  27   10.50    1.02
  -6  -1 -27    9.75    0.96
   6   1 -27    8.12    1.00
   6   1 -27    9.34    1.08
  -1  -6  27    9.20    0.97
   6  -1  27    9.24    1.01
   1  -6 -27    8.06    1.07
  -1   6 -27    9.32    0.99
   1   6  27    8.73    0.87
  -6  -3  27    9.11    1.01
   6   3  27    9.18    1.02
  -6   3 -27    8.13    0.99
   3   6 -27   10.49    1.06
   6  -3 -27   10.63    1.11
  -3  -6 -27    8.17    0.98
   3  -6  27    6.44    0.81
  -3   6  27    8.97    0.94
  -6   3  27    8.62    0.96
   6  -3  27    7.16    0.98
  -3   6 -27    9.10    1.01
   3  -6 -27    9.65    1.13
  -3  -6  27    9.62    0.93
   6   3 -27    8.07    1.05
   6   3 -27    8.39    0.96
  -6  -3 -27   10.43    0.94
  -3  -6  27    8.64    0.98
  -6   5 -27   16.15    1.17
  -6  -5  27   17.59    1.17
   5  -6  27   15.77    1.18
   5   6 -27   16.23    1.30
   6  -5 -27   15.97    1.27
  -5  -6 -27   15.29    1.13
  -5   6  27   17.31    1.15
  -5   6 -27   17.17    1.19
   5  -6 -27   13.87    1.23
   6  -5  27   16.81    1.20
   6   5 -27   17.67    1.28
  -6   5  27   15.90    1.15
  -5  -6  27   17.77    1.12
  -6  -5 -27   18.42    1.08
   0   7  27   -0.65    0.44
   0   7 -27   -0.28    0.50
  -7   0  27    0.28    0.56
   0  -7 -27    0.01    0.61
   7   0  27    0.14    0.57
   0  -7  27   -0.07    0.56
   7   0 -27   -0.26    0.57
  -7   0 -27    0.69    0.57
   7   0 -27    0.12    0.60
   2   7 -27    2.18    0.69
   7  -2 -27    2.63    0.73
  -2   7  27    2.98    0.63
  -7   2 -27    2.40    0.63
  -2  -7 -27    3.91    0.74
  -7  -2  27    2.58    0.68
   2  -7  27    2.74    0.68
   7   2  27    2.83    0.70
   2  -7 -27    2.41    0.74
   7   2 -27    2.43    0.73
  -2  -7  27    2.60    0.65
  -7   2  27    1.70    0.60
  -2   7 -27    2.92    0.69
   7  -2  27    3.38    0.71
   7   2 -27    3.46    0.67
   2   7  27    2.31    0.56
  -7  -2 -27    2.80    0.66
   4   7 -27   -0.90    0.64
  -7   4 -27   -0.67    0.58
  -4   7  27    0.60    0.56
   7  -4 -27    0.80    0.67
  -4  -7 -27   -0.52    0.54
  -7  -4  27    0.61    0.57
   4  -7  27   -0.13    0.56
  -7  -4 -27    1.22    0.56
   7   4 -27   -0.04    0.67
  -4   7 -27    0.70    0.59
   4  -7 -27    0.80    0.65
  -7   4  27    0.11    0.54
   7  -4  27    0.85    0.62
  -4  -7  27   -0.28    0.51
  -7  -6  27    0.31    0.60
  -6  -7  27    1.20    0.57
   8  -1 -27    3.51    0.74
   1  -8  27    3.15    0.68
   1   8 -27    2.54    0.68
  -1   8  27    1.91    0.61
   8   1  27    2.90    0.71
  -8   1 -27    2.59    0.68
  -1  -8 -27    2.73    0.71
  -8  -1  27    1.01    0.62
  -8   1  27    1.71    0.63
   8   1 -27    1.94    0.69
   8   1 -27    2.49    0.69
  -1  -8  27    2.91    0.66
  -1   8 -27    3.13    0.68
   8  -1  27    2.18    0.68
   1   8  27    3.60    0.63
  -8  -1 -27    1.41    0.59
   1  -8 -27    1.92    0.71
   3  -8  27    1.48    0.65
   3   8 -27    0.47    0.69
  -8  -3  27    1.70    0.65
  -8   3 -27    1.67    0.60
   8  -3 -27    2.67    0.76
  -3  -8 -27    0.34    0.60
  -3   8  27    2.58    0.64
   3  -8 -27    1.00    0.68
   8  -3  27    0.81    0.61
  -8   3  27    0.71    0.63
  -3   8 -27    1.85    0.63
   8   3 -27    0.85    0.70
  -8  -3 -27    1.65    0.61
  -5  -8  27    1.12    0.58
  -8  -5 -27   -0.73    0.48
   0  -9  27    0.26    0.60
   9   0  27   -0.30    0.55
   0  -9 -27   -0.89    0.59
   0   9 -27    1.14    0.70
   9   0 -27   -0.62    0.58
   0   9  27   -0.20    0.54
   2  -9  27   13.37    1.11
  -2  -9 -27    9.39    1.11
   9  -2 -27   13.29    1.17
   9   2 -27   11.62    1.13
   2  -9 -27   13.65    1.23
   9  -2  27   11.58    1.13
   2   9  27    9.66    1.02
  10  -1 -27   10.98    1.11
  10   1 -27   10.32    1.23
   0   0  28    0.02    0.54
   0   0 -28    0.19    0.45
   1   1  28    1.17    0.58
   1  -1 -28   -0.05    0.46
  -1   1  28   -0.21    0.41
  -1  -1  28   -0.60    0.42
  -1  -1  28   -0.19    0.47
  -1   1 -28   -0.10    0.48
   1  -1  28   -0.10    0.56
  -1  -1 -28    0.65    0.49
  -1   1  28    0.60    0.59
   1   1 -28    0.10    0.48
   0  -2 -28    1.03    0.48
   2   0 -28    1.80    0.55
   2   0  28    1.57    0.61
   0   2  28    1.07    0.45
  -2   0  28    0.88    0.47
   0   2 -28    0.80    0.54
  -2   0 -28    1.16    0.55
   0  -2  28    0.22    0.58
   0   2  28    0.61    0.60
  -2   0  28    0.79    0.58
   2  -2 -28   36.75    1.38
   2   2 -28   39.80    1.52
  -2  -2 -28   40.81    1.44
  -2   2  28   39.47    1.43
   2   2  28   36.49    1.53
  -2  -2  28   38.92    1.41
  -2   2 -28   37.83    1.49
  -2  -2  28   38.25    1.50
   2  -2 -28   37.64    1.57
   2  -2  28   38.73    1.55
  -3  -1  28    0.44    0.50
   1  -3  28    1.09    0.54
  -1   3  28    0.39    0.46
   3  -1 -28    0.00    0.56
  -3   1 -28    0.14    0.52
  -1  -3 -28    0.69    0.47
   3  -1 -28    0.51    0.49
   3   1  28    0.32    0.54
   1   3 -28    0.99    0.58
  -3  -1  28    0.82    0.57
   1  -3 -28    0.87    0.65
   1   3  28    0.84    0.59
  -1  -3  28    0.79    0.56
  -1   3 -28    1.12    0.53
  -3   1  28    0.27    0.49
   3   1 -28    0.08    0.49
   3  -1  28   -0.31    0.56
  -3  -1 -28    0.59    0.50
   3   3 -28    1.20    0.57
  -3  -3 -28   -0.52    0.43
  -3  -3  28   -0.24    0.46
   3   3  28   -0.31    0.54
  -3   3 -28    0.65    0.55
  -3  -3  28   -0.13    0.53
   3  -3 -28   -0.19    0.55
  -3   3  28   -0.08    0.48
   3  -3  28   -0.52    0.54
   0   4  28    0.78    0.47
  -4   0  28    0.22    0.48
   4   0 -28    0.75    0.60
   0  -4 -28    0.68    0.63
  -4   0 -28    0.54    0.54
   4   0 -28    0.35    0.52
   0  -4  28   -0.38    0.54
   0   4 -28    0.12    0.54
   4   0  28    0.31    0.59
  -4  -2  28    0.72    0.56
   2   4 -28    1.28    0.60
   4  -2 -28    1.26    0.67
  -4  -2  28    0.79    0.51
  -2   4  28    1.09    0.50
  -2  -4 -28    1.29    0.49
   4   2  28    0.36    0.58
   2  -4  28    1.01    0.62
  -4   2 -28   -0.41    0.50
   4  -2  28    1.19    0.59
   4   2 -28    0.55    0.56
   2   4  28    0.23    0.60
   2  -4 -28    1.49    0.69
  -2   4 -28    0.80    0.56
  -4   2  28    0.26    0.51
  -2  -4  28    0.28    0.55
  -4  -2 -28    0.82    0.53
  -4  -4  28    0.17    0.52
   4   4 -28   -0.47    0.60
  -4   4 -28   -0.22    0.55
   4   4  28    0.63    0.59
  -4   4  28   -0.02    0.50
   4  -4 -28   -0.86    0.56
   4  -4  28    1.51    0.64
  -4  -4  28   -0.43    0.50
  -4  -4 -28   -0.25    0.42
  -1  -5 -28   -0.37    0.58
   5  -1 -28   -0.51    0.54
  -5   1 -28    1.01    0.59
  -5  -1  28    1.18    0.56
   5   1  28    0.23    0.60
   5  -1 -28    0.43    0.63
   1   5 -28    0.74    0.59
   1  -5  28    0.44    0.60
  -1   5  28    0.02    0.48
   1   5  28    0.32    0.46
  -1   5 -28    1.16    0.56
   1  -5 -28    1.08    0.66
  -1  -5  28    1.26    0.61
   5   1 -28    1.20    0.61
  -5  -1 -28    2.03    0.57
   5   1 -28    1.30    0.62
   5  -1  28    0.97    0.61
  -5   1  28    2.11    0.59
   5  -3 -28    2.27    0.71
  -5   3 -28    0.98    0.60
  -5  -3  28    1.54    0.59
   3   5 -28    1.35    0.62
   3  -5  28    1.73    0.64
   5   3  28    1.97    0.66
  -5  -3  28    2.20    0.60
  -3   5  28    0.95    0.51
   5   3 -28    2.49    0.70
  -3   5 -28    1.92    0.64
  -3  -5  28    1.83    0.55
  -3  -5  28    1.70    0.60
   3  -5 -28    2.02    0.72
  -5   3  28    1.41    0.56
   5  -3  28    1.10    0.62
  -5  -3 -28    1.73    0.56
   3   5  28    2.47    0.69
   5  -5  28    0.49    0.60
   5   5 -28   -0.30    0.65
   5  -5 -28   -0.33    0.61
  -5  -5 -28   -0.42    0.47
  -5  -5  28    0.43    0.54
  -5   5  28   -0.65    0.50
   5   5  28   -0.42    0.58
  -5  -5  28    0.25    0.53
  -5   5 -28    0.60    0.59
   0   6 -28    5.13    0.75
   0   6  28    4.34    0.62
   0  -6  28    5.82    0.79
   6   0 -28    4.81    0.75
   6   0 -28    5.30    0.74
   6   0  28    6.91    0.85
  -6   0  28    8.70    0.97
   0  -6 -28    5.25    0.81
  -6   0 -28    5.27    0.71
  -6  -2  28   21.87    1.24
  -6   2 -28   22.60    1.28
   6  -2 -28   22.76    1.33
  -2   6  28   22.74    1.18
   6   2  28   20.92    1.34
  -2  -6 -28   21.00    1.30
   2   6 -28   22.01    1.32
   2  -6  28   24.48    1.30
  -6  -2 -28   21.72    1.22
  -6   2  28   21.55    1.23
   2  -6 -28   21.25    1.35
   6   2 -28   25.03    1.29
   6   2 -28   21.12    1.36
  -2   6 -28   19.92    1.23
  -2  -6  28   24.76    1.27
   6  -2  28   22.62    1.30
  -6  -4  28    6.66    0.81
   6  -4 -28    6.29    0.86
   6   4  28    6.83    0.97
  -4  -6 -28    6.64    0.82
  -4   6  28    6.52    0.94
  -6   4 -28    5.64    0.79
   4   6 -28    6.33    0.91
   4  -6  28    5.43    0.78
  -6   4  28    4.28    0.73
   6   4 -28    5.77    0.85
  -4  -6  28    4.44    0.72
  -6  -4 -28    5.49    0.73
   6   4 -28    7.41    0.93
   6  -4  28    5.74    0.83
  -4  -6  28    7.00    0.94
  -4   6 -28    5.25    0.76
   4  -6 -28    6.09    0.89
  -6  -6  28   40.52    1.64
   1  -7  28    1.29    0.64
  -1   7  28    1.04    0.54
  -7   1 -28    0.86    0.60
  -1  -7 -28    1.16    0.68
   1   7 -28    0.42    0.61
   7  -1 -28   -0.03    0.60
   7   1  28    1.15    0.66
  -7  -1  28    0.70    0.57
  -7   1  28    1.08    0.60
   7  -1  28    0.55    0.59
  -7  -1 -28    0.34    0.58
   7   1 -28    0.55    0.66
  -1   7 -28    1.22    0.60
   1   7  28    0.36    0.48
   7   1 -28    1.29    0.63
   1  -7 -28    0.17    0.66
  -1  -7  28    1.38    0.61
  -7  -3  28    1.01    0.61
  -3  -7 -28   -0.29    0.56
   7   3  28    0.25    0.61
   7  -3 -28    0.59    0.69
   3   7 -28   -0.48    0.62
  -7   3 -28   -0.28    0.55
  -3   7  28    1.46    0.60
   3  -7  28    0.39    0.60
   7   3 -28   -0.11    0.67
   7  -3  28   -0.14    0.64
   3  -7 -28   -0.43    0.66
  -3  -7  28    0.60    0.59
  -7   3  28    1.22    0.60
   7   3 -28    0.53    0.64
  -7  -3 -28    0.42    0.54
  -3   7 -28    0.73    0.58
  -7  -5 -28    2.56    0.63
  -5  -7  28    2.47    0.65
  -8   0 -28    0.09    0.63
  -8   0  28   -0.98    0.60
   8   0 -28   -0.08    0.61
   0   8 -28    0.89    0.68
   0  -8 -28    0.98    0.67
   0   8  28   -0.12    0.47
   0  -8  28   -0.22    0.58
   8   0  28   -0.03    0.60
   2  -8  28    0.36    0.59
  -2  -8 -28   -0.19    0.60
  -2   8  28    1.15    0.56
   8   2  28    1.00    0.66
   8  -2 -28    0.82    0.68
   2  -8 -28    0.47    0.67
  -8  -2 -28    1.42    0.62
  -2  -8  28   -0.70    0.57
   8  -2  28    0.47    0.62
   8   2 -28    0.00    0.63
   2   8  28    0.47    0.51
   9  -1 -28    1.39    0.69
  -1  -9 -28    1.84    0.71
   9   1  28    2.52    0.72
   1   9  28    2.80    0.63
  -1  -9  28    1.11    0.67
   9   1 -28    0.76    0.69
  -1   0  29    1.02    0.60
   1   0  29    0.34    0.58
   0   1 -29    0.30    0.51
  -1   0 -29    0.09    0.52
   0  -1 -29    0.29    0.48
   0   1  29   -0.58    0.56
   1   0 -29   -0.08    0.47
  -1   0  29    0.08    0.43
   0  -1  29   -0.09    0.51
  -1   2  29    2.86    0.55
  -2   1 -29    1.57    0.58
   2   1  29    1.56    0.65
  -2  -1  29    1.59    0.52
   1  -2  29    2.86    0.71
  -1   2  29    2.02    0.64
   2  -1 -29    1.70    0.54
   1   2 -29    2.43    0.61
  -1  -2 -29    1.54    0.54
  -2  -1  29    1.24    0.54
   2   1 -29    1.46    0.59
  -2   1  29    2.01    0.64
   1  -2 -29    2.52    0.56
   1   2  29    2.27    0.68
   2  -1  29    0.26    0.63
  -2   1  29    1.00    0.50
  -1   2 -29    2.71    0.63
  -2  -1 -29    2.46    0.59
  -1  -2  29    2.35    0.64
   3   0 -29   -0.20    0.49
   0  -3  29   -0.53    0.50
   0   3  29    0.08    0.43
  -3   0  29    0.43    0.48
   0  -3 -29    0.16    0.45
   3   0  29    0.91    0.62
   0   3 -29    0.11    0.53
   0   3  29   -0.55    0.58
  -3   0  29   -0.09    0.56
  -3   0 -29   -0.09    0.52
  -3  -2  29    0.98    0.54
  -3  -2  29    1.25    0.59
   3  -2 -29    1.32    0.67
   2  -3  29    1.20    0.66
  -2  -3 -29    0.41    0.48
   2   3 -29    0.62    0.57
  -2   3  29    1.42    0.53
  -3   2 -29    1.18    0.59
   3   2  29    0.17    0.59
   3  -2  29    1.56    0.65
   2  -3 -29    1.18    0.65
  -3  -2 -29    1.77    0.56
  -2  -3  29    1.47    0.61
  -3   2  29    0.64    0.51
   2   3  29    1.37    0.64
  -2   3 -29    0.50    0.57
   3   2 -29    1.02    0.58
  -4  -1  29   -0.20    0.50
   1   4 -29    0.40    0.59
  -1  -4 -29   -0.04    0.63
   4   1  29    0.39    0.59
   4  -1 -29    0.17    0.50
  -4  -1  29   -0.78    0.54
   4  -1 -29   -1.02    0.59
  -4   1 -29   -0.13    0.54
   1  -4  29   -0.25    0.55
  -1   4  29   -0.04    0.46
   4  -1  29    0.65    0.59
  -1   4 -29    0.11    0.51
  -4   1  29   -0.32    0.48
  -1  -4  29   -0.16    0.57
  -4  -1 -29    0.28    0.52
   1  -4 -29   -0.12    0.56
   4   1 -29    0.18    0.60
   4   1 -29    0.31    0.55
   1   4  29   -0.16    0.61
  -3   4  29    0.17    0.49
  -4  -3  29   -0.17    0.50
   3  -4  29   -0.53    0.59
  -3  -4 -29   -0.38    0.44
   4   3  29   -0.28    0.56
   3   4 -29    0.02    0.57
   4  -3 -29    0.27    0.67
  -4   3 -29   -0.18    0.54
  -4  -3  29   -0.20    0.57
  -3   4 -29   -0.03    0.55
   4  -3  29    0.06    0.60
   3  -4 -29   -0.85    0.62
  -4  -3 -29   -0.22    0.50
  -4   3  29    0.09    0.51
   4   3 -29   -0.91    0.53
  -3  -4  29    0.00    0.54
  -3  -4  29   -0.22    0.48
   3   4  29   -0.11    0.59
   5   0 -29    0.67    0.62
   5   0  29    0.51    0.64
   5   0 -29    0.39    0.57
   0   5 -29    0.61    0.59
   0  -5 -29   -1.47    0.56
  -5   0 -29    0.02    0.54
   0  -5  29    0.33    0.60
  -5   0  29    0.26    0.54
   0   5  29   -0.36    0.47
   2   5 -29    0.85    0.62
   5   2  29    0.29    0.62
   2  -5  29   -0.18    0.57
   5  -2 -29    0.37    0.64
  -5   2 -29    0.24    0.58
  -2  -5 -29   -0.02    0.63
  -5  -2  29    0.98    0.55
  -2   5  29    0.84    0.55
   2  -5 -29    0.94    0.69
   5   2 -29   -0.49    0.60
  -5   2  29    0.38    0.58
   5  -2  29    0.92    0.61
  -5  -2 -29    0.35    0.54
  -2  -5  29    0.15    0.59
  -2   5 -29    1.29    0.57
   5   2 -29    0.29    0.60
   5   4  29    0.57    0.59
   4   5 -29    0.79    0.68
  -5  -4  29   -0.40    0.51
  -4   5  29   -0.21    0.53
   5  -4 -29    0.73    0.68
   4  -5  29    1.60    0.67
  -5  -4  29   -0.08    0.54
  -5   4 -29    0.19    0.57
   5  -4  29    0.43    0.56
  -5   4  29   -0.11    0.53
  -4  -5  29   -0.76    0.47
   4   5  29    0.44    0.63
  -4   5 -29    0.17    0.56
   5   4 -29   -0.57    0.64
  -5  -4 -29   -0.54    0.46
   4  -5 -29    1.65    0.72
  -4  -5  29    0.28    0.55
  -1  -6 -29    0.14    0.62
  -6   1 -29    0.75    0.58
   6   1  29   -0.56    0.62
  -6  -1  29   -0.01    0.55
   6  -1 -29    0.50    0.62
   1  -6  29    0.54    0.60
  -1   6  29   -0.34    0.50
   1   6 -29    0.39    0.55
  -6   1  29   -0.67    0.53
  -6  -1 -29    0.04    0.55
   1  -6 -29    0.49    0.65
   6  -1  29   -0.11    0.63
   6   1 -29    0.13    0.58
   6   1 -29   -1.03    0.55
  -1  -6  29   -0.33    0.58
   1   6  29    0.46    0.52
  -1   6 -29    0.92    0.60
  -6  -3  29    2.38    0.66
  -3   6  29    2.87    0.65
  -3  -6 -29    1.58    0.66
   3  -6  29    2.87    0.70
  -6   3 -29    1.47    0.62
   3   6 -29    2.88    0.74
   6   3  29    2.89    0.73
   6  -3 -29    2.80    0.74
  -6   3  29    3.48    0.71
   6   3 -29    1.10    0.70
  -3  -6  29    2.12    0.64
  -6  -3 -29    1.28    0.61
   3  -6 -29    2.15    0.76
   6  -3  29    1.29    0.66
   6   3 -29    1.79    0.66
  -3   6 -29    1.68    0.59
  -6  -5  29    1.63    0.64
  -6  -5 -29    1.85    0.58
  -5  -6  29    1.72    0.63
   0  -7 -29   -0.27    0.63
   0  -7  29   -1.14    0.57
  -7   0 -29   -0.23    0.58
   0   7  29    0.24    0.50
  -7   0  29   -0.38    0.57
   7   0  29    0.27    0.64
   7   0 -29   -0.57    0.58
   2  -7  29    2.44    0.69
   7   2  29    3.53    0.76
  -7  -2  29    2.25    0.69
   7  -2 -29    2.86    0.75
  -2   7  29    2.59    0.66
  -2  -7 -29    2.39    0.69
  -2  -7  29    3.52    0.73
  -7  -2 -29    2.55    0.67
   2  -7 -29    2.64    0.81
   7   2 -29    2.05    0.76
   7   2 -29    2.06    0.66
   7  -2  29    2.17    0.72
  -7  -4 -29   -0.79    0.50
   8  -1 -29   -0.36    0.67
  -1  -8 -29   -0.36    0.61
   8   1  29    0.83    0.66
  -1  -8  29   -0.22    0.62
   8   1 -29   -0.96    0.62
   8   1 -29   -0.12    0.60
   1   8  29   -0.15    0.52
   0   0 -30    0.85    0.53
   0   0  30   -1.34    0.54
  -1   1 -30   18.55    1.13
   1   1 -30   19.96    1.15
   1  -1 -30   20.06    1.10
  -1  -1  30   18.63    1.22
   1   1  30   19.24    1.16
  -1   1  30   18.34    1.27
  -1  -1 -30   20.03    1.19
   1  -1  30   14.86    1.20
  -1   1  30   19.43    1.03
   2   0 -30    3.81    0.64
  -2   0 -30    4.43    0.69
   0  -2 -30    1.85    0.57
  -2   0  30    2.99    0.72
   0   2  30    1.81    0.65
   0   2 -30    3.09    0.65
  -2   0  30    3.10    0.60
   2   0  30    3.01    0.74
   0  -2  30    3.38    0.70
  -2   2  30   -0.30    0.45
   2  -2  30   -0.99    0.56
   2  -2 -30    0.12    0.64
  -2  -2 -30    0.31    0.50
  -2   2 -30   -0.39    0.52
   2   2  30    2.03    0.67
   2   2 -30   -0.39    0.53
  -2  -2  30    0.26    0.58
  -3  -1  30   13.23    1.01
  -1   3  30   10.64    0.94
   1   3 -30   10.99    1.06
   3  -1 -30   11.24    1.13
   3  -1 -30   10.49    1.00
   3   1  30   11.77    1.12
   1  -3  30   11.56    1.01
  -1  -3 -30   10.99    0.92
  -3  -1  30   12.91    1.08
  -3   1 -30   12.45    1.06
   3  -1  30   10.49    1.13
  -1   3 -30   10.31    1.02
   1  -3 -30   12.82    1.19
  -1  -3  30   11.15    1.08
  -3  -1 -30   12.51    1.09
   3   1 -30   12.85    1.06
  -3   1  30   10.91    0.96
   1   3  30   12.87    1.15
   3   3  30   10.65    1.12
  -3   3  30    7.79    0.92
  -3   3 -30   10.11    1.11
   3   3 -30    9.21    1.05
  -3  -3  30    9.87    0.99
   3  -3 -30    8.47    1.14
  -3  -3 -30    8.73    0.98
  -3  -3  30    9.19    0.89
   3  -3  30   10.98    1.12
   0  -4 -30    1.10    0.65
   4   0 -30    0.32    0.63
   0  -4  30    0.10    0.58
  -4   0 -30   -0.26    0.54
   0   4 -30    0.88    0.59
  -4   0  30    0.22    0.53
   0   4  30   -0.41    0.47
   4   0  30    0.46    0.62
   4   0 -30   -0.31    0.50
   4  -2 -30   -0.57    0.65
   4   2  30    0.17    0.59
   2  -4  30    0.04    0.61
  -4  -2  30   -0.49    0.52
   2   4 -30    0.86    0.60
  -4   2 -30    0.80    0.59
  -2   4  30    0.66    0.51
  -4  -2  30   -0.17    0.53
   4   2 -30   -0.38    0.57
   4  -2  30    0.11    0.66
   2   4  30    0.45    0.62
  -4  -2 -30    0.13    0.53
  -2  -4  30    0.48    0.59
  -4   2  30   -0.03    0.54
  -2   4 -30    0.22    0.53
   2  -4 -30    0.27    0.65
   4  -4  30   -0.10    0.63
   4   4  30   -0.26    0.62
  -4  -4 -30    0.46    0.51
   4   4 -30   -1.32    0.58
  -4  -4  30   -0.18    0.53
  -4  -4  30   -0.58    0.49
   4  -4 -30    0.42    0.67
  -4   4 -30    0.86    0.63
  -4   4  30   -0.10    0.53
  -1  -5 -30   12.11    1.19
  -5  -1  30   13.35    1.08
   5   1  30   13.06    1.17
  -1   5  30   11.50    0.96
  -5   1 -30   11.64    1.14
   1  -5  30   12.64    1.14
   1   5 -30   13.15    1.19
   5  -1 -30   12.36    1.17
  -5   1  30   11.38    1.03
  -1  -5  30   12.20    1.13
  -5  -1 -30   11.24    1.04
   1  -5 -30   10.55    1.19
   5   1 -30   12.33    1.18
  -1   5 -30   13.29    1.11
   5  -1  30   13.75    1.21
   5   1 -30   10.91    1.14
   5  -3 -30   11.88    1.20
  -5  -3  30   12.20    1.06
   5   3  30   15.49    1.21
   3   5 -30   11.31    1.14
   3  -5  30   12.81    1.20
  -3   5  30   11.60    1.02
  -3  -5 -30   12.71    1.25
  -5  -3  30   13.32    1.07
  -3  -5  30   14.96    1.10
  -5  -3 -30   14.22    1.09
   5   3 -30   13.15    1.12
   3  -5 -30    9.92    1.27
   3   5  30   12.03    1.17
   5  -3  30   14.64    1.23
  -5   3  30   14.69    1.10
   5   3 -30   11.52    1.25
  -5  -5  30   15.01    1.11
   5   5  30   15.22    1.21
  -5  -5  30   15.72    1.20
   0   6  30    1.70    0.57
  -6   0  30    1.64    0.63
   6   0 -30    1.61    0.68
   0  -6 -30    2.11    0.70
   6   0  30    1.96    0.71
   0  -6  30    2.86    0.72
   6   0 -30    0.42    0.61
  -6   0 -30    1.48    0.62
   6  -2 -30    0.13    0.68
   6   2  30   -0.41    0.62
  -2   6  30    0.30    0.54
  -6  -2  30   -0.05    0.55
  -2  -6 -30    0.22    0.64
  -2  -6  30   -0.32    0.58
  -6   2  30    0.41    0.61
  -6  -2 -30    0.50    0.56
   6   2 -30   -0.23    0.65
   6   2 -30    0.43    0.62
   6   4  30    6.56    0.86
  -4  -6 -30    6.88    0.88
  -6  -4 -30    7.46    0.98
  -4  -6  30    7.26    0.95
  -1   7  30    6.69    0.94
  -1  -7 -30    6.04    0.94
   7   1  30    5.17    0.83
   1   7  30    5.25    0.69
  -1  -7  30    4.96    0.79
   7   1 -30    4.28    0.85
   7   1 -30    4.94    0.77
  -3  -7 -30    5.96    0.84
   7   3  30    5.80    0.85
  -3  -7  30    5.92    0.83
   1   0  31    0.49    0.60
   0  -1  31    0.55    0.58
  -1   0 -31    0.23    0.51
  -1   0  31   -0.10    0.61
   0  -1 -31   -0.23    0.50
   0   1  31    0.39    0.65
   0   1 -31   -0.51    0.53
   1   0 -31    0.42    0.52
   1  -2  31   10.97    1.09
   2  -1 -31    8.66    1.12
   2   1  31    7.01    0.86
  -2  -1  31    8.40    1.07
  -2   1 -31   10.51    1.02
  -1  -2 -31    8.73    0.99
  -1   2  31    9.46    1.12
   2  -1 -31   12.29    1.00
   1   2 -31   11.24    1.13
   1  -2 -31    9.37    1.16
   2  -1  31    7.35    1.05
  -1   2 -31    9.03    1.01
  -2   1  31    8.49    0.90
  -2   1  31   10.55    1.12
   1   2  31    8.06    1.09
  -1  -2  31    9.79    1.07
  -2  -1 -31   11.39    1.01
   2   1 -31    9.56    1.04
   1  -2 -31    9.84    0.95
  -3   0  31   -0.17    0.58
  -3   0 -31    0.09    0.54
  -3   0  31    0.97    0.55
   0  -3  31    0.27    0.63
   0   3  31    0.86    0.68
   3   0  31    0.98    0.65
   3   0 -31    0.63    0.63
   0   3 -31   -0.36    0.55
   0  -3 -31    1.08    0.70
   3   0 -31    0.49    0.53
  -2  -3 -31    7.37    0.97
  -3  -2  31    7.98    0.96
   2  -3  31    8.03    0.94
  -3   2 -31    6.42    0.82
   3  -2 -31    9.61    1.17
   2   3 -31    9.63    1.05
  -2   3  31    6.36    0.86
   3   2  31    7.54    0.91
  -3  -2  31    7.78    1.02
   2   3  31    5.98    0.86
  -3  -2 -31    7.18    1.01
  -3   2  31    6.39    0.90
  -2   3 -31    7.68    1.01
  -2  -3  31    7.84    1.01
   3   2 -31    5.17    0.77
   2  -3 -31    9.99    1.17
   3  -2  31    7.88    1.06
   4   1  31    0.59    0.69
   1  -4  31    0.10    0.60
  -4  -1  31   -0.78    0.50
  -4   1 -31    0.90    0.61
  -1   4  31    0.77    0.52
   1   4 -31    0.46    0.59
  -1  -4 -31    0.42    0.68
   4  -1 -31    1.22    0.69
   4   1 -31    0.47    0.63
  -4   1  31   -0.77    0.52
   4  -1  31   -0.54    0.60
   1  -4 -31   -0.22    0.67
  -1   4 -31   -0.10    0.58
   4   1 -31   -0.44    0.56
  -4  -1 -31    0.60    0.58
  -1  -4  31   -0.57    0.57
  -4  -3  31    1.20    0.55
  -3   4  31    0.11    0.52
   4   3  31    1.21    0.67
  -4  -3  31   -0.10    0.59
   3   4  31    1.44    0.67
  -4  -3 -31    0.77    0.57
  -3  -4  31    0.23    0.58
  -4   3  31    0.50    0.57
   4   3 -31   -0.30    0.62
   0  -5  31   -0.42    0.61
   5   0  31   -0.85    0.64
  -5   0  31   -0.14    0.53
   0   5  31   -0.23    0.55
   5   0 -31   -0.42    0.59
   5   0 -31    0.29    0.61
  -5   0 -31    0.42    0.63
  -5  -2  31    5.81    0.80
  -2   5  31    6.26    0.90
  -2  -5 -31    4.39    0.81
   5   2  31    5.76    0.87
  -5   2  31    4.49    0.76
  -5  -2 -31    5.70    0.76
   5   2 -31    4.38    0.82
   5   2 -31    4.57    0.83
  -2  -5  31    4.73    0.78
  -5  -4  31    0.26    0.60
   5   4  31    0.42    0.66
  -5  -4  31    0.34    0.59
   4   5  31    0.50    0.64
  -5  -4 -31   -0.31    0.54
  -4  -5  31    1.29    0.63
  -1   6  31    6.17    0.90
   6   1 -31    6.05    0.87
   6   3 -31    4.74    0.81
   0   0  32   29.67    1.50
   0   0 -32   31.87    1.42
   1   1  32    0.49    0.69
   1  -1  32    0.63    0.63
   1   1 -32    0.15    0.55
  -1  -1  32   -0.25    0.60
  -1   1  32    0.48    0.67
   1  -1 -32    0.35    0.53
  -1  -1 -32    0.29    0.54
  -1   1 -32    0.51    0.55
   2   0 -32    0.68    0.60
   0  -2 -32    0.14    0.50
   0  -2  32    0.62    0.66
  -2   0  32   -0.49    0.64
   0   2  32    0.33    0.75
  -2   0 -32    0.83    0.60
   0   2 -32    0.31    0.57
  -2  -2  32   -0.41    0.61
  -2   2  32    0.18    0.52
  -2  -2 -32    0.35    0.58
   2   2 -32    0.20    0.57
  -3  -1  32    0.10    0.51
  -3  -1 -32    0.65    0.59
  -3   1  32    1.14    0.56
   3   1 -32    0.42    0.56
  -3   3  32    0.27    0.53
  -3  -3 -32    0.37    0.57
   4   0 -32   18.69    1.20
  -4   0  32   14.28    1.09
  -2   4  32   -0.33    0.49
  -4  -2  32   -0.11    0.55
  -4   2  32   -0.47    0.53
  -4  -2 -32    0.34    0.59
  -1   5  32   -0.42    0.51
   5   1 -32   -0.49    0.63
   0  -1 -33    1.01    0.58
   1   0 -33    0.68    0.61
  -1   0 -33    0.70    0.58
  -1  -2 -33    2.20    0.60
   2  -1 -33    1.58    0.62
   2   1 -33    1.66    0.69
  -2  -1 -33    2.17    0.65
  -3   0  33    0.31    0.54
   3   0 -33    0.58    0.59
  -2   3  33    0.06    0.52
   0   0   0    0.00    0.00
;
#END Tags that were not found in dictionaries
loop_
_symmetry_equiv_pos_as_xyz
'x, y, z'
'-x+1/2, -y, z+1/2'
'-y+1/4, x+3/4, z+1/4'
'y+1/4, -x+1/4, z+3/4'
'-x+1/2, y, -z'
'x, -y, -z+1/2'
'y+1/4, x+3/4, -z+3/4'
'-y+1/4, -x+1/4, -z+1/4'
'x+1/2, y+1/2, z+1/2'
'-x+1, -y+1/2, z+1'
'-y+3/4, x+5/4, z+3/4'
'y+3/4, -x+3/4, z+5/4'
'-x+1, y+1/2, -z+1/2'
'x+1/2, -y+1/2, -z+1'
'y+3/4, x+5/4, -z+5/4'
'-y+3/4, -x+3/4, -z+3/4'
'-x, -y, -z'
'x-1/2, y, -z-1/2'
'y-1/4, -x-3/4, -z-1/4'
'-y-1/4, x-1/4, -z-3/4'
'x-1/2, -y, z'
'-x, y, z-1/2'
'-y-1/4, -x-3/4, z-3/4'
'y-1/4, x-1/4, z-1/4'
'-x+1/2, -y+1/2, -z+1/2'
'x, y+1/2, -z'
'y+1/4, -x-1/4, -z+1/4'
'-y+1/4, x+1/4, -z-1/4'
'x, -y+1/2, z+1/2'
'-x+1/2, y+1/2, z'
'-y+1/4, -x-1/4, z-1/4'
'y+1/4, x+1/4, z+1/4'
loop_
_atom_site_label
_atom_site_type_symbol
_atom_site_fract_x
_atom_site_fract_y
_atom_site_fract_z
_atom_site_U_iso_or_equiv
_atom_site_adp_type
_atom_site_occupancy
_atom_site_symmetry_multiplicity
_atom_site_calc_flag
_atom_site_refinement_flags
Cd1 Cd 0.13951(3) 0.36959(3) 0.052490(16) 0.00855(11) Uani 1 1 d .
Cd2 Cd 0.11169(3) 0.64224(3) 0.072496(15) 0.00840(10) Uani 1 1 d .
Cd3 Cd 0.11879(3) 0.10610(3) 0.062511(16) 0.00902(11) Uani 1 1 d .
As4 As 0.24597(4) 0.25789(5) 0.12315(2) 0.00605(19) Uani 1 1 d .
As5 As 0 0.25 -0.00073(3) 0.0058(2) Uani 1 2 d S
As6 As 0.25 0.51076(7) 0 0.0058(2) Uani 1 2 d S
loop_
_atom_site_aniso_label
_atom_site_aniso_U_11
_atom_site_aniso_U_22
_atom_site_aniso_U_33
_atom_site_aniso_U_23
_atom_site_aniso_U_13
_atom_site_aniso_U_12
Cd1 0.0086(2) 0.0077(2) 0.0094(2) 0.00180(15) -0.00032(15) -0.00164(17)
Cd2 0.0081(2) 0.0086(2) 0.0085(2) 0.00156(16) -0.00137(16) -0.00248(15)
Cd3 0.0092(2) 0.0092(2) 0.00864(19) 0.00036(15) 0.00258(14) 0.00172(19)
As4 0.0061(4) 0.0061(4) 0.0059(5) -0.0007(2) 0.0001(2) -0.0003(2)
As5 0.0061(6) 0.0056(6) 0.0056(6) 0 0 0.0008(3)
As6 0.0061(6) 0.0053(5) 0.0061(6) 0 0.0002(3) 0
loop_
_atom_type_symbol
_atom_type_description
_atom_type_scat_dispersion_real
_atom_type_scat_dispersion_imag
_atom_type_scat_source
As As 0.0499 2.0058 'International Tables Vol C Tables 4.2.6.8 and 6.1.1.4'
Cd Cd -0.8075 1.2024 'International Tables Vol C Tables 4.2.6.8 and 6.1.1.4'
loop_
_geom_angle_atom_site_label_1
_geom_angle_atom_site_label_2
_geom_angle_atom_site_label_3
_geom_angle
_geom_angle_site_symmetry_1
_geom_angle_site_symmetry_3
As6 Cd1 As4 115.84(2) . .
As6 Cd1 As5 118.29(3) . .
As4 Cd1 As5 112.01(2) . .
As6 Cd1 As4 104.76(2) . 15_444
As4 Cd1 As4 97.94(3) . 15_444
As5 Cd1 As4 104.75(2) . 15_444
As6 Cd1 Cd3 120.202(18) . 10_454
As4 Cd1 Cd3 120.05(2) . 10_454
As5 Cd1 Cd3 55.979(13) . 10_454
As4 Cd1 Cd3 49.248(16) 15_444 10_454
As6 Cd1 Cd3 138.98(2) . .
As4 Cd1 Cd3 57.249(16) . .
As5 Cd1 Cd3 55.121(14) . .
As4 Cd1 Cd3 116.134(18) 15_444 .
Cd3 Cd1 Cd3 90.535(15) 10_454 .
As4 Cd2 As4 117.77(2) 30 15_444
As4 Cd2 As5 114.10(2) 30 17_565
As4 Cd2 As5 116.64(2) 15_444 17_565
As4 Cd2 As6 101.90(2) 30 .
As4 Cd2 As6 102.69(3) 15_444 .
As5 Cd2 As6 99.65(3) 17_565 .
As4 Cd2 Cd3 55.831(15) 30 30
As4 Cd2 Cd3 115.75(2) 15_444 30
As5 Cd2 Cd3 122.540(18) 17_565 30
As6 Cd2 Cd3 46.655(12) . 30
As4 Cd2 Cd3 122.45(2) 30 26
As4 Cd2 Cd3 115.91(2) 15_444 26
As5 Cd2 Cd3 53.524(19) 17_565 26
As6 Cd2 Cd3 46.453(13) . 26
Cd3 Cd2 Cd3 83.335(13) 30 26
As6 Cd3 As4 122.90(3) 26_545 8
As6 Cd3 As5 106.66(3) 26_545 .
As4 Cd3 As5 110.08(2) 8 .
As6 Cd3 As4 105.97(3) 26_545 .
As4 Cd3 As4 109.07(3) 8 .
As5 Cd3 As4 99.64(2) . .
As6 Cd3 Cd3 126.132(17) 26_545 8
As4 Cd3 Cd3 59.48(2) 8 8
As5 Cd3 Cd3 123.163(17) . 8
As4 Cd3 Cd3 50.352(18) . 8
As6 Cd3 Cd1 129.077(19) 26_545 10_454
As4 Cd3 Cd1 59.295(19) 8 10_454
As5 Cd3 Cd1 51.302(12) . 10_454
As4 Cd3 Cd1 121.492(19) . 10_454
Cd3 Cd3 Cd1 99.533(13) 8 10_454
As6 Cd3 Cd1 111.41(2) 26_545 .
As4 Cd3 Cd1 125.66(2) 8 .
As5 Cd3 Cd1 50.578(11) . .
As4 Cd3 Cd1 49.349(18) . .
Cd3 Cd3 Cd1 88.245(16) 8 .
Cd1 Cd3 Cd1 88.787(15) 10_454 .
As6 Cd3 Cd2 58.326(16) 26_545 30_545
As4 Cd3 Cd2 128.42(2) 8 30_545
As5 Cd3 Cd2 118.483(15) . 30_545
As4 Cd3 Cd2 48.275(15) . 30_545
Cd3 Cd3 Cd2 79.411(15) 8 30_545
Cd1 Cd3 Cd2 167.021(17) 10_454 30_545
Cd1 Cd3 Cd2 78.263(13) . 30_545
As6 Cd3 Cd2 58.021(19) 26_545 26_545
As4 Cd3 Cd2 131.76(2) 8 26_545
As5 Cd3 Cd2 49.003(16) . 26_545
As4 Cd3 Cd2 116.62(2) . 26_545
Cd3 Cd3 Cd2 166.11(2) 8 26_545
Cd1 Cd3 Cd2 83.406(13) 10_454 26_545
Cd1 Cd3 Cd2 78.206(12) . 26_545
Cd2 Cd3 Cd2 94.655(13) 30_545 26_545
Cd3 As4 Cd2 107.45(3) 8 30_545
Cd3 As4 Cd1 119.82(2) 8 .
Cd2 As4 Cd1 107.95(3) 30_545 .
Cd3 As4 Cd2 108.57(3) 8 15_444
Cd2 As4 Cd2 93.04(2) 30_545 15_444
Cd1 As4 Cd2 116.30(3) . 15_444
Cd3 As4 Cd3 70.17(3) 8 .
Cd2 As4 Cd3 75.89(2) 30_545 .
Cd1 As4 Cd3 73.40(2) . .
Cd2 As4 Cd3 167.49(3) 15_444 .
Cd3 As4 Cd1 71.46(2) 8 15_444
Cd2 As4 Cd1 168.18(2) 30_545 15_444
Cd1 As4 Cd1 82.03(3) . 15_444
Cd2 As4 Cd1 76.53(2) 15_444 15_444
Cd3 As4 Cd1 113.82(2) . 15_444
Cd2 As5 Cd2 94.11(3) 17_565 26_545
Cd2 As5 Cd1 106.460(17) 17_565 10_454
Cd2 As5 Cd1 113.759(16) 26_545 10_454
Cd2 As5 Cd1 113.760(16) 17_565 .
Cd2 As5 Cd1 106.460(17) 26_545 .
Cd1 As5 Cd1 119.52(3) 10_454 .
Cd2 As5 Cd3 169.99(2) 17_565 .
Cd2 As5 Cd3 77.47(2) 26_545 .
Cd1 As5 Cd3 72.719(19) 10_454 .
Cd1 As5 Cd3 74.301(19) . .
Cd2 As5 Cd3 77.47(2) 17_565 10_454
Cd2 As5 Cd3 169.99(2) 26_545 10_454
Cd1 As5 Cd3 74.299(19) 10_454 10_454
Cd1 As5 Cd3 72.719(19) . 10_454
Cd3 As5 Cd3 111.39(3) . 10_454
Cd3 As6 Cd3 124.65(4) 26 30
Cd3 As6 Cd1 106.673(19) 26 .
Cd3 As6 Cd1 110.08(2) 30 .
Cd3 As6 Cd1 110.08(2) 26 5
Cd3 As6 Cd1 106.674(19) 30 5
Cd1 As6 Cd1 94.56(4) . 5
Cd3 As6 Cd2 75.02(2) 26 5
Cd3 As6 Cd2 75.53(3) 30 5
Cd1 As6 Cd2 170.21(3) . 5
Cd1 As6 Cd2 75.949(16) 5 5
Cd3 As6 Cd2 75.52(3) 26 .
Cd3 As6 Cd2 75.02(2) 30 .
Cd1 As6 Cd2 75.950(16) . .
Cd1 As6 Cd2 170.21(3) 5 .
Cd2 As6 Cd2 113.63(3) 5 .
loop_
_geom_bond_atom_site_label_1
_geom_bond_atom_site_label_2
_geom_bond_distance
_geom_bond_site_symmetry_2
Cd1 As6 2.6287(9) .
Cd1 As4 2.6510(9) .
Cd1 As5 2.6870(8) .
Cd1 As4 2.9813(9) 15_444
Cd1 Cd3 3.2875(11) 10_454
Cd1 Cd3 3.3486(11) .
Cd2 As4 2.6509(9) 30
Cd2 As4 2.6540(9) 15_444
Cd2 As5 2.6783(8) 17_565
Cd2 As6 3.0348(9) .
Cd2 Cd3 3.4447(11) 30
Cd2 Cd3 3.4641(11) 26
Cd3 As6 2.5932(8) 26_545
Cd3 As4 2.6268(9) 8
Cd3 As5 2.8535(8) .
Cd3 As4 2.9388(9) .
Cd3 Cd3 3.2094(12) 8
Cd3 Cd1 3.2874(11) 10_454
Cd3 Cd2 3.4447(11) 30_545
Cd3 Cd2 3.4642(11) 26_545
As4 Cd3 2.6269(9) 8
As4 Cd2 2.6509(9) 30_545
As4 Cd2 2.6540(9) 15_444
As4 Cd1 2.9814(9) 15_444
As5 Cd2 2.6783(8) 17_565
As5 Cd2 2.6783(8) 26_545
As5 Cd1 2.6870(8) 10_454
As5 Cd3 2.8536(8) 10_454
As6 Cd3 2.5932(8) 26
As6 Cd3 2.5933(8) 30
As6 Cd1 2.6287(9) 5
As6 Cd2 3.0348(9) 5
