#------------------------------------------------------------------------------
#$Date: 2016-03-23 23:08:28 +0200 (Wed, 23 Mar 2016) $
#$Revision: 179502 $
#$URL: svn://www.crystallography.net/cod/cif/4/33/99/4339994.cif $
#------------------------------------------------------------------------------
#
# This file is available in the Crystallography Open Database (COD),
# http://www.crystallography.net/
#
# All data on this site have been placed in the public domain by the
# contributors.
#
data_4339994
loop_
_publ_author_name
'Richtera, Lukas'
'Jancik, Vojtech'
'Mart\'inez-Otero, Diego'
'Pokluda, Ales'
'Zak, Zdirad'
'Taraba, Jan'
'Touzin, Jiri'
_publ_section_title
;
 Taming the Oxidative Power of SeO3 in 1,4-Dioxane, Isolation of Two New
 Isomers of Mixed-Valence Selenium Oxides, and Two Unprecedented Cyclic
 Esters of Selenic Acid.
;
_journal_issue                   13
_journal_name_full               'Inorganic chemistry'
_journal_page_first              6569
_journal_page_last               6577
_journal_paper_doi               10.1021/ic500137z
_journal_volume                  53
_journal_year                    2014
_chemical_formula_moiety         'Cl16 Se4'
_chemical_formula_sum            'Cl16 Se4'
_chemical_formula_weight         883.04
_chemical_name_systematic
; 
 ? 
;
_space_group_crystal_system      monoclinic
_space_group_IT_number           15
_space_group_name_Hall           '-C 2yc'
_space_group_name_H-M_alt        'C 1 2/c 1'
_symmetry_space_group_name_Hall  '-C 2yc'
_symmetry_space_group_name_H-M   'C 1 2/c 1'
_atom_sites_solution_primary     direct
_atom_sites_solution_secondary   difmap
_audit_creation_method           SHELXL-2013
_cell_angle_alpha                90
_cell_angle_beta                 117.01(3)
_cell_angle_gamma                90
_cell_formula_units_Z            4
_cell_length_a                   16.287(3)
_cell_length_b                   9.765(2)
_cell_length_c                   14.746(3)
_cell_measurement_reflns_used    1876
_cell_measurement_temperature    123(2)
_cell_measurement_theta_max      25.355
_cell_measurement_theta_min      4.31
_cell_volume                     2089.4(9)
_computing_cell_refinement       '1.166 CrysAlis166'
_computing_data_collection       '1.166 CrysAlis166'
_computing_data_reduction        '1.166 CrysAlis166'
_computing_molecular_graphics    'Gretep and POV-Ray'
_computing_publication_material  'Bruker SHELXTL'
_computing_structure_refinement  'SHELXL-2013 (Sheldrick, 2013)'
_computing_structure_solution    'SHELXT (Sheldrick, 2013)'
_diffrn_ambient_temperature      123(2)
_diffrn_measured_fraction_theta_full 0.980
_diffrn_measured_fraction_theta_max 0.981
_diffrn_measurement_device_type  'KM4CCD/SAPPHIRE CCD'
_diffrn_measurement_method       '\w scans'
_diffrn_radiation_type           MoK\a
_diffrn_radiation_wavelength     0.71073
_diffrn_reflns_av_R_equivalents  0.1039
_diffrn_reflns_av_unetI/netI     0.0607
_diffrn_reflns_Laue_measured_fraction_full 0.980
_diffrn_reflns_Laue_measured_fraction_max 0.981
_diffrn_reflns_limit_h_max       19
_diffrn_reflns_limit_h_min       -18
_diffrn_reflns_limit_k_max       8
_diffrn_reflns_limit_k_min       -11
_diffrn_reflns_limit_l_max       17
_diffrn_reflns_limit_l_min       -17
_diffrn_reflns_number            5402
_diffrn_reflns_point_group_measured_fraction_full 0.980
_diffrn_reflns_point_group_measured_fraction_max 0.981
_diffrn_reflns_theta_full        25.242
_diffrn_reflns_theta_max         25.355
_diffrn_reflns_theta_min         4.310
_diffrn_source                   'Sealed tube'
_exptl_absorpt_coefficient_mu    9.053
_exptl_absorpt_correction_T_max  0.23
_exptl_absorpt_correction_T_min  0.09
_exptl_absorpt_correction_type   multi-scan
_exptl_absorpt_process_details   '11.08.00 CrysAlis166'
_exptl_crystal_colour            colourless
_exptl_crystal_density_diffrn    2.807
_exptl_crystal_description       prism
_exptl_crystal_F_000             1632
_exptl_crystal_size_max          0.500
_exptl_crystal_size_mid          0.500
_exptl_crystal_size_min          0.200
_refine_diff_density_max         2.680
_refine_diff_density_min         -1.302
_refine_diff_density_rms         0.296
_refine_ls_extinction_coef       0.00095(17)
_refine_ls_extinction_expression Fc^*^=kFc[1+0.001xFc^2^\l^3^/sin(2\q)]^-1/4^
_refine_ls_extinction_method     SHELXL
_refine_ls_goodness_of_fit_ref   1.148
_refine_ls_hydrogen_treatment    undef
_refine_ls_matrix_type           full
_refine_ls_number_parameters     92
_refine_ls_number_reflns         1876
_refine_ls_number_restraints     0
_refine_ls_restrained_S_all      1.148
_refine_ls_R_factor_all          0.0493
_refine_ls_R_factor_gt           0.0481
_refine_ls_shift/su_max          0.000
_refine_ls_shift/su_mean         0.000
_refine_ls_structure_factor_coef Fsqd
_refine_ls_weighting_details
; 
 w=1/[\s^2^(Fo^2^)+(0.0845P)^2^+14.4616P] 
 where P=(Fo^2^+2Fc^2^)/3 
;
_refine_ls_weighting_scheme      calc
_refine_ls_wR_factor_gt          0.1367
_refine_ls_wR_factor_ref         0.1379
_reflns_Friedel_coverage         0.000
_reflns_number_gt                1789
_reflns_number_total             1876
_reflns_threshold_expression     'I > 2\s(I)'
_cod_data_source_file            ic500137z_si_002.cif
_cod_data_source_block           SeCl4
_cod_depositor_comments
'Adding full bibliography for 4339987--4339996.cif.'
_cod_database_code               4339994
#BEGIN Tags that were not found in dictionaries:
_shelx_space_group_comment
; 
The symmetry employed for this shelxl refinement is uniquely defined 
by the following loop, which should always be used as a source of 
symmetry information in preference to the above space-group names. 
They are only intended as comments. 
;
_shelx_estimated_absorpt_t_min   0.093
_shelx_estimated_absorpt_t_max   0.265
_shelxl_version_number           2013-2
_shelx_res_file
; 
REM Solution 1  R1  0.099,  Alpha = 0.1409  in C2/c 
REM O8 S2 
TITL test in C2/c 
CELL  0.71073  16.2870   9.7650  14.7460   90.000  117.012   90.000 
ZERR    4.00   0.0033   0.0020   0.0029   0.000   0.030   0.000 
LATT  7 
SYMM -X, Y, 1/2-Z 
SFAC Cl Se 
  
UNIT 64 16 
REM SHEL 999 0.830 
L.S. 10 
BOND 
LIST 4 
acta 
FMAP 2 
PLAN 20 
temp -150 
size 0.5 0.5 0.2 
omit 0 2 0 
omit -2 0 4 
omit 4 0 0 
omit 2 2 4 
omit -6 2 4 
omit -2 4 4 
omit 4 4 0 
omit -6 0 2 
omit -4 2 5 
omit 0 2 7 
omit    6 0 0 
omit    8 0 0 
eqiv $1 -x, +y, 3/2-z 
bind se1 cl1 
bind se1 cl2 
bind se1 cl2_$1 
bind se2 cl1 
bind se2 cl2 
bind se2 cl1_$1 
WGHT    0.084500   14.461600 
EXTI    0.000948 
FVAR       0.10265 
SE1   2   -0.002577    0.268020    0.609689    11.00000    0.00725    0.00413 = 
         0.00456    0.00039    0.00305   -0.00003 
SE2   2    0.140817   -0.026036    0.818166    11.00000    0.00593    0.00619 = 
         0.00649    0.00176    0.00310    0.00214 
CL1   1   -0.000820   -0.012370    0.624984    11.00000    0.00932    0.00728 = 
         0.00601   -0.00173    0.00354    0.00011 
CL2   1    0.132344    0.254242    0.815484    11.00000    0.00801    0.01023 = 
         0.00728   -0.00023    0.00347   -0.00137 
CL3   1    0.106327    0.255242    0.565091    11.00000    0.01050    0.01408 = 
         0.01150   -0.00169    0.00790   -0.00246 
CL4   1   -0.115296    0.256335    0.458393    11.00000    0.01086    0.01537 = 
         0.00625   -0.00005    0.00125    0.00236 
CL5   1   -0.001359    0.489926    0.623498    11.00000    0.02150    0.00625 = 
         0.01306    0.00053    0.00996    0.00011 
CL6   1    0.129348   -0.249448    0.809348    11.00000    0.02132    0.00724 = 
         0.02085    0.00310    0.00890    0.00422 
CL7   1    0.238838   -0.012485    0.756908    11.00000    0.01154    0.02324 = 
         0.01644    0.00370    0.01044    0.00501 
CL8   1    0.240903   -0.021634    0.978008    11.00000    0.01080    0.02135 = 
         0.00713    0.00361    0.00069    0.00241 
HKLF 4 
  
REM  test in C2/c 
REM R1 =  0.0481 for    1789 Fo > 4sig(Fo)  and  0.0493 for all    1876 data 
REM     92 parameters refined using      0 restraints 
  
END 
  
WGHT      0.0842     14.6023 
  
REM Highest difference peak  2.680,  deepest hole -1.302,  1-sigma level  0.296 
Q1    1   0.1830 -0.0263  0.8981  11.00000  0.05    2.68 
Q2    1  -0.0432  0.2642  0.5308  11.00000  0.05    2.31 
Q3    1   0.1031 -0.0287  0.7363  11.00000  0.05    2.22 
Q4    1   0.0292  0.2654  0.6867  11.00000  0.05    2.12 
Q5    1   0.0297  0.4898  0.6998  11.00000  0.05    1.19 
Q6    1  -0.0286  0.4853  0.5425  11.00000  0.05    1.19 
Q7    1   0.0676 -0.1379  0.6940  11.00000  0.05    1.17 
Q8    1   0.1417  0.2527  0.6449  11.00000  0.05    1.16 
Q9    1   0.1678 -0.2470  0.8990  11.00000  0.05    1.15 
Q10   1   0.0633  0.3761  0.7372  11.00000  0.05    1.13 
Q11   1  -0.0310 -0.0172  0.5452  11.00000  0.05    1.11 
Q12   1   0.1078  0.2565  0.7511  11.00000  0.05    1.03 
Q13   1   0.2007 -0.0146  0.6674  11.00000  0.05    0.99 
Q14   1   0.0423  0.6309  0.5996  11.00000  0.05    0.97 
Q15   1   0.1621  0.2526  0.8914  11.00000  0.05    0.97 
Q16   1   0.0000  0.2545  0.7500  10.50000  0.05    0.96 
Q17   1   0.0999 -0.2480  0.7312  11.00000  0.05    0.95 
Q18   1   0.2732 -0.0139  0.8399  11.00000  0.05    0.94 
Q19   1   0.0502  0.1649  0.7443  11.00000  0.05    0.90 
Q20   1   0.0272 -0.0203  0.6973  11.00000  0.05    0.88 
;
_shelx_res_checksum              43469
_shelx_hkl_file
; 
   4   0   0   68.59    0.80 
   6   0   0  561.44    2.30 
   8   0   0 4910.21    7.30 
  10   0   0   82.69    1.50 
  12   0   0  150.28    2.20 
  14   0   0  571.24    4.20 
 -14   0   0  807.92    4.60 
 -16   0   0 1329.07    6.30 
  16   0   0  931.01    5.50 
  -3  -1   0  865.01    1.60 
  -3  -1   0  880.61    2.00 
   5  -1   0   11.60    0.60 
   5   1   0   15.50    0.70 
   7  -1   0   72.49    1.20 
   7   1   0   80.29    1.50 
   9   1   0   13.20    1.00 
   9  -1   0   12.90    0.90 
  -9  -1   0   24.70    1.20 
  11   1   0  472.25    3.10 
  11  -1   0  457.25    3.20 
  13   1   0  205.08    2.70 
  13  -1   0  185.78    2.50 
  15   1   0    3.70    1.20 
 -15   1   0    5.80    1.40 
 -15  -1   0    5.90    1.50 
  15  -1   0    1.50    0.70 
  17   1   0    4.60    1.70 
  17  -1   0    4.60    1.40 
 -17   1   0    4.10    1.40 
 -17  -1   0    5.00    1.10 
   0  -2   0   87.49    0.70 
   0   2   0   90.49    0.60 
   0  -2   0   85.39    0.80 
   2  -2   0  594.14    1.70 
  -2  -2   0  983.10    2.10 
  -2  -2   0 1026.10    2.10 
  -2   2   0  743.43    1.50 
   2  -2   0  935.31    1.80 
  -4  -2   0 1746.33    3.40 
  -4  -2   0 2032.90    3.60 
   4  -2   0  919.91    2.60 
   4  -2   0 1381.26    2.20 
  -4  -2   0 1721.33    2.90 
  -6  -2   0    9.40    1.00 
  -6  -2   0    9.00    0.90 
  -6  -2   0    8.00    0.50 
  -8  -2   0   24.20    1.10 
   8   2   0   18.90    1.20 
   8  -2   0   14.30    0.80 
  -8  -2   0   20.90    1.10 
  10   2   0  797.42    3.90 
  10  -2   0  751.52    3.60 
  12   2   0  170.58    2.60 
  12  -2   0  159.98    2.20 
 -14  -2   0   63.79    2.00 
  14   2   0   48.10    1.80 
  14  -2   0   47.60    1.70 
  16   2   0   41.20    2.10 
 -16  -2   0   51.39    2.10 
  16  -2   0   41.60    1.80 
  -1  -3   0  713.53    2.20 
   1  -3   0  465.95    1.40 
   1  -3   0  694.33    2.10 
  -1   3   0  522.55    1.10 
   1   3   0  621.84    1.60 
   1  -3   0  525.35    1.80 
  -1  -3   0  642.44    1.80 
  -3  -3   0  278.37    1.50 
  -3   3   0  197.28    1.00 
   3  -3   0  168.68    1.30 
   3  -3   0  265.07    1.30 
  -3  -3   0  257.37    1.40 
  -5  -3   0   35.20    1.00 
  -5  -3   0   33.80    0.90 
  -5  -3   0   29.90    0.90 
   5  -3   0   29.60    0.70 
  -7  -3   0  363.46    2.40 
  -7  -3   0  350.66    1.80 
  -9  -3   0  197.18    2.30 
   9  -3   0  116.09    1.70 
  11  -3   0  143.29    2.10 
  11   3   0  160.98    2.40 
  13   3   0  251.17    2.90 
  13  -3   0  237.58    2.90 
  15  -3   0   25.70    1.50 
  15   3   0   26.60    1.90 
   0   4   0 7998.80   10.50 
   0  -4   0 7463.45   12.50 
   2  -4   0  478.05    2.10 
   2   4   0  447.76    1.80 
  -2  -4   0  453.65    2.00 
  -2  -4   0  476.65    2.20 
  -2   4   0  350.96    1.20 
   2  -4   0  333.17    1.50 
   2  -4   0  354.86    1.90 
   4  -4   0   17.40    0.80 
  -4   4   0   18.60    0.80 
  -4  -4   0   18.60    0.90 
  -4  -4   0   18.50    1.00 
  -6  -4   0  730.53    3.00 
   6  -4   0  615.64    2.20 
  -6  -4   0  686.13    2.70 
  -6  -4   0  617.04    2.80 
  -6   4   0  363.56    1.80 
   6  -4   0  383.26    2.30 
  -8  -4   0 5184.98    8.60 
  -8  -4   0 5230.48   14.30 
  10  -4   0   79.89    1.70 
 -10  -4   0  128.39    2.10 
  12   4   0  100.89    2.30 
  12  -4   0   90.29    2.00 
  14   4   0  342.37    3.80 
  14  -4   0  322.17    3.40 
  16   4   0  692.33    5.30 
  16  -4   0  659.33    5.10 
  -1   5   0   21.10    0.60 
   1   5   0   22.60    0.70 
   1  -5   0   22.90    1.10 
  -1  -5   0   23.50    0.80 
  -1  -5   0   27.70    1.20 
   1  -5   0   19.80    0.80 
  -3  -5   0  662.43    2.90 
  -3  -5   0  551.74    2.50 
   3  -5   0  456.95    1.80 
   3  -5   0  451.55    2.50 
  -3   5   0  450.95    1.40 
   3  -5   0  634.04    2.70 
  -5  -5   0   56.39    1.40 
   5  -5   0   53.99    1.10 
  -7  -5   0   12.60    1.00 
  -7   5   0    4.20    0.60 
  -7  -5   0    8.50    0.90 
   7  -5   0    8.00    0.70 
   7  -5   0    4.40    0.70 
   9  -5   0   35.00    1.40 
  -9  -5   0   59.29    1.30 
  -9  -5   0   58.49    1.80 
 -11  -5   0  544.35    4.00 
  11  -5   0  362.26    3.30 
  13   5   0   32.70    1.90 
  13  -5   0   31.30    1.60 
  15   5   0   19.30    2.00 
  15  -5   0   17.50    1.60 
   0  -6   0   73.79    1.10 
   0   6   0   71.09    0.90 
  -2  -6   0  272.87    2.30 
   2  -6   0  197.78    1.90 
  -2  -6   0  216.38    1.70 
   2  -6   0  245.18    2.00 
   2  -6   0  166.28    1.30 
   4  -6   0  786.02    3.20 
   4  -6   0  573.74    3.10 
  -4  -6   0  816.12    3.50 
  -4  -6   0  703.93    3.10 
   6  -6   0    2.80    0.50 
   6  -6   0    0.80    0.50 
  -6  -6   0    1.30    0.80 
  -6  -6   0    1.70    0.60 
  -8  -6   0   57.09    1.90 
  -8  -6   0   64.29    1.70 
 -10  -6   0  370.56    3.40 
 -10  -6   0  403.96    3.00 
  12  -6   0  167.78    2.70 
 -12  -6   0  235.28    3.20 
  14  -6   0   16.50    1.80 
 -14  -6   0   18.60    1.80 
   1  -7   0  457.15    2.90 
   1  -7   0  332.07    2.10 
  -1  -7   0  503.05    3.20 
  -1  -7   0  380.66    2.30 
  -3  -7   0    4.60    0.80 
   3  -7   0    3.50    1.00 
  -3  -7   0    3.20    0.60 
   3  -7   0    6.00    1.10 
  -5  -7   0   78.99    1.70 
  -5  -7   0   62.59    1.50 
   5  -7   0   54.29    1.60 
   5  -7   0   74.19    1.60 
   7  -7   0  174.38    2.40 
  -7  -7   0  211.58    2.40 
  -7  -7   0  268.67    2.70 
   7  -7   0  241.98    2.20 
   9  -7   0  192.28    2.50 
  -9  -7   0  295.57    2.80 
  -9  -7   0  244.98    2.90 
 -11  -7   0    1.20    0.80 
  11  -7   0    1.20    0.70 
  13  -7   0  127.29    2.70 
 -13  -7   0  166.08    3.20 
   0  -8   0 3480.05    8.00 
  -2  -8   0  244.18    2.80 
   2  -8   0  230.38    2.50 
  -4  -8   0    2.00    0.80 
  -4  -8   0    0.80    0.50 
   4  -8   0    6.60    1.00 
   4  -8   0    3.80    1.00 
  -6  -8   0  155.38    2.20 
   6  -8   0  198.18    2.30 
   6  -8   0  137.19    2.40 
  -6  -8   0  205.18    2.80 
   8  -8   0 1371.26    6.10 
  -8  -8   0 1621.94    6.10 
  10  -8   0   98.99    2.40 
 -10  -8   0  122.39    2.40 
 -12  -8   0   34.10    2.00 
  12  -8   0   28.40    1.80 
   1  -9   0  296.77    3.20 
  -1  -9   0  295.67    3.30 
  -3  -9   0  193.98    2.90 
   3  -9   0  191.48    2.60 
   5  -9   0   42.10    1.90 
  -5  -9   0   59.59    1.90 
  -5  -9   0   48.10    1.70 
   5  -9   0   60.79    2.00 
  -7  -9   0  145.29    2.40 
   7  -9   0  129.69    2.70 
   9  -9   0  130.99    2.90 
  -9  -9   0  154.58    2.70 
  11  -9   0  122.49    2.90 
 -11  -9   0  137.49    2.80 
   0 -10   0  214.78    3.20 
   2 -10   0    4.20    0.90 
  -2 -10   0    2.40    1.00 
  -4 -10   0  694.23    4.80 
   4 -10   0  683.53    4.40 
  -6 -10   0    1.10    0.70 
   6 -10   0    1.70    1.00 
   6 -10   0    0.90    0.80 
  -6 -10   0    1.10    0.80 
   8 -10   0   76.19    2.70 
  -8 -10   0   81.49    2.10 
  -1 -11   0  177.88    3.20 
   1 -11   0  174.28    3.30 
   3 -11   0  112.29    2.70 
  -3 -11   0  112.99    2.70 
   5 -11   0   65.89    2.20 
  -5 -11   0   72.69    2.80 
 -16   0  -1    0.70    0.80 
  16   0   1    0.80    0.70 
  14   0   1    0.40    0.40 
 -14   0  -1    1.10    1.10 
 -12   0  -1    1.20    0.70 
  12   0   1    1.30    0.90 
 -10   0  -1    1.60    0.80 
  10   0   1    1.60    0.80 
   8   0   1    5.30    0.80 
   6   0   1    2.50    0.60 
   4   0   1    3.00    0.40 
   2   0   1    0.60    0.20 
   4   0  -1    8.70    0.50 
  -4   0   1    9.70    0.50 
   4   0  -1    9.60    0.40 
   6   0  -1    6.70    0.50 
  -6   0   1    8.20    0.60 
   6   0  -1    8.60    0.50 
   8   0  -1    5.60    0.70 
   8   0  -1    5.90    0.80 
  -8   0   1    7.00    0.90 
  10   0  -1    5.10    1.00 
  12   0  -1    1.20    0.60 
  14   0  -1    0.70    0.70 
 -16   0   1    2.20    0.90 
  16   0  -1    0.40    0.70 
 -15   1  -1   41.40    1.90 
 -15  -1  -1   38.90    1.70 
  15   1   1   32.00    2.00 
  15  -1   1   29.40    1.60 
 -13  -1  -1   92.59    2.30 
  13  -1   1   65.99    2.00 
 -13   1  -1   95.49    2.10 
  13   1   1   73.89    2.00 
  11  -1   1   58.39    1.40 
  11   1   1   69.09    1.90 
   9  -1   1   35.20    1.20 
   9   1   1   36.30    1.10 
   7   1   1   32.10    1.00 
   7  -1   1   30.70    1.00 
   5   1   1  162.38    1.50 
   5  -1   1  160.18    0.90 
  -3  -1  -1  319.07    1.40 
   3  -1   1  167.58    1.00 
   3  -1  -1  499.85    1.50 
   3   1  -1  455.55    1.50 
  -5  -1   1  164.58    0.80 
  -5  -1   1  187.98    1.30 
   5   1  -1  170.18    0.90 
   5  -1  -1  185.98    1.20 
   7   1  -1  218.18    1.30 
   7  -1  -1  117.49    1.50 
  -7  -1   1  244.88    1.90 
   7  -1  -1  232.38    1.70 
   7   1  -1  131.89    1.60 
   9  -1  -1  173.38    1.80 
  -9  -1   1  323.07    2.30 
   9   1  -1  173.28    1.90 
  11  -1  -1  232.88    2.30 
  11   1  -1  238.28    2.40 
  13  -1  -1   33.90    1.40 
  13   1  -1   42.60    1.70 
  15   1  -1   47.90    1.90 
  15  -1  -1   38.80    1.70 
 -17  -1   1  162.08    3.00 
 -17   1   1  162.78    2.90 
  17   1  -1  119.29    2.90 
  17  -1  -1  109.39    2.40 
  16   2   1    2.50    1.20 
 -16  -2  -1    2.00    0.80 
 -14   2  -1   32.30    1.40 
 -14  -2  -1   29.50    1.40 
  14  -2   1   26.30    1.70 
  14   2   1   28.10    1.80 
  12  -2   1   13.30    1.20 
  12   2   1   11.60    1.00 
  10  -2   1   16.50    1.20 
 -10  -2  -1   23.50    1.20 
  10   2   1   16.20    1.30 
   8  -2   1   45.30    1.20 
   8   2   1   50.19    1.40 
   6  -2   1   46.20    0.70 
   6  -2   1   40.50    1.10 
   4  -2   1    5.10    0.40 
  -4  -2  -1    6.60    0.50 
  -4  -2  -1    6.30    0.40 
   4  -2   1    3.80    0.50 
  -2  -2  -1    5.00    0.40 
  -2   2  -1    3.20    0.40 
  -2  -2  -1    6.40    0.40 
   2  -2   1    2.90    0.30 
   2  -2   1    4.00    0.40 
   0  -2  -1  349.47    1.30 
   0  -2   1  237.38    1.10 
   0  -2   1  278.37    1.20 
   0  -2  -1  282.67    1.10 
   2   2  -1   53.19    0.70 
   2  -2  -1   62.99    0.60 
  -2  -2   1   53.69    0.70 
   2  -2  -1   42.00    0.60 
  -2  -2   1   54.39    0.60 
   2  -2  -1   63.29    0.60 
   2  -2  -1   37.60    0.60 
   4   2  -1    8.00    0.60 
  -4  -2   1    7.10    0.60 
   4  -2  -1    7.10    0.60 
  -4  -2   1    8.10    0.60 
   4  -2  -1    5.90    0.50 
  -4  -2   1    6.80    0.40 
  -6  -2   1   42.70    1.20 
   6  -2  -1   42.10    1.00 
   6   2  -1   36.90    0.50 
  -6  -2   1   38.80    0.70 
   8  -2  -1  174.58    1.80 
  -8  -2   1  175.78    1.80 
   8  -2  -1   86.99    1.40 
  -8  -2   1  141.29    1.70 
  -8  -2   1  130.29    1.00 
   8   2  -1  148.59    1.10 
  10  -2  -1    2.60    0.60 
 -10  -2   1    6.70    1.20 
  10   2  -1    6.50    1.20 
  12  -2  -1    1.00    0.70 
  12   2  -1    0.40    0.50 
  14   2  -1   45.20    1.60 
  14  -2  -1   50.89    1.80 
  16  -2  -1   18.90    1.70 
  16   2  -1   16.80    1.60 
 -16  -2   1   20.50    1.70 
  15  -3   1   71.99    2.20 
  15   3   1   73.09    2.50 
 -15  -3  -1   85.69    2.20 
  13   3   1  193.88    2.90 
  13  -3   1  183.28    2.60 
 -11  -3  -1    2.90    0.80 
  11  -3   1    2.70    0.80 
  11   3   1    2.70    1.10 
   9  -3   1    1.20    0.80 
  -9  -3  -1    0.80    0.60 
  -7  -3  -1  419.86    2.70 
  -7  -3  -1  518.45    2.80 
   7  -3   1  254.07    2.00 
   7  -3   1  341.77    1.60 
  -5  -3  -1  171.28    1.60 
  -5  -3  -1  167.28    1.40 
   5  -3   1  136.69    1.10 
   5  -3   1  102.09    1.40 
  -5  -3  -1  206.78    1.80 
  -3  -3  -1   36.70    0.90 
   3  -3   1   27.20    0.70 
  -3   3  -1   23.10    0.70 
  -3  -3  -1   33.70    0.80 
   3  -3   1   21.40    0.80 
  -1  -3  -1  181.68    1.20 
  -1  -3  -1  205.48    1.30 
   1  -3   1  161.28    1.10 
   1  -3   1  134.89    1.10 
  -1  -3   1  968.20    2.50 
  -1  -3   1  917.71    1.90 
   1   3  -1  865.31    1.90 
   1  -3  -1 1212.38    2.70 
   1  -3  -1 1259.07    2.40 
   1  -3  -1  792.52    2.00 
   1  -3  -1  839.52    2.20 
   3  -3  -1   11.20    0.50 
  -3  -3   1    9.30    0.50 
   3   3  -1    9.10    0.60 
  -3  -3   1    9.60    0.60 
   3  -3  -1    7.40    0.50 
   3  -3  -1    6.50    0.50 
   3  -3  -1   10.00    0.50 
   5  -3  -1   90.79    0.90 
   5  -3  -1   98.29    1.30 
  -5  -3   1   86.99    1.10 
  -5  -3   1   90.09    1.20 
  -5  -3   1   76.49    1.20 
   7   3  -1  315.27    1.10 
  -7  -3   1  400.06    2.40 
  -7  -3   1  331.87    2.30 
  -7  -3   1  353.86    1.80 
   7  -3  -1  377.36    1.40 
  -9  -3   1  559.14    2.30 
  -9  -3   1  569.84    3.10 
 -11  -3   1    5.30    1.20 
  11  -3  -1    2.50    0.80 
  11   3  -1    8.40    1.30 
  13  -3  -1   82.69    1.90 
  13   3  -1   91.29    2.40 
  15   3  -1  109.89    2.70 
  15  -3  -1  104.29    2.30 
  17  -3  -1  101.59    2.80 
  17   3  -1  107.89    2.70 
  14  -4   1    4.80    1.10 
  14   4   1    6.40    1.20 
 -12  -4  -1    4.80    1.10 
  12  -4   1    2.90    0.70 
  12   4   1    4.50    1.20 
  10  -4   1  120.09    2.00 
 -10  -4  -1  180.28    2.60 
  -8  -4  -1   36.30    1.50 
   8  -4   1   21.80    1.20 
   6  -4   1    6.80    0.80 
  -6   4  -1    6.70    0.70 
  -6  -4  -1   10.10    0.80 
   6  -4   1    9.00    0.50 
  -6  -4  -1   13.30    1.00 
  -6  -4  -1   12.60    0.90 
  -4   4  -1   24.60    0.80 
   4  -4   1   23.70    1.00 
   4  -4   1   31.00    0.90 
  -4  -4  -1   34.50    1.00 
  -4  -4  -1   38.50    1.10 
  -2  -4  -1  200.28    1.70 
  -2  -4  -1  172.58    1.50 
   2  -4   1  127.99    1.40 
   2  -4   1  171.58    1.50 
   2  -4   1  133.59    0.90 
   0  -4   1  139.29    0.90 
   0   4  -1  126.39    1.00 
   0  -4   1  141.39    1.40 
   0  -4  -1  192.98    1.50 
   0  -4   1  164.48    1.40 
   0  -4  -1  142.79    1.20 
  -2  -4   1   10.70    0.70 
   2  -4  -1    7.70    0.60 
   2   4  -1   10.40    0.60 
   2  -4  -1   10.60    0.80 
   2  -4  -1   11.30    0.70 
   2  -4  -1   13.20    0.70 
  -2  -4   1   10.00    0.60 
  -2   4   1    9.30    0.30 
   4  -4  -1  174.78    1.40 
   4  -4  -1  107.69    1.30 
   4  -4  -1  193.58    1.60 
  -4  -4   1  146.39    1.50 
   4   4  -1  150.48    1.50 
  -4  -4   1  171.88    1.60 
  -6  -4   1    4.40    0.80 
  -6   4   1    2.50    0.40 
   6  -4  -1    5.00    0.50 
  -6  -4   1    2.30    0.60 
   6  -4  -1    2.70    0.70 
  -6  -4   1    3.50    0.70 
  -8  -4   1   54.49    1.10 
  -8  -4   1   50.79    1.50 
  10  -4  -1   44.50    1.50 
 -10  -4   1   69.49    1.90 
  12   4  -1   76.29    2.10 
  12  -4  -1   63.29    1.80 
 -12  -4   1   92.49    2.10 
  14   4  -1   25.60    1.90 
  14  -4  -1   22.40    1.50 
 -16  -4   1    0.50    0.80 
  16   4  -1    2.00    1.20 
  16  -4  -1    0.50    0.70 
  15   5   1    2.10    1.20 
  15  -5   1    2.20    1.20 
 -15  -5  -1    2.10    1.20 
  13   5   1    2.30    1.20 
  13  -5   1    1.00    0.80 
 -13  -5  -1    3.50    1.20 
 -11  -5  -1  158.78    2.80 
  11  -5   1  108.89    2.20 
   9  -5   1   71.99    1.90 
  -9  -5  -1  109.89    2.20 
  -7  -5  -1   51.79    1.40 
   7  -5   1   32.30    1.40 
  -7   5  -1   27.80    1.00 
  -7  -5  -1   47.20    1.40 
   7  -5   1   47.90    1.00 
  -5  -5  -1  152.38    1.80 
   5  -5   1   98.69    1.60 
  -5  -5  -1  131.39    1.70 
  -5   5  -1   92.69    1.20 
   5  -5   1  134.79    1.40 
  -3  -5  -1  407.26    2.30 
   3  -5   1  395.06    2.10 
  -3  -5  -1  463.05    2.40 
   3  -5   1  316.67    2.20 
   1  -5   1  131.29    1.40 
  -1  -5  -1  148.99    1.60 
  -1   5  -1   93.19    0.90 
   1  -5   1   89.09    0.80 
   1  -5   1  114.99    1.50 
  -1  -5  -1  118.79    1.30 
   1  -5  -1   36.50    1.00 
  -1  -5   1   41.50    0.90 
  -1  -5   1   46.80    1.20 
   1  -5  -1   55.19    1.30 
   1   5  -1   38.00    0.90 
  -3  -5   1  717.93    3.00 
   3  -5  -1  756.12    2.90 
   3  -5  -1  528.95    2.60 
  -3  -5   1  577.74    2.30 
   3  -5  -1  501.15    2.10 
  -3   5   1  508.95    1.00 
   3   5  -1  603.24    2.40 
  -5  -5   1  156.88    1.70 
   5  -5  -1  160.88    1.50 
  -7  -5   1   29.20    1.20 
   7  -5  -1   29.80    0.90 
  -7  -5   1   26.20    1.20 
  -9  -5   1   16.30    1.20 
  -9  -5   1   20.30    1.10 
   9  -5  -1   10.90    1.00 
 -11  -5   1  653.13    4.20 
  11  -5  -1  455.95    3.50 
  13  -5  -1    4.30    1.00 
  13   5  -1    4.90    1.30 
  15  -5  -1    0.70    0.80 
 -15  -5   1    0.00    0.60 
  15   5  -1    0.60    0.80 
  14  -6   1  126.49    2.80 
  14   6   1  123.69    2.90 
  12  -6   1   72.19    2.20 
 -12  -6  -1   98.99    2.40 
  10  -6   1   65.59    2.00 
 -10  -6  -1   93.69    2.50 
  -8  -6  -1  321.87    2.90 
  -8  -6  -1  355.56    2.90 
  -6  -6  -1  327.87    2.80 
   6  -6   1  336.77    2.30 
  -4  -6  -1   20.80    1.00 
   4  -6   1   14.10    1.10 
   4  -6   1   17.60    0.80 
  -4  -6  -1   17.40    1.00 
   2  -6   1    6.00    0.50 
  -2  -6  -1    9.30    0.90 
  -2  -6  -1    8.90    0.80 
   2  -6   1    8.10    0.70 
   2  -6   1    6.80    0.90 
   0  -6  -1  884.71    3.10 
   0  -6  -1  700.13    1.90 
   0  -6   1 1102.59    3.90 
   0  -6  -1 1205.68    4.10 
   0   6  -1  809.32    2.40 
   0  -6   1  780.22    2.40 
   2  -6  -1  167.48    1.80 
   2  -6  -1  140.79    1.30 
  -2  -6   1  202.28    1.90 
  -2  -6   1  176.78    1.50 
   2  -6  -1  221.58    2.00 
   2   6  -1  161.88    1.30 
  -4  -6   1    4.40    0.80 
   4   6  -1    4.50    0.70 
  -4  -6   1    3.70    0.60 
   4  -6  -1    5.00    0.70 
   4  -6  -1    4.90    0.70 
   4  -6  -1    3.50    0.90 
  -6  -6   1  167.88    2.10 
   6  -6  -1  105.09    1.70 
  -6  -6   1  134.49    1.90 
   6  -6  -1  172.98    1.70 
  -8  -6   1  776.12    3.70 
  -8  -6   1  639.24    3.60 
   8  -6  -1  481.25    3.30 
 -10  -6   1   30.40    1.40 
 -10  -6   1   26.80    1.50 
  12  -6  -1    0.20    0.50 
 -12  -6   1    1.60    1.00 
 -14  -6   1  314.57    3.80 
  14   6  -1  234.08    3.40 
  14  -6  -1  232.08    3.20 
  13  -7   1  193.18    3.20 
 -13  -7  -1  245.48    3.60 
  11  -7   1    7.40    1.20 
 -11  -7  -1    9.20    1.20 
   9  -7   1   17.30    1.50 
  -9  -7  -1   22.70    1.70 
  -9  -7  -1   22.60    1.40 
   7  -7   1  337.57    3.00 
  -7  -7  -1  509.55    3.60 
  -7  -7  -1  428.26    3.40 
   7  -7   1  460.75    2.90 
   5  -7   1   43.50    1.70 
  -5  -7  -1   65.29    1.90 
   5  -7   1   57.29    1.50 
  -5  -7  -1   50.79    1.50 
   3  -7   1   12.50    1.10 
  -3  -7  -1   11.70    1.00 
   3  -7   1   12.30    1.20 
   1  -7   1   57.69    1.40 
  -1  -7  -1   54.69    1.40 
   1  -7  -1  643.84    2.80 
   1  -7  -1  983.90    4.10 
  -1  -7   1  934.81    4.10 
  -1  -7   1  674.53    2.70 
  -3  -7   1   42.50    1.20 
   3  -7  -1   45.10    1.60 
  -3  -7   1   52.89    1.60 
   3  -7  -1   56.89    1.50 
   3  -7  -1   35.20    1.00 
   5  -7  -1    5.80    1.10 
  -5  -7   1    5.10    0.90 
  -5  -7   1    6.80    0.80 
   7  -7  -1  173.08    2.50 
   7  -7  -1  268.87    2.40 
  -7  -7   1  208.88    2.40 
  -7  -7   1  260.47    2.80 
  -9  -7   1  380.66    3.20 
   9  -7  -1  318.67    3.10 
  11  -7  -1   53.59    1.90 
 -11  -7   1   71.19    2.30 
 -13  -7   1   93.59    2.40 
  13  -7  -1   71.29    2.20 
 -12  -8  -1    7.90    1.40 
  12  -8   1    6.40    1.40 
 -10  -8  -1  221.98    3.00 
  10  -8   1  193.78    2.90 
  -8  -8  -1   40.00    1.90 
   8  -8   1   35.00    1.90 
  -6  -8  -1   11.20    1.30 
   6  -8   1   10.90    1.40 
   6  -8   1   12.20    1.00 
   4  -8   1   56.59    1.80 
  -4  -8  -1   61.89    1.80 
  -4  -8  -1   49.20    1.60 
   4  -8   1   42.70    1.70 
  -2  -8  -1  258.17    2.90 
   2  -8   1  240.68    2.70 
   0  -8  -1  203.48    2.70 
   0  -8   1  191.78    2.60 
  -2  -8   1   19.40    1.60 
   2  -8  -1   18.40    1.30 
   4  -8  -1  180.48    2.40 
  -4  -8   1  192.48    2.10 
   4  -8  -1  245.08    2.50 
  -4  -8   1  229.68    2.60 
   6  -8  -1    4.40    1.20 
  -6  -8   1    3.90    0.80 
  -6  -8   1    4.10    1.00 
  -8  -8   1   68.79    2.10 
   8  -8  -1   50.39    1.90 
  -8  -8   1   58.69    2.00 
  10  -8  -1   88.99    2.30 
 -10  -8   1  106.79    2.40 
 -12  -8   1  121.29    2.80 
  12  -8  -1  101.89    2.50 
   9  -9   1   43.80    2.30 
  -9  -9  -1   52.99    2.10 
  -9  -9  -1   64.69    2.20 
   7  -9   1  100.99    2.70 
  -7  -9  -1  108.89    2.40 
   5  -9   1   32.60    1.70 
  -5  -9  -1   26.90    1.50 
  -5  -9  -1   33.00    1.70 
   5  -9   1   21.60    1.60 
  -3  -9  -1  264.27    3.30 
   3  -9   1  232.98    2.70 
  -3  -9  -1  209.88    2.50 
   1  -9   1   25.60    1.70 
  -1  -9  -1   17.60    1.10 
  -1  -9  -1   25.50    1.60 
  -1  -9   1  174.08    2.80 
   1  -9  -1  176.18    2.90 
   3  -9  -1  365.06    3.40 
  -3  -9   1  367.36    3.50 
   5  -9  -1   40.20    1.80 
   5  -9  -1   50.39    1.50 
  -5  -9   1   41.40    1.50 
  -5  -9   1   51.79    1.90 
  -7  -9   1    1.70    0.80 
  -7  -9   1    1.90    0.80 
   7  -9  -1    2.00    0.90 
   9  -9  -1    3.10    1.00 
  -9  -9   1    4.70    1.00 
  11  -9  -1  320.17    3.80 
 -11  -9   1  370.16    4.00 
  -8 -10  -1  361.16    4.10 
   8 -10   1  251.97    3.80 
  -8 -10  -1  250.87    3.10 
   6 -10   1  266.77    3.70 
  -6 -10  -1  284.67    3.40 
   6 -10   1  351.86    3.40 
  -6 -10  -1  370.76    3.90 
   4 -10   1   38.60    1.90 
  -4 -10  -1   29.00    1.50 
  -4 -10  -1   38.00    1.90 
  -2 -10  -1    0.10    0.60 
   2 -10   1    0.10    0.60 
   0 -10   1  911.91    5.00 
   0 -10  -1 1018.90    5.60 
  -2 -10   1  227.18    3.30 
   2 -10  -1  214.18    2.90 
  -4 -10   1    0.30    0.50 
   4 -10  -1    0.40    0.60 
  -6 -10   1  176.48    3.30 
   6 -10  -1  173.58    2.70 
  -8 -10   1  571.04    4.20 
   8 -10  -1  519.35    4.40 
  -5 -11  -1    8.70    1.70 
   5 -11   1    8.90    1.40 
  -3 -11  -1   29.70    2.30 
   3 -11   1   30.10    2.10 
   1 -11   1    5.80    1.40 
  -1 -11  -1    4.80    1.50 
  -1 -11   1  310.97    3.90 
   1 -11  -1  313.67    3.80 
  -3 -11   1   67.59    2.20 
   3 -11  -1   74.99    2.50 
   5 -11  -1    0.00    1.00 
  -5 -11   1    0.40    0.70 
 -16   0  -2  386.06    3.70 
  16   0   2  323.87    3.90 
  14   0   2  263.67    3.00 
 -14   0  -2  340.47    3.30 
 -12   0  -2   71.99    1.90 
  12   0   2   50.49    1.80 
  10   0   2 1028.50    4.20 
 -10   0  -2 1442.66    4.80 
  -8   0  -2  265.97    2.00 
   8   0   2  186.58    1.90 
  -6   0  -2  689.93    2.60 
   6   0   2  448.36    2.30 
  -4   0  -2   41.70    0.70 
   4   0   2   26.20    0.80 
   2   0   2  769.92    1.70 
  -2   0  -2 1376.36    2.20 
   4   0  -2 1115.69    2.20 
  -4   0   2 1104.99    2.20 
  -6   0   2   13.30    0.70 
   6   0  -2   12.60    0.50 
  -8   0   2 1116.79    3.40 
   8   0  -2 1042.20    3.00 
  10   0  -2   80.79    1.30 
 -10   0   2   93.79    1.50 
  12   0  -2  752.32    3.80 
  14   0  -2  275.17    3.00 
  16   0  -2  479.65    4.00 
 -18   0   2  124.59    2.80 
  18   0  -2   85.69    2.90 
  15  -1   2    1.50    0.80 
  15   1   2    2.10    1.20 
 -13   1  -2  180.48    2.50 
  13  -1   2  135.09    2.30 
 -13  -1  -2  174.28    2.60 
  13   1   2  142.99    2.60 
 -11   1  -2   15.20    1.10 
  11   1   2   15.90    1.30 
   9   1   2  157.58    1.80 
   9  -1   2  145.89    1.80 
  -9  -1  -2  232.98    2.10 
  -9   1  -2  222.78    2.00 
   7   1   2  209.88    1.80 
  -7  -1  -2  325.87    2.20 
   7  -1   2  189.78    1.80 
  -7   1  -2  309.77    1.90 
  -5  -1  -2  103.09    1.30 
   5  -1   2   56.29    1.00 
   5   1   2   64.89    1.20 
  -5   1  -2   99.59    1.10 
  -3  -1  -2  385.06    1.60 
  -3   1  -2  371.16    1.30 
   3  -1   2  205.28    1.20 
   3   1   2  236.38    1.30 
   1  -1   2   37.70    0.50 
   1  -1   2   48.70    0.60 
   3   1  -2  103.09    0.90 
  -3   1   2  102.39    0.60 
   3  -1  -2  103.49    0.80 
   5  -1  -2  331.17    1.50 
  -5  -1   2  315.47    1.00 
  -5   1   2  329.77    1.30 
   5   1  -2  310.67    1.50 
  -5  -1   2  322.57    1.60 
   7   1  -2   58.79    1.40 
   7  -1  -2   43.50    1.20 
  -7   1   2   84.19    1.20 
   7   1  -2   77.29    0.90 
  -7  -1   2   87.49    1.30 
  -7  -1   2   75.19    0.60 
   7  -1  -2   83.49    1.20 
   9  -1  -2  330.77    2.10 
   9   1  -2  312.77    1.80 
   9   1  -2  211.48    2.20 
  -9   1   2  342.07    2.20 
   9  -1  -2  187.28    1.80 
  -9  -1   2  347.57    2.30 
  11  -1  -2  351.26    2.40 
  11   1  -2  329.97    2.10 
  11   1  -2  241.08    2.50 
  11  -1  -2  221.18    2.20 
  13  -1  -2    5.30    0.90 
  13   1  -2    6.00    0.90 
  15   1  -2  122.99    2.70 
  15  -1  -2  105.09    2.30 
  17  -1  -2    0.40    0.70 
  17   1  -2    1.20    0.80 
  16  -2   2    0.60    1.00 
  16   2   2    0.60    1.10 
 -16  -2  -2    0.00    1.20 
  14   2   2    5.90    1.30 
  14  -2   2    4.00    1.20 
 -14  -2  -2    3.80    0.80 
  12   2   2   19.00    1.20 
 -12   2  -2   24.70    1.30 
 -12  -2  -2   25.50    1.40 
  12  -2   2   20.00    1.30 
  10  -2   2    4.80    1.00 
  10   2   2    5.30    0.80 
   8  -2   2   94.89    1.50 
   8   2   2  100.89    1.70 
   6  -2   2   83.29    0.90 
   6   2   2   99.79    1.50 
   6  -2   2   84.09    1.30 
   4  -2   2   42.00    0.90 
   4  -2   2   44.40    0.70 
   2  -2   2   61.29    0.80 
   2  -2   2   69.69    0.80 
  -2   2  -2   70.49    0.90 
   0  -2   2  385.86    1.40 
   0  -2   2  378.06    1.40 
   0  -2  -2  498.35    1.60 
   0  -2  -2  536.45    1.70 
   2  -2  -2  317.57    1.10 
   2  -2  -2  500.95    1.50 
   2  -2  -2  299.37    1.20 
   2   2  -2  357.06    1.40 
   2  -2  -2  437.66    1.40 
  -2  -2   2  350.46    1.30 
   4   2  -2   75.79    0.60 
   4  -2  -2  135.49    1.10 
   4  -2  -2   62.99    0.80 
   4  -2  -2  132.99    0.80 
  -4  -2   2  119.19    1.10 
   4   2  -2  110.79    1.10 
  -4   2   2  112.59    0.60 
  -4  -2   2  113.59    0.90 
   6   2  -2   89.49    1.20 
  -6  -2   2   95.99    0.90 
   6   2  -2   80.49    0.70 
   6  -2  -2  103.99    1.30 
  -6   2   2   98.59    1.00 
  -6  -2   2  100.99    1.30 
   8   2  -2   73.09    0.80 
  -8  -2   2   87.59    1.50 
  -8   2   2   83.89    1.20 
  -8  -2   2   77.89    0.90 
   8  -2  -2   82.79    1.40 
  10   2  -2   52.69    1.60 
  10   2  -2   65.59    1.00 
 -10   2   2   75.59    1.30 
  10  -2  -2   74.79    1.40 
  10  -2  -2   39.60    1.20 
  12  -2  -2    6.00    0.90 
  12   2  -2    5.20    1.00 
  14   2  -2    9.10    1.40 
  14  -2  -2   12.20    1.20 
  16  -2  -2   33.70    1.70 
  16   2  -2   35.60    1.90 
  18  -2  -2    8.30    1.20 
  18   2  -2    7.50    1.70 
 -15  -3  -2    0.90    0.80 
  15  -3   2    0.50    0.50 
 -13  -3  -2  114.39    2.40 
  13  -3   2   85.29    2.10 
  13   3   2   85.89    2.50 
  11   3   2   24.20    1.20 
  11  -3   2   25.60    1.50 
   9   3   2  186.48    2.40 
   9  -3   2  184.28    2.10 
   7  -3   2   89.89    1.00 
   7  -3   2   82.89    1.40 
   5  -3   2   39.40    0.80 
   5  -3   2   35.10    1.10 
  -3   3  -2  177.68    1.50 
   3  -3   2  193.28    1.30 
  -3  -3  -2  270.97    1.70 
  -3  -3  -2  280.77    1.80 
   3  -3   2  169.28    1.50 
  -1  -3  -2   84.09    1.00 
  -1  -3  -2   93.59    1.00 
   1  -3   2   60.39    0.90 
   1  -3   2   68.69    1.00 
   1   3  -2  399.16    1.50 
   1  -3  -2  559.94    1.60 
   1  -3  -2  603.54    2.10 
   1  -3  -2  420.36    1.70 
  -1  -3   2  442.06    1.80 
  -3  -3   2  100.89    0.90 
   3  -3  -2  122.99    1.00 
   3  -3  -2   76.39    0.90 
   3  -3  -2  129.79    1.00 
   3   3  -2   93.89    1.00 
  -3  -3   2  104.49    1.10 
   3  -3  -2   79.99    0.90 
   5   3  -2  129.49    0.80 
   5  -3  -2  115.89    1.30 
  -5  -3   2  200.18    1.40 
   5  -3  -2  230.68    1.20 
  -5  -3   2  199.48    1.70 
   5  -3  -2  225.78    1.70 
   5   3  -2  182.68    1.60 
  -5  -3   2  182.78    1.50 
  -5   3   2  185.68    0.90 
  -7  -3   2   62.59    1.00 
  -7  -3   2   64.09    1.30 
  -7  -3   2   59.09    1.30 
  -7   3   2   62.59    0.90 
   7  -3  -2   69.99    0.70 
   7  -3  -2   67.79    1.30 
   7   3  -2   52.09    0.60 
  -9  -3   2  202.88    1.50 
  -9   3   2  206.58    1.60 
  11   3  -2  212.48    2.50 
  11  -3  -2  176.78    2.10 
 -13  -3   2    6.60    1.40 
  13  -3  -2    3.70    1.00 
  13   3  -2    3.60    1.10 
  15   3  -2   96.99    2.40 
  15  -3  -2   93.69    2.30 
 -17  -3   2    2.60    1.20 
  17  -3  -2    2.40    1.10 
 -14  -4  -2  220.18    3.30 
  14   4   2  163.08    3.00 
  14  -4   2  164.48    3.00 
  12  -4   2   31.00    1.40 
  12   4   2   33.80    1.90 
  10  -4   2  681.73    3.90 
  10   4   2  673.93    4.00 
   8  -4   2  110.39    1.80 
  -8  -4  -2  175.38    2.30 
   6  -4   2  267.37    1.70 
  -6  -4  -2  444.46    2.60 
  -6   4  -2  222.18    1.80 
   6  -4   2  229.48    2.10 
  -6  -4  -2  376.86    2.50 
  -4  -4  -2   11.70    0.90 
  -4   4  -2    7.90    0.80 
  -4  -4  -2   12.10    0.90 
   4  -4   2   11.40    0.90 
   4  -4   2    8.00    0.50 
   2  -4   2  606.54    2.50 
   2  -4   2  511.35    2.40 
  -2  -4  -2  801.92    2.90 
  -2  -4  -2  708.73    2.70 
   0  -4  -2   77.89    1.30 
   0  -4  -2   61.09    1.10 
   0  -4  -2   77.49    0.80 
   0   4  -2   52.19    0.90 
   0  -4   2   59.79    1.20 
   0  -4   2   51.29    1.10 
   0  -4   2   48.90    0.50 
  -2  -4   2   35.40    1.00 
   2  -4  -2   29.70    0.90 
   2   4  -2   32.20    0.90 
   2  -4  -2   46.10    1.10 
   2  -4  -2   46.10    0.90 
   2  -4  -2   31.50    0.90 
  -2  -4   2   35.20    0.70 
  -4  -4   2  493.25    2.10 
   4  -4  -2  392.56    2.10 
   4  -4  -2  661.23    2.60 
   4  -4  -2  424.56    1.90 
  -4  -4   2  566.94    2.50 
   4   4  -2  496.75    2.30 
   4   4  -2  390.86    1.30 
   4  -4  -2  634.24    2.30 
   6   4  -2    2.20    0.20 
   6   4  -2    1.10    0.50 
  -6  -4   2    2.00    0.60 
  -6  -4   2    2.00    0.60 
   6  -4  -2    2.20    0.40 
  -6   4   2    2.00    0.30 
  -6   4   2    2.10    0.40 
   6  -4  -2    1.30    0.60 
  -6  -4   2    2.90    0.60 
   6  -4  -2    1.10    0.50 
   8  -4  -2  736.73    3.40 
  -8  -4   2  588.04    3.10 
  -8  -4   2  669.73    2.70 
 -10  -4   2   55.39    1.50 
 -10  -4   2   64.59    1.20 
  12  -4  -2  388.36    3.20 
 -12  -4   2  630.04    4.10 
  14  -4  -2  138.49    2.50 
  14   4  -2  149.29    2.60 
  16  -4  -2  287.27    3.30 
  16   4  -2  300.57    3.80 
  13  -5   2   67.39    2.10 
  13   5   2   64.19    2.20 
  11  -5   2    0.40    0.60 
 -11  -5  -2    0.60    0.60 
   9  -5   2   17.40    1.40 
  -9   5  -2   14.60    0.90 
  -7   5  -2   99.79    1.50 
   7  -5   2  114.79    1.90 
  -7  -5  -2  173.08    2.10 
   7  -5   2  141.89    1.50 
  -5  -5  -2   53.59    1.40 
  -5   5  -2   34.60    1.10 
   5  -5   2   44.00    1.00 
  -5  -5  -2   56.19    1.30 
   5  -5   2   36.10    1.20 
   3  -5   2   88.19    1.30 
  -3  -5  -2  116.79    1.60 
   3  -5   2   74.39    1.40 
  -3  -5  -2  102.39    1.60 
   1  -5   2    3.20    0.70 
  -1  -5  -2    4.30    0.70 
  -1  -5  -2    4.00    0.80 
  -1   5  -2    3.40    0.50 
  -1  -5  -2    4.20    0.40 
   1  -5   2    2.60    0.30 
   1  -5   2    2.40    0.50 
  -1  -5   2  388.16    1.60 
   1  -5  -2  379.86    1.10 
   1   5  -2  349.87    1.80 
   1  -5  -2  518.05    2.50 
   1  -5  -2  538.35    2.00 
  -1  -5   2  436.26    2.40 
   1  -5  -2  371.16    2.00 
   3   5  -2   14.30    0.70 
  -3  -5   2   15.50    0.90 
   3  -5  -2   12.10    0.70 
   3  -5  -2   14.20    0.80 
  -3  -5   2   15.70    0.80 
   3  -5  -2   18.50    0.90 
   3  -5  -2   19.30    0.90 
   5   5  -2   96.69    1.50 
   5  -5  -2   71.99    1.30 
  -5  -5   2   94.39    1.30 
  -5  -5   2  108.89    1.60 
   5  -5  -2  125.69    1.60 
   5  -5  -2  121.39    1.40 
   7  -5  -2   23.20    1.10 
   7  -5  -2   12.30    0.90 
  -7  -5   2   21.50    1.00 
  -7  -5   2   17.60    1.00 
   7  -5  -2   21.90    0.80 
   9  -5  -2   78.49    1.60 
  -9  -5   2  150.18    1.80 
  -9  -5   2  119.99    1.90 
  11  -5  -2   65.19    1.80 
 -11  -5   2   94.09    2.00 
  13  -5  -2    4.50    1.10 
 -13  -5   2    0.20    0.50 
  15   5  -2   16.90    1.50 
  15  -5  -2   14.90    1.40 
  12  -6   2    3.90    1.20 
 -12  -6  -2    5.20    1.20 
  12   6   2    5.00    1.30 
 -10  -6  -2   37.40    1.80 
  10  -6   2   25.40    1.50 
  -8  -6  -2   78.79    1.80 
   8  -6   2   58.49    1.70 
  -6  -6  -2    4.70    0.90 
   6  -6   2    3.70    0.90 
   6  -6   2    6.00    0.80 
  -6  -6  -2    4.70    0.80 
  -4  -6  -2    5.50    0.70 
  -4  -6  -2    5.20    0.70 
   4  -6   2    3.10    0.80 
   4  -6   2    7.80    0.90 
  -2  -6  -2   11.10    1.00 
   2  -6   2   10.00    1.00 
   2  -6   2   10.60    0.90 
   0  -6   2   89.29    0.90 
   0  -6  -2  117.29    0.90 
   0  -6  -2  116.29    1.50 
   0  -6   2  135.49    1.70 
   0   6  -2   95.69    1.20 
   0  -6  -2  157.48    1.90 
  -2  -6   2   67.99    1.40 
   2   6  -2   54.29    1.00 
   2  -6  -2   53.29    1.10 
   2  -6  -2   83.89    1.60 
  -2  -6   2   62.49    0.90 
   4   6  -2    1.80    0.60 
   4  -6  -2    2.60    0.80 
  -4  -6   2    2.00    0.60 
   4  -6  -2    2.10    0.60 
   6  -6  -2   23.40    1.10 
   6  -6  -2   34.30    1.00 
  -6  -6   2   32.70    1.40 
  -6  -6   2   27.20    1.20 
  -8  -6   2    4.10    0.90 
   8  -6  -2    3.80    0.90 
  -8  -6   2    4.10    0.70 
  10  -6  -2   14.40    1.20 
 -10  -6   2   21.10    1.40 
 -10  -6   2   27.60    1.40 
 -12  -6   2   14.30    1.20 
  12  -6  -2   13.60    1.20 
 -14  -6   2    0.10    0.70 
  14  -6  -2    1.40    0.90 
 -11  -7  -2   22.40    1.80 
  11  -7   2   17.90    1.70 
  -9  -7  -2  105.79    2.50 
   9  -7   2   76.99    2.10 
   7  -7   2    1.90    0.60 
  -7  -7  -2    1.30    0.70 
  -7  -7  -2    1.30    0.60 
  -5  -7  -2    5.20    1.00 
   5  -7   2    2.90    0.80 
   5  -7   2    6.00    0.80 
  -5  -7  -2    3.60    0.70 
  -3  -7  -2   39.80    1.40 
   3  -7   2   34.00    1.40 
   3  -7   2   41.10    1.30 
  -3  -7  -2   49.90    1.70 
   1  -7   2   30.20    1.10 
  -1  -7  -2   32.90    1.20 
   1  -7  -2   20.00    1.10 
   1  -7  -2   29.00    1.50 
  -1  -7   2   19.40    0.90 
   3  -7  -2   33.10    1.50 
   3  -7  -2   24.10    1.00 
   3  -7  -2   41.50    1.50 
  -3  -7   2   30.90    1.10 
  -3  -7   2   34.50    1.40 
  -5  -7   2   16.10    1.10 
   5  -7  -2   17.80    0.90 
  -5  -7   2   15.60    0.90 
   5  -7  -2   15.60    1.10 
   5  -7  -2   14.40    1.20 
   7  -7  -2    4.60    0.90 
   7  -7  -2    5.70    0.60 
  -7  -7   2    5.20    0.90 
  -7  -7   2    5.90    1.00 
   9  -7  -2   14.90    1.20 
  -9  -7   2   19.60    1.40 
  -9  -7   2   23.30    1.20 
  11  -7  -2   59.29    2.00 
 -11  -7   2   74.99    2.10 
  13  -7  -2    0.40    0.60 
 -13  -7   2    1.30    0.70 
 -10  -8  -2  289.47    3.50 
  10  -8   2  229.38    3.20 
  -8  -8  -2   50.59    1.90 
  -8  -8  -2   45.80    2.00 
   6  -8   2   42.20    1.40 
   6  -8   2   35.80    1.70 
  -6  -8  -2   42.70    1.70 
  -4  -8  -2    1.40    1.00 
   4  -8   2    1.20    0.50 
  -4  -8  -2    1.90    0.70 
  -2  -8  -2  136.19    2.20 
   2  -8   2  139.39    2.10 
   0  -8   2    5.30    0.90 
   0  -8  -2    6.10    1.00 
   2  -8  -2    0.50    0.50 
  -2  -8   2    0.50    0.60 
   2  -8  -2    2.00    0.80 
  -4  -8   2   68.19    2.00 
   4  -8  -2   66.19    1.60 
  -6  -8   2    1.30    0.50 
   6  -8  -2    0.00    0.40 
   6  -8  -2    0.60    0.70 
  -6  -8   2    0.20    0.50 
   8  -8  -2  115.09    2.30 
  -8  -8   2  130.59    2.20 
  10  -8  -2   23.00    1.60 
 -10  -8   2   28.30    1.80 
  12  -8  -2   90.49    2.30 
 -12  -8   2  116.39    2.40 
   9  -9   2   16.20    1.90 
  -9  -9  -2   20.20    1.70 
   7  -9   2   17.80    1.90 
  -7  -9  -2   17.70    1.50 
  -7  -9  -2   21.80    1.90 
  -5  -9  -2    6.60    1.30 
   5  -9   2    5.40    1.30 
   5  -9   2    5.60    1.00 
  -5  -9  -2    4.60    0.90 
   3  -9   2    0.60    0.70 
  -3  -9  -2    1.70    0.90 
   3  -9   2    1.50    0.70 
  -3  -9  -2    0.80    0.90 
  -1  -9  -2    6.00    1.10 
   1  -9   2    5.80    1.10 
  -1  -9  -2    3.50    0.90 
   1  -9  -2   36.30    1.40 
   1  -9  -2   55.49    2.20 
  -1  -9   2   46.20    1.60 
   3  -9  -2    1.00    0.80 
  -3  -9   2    1.20    0.90 
   5  -9  -2    0.10    0.50 
   5  -9  -2    0.40    0.50 
  -5  -9   2    0.40    0.60 
  -7  -9   2    0.90    0.60 
   7  -9  -2    1.20    0.60 
   7  -9  -2    1.20    0.90 
  -7  -9   2    1.10    0.70 
   9  -9  -2    7.10    1.30 
  -9  -9   2    7.70    1.20 
 -11  -9   2    1.70    1.00 
 -11  -9   2    2.20    1.20 
   8 -10   2   23.40    2.00 
  -6 -10  -2   66.09    2.40 
  -6 -10  -2   49.90    2.00 
   6 -10   2   61.29    2.10 
   6 -10   2   47.80    2.20 
  -4 -10  -2    1.60    0.80 
   4 -10   2    1.20    0.70 
   2 -10   2    9.00    1.10 
  -2 -10  -2   11.30    1.40 
  -2 -10  -2    8.90    1.00 
   0 -10  -2    2.10    0.90 
   0 -10   2    3.10    1.20 
   2 -10  -2    3.00    0.90 
  -2 -10   2    2.70    1.30 
   4 -10  -2   54.49    2.00 
  -4 -10   2   55.69    2.30 
   6 -10  -2    6.20    1.30 
  -6 -10   2    5.40    1.20 
  -8 -10   2   28.20    2.00 
   8 -10  -2   22.80    1.70 
  10 -10  -2    2.80    1.30 
   3 -11   2    1.70    1.00 
  -3 -11  -2    2.20    1.10 
  -1 -11  -2    6.60    1.20 
   1 -11   2    8.50    1.50 
   1 -11  -2   42.30    1.90 
  -1 -11   2   44.70    2.00 
   3 -11  -2    4.30    1.30 
  -3 -11   2    3.10    1.30 
   5 -11  -2   12.70    1.70 
  -5 -11   2   12.30    1.50 
 -14   0  -3    0.40    0.90 
  14   0   3    0.30    0.50 
 -12   0  -3    0.50    0.60 
  12   0   3    0.90    0.60 
  10   0   3    2.20    0.90 
 -10   0  -3    2.70    0.90 
  -8   0  -3    0.80    0.40 
   8   0   3    0.70    0.60 
   6   0   3    9.90    0.80 
  -6   0  -3   10.10    0.80 
   4   0   3    2.00    0.60 
  -4   0  -3    1.70    0.40 
  -2   0  -3   18.00    0.50 
   2   0   3   17.30    0.50 
   0   0  -3    1.10    0.20 
   2   0  -3    7.00    0.40 
   2   0  -3    7.30    0.50 
  -4   0   3    0.80    0.30 
   4   0  -3    1.50    0.50 
   4   0  -3    1.40    0.30 
   4   0  -3    1.60    0.40 
   6   0  -3    1.40    0.50 
   6   0  -3    2.50    0.50 
  -6   0   3    0.10    0.30 
   8   0  -3    1.80    0.60 
  -8   0   3    2.10    0.70 
  10   0  -3    1.60    0.60 
 -10   0   3    2.00    0.70 
  10   0  -3    1.90    0.60 
  12   0  -3    0.50    0.50 
  12   0  -3    2.20    0.80 
  14   0  -3    0.20    0.40 
  14   0  -3    2.90    0.80 
  16   0  -3    1.90    1.00 
  18   0  -3    0.80    1.00 
  15  -1   3   86.89    2.50 
  15   1   3   82.59    2.50 
  13  -1   3  184.38    2.70 
  13   1   3  181.38    2.90 
  11  -1   3  140.99    2.30 
 -11  -1  -3  181.28    2.50 
 -11   1  -3  180.08    2.20 
  11   1   3  146.29    2.50 
  -9   1  -3  240.08    2.10 
   9  -1   3  161.98    1.90 
   9   1   3  184.28    2.10 
  -9  -1  -3  243.58    2.20 
  -7  -1  -3  368.56    2.40 
   7  -1   3  228.98    1.90 
  -7   1  -3  367.46    2.10 
   7   1   3  242.38    1.90 
  -5  -1  -3  507.25    2.40 
  -5   1  -3  490.35    1.90 
   5  -1   3  299.17    1.90 
   5   1   3  311.67    1.90 
   3  -1   3  113.49    1.10 
  -3   1  -3  195.88    1.10 
   3   1   3  124.49    1.10 
  -3  -1  -3  196.58    1.40 
   1   1   3  327.37    1.10 
   1  -1   3  295.87    1.20 
  -1  -1   3  659.43    1.70 
   1  -1  -3  654.63    1.70 
  -3  -1   3  526.95    1.50 
   3  -1  -3  492.15    1.60 
   3  -1  -3  553.24    1.70 
  -3  -1   3  648.24    1.80 
   3   1  -3  477.75    1.50 
   3   1  -3  614.84    1.90 
   5  -1  -3   84.39    0.80 
   5  -1  -3   74.99    0.90 
   5  -1  -3   43.50    0.70 
  -5   1   3   77.49    0.80 
  -5  -1   3   78.49    1.00 
   5   1  -3   95.89    1.10 
   5   1  -3   60.59    0.80 
  -5  -1   3   66.09    0.60 
   7   1  -3  197.18    1.70 
  -7  -1   3  200.18    1.70 
   7   1  -3  172.28    1.30 
   7  -1  -3  196.48    1.50 
  -7  -1   3  186.48    0.90 
  -7   1   3  201.18    1.50 
   9   1  -3  479.35    2.10 
  -9   1   3  520.05    2.40 
   9  -1  -3  298.87    2.20 
   9  -1  -3  518.25    2.50 
  -9  -1   3  531.55    2.70 
   9   1  -3  345.17    2.40 
  11  -1  -3  423.26    2.60 
 -11   1   3  431.56    2.60 
  11   1  -3  404.06    2.20 
  11  -1  -3  274.87    2.40 
  11   1  -3  301.47    2.50 
  13  -1  -3   90.59    1.70 
  13   1  -3   66.89    1.70 
  13   1  -3   86.69    1.50 
  13  -1  -3   63.79    1.80 
  15  -1  -3   19.80    1.40 
  15   1  -3   35.30    1.80 
  17   1  -3   53.89    2.00 
  17  -1  -3   48.60    1.80 
 -14  -2  -3    0.00    0.90 
  14   2   3    0.60    0.80 
  14  -2   3    0.60    0.70 
 -12  -2  -3    3.80    1.10 
  12   2   3    4.70    1.20 
 -10   2  -3   67.49    1.50 
  10  -2   3   47.80    1.60 
  10   2   3   46.90    1.40 
 -10  -2  -3   75.29    1.90 
  -8  -2  -3   78.19    1.60 
   8  -2   3   50.29    1.30 
   8   2   3   48.70    1.40 
  -8   2  -3   72.29    1.30 
  -6  -2  -3    8.90    1.10 
  -6   2  -3    9.70    0.70 
   6   2   3    9.50    1.00 
   6  -2   3    7.10    0.70 
   6  -2   3    7.90    0.70 
  -4  -2  -3   40.20    1.10 
   4  -2   3   24.60    0.90 
  -4   2  -3   39.40    0.70 
   4  -2   3   25.00    0.90 
   2  -2   3  160.48    1.10 
  -2  -2  -3  177.78    0.90 
   2  -2   3  158.68    1.20 
  -2   2  -3  179.58    1.40 
   0  -2   3   13.50    0.50 
   0  -2   3   14.60    0.50 
   2   2  -3    6.10    0.50 
   2  -2  -3    3.50    0.40 
   2  -2  -3    3.40    0.30 
  -2  -2   3    3.50    0.40 
  -4  -2   3  107.99    0.90 
  -4   2   3  105.59    0.60 
  -4  -2   3  124.89    1.20 
   4   2  -3   83.79    0.70 
   4  -2  -3  123.99    1.10 
   4   2  -3  111.49    1.10 
   4  -2  -3  129.79    0.70 
   4  -2  -3   70.59    0.70 
  -6   2   3  136.79    1.00 
   6   2  -3  136.89    1.50 
  -6  -2   3  142.99    1.50 
   6  -2  -3   75.59    1.00 
   6  -2  -3  151.78    1.40 
  -6  -2   3  139.59    1.00 
   6   2  -3  104.89    0.90 
   8   2  -3    5.00    0.70 
  -8  -2   3    6.10    0.50 
   8  -2  -3    5.40    0.70 
  -8  -2   3    5.90    0.80 
   8  -2  -3    6.30    0.80 
   8   2  -3    5.80    0.50 
  -8   2   3    5.90    0.60 
  10   2  -3   17.50    1.20 
  10  -2  -3   18.90    1.10 
  10   2  -3   16.60    0.70 
 -10   2   3   19.00    0.80 
  12  -2  -3   92.99    1.70 
  12  -2  -3   47.60    1.20 
  12   2  -3   67.89    1.90 
  14  -2  -3   15.30    1.30 
  14   2  -3   10.60    1.10 
  16  -2  -3   11.20    1.50 
 -16  -2   3   12.50    1.80 
  18  -2  -3   23.10    1.50 
  18   2  -3   21.40    2.00 
  15   3   3  155.88    3.10 
 -15  -3  -3  179.18    3.00 
  15  -3   3  157.18    2.90 
  13  -3   3    9.40    1.10 
  13   3   3    8.80    1.20 
  11  -3   3  180.28    2.50 
  11   3   3  176.38    2.40 
   9  -3   3  337.47    2.80 
   9   3   3  308.77    2.80 
   7  -3   3  177.58    1.40 
   7   3   3  182.38    2.10 
   5  -3   3   17.30    0.80 
  -5  -3  -3   27.40    1.10 
   5  -3   3   16.70    0.70 
  -3   3  -3  460.65    2.40 
   3  -3   3  465.55    2.10 
   3  -3   3  457.75    2.30 
   1  -3   3  368.66    1.90 
  -1  -3  -3  364.56    1.20 
   1  -3  -3  307.57    1.30 
   1   3  -3  290.77    1.50 
   1  -3  -3  288.17    1.60 
  -1  -3   3  264.07    1.50 
   3  -3  -3  274.17    1.50 
   3  -3  -3  191.48    1.40 
  -3  -3   3  227.18    1.10 
   3  -3  -3  305.57    1.50 
   3  -3  -3  197.78    1.20 
   3   3  -3  213.18    1.50 
  -3  -3   3  227.28    1.50 
  -5  -3   3  642.24    2.60 
   5   3  -3  568.34    2.50 
   5  -3  -3  722.13    2.70 
   5   3  -3  406.76    1.40 
  -5   3   3  529.05    1.20 
   5  -3  -3  740.23    2.10 
  -5  -3   3  630.14    2.30 
   5  -3  -3  397.06    1.90 
   7   3  -3   51.79    1.20 
  -7  -3   3   58.19    1.30 
   7  -3  -3   31.30    1.00 
   7  -3  -3   64.79    0.80 
  -7  -3   3   59.09    1.00 
  -7   3   3   55.69    0.90 
   7   3  -3   43.00    0.60 
   7  -3  -3   62.59    1.30 
   9  -3  -3  135.89    1.70 
  -9  -3   3  131.49    1.20 
  -9   3   3  127.29    1.20 
  11  -3  -3  584.14    3.40 
  11  -3  -3  317.77    2.50 
  13   3  -3  226.18    3.00 
  13  -3  -3  310.97    2.80 
 -13  -3   3  327.07    3.30 
  13  -3  -3  183.08    2.40 
  15   3  -3    9.00    1.40 
  15  -3  -3    8.40    1.20 
  17  -3  -3   17.00    1.70 
  17   3  -3   16.20    1.90 
  14  -4   3   49.20    2.00 
  14   4   3   48.90    2.10 
 -14  -4  -3   60.99    2.50 
  12  -4   3   50.29    1.90 
  12   4   3   47.10    2.00 
  10   4   3    2.50    0.90 
  10  -4   3    1.50    0.70 
 -10  -4  -3    2.30    1.00 
   8  -4   3    2.10    0.70 
  -8  -4  -3    3.50    1.10 
   6  -4   3  162.28    1.90 
   6  -4   3  158.08    1.50 
   4  -4   3   22.90    1.00 
  -4   4  -3   20.90    1.00 
   4  -4   3   21.90    0.80 
  -2  -4  -3   60.99    1.20 
  -2  -4  -3   64.99    1.40 
   2  -4   3   48.80    1.20 
   2  -4   3   44.60    1.00 
   0  -4  -3   76.39    1.20 
   0  -4   3   68.99    1.20 
   0  -4  -3   84.09    0.90 
   0  -4   3   67.19    1.20 
   0  -4  -3   94.09    1.40 
   2   4  -3  171.78    1.50 
  -2  -4   3  179.58    1.60 
   2  -4  -3  191.48    1.40 
   2  -4  -3  171.58    1.50 
   2  -4  -3  243.78    1.50 
  -2  -4   3  192.18    1.10 
   2  -4  -3  266.37    1.80 
   2  -4  -3  194.28    0.60 
  -4  -4   3    2.80    0.60 
  -4  -4   3    1.90    0.60 
   4   4  -3    2.50    0.50 
   4  -4  -3    3.40    0.70 
   4   4  -3    2.00    0.60 
  -4  -4   3    2.10    0.50 
   4  -4  -3    3.30    0.80 
   4  -4  -3    3.70    0.60 
   4  -4  -3    4.30    0.70 
  -6  -4   3   33.10    1.20 
   6  -4  -3   39.40    1.10 
  -6  -4   3   28.30    1.00 
   6   4  -3   20.50    0.60 
  -6  -4   3   36.80    1.10 
   6  -4  -3   22.40    0.90 
  -6   4   3   25.20    0.40 
   6  -4  -3   40.70    0.90 
   6   4  -3   30.90    1.20 
   8  -4  -3  131.39    1.60 
   8  -4  -3  252.77    2.20 
   8  -4  -3  259.47    1.40 
  -8  -4   3  191.28    1.90 
  -8  -4   3  238.68    1.80 
 -10  -4   3   28.40    1.50 
 -10  -4   3   30.00    1.00 
  12  -4  -3   14.60    1.20 
 -12  -4   3   12.00    1.40 
  14  -4  -3    2.50    0.90 
 -14  -4   3    6.20    1.40 
  14   4  -3    6.00    1.50 
  16  -4  -3   66.19    2.10 
  16   4  -3   78.09    2.50 
  13   5   3  278.47    3.60 
  13  -5   3  313.37    3.60 
  11   5   3   38.00    1.90 
  11  -5   3   40.50    1.80 
  -9   5  -3   16.40    1.10 
   9  -5   3   20.30    1.50 
   7  -5   3  156.38    2.20 
   7  -5   3  161.48    1.70 
   5  -5   3  537.65    3.00 
   5  -5   3  563.54    2.70 
   3  -5   3    4.30    0.80 
  -3  -5  -3    6.10    0.80 
  -3  -5  -3    7.80    1.00 
   3  -5   3    4.80    0.60 
  -1  -5  -3  131.29    1.60 
  -1  -5  -3  158.08    1.80 
   1  -5   3  111.59    1.50 
  -1  -5  -3  155.08    1.00 
   1  -5   3  115.09    1.50 
   1   5  -3  592.24    2.30 
   1  -5  -3  701.93    2.80 
  -1  -5   3  682.03    1.80 
   1  -5  -3  754.82    1.60 
   1  -5  -3  997.70    3.50 
   1  -5  -3  907.31    2.50 
  -1  -5   3  710.33    3.00 
   3  -5  -3  444.56    2.30 
   3  -5  -3  632.44    2.70 
   3  -5  -3  612.94    2.50 
  -3  -5   3  438.66    1.80 
   3  -5  -3  409.66    2.30 
   3   5  -3  416.66    2.20 
  -3  -5   3  472.75    2.50 
   5   5  -3   59.99    1.40 
   5  -5  -3   78.29    1.30 
   5  -5  -3   56.49    1.20 
   5  -5  -3   84.69    1.30 
   5  -5  -3   54.79    1.20 
  -5  -5   3   67.19    1.30 
  -5  -5   3   54.99    1.00 
   7  -5  -3  121.39    1.70 
   7  -5  -3  211.38    2.00 
   7  -5  -3  217.08    1.60 
  -7  -5   3  196.38    1.90 
  -7  -5   3  160.78    1.70 
  -9  -5   3  613.24    3.00 
   9  -5  -3  665.83    3.60 
  -9  -5   3  487.15    3.00 
   9  -5  -3  350.86    2.60 
  11  -5  -3   74.69    1.60 
 -11  -5   3  111.29    2.00 
 -13  -5   3    1.00    0.70 
  13  -5  -3    1.00    0.80 
  15   5  -3   66.89    2.30 
  15  -5  -3   58.79    1.90 
  17  -5  -3   37.80    1.80 
  17   5  -3   46.30    2.30 
  12   6   3   11.20    1.60 
  12  -6   3   12.50    1.30 
  10  -6   3  281.87    3.30 
 -10  -6  -3  365.46    3.80 
   8  -6   3  284.77    3.00 
  -8  -6  -3  376.06    3.50 
   6  -6   3    1.00    0.60 
   6  -6   3    1.30    0.50 
   4  -6   3  127.19    1.90 
  -4  -6  -3  182.98    2.30 
   4  -6   3  134.29    1.70 
  -4  -6  -3  165.48    2.20 
  -2  -6  -3  879.01    3.80 
   2  -6   3  734.43    3.40 
   2  -6   3  830.12    3.60 
  -2  -6  -3 1035.00    4.00 
   0   6  -3   59.29    1.10 
   0  -6  -3  102.39    1.80 
   0  -6  -3   76.99    1.40 
   0  -6  -3  100.69    1.10 
   0  -6   3   81.69    1.60 
   2   6  -3    4.20    0.60 
   2  -6  -3    3.20    0.60 
   2  -6  -3    5.90    0.70 
  -2  -6   3    3.50    0.40 
  -2  -6   3    5.40    1.00 
   2  -6  -3    5.10    0.60 
  -4  -6   3  455.55    2.30 
   4  -6  -3  612.84    2.80 
   4   6  -3  423.26    2.40 
   4  -6  -3  426.96    2.60 
   4  -6  -3  622.04    3.00 
  -4  -6   3  519.55    3.00 
   4  -6  -3  401.06    2.40 
   6  -6  -3  450.25    2.80 
  -6  -6   3  512.65    2.70 
   6  -6  -3  724.43    3.10 
  -6  -6   3  642.94    3.30 
   6  -6  -3  726.63    3.50 
  -8  -6   3   11.80    0.80 
  -8  -6   3    8.70    0.90 
   8  -6  -3   13.80    0.90 
   8  -6  -3   16.50    1.20 
   8  -6  -3    7.60    0.90 
  10  -6  -3   58.89    1.70 
 -10  -6   3   76.39    1.80 
 -10  -6   3   98.99    1.80 
  12  -6  -3  280.37    2.80 
 -12  -6   3  399.36    3.60 
  14  -6  -3   52.29    1.90 
 -14  -6   3   74.39    2.10 
  16   6  -3   19.50    1.70 
  16  -6  -3   21.60    1.60 
  11  -7   3  108.79    2.60 
 -11  -7  -3  134.69    2.90 
   9  -7   3  268.07    3.20 
  -9  -7  -3  332.77    3.40 
  -7  -7  -3   94.59    2.40 
   7  -7   3   73.09    2.00 
   5  -7   3   32.60    1.60 
  -5  -7  -3   40.80    1.40 
  -5  -7  -3   49.80    1.90 
   5  -7   3   40.00    1.40 
  -3  -7  -3  499.85    3.20 
   3  -7   3  430.96    3.00 
   3  -7   3  464.35    2.90 
  -1  -7  -3  232.78    2.30 
   1  -7   3  213.08    2.20 
   1  -7   3  248.08    2.50 
   1  -7  -3   15.40    1.10 
  -1  -7   3   17.20    1.10 
   3  -7  -3   23.70    1.10 
   3   7  -3   24.00    1.00 
   3  -7  -3   38.20    1.20 
   3  -7  -3   38.60    1.50 
  -3  -7   3   31.10    1.30 
  -5  -7   3  520.95    2.70 
   5  -7  -3  526.45    3.20 
   5  -7  -3  736.13    3.60 
  -5  -7   3  665.33    3.70 
   5  -7  -3  494.85    2.80 
   7  -7  -3    1.30    0.60 
  -7  -7   3    1.50    0.60 
  -7  -7   3    1.20    0.70 
   9  -7  -3    0.90    0.50 
  -9  -7   3    1.40    0.90 
  11  -7  -3  230.38    2.70 
 -11  -7   3  290.17    3.20 
  13  -7  -3  162.08    2.60 
 -13  -7   3  226.28    3.20 
  15  -7  -3   47.10    2.20 
 -15  -7   3   76.49    2.50 
  10  -8   3    1.00    0.80 
 -10  -8  -3    2.80    1.20 
   8  -8   3    1.40    0.90 
  -8  -8  -3    2.20    0.80 
  -6  -8  -3  307.57    3.20 
   6  -8   3  263.37    3.30 
  -6  -8  -3  361.86    3.50 
   6  -8   3  301.87    2.80 
  -4  -8  -3   68.19    2.20 
   4  -8   3   57.89    1.80 
  -4  -8  -3   53.19    1.90 
   4  -8   3   49.20    1.90 
  -2  -8  -3   71.79    2.00 
   2  -8   3   53.69    1.70 
  -2  -8  -3   66.09    1.80 
   2  -8   3   58.09    1.70 
   0  -8  -3  109.39    1.90 
   0  -8   3  115.59    1.90 
   2  -8  -3  258.37    2.50 
   2  -8  -3  378.76    3.20 
  -2  -8   3  323.97    3.10 
   4  -8  -3    0.70    0.70 
   4  -8  -3    0.60    0.60 
  -6  -8   3   35.20    1.80 
   6  -8  -3   38.60    1.70 
  -6  -8   3   28.10    1.30 
   6  -8  -3   41.10    1.70 
   6  -8  -3   33.70    1.50 
   8  -8  -3  254.37    3.00 
  -8  -8   3  261.47    2.60 
 -10  -8   3   37.00    1.70 
  10  -8  -3   30.70    1.70 
  12  -8  -3    7.40    1.50 
 -12  -8   3   10.20    1.40 
   9  -9   3    0.50    1.10 
  -9  -9  -3    1.40    0.80 
  -7  -9  -3   47.80    2.00 
   7  -9   3   41.80    2.20 
  -5  -9  -3  342.07    3.60 
   5  -9   3  348.17    3.30 
   3  -9   3   65.39    2.20 
  -3  -9  -3   70.59    2.00 
   3  -9   3   75.29    2.20 
  -1  -9  -3    5.80    1.00 
   1  -9   3    6.20    0.80 
  -1  -9   3  374.36    3.60 
   1  -9  -3  422.36    3.70 
   3  -9  -3  140.29    2.20 
  -3  -9   3  173.08    2.50 
   5  -9  -3  221.58    2.90 
  -5  -9   3  202.48    3.10 
  -7  -9   3   62.59    2.30 
   7  -9  -3   69.29    2.00 
   9  -9  -3  228.38    3.20 
  -9  -9   3  319.57    3.40 
  11  -9  -3    6.50    1.30 
 -11  -9   3    8.50    1.30 
 -11  -9   3    8.30    1.30 
   6 -10   3    3.50    1.30 
  -6 -10  -3    3.60    1.10 
  -6 -10  -3    2.80    1.30 
   6 -10   3    1.80    0.70 
  -4 -10  -3  152.58    2.60 
   4 -10   3  148.19    3.10 
  -2 -10  -3  751.42    4.60 
   2 -10   3  800.62    4.60 
   0 -10   3  111.09    2.70 
   0 -10  -3  126.49    2.80 
   2 -10  -3   25.80    1.60 
  -2 -10   3   26.20    2.10 
   4 -10  -3  580.34    4.30 
  -4 -10   3  504.55    4.20 
   6 -10  -3  670.83    4.40 
  -6 -10   3  603.14    4.50 
   8 -10  -3    1.10    0.80 
  -8 -10   3    0.00    0.60 
  10 -10  -3   97.89    2.60 
 -10 -10   3  133.69    3.10 
  -3 -11  -3  118.49    2.50 
   3 -11   3  138.89    2.80 
  -1 -11  -3   58.79    2.40 
   1 -11   3   49.80    2.20 
   1 -11  -3    1.80    0.70 
  -1 -11   3    2.90    1.30 
   3 -11  -3    2.30    1.00 
  -3 -11   3    0.20    0.60 
  -5 -11   3  200.98    3.50 
   5 -11  -3  218.88    3.40 
  14   0   4  156.68    2.90 
 -12   0  -4   68.89    1.90 
  12   0   4   50.99    1.80 
 -10   0  -4 2992.40    6.90 
  10   0   4 2232.38    6.50 
  -8   0  -4  718.13    3.30 
   8   0   4  459.05    2.80 
  -6   0  -4   29.60    1.00 
   6   0   4   18.00    0.90 
  -4   0  -4  384.26    1.90 
   4   0   4  227.18    1.60 
  -2   0  -4 9999.00   14.40 
   2   0   4 6024.70   10.70 
   0   0   4  323.27    0.90 
   0   0  -4  466.95    1.40 
   2   0  -4   63.59    0.70 
   2   0  -4   67.29    0.90 
   4   0  -4  918.61    2.30 
  -4   0   4  923.71    2.20 
   6   0  -4 8830.92   14.90 
  -6   0   4 7543.94    9.70 
   6   0  -4 7227.98   13.70 
  -6   0   4 8917.91   14.90 
   6   0  -4 7322.07   12.60 
  -8   0   4  153.78    1.60 
   8   0  -4  160.28    1.60 
 -10   0   4  105.19    1.60 
  10   0  -4   98.29    1.40 
  12   0  -4 1031.40    3.80 
  12   0  -4  845.92    3.80 
  14   0  -4 2808.52    6.60 
  14   0  -4 2554.14    7.20 
  16   0  -4   25.30    1.90 
  18   0  -4  319.27    3.60 
  13  -1   4  297.17    3.30 
  13   1   4  286.27    3.40 
 -11  -1  -4    5.10    1.00 
  11  -1   4    4.90    1.00 
  11   1   4    2.70    0.90 
  -9  -1  -4   53.59    1.40 
   9  -1   4   36.80    1.30 
   9   1   4   37.70    1.40 
  -9   1  -4   50.79    1.30 
  -7  -1  -4   91.79    1.60 
  -7   1  -4   87.69    1.30 
   7  -1   4   56.39    1.30 
   7   1   4   64.89    1.30 
   5  -1   4  578.24    2.50 
  -5   1  -4  924.31    2.70 
  -5  -1  -4  931.11    3.10 
   5   1   4  602.24    2.50 
  -3  -1  -4  154.68    1.40 
   3   1   4   98.39    1.00 
  -3   1  -4  154.38    1.10 
   3  -1   4   95.39    1.10 
  -1  -1  -4  159.78    1.20 
   1  -1   4   98.19    0.80 
   1   1   4  107.99    0.80 
  -1   1  -4  149.99    0.80 
   1  -1  -4  187.98    1.10 
  -1  -1   4  188.78    0.80 
   1  -1  -4  189.48    1.20 
   1   1  -4  211.88    1.30 
   3  -1  -4  197.28    1.30 
  -3  -1   4  194.18    1.10 
   3  -1  -4  183.68    1.20 
   3   1  -4  186.28    1.20 
  -5  -1   4  206.98    1.10 
  -5  -1   4  234.88    1.50 
   5   1  -4  225.58    1.40 
   5  -1  -4  201.58    1.40 
   5   1  -4  176.48    1.20 
   5  -1  -4  239.48    1.30 
  -5   1   4  222.78    1.20 
   5  -1  -4  126.49    0.90 
   7  -1  -4   55.99    1.10 
   7   1  -4   56.49    1.30 
   7  -1  -4   52.69    1.20 
  -7   1   4   51.49    1.10 
   7   1  -4   42.50    0.80 
   7  -1  -4   32.90    0.90 
  -7  -1   4   52.79    1.20 
  -7  -1   4   47.10    0.70 
  -9   1   4  759.32    2.80 
   9   1  -4  755.22    3.20 
   9   1  -4  671.13    2.50 
   9   1  -4  545.95    2.80 
  -9  -1   4  795.12    3.20 
   9  -1  -4  458.95    2.40 
   9  -1  -4  755.32    3.00 
 -11   1   4   89.69    1.50 
  11   1  -4   80.29    1.20 
  11  -1  -4   61.19    1.50 
  11   1  -4   62.89    1.50 
  11  -1  -4   86.39    1.50 
  13  -1  -4   62.29    1.50 
  13   1  -4   44.50    1.70 
  13   1  -4   57.69    1.30 
  13  -1  -4   43.00    1.60 
  15  -1  -4    3.90    0.90 
  15   1  -4    5.30    1.20 
  17   1  -4  264.77    3.60 
  17  -1  -4  253.27    3.20 
  14  -2   4   87.09    2.30 
  14   2   4   88.79    2.40 
 -12  -2  -4  692.93    4.60 
  12  -2   4  533.85    4.00 
  12   2   4  531.95    4.00 
  10  -2   4   10.90    1.20 
  10   2   4   11.60    1.40 
   8  -2   4   60.79    1.50 
   8   2   4   56.69    1.40 
   6  -2   4  323.27    2.20 
   6  -2   4  335.07    1.90 
  -6  -2  -4  509.15    2.70 
  -6   2  -4  502.25    2.10 
   6   2   4  320.17    2.20 
   4  -2   4  716.23    2.60 
   4   2   4  727.63    2.60 
  -4  -2  -4 1148.59    3.50 
   4  -2   4  729.33    2.80 
  -4   2  -4 1161.18    2.50 
   2  -2   4   22.50    0.80 
   2  -2   4   25.60    1.00 
  -2   2  -4   25.00    0.40 
  -2  -2  -4   23.30    0.70 
  -2  -2  -4   24.00    0.90 
  -2   2  -4   27.10    1.10 
   0  -2   4   89.69    1.00 
   0  -2  -4   87.79    0.90 
   2  -2  -4 1156.58    2.60 
   2  -2  -4 1171.18    2.80 
  -4  -2   4  167.48    1.20 
   4  -2  -4  197.38    1.00 
   4  -2  -4  166.48    1.20 
   4   2  -4  187.98    1.50 
   4  -2  -4  133.29    0.80 
  -4  -2   4  213.18    1.50 
   4  -2  -4  186.18    1.40 
   4   2  -4  152.98    1.10 
   6  -2  -4   24.70    0.80 
  -6   2   4   22.90    0.70 
   6  -2  -4   21.10    1.00 
   6   2  -4   24.40    0.80 
  -6  -2   4   22.40    1.10 
   6  -2  -4   20.20    0.80 
   6   2  -4   21.60    1.10 
  -6  -2   4   22.80    0.70 
   8   2  -4  933.41    3.40 
   8  -2  -4  522.35    2.40 
  -8  -2   4  971.00    3.50 
   8   2  -4  734.83    2.30 
  -8  -2   4  962.20    2.40 
  -8   2   4  897.41    2.60 
   8  -2  -4 1000.50    3.40 
 -10   2   4  425.16    2.20 
  10  -2  -4  437.16    2.70 
  12  -2  -4   14.00    1.10 
  12   2  -4   10.80    1.20 
  14  -2  -4   22.40    1.20 
  14   2  -4   24.00    1.40 
  16  -2  -4  544.35    4.10 
  16   2  -4  514.35    4.40 
  18   2  -4  101.89    2.80 
  18  -2  -4   95.09    2.50 
  13  -3   4   95.19    2.40 
  13   3   4   99.49    2.50 
  11  -3   4   50.79    1.80 
  11   3   4   44.40    1.40 
   9  -3   4   94.19    1.90 
   9   3   4   83.89    1.90 
   7   3   4   95.29    1.70 
   7  -3   4   91.99    1.30 
   5  -3   4  187.78    1.50 
   5  -3   4  220.38    2.00 
  -3   3  -4  304.97    2.10 
  -3  -3  -4  308.17    1.40 
   1  -3   4  296.67    1.80 
  -1  -3  -4  267.27    1.30 
  -1   3  -4  339.97    2.20 
   1  -3   4  318.67    1.80 
  -1  -3   4   34.40    0.90 
  -1  -3   4   40.40    0.90 
   1  -3  -4   41.10    1.00 
   1  -3  -4   35.40    0.80 
   3  -3  -4   32.20    0.90 
   3  -3  -4   35.90    0.70 
   3  -3  -4   39.30    0.90 
  -3  -3   4   35.30    1.00 
   3   3  -4   35.90    1.00 
   5  -3  -4  444.06    2.20 
   5  -3  -4  563.34    1.40 
   5  -3  -4  351.96    1.70 
   5   3  -4  459.15    2.30 
   5  -3  -4  567.24    2.40 
  -5  -3   4  522.15    2.50 
   5   3  -4  385.66    1.70 
  -5  -3   4  446.56    2.00 
   7   3  -4  216.18    1.40 
  -7   3   4  252.87    1.30 
  -7  -3   4  302.87    2.20 
   7   3  -4  274.77    2.20 
   7  -3  -4  329.37    2.20 
   7  -3  -4  170.48    1.50 
  -7  -3   4  292.97    1.70 
  -9   3   4  237.08    1.50 
   9   3  -4  203.38    1.40 
   9  -3  -4  275.37    2.20 
   9  -3  -4  139.49    1.60 
  -9  -3   4  272.07    1.70 
  11  -3  -4  188.88    2.10 
  11  -3  -4  102.89    1.80 
  13   3  -4  130.39    2.40 
  13  -3  -4  103.99    2.00 
  15   3  -4   35.40    1.80 
  15  -3  -4   31.80    1.60 
  17  -3  -4   66.99    2.20 
 -17  -3   4   99.99    2.90 
  17   3  -4   66.79    2.50 
  12  -4   4   62.69    2.10 
  12   4   4   58.29    2.00 
  10  -4   4 1734.33    6.40 
  10   4   4 1449.26    5.80 
   8   4   4  271.17    2.70 
   8  -4   4  316.07    2.80 
   6  -4   4   11.30    0.80 
   6  -4   4   11.10    0.80 
  -6   4  -4   12.40    0.80 
   4  -4   4  191.98    1.70 
  -4   4  -4  194.88    1.90 
   2  -4   4 4928.51   13.80 
   2  -4   4 5032.20    7.20 
   0  -4   4  307.67    2.00 
   0  -4  -4  380.66    2.30 
   0  -4  -4  337.77    1.50 
   0  -4   4  286.77    1.90 
   2  -4  -4   13.40    0.80 
  -2  -4   4   15.30    0.50 
   2  -4  -4   14.50    1.00 
   2   4  -4   14.10    1.00 
  -2  -4   4   13.50    1.10 
   2  -4  -4   15.10    1.10 
   4  -4  -4  514.15    2.50 
  -4  -4   4  560.64    2.40 
   4  -4  -4  696.13    2.70 
  -4  -4   4  556.44    2.00 
   4  -4  -4  798.92    2.80 
   4   4  -4  543.85    2.50 
   4  -4  -4  541.45    2.20 
  -4  -4   4  604.74    2.70 
   6   4  -4 5761.52    7.80 
   6   4  -4 4379.56    5.00 
  -6  -4   4 6376.66   14.50 
   6  -4  -4 7346.27    8.80 
   6  -4  -4 7906.41   15.10 
  -6  -4   4 6801.72   15.80 
  -6  -4   4 5743.52   15.20 
   6  -4  -4 4578.54    6.40 
   8  -4  -4  174.48    2.00 
  -8  -4   4  147.79    1.80 
  -8  -4   4  159.48    1.70 
  10  -4  -4   67.19    1.70 
 -10  -4   4   58.89    1.50 
 -10  -4   4   67.79    1.30 
  12  -4  -4  736.63    4.00 
 -12  -4   4  729.93    3.90 
  14   4  -4 1588.04    6.60 
  14  -4  -4 2258.27    7.30 
 -14  -4   4 2537.95    7.80 
  14  -4  -4 1352.76    5.70 
  16  -4  -4   25.00    1.50 
  16   4  -4   32.30    1.90 
 -13  -5  -4  280.67    3.70 
  13  -5   4  237.68    3.50 
  13   5   4  205.88    3.30 
 -11   5  -4   21.90    1.20 
  11   5   4   20.50    1.60 
  -9   5  -4    1.90    0.70 
   9   5   4    2.20    0.80 
   9  -5   4    2.30    1.00 
  -7   5  -4    3.70    0.70 
   7  -5   4    2.10    0.70 
  -7  -5  -4    3.10    0.70 
   7  -5   4    2.70    0.60 
  -5   5  -4  376.96    2.50 
   5  -5   4  407.06    2.50 
   3  -5   4   17.20    1.00 
   3  -5   4   16.00    1.00 
  -1  -5  -4    6.90    0.80 
  -1  -5  -4    6.70    0.40 
   1  -5   4    6.30    0.80 
   1  -5  -4  259.47    1.50 
   1  -5  -4  218.28    1.90 
   1   5  -4  188.78    1.70 
  -1  -5   4  203.48    1.90 
   1  -5  -4  293.27    2.20 
   3  -5  -4  205.88    1.60 
   3   5  -4  185.58    1.70 
   3  -5  -4  254.47    1.70 
  -3  -5   4  217.48    1.30 
   3  -5  -4  290.17    2.10 
  -3  -5   4  202.88    1.80 
   3  -5  -4  193.18    1.80 
   5  -5  -4    3.70    0.70 
  -5  -5   4    4.10    0.70 
  -5  -5   4    3.20    0.50 
   5  -5  -4    7.00    0.80 
   5  -5  -4    3.60    0.70 
  -5  -5   4    5.30    1.00 
   5   5  -4    4.30    0.90 
   5  -5  -4    4.70    0.70 
   5   5  -4    3.40    0.50 
   7  -5  -4   49.70    1.40 
  -7  -5   4   37.20    1.20 
   7  -5  -4   52.19    1.10 
   7  -5  -4   31.40    1.10 
  -7  -5   4   45.10    1.30 
  -9  -5   4  621.34    3.10 
   9  -5  -4  647.24    3.50 
  -9  -5   4  508.55    3.10 
   9  -5  -4  360.56    2.60 
  11  -5  -4    1.30    0.60 
  11  -5  -4    2.20    0.90 
 -11  -5   4    2.30    0.80 
  13  -5  -4   11.70    1.40 
  13  -5  -4    7.10    1.10 
 -13  -5   4    9.70    1.50 
  15   5  -4   48.00    2.50 
  15  -5  -4   37.30    1.70 
  17  -5  -4  174.08    2.90 
  17   5  -4  205.18    3.60 
  12  -6   4  182.38    3.20 
 -12  -6  -4  219.88    3.30 
  12   6   4  147.69    2.80 
  10   6   4   18.40    1.60 
  10  -6   4   20.00    1.70 
  -8   6  -4   22.00    1.10 
  -8  -6  -4   37.30    2.00 
   8  -6   4   29.40    1.50 
   6  -6   4  352.86    3.10 
   6  -6   4  333.07    2.50 
   4  -6   4  262.97    2.50 
   4  -6   4  250.57    2.30 
   2  -6   4   40.50    1.40 
  -2  -6  -4   55.39    1.60 
  -2  -6  -4   50.69    1.60 
   2  -6   4   38.50    1.30 
   0  -6  -4   20.90    1.00 
   0  -6   4   18.70    1.20 
   0  -6   4   18.80    1.10 
   0   6  -4   16.60    0.80 
   2   6  -4  522.95    2.50 
   2  -6  -4  917.91    3.80 
   2  -6  -4  848.22    2.90 
  -2  -6   4  677.43    3.40 
   2  -6  -4  595.44    3.00 
   4  -6  -4   46.30    1.30 
   4  -6  -4   48.60    1.10 
  -4  -6   4   52.79    1.00 
   4  -6  -4   65.39    1.30 
   4  -6  -4   65.79    1.40 
   4   6  -4   44.70    1.20 
  -4  -6   4   57.89    1.50 
   6  -6  -4   44.00    1.30 
   6  -6  -4   59.89    1.50 
  -6  -6   4   48.10    1.20 
   6  -6  -4   66.59    1.50 
  -6  -6   4   53.19    1.50 
   6  -6  -4   48.40    1.40 
   8  -6  -4  305.37    2.70 
  -8  -6   4  216.98    2.20 
   8  -6  -4  308.27    2.20 
  -8  -6   4  287.57    2.60 
   8  -6  -4  176.78    2.10 
  10  -6  -4  419.56    3.30 
 -10  -6   4  301.47    2.70 
 -10  -6   4  405.76    3.00 
  10  -6  -4  241.88    2.50 
  12  -6  -4    2.10    0.80 
 -12  -6   4    3.80    0.80 
  14  -6  -4   25.40    1.50 
 -14  -6   4   35.20    1.80 
  16   6  -4  124.19    3.10 
  16  -6  -4  108.89    2.50 
  11  -7   4  105.29    2.80 
 -11  -7  -4  121.59    2.70 
   9  -7   4   69.79    2.30 
  -9  -7  -4   89.19    2.30 
   7  -7   4   71.29    2.10 
  -7  -7  -4   92.29    2.30 
   5  -7   4    0.00    0.50 
  -5  -7  -4    0.50    0.60 
   5  -7   4    0.20    0.40 
   3  -7   4  264.77    2.70 
  -3  -7  -4  314.97    2.90 
  -3  -7  -4  360.36    3.20 
   3  -7   4  266.77    2.60 
   1  -7   4  259.47    2.70 
  -1  -7  -4  287.47    2.70 
   1  -7   4  271.17    2.60 
   1  -7  -4    8.70    1.00 
   1  -7  -4   13.00    1.20 
  -1  -7   4   10.60    1.20 
   3  -7  -4   23.80    1.00 
   3  -7  -4   26.40    1.50 
  -3  -7   4   21.80    1.20 
   5  -7  -4  280.97    2.50 
   5  -7  -4  255.27    2.20 
   5  -7  -4  367.56    2.50 
   5  -7  -4  379.26    2.70 
  -5  -7   4  352.56    3.00 
   7  -7  -4  368.76    2.90 
   7  -7  -4  248.68    2.40 
  -7  -7   4  263.67    2.30 
   7  -7  -4  401.16    2.80 
  -7  -7   4  345.97    3.10 
  -9  -7   4    1.00    0.60 
  -9  -7   4    0.80    0.60 
  11  -7  -4   93.89    2.10 
 -11  -7   4  122.69    2.50 
 -11  -7   4  147.39    2.30 
  13  -7  -4   74.99    2.10 
 -13  -7   4   98.39    2.40 
  15  -7  -4   86.39    2.30 
 -15  -7   4  134.09    3.10 
 -10  -8  -4  851.61    6.00 
  10  -8   4  721.23    5.40 
   8  -8   4   68.19    2.10 
  -8  -8  -4   85.89    2.50 
   6  -8   4    5.00    1.30 
  -6  -8  -4    6.70    1.10 
   6  -8   4    5.80    1.10 
   4  -8   4  164.88    2.70 
   4  -8   4  170.48    2.50 
  -2  -8  -4 2054.89    6.30 
   2  -8   4 2082.09    6.50 
   0  -8  -4  180.38    2.70 
   0  -8  -4  126.09    2.10 
   0  -8   4  154.98    2.30 
  -2  -8   4    0.00    0.50 
   2  -8  -4    0.70    0.60 
   2  -8  -4    0.30    0.50 
  -4  -8   4  233.78    2.60 
   4  -8  -4  187.88    2.20 
   4  -8  -4  298.87    2.90 
   6  -8  -4 1911.51    6.00 
  -6  -8   4 2472.15    7.20 
   6  -8  -4 2775.62    7.00 
   6  -8  -4 1874.71    5.60 
  -8  -8   4  120.09    2.00 
   8  -8  -4  109.19    2.30 
  10  -8  -4    9.50    1.20 
 -10  -8   4   12.90    1.20 
 -10  -8   4   15.70    1.40 
 -12  -8   4  158.18    2.70 
  12  -8  -4  124.89    2.50 
  14  -8  -4  530.15    4.60 
 -14  -8   4  749.03    5.30 
   7  -9   4    7.00    1.30 
  -7  -9  -4   11.00    1.50 
   5  -9   4  125.19    2.60 
   5  -9   4  129.59    2.40 
  -5  -9  -4  134.39    2.40 
   3  -9   4  173.98    3.00 
   3  -9   4  170.78    2.50 
  -1  -9  -4  138.29    2.30 
   1  -9   4  146.49    2.60 
   1  -9  -4   81.89    2.00 
  -1  -9   4   92.39    2.10 
   3  -9  -4   68.49    1.60 
  -3  -9   4   84.09    2.30 
   5  -9  -4  165.18    2.20 
   5  -9  -4  261.37    3.00 
  -5  -9   4  210.58    2.90 
   7  -9  -4  220.38    2.70 
  -7  -9   4  193.48    3.00 
   9  -9  -4  143.39    2.70 
  -9  -9   4  200.28    3.20 
  11  -9  -4   10.50    1.30 
 -11  -9   4   15.20    1.50 
  -6 -10  -4  352.46    3.80 
   6 -10   4  353.46    4.20 
   4 -10   4    8.30    1.20 
   4 -10   4    7.70    1.00 
  -4 -10  -4    7.70    1.40 
  -2 -10  -4  113.69    2.50 
   2 -10   4  118.39    2.60 
   0 -10  -4    1.50    0.60 
   0 -10   4    2.40    0.80 
   2 -10  -4  516.75    3.70 
  -2 -10   4  612.14    4.40 
   4 -10  -4    3.70    1.20 
  -4 -10   4    0.70    0.90 
  -6 -10   4  137.59    2.90 
   6 -10  -4  159.38    2.90 
   8 -10  -4    0.90    0.70 
  -8 -10   4    1.20    1.00 
  10 -10  -4  259.27    3.40 
 -10 -10   4  373.26    4.20 
  -1 -11  -4  110.59    2.80 
  -1 -11  -4   73.29    2.10 
   1 -11   4   93.39    2.90 
   1 -11  -4   64.79    2.20 
  -1 -11   4   61.99    2.60 
   3 -11  -4  100.69    2.70 
  -3 -11   4   85.99    2.70 
   5 -11  -4   97.39    2.70 
  -5 -11   4   76.49    2.50 
  14   0   5    0.80    0.80 
  12   0   5    0.20    0.50 
 -10   0  -5    2.50    0.90 
  10   0   5    0.20    0.40 
  -8   0  -5    1.10    0.80 
   8   0   5    0.20    0.40 
  -6   0  -5    1.40    0.70 
   6   0   5    0.70    0.40 
  -4   0  -5    3.50    0.60 
   4   0   5    0.00    0.30 
  -2   0  -5    1.80    0.60 
   2   0   5    1.20    0.30 
   0   0  -5    2.90    0.40 
   0   0   5    3.00    0.30 
   2   0  -5    0.40    0.40 
   2   0  -5    0.20    0.30 
   4   0  -5   11.40    0.70 
   4   0  -5    9.80    0.70 
  -6   0   5    1.20    0.50 
   6   0  -5    1.50    0.50 
   6   0  -5    1.40    0.50 
   6   0  -5    1.60    0.50 
  -8   0   5    8.90    0.80 
  -8   0   5    9.70    0.40 
   8   0  -5   10.60    0.90 
   8   0  -5   10.40    0.80 
   8   0  -5    8.00    0.80 
 -10   0   5    1.00    0.40 
  10   0  -5    0.30    0.30 
  10   0  -5    0.30    0.40 
  10   0  -5    1.10    0.50 
  12   0  -5    1.50    0.50 
  12   0  -5    5.30    1.00 
  14   0  -5    0.30    0.40 
  14   0  -5    3.40    1.00 
  16   0  -5    0.40    0.70 
  16   0  -5    1.60    1.10 
  18   0  -5    1.50    1.30 
 -13  -1  -5    0.50    0.80 
  13  -1   5    1.60    0.90 
  13   1   5    1.10    0.70 
 -11  -1  -5    4.70    1.10 
  11  -1   5    4.50    1.10 
  11   1   5    2.70    0.80 
   9  -1   5    4.60    0.80 
   9   1   5    4.00    0.80 
  -7   1  -5    5.20    0.80 
   7   1   5    5.60    0.80 
   5  -1   5   11.40    0.80 
  -5  -1  -5   18.00    0.90 
  -5   1  -5   16.50    0.70 
   5   1   5   11.60    0.80 
  -3   1  -5   69.79    0.90 
   3  -1   5   47.50    0.90 
  -3  -1  -5   71.69    1.10 
   3   1   5   50.79    0.90 
  -1   1  -5   59.69    0.70 
  -1  -1  -5   69.59    1.00 
   1  -1   5   45.00    0.80 
  -1  -1  -5   50.59    1.00 
   1   1   5   45.80    0.60 
  -1  -1   5   35.70    0.50 
   1  -1  -5   36.00    0.80 
   1  -1  -5   34.10    0.90 
   3  -1  -5    3.90    0.50 
   3   1  -5    4.00    0.60 
   3  -1  -5    4.50    0.50 
   5   1  -5   91.09    1.20 
  -5  -1   5   74.29    0.90 
   5  -1  -5   92.29    1.00 
  -5  -1   5   95.49    1.20 
   5   1  -5   69.19    1.00 
   5  -1  -5   49.80    0.60 
   5  -1  -5   72.69    1.10 
  -7  -1   5  201.18    1.20 
  -7  -1   5  232.48    1.80 
  -7   1   5  223.38    1.60 
   7  -1  -5  237.28    1.60 
   7  -1  -5  211.88    1.70 
   7  -1  -5  136.39    1.30 
   7   1  -5  184.38    1.50 
   7   1  -5  231.58    1.90 
   9   1  -5  134.89    1.60 
  -9   1   5  171.58    1.60 
   9  -1  -5  195.68    1.70 
  -9  -1   5  179.58    1.80 
   9  -1  -5  177.08    1.70 
   9   1  -5  180.08    1.80 
   9   1  -5  158.58    1.50 
   9  -1  -5  119.39    1.40 
  -9  -1   5  170.08    1.10 
 -11   1   5    3.10    0.60 
  11  -1  -5    3.00    0.50 
  11   1  -5    3.10    0.50 
  11   1  -5    2.50    0.80 
  13  -1  -5   18.30    1.30 
  13   1  -5   15.40    0.70 
  13  -1  -5   16.60    1.30 
  13   1  -5   12.80    1.10 
  15  -1  -5  184.98    2.40 
  15  -1  -5  161.18    2.60 
  15   1  -5  163.08    2.50 
  17  -1  -5  188.98    2.60 
  17  -1  -5  181.18    2.80 
  17   1  -5  188.28    2.90 
  19  -1  -5    0.60    1.00 
  19   1  -5    1.20    1.20 
  14  -2   5   10.80    1.40 
  12  -2   5   21.00    1.50 
  12   2   5   22.10    1.70 
  10  -2   5   13.30    1.20 
  10   2   5   14.20    1.30 
   8  -2   5   17.60    1.20 
  -8  -2  -5   23.80    1.30 
   8   2   5   20.30    1.20 
   6  -2   5    5.50    0.70 
  -6  -2  -5    5.10    0.70 
   6  -2   5    3.70    0.70 
   6   2   5    4.00    0.60 
   4  -2   5   28.30    0.90 
  -4  -2  -5   37.40    1.00 
  -4   2  -5   36.90    0.70 
   4  -2   5   24.70    0.90 
   4   2   5   24.50    0.90 
   2   2   5  112.59    1.10 
   2  -2   5  109.09    1.40 
  -2  -2  -5  113.69    1.20 
   2  -2   5  108.79    1.20 
  -2   2  -5  143.79    0.80 
  -2  -2  -5  157.28    1.50 
  -2   2  -5  117.59    1.60 
   0  -2   5   17.30    0.90 
   0   2  -5   18.70    1.10 
   0  -2  -5   20.80    0.90 
   0  -2   5   19.60    0.70 
   0  -2  -5   20.80    0.90 
  -2  -2   5    1.10    0.50 
   2  -2  -5    1.40    0.50 
   4   2  -5    7.50    0.70 
  -4  -2   5    6.80    0.60 
   4   2  -5    9.20    0.80 
   4  -2  -5    8.00    0.60 
   4  -2  -5    7.30    0.40 
   4  -2  -5    7.30    0.80 
   4  -2  -5    7.10    0.70 
  -6  -2   5  168.78    1.40 
  -6  -2   5  199.08    1.90 
   6  -2  -5  189.48    1.30 
   6   2  -5  169.48    1.70 
   6   2  -5  135.29    1.30 
   6  -2  -5  109.69    1.00 
   6  -2  -5  180.08    1.70 
  -6   2   5  179.48    1.20 
  -8   2   5    8.60    0.60 
   8   2  -5    9.30    1.10 
   8  -2  -5    8.20    0.70 
   8  -2  -5    7.70    0.90 
   8  -2  -5    8.10    0.70 
  -8  -2   5    7.70    0.90 
   8   2  -5    7.60    0.60 
  -8  -2   5    9.20    0.60 
 -10   2   5    4.00    0.50 
  10   2  -5    3.30    0.50 
  10  -2  -5    3.80    0.80 
  12   2  -5   26.50    1.50 
 -12   2   5   27.10    0.90 
  12   2  -5   28.70    0.90 
  14  -2  -5   31.40    1.30 
  14   2  -5   36.70    1.70 
  16  -2  -5    0.80    0.60 
  16  -2  -5    1.30    0.70 
  16   2  -5    0.30    0.60 
  18  -2  -5    1.70    0.80 
  18   2  -5    0.80    0.90 
 -13  -3  -5   14.80    1.60 
  13  -3   5   11.60    1.30 
  13   3   5   13.40    1.50 
 -11  -3  -5   12.50    1.50 
  11   3   5   11.70    1.50 
   9  -3   5   79.49    1.90 
   9   3   5   70.29    1.80 
   7  -3   5   25.30    1.00 
   7   3   5   27.10    1.40 
   5   3   5   26.80    1.10 
   5  -3   5   24.00    0.90 
   5  -3   5   25.60    1.00 
   3  -3   5   14.30    0.70 
   3  -3   5   17.50    0.90 
  -3   3  -5   15.90    1.10 
  -3  -3  -5   17.20    0.70 
  -1   3  -5  423.56    2.40 
   1  -3   5  387.36    2.20 
   1  -3   5  434.46    2.10 
  -1  -3  -5  383.76    1.80 
  -1  -3   5    5.90    0.90 
   1  -3  -5    8.00    0.70 
   1  -3  -5    5.50    0.80 
  -1  -3   5    5.60    0.60 
  -3  -3   5   28.70    1.10 
   3  -3  -5   31.40    0.60 
   3   3  -5   32.00    1.20 
   3  -3  -5   27.60    1.00 
   3  -3  -5   24.80    0.70 
   5   3  -5  119.69    1.60 
   5  -3  -5  115.99    1.60 
   5  -3  -5  130.39    0.90 
   5  -3  -5  100.59    1.10 
  -5  -3   5  143.59    1.60 
   5  -3  -5  129.79    1.50 
   5   3  -5   95.39    1.20 
  -5  -3   5  121.29    1.40 
   7  -3  -5  791.42    2.10 
  -7  -3   5  772.22    3.20 
  -7   3   5  650.63    1.90 
   7   3  -5  528.65    2.20 
   7  -3  -5  771.32    3.10 
   7  -3  -5  452.75    2.10 
   7   3  -5  676.63    3.10 
  -7  -3   5  682.63    2.60 
  -9   3   5   10.50    0.60 
   9  -3  -5   12.60    0.80 
   9  -3  -5    8.70    0.70 
   9   3  -5    9.60    0.60 
  -9  -3   5   16.00    0.80 
  11  -3  -5    1.10    0.60 
  11  -3  -5    3.10    0.90 
  13   3  -5   73.49    2.20 
  13  -3  -5   87.29    2.00 
  15  -3  -5  210.88    2.80 
  15   3  -5  222.38    3.00 
  17  -3  -5    4.30    1.10 
  17   3  -5    1.70    0.90 
  12  -4   5   70.09    2.20 
  12   4   5   60.79    2.20 
 -10  -4  -5   22.60    1.80 
  10  -4   5   19.00    1.60 
  10   4   5   16.30    1.50 
   8  -4   5   21.30    1.40 
  -8  -4  -5   23.20    1.30 
   6  -4   5    3.70    0.70 
  -6   4  -5    3.30    0.70 
   6  -4   5    5.10    1.00 
  -6  -4  -5    6.30    0.90 
   4  -4   5  103.69    1.50 
  -4   4  -5  112.49    1.80 
   2  -4   5  116.29    1.40 
  -2  -4  -5  107.69    1.00 
  -2  -4  -5  176.18    1.80 
   2  -4   5  141.59    1.70 
  -2   4  -5  129.79    1.80 
   0  -4   5    4.70    0.70 
   0  -4  -5    3.20    0.80 
   0  -4   5    0.80    0.50 
   0  -4  -5    2.20    0.50 
   2  -4  -5   17.00    0.90 
   2   4  -5   18.00    1.10 
   2  -4  -5   17.50    0.80 
  -2  -4   5   16.40    1.00 
   4  -4  -5   23.50    0.80 
   4  -4  -5   22.70    1.00 
   4   4  -5   21.00    1.00 
   4  -4  -5   25.50    1.00 
   4  -4  -5   23.90    0.50 
  -4  -4   5   22.10    1.00 
   6  -4  -5  132.09    1.30 
   6  -4  -5  184.08    1.70 
   6   4  -5  120.19    1.20 
   6   4  -5  149.79    1.80 
  -6  -4   5  149.09    1.60 
  -6  -4   5  179.88    1.90 
   6  -4  -5  154.08    1.70 
   8   4  -5   30.70    0.80 
   8  -4  -5   45.40    1.30 
   8  -4  -5   27.20    1.00 
  -8  -4   5   41.60    1.10 
  10  -4  -5   63.29    1.60 
 -10  -4   5   61.99    1.30 
  12  -4  -5   13.80    1.10 
  12  -4  -5   26.70    1.40 
  14   4  -5   21.40    1.60 
  14  -4  -5   24.20    1.60 
  14  -4  -5   14.00    1.30 
 -14  -4   5   34.80    2.00 
  16  -4  -5   66.19    2.20 
  16  -4  -5   41.90    1.80 
 -16  -4   5   85.79    2.80 
  16   4  -5   49.00    2.00 
  18  -4  -5   16.80    1.70 
 -18  -4   5   28.10    2.40 
  18   4  -5   16.70    1.80 
 -11   5  -5   19.40    1.40 
 -11  -5  -5   28.50    1.90 
  11  -5   5   24.10    1.70 
  11   5   5   18.00    1.10 
   9   5   5   18.40    1.70 
   9  -5   5   23.10    1.70 
  -9  -5  -5   25.50    1.30 
  -9   5  -5   17.90    1.30 
  -7   5  -5    3.80    0.80 
   7  -5   5    4.80    1.00 
   7  -5   5    4.00    0.70 
  -5   5  -5   73.29    1.80 
   5  -5   5   94.29    1.80 
  -5  -5  -5  118.79    2.00 
   5  -5   5   75.39    1.50 
   3  -5   5   50.99    1.50 
   3  -5   5   43.30    1.30 
   1  -5   5   61.99    1.40 
  -1  -5  -5   73.39    1.60 
   1  -5   5   52.19    1.20 
   1  -5  -5  111.99    1.60 
   1  -5  -5  116.89    1.20 
   1   5  -5   97.59    1.40 
  -1  -5   5  102.19    1.60 
   3   5  -5   27.20    1.10 
   3  -5  -5   28.10    1.00 
  -3  -5   5   26.50    0.90 
  -5  -5   5   11.60    0.80 
   5  -5  -5   10.00    0.80 
   5   5  -5    8.40    0.70 
  -5  -5   5   10.10    0.70 
   5  -5  -5   13.20    1.00 
   5  -5  -5   13.10    0.90 
  -5  -5   5   10.00    0.90 
   5   5  -5    9.50    0.90 
   7  -5  -5    0.70    0.50 
  -7  -5   5    1.20    0.60 
  -7  -5   5    0.80    0.50 
   9  -5  -5  577.74    3.30 
   9  -5  -5  335.07    2.40 
  -9  -5   5  460.45    2.90 
  -9  -5   5  527.25    2.90 
  11  -5  -5   19.20    1.30 
 -11  -5   5   22.70    1.60 
  13  -5  -5    5.60    1.20 
  13  -5  -5    2.60    0.80 
 -13  -5   5    5.60    1.30 
  15  -5  -5   56.59    2.30 
 -15  -5   5   61.59    2.10 
  17   5  -5  333.27    4.00 
  17  -5  -5  297.37    3.60 
  10   6   5   56.39    2.00 
  10  -6   5   73.99    2.20 
 -10  -6  -5   88.39    2.50 
  -8  -6  -5  120.59    2.40 
   8  -6   5  102.89    2.20 
  -6   6  -5   13.90    1.10 
   6  -6   5   12.90    0.90 
  -4  -6  -5  138.59    2.30 
   4  -6   5  114.19    2.00 
   4  -6   5   95.79    1.60 
   2  -6   5  519.65    3.20 
   2  -6   5  473.95    3.00 
   0  -6   5   86.99    1.60 
   0  -6  -5   96.39    1.60 
   0  -6   5   87.99    1.70 
   0   6  -5   76.29    1.30 
   2  -6  -5    6.50    1.00 
   2   6  -5    9.80    0.90 
   2  -6  -5    6.80    0.50 
   2  -6  -5    7.70    0.90 
  -2  -6   5    5.30    0.70 
   4  -6  -5    0.30    0.40 
   4  -6  -5    0.50    0.50 
  -4  -6   5    0.20    0.50 
   6  -6  -5  681.93    3.10 
   6  -6  -5  901.71    3.80 
  -6  -6   5  677.43    2.90 
   6  -6  -5  982.90    3.80 
  -6  -6   5  821.22    3.80 
   6  -6  -5  687.43    3.50 
   8  -6  -5   18.00    1.30 
   8  -6  -5   18.80    1.00 
  -8  -6   5   14.00    1.10 
   8  -6  -5   11.10    0.80 
  -8  -6   5   17.10    1.30 
  10  -6  -5    8.70    0.90 
  10  -6  -5   16.20    1.40 
 -10  -6   5   12.10    1.20 
 -10  -6   5   11.30    1.00 
  12  -6  -5  164.08    2.60 
  12  -6  -5   96.29    2.00 
 -12  -6   5  131.39    2.30 
  14  -6  -5  264.27    3.30 
 -14  -6   5  253.97    3.40 
 -16  -6   5    0.60    0.70 
  16  -6  -5    0.80    0.70 
   9  -7   5  118.59    2.60 
  -9  -7  -5  130.89    3.00 
  -7  -7  -5   52.39    1.90 
   7  -7   5   41.80    1.60 
   5  -7   5   84.49    2.00 
  -5  -7  -5   99.59    2.20 
   5  -7   5   72.49    1.70 
   3  -7   5    1.60    0.80 
  -3  -7  -5    2.70    1.10 
   3  -7   5    0.50    0.40 
   1  -7   5  534.65    3.50 
  -1  -7  -5  555.24    3.50 
   1  -7   5  516.65    3.40 
   1  -7  -5   46.30    1.70 
   1  -7  -5   32.90    1.40 
  -1  -7   5   32.00    1.30 
   3  -7  -5   72.99    1.30 
   3  -7  -5   54.29    1.50 
   3  -7  -5   84.89    1.90 
  -3  -7   5   59.69    1.60 
   5  -7  -5   89.09    1.70 
   5  -7  -5  109.79    1.70 
   5  -7  -5   79.99    1.60 
   5  -7  -5  111.09    2.00 
  -5  -7   5  102.49    2.00 
   7  -7  -5  781.22    3.90 
   7  -7  -5  586.34    3.50 
   7  -7  -5  826.52    3.80 
   7  -7  -5  568.04    3.40 
  -7  -7   5  651.13    3.70 
   9  -7  -5  177.68    2.40 
   9  -7  -5  113.89    1.90 
  -9  -7   5  134.79    2.00 
  -9  -7   5  155.48    2.20 
  11  -7  -5    2.60    0.90 
 -11  -7   5    2.20    0.60 
 -11  -7   5    2.40    0.90 
 -13  -7   5   71.29    2.20 
  13  -7  -5   53.39    1.80 
  15  -7  -5  122.79    2.50 
 -15  -7   5  184.88    3.20 
  -8  -8  -5   38.80    1.90 
   8  -8   5   33.60    2.10 
  -6  -8  -5   12.40    1.40 
   6  -8   5   10.60    1.20 
   6  -8   5   11.00    1.60 
  -4  -8  -5  192.68    2.70 
   4  -8   5  184.98    2.90 
   2  -8   5  190.58    2.50 
   2  -8   5  195.88    2.60 
   0  -8  -5    3.00    0.90 
   0  -8  -5    3.80    1.20 
   0  -8   5    3.50    1.10 
   2  -8  -5   31.90    1.50 
  -2  -8   5   29.00    1.80 
   4  -8  -5   23.90    1.30 
  -4  -8   5   26.00    1.50 
   6  -8  -5  274.87    2.70 
   6  -8  -5  210.68    2.50 
   6  -8  -5  199.98    2.40 
   6  -8  -5  287.17    2.90 
  -6  -8   5  238.28    2.90 
   8  -8  -5   48.70    1.70 
   8  -8  -5   69.09    1.90 
   8  -8  -5   69.39    1.80 
  -8  -8   5   58.69    1.80 
  10  -8  -5   83.49    2.30 
 -10  -8   5   78.69    2.40 
  12  -8  -5   29.20    1.40 
 -12  -8   5   38.60    1.70 
  14  -8  -5   21.20    1.80 
 -14  -8   5   32.30    2.00 
   7  -9   5   13.10    1.60 
  -7  -9  -5   14.40    1.60 
   5  -9   5   82.59    2.50 
   5  -9   5   80.19    2.10 
   3  -9   5   24.00    2.00 
   3  -9   5   25.50    1.60 
  -3  -9  -5   22.00    1.60 
  -1  -9  -5  135.59    2.40 
   1  -9   5  145.09    2.70 
   1  -9  -5   57.79    1.70 
  -1  -9   5   64.59    1.80 
   3  -9  -5   21.40    1.20 
  -3  -9   5   25.90    1.40 
  -5  -9   5    0.40    0.60 
   5  -9  -5    0.40    0.50 
   5  -9  -5    0.70    0.60 
   7  -9  -5   35.10    1.50 
   7  -9  -5   33.50    1.50 
  -7  -9   5   37.20    1.80 
   9  -9  -5  306.97    3.30 
  -9  -9   5  387.46    3.70 
 -11  -9   5   28.50    1.80 
  11  -9  -5   22.80    1.60 
   4 -10   5   59.79    2.00 
  -4 -10  -5   61.99    2.20 
  -2 -10  -5  451.75    4.10 
   2 -10   5  445.46    3.80 
   0 -10  -5   92.29    2.30 
   0 -10   5  105.89    2.60 
   2 -10  -5    1.20    0.70 
  -2 -10   5    0.50    0.60 
   2 -10  -5    0.40    0.50 
   4 -10  -5    1.50    0.90 
  -4 -10   5    1.20    0.70 
   6 -10  -5  873.61    5.10 
  -6 -10   5  774.22    5.30 
   8 -10  -5   27.80    1.70 
  -8 -10   5   35.20    2.40 
  10 -10  -5    2.20    1.00 
 -10 -10   5    0.40    0.70 
  -1 -11  -5  201.78    3.20 
   1 -11   5  233.18    3.50 
  -1 -11   5   26.90    1.70 
   1 -11  -5   21.90    1.60 
   3 -11  -5   54.59    2.50 
  -3 -11   5   41.20    2.20 
   5 -11  -5   32.70    2.10 
  -5 -11   5   23.70    2.10 
  12   0   6 1193.88    5.70 
  10   0   6  281.87    2.90 
  -8   0  -6  221.88    2.20 
   8   0   6  149.88    2.00 
  -6   0  -6    6.80    0.70 
   6   0   6    2.70    0.60 
  -4   0  -6 2161.08    4.50 
   4   0   6 1396.86    3.60 
  -2   0  -6   50.99    1.00 
   2   0   6   36.30    0.80 
   0   0   6   64.09    0.60 
   0   0  -6   83.99    1.00 
   2   0  -6  650.23    2.30 
   2   0  -6  484.15    1.90 
   2   0  -6  568.34    2.40 
   4   0  -6  425.96    2.20 
   6   0  -6  226.78    1.80 
   6   0  -6  202.18    1.30 
  -8   0   6   49.80    0.80 
   8   0  -6   52.19    1.20 
  -8   0   6   54.49    1.30 
   8   0  -6   42.90    1.10 
   8   0  -6   41.20    1.00 
 -10   0   6 1411.16    4.10 
  10   0  -6 1438.56    4.20 
  10   0  -6 1285.57    3.90 
  10   0  -6 1206.38    3.70 
  12   0  -6   36.50    1.30 
  12   0  -6   38.60    1.30 
  14   0  -6  336.77    2.70 
  14   0  -6  327.87    2.80 
  16   0  -6  137.69    2.20 
  16   0  -6  132.59    2.50 
  18   0  -6  765.22    5.00 
  13  -1   6    7.40    1.30 
  13   1   6    5.90    1.40 
 -11  -1  -6  215.28    2.70 
  11  -1   6  163.68    2.60 
  11   1   6  162.18    2.50 
  -9  -1  -6  152.68    2.40 
   9  -1   6  110.89    2.00 
   9   1   6  111.89    2.00 
   7  -1   6   65.89    1.50 
   7   1   6   67.29    1.40 
  -5  -1  -6   43.20    1.20 
  -5   1  -6   42.30    1.00 
   5  -1   6   29.50    1.00 
   5   1   6   29.40    1.00 
  -3  -1  -6  243.58    1.80 
  -3   1  -6  241.78    1.50 
   3  -1   6  161.88    1.40 
   3   1   6  151.98    1.30 
  -1  -1  -6  936.21    3.00 
   1  -1   6  659.53    2.10 
  -1  -1  -6  752.42    2.80 
  -1   1  -6  827.72    2.20 
   1   1   6  652.23    1.80 
  -1   1  -6  831.22    3.10 
   1  -1  -6   26.90    0.90 
   1   1  -6   22.00    0.60 
   1   1  -6   29.80    1.10 
  -1  -1   6   25.70    0.50 
   1  -1  -6   30.40    1.10 
   3   1  -6   86.59    1.30 
   3  -1  -6   83.59    1.40 
   5  -1  -6    9.00    0.80 
  -5  -1   6    8.90    0.70 
   5   1  -6    9.00    0.90 
   5   1  -6    7.80    0.90 
  -7  -1   6  734.53    2.30 
   7   1  -6  664.73    2.60 
   7  -1  -6  811.52    2.70 
   7   1  -6  807.12    3.00 
  -7   1   6  826.92    2.60 
  -7  -1   6  860.11    3.10 
   7  -1  -6  490.75    1.80 
   7  -1  -6  668.63    2.80 
  -9  -1   6  331.47    1.50 
   9   1  -6  275.67    2.00 
   9  -1  -6  370.96    2.10 
   9   1  -6  357.56    2.40 
  -9  -1   6  366.76    2.40 
  -9   1   6  345.47    2.00 
   9  -1  -6  334.27    2.30 
   9  -1  -6  246.08    1.70 
   9   1  -6  294.97    2.00 
  11  -1  -6   10.20    0.70 
 -11   1   6    8.10    0.80 
  11   1  -6    9.00    0.80 
  11  -1  -6    9.40    1.00 
  11  -1  -6    8.50    0.80 
  11   1  -6    7.90    1.00 
  13   1  -6   64.39    1.40 
  13  -1  -6   60.39    1.60 
  13  -1  -6   68.09    1.60 
  13   1  -6   56.69    1.50 
  15  -1  -6  100.29    2.00 
  15   1  -6   96.89    2.20 
  17  -1  -6  283.47    3.00 
  17  -1  -6  288.17    3.40 
  17   1  -6  285.87    3.40 
  19  -1  -6   30.20    1.90 
  19   1  -6   35.20    2.10 
 -12  -2  -6   72.69    2.10 
  12  -2   6   57.49    2.00 
  12   2   6   57.79    1.90 
 -10  -2  -6  140.09    2.30 
  10  -2   6  109.59    2.20 
  10   2   6  109.59    2.10 
  -8  -2  -6   52.79    1.50 
   8  -2   6   39.90    1.40 
   8   2   6   39.50    1.50 
   6  -2   6   51.19    1.30 
  -6  -2  -6   59.19    1.40 
   6  -2   6   43.40    1.30 
   6   2   6   44.40    1.20 
   4  -2   6    0.70    0.50 
   4   2   6    0.20    0.30 
   2  -2   6  465.25    2.10 
   2  -2   6  472.15    2.50 
  -2  -2  -6  466.65    2.20 
  -2   2  -6  507.35    2.90 
  -2   2  -6  541.75    1.60 
   2   2   6  449.95    1.90 
   0   2   6  290.87    1.20 
   0  -2   6  280.17    1.90 
   0   2  -6  335.77    2.30 
   0   2  -6  231.68    1.00 
   0  -2  -6  384.56    2.20 
   0  -2  -6  310.87    1.90 
   0  -2   6  315.77    1.60 
  -2  -2   6    2.50    0.80 
   2  -2  -6    2.30    0.60 
   2  -2  -6    2.10    0.80 
   4  -2  -6   13.30    1.00 
  -4  -2   6    5.80    0.70 
   4   2  -6   12.20    0.90 
   4   2  -6    8.00    1.00 
   4  -2  -6    6.90    0.80 
  -6  -2   6  369.06    1.90 
   6   2  -6  408.76    2.40 
   6  -2  -6  411.36    1.90 
  -6  -2   6  438.86    2.50 
   6   2  -6  303.67    1.90 
   6  -2  -6  256.07    1.30 
   6  -2  -6  350.66    2.20 
   8   2  -6  263.27    1.70 
  -8  -2   6  210.88    1.80 
   8  -2  -6  340.07    1.80 
   8   2  -6  314.97    2.20 
  -8   2   6  312.67    1.70 
   8  -2  -6  306.07    2.10 
   8  -2  -6  194.78    1.40 
  -8  -2   6  295.77    1.70 
 -10   2   6    1.60    0.40 
  10  -2  -6    2.20    0.80 
  10  -2  -6    2.60    0.60 
  10   2  -6    2.00    0.50 
  12   2  -6   50.89    1.50 
 -12   2   6   51.29    1.10 
  12  -2  -6   62.39    1.60 
  12   2  -6   52.59    1.20 
  12  -2  -6   36.70    1.10 
  14  -2  -6   15.30    0.90 
  14   2  -6   16.00    1.40 
  16  -2  -6   32.40    1.60 
  16  -2  -6   35.90    1.70 
  18  -2  -6   11.90    1.30 
  18   2  -6   10.30    1.50 
  11  -3   6  250.97    3.00 
  11   3   6  240.88    2.90 
  -9  -3  -6   42.30    1.70 
   9  -3   6   32.90    1.60 
   9   3   6   24.80    1.10 
   7  -3   6   19.20    0.90 
  -7  -3  -6   29.70    1.50 
   7  -3   6   23.20    1.10 
   7   3   6   17.00    1.00 
   5  -3   6   67.29    1.40 
   5  -3   6   61.29    1.40 
  -5   3  -6   67.19    1.60 
   5   3   6   66.89    1.40 
   3  -3   6  272.07    2.00 
   3   3   6  240.98    1.80 
   3  -3   6  220.18    1.90 
  -3   3  -6  283.47    2.30 
  -3  -3  -6  257.47    1.70 
  -1   3  -6  314.67    2.30 
   1  -3   6  313.87    1.90 
  -1  -3  -6  295.27    1.70 
  -1  -3   6   49.90    1.10 
   1  -3  -6   46.90    0.90 
  -1  -3   6   64.59    1.10 
   1  -3  -6   67.29    1.20 
  -3  -3   6  110.19    1.50 
   3   3  -6  126.29    1.80 
   3  -3  -6  117.59    1.50 
   3  -3  -6  105.29    1.40 
  -5  -3   6   36.80    1.10 
   5   3  -6   32.40    1.10 
   5  -3  -6   40.70    0.80 
   5   3  -6   36.60    1.20 
   5  -3  -6   34.30    1.10 
   5  -3  -6   33.80    1.10 
   5  -3  -6   33.20    0.60 
   7  -3  -6  393.66    1.60 
  -7  -3   6  409.56    2.50 
   7  -3  -6  257.67    1.50 
   7   3  -6  348.67    2.40 
   7  -3  -6  372.16    2.40 
   7   3  -6  281.37    1.80 
  -7  -3   6  351.06    2.00 
   9  -3  -6  418.86    2.60 
   9  -3  -6  247.98    1.80 
   9  -3  -6  437.56    2.00 
  -9  -3   6  415.86    2.20 
   9   3  -6  330.57    2.00 
  11  -3  -6   13.20    0.90 
  11  -3  -6   22.20    1.20 
  11   3  -6   18.10    0.80 
  13   3  -6   25.70    1.40 
  13  -3  -6   26.70    1.40 
  15  -3  -6   44.00    1.60 
  15   3  -6   45.40    1.90 
  17  -3  -6  266.27    3.10 
  17   3  -6  263.27    3.60 
 -12  -4  -6  992.10    5.90 
  12  -4   6  877.01    5.70 
  10  -4   6  207.88    2.90 
 -10  -4  -6  253.37    3.30 
  10   4   6  176.08    2.60 
   8  -4   6  104.49    2.10 
   8   4   6   82.89    1.90 
  -8   4  -6   94.69    2.10 
   6   4   6    2.60    0.80 
   6  -4   6    2.50    0.70 
   6  -4   6    0.90    0.60 
  -6  -4  -6    1.90    0.60 
  -6   4  -6    1.50    0.60 
   4  -4   6  839.42    3.60 
   4  -4   6 1076.89    4.10 
  -4   4  -6  963.20    4.20 
   2  -4   6   32.30    1.10 
   2  -4   6   24.80    1.10 
  -2  -4  -6   38.30    1.40 
  -2   4  -6   27.90    1.30 
   0  -4  -6   28.40    0.80 
   0  -4   6   26.90    1.10 
   0  -4   6   27.10    1.00 
  -2  -4   6  279.47    2.00 
   2   4  -6  322.47    2.20 
   2  -4  -6  284.57    1.90 
   2  -4  -6  327.37    2.30 
   4  -4  -6  287.97    2.10 
   4  -4  -6  299.27    1.50 
   4   4  -6  290.57    2.20 
   4  -4  -6  294.17    2.00 
  -4  -4   6  288.77    2.10 
   6  -4  -6  116.29    1.20 
  -6  -4   6  130.79    1.60 
   6  -4  -6  125.09    1.70 
   6  -4  -6  137.69    1.70 
   6  -4  -6  141.69    0.90 
   6   4  -6  108.59    1.40 
  -6  -4   6  132.29    1.60 
   8  -4  -6   46.70    1.40 
   8  -4  -6   31.10    0.90 
  -8  -4   6   43.10    1.20 
   8   4  -6   32.20    0.90 
  10  -4  -6  963.20    4.20 
 -10  -4   6  936.31    3.40 
  12  -4  -6   24.00    1.40 
  12  -4  -6   11.10    0.90 
  14  -4  -6  253.27    2.90 
  14  -4  -6  152.38    2.30 
  16   4  -6   76.09    2.10 
  16  -4  -6  102.89    2.50 
  16  -4  -6   69.49    2.00 
 -16  -4   6  139.39    3.00 
  18  -4  -6  429.66    4.10 
 -18  -4   6  690.83    5.40 
  18   4  -6  426.56    4.60 
 -11   5  -6    9.80    1.10 
  11  -5   6    9.60    1.30 
 -11  -5  -6   15.50    1.70 
  -9  -5  -6  122.19    2.60 
   9  -5   6  100.49    2.30 
  -9   5  -6   78.79    2.00 
   7   5   6   50.39    1.60 
   7  -5   6   63.99    1.80 
  -7  -5  -6   78.69    2.10 
  -7   5  -6   50.89    1.80 
  -5   5  -6    1.30    0.70 
  -5  -5  -6    1.50    0.90 
   5  -5   6    1.20    0.60 
   3  -5   6    6.60    0.90 
   3  -5   6    9.90    1.20 
  -3  -5  -6   12.60    1.20 
   1  -5   6  485.45    2.90 
  -1  -5  -6  562.94    3.20 
   1  -5   6  419.36    2.80 
   1  -5  -6    1.10    0.40 
   1  -5  -6    0.80    0.70 
  -1  -5   6    1.40    0.60 
   3  -5  -6    8.30    0.90 
   3  -5  -6    8.30    0.70 
  -3  -5   6    5.90    0.80 
   5  -5  -6    4.60    0.60 
   5  -5  -6    3.80    0.70 
   5   5  -6    4.40    0.70 
  -5  -5   6    4.70    0.50 
  -5  -5   6    2.80    0.50 
   5  -5  -6    3.70    0.70 
   7  -5  -6  390.56    2.20 
   7  -5  -6  504.45    3.00 
  -7  -5   6  418.96    2.30 
   7   5  -6  330.27    1.90 
   7  -5  -6  430.76    2.80 
  -7  -5   6  477.45    2.90 
  -9  -5   6   68.29    1.60 
  -9  -5   6   69.99    1.50 
  11  -5  -6    1.90    0.80 
  11  -5  -6    4.30    1.00 
 -11  -5   6    3.20    0.70 
  13  -5  -6   32.40    1.70 
  13  -5  -6   19.40    1.20 
 -13  -5   6   46.10    1.90 
  15  -5  -6   80.19    2.40 
 -15  -5   6   95.59    2.40 
  17   5  -6   65.89    2.40 
  17  -5  -6   84.09    2.50 
  17  -5  -6   56.49    1.80 
 -17  -5   6   98.69    2.60 
 -10  -6  -6   82.09    2.50 
  10  -6   6   76.39    2.30 
  -8  -6  -6    2.80    0.90 
   8  -6   6    3.30    1.30 
  -6   6  -6   16.60    1.30 
   6  -6   6   17.60    1.10 
   4  -6   6   13.80    1.30 
  -4  -6  -6   17.50    1.40 
   4  -6   6   10.80    1.00 
   2  -6   6  195.58    2.30 
  -2  -6  -6  240.78    2.70 
   2  -6   6  162.08    2.20 
   0  -6  -6   73.19    1.70 
   0  -6   6   63.59    1.60 
   0  -6   6   62.39    1.60 
   2  -6  -6    8.90    1.00 
  -2  -6   6    8.10    1.10 
   2  -6  -6    9.50    0.70 
   4  -6  -6    0.40    0.40 
   4  -6  -6    0.50    0.40 
  -4  -6   6    0.10    0.40 
   6  -6  -6   90.79    1.30 
   6  -6  -6   93.49    1.90 
   8  -6  -6  115.69    2.00 
   8  -6  -6   84.29    1.60 
  -8  -6   6   82.29    1.40 
  -8  -6   6  114.79    2.00 
  10  -6  -6   27.70    1.60 
  10  -6  -6   19.30    1.10 
 -10  -6   6   22.20    1.40 
 -10  -6   6   25.70    1.40 
  12  -6  -6   14.40    1.40 
  12  -6  -6    9.10    1.00 
 -12  -6   6   14.00    1.50 
  14  -6  -6    1.60    1.00 
  14  -6  -6    1.40    0.70 
 -14  -6   6    2.50    1.10 
  16  -6  -6   22.00    1.90 
  16  -6  -6   14.50    1.40 
 -16  -6   6   27.30    2.10 
   9  -7   6    2.50    1.10 
  -9  -7  -6    2.30    1.10 
  -7  -7  -6    2.30    0.70 
   7  -7   6    0.30    0.50 
   5  -7   6   40.60    1.70 
  -5  -7  -6   48.10    2.00 
   5  -7   6   32.40    1.50 
   3  -7   6  174.58    2.60 
  -3  -7  -6  197.88    2.80 
   1  -7   6    3.60    1.10 
  -1  -7  -6    3.60    0.80 
   1  -7   6    4.30    0.70 
   1  -7  -6   50.29    1.60 
  -1  -7   6   48.90    1.60 
   3  -7  -6   39.60    1.50 
  -3  -7   6   43.50    1.70 
   5  -7  -6   59.49    1.40 
   5  -7  -6   50.79    1.60 
  -5  -7   6   55.19    1.70 
   7  -7  -6   12.40    1.30 
   7  -7  -6   14.00    1.20 
  -7  -7   6   15.70    1.40 
   7  -7  -6   15.40    1.10 
   9  -7  -6  198.88    2.60 
  -9  -7   6  184.28    2.50 
  11  -7  -6    9.20    1.30 
  11  -7  -6    4.60    0.90 
 -11  -7   6    5.60    0.90 
 -11  -7   6    8.40    1.20 
  13  -7  -6    1.80    1.10 
 -13  -7   6    0.30    0.50 
  13  -7  -6    0.40    0.80 
  15  -7  -6    2.50    0.90 
 -15  -7   6    2.60    1.00 
   8  -8   6   20.00    1.90 
  -8  -8  -6   22.20    1.80 
   6  -8   6    0.30    0.60 
  -6  -8  -6    0.80    0.60 
   6  -8   6    0.90    0.80 
   4  -8   6  304.27    3.60 
  -4  -8  -6  332.77    3.60 
   2  -8   6   13.40    1.20 
  -2  -8  -6   16.80    1.30 
   2  -8   6   13.60    1.20 
   0  -8  -6    1.30    0.60 
   0  -8   6    0.90    0.90 
   2  -8  -6   43.50    1.80 
  -2  -8   6   46.20    1.90 
   4  -8  -6   67.79    1.90 
  -4  -8   6   71.59    2.10 
   6  -8  -6   25.20    1.50 
  -6  -8   6   26.60    1.50 
   8  -8  -6   30.10    1.40 
  -8  -8   6   31.80    1.80 
  10  -8  -6  214.08    2.80 
  10  -8  -6  152.58    2.50 
 -10  -8   6  212.28    3.00 
  12  -8  -6    1.80    1.00 
  12  -8  -6    0.80    0.50 
  14  -8  -6   55.89    2.00 
 -14  -8   6   77.89    2.40 
  -5  -9  -6   38.70    2.00 
   5  -9   6   35.90    1.90 
   3  -9   6   26.20    1.50 
   3  -9   6   27.20    1.70 
  -1  -9  -6  101.69    2.30 
   1  -9   6  103.49    2.50 
   1  -9  -6   13.70    1.40 
  -1  -9   6   13.40    1.40 
   3  -9  -6   22.00    1.40 
  -3  -9   6   25.90    1.80 
   5  -9  -6    9.00    1.30 
  -5  -9   6    7.20    1.00 
   7  -9  -6   80.89    1.90 
  -7  -9   6   91.69    2.30 
   9  -9  -6    7.00    1.30 
   9  -9  -6    3.80    1.00 
  -9  -9   6    3.90    1.00 
  11  -9  -6   23.00    1.50 
 -11  -9   6   31.80    1.70 
   4 -10   6   48.90    2.20 
  -4 -10  -6   46.70    2.10 
  -2 -10  -6   16.90    1.60 
   2 -10   6   18.80    1.80 
   0 -10  -6    5.70    1.10 
   0 -10   6    5.80    1.10 
   2 -10  -6   30.20    1.60 
  -2 -10   6   33.80    1.60 
   4 -10  -6    4.70    1.30 
  -4 -10   6    3.40    1.20 
   6 -10  -6    1.00    0.50 
  -6 -10   6    0.30    0.70 
  -8 -10   6    6.40    1.60 
 -10 -10   6  104.49    2.70 
   3 -11  -6    1.10    0.90 
  -3 -11   6    0.00    1.20 
  12   0   7    0.80    0.50 
  10   0   7    0.40    0.40 
   8   0   7    1.20    0.60 
  -6   0  -7    0.30    0.40 
   6   0   7    0.30    0.30 
  -4   0  -7    8.10    0.80 
   4   0   7    6.90    0.70 
  -2   0  -7    0.20    0.30 
   2   0   7    0.20    0.20 
   0   0  -7   12.10    0.70 
   0   0   7   10.80    0.40 
   2   0  -7    0.50    0.40 
   2   0  -7    0.40    0.60 
   4   0  -7    5.40    0.80 
   4   0  -7    7.50    1.10 
   6   0  -7    1.00    0.50 
   6   0  -7    1.40    0.50 
   6   0  -7    1.20    0.40 
   8   0  -7    0.90    0.50 
  -8   0   7    0.70    0.50 
   8   0  -7    0.30    0.30 
   8   0  -7    1.50    0.60 
 -10   0   7    0.60    0.50 
  10   0  -7    1.90    0.70 
  10   0  -7    0.50    0.50 
  12   0  -7    0.30    0.40 
  12   0  -7    2.00    0.60 
  14   0  -7    0.80    0.60 
  14   0  -7    1.90    0.80 
  16   0  -7    0.40    0.50 
  16   0  -7    0.90    0.60 
  18   0  -7    1.00    0.80 
  11  -1   7  171.48    2.70 
  11   1   7  164.88    2.60 
  -9  -1  -7  305.87    2.90 
   9  -1   7  230.48    2.60 
   9   1   7  229.08    2.60 
   7  -1   7  163.68    2.00 
   7   1   7  154.58    2.00 
   5  -1   7   86.79    1.40 
   5   1   7   80.69    1.30 
  -3   1  -7  421.86    2.00 
  -3  -1  -7  442.46    2.50 
   3  -1   7  324.67    1.90 
   3   1   7  288.17    1.70 
  -1   1  -7  740.13    2.30 
   1  -1   7  679.23    2.20 
  -1  -1  -7  694.23    2.90 
   1   1   7  619.34    1.90 
  -1  -1  -7  864.51    3.00 
  -1   1  -7  809.52    3.40 
   1  -1  -7  362.16    2.20 
   1   1  -7  325.07    1.50 
   1  -1  -7  380.16    2.10 
   1   1  -7  437.76    2.60 
  -1  -1   7  372.36    1.40 
   3   1  -7   41.80    1.30 
   3  -1  -7   39.40    1.10 
   3  -1  -7   44.90    1.40 
   5  -1  -7  239.78    1.90 
   5   1  -7  309.77    2.30 
   5  -1  -7  311.87    2.00 
   5  -1  -7  238.78    1.90 
   5   1  -7  253.57    2.00 
  -7  -1   7  771.62    2.70 
   7   1  -7  917.01    3.30 
   7  -1  -7  920.41    3.00 
   7   1  -7  748.73    3.10 
   7  -1  -7  546.45    1.80 
   7  -1  -7  728.03    3.00 
   9   1  -7  446.46    2.30 
  -9  -1   7  516.35    2.00 
   9  -1  -7  560.34    2.60 
  -9   1   7  562.64    2.60 
  -9  -1   7  580.44    2.80 
   9  -1  -7  485.65    2.70 
   9  -1  -7  398.36    2.00 
   9   1  -7  483.25    2.50 
 -11   1   7   67.59    1.40 
  11  -1  -7   68.09    1.60 
  11   1  -7   62.69    1.30 
  11  -1  -7   58.99    1.30 
  11   1  -7   57.59    1.40 
  13   1  -7   65.09    1.50 
  13  -1  -7   66.69    1.50 
  13  -1  -7   61.89    1.50 
  13   1  -7   58.99    1.60 
  15   1  -7  246.08    2.30 
  15  -1  -7  248.48    2.70 
  15   1  -7  241.58    2.80 
  17  -1  -7  358.36    3.30 
  17  -1  -7  365.26    3.50 
  17   1  -7  360.06    3.60 
  19  -1  -7  125.59    2.80 
  19   1  -7  130.09    2.90 
 -12  -2  -7   21.60    1.50 
  12  -2   7   19.30    1.70 
 -10  -2  -7   66.79    1.90 
  10  -2   7   53.19    1.90 
  -8  -2  -7    1.00    0.70 
   8  -2   7    1.00    0.70 
   8   2   7    1.40    0.80 
   6  -2   7   13.00    1.10 
  -6  -2  -7   13.80    1.20 
   6  -2   7   10.90    1.10 
   6   2   7   10.60    0.90 
   4  -2   7  101.99    1.60 
   4  -2   7   91.19    1.40 
   4   2   7   90.89    1.30 
   2  -2   7   42.80    1.30 
  -2  -2  -7   36.10    1.10 
  -2  -2  -7   53.39    1.30 
   2  -2   7   41.10    1.00 
   2   2   7   33.20    0.70 
  -2   2  -7   41.60    1.30 
   0  -2  -7    7.50    0.90 
   0  -2   7   10.40    1.00 
   0   2  -7    7.90    0.40 
   0   2  -7    8.60    1.10 
   0  -2   7   10.40    0.60 
   0  -2  -7    7.30    0.90 
   0   2   7    8.30    0.30 
  -2  -2   7   63.19    1.40 
   2  -2  -7   64.99    1.30 
   2  -2  -7   66.99    1.20 
  -4  -2   7   93.29    1.30 
   4  -2  -7  109.59    1.50 
   4   2  -7  101.79    1.60 
   4   2  -7  118.29    1.70 
   4  -2  -7  104.69    1.40 
  -6  -2   7    3.40    0.60 
   6   2  -7    3.70    0.80 
   6  -2  -7    5.50    0.60 
   6  -2  -7    3.30    0.30 
   6   2  -7    5.30    0.80 
   6  -2  -7    4.10    0.90 
  -8  -2   7    4.10    0.60 
   8   2  -7    3.70    0.70 
   8  -2  -7    4.00    0.60 
  -8  -2   7    3.80    0.70 
   8  -2  -7    2.90    0.40 
   8  -2  -7    4.50    0.80 
 -10   2   7  113.19    1.30 
  10  -2  -7  111.89    1.70 
  10  -2  -7   76.59    1.20 
  10  -2  -7  121.99    1.50 
  10   2  -7   98.89    1.40 
 -10  -2   7  117.99    1.30 
  12   2  -7   30.40    1.40 
  12  -2  -7   29.40    1.20 
  12   2  -7   30.00    1.00 
  14  -2  -7    1.70    0.80 
  14  -2  -7    2.00    0.60 
  14   2  -7    1.50    0.90 
  16  -2  -7   19.60    1.60 
  16   2  -7   16.40    1.60 
  18  -2  -7   59.79    2.00 
  18  -2  -7   64.79    2.00 
  18   2  -7   54.49    2.20 
 -11  -3  -7  418.26    3.80 
  11  -3   7  370.86    3.70 
  -9  -3  -7  268.57    3.20 
   9  -3   7  221.28    2.70 
   7  -3   7    6.30    0.90 
  -7  -3  -7    7.40    0.90 
  -5   3  -7  184.68    2.50 
   5  -3   7  181.88    1.90 
   3  -3   7  497.75    2.90 
  -3   3  -7  544.65    3.30 
   3  -3   7  561.54    2.80 
  -3  -3  -7  466.65    2.30 
   1  -3   7  288.77    2.30 
  -1   3  -7  340.27    2.50 
  -1  -3  -7  404.96    2.60 
  -1  -3  -7  315.07    1.90 
   1  -3   7  351.76    2.10 
  -1  -3   7   95.79    1.60 
   1  -3  -7   96.69    1.40 
  -1  -3   7  116.19    1.30 
   1  -3  -7  119.69    1.50 
   3  -3  -7  285.97    1.90 
   3  -3  -7  361.36    1.60 
  -3  -3   7  295.97    2.20 
   3  -3  -7  327.67    2.10 
  -5  -3   7  212.08    1.90 
   5   3  -7  194.78    1.90 
   5   3  -7  229.68    2.10 
   5  -3  -7  248.98    1.50 
   5  -3  -7  218.38    1.10 
   5  -3  -7  208.88    2.00 
   5  -3  -7  192.48    1.80 
  -7  -3   7  284.27    2.00 
   7  -3  -7  310.07    1.60 
   7  -3  -7  223.58    1.40 
   7   3  -7  245.68    1.90 
   7  -3  -7  272.37    2.20 
   9   3  -7  437.46    2.40 
   9  -3  -7  541.55    2.20 
   9  -3  -7  338.87    2.00 
   9  -3  -7  529.05    3.10 
  -9  -3   7  525.45    2.50 
  11  -3  -7  328.97    2.70 
  11  -3  -7  203.38    1.80 
  11   3  -7  271.47    2.10 
  13  -3  -7    1.40    0.60 
  13  -3  -7    1.80    0.70 
  15   3  -7   85.39    2.30 
  15  -3  -7   76.59    1.70 
  17  -3  -7  531.65    4.00 
  17   3  -7  499.95    4.10 
  10  -4   7    8.30    1.30 
 -10   4  -7    7.10    1.30 
  -8  -4  -7  143.39    2.50 
  -8   4  -7  102.59    2.40 
   8  -4   7  121.59    2.30 
   6  -4   7   29.70    1.20 
   6  -4   7   32.90    1.40 
  -6  -4  -7   36.40    1.50 
  -6   4  -7   25.70    1.60 
   4  -4   7    7.00    0.90 
   4  -4   7   11.50    1.20 
  -4  -4  -7   12.60    1.30 
  -4   4  -7    9.50    1.30 
   2  -4   7   13.50    1.00 
  -2   4  -7   12.70    1.20 
   0  -4   7  201.68    2.00 
   0  -4  -7  195.98    1.60 
   0  -4  -7  283.77    2.40 
   0  -4   7  258.07    2.00 
  -2  -4   7    0.50    0.60 
   2  -4  -7    0.80    0.70 
   2  -4  -7    0.70    0.40 
  -4  -4   7   16.60    1.20 
   4  -4  -7   17.40    1.10 
   4   4  -7   15.80    1.00 
   6  -4  -7  120.19    1.90 
   6  -4  -7  121.19    1.10 
   6  -4  -7  122.89    1.80 
   8  -4  -7  113.49    1.30 
   8   4  -7  107.49    1.40 
   8  -4  -7  145.49    1.90 
  -8  -4   7  142.09    1.70 
  10  -4  -7   17.00    1.30 
 -10  -4   7   14.20    0.80 
  12  -4  -7    5.40    1.10 
  12  -4  -7    1.30    0.60 
  14  -4  -7  128.89    2.50 
  14  -4  -7   80.59    1.60 
  16   4  -7    7.00    1.50 
  16  -4  -7   10.30    1.50 
  16  -4  -7    6.60    1.00 
  18  -4  -7    5.40    1.30 
  18   4  -7    4.80    1.60 
   9  -5   7  147.09    2.60 
  -9  -5  -7  161.28    2.70 
   7  -5   7  327.57    3.30 
  -7  -5  -7  373.46    3.60 
   5  -5   7    2.70    0.90 
  -5   5  -7    2.80    1.00 
   5  -5   7    7.90    1.20 
  -5  -5  -7    5.10    1.10 
   3  -5   7   73.49    1.70 
  -3  -5  -7   85.19    1.80 
   1  -5   7  590.04    3.40 
   1  -5   7  695.43    3.30 
  -1  -5  -7  780.92    4.00 
  -1  -5   7  376.26    2.80 
  -1  -5   7  308.77    2.10 
   1  -5  -7  428.56    2.90 
   1  -5  -7  343.37    2.00 
   3  -5  -7   39.40    1.40 
   3  -5  -7   37.20    1.10 
  -3  -5   7   35.20    1.40 
   5  -5  -7  137.79    1.90 
   5  -5  -7  139.29    1.70 
   5   5  -7  115.99    1.70 
  -5  -5   7  124.09    1.70 
   7  -5  -7  845.22    3.10 
   7  -5  -7  968.50    4.00 
   7  -5  -7  868.21    4.00 
   7   5  -7  722.43    3.10 
  -7  -5   7  959.70    3.90 
   9  -5  -7  287.97    2.70 
  -9  -5   7  273.07    2.40 
  11  -5  -7   13.10    1.30 
  11  -5  -7    9.00    0.80 
 -11  -5   7   13.10    1.20 
  13  -5  -7  127.59    2.50 
  13  -5  -7   74.09    1.60 
  15  -5  -7  283.67    3.20 
 -15  -5   7  328.07    3.30 
  17   5  -7   73.09    2.30 
  17  -5  -7   99.09    2.60 
  17  -5  -7   72.89    2.00 
 -17  -5   7  130.59    3.20 
  -8   6  -7    0.30    0.70 
   8  -6   7    0.20    0.50 
  -8  -6  -7    0.40    0.60 
   6  -6   7   59.39    2.00 
  -6  -6  -7   67.19    2.10 
  -6   6  -7   44.10    1.80 
   6  -6   7   43.20    1.50 
  -4  -6  -7  559.04    3.80 
   4  -6   7  515.15    3.70 
  -2  -6  -7  252.67    2.90 
   2  -6   7  236.28    2.50 
   0  -6   7    0.30    0.50 
   0  -6   7    0.50    0.60 
   2  -6  -7  327.87    2.70 
  -2  -6   7  303.27    2.60 
   4  -6  -7  551.24    3.40 
   4  -6  -7  569.44    2.90 
   6  -6  -7   21.90    0.90 
   6  -6  -7   22.40    1.30 
   6  -6  -7   22.30    1.10 
  -6  -6   7   20.10    1.10 
   8  -6  -7   28.40    1.00 
   8  -6  -7   34.30    1.30 
  -8  -6   7   34.80    1.60 
  10  -6  -7  649.14    4.00 
  10  -6  -7  464.25    3.10 
 -10  -6   7  564.74    3.50 
 -10  -6   7  640.64    3.70 
  12  -6  -7  180.28    2.70 
 -12  -6   7  170.08    2.40 
  14  -6  -7    4.10    1.10 
 -14  -6   7    4.60    1.20 
  16  -6  -7  119.39    2.70 
 -16  -6   7  139.79    3.10 
  -7  -7  -7   34.90    1.90 
   7  -7   7   31.90    1.80 
   5  -7   7  144.79    2.60 
  -5  -7  -7  154.48    2.70 
  -3  -7  -7  454.65    3.90 
   3  -7   7  427.46    3.60 
   1  -7   7   64.99    2.00 
  -1  -7  -7   63.79    2.00 
   1  -7   7   49.60    1.50 
   1  -7  -7    1.50    0.80 
  -1  -7   7    0.40    0.40 
   3  -7  -7  333.67    3.00 
  -3  -7   7  309.67    2.80 
   5  -7  -7   86.69    1.90 
  -5  -7   7   86.09    2.10 
   5  -7  -7  103.49    1.70 
   7  -7  -7   19.40    1.00 
   7  -7  -7   19.70    1.30 
  -7  -7   7   21.00    1.50 
   9  -7  -7  284.17    3.00 
  -9  -7   7  275.07    2.90 
  11  -7  -7  338.47    3.50 
 -11  -7   7  335.27    3.10 
  13  -7  -7   26.90    1.90 
 -13  -7   7   23.80    1.60 
  15  -7  -7    8.40    1.40 
  15  -7  -7    5.40    1.10 
 -15  -7   7    8.70    1.60 
   6  -8   7   63.69    2.30 
  -6  -8  -7   63.59    2.30 
   4  -8   7    9.30    1.20 
   4  -8   7    7.50    1.10 
   2  -8   7   28.60    1.70 
  -2  -8  -7   31.40    1.80 
   0  -8  -7  370.06    3.50 
   0  -8   7  352.46    3.50 
   2  -8  -7    1.80    0.80 
  -2  -8   7    1.80    0.80 
   4  -8  -7   19.70    1.50 
  -4  -8   7   15.90    1.20 
   6  -8  -7  246.08    2.70 
   6  -8  -7  213.18    2.90 
  -6  -8   7  229.58    3.00 
   8  -8  -7  257.67    2.80 
   8  -8  -7  213.28    2.90 
  -8  -8   7  237.08    3.00 
  10  -8  -7   17.00    1.50 
 -10  -8   7   12.50    1.40 
  12  -8  -7    4.00    1.20 
  14  -8  -7  203.38    3.30 
   5  -9   7    7.70    1.10 
   5  -9   7    9.40    1.30 
   3  -9   7    1.00    0.90 
  -3  -9  -7    1.00    0.90 
   3  -9   7    0.20    0.80 
  -1  -9  -7  301.97    3.50 
   1  -9   7  290.47    3.40 
   1  -9  -7  161.08    2.70 
  -1  -9   7  182.48    2.90 
   3  -9  -7  124.99    2.70 
  -3  -9   7  138.29    2.80 
   5  -9  -7   21.30    1.50 
  -5  -9   7   23.80    1.90 
   7  -9  -7  459.25    3.90 
  -7  -9   7  515.15    4.30 
   9  -9  -7   62.59    2.00 
  -9  -9   7   54.59    2.10 
  11  -9  -7   81.69    2.30 
 -11  -9   7   80.39    2.40 
  -2 -10  -7  238.48    3.30 
   2 -10   7  231.88    3.30 
   0 -10  -7    6.30    1.20 
   0 -10   7    8.90    1.50 
   2 -10  -7  315.37    3.70 
  -2 -10   7  358.96    3.90 
  -4 -10   7  542.15    4.30 
   4 -10  -7  546.05    4.30 
  -6 -10   7   42.70    2.10 
   6 -10  -7   39.90    1.80 
  -8 -10   7   68.49    2.20 
  -4   0  -8 4279.77   13.70 
  -2   0  -8  408.66    2.20 
   0   0  -8   24.50    0.80 
   0   0  -8   26.50    1.20 
   0   0  -8   29.50    1.20 
   2   0  -8  428.96    2.50 
   2   0  -8  409.66    2.00 
   4   0  -8 4919.11    6.50 
   4   0  -8 6328.77   16.10 
   6   0  -8  110.09    1.70 
   6   0  -8  119.79    0.90 
   8   0  -8    4.40    0.90 
   8   0  -8    5.60    0.90 
   8   0  -8    4.40    0.70 
  10   0  -8  809.22    3.60 
  10   0  -8  830.32    3.00 
  12   0  -8 2997.00    6.80 
  12   0  -8 3365.26    6.50 
  14   0  -8   11.50    1.20 
  14   0  -8   15.80    1.20 
  16   0  -8  159.98    2.30 
  16   0  -8  168.88    2.30 
  18   0  -8  867.91    5.20 
  -7  -1  -8  507.45    3.40 
   7  -1   8  366.16    2.70 
  -5  -1  -8   36.20    1.40 
   5  -1   8   26.20    1.20 
  -3  -1  -8  115.99    1.70 
   3  -1   8   84.99    1.30 
  -1  -1  -8    8.30    0.80 
   1  -1   8    6.20    0.50 
  -1  -1  -8    5.70    0.90 
  -1   1  -8    7.00    0.50 
   1  -1  -8  347.67    2.30 
   1   1  -8  321.87    1.60 
   1  -1  -8  365.76    2.10 
   1   1  -8  424.16    2.50 
  -1  -1   8  347.27    1.40 
   1  -1  -8  433.96    2.50 
   3  -1  -8  166.08    1.60 
   3   1  -8  164.18    1.90 
   3  -1  -8  207.08    1.60 
   3   1  -8  136.39    1.20 
   3  -1  -8  177.38    1.80 
   5   1  -8   66.39    1.50 
   5  -1  -8   53.49    1.20 
   5  -1  -8   50.49    1.30 
   5   1  -8   59.29    1.40 
   7  -1  -8  316.97    2.40 
  -7  -1   8  316.67    2.00 
   7   1  -8  388.16    2.50 
   7  -1  -8  386.86    2.20 
   7  -1  -8  236.08    1.10 
   7   1  -8  307.47    2.20 
   9   1  -8    4.30    0.80 
   9   1  -8    3.10    0.60 
  -9  -1   8    2.60    0.60 
   9  -1  -8    3.60    0.70 
   9  -1  -8    2.00    0.40 
   9  -1  -8    2.40    0.60 
 -11   1   8  141.09    1.60 
  11  -1  -8  147.69    2.00 
  11  -1  -8  120.99    1.60 
  11   1  -8  137.29    1.80 
  11   1  -8  122.19    1.70 
  13  -1  -8    0.40    0.60 
  13   1  -8    1.10    0.70 
  13  -1  -8    1.20    0.70 
  13   1  -8    0.80    0.70 
  15  -1  -8  320.37    3.10 
  15   1  -8  292.47    2.60 
  15  -1  -8  309.37    2.80 
  15   1  -8  306.77    3.00 
  17  -1  -8  155.58    2.50 
  17   1  -8  157.98    2.70 
  19  -1  -8   10.20    1.20 
  19  -1  -8    8.90    1.20 
  19   1  -8    9.20    1.40 
 -10  -2  -8  239.98    2.90 
  10  -2   8  207.58    2.80 
  -8  -2  -8  181.18    2.50 
   8  -2   8  145.69    2.20 
   6  -2   8  504.75    3.30 
  -6  -2  -8  561.14    3.40 
   6  -2   8  445.16    3.10 
   4  -2   8    2.70    0.80 
  -4  -2  -8    2.30    0.70 
   4  -2   8    3.20    0.60 
  -4  -2  -8    1.30    0.50 
   2  -2   8   42.50    1.30 
  -2  -2  -8   42.30    1.20 
  -2  -2  -8   49.90    1.20 
   2  -2   8   42.70    1.10 
  -2   2  -8   42.80    1.50 
   0  -2   8  320.77    2.30 
   0  -2   8  347.67    1.80 
   0   2  -8  390.06    2.60 
   0  -2  -8  392.86    2.40 
   0  -2  -8  332.37    2.30 
  -2  -2   8  182.28    1.80 
   2  -2  -8  210.58    1.80 
   2  -2  -8  207.88    1.90 
   2  -2  -8  248.28    1.80 
  -4  -2   8   14.40    0.90 
   4   2  -8   17.40    1.20 
   4  -2  -8   13.60    1.00 
   4  -2  -8   16.20    1.10 
  -6  -2   8  149.09    1.60 
   6   2  -8  154.58    1.80 
   6  -2  -8  141.39    1.60 
   6  -2  -8  148.49    1.90 
  -8  -2   8  295.37    2.00 
   8  -2  -8  329.37    2.00 
   8  -2  -8  201.68    1.30 
   8   2  -8  254.37    2.20 
   8  -2  -8  276.07    2.30 
 -10  -2   8    1.20    0.40 
  10  -2  -8    0.60    0.40 
  10  -2  -8    1.30    0.50 
  10  -2  -8    1.20    0.70 
  10   2  -8    0.90    0.60 
  12   2  -8    3.20    0.80 
  12  -2  -8    0.70    0.60 
  12  -2  -8    3.70    0.80 
  12   2  -8    0.40    0.30 
  14   2  -8  359.06    2.80 
  14   2  -8  363.96    3.00 
  16  -2  -8  109.59    2.30 
  16  -2  -8  106.29    2.00 
  18  -2  -8   19.90    1.50 
  18  -2  -8   26.70    1.60 
  18   2  -8   19.40    1.60 
  -9  -3  -8  181.28    2.80 
   9  -3   8  151.68    2.50 
   7  -3   8  183.58    2.30 
  -7   3  -8  158.88    2.70 
  -7  -3  -8  208.88    2.80 
   7  -3   8  171.28    2.30 
   5  -3   8  112.99    2.00 
   5  -3   8  112.09    1.90 
  -5   3  -8   99.39    2.10 
  -3   3  -8  172.28    2.40 
   3  -3   8  168.08    2.10 
   1  -3   8    1.30    0.60 
  -1   3  -8    1.10    0.80 
   1  -3   8    1.20    0.50 
  -1  -3  -8    1.30    0.50 
  -1  -3  -8    8.80    0.90 
  -1  -3   8  113.59    1.60 
  -1  -3   8  139.79    1.40 
   1  -3  -8  125.69    1.60 
   1  -3  -8  144.09    1.70 
  -3  -3   8  301.77    2.30 
   3  -3  -8  302.97    2.20 
   3  -3  -8  342.97    2.30 
   3  -3  -8  384.86    1.80 
  -5  -3   8  175.38    1.80 
   5   3  -8  185.78    2.00 
   5  -3  -8  192.68    2.00 
   5  -3  -8  167.68    1.80 
  -7  -3   8  128.29    1.60 
   7  -3  -8  138.79    1.30 
   7   3  -8  116.79    1.60 
   7  -3  -8  114.69    1.60 
   9   3  -8    8.30    0.90 
   9  -3  -8    7.60    0.50 
   9  -3  -8    9.40    0.90 
  -9  -3   8   10.00    0.80 
  11  -3  -8  256.37    2.50 
  11   3  -8  234.88    2.10 
  13  -3  -8   48.90    1.80 
  13  -3  -8   33.40    1.20 
  15   3  -8  100.99    2.30 
  15  -3  -8  113.99    2.20 
  15  -3  -8   91.09    1.90 
  17  -3  -8  197.18    2.70 
  17   3  -8  193.98    2.90 
  10  -4   8  206.38    3.00 
 -10   4  -8  179.18    2.90 
   8  -4   8   13.10    1.30 
  -8   4  -8   14.30    1.30 
   6  -4   8   91.49    1.90 
  -6   4  -8   89.59    2.20 
  -6  -4  -8  124.99    2.60 
   6  -4   8  106.79    2.00 
   4  -4   8 2250.67    6.40 
   4  -4   8 2657.83    6.60 
  -4  -4  -8 3133.39    7.90 
  -4   4  -8 2449.05    7.10 
   2  -4   8  182.68    2.20 
  -2  -4  -8  277.67    2.60 
   2  -4   8  232.58    2.20 
  -2   4  -8  225.38    2.50 
   0  -4   8    9.10    0.80 
   0  -4  -8    7.30    0.80 
   0  -4   8    8.70    0.70 
   0  -4  -8   11.20    1.00 
   2  -4  -8  272.77    2.10 
  -2  -4   8  300.97    2.50 
   2  -4  -8  341.37    2.60 
  -4  -4   8 3868.01    7.20 
   4  -4  -8 4244.58    7.60 
   4   4  -8 3989.20    7.20 
   4  -4  -8 3587.94    6.60 
  -6  -4   8  112.69    1.80 
   6   4  -8  100.69    1.70 
   6  -4  -8  110.99    1.80 
   6  -4  -8   97.39    1.60 
   8   4  -8    2.40    0.90 
  -8  -4   8    2.10    0.70 
  10  -4  -8  630.44    3.60 
 -10  -4   8  668.03    3.30 
  12  -4  -8 2501.15    7.00 
  14  -4  -8   16.20    1.00 
  14  -4  -8   26.30    1.70 
  16   4  -8   98.09    2.50 
  16  -4  -8  113.49    2.40 
  16  -4  -8   84.89    1.90 
  18  -4  -8  468.75    4.10 
  18   4  -8  503.55    4.60 
   9  -5   8   39.40    1.90 
  -9  -5  -8   45.30    2.10 
  -9   5  -8   31.20    1.80 
   7  -5   8  290.77    3.10 
  -7  -5  -8  327.97    3.60 
  -7   5  -8  240.48    3.10 
   5  -5   8    9.80    1.10 
  -5   5  -8   10.00    1.60 
   5  -5   8   11.80    1.20 
   3  -5   8    1.40    0.70 
  -3  -5  -8    1.60    0.70 
   3  -5   8    1.70    0.80 
   1  -5   8   18.10    1.30 
   1  -5   8   22.40    1.20 
  -1  -5  -8   26.80    1.40 
  -1  -5   8  222.98    2.40 
  -1  -5   8  213.48    1.90 
  -3  -5   8    0.40    0.60 
   3  -5  -8    0.10    0.30 
   3  -5  -8    0.10    0.40 
   5   5  -8    4.30    0.90 
   5  -5  -8    6.40    1.10 
   5  -5  -8    5.50    1.00 
  -5  -5   8    5.10    0.80 
   7  -5  -8  276.57    2.70 
   7  -5  -8  274.57    2.50 
  -7  -5   8  258.77    2.30 
   9  -5  -8   19.40    1.30 
  -9  -5   8   21.20    1.30 
  11  -5  -8    0.70    0.50 
 -11  -5   8    0.30    0.40 
  13  -5  -8   43.90    1.80 
  15  -5  -8  284.87    3.50 
  15  -5  -8  199.38    2.40 
  17   5  -8   20.70    1.70 
  17  -5  -8   23.30    1.40 
   8  -6   8  199.58    3.10 
  -8  -6  -8  206.08    3.20 
   6  -6   8  165.18    2.70 
  -6  -6  -8  174.48    2.70 
  -6   6  -8  124.49    2.50 
   6  -6   8  121.69    2.20 
   4  -6   8    7.70    1.30 
  -4  -6  -8    8.60    1.30 
   2  -6   8   32.10    1.50 
  -2  -6  -8   34.50    1.70 
   0  -6   8  389.66    2.80 
   0  -6  -8  405.26    3.30 
   2  -6  -8   70.89    1.90 
  -2  -6   8   57.19    1.60 
   4  -6  -8   10.20    1.30 
   4  -6  -8    9.40    0.90 
  -4  -6   8    9.40    1.10 
   6   6  -8   22.60    1.20 
   6  -6  -8   27.90    1.60 
   6  -6  -8   27.70    1.30 
  -6  -6   8   23.10    1.10 
   8  -6  -8  307.47    3.00 
   8  -6  -8  327.67    2.90 
  -8  -6   8  328.57    3.00 
  10  -6  -8   29.40    1.20 
 -10  -6   8    1.40    0.70 
  12  -6  -8   15.80    1.40 
 -12  -6   8   17.60    1.30 
  14  -6  -8   96.69    2.50 
 -14  -6   8  113.89    2.40 
  16  -6  -8  118.29    2.70 
 -16  -6   8  151.18    3.00 
   7  -7   8    0.00    0.90 
  -7  -7  -8    0.20    1.10 
   5  -7   8  106.79    2.30 
  -5  -7  -8  120.39    2.70 
   3  -7   8  104.89    2.10 
  -3  -7  -8  114.99    2.30 
   1  -7   8   11.40    1.10 
  -1  -7  -8   12.80    1.40 
   1  -7  -8    0.50    0.70 
  -1  -7   8    0.70    0.50 
   3  -7  -8  194.08    2.70 
  -3  -7   8  175.08    2.40 
   5  -7  -8  194.58    2.60 
   5  -7  -8  200.68    2.20 
   5   7  -8  154.38    2.10 
  -5  -7   8  174.18    2.40 
   7  -7  -8    0.90    0.90 
  -7  -7   8    1.30    0.60 
   9  -7  -8   44.80    1.60 
  -9  -7   8   44.90    1.70 
  11  -7  -8  144.89    2.60 
 -11  -7   8  136.89    2.20 
  13  -7  -8  132.39    2.70 
  15  -7  -8    0.30    0.50 
 -15  -7   8    0.60    1.00 
  -6  -8  -8  102.09    2.80 
   6  -8   8  106.89    2.80 
   4  -8   8 1054.99    5.90 
  -4  -8  -8 1072.49    5.80 
   2  -8   8   46.20    1.60 
   2  -8   8   49.20    2.00 
   0  -8  -8    0.40    0.50 
   0  -8   8    0.60    0.80 
   2  -8  -8  164.18    2.60 
  -2  -8   8  163.98    2.80 
   4  -8  -8 1596.44    6.40 
  -4  -8   8 1413.36    5.90 
   6  -8  -8   78.79    2.20 
   6  -8  -8   84.39    1.90 
  -6  -8   8   80.09    2.20 
   8  -8  -8    1.40    0.70 
   8  -8  -8    0.70    0.70 
  -8  -8   8    2.00    1.00 
  10  -8  -8  224.88    2.90 
 -10  -8   8  196.58    2.70 
  12  -8  -8  979.60    5.70 
  14  -8  -8   51.89    2.10 
   3  -9   8   30.50    1.50 
  -3  -9  -8   41.50    2.30 
   3  -9   8   30.20    1.70 
  -1  -9  -8   16.80    1.70 
   1  -9   8   15.20    1.50 
   1  -9  -8   51.19    2.20 
  -1  -9   8   53.09    2.20 
   3  -9  -8  121.69    2.90 
  -3  -9   8  128.49    2.90 
   5  -9  -8   81.39    2.30 
  -5  -9   8   85.49    2.70 
   7  -9  -8   84.49    2.50 
  -7  -9   8   97.59    2.70 
   9  -9  -8   22.90    1.60 
  -9  -9   8   19.10    1.60 
  11  -9  -8  110.39    2.50 
 -11  -9   8  110.29    2.70 
   0 -10  -8  372.76    4.10 
   0 -10   8  388.56    4.20 
   2 -10  -8    0.70    0.60 
  -2 -10   8    3.70    1.40 
   4 -10  -8   73.79    2.40 
  -4 -10   8   73.89    2.60 
   6 -10  -8    7.40    1.30 
  -6 -10   8    5.70    1.20 
   8 -10  -8  327.77    3.70 
  -8 -10   8  357.96    4.10 
  -2   0  -9    0.70    0.50 
   0   0  -9    0.50    0.50 
   0   0  -9    0.30    0.30 
   2   0  -9    2.00    0.90 
   2   0  -9    1.60    0.50 
   2   0  -9    2.40    0.90 
   4   0  -9    1.30    0.60 
   4   0  -9    2.30    0.80 
   6   0  -9    7.50    1.10 
   6   0  -9    4.50    1.00 
   8   0  -9   10.70    1.00 
  10   0  -9    2.50    0.60 
  10   0  -9    2.80    0.80 
  12   0  -9    1.60    0.80 
  12   0  -9    2.40    0.60 
  14   0  -9    0.30    0.40 
  14   0  -9    1.60    0.70 
  16   0  -9    0.10    0.50 
  16   0  -9    1.80    0.90 
  18   0  -9    0.20    0.50 
  18   0  -9    2.40    1.00 
  -5  -1  -9    2.90    0.70 
  -3  -1  -9    2.40    0.60 
  -3  -1  -9    3.30    0.80 
  -1  -1  -9   38.00    1.20 
  -1   1  -9   36.70    1.50 
   1   1  -9   39.90    0.80 
   1  -1  -9   43.40    1.10 
   1   1  -9   50.89    1.40 
   1   1  -9   42.70    1.50 
   1  -1  -9   51.09    1.30 
   1  -1  -9   43.70    1.60 
   3   1  -9   10.50    1.10 
   3  -1  -9   14.40    0.90 
   3   1  -9   11.30    0.70 
   3  -1  -9   11.10    0.80 
   3  -1  -9   13.40    1.10 
   5  -1  -9   50.09    1.20 
   5  -1  -9   53.99    1.50 
   5   1  -9   57.39    1.50 
   7  -1  -9    3.20    0.70 
  -7  -1   9    5.00    0.70 
   7  -1  -9    3.40    0.70 
   7   1  -9    1.70    0.70 
   9   1  -9   95.79    1.30 
   9   1  -9  105.29    1.80 
  -9  -1   9  101.09    1.40 
   9  -1  -9  102.09    1.80 
  11  -1  -9    4.00    0.90 
  11   1  -9    2.80    0.80 
  11   1  -9    2.00    0.80 
  13  -1  -9  113.59    2.10 
  13   1  -9  115.59    1.90 
  13  -1  -9  111.69    1.70 
  13   1  -9  114.19    1.90 
  15  -1  -9   64.89    1.90 
  15   1  -9   62.09    1.70 
  15  -1  -9   67.39    1.70 
  15   1  -9   70.29    1.90 
  17  -1  -9   53.79    1.90 
  17  -1  -9   57.69    1.80 
  17   1  -9   60.69    1.90 
  19  -1  -9    6.80    1.30 
  19  -1  -9    6.30    1.20 
  -8  -2  -9    2.40    1.00 
   6  -2   9   41.30    1.60 
  -6  -2  -9   43.70    1.70 
   4  -2   9   33.00    1.50 
  -4   2  -9   34.40    1.70 
  -2  -2  -9    4.50    0.80 
   2  -2   9    7.70    1.10 
  -2   2  -9    5.50    1.00 
  -2  -2  -9    6.40    0.90 
   0  -2   9    3.30    0.90 
   0   2  -9    2.70    0.90 
   0  -2  -9    2.50    0.70 
   0  -2  -9    2.10    0.80 
  -2  -2   9   21.60    1.30 
   2  -2  -9   18.50    1.00 
   2  -2  -9   22.00    0.90 
   2  -2  -9   19.60    1.20 
   2   2  -9   16.90    1.10 
  -4  -2   9   97.39    1.60 
   4   2  -9   92.39    1.70 
   4  -2  -9  100.49    1.80 
   4  -2  -9  101.99    1.60 
   6  -2  -9    5.00    0.90 
  -6  -2   9    3.70    0.90 
   6  -2  -9    5.20    0.80 
   6  -2  -9    4.00    0.90 
   6   2  -9    5.10    1.00 
  -8  -2   9    7.50    0.80 
   8   2  -9    7.10    0.90 
   8  -2  -9    7.10    1.00 
 -10  -2   9    3.90    0.80 
  10   2  -9    4.50    1.10 
  10  -2  -9    3.40    0.70 
  10  -2  -9    3.80    1.00 
  12   2  -9   56.19    1.60 
  12  -2  -9   56.09    1.70 
  12   2  -9   55.29    1.50 
  14   2  -9    2.20    0.80 
  14   2  -9    2.40    0.80 
  16  -2  -9    1.00    0.60 
  16   2  -9    1.70    0.90 
  18  -2  -9   16.10    1.60 
  18   2  -9   16.80    1.40 
  -9  -3  -9    2.70    0.90 
  -9   3  -9    0.50    0.70 
  -7  -3  -9  109.79    2.30 
  -7   3  -9   81.29    2.20 
   5  -3   9    2.30    0.80 
  -5  -3  -9    4.00    1.10 
  -5   3  -9    0.60    0.70 
   3  -3   9  102.59    2.10 
  -3  -3  -9  110.99    2.00 
  -3   3  -9   96.49    2.20 
  -1   3  -9   38.30    1.70 
   1  -3   9   35.70    1.60 
   1  -3   9   37.70    1.10 
  -1  -3  -9   40.00    1.40 
  -1  -3  -9   36.60    1.30 
   1  -3  -9  183.28    1.90 
  -1  -3   9  166.68    2.00 
  -1  -3   9  163.58    1.40 
   1  -3  -9  201.88    2.20 
  -3  -3   9   23.00    1.30 
   3  -3  -9   23.90    1.10 
   3  -3  -9   25.10    1.20 
   3   3  -9   23.80    1.20 
  -5  -3   9  306.57    2.30 
   5   3  -9  325.97    2.70 
   5  -3  -9  365.06    2.60 
   5  -3  -9  336.77    2.60 
  -7  -3   9   89.09    1.60 
   7  -3  -9  100.39    1.30 
   7  -3  -9   85.79    1.70 
   7   3  -9   89.89    1.80 
   7  -3  -9   81.69    1.70 
  -9  -3   9  116.39    1.60 
   9  -3  -9  111.79    1.90 
  11   3  -9   26.80    1.20 
  11  -3  -9   23.30    1.40 
  13  -3  -9  286.57    3.10 
  13   3  -9  259.07    2.40 
  15   3  -9   19.10    1.50 
  15  -3  -9   18.10    1.60 
  17  -3  -9    3.60    1.10 
  17   3  -9    2.70    1.10 
  -8  -4  -9   41.10    2.00 
  -8   4  -9   30.80    1.60 
   6  -4   9   69.09    1.80 
  -6  -4  -9   81.79    2.20 
   6  -4   9   74.89    1.90 
  -6   4  -9   64.39    2.10 
   4  -4   9   95.99    2.10 
   4  -4   9  110.89    1.90 
  -4  -4  -9  117.09    2.30 
  -4   4  -9   93.99    2.30 
   2  -4   9   19.60    1.30 
   2  -4   9   25.80    1.20 
  -2  -4  -9   28.60    1.50 
  -2   4  -9   22.20    1.70 
   0  -4   9    2.90    0.70 
   0  -4   9    3.50    0.60 
   0  -4  -9    3.70    0.80 
   0  -4  -9    4.20    0.80 
  -2  -4   9   28.10    1.30 
   2  -4  -9   33.60    1.20 
   2  -4  -9   33.40    1.40 
  -4  -4   9  169.38    2.00 
   4   4  -9  184.38    2.20 
   4  -4  -9  167.78    2.00 
  -6  -4   9    2.60    1.00 
   6   4  -9    2.30    0.70 
   6  -4  -9    2.10    0.70 
   8   4  -9    7.00    1.10 
   8  -4  -9    6.90    1.20 
  -8  -4   9    5.80    0.90 
  10   4  -9    7.40    0.80 
  10  -4  -9    7.40    1.00 
 -10  -4   9   10.40    1.00 
  12  -4  -9  104.49    2.20 
  14  -4  -9   38.60    1.80 
  16   4  -9    8.70    1.60 
  16  -4  -9    7.10    1.30 
  18  -4  -9   58.79    2.30 
  18   4  -9   51.59    2.20 
   7  -5   9   14.50    1.40 
  -7  -5  -9   14.80    1.70 
  -7   5  -9   10.40    1.20 
   5  -5   9   13.20    1.40 
  -5   5  -9   10.70    1.50 
   5  -5   9   12.20    1.20 
  -5  -5  -9   12.30    1.20 
   3  -5   9   75.49    1.80 
  -3  -5  -9   81.19    2.10 
   1  -5   9   20.90    1.10 
  -1  -5  -9   22.00    1.50 
  -1  -5   9    2.00    0.90 
  -1  -5   9    2.20    0.70 
   1  -5  -9    2.00    0.70 
  -3  -5   9    1.20    0.70 
   3  -5  -9    1.20    0.50 
   3  -5  -9    0.80    0.50 
  -5  -5   9   21.00    1.40 
   5  -5  -9   21.90    1.40 
   5   5  -9   18.00    1.40 
   5  -5  -9   18.20    1.10 
   7  -5  -9   86.69    2.10 
   7  -5  -9   78.69    1.80 
   7   5  -9   68.29    1.70 
  -7  -5   9   76.79    1.70 
   9  -5  -9   56.09    1.70 
   9   5  -9   50.49    1.50 
  -9  -5   9   60.49    1.70 
  11  -5  -9   20.80    1.50 
 -11  -5   9   23.00    1.20 
  13  -5  -9   12.50    1.50 
  15  -5  -9  277.07    3.40 
  17   5  -9  109.59    2.70 
  17  -5  -9  129.69    2.90 
   6  -6   9  189.18    2.90 
  -6  -6  -9  185.88    2.90 
  -6   6  -9  143.99    2.70 
   6  -6   9  148.19    2.60 
  -4  -6  -9  192.78    2.80 
   4  -6   9  195.28    2.80 
   2  -6   9   22.30    1.60 
  -2  -6  -9   29.80    1.60 
   2  -6   9   30.10    1.30 
   0  -6   9    8.60    1.10 
   0  -6  -9    9.20    1.10 
   2  -6  -9   77.09    2.00 
  -2  -6   9   72.49    2.10 
   4  -6  -9  498.75    3.50 
   4  -6  -9  425.16    2.80 
  -4  -6   9  467.45    3.50 
   6  -6  -9    2.00    0.90 
   6   6  -9    2.30    0.90 
   6  -6  -9    1.80    0.70 
  -6  -6   9    2.00    0.80 
   8  -6  -9   37.70    1.60 
  -8  -6   9   39.00    1.60 
  10  -6  -9    6.50    1.10 
 -10  -6   9    5.70    0.90 
  12  -6  -9  326.57    3.40 
  14  -6  -9    4.90    1.20 
 -14  -6   9    8.50    1.40 
  16  -6  -9    5.80    1.40 
 -16  -6   9    8.60    1.40 
   5  -7   9    3.00    1.00 
   5  -7   9    0.70    0.80 
   3  -7   9  153.88    2.40 
   3  -7   9  142.59    2.50 
   1  -7   9   18.40    1.40 
  -1  -7  -9   18.80    1.50 
   1  -7   9   14.70    1.30 
   1  -7  -9  222.68    3.00 
  -1  -7   9  182.38    2.50 
   3  -7  -9   21.80    1.60 
  -3  -7   9   20.90    1.40 
   5  -7  -9  482.05    3.80 
   5  -7  -9  447.36    3.20 
  -5  -7   9  463.85    3.80 
   7  -7  -9  179.48    2.80 
   7  -7  -9  178.78    2.30 
  -7  -7   9  164.38    2.40 
   9  -7  -9   81.19    2.00 
  -9  -7   9   86.19    2.20 
  11  -7  -9   44.50    1.80 
 -11  -7   9   53.69    1.90 
  13  -7  -9  292.77    3.50 
  15  -7  -9  119.89    2.80 
   4  -8   9  180.48    3.10 
  -4  -8  -9  173.48    3.20 
   2  -8   9   38.60    1.70 
   2  -8   9   40.00    2.00 
   0  -8  -9   14.10    1.50 
   0  -8   9   11.20    1.20 
   2  -8  -9   37.20    1.90 
  -2  -8   9   35.00    2.00 
   4  -8  -9  326.27    3.70 
  -4  -8   9  279.97    3.00 
   6  -8  -9    1.00    0.70 
  -6  -8   9    0.90    0.80 
   8  -8  -9    4.20    1.10 
  -8  -8   9    3.90    1.10 
   8  -8  -9    2.80    0.90 
  10  -8  -9   21.20    1.50 
 -10  -8   9   26.40    2.10 
  12  -8  -9  169.68    3.10 
 -12  -8   9  162.68    2.80 
  -1  -9  -9    6.20    1.10 
   1  -9   9    5.30    1.10 
   1  -9  -9   12.30    1.60 
  -1  -9   9   10.40    1.20 
   3  -9  -9    0.00    0.50 
  -3  -9   9    0.70    0.90 
   5  -9  -9   61.29    2.20 
  -5  -9   9   60.29    2.30 
   7  -9  -9  100.39    2.60 
  -7  -9   9   96.59    2.40 
   9  -9  -9   28.10    1.60 
  -9  -9   9   25.20    1.70 
  11  -9  -9   30.70    2.10 
 -11  -9   9   28.30    1.70 
  -2 -10   9   46.80    2.10 
   4 -10  -9  448.56    4.40 
  -4 -10   9  403.86    4.00 
   6 -10  -9    7.70    1.50 
  -6 -10   9    7.80    1.60 
   0   0 -10  226.38    1.90 
   0   0 -10  218.68    2.50 
   2   0 -10 1145.39    4.50 
   2   0 -10 1139.09    3.60 
   4   0 -10   13.60    0.90 
   4   0 -10   14.30    1.30 
   6   0 -10   19.60    1.30 
   8   0 -10 1133.29    4.40 
 -10   0  10  127.29    1.50 
  10   0 -10  122.29    2.00 
  12   0 -10  128.69    2.10 
  14   0 -10  118.19    2.10 
  16   0 -10 1042.40    5.10 
  18   0 -10   38.30    1.60 
  -3  -1 -10  473.95    2.90 
  -3  -1 -10  382.36    3.00 
  -3   1 -10  471.15    3.80 
  -1  -1 -10    2.00    0.70 
  -1   1 -10    1.60    0.80 
  -1  -1 -10    1.60    0.60 
   1   1 -10   25.20    1.40 
   1  -1 -10   20.10    1.00 
   1   1 -10   18.20    1.30 
   1  -1 -10   21.50    1.10 
   1  -1 -10   18.80    1.20 
   3   1 -10   74.59    1.80 
   3  -1 -10   95.59    1.60 
   3   1 -10   63.69    1.10 
   3  -1 -10   73.69    1.40 
   3  -1 -10   78.29    1.80 
   5  -1 -10  778.82    3.30 
   5  -1 -10  846.62    3.70 
   5   1 -10  818.62    3.80 
   7  -1 -10  197.48    2.30 
  -7  -1  10  178.18    1.80 
   7   1 -10  188.28    2.20 
  -9  -1  10    4.50    0.80 
   9   1 -10    4.00    0.90 
   9  -1 -10    5.10    0.90 
  11  -1 -10    5.70    0.80 
  11   1 -10    5.60    1.00 
  13  -1 -10  337.97    3.20 
  13   1 -10  337.17    3.00 
  15  -1 -10  334.27    3.30 
  15   1 -10  323.77    2.90 
  17  -1 -10   25.00    1.50 
  17   1 -10   25.80    1.40 
  17   1 -10   30.80    1.50 
  19  -1 -10   37.40    1.80 
  19   1 -10   44.80    2.00 
   6  -2  10   18.30    1.30 
  -6  -2 -10   19.00    1.50 
   4  -2  10  408.26    3.40 
  -4  -2 -10  426.86    3.20 
   2  -2  10  187.48    2.50 
  -2   2 -10  183.18    2.50 
   0  -2  10   83.69    1.70 
   0   2 -10   94.19    2.00 
   0  -2 -10   87.09    1.70 
   0  -2 -10   79.49    1.90 
  -2  -2  10    4.40    1.00 
   2  -2 -10    5.60    0.60 
   2  -2 -10    3.60    1.00 
   2   2 -10    2.50    0.80 
   2  -2 -10    4.00    0.70 
   4   2 -10  505.55    3.30 
  -4  -2  10  507.45    3.00 
   4  -2 -10  552.84    3.10 
   4  -2 -10  557.44    3.30 
   6  -2 -10  333.57    2.60 
  -6  -2  10  321.47    2.50 
   6  -2 -10  332.37    2.60 
   6   2 -10  326.27    2.80 
  -8  -2  10   15.70    1.10 
   8  -2 -10   17.70    1.00 
   8   2 -10   17.20    1.20 
   8  -2 -10   16.60    1.20 
 -10  -2  10   83.69    1.50 
  10   2 -10   78.89    1.70 
  10  -2 -10   73.19    1.70 
  12   2 -10  170.48    2.10 
  12  -2 -10  170.58    2.50 
  12   2 -10  174.48    2.30 
  14  -2 -10  118.99    2.20 
  14   2 -10  123.19    2.10 
  14   2 -10  118.39    2.00 
  16  -2 -10   12.30    1.00 
  16   2 -10   13.70    1.00 
  18  -2 -10  285.57    3.40 
  18   2 -10  309.77    3.40 
  -7   3 -10   12.20    1.30 
  -7  -3 -10   20.20    1.50 
   5  -3  10  369.96    3.40 
  -5  -3 -10  392.06    3.40 
   3  -3  10  149.49    2.30 
  -3   3 -10  154.28    2.70 
  -1   3 -10   18.70    1.50 
   1  -3  10   17.40    1.40 
  -1  -3 -10   16.10    1.10 
  -1  -3 -10   18.80    1.30 
  -1  -3  10   72.59    1.80 
   1  -3 -10   75.49    1.80 
   1  -3 -10   72.19    1.70 
  -3  -3  10  174.28    2.30 
   3  -3 -10  186.68    2.30 
   3  -3 -10  196.68    2.30 
   3   3 -10  178.58    2.40 
   5  -3 -10  324.07    2.50 
  -5  -3  10  295.07    2.40 
   5   3 -10  308.97    2.70 
  -7  -3  10  278.97    2.50 
   7  -3 -10  294.67    2.70 
   7   3 -10  285.77    2.60 
   7  -3 -10  270.47    2.60 
  -9  -3  10   36.00    1.40 
   9   3 -10   32.60    1.50 
   9  -3 -10   29.60    1.20 
  11   3 -10    9.30    1.10 
  11  -3 -10    6.10    0.90 
 -11  -3  10    7.80    0.90 
  13  -3 -10  143.19    2.50 
  13   3 -10  141.59    2.00 
  15   3 -10  392.96    3.30 
  15  -3 -10  407.96    3.70 
  17  -3 -10    2.10    1.00 
  17   3 -10    0.40    0.90 
  -8   4 -10    1.20    0.80 
  -8  -4 -10    2.60    1.10 
   6  -4  10 1283.27    5.60 
  -6  -4 -10 1360.96    6.30 
   4  -4  10   87.69    2.20 
  -4   4 -10   86.09    2.40 
   2  -4  10    8.80    1.20 
  -2  -4 -10   14.00    1.20 
  -2   4 -10   14.40    1.50 
   0  -4  10  124.29    2.10 
   0  -4 -10  142.29    1.90 
   0  -4 -10  163.38    2.40 
  -2  -4  10  686.23    3.80 
   2  -4 -10  771.42    3.60 
   2  -4 -10  841.42    4.20 
  -4  -4  10    3.70    0.80 
   4  -4 -10    5.90    1.00 
   4   4 -10    4.40    1.00 
   4  -4 -10    6.70    1.10 
  -6  -4  10   17.90    1.30 
   6   4 -10   18.80    1.50 
   6  -4 -10   18.20    1.20 
  -8  -4  10  753.02    3.80 
   8  -4 -10  734.43    3.90 
   8   4 -10  684.63    3.70 
   8  -4 -10  664.43    3.80 
  10   4 -10   75.59    1.60 
  10  -4 -10   77.09    2.00 
  12  -4 -10   85.19    2.00 
  14  -4 -10   82.39    2.20 
  16   4 -10  688.33    4.60 
  16  -4 -10  743.63    5.00 
  18  -4 -10   19.20    1.50 
  18   4 -10   20.10    2.00 
  -7   5 -10   32.50    2.20 
  -7  -5 -10   39.70    2.10 
  -5   5 -10    8.90    1.30 
   5  -5  10    9.80    1.10 
   3  -5  10  309.67    3.10 
  -3  -5 -10  374.86    3.50 
   1  -5  10   20.40    1.60 
  -1  -5 -10   19.90    1.40 
  -1  -5  10    9.00    1.40 
   1  -5 -10    9.80    1.20 
  -3  -5  10    0.40    0.40 
   3  -5 -10    0.20    0.40 
  -5  -5  10  549.54    3.70 
   5  -5 -10  605.54    3.90 
   5   5 -10  517.55    3.60 
   5  -5 -10  438.36    3.00 
   7  -5 -10   17.20    1.40 
   7  -5 -10   16.00    1.40 
  -7  -5  10   17.50    1.40 
   9  -5 -10   15.80    1.30 
   9   5 -10   16.30    1.30 
  -9  -5  10   18.30    1.20 
  11  -5 -10   20.10    1.50 
 -11  -5  10   30.70    1.50 
  13  -5 -10  274.47    3.20 
  15  -5 -10   71.29    2.30 
  17   5 -10   57.39    2.30 
  17  -5 -10   59.59    2.40 
  -6  -6 -10   50.29    2.40 
   4  -6  10  136.79    2.50 
  -4  -6 -10  172.98    3.00 
   2  -6  10   22.00    1.70 
   2  -6  10   25.10    1.40 
  -2  -6 -10   29.40    1.70 
   0  -6  10   51.09    1.70 
   0  -6  10   51.09    1.30 
   0  -6 -10   61.99    1.90 
  -2  -6  10   12.30    1.10 
   2  -6 -10   15.30    1.40 
   4  -6 -10  176.18    2.70 
   4  -6 -10  136.09    2.00 
  -4  -6  10  157.68    2.50 
   6   6 -10   88.69    2.00 
   6  -6 -10  115.19    2.40 
   6  -6 -10   91.79    2.00 
  -6  -6  10  104.59    2.30 
   8  -6 -10   45.40    1.70 
   8   6 -10   42.00    1.40 
  -8  -6  10   46.10    1.70 
  10  -6 -10   33.70    1.50 
 -10  -6  10   40.50    1.80 
  12  -6 -10   28.40    1.70 
  14  -6 -10   56.39    2.10 
  16  -6 -10   52.59    2.20 
 -16  -6  10   76.89    2.70 
   5  -7  10  180.38    3.10 
   3  -7  10    0.40    0.60 
   3  -7  10    0.10    0.50 
   1  -7  10   50.59    1.70 
  -1  -7 -10   44.90    1.80 
   1  -7  10   37.50    1.90 
   1  -7 -10   50.49    1.90 
  -1  -7  10   40.00    1.60 
   3  -7 -10  177.38    3.00 
  -3  -7  10  159.68    2.80 
   5  -7 -10    4.80    1.20 
   5   7 -10    4.70    1.10 
  -5  -7  10    3.20    1.00 
   7  -7 -10  192.58    3.00 
  -7  -7  10  185.18    2.90 
   9  -7 -10   29.30    1.50 
  -9  -7  10   30.70    1.60 
  11  -7 -10   46.80    1.80 
 -11  -7  10   52.99    1.90 
  13  -7 -10    2.60    1.10 
  15  -7 -10  200.28    3.40 
   2  -8  10    0.00    0.90 
  -2  -8 -10    1.30    0.80 
   2  -8  10    2.80    1.10 
   0  -8 -10   26.60    1.60 
   0  -8  10   25.30    1.80 
   2  -8 -10  204.28    3.10 
  -2  -8  10  184.38    3.10 
   4  -8 -10    1.70    0.90 
  -4  -8  10    2.20    0.90 
   6  -8 -10   16.90    1.70 
  -6  -8  10   15.80    1.80 
   8  -8 -10  164.78    2.30 
  -8  -8  10  159.68    2.60 
  10  -8 -10   25.40    1.70 
 -10  -8  10   30.30    2.00 
  12  -8 -10   21.80    1.70 
 -12  -8  10   25.20    2.00 
   1  -9 -10   70.99    2.30 
  -1  -9  10   65.49    2.40 
   3  -9 -10   25.40    1.60 
  -3  -9  10   26.90    2.00 
   5  -9 -10  163.08    3.30 
  -5  -9  10  160.18    3.20 
   7  -9 -10   16.60    1.70 
  -7  -9  10   17.10    1.70 
  -9  -9  10   82.09    2.80 
  -2   0 -11    1.30    0.80 
  -2   0 -11    1.60    0.80 
   0   0 -11    0.70    0.60 
   0   0 -11    0.30    0.60 
   2   0 -11    2.60    1.10 
   2   0 -11    4.50    1.20 
   2   0 -11    2.40    0.80 
   4   0 -11    0.60    0.40 
   4   0 -11    0.50    0.70 
   6   0 -11    1.80    1.00 
   8   0 -11    0.20    0.40 
  10   0 -11    4.60    1.00 
  12   0 -11    0.30    0.60 
  14   0 -11    1.30    1.00 
  16   0 -11    1.10    1.00 
  18   0 -11    0.20    0.60 
  -5   1 -11  259.57    3.20 
  -3   1 -11  485.85    3.80 
  -3  -1 -11  402.46    3.30 
  -1   1 -11  135.49    2.50 
  -1  -1 -11  102.29    2.10 
  -1  -1 -11  120.49    1.90 
   1   1 -11   24.10    1.50 
   1  -1 -11   19.10    1.10 
   1  -1 -11   23.70    1.40 
   1   1 -11   18.10    1.30 
   1  -1 -11   19.20    1.30 
   3  -1 -11  257.27    2.20 
   3  -1 -11  266.07    2.80 
   5  -1 -11  752.52    3.50 
   5  -1 -11  824.42    4.10 
   5   1 -11  752.82    4.10 
   7  -1 -11  336.47    3.00 
   7   1 -11  320.37    2.80 
   9  -1 -11   25.70    1.60 
  -9  -1  11   25.60    1.30 
   9   1 -11   23.30    1.50 
  11   1 -11   98.79    2.00 
  11  -1 -11   94.79    2.10 
  13  -1 -11  447.36    3.60 
  13   1 -11  443.96    3.60 
  15  -1 -11  370.46    3.40 
  15   1 -11  364.46    3.10 
  17  -1 -11   75.09    2.00 
  17   1 -11   78.69    2.00 
  19  -1 -11   17.00    1.50 
   6  -2  11   43.40    1.80 
  -6   2 -11   37.60    2.00 
   4  -2  11   46.80    2.10 
  -4  -2 -11   45.60    1.70 
  -2  -2 -11    1.60    0.80 
  -2  -2 -11    2.20    0.70 
  -2   2 -11    2.20    1.00 
   0   2 -11   27.60    1.80 
   0  -2  11   27.80    1.60 
   0  -2 -11   23.20    1.20 
   0  -2 -11   20.50    1.40 
  -2  -2  11   77.09    1.90 
   2  -2 -11   72.19    1.70 
   2  -2 -11   85.69    1.80 
   2   2 -11   65.59    1.80 
   2  -2 -11   72.19    1.90 
   4   2 -11   11.90    1.20 
  -4  -2  11   15.80    1.40 
   4  -2 -11   14.80    1.20 
   4  -2 -11   13.80    1.20 
   4  -2 -11   17.60    1.00 
  -6  -2  11    2.10    0.90 
   6  -2 -11    0.20    0.40 
   6  -2 -11    1.10    0.80 
   6   2 -11    1.90    1.10 
  -8  -2  11   76.69    1.70 
   8   2 -11   81.29    2.00 
   8  -2 -11   85.29    1.90 
 -10  -2  11   30.20    1.20 
  10   2 -11   31.00    1.50 
  10  -2 -11   28.30    1.40 
  12  -2 -11    0.30    0.40 
  12   2 -11    0.50    0.70 
  14  -2 -11    8.40    1.20 
  14   2 -11    6.40    0.90 
  16  -2 -11   73.09    2.20 
  16   2 -11   76.19    1.90 
  18  -2 -11    1.60    0.70 
  -7  -3 -11   41.60    1.90 
  -7   3 -11   32.40    2.10 
   5  -3  11  614.74    4.30 
  -5  -3 -11  591.54    4.30 
   3  -3  11  231.28    2.80 
  -3   3 -11  227.18    3.20 
  -1  -3 -11   16.30    1.50 
  -1  -3 -11   16.80    1.20 
  -1   3 -11   16.00    1.60 
  -1  -3  11  108.09    2.10 
   1  -3 -11  110.49    2.00 
   1  -3 -11  106.99    1.90 
  -3  -3  11  341.27    2.90 
   3  -3 -11  390.66    3.00 
   3  -3 -11  381.36    2.90 
   3   3 -11  342.57    3.00 
   5   3 -11  235.48    2.80 
   5  -3 -11  274.17    2.50 
  -5  -3  11  250.37    2.60 
   5  -3 -11  271.57    2.50 
  -7  -3  11  242.78    2.60 
   7   3 -11  240.48    2.80 
   7  -3 -11  239.68    2.70 
  -9  -3  11  171.28    2.20 
   9   3 -11  170.78    2.50 
   9  -3 -11  156.38    2.40 
  11   3 -11   35.60    1.40 
  11  -3 -11   38.00    1.70 
  13  -3 -11  138.69    2.40 
  13   3 -11  141.29    2.10 
  15  -3 -11  507.35    4.30 
  17  -3 -11  170.58    2.90 
   6  -4  11    2.20    1.10 
  -6  -4 -11    2.10    1.20 
  -6   4 -11    1.70    0.90 
   4  -4  11    0.40    0.60 
  -4   4 -11    0.20    0.50 
   2  -4  11  159.58    2.60 
  -2  -4 -11  160.68    2.50 
  -2   4 -11  147.49    2.50 
   0  -4  11    1.90    0.90 
   0  -4 -11    1.70    0.70 
  -2  -4  11    7.70    1.10 
   2  -4 -11   10.30    1.20 
   2  -4 -11   10.30    1.20 
   4  -4 -11   45.80    1.50 
  -4  -4  11   41.40    1.70 
   4  -4 -11   48.20    1.70 
   4   4 -11   40.30    1.80 
  -6  -4  11  166.18    2.20 
   6  -4 -11  163.08    2.40 
  -8  -4  11   13.10    1.50 
   8  -4 -11   11.70    1.20 
   8   4 -11   12.80    1.30 
  10   4 -11    0.90    0.70 
  10  -4 -11    1.60    0.90 
 -10  -4  11    0.40    0.60 
  12   4 -11   83.59    1.80 
  12  -4 -11   84.19    2.30 
  14  -4 -11   51.29    1.90 
  16  -4 -11   16.40    1.90 
   5  -5  11   37.20    1.70 
  -5  -5 -11   39.30    2.00 
   3  -5  11  464.55    3.90 
  -3  -5 -11  467.75    4.00 
   1  -5  11  165.28    2.70 
  -1  -5 -11  173.48    2.80 
  -1  -5  11   13.40    1.40 
   1  -5 -11   14.10    1.30 
  -3  -5  11   61.59    1.90 
   3  -5 -11   69.39    2.00 
   3  -5 -11   53.79    1.50 
  -5  -5  11  845.22    4.60 
   5  -5 -11  949.21    5.00 
   5   5 -11  773.92    4.40 
   5  -5 -11  707.63    3.90 
  -7  -5  11  187.78    2.60 
   7  -5 -11  197.18    2.90 
   7  -5 -11  166.08    2.50 
   7   5 -11  158.18    2.60 
   9   5 -11   25.30    1.40 
   9  -5 -11   23.40    1.70 
  -9  -5  11   26.60    1.50 
  11  -5 -11   73.39    2.10 
 -11  -5  11   90.19    2.10 
  13  -5 -11  495.05    4.00 
  15  -5 -11  128.59    2.90 
  17   5 -11    5.90    1.40 
  17  -5 -11    5.20    1.40 
   4  -6  11  233.38    3.20 
  -4  -6 -11  246.28    3.40 
   2  -6  11    2.80    1.00 
  -2  -6 -11    1.40    1.00 
   0  -6  11  105.79    2.20 
   0  -6 -11  128.79    2.80 
  -2  -6  11  359.76    3.50 
   2  -6 -11  395.46    3.70 
  -4  -6  11   79.39    2.30 
   4  -6 -11   89.99    2.40 
   4   6 -11   78.59    2.20 
   6   6 -11    1.90    0.90 
   6  -6 -11    1.80    0.80 
  -6  -6  11    1.60    0.60 
   8  -6 -11  463.75    4.00 
   8  -6 -11  364.46    3.20 
   8   6 -11  359.16    3.20 
  -8  -6  11  446.26    3.70 
  10  -6 -11  166.88    2.70 
 -10  -6  11  175.58    2.40 
  12  -6 -11    2.70    0.80 
 -12  -6  11    3.90    1.00 
  14  -6 -11   49.10    2.20 
  -3  -7 -11   60.29    2.40 
   3  -7  11   41.20    2.00 
  -1  -7 -11    6.40    1.20 
   1  -7  11    5.40    1.00 
   1  -7 -11   87.99    2.40 
  -1  -7  11   80.49    2.40 
   3  -7 -11  248.58    3.10 
  -3  -7  11  230.78    3.30 
   5   7 -11   18.20    1.50 
  -5  -7  11   19.00    1.50 
   7  -7 -11   99.79    2.40 
  -7  -7  11   90.19    2.30 
   9  -7 -11  181.68    2.90 
   9  -7 -11  148.09    2.40 
  -9  -7  11  180.28    2.90 
  11  -7 -11    1.20    0.70 
 -11  -7  11    2.60    1.20 
  13  -7 -11    6.60    1.20 
   0  -8 -11    3.70    1.20 
   0  -8  11    2.50    0.80 
   2  -8 -11   11.30    1.30 
  -2  -8  11   10.30    1.50 
   4  -8 -11   84.59    2.70 
  -4  -8  11   76.39    2.30 
   6  -8 -11  323.37    3.90 
  -6  -8  11  267.57    3.20 
   8  -8 -11   10.40    1.30 
  -8  -8  11   11.10    1.40 
  10  -8 -11    1.20    0.80 
 -10  -8  11    0.50    0.70 
  12  -8 -11  140.39    2.90 
 -12  -8  11  173.48    3.10 
   3  -9 -11    1.80    0.90 
  -3  -9  11    2.90    1.20 
   5  -9 -11  505.35    4.80 
  -5  -9  11  481.45    4.50 
   7  -9 -11   51.39    2.50 
  -7  -9  11   52.79    2.50 
  -4   0 -12  260.97    3.10 
  -4   0 -12  281.87    3.40 
  -2   0 -12   33.80    1.90 
  -2   0 -12   30.30    1.70 
   0   0 -12  119.59    2.40 
   0   0 -12  158.08    2.50 
   2   0 -12 3295.07    7.70 
   2   0 -12 2505.95    7.10 
   4   0 -12  117.39    1.80 
   4   0 -12  132.79    2.40 
   6   0 -12   50.89    2.00 
   8   0 -12  545.25    3.90 
  10   0 -12 2510.45    7.00 
  12   0 -12    8.10    1.30 
  14   0 -12   11.50    1.10 
  16   0 -12  755.82    4.70 
  18   0 -12  673.73    4.80 
  -5   1 -12   64.69    2.30 
  -3  -1 -12   12.80    1.30 
  -3   1 -12   14.60    1.50 
  -1  -1 -12  237.58    2.80 
  -1   1 -12  271.57    3.20 
  -1  -1 -12  312.07    3.10 
  -1   1 -12  311.77    3.20 
   1  -1 -12   77.59    1.90 
   1   1 -12   85.09    2.30 
   1  -1 -12   67.59    1.50 
   1   1 -12   60.59    1.90 
   1  -1 -12   65.89    1.90 
   3  -1 -12   80.99    1.70 
   3  -1 -12   85.19    2.20 
   5  -1 -12   99.39    1.80 
   5  -1 -12  105.09    2.20 
   5   1 -12   99.59    2.20 
   7  -1 -12   71.89    2.00 
   7   1 -12   66.49    1.90 
  -9  -1  12  156.98    2.10 
   9   1 -12  161.98    2.40 
 -11  -1  12    5.70    0.90 
  11  -1 -12    4.50    1.00 
  13  -1 -12  221.78    3.10 
  13   1 -12  226.58    2.90 
  15  -1 -12   31.60    1.60 
  15   1 -12   30.90    1.60 
  17  -1 -12   59.29    2.10 
  17   1 -12   58.09    1.80 
   6  -2  12    6.70    1.30 
  -6   2 -12    6.20    1.40 
  -4   2 -12  261.67    3.40 
   4  -2  12  266.17    3.10 
   2  -2  12  135.49    2.40 
  -2  -2 -12  140.29    2.20 
  -2   2 -12  164.38    2.90 
  -2  -2 -12  108.69    2.00 
   0   2 -12   89.79    2.40 
   0  -2  12   90.39    2.30 
   0  -2 -12   77.39    1.80 
   0  -2 -12   88.09    1.90 
   0   2 -12   77.19    2.30 
   0  -2 -12   71.69    1.90 
  -2  -2  12   46.60    1.60 
   2  -2 -12   40.90    1.40 
   2   2 -12   38.40    1.90 
   2  -2 -12   39.90    1.60 
   2  -2 -12   49.10    1.70 
   4   2 -12   24.50    1.50 
  -4  -2  12   20.60    1.50 
   4  -2 -12   18.20    1.20 
   4  -2 -12   17.10    1.30 
   4  -2 -12   21.80    1.30 
  -6  -2  12  123.39    2.00 
   6  -2 -12  139.29    2.40 
   6  -2 -12  137.19    2.20 
   6   2 -12  128.19    2.40 
   8  -2 -12    3.70    1.10 
  -8  -2  12    2.00    0.90 
   8   2 -12    3.80    1.20 
 -10  -2  12   24.50    1.30 
  10   2 -12   25.40    1.50 
  10  -2 -12   26.10    1.50 
  12   2 -12   65.59    2.00 
  12  -2 -12   57.79    1.60 
  14  -2 -12   67.89    2.20 
  14   2 -12   69.79    1.90 
  16  -2 -12   43.50    1.90 
  16   2 -12   45.70    1.70 
  18  -2 -12    0.80    0.50 
   5  -3  12   77.09    2.40 
  -5  -3 -12   79.09    2.20 
   3  -3  12   19.80    1.80 
  -3   3 -12   19.50    1.90 
  -3  -3 -12   18.00    1.50 
   1  -3  12  158.18    2.80 
  -1   3 -12  156.18    2.90 
  -1  -3  12  133.09    2.50 
   1  -3 -12  120.69    2.10 
   1  -3 -12  118.79    2.20 
   1  -3 -12  141.19    2.10 
   1   3 -12  125.89    2.60 
  -3  -3  12  133.49    2.40 
   3  -3 -12  135.59    2.30 
   3  -3 -12  131.69    2.20 
   5   3 -12   38.60    1.80 
  -5  -3  12   43.50    1.80 
   5  -3 -12   53.59    1.80 
   5  -3 -12   49.80    1.80 
  -7  -3  12   17.10    1.30 
   7  -3 -12   19.60    1.40 
   7   3 -12   18.40    1.50 
   7  -3 -12   21.10    1.60 
  -9  -3  12  196.18    2.30 
   9   3 -12  219.98    2.90 
   9  -3 -12  207.88    2.90 
  11   3 -12   36.90    1.20 
  11  -3 -12   39.90    1.50 
  13  -3 -12  101.79    2.60 
  13   3 -12  107.49    2.10 
  15  -3 -12   55.19    2.20 
  17  -3 -12   91.59    2.50 
   4  -4  12  166.18    2.90 
  -4  -4 -12  170.58    3.00 
   2  -4  12   14.00    1.50 
  -2  -4 -12   14.40    1.30 
   0  -4  12  119.19    2.50 
   0  -4 -12  119.89    2.50 
  -2  -4  12 1970.40    7.00 
   2  -4 -12 2058.39    6.20 
   2  -4 -12 2033.50    6.80 
   2   4 -12 1924.31    7.00 
   4  -4 -12   99.49    2.10 
  -4  -4  12   85.79    2.20 
   4  -4 -12  105.29    2.30 
   4   4 -12   90.99    2.30 
   6   4 -12   20.00    1.40 
  -6  -4  12   21.40    1.40 
   6  -4 -12   25.30    1.50 
   6  -4 -12   24.00    1.70 
  -8  -4  12  365.66    3.30 
   8  -4 -12  387.76    3.40 
   8   4 -12  347.87    3.20 
   8  -4 -12  336.27    3.40 
  10   4 -12 1697.73    6.10 
  10  -4 -12 1667.13    6.30 
  12   4 -12   14.30    1.10 
  12  -4 -12   13.60    1.50 
  14  -4 -12    9.00    1.30 
  16  -4 -12  512.15    4.60 
   3  -5  12    7.90    1.40 
  -3  -5 -12    4.10    1.20 
   1  -5  12  162.38    2.70 
  -1  -5 -12  154.48    2.90 
  -1  -5  12    2.20    1.00 
   1  -5 -12    0.50    0.60 
  -3  -5  12    5.10    1.20 
   3  -5 -12    7.00    1.30 
   3  -5 -12    7.00    1.20 
  -5  -5  12   65.39    2.00 
   5   5 -12   60.79    2.00 
   5  -5 -12   56.89    1.60 
  -7  -5  12   44.40    1.80 
   7   5 -12   46.10    1.90 
   9   5 -12    5.60    0.90 
   9  -5 -12    7.10    1.10 
  -9  -5  12    7.50    1.30 
  11   5 -12    5.20    1.10 
  11  -5 -12    5.60    1.20 
  13  -5 -12  145.39    2.70 
  15  -5 -12    2.10    0.80 
   2  -6  12  196.58    3.10 
  -2  -6 -12  197.38    3.20 
   0  -6  12   25.20    1.90 
   0  -6 -12   20.60    1.50 
  -2  -6  12    0.80    0.70 
   2  -6 -12    0.40    0.70 
  -4  -6  12   19.40    1.50 
   4  -6 -12   22.20    1.60 
   4   6 -12   19.30    1.60 
   6   6 -12  172.08    2.80 
   6  -6 -12  158.98    2.40 
  -6  -6  12  170.48    2.60 
   8  -6 -12    2.00    0.90 
   8  -6 -12    1.50    0.70 
   8   6 -12    2.20    0.90 
  10  -6 -12    0.30    0.60 
 -10  -6  12    0.30    0.60 
  12  -6 -12    2.60    0.70 
 -12  -6  12    4.20    0.90 
  14  -6 -12   90.29    2.60 
  -1  -7 -12    2.20    1.20 
   1  -7  12    1.90    1.20 
   1  -7 -12   56.59    2.10 
  -1  -7  12   50.79    2.30 
   3  -7 -12   71.39    2.40 
  -3  -7  12   62.49    2.30 
   5  -7 -12    1.60    1.00 
   5   7 -12    1.90    1.10 
   7   7 -12    1.80    0.80 
   7  -7 -12    2.20    0.90 
   7  -7 -12    1.60    1.00 
  -7  -7  12    1.40    0.90 
   9  -7 -12   89.09    2.50 
  -9  -7  12  102.79    2.50 
  11  -7 -12   54.69    1.80 
 -11  -7  12   68.29    2.20 
  13  -7 -12    2.40    1.10 
   2  -8 -12  729.73    5.40 
  -2  -8  12  656.93    5.30 
   4  -8 -12   41.20    2.20 
   4   8 -12   40.30    1.90 
  -4  -8  12   31.50    1.90 
   6  -8 -12    1.60    1.30 
  -6  -8  12    1.00    0.70 
   8  -8 -12  149.88    3.10 
  -8  -8  12  145.49    3.10 
  10  -8 -12  567.44    4.30 
 -10  -8  12  693.23    5.10 
  -4   0 -13    0.40    0.70 
  -4   0 -13    0.80    0.90 
  -2   0 -13    0.30    0.60 
  -2   0 -13    0.30    0.70 
   0   0 -13    0.80    0.70 
   0   0 -13    0.50    0.60 
   2   0 -13    1.40    0.80 
   2   0 -13    1.60    0.90 
   4   0 -13    0.70    0.80 
   6   0 -13    2.20    1.00 
   8   0 -13    0.90    0.80 
  10   0 -13    2.90    1.00 
  12   0 -13    1.20    0.80 
  14   0 -13    0.30    0.60 
  16   0 -13    2.10    1.30 
  18   0 -13    0.50    1.10 
  -5   1 -13   24.20    1.90 
  -3  -1 -13  165.08    3.00 
  -3   1 -13  166.38    3.00 
  -3  -1 -13  133.29    2.30 
  -3   1 -13  144.19    2.70 
  -1  -1 -13   68.69    1.90 
  -1   1 -13   76.39    2.20 
  -1   1 -13   92.69    2.50 
  -1  -1 -13   86.89    2.00 
   1   1 -13    0.40    0.70 
   1  -1 -13    0.90    0.80 
   1   1 -13    0.60    0.70 
   3  -1 -13    0.70    0.50 
   3  -1 -13    3.60    1.10 
   3  -1 -13    2.20    0.90 
   3   1 -13    1.10    0.70 
   5  -1 -13   92.09    1.90 
   5  -1 -13   97.09    2.30 
   5   1 -13   91.49    2.40 
   7  -1 -13  237.78    3.00 
   7   1 -13  216.88    2.90 
   9  -1 -13   10.90    1.30 
  -9  -1  13    8.70    1.20 
   9   1 -13    8.30    1.30 
  11   1 -13   45.20    2.00 
  11  -1 -13   43.90    2.10 
  13  -1 -13    0.30    0.50 
  13   1 -13    2.20    1.00 
  15  -1 -13  202.98    3.10 
  15   1 -13  197.48    2.90 
  17  -1 -13   33.30    1.80 
  17   1 -13   31.70    1.70 
   4  -2  13    1.30    1.10 
  -4   2 -13    3.00    1.40 
   2  -2  13    3.50    1.20 
  -2   2 -13    1.20    0.70 
   0  -2 -13   29.30    1.60 
   0  -2  13   32.60    2.10 
   0  -2 -13   25.50    1.30 
   0   2 -13   25.70    1.70 
   0  -2 -13   23.10    1.40 
   0   2 -13   32.20    1.90 
  -2  -2  13   41.10    1.50 
   2   2 -13   36.40    2.10 
   2  -2 -13   41.90    1.50 
   2  -2 -13   38.00    1.80 
   2  -2 -13   44.80    1.60 
   4   2 -13    0.40    0.50 
  -4  -2  13    0.90    0.70 
   4  -2 -13    0.50    0.50 
   4  -2 -13    0.50    0.60 
  -6  -2  13   13.20    1.60 
   6  -2 -13   13.80    1.70 
   6  -2 -13   14.00    1.40 
  -8  -2  13    5.90    1.40 
   8   2 -13    6.70    1.20 
 -10  -2  13   46.60    1.70 
  10   2 -13   51.79    2.00 
  10  -2 -13   50.79    1.90 
  12   2 -13    4.40    1.10 
  12  -2 -13    1.70    0.70 
  14  -2 -13    7.30    1.30 
  14   2 -13    6.50    1.30 
  16  -2 -13    2.50    1.30 
  16   2 -13    1.50    0.80 
  18  -2 -13    8.60    1.40 
   3  -3  13   65.39    2.10 
  -3   3 -13   61.49    2.40 
  -3  -3 -13   57.99    1.90 
   1  -3  13  275.87    3.20 
  -1  -3 -13  257.47    3.00 
  -1   3 -13  289.07    3.60 
  -1  -3  13    1.90    0.90 
   1  -3 -13    0.30    0.80 
   1  -3 -13    1.70    1.00 
   1   3 -13    2.90    1.30 
  -3  -3  13   87.79    2.20 
   3  -3 -13   87.39    2.10 
   3  -3 -13   92.49    2.20 
  -5  -3  13  180.78    2.80 
   5  -3 -13  192.18    2.80 
   5  -3 -13  179.18    2.70 
   7  -3 -13  371.36    3.50 
  -7  -3  13  328.77    3.10 
   7  -3 -13  352.46    3.10 
   7   3 -13  320.27    3.50 
  -9  -3  13    5.00    1.10 
   9   3 -13    5.90    1.30 
   9  -3 -13    5.90    1.00 
 -11  -3  13  170.18    2.50 
  11   3 -13  170.68    2.60 
  11  -3 -13  160.78    2.70 
  13   3 -13  108.39    2.40 
  13  -3 -13  105.59    2.50 
  15  -3 -13  117.79    2.60 
  15   3 -13  119.89    2.30 
  17  -3 -13    0.80    0.80 
   2  -4  13   30.60    2.00 
  -2  -4 -13   22.80    1.40 
   0  -4  13   19.60    1.70 
   0  -4 -13   19.30    1.40 
  -2  -4  13  163.98    2.90 
   2  -4 -13  164.38    2.40 
   2  -4 -13  160.58    2.50 
  -4  -4  13   10.90    1.30 
   4   4 -13   11.70    1.50 
   4  -4 -13   12.20    1.40 
  -6  -4  13    3.00    0.90 
   6  -4 -13    3.30    1.00 
   6  -4 -13    4.00    1.00 
   6   4 -13    3.40    1.10 
  -8  -4  13    1.90    0.90 
   8  -4 -13    2.40    1.10 
   8   4 -13    1.70    0.70 
   8  -4 -13    1.10    0.90 
 -10  -4  13  161.48    2.60 
  10   4 -13  154.58    2.60 
  10  -4 -13  148.89    2.60 
  12   4 -13    5.50    1.10 
  12  -4 -13    5.50    1.20 
  14  -4 -13    0.30    0.70 
  16  -4 -13   45.30    2.10 
   1  -5  13    2.00    0.90 
  -1  -5 -13    0.70    0.70 
  -1  -5  13    2.10    0.90 
   1  -5 -13    0.10    0.60 
  -3  -5  13   58.09    2.20 
   3  -5 -13   52.29    1.90 
   3   5 -13   47.40    2.20 
  -5  -5  13   18.60    1.80 
   5  -5 -13   18.10    1.50 
   5  -5 -13   16.50    1.50 
  -7  -5  13   68.69    2.20 
   7  -5 -13   72.99    2.30 
   7  -5 -13   54.09    1.70 
   7   5 -13   55.99    2.20 
  -9  -5  13   32.10    1.60 
   9   5 -13   30.80    1.60 
   9  -5 -13   31.50    1.70 
  11   5 -13    2.50    1.20 
  11  -5 -13    2.60    1.30 
 -11  -5  13    3.50    1.10 
  13  -5 -13   46.60    2.00 
  15  -5 -13  169.88    3.00 
   0  -6  13  148.39    3.00 
   0  -6 -13  130.69    2.90 
  -2  -6  13  190.08    3.20 
   2  -6 -13  193.18    3.10 
   4  -6 -13    0.30    0.70 
   4   6 -13    0.70    0.90 
  -6  -6  13   53.29    2.10 
   6   6 -13   46.70    1.80 
   6  -6 -13   61.19    2.30 
   6  -6 -13   48.10    1.70 
   8  -6 -13   25.60    1.80 
   8  -6 -13   19.90    1.50 
   8   6 -13   21.50    1.70 
  -8  -6  13   26.00    2.00 
  10  -6 -13  207.48    2.90 
 -10  -6  13  257.47    3.40 
  12  -6 -13    8.60    1.30 
 -12  -6  13   13.70    1.40 
  14  -6 -13   27.20    1.80 
   1  -7 -13    3.60    1.30 
  -1  -7  13    3.00    1.40 
   3  -7 -13  181.58    3.20 
   3   7 -13  161.28    2.90 
  -3  -7  13  170.58    3.30 
   5  -7 -13  137.79    3.10 
   5   7 -13  114.69    2.50 
  -5  -7  13  126.19    3.00 
   7   7 -13  205.08    3.00 
  -7  -7  13  227.28    3.10 
   9  -7 -13   17.50    1.40 
  -9  -7  13   21.00    1.60 
  11  -7 -13  181.88    2.80 
 -11  -7  13  243.48    3.50 
   6  -8 -13   16.70    1.90 
  -6  -8  13   10.90    1.40 
  -2   0 -14   62.99    2.40 
  -2   0 -14   51.69    2.10 
   0   0 -14 1256.87    6.10 
   0   0 -14 1633.14    6.90 
   2   0 -14    3.90    1.10 
   2   0 -14    5.90    1.30 
   4   0 -14    9.20    1.60 
   6   0 -14  722.93    4.70 
   8   0 -14  614.34    4.20 
  10   0 -14   71.29    2.30 
  12   0 -14   83.49    2.50 
  14   0 -14 1141.89    6.00 
  16   0 -14   23.20    1.80 
  -3  -1 -14   15.00    1.30 
  -3   1 -14   14.80    1.70 
  -3   1 -14   17.40    1.90 
  -1  -1 -14    2.50    0.90 
  -1   1 -14    2.90    1.30 
  -1  -1 -14    2.60    1.10 
   1   1 -14   94.99    2.30 
   1  -1 -14  127.69    2.50 
   1  -1 -14   99.59    2.40 
   1   1 -14  127.99    2.60 
   3  -1 -14  542.05    4.20 
   3   1 -14  488.15    4.30 
   5  -1 -14   48.00    1.50 
   5  -1 -14   51.49    1.90 
   5   1 -14   44.20    1.90 
  -7  -1  14    3.90    1.00 
   7  -1 -14    3.60    1.10 
   7   1 -14    3.80    1.00 
  -9  -1  14   10.30    1.30 
   9   1 -14    9.30    1.50 
  11   1 -14  557.04    4.40 
 -11  -1  14  481.55    3.60 
  11  -1 -14  521.45    4.00 
  13  -1 -14  259.97    3.10 
  13   1 -14  269.97    3.30 
  15  -1 -14   18.20    1.60 
  15   1 -14   14.40    1.30 
  17  -1 -14   16.50    1.60 
  17   1 -14   17.60    1.50 
  -2   2 -14  270.57    3.50 
  -2  -2 -14  267.27    3.50 
   0  -2  14    6.60    1.70 
   0  -2 -14    5.50    1.00 
   0   2 -14    5.90    1.30 
   0  -2 -14    3.60    1.00 
   0   2 -14    8.50    1.60 
  -2  -2  14  465.15    4.20 
   2   2 -14  374.96    3.80 
   2  -2 -14  391.56    3.30 
   2  -2 -14  454.95    3.50 
   2  -2 -14  398.26    3.70 
  -4  -2  14  211.68    2.80 
   4  -2 -14  203.68    2.60 
   4  -2 -14  212.98    3.10 
  -6  -2  14  113.49    2.60 
   6  -2 -14  111.39    2.50 
   6  -2 -14  104.49    2.10 
   6   2 -14   95.79    2.60 
  -8  -2  14   58.89    2.00 
   8   2 -14   56.99    2.30 
 -10  -2  14  301.77    3.00 
  10   2 -14  318.57    3.40 
  10  -2 -14  338.97    3.50 
  12   2 -14  169.28    2.70 
  12  -2 -14  152.08    2.80 
  14  -2 -14   42.30    2.10 
  14   2 -14   41.90    1.90 
  16  -2 -14  294.67    3.70 
  16   2 -14  282.67    3.30 
  -1  -3 -14   36.90    1.90 
   1  -3  14   40.10    2.30 
  -1  -3 -14   32.40    1.70 
  -1   3 -14   35.00    2.10 
   1  -3 -14  235.78    3.00 
   1  -3 -14  234.98    3.00 
   1   3 -14  229.68    3.40 
  -3  -3  14  210.98    2.90 
   3  -3 -14  215.98    2.90 
  -5  -3  14  139.89    2.80 
   5  -3 -14  143.49    2.80 
   7  -3 -14   49.50    2.10 
  -7  -3  14   37.20    1.80 
   7  -3 -14   42.80    1.90 
   7   3 -14   36.50    1.80 
  -9  -3  14   60.79    1.90 
   9   3 -14   64.69    2.10 
 -11  -3  14  199.28    2.70 
  11   3 -14  209.98    3.20 
  11  -3 -14  201.28    3.00 
  13   3 -14  381.76    3.70 
  13  -3 -14  363.56    3.60 
  15  -3 -14    1.80    1.10 
  15   3 -14    0.80    1.10 
   0  -4  14  957.00    5.70 
   0  -4 -14  919.21    5.40 
   0   4 -14  876.21    5.50 
  -2  -4  14    1.40    0.90 
   2  -4 -14    3.90    0.90 
   2   4 -14    6.60    1.60 
  -4  -4  14    6.80    1.30 
   4   4 -14    7.80    1.30 
   4  -4 -14    8.10    1.40 
  -6  -4  14  416.86    3.70 
   6  -4 -14  483.35    4.10 
   6   4 -14  387.96    3.90 
   6  -4 -14  472.15    3.70 
   8  -4 -14  402.26    3.70 
   8  -4 -14  395.76    3.90 
  10   4 -14   31.00    2.00 
  10  -4 -14   27.70    1.60 
  12   4 -14   53.29    2.10 
  12  -4 -14   54.39    2.10 
  14   4 -14  731.33    4.60 
  14  -4 -14  718.33    5.00 
  -1  -5  14    3.90    1.20 
   1  -5 -14    1.60    0.70 
   1   5 -14    2.80    1.20 
  -3  -5  14  453.05    4.20 
   3  -5 -14  445.76    4.40 
  -5  -5  14    0.90    0.70 
   5  -5 -14    0.70    0.90 
   5  -5 -14    0.90    0.90 
  -7  -5  14   28.80    1.80 
   7  -5 -14   31.50    1.90 
   7  -5 -14   24.90    1.50 
   7   5 -14   25.50    1.80 
  -9  -5  14    9.10    1.50 
   9   5 -14    6.20    1.40 
   9  -5 -14    8.90    1.20 
  11   5 -14  367.76    3.70 
 -11  -5  14  376.06    3.60 
  13  -5 -14   31.70    2.00 
  -2  -6  14  130.99    3.10 
   2  -6 -14  128.89    3.00 
  -4  -6  14   54.49    2.30 
   4  -6 -14   55.69    2.40 
  -6  -6  14   81.89    2.40 
   6   6 -14   72.89    2.20 
   8  -6 -14   39.90    1.80 
   8   6 -14   39.50    1.90 
  -8  -6  14   41.60    2.20 
  10   6 -14   59.79    2.10 
  10  -6 -14   57.59    2.00 
  12  -6 -14   53.09    2.20 
 -12  -6  14   68.09    2.50 
   5   7 -14   98.09    2.70 
   5  -7 -14  124.39    3.10 
  -5  -7  14  109.59    2.90 
   7   7 -14   37.10    2.10 
   7  -7 -14   46.80    2.30 
  -7  -7  14   42.30    2.20 
   9  -7 -14  117.49    2.90 
  -9  -7  14  107.59    2.90 
   0   0 -15    4.20    1.30 
   0   0 -15    1.20    1.00 
   2   0 -15    1.00    0.80 
   2   0 -15    0.50    0.60 
   4   0 -15    1.10    0.80 
   6   0 -15    0.70    0.70 
   8   0 -15    1.10    0.70 
  10   0 -15    1.70    1.00 
  12   0 -15    0.80    0.80 
  14   0 -15    0.50    0.70 
  16   0 -15    0.90    1.10 
  -1   1 -15    6.00    1.70 
  -1   1 -15    2.90    1.40 
  -1  -1 -15    6.40    1.30 
  -1  -1 -15    3.20    1.00 
   1   1 -15  162.38    3.00 
   1  -1 -15  211.08    3.00 
   1  -1 -15  167.68    2.90 
   1   1 -15  210.38    3.10 
   3  -1 -15  434.66    4.00 
   3   1 -15  394.26    3.90 
   5  -1 -15   76.59    2.20 
   5   1 -15   68.29    2.20 
  -7  -1  15    3.20    1.20 
   7  -1 -15    1.70    1.00 
   7   1 -15    1.60    0.70 
  -9  -1  15   93.79    2.10 
   9   1 -15   97.19    2.40 
  11   1 -15  477.15    4.00 
  11  -1 -15  492.15    4.30 
  13  -1 -15  235.18    3.50 
  13   1 -15  230.88    3.10 
  15  -1 -15   22.00    1.40 
  15   1 -15   23.60    1.90 
   0  -2  15   39.30    2.20 
   0   2 -15   36.00    2.10 
   0  -2 -15   33.10    1.90 
   0  -2 -15   42.40    1.90 
   2   2 -15   12.90    1.50 
  -2  -2  15   15.70    1.70 
   2  -2 -15   13.50    1.60 
   4  -2 -15    1.20    0.80 
   4  -2 -15    0.80    0.80 
   4   2 -15    0.50    0.50 
  -6  -2  15   32.30    1.80 
   6  -2 -15   35.50    2.20 
   6  -2 -15   33.70    1.80 
   8  -2 -15   36.00    2.10 
  -8  -2  15   30.70    2.00 
   8   2 -15   26.40    1.50 
 -10  -2  15    2.30    1.00 
  10   2 -15    2.60    1.10 
  12   2 -15    0.50    0.60 
  12  -2 -15    0.80    1.10 
  14  -2 -15   63.29    2.20 
  14   2 -15   68.69    2.20 
  16  -2 -15    4.20    1.50 
  16   2 -15    2.70    0.90 
   1  -3 -15  364.46    3.40 
   1   3 -15  359.86    4.20 
  -3  -3  15  148.99    3.00 
   3   3 -15  118.89    2.80 
   3  -3 -15  132.19    2.60 
   3  -3 -15  142.39    2.60 
  -5  -3  15   46.70    2.30 
   5  -3 -15   49.80    2.20 
   5  -3 -15   41.60    1.80 
   5   3 -15   36.40    2.10 
   7  -3 -15   50.09    2.20 
  -7  -3  15   43.10    2.20 
   7  -3 -15   56.39    1.90 
   7   3 -15   34.90    2.00 
  -9  -3  15   99.59    2.20 
   9   3 -15  105.59    2.70 
  11   3 -15  120.39    2.70 
  11  -3 -15  122.89    2.70 
  13   3 -15  319.87    3.40 
  13  -3 -15  305.97    3.80 
  15  -3 -15   83.09    2.50 
  15   3 -15   89.49    2.50 
   2  -4 -15    8.50    1.60 
   2   4 -15    7.80    1.60 
  -4  -4  15  112.59    2.60 
   4  -4 -15  131.99    2.50 
   4   4 -15   96.79    2.80 
   4  -4 -15  114.69    2.60 
  -6  -4  15    5.70    1.40 
   6  -4 -15    6.10    1.10 
   6   4 -15    5.90    1.30 
   6  -4 -15    9.70    1.40 
  -8  -4  15    2.30    1.00 
   8  -4 -15    3.30    1.10 
   8   4 -15    2.10    0.90 
   8  -4 -15    3.40    1.50 
 -10  -4  15   43.80    2.00 
  10   4 -15   41.30    2.00 
  10  -4 -15   43.40    2.00 
 -12  -4  15   78.69    2.20 
  12   4 -15   81.09    2.30 
  14   4 -15   27.50    1.70 
  14  -4 -15   24.50    2.00 
  -3  -5  15  656.83    5.20 
   3  -5 -15  550.34    4.40 
   3   5 -15  469.55    4.50 
  -5  -5  15   55.99    2.40 
   5   5 -15   41.50    2.20 
   5  -5 -15   49.00    2.00 
   5  -5 -15   54.99    2.00 
  -7  -5  15   25.50    2.10 
   7  -5 -15   30.10    2.00 
   7  -5 -15   26.00    1.70 
   7   5 -15   22.10    1.80 
  -9  -5  15   32.30    1.90 
   9   5 -15   28.60    1.70 
   9  -5 -15   27.90    1.50 
  11   5 -15  547.15    4.40 
  11  -5 -15  565.74    4.60 
  13  -5 -15   62.19    2.20 
  -6  -6  15  173.78    3.30 
   6  -6 -15  187.68    3.50 
  -8  -6  15  160.18    3.30 
   8  -6 -15  173.88    3.40 
   8  -6 -15  158.18    2.80 
   8   6 -15  136.59    2.80 
  10  -6 -15   16.30    1.70 
 -10  -6  15   17.10    1.90 
   2   0 -16  124.19    2.90 
   4   0 -16  102.99    2.70 
   6   0 -16  181.58    3.40 
   8   0 -16 1254.57    6.60 
  10   0 -16   21.40    1.80 
  12   0 -16   28.60    1.90 
  14   0 -16  545.65    4.60 
   1  -1 -16   78.49    2.40 
   1   1 -16   83.49    2.60 
   3  -1 -16   13.50    1.60 
   3   1 -16   13.30    1.80 
   5  -1 -16   84.79    2.50 
   5   1 -16   72.89    2.20 
  -7  -1  16  107.89    2.60 
   7  -1 -16  104.29    2.70 
   9  -1 -16   36.30    2.10 
  -9  -1  16   34.30    2.00 
   9   1 -16   32.10    2.00 
  11  -1 -16  143.99    2.90 
  11   1 -16  139.79    2.80 
  13   1 -16    1.00    1.00 
  13  -1 -16    1.90    1.20 
  15  -1 -16  100.19    2.60 
  15   1 -16  103.99    2.70 
   2   2 -16  169.18    3.10 
   2  -2 -16  193.58    3.10 
  -4  -2  16   61.89    2.20 
   4  -2 -16   60.39    2.30 
  -6  -2  16   29.90    2.10 
   6  -2 -16   28.80    2.00 
  -8  -2  16   90.79    2.30 
   8   2 -16   95.49    2.60 
 -10  -2  16   17.10    1.70 
  10   2 -16   20.10    1.80 
  10  -2 -16   23.70    1.90 
  12   2 -16   35.10    2.00 
  12  -2 -16   36.10    2.20 
  14  -2 -16  100.89    2.60 
  14   2 -16  117.69    2.70 
   3   3 -16    9.60    1.40 
  -3  -3  16   12.80    1.80 
   3  -3 -16   14.50    1.60 
   3  -3 -16   11.60    1.10 
  -5  -3  16   50.59    2.20 
   5  -3 -16   59.19    2.20 
   5  -3 -16   53.09    2.10 
   5   3 -16   44.20    2.30 
   7  -3 -16  105.49    2.50 
  -7  -3  16   95.59    2.70 
   7  -3 -16   95.49    2.40 
   7   3 -16   80.99    2.50 
  -9  -3  16   38.60    2.20 
   9   3 -16   40.80    2.30 
  11   3 -16   86.09    2.60 
  11  -3 -16   91.39    2.50 
  13   3 -16    6.60    1.30 
  13  -3 -16    0.00    1.20 
   4   4 -16   47.50    2.40 
  -4  -4  16   53.09    2.40 
   4  -4 -16   67.59    2.20 
   4  -4 -16   56.39    2.30 
  -6  -4  16  137.89    3.10 
   6  -4 -16  135.79    2.80 
   8  -4 -16  885.91    5.80 
   8  -4 -16  890.61    5.50 
 -10  -4  16   16.70    1.80 
  10   4 -16   18.40    1.70 
  10  -4 -16   17.80    1.70 
 -12  -4  16   11.60    1.30 
  12   4 -16   12.80    1.80 
  12  -4 -16   10.70    1.60 
  -7  -5  16   16.70    2.00 
   7  -5 -16   16.50    1.90 
   7  -5 -16   15.80    1.80 
  -9  -5  16    5.90    1.40 
   9   5 -16    4.10    1.40 
   9  -5 -16    2.00    1.20 
   4   0 -17    0.10    0.70 
   6   0 -17    0.70    0.70 
   8   0 -17    0.90    0.80 
  10   0 -17    0.90    0.80 
 -10   0  17    2.60    1.10 
  12   0 -17    1.90    1.00 
   5  -1 -17  199.58    3.20 
   5   1 -17  185.58    3.60 
  -7  -1  17   14.10    1.80 
   7  -1 -17   14.50    1.60 
   7   1 -17   10.60    1.50 
   9  -1 -17    4.30    1.60 
  -9  -1  17    4.40    1.60 
   9   1 -17    2.60    1.30 
  11  -1 -17   94.89    2.70 
  11   1 -17   92.09    2.80 
  13   1 -17  330.57    4.20 
  13  -1 -17  324.27    4.10 
  -6  -2  17   13.30    1.80 
   6  -2 -17   12.90    1.80 
   6   2 -17    8.90    1.60 
  -8  -2  17   21.60    1.90 
   8   2 -17   20.10    2.10 
  10  -2 -17    4.30    1.30 
 -10  -2  17    1.50    0.90 
  10   2 -17    2.70    1.00 
  12   2 -17   14.00    1.90 
  12  -2 -17   15.70    1.90 
   7  -3 -17    0.80    0.80 
  -7  -3  17    1.10    1.10 
   7   3 -17    0.40    1.30 
  -9  -3  17   48.10    2.40 
   9   3 -17   45.30    2.30 
;
_shelx_hkl_checksum              13514
#END Tags that were not found in dictionaries
loop_
_space_group_symop_operation_xyz
'x, y, z'
'-x, y, -z+1/2'
'x+1/2, y+1/2, z'
'-x+1/2, y+1/2, -z+1/2'
'-x, -y, -z'
'x, -y, z-1/2'
'-x+1/2, -y+1/2, -z'
'x+1/2, -y+1/2, z-1/2'
loop_
_atom_site_label
_atom_site_type_symbol
_atom_site_fract_x
_atom_site_fract_y
_atom_site_fract_z
_atom_site_U_iso_or_equiv
_atom_site_adp_type
_atom_site_occupancy
_atom_site_site_symmetry_order
_atom_site_calc_flag
Se1 Se -0.00258(4) 0.26802(5) 0.60969(4) 0.0052(2) Uani 1 1 d
Se2 Se 0.14082(4) -0.02604(5) 0.81817(4) 0.0061(2) Uani 1 1 d
Cl1 Cl -0.00082(9) -0.01237(15) 0.62498(10) 0.0075(3) Uani 1 1 d
Cl2 Cl 0.13234(10) 0.25424(15) 0.81548(11) 0.0085(4) Uani 1 1 d
Cl3 Cl 0.10633(11) 0.25524(14) 0.56509(11) 0.0109(4) Uani 1 1 d
Cl4 Cl -0.11530(11) 0.25633(15) 0.45839(11) 0.0118(4) Uani 1 1 d
Cl5 Cl -0.00136(11) 0.48993(15) 0.62350(12) 0.0128(4) Uani 1 1 d
Cl6 Cl 0.12935(12) -0.24945(16) 0.80935(13) 0.0167(4) Uani 1 1 d
Cl7 Cl 0.23884(11) -0.01248(17) 0.75691(12) 0.0155(4) Uani 1 1 d
Cl8 Cl 0.24090(11) -0.02163(16) 0.97801(12) 0.0144(4) Uani 1 1 d
loop_
_atom_site_aniso_label
_atom_site_aniso_U_11
_atom_site_aniso_U_22
_atom_site_aniso_U_33
_atom_site_aniso_U_23
_atom_site_aniso_U_13
_atom_site_aniso_U_12
Se1 0.0073(4) 0.0041(4) 0.0046(4) 0.00039(17) 0.0031(3) -0.00003(18)
Se2 0.0059(4) 0.0062(4) 0.0065(4) 0.00176(18) 0.0031(3) 0.00214(19)
Cl1 0.0093(8) 0.0073(7) 0.0060(7) -0.0017(5) 0.0035(6) 0.0001(5)
Cl2 0.0080(7) 0.0102(7) 0.0073(7) -0.0002(4) 0.0035(6) -0.0014(5)
Cl3 0.0105(8) 0.0141(8) 0.0115(7) -0.0017(5) 0.0079(6) -0.0025(5)
Cl4 0.0109(8) 0.0154(8) 0.0062(7) 0.0000(5) 0.0012(6) 0.0024(5)
Cl5 0.0215(9) 0.0063(8) 0.0131(7) 0.0005(5) 0.0100(7) 0.0001(5)
Cl6 0.0213(9) 0.0072(8) 0.0209(9) 0.0031(5) 0.0089(7) 0.0042(6)
Cl7 0.0115(8) 0.0232(9) 0.0164(8) 0.0037(6) 0.0104(7) 0.0050(6)
Cl8 0.0108(8) 0.0214(8) 0.0071(7) 0.0036(6) 0.0007(6) 0.0024(6)
loop_
_atom_type_symbol
_atom_type_description
_atom_type_scat_dispersion_real
_atom_type_scat_dispersion_imag
_atom_type_scat_source
Cl Cl 0.1484 0.1585 'International Tables Vol C Tables 4.2.6.8 and 6.1.1.4'
Se Se -0.0929 2.2259 'International Tables Vol C Tables 4.2.6.8 and 6.1.1.4'
loop_
_geom_angle_atom_site_label_1
_geom_angle_atom_site_label_2
_geom_angle_atom_site_label_3
_geom_angle
_geom_angle_site_symmetry_1
_geom_angle_site_symmetry_3
Cl4 Se1 Cl3 96.50(7) . .
Cl4 Se1 Cl5 96.72(6) . .
Cl3 Se1 Cl5 96.45(6) . .
Cl4 Se1 Cl1 90.25(5) . .
Cl3 Se1 Cl1 89.31(5) . .
Cl5 Se1 Cl1 170.38(5) . .
Cl4 Se1 Cl2 87.98(6) . 2_556
Cl3 Se1 Cl2 172.25(5) . 2_556
Cl5 Se1 Cl2 89.28(5) . 2_556
Cl1 Se1 Cl2 84.33(4) . 2_556
Cl4 Se1 Cl2 171.95(5) . .
Cl3 Se1 Cl2 88.78(6) . .
Cl5 Se1 Cl2 88.70(5) . .
Cl1 Se1 Cl2 83.71(4) . .
Cl2 Se1 Cl2 86.13(5) 2_556 .
Cl7 Se2 Cl8 96.85(7) . .
Cl7 Se2 Cl6 95.47(7) . .
Cl8 Se2 Cl6 94.93(7) . .
Cl7 Se2 Cl1 89.74(6) . .
Cl8 Se2 Cl1 172.11(5) . .
Cl6 Se2 Cl1 88.73(6) . .
Cl7 Se2 Cl2 88.56(5) . .
Cl8 Se2 Cl2 90.23(5) . .
Cl6 Se2 Cl2 173.03(6) . .
Cl1 Se2 Cl2 85.59(5) . .
Cl7 Se2 Cl1 171.21(6) . 2_556
Cl8 Se2 Cl1 89.19(6) . 2_556
Cl6 Se2 Cl1 90.36(6) . 2_556
Cl1 Se2 Cl1 83.80(5) . 2_556
Cl2 Se2 Cl1 85.02(5) . 2_556
Se2 Cl1 Se1 96.12(5) . .
Se2 Cl2 Se1 94.16(4) . .
loop_
_geom_bond_atom_site_label_1
_geom_bond_atom_site_label_2
_geom_bond_distance
_geom_bond_site_symmetry_2
Se1 Cl4 2.1541(19) .
Se1 Cl3 2.1573(16) .
Se1 Cl5 2.1757(17) .
Se1 Cl1 2.7464(17) .
Se1 Cl2 2.7966(16) 2_556
Se1 Cl2 2.828(2) .
Se2 Cl7 2.1661(17) .
Se2 Cl8 2.1736(19) .
Se2 Cl6 2.1884(17) .
Se2 Cl1 2.736(2) .
Se2 Cl2 2.7398(17) .
Se2 Cl1 2.7669(16) 2_556
