#------------------------------------------------------------------------------
#$Date: 2016-03-04 12:09:40 +0200 (Fri, 04 Mar 2016) $
#$Revision: 177458 $
#$URL: svn://www.crystallography.net/cod/cif/1/54/24/1542414.cif $
#------------------------------------------------------------------------------
#
# This file is available in the Crystallography Open Database (COD),
# http://www.crystallography.net/
#
# All data on this site have been placed in the public domain by the
# contributors.
#
data_1542414
loop_
_publ_author_name
'Lim, Hee Nam'
'Dong, Guangbin'
_publ_section_title
;
 Catalytic Cage Formation via Controlled Dimerization of Norbornadienes:
 An Entry to Functionalized HCTDs
 (Heptacyclo[6.6.0.0(2,6).0(3,13).0(4,11).0(5,9).0(10,14)]tetradecanes).
;
_journal_issue                   5
_journal_name_full               'Organic letters'
_journal_page_first              1104
_journal_paper_doi               10.1021/acs.orglett.6b00207
_journal_volume                  18
_journal_year                    2016
_chemical_formula_moiety         'C32 H36'
_chemical_formula_sum            'C32 H36'
_chemical_formula_weight         420.61
_space_group_crystal_system      monoclinic
_space_group_IT_number           14
_space_group_name_Hall           '-P 2yn'
_space_group_name_H-M_alt        'P 1 21/n 1'
_symmetry_space_group_name_Hall  '-P 2yn'
_symmetry_space_group_name_H-M   'P 1 21/n 1'
_atom_sites_solution_hydrogens   geom
_audit_creation_method           SHELXL-2014/7
_cell_angle_alpha                90
_cell_angle_beta                 111.898(4)
_cell_angle_gamma                90
_cell_formula_units_Z            4
_cell_length_a                   15.6222(5)
_cell_length_b                   8.3147(2)
_cell_length_c                   19.4923(6)
_cell_measurement_reflns_used    10957
_cell_measurement_temperature    100(2)
_cell_measurement_theta_max      74.0330
_cell_measurement_theta_min      4.6880
_cell_volume                     2349.25(14)
_computing_structure_refinement  'SHELXL-2014/7 (Sheldrick, 2014)'
_diffrn_ambient_temperature      100(2)
_diffrn_measured_fraction_theta_full 0.990
_diffrn_measured_fraction_theta_max 0.983
_diffrn_measurement_device_type  'SuperNova (Cu X-ray Source)'
_diffrn_measurement_method       'w/ scans'
_diffrn_radiation_type           CuK\a
_diffrn_radiation_wavelength     1.54184
_diffrn_reflns_av_R_equivalents  0.0405
_diffrn_reflns_av_unetI/netI     0.0302
_diffrn_reflns_laue_measured_fraction_full 0.990
_diffrn_reflns_laue_measured_fraction_max 0.983
_diffrn_reflns_limit_h_max       20
_diffrn_reflns_limit_h_min       -20
_diffrn_reflns_limit_k_max       10
_diffrn_reflns_limit_k_min       -10
_diffrn_reflns_limit_l_max       25
_diffrn_reflns_limit_l_min       -24
_diffrn_reflns_number            27289
_diffrn_reflns_point_group_measured_fraction_full 0.990
_diffrn_reflns_point_group_measured_fraction_max 0.983
_diffrn_reflns_theta_full        67.684
_diffrn_reflns_theta_max         89.472
_diffrn_reflns_theta_min         6.822
_diffrn_source                   'micro-focus sealed X-ray tube'
_exptl_absorpt_coefficient_mu    0.494
_exptl_absorpt_correction_T_max  1.00000
_exptl_absorpt_correction_T_min  0.83639
_exptl_absorpt_correction_type   multi-scan
_exptl_absorpt_process_details
'CrysAlisPro 1.171.38.27t (Agilent, 2015) Empirical absorption correction using spherical harmonics, implemented in SCALE3 ABSPACK scaling algorithm'
_exptl_crystal_colour            Colorless
_exptl_crystal_density_diffrn    1.189
_exptl_crystal_description       Prism
_exptl_crystal_F_000             912
_exptl_crystal_size_max          0.370
_exptl_crystal_size_mid          0.300
_exptl_crystal_size_min          0.160
_refine_diff_density_max         0.286
_refine_diff_density_min         -0.322
_refine_diff_density_rms         0.045
_refine_ls_extinction_method     none
_refine_ls_goodness_of_fit_ref   1.074
_refine_ls_hydrogen_treatment    constr
_refine_ls_matrix_type           full
_refine_ls_number_parameters     364
_refine_ls_number_reflns         5268
_refine_ls_number_restraints     81
_refine_ls_restrained_S_all      1.068
_refine_ls_R_factor_all          0.0638
_refine_ls_R_factor_gt           0.0533
_refine_ls_shift/su_max          0.009
_refine_ls_shift/su_mean         0.000
_refine_ls_structure_factor_coef Fsqd
_refine_ls_weighting_details
'w=1/[\s^2^(Fo^2^)+(0.0596P)^2^+1.2108P] where P=(Fo^2^+2Fc^2^)/3'
_refine_ls_weighting_scheme      calc
_refine_ls_wR_factor_gt          0.1299
_refine_ls_wR_factor_ref         0.1357
_reflns_Friedel_coverage         0.000
_reflns_number_gt                4364
_reflns_number_total             5268
_reflns_threshold_expression     'I > 2\s(I)'
_cod_data_source_file            ol6b00207_si_003.cif
_cod_data_source_block           shelx
_cod_depositor_comments
;
The following automatic conversions were performed:

'_exptl_absorpt_correction_type' value 'Multi-scan' changed to
'multi-scan' according to
/usr/data/users/saulius/crontab/automatic-downloads/rss-feeds/ACS/lib/dictionaries/cif_core.dic
dictionary named 'cif_core.dic' version 2.4.2 from 2011-04-26.

Automatic conversion script
Id: cif_fix_values 4268 2015-11-12 08:31:59Z antanas 

 Adding full bibliography for 1542413--1542414.cif.
;
_cod_original_cell_volume        2349.25(13)
_cod_database_code               1542414
_shelx_shelxl_version_number     2014/7
_shelx_space_group_comment
;
The symmetry employed for this shelxl refinement is uniquely defined
by the following loop, which should always be used as a source of
symmetry information in preference to the above space-group names.
They are only intended as comments.
;
_shelx_estimated_absorpt_t_min   0.838
_shelx_estimated_absorpt_t_max   0.925
_shelx_res_file
;

    shelx.res created by SHELXL-2014/7

TITL hl-7-8 in P21/n #14
CELL  1.54184  15.6222   8.3147  19.4923   90.000  111.898   90.000
ZERR     4.00   0.0005   0.0002   0.0006    0.000    0.004    0.000
LATT   1
SYMM  1/2 - X, 1/2 + Y, 1/2 - Z
SFAC  C    H
UNIT  128 144
MERG   2
flat .01 c16a > c23a
FMAP   2
PLAN   20
SIZE     0.160   0.300   0.370
ACTA
BOND   $H
CONF
L.S.  40
TEMP  -173.00
WGHT    0.059600    1.210800
FVAR       4.32304   0.90268   0.02107
PART    1
C1    1    0.252371    0.616918    0.497820    10.90000    0.02084    0.02680 =
         0.02319   -0.00230    0.01217   -0.00614
AFIX  13
H1    2    0.303094    0.689061    0.496790    10.90000   -1.20000
AFIX   0
C2    1    0.172462    0.141641    0.383584    10.90000    0.01893    0.02747 =
         0.01739    0.00015    0.00736    0.00138
AFIX  13
H2    2    0.124316    0.059542    0.380314    10.90000   -1.20000
AFIX   0
C3    1    0.128327    0.308896    0.364107    10.90000    0.01594    0.02657 =
         0.01564   -0.00154    0.00610    0.00044
AFIX  13
H3    2    0.085530    0.323425    0.311557    10.90000   -1.20000
AFIX   0
C4    1    0.228040    0.183777    0.464706    10.90000    0.02124    0.02680 =
         0.01746    0.00047    0.00724    0.00574
AFIX  13
H4    2    0.267422    0.095269    0.495156    10.90000   -1.20000
AFIX   0
C5    1    0.085389    0.337263    0.422521    10.90000    0.01238    0.02833 =
         0.01714   -0.00080    0.00579   -0.00043
AFIX  13
H5    2    0.020671    0.296688    0.407208    10.90000   -1.20000
AFIX   0
C6    1    0.210301    0.427369    0.391623    10.90000    0.01760    0.02883 =
         0.01773   -0.00022    0.00899   -0.00151
AFIX  13
H6    2    0.237150    0.452816    0.353655    10.90000   -1.20000
AFIX   0
C7    1    0.279510    0.340878    0.461833    10.90000    0.01352    0.03332 =
         0.01957   -0.00322    0.00763    0.00060
AFIX  13
H7    2    0.341649    0.322282    0.459580    10.90000   -1.20000
AFIX   0
C8    1    0.154601    0.250909    0.492585    10.90000    0.02100    0.02329 =
         0.01908    0.00116    0.01081   -0.00057
AFIX  13
H8    2    0.125006    0.166126    0.512717    10.90000   -1.20000
AFIX   0
C9    1    0.095247    0.516594    0.442466    10.90000    0.01461    0.02655 =
         0.01594    0.00110    0.00515    0.00332
AFIX  13
H9    2    0.037198    0.579164    0.417622    10.90000   -1.20000
AFIX   0
C10   1    0.178290    0.576910    0.422021    10.90000    0.02351    0.02433 =
         0.01932    0.00324    0.01073   -0.00124
AFIX  13
H10   2    0.162134    0.669934    0.386976    10.90000   -1.20000
AFIX   0
C11   1    0.282376    0.445639    0.527561    10.90000    0.01181    0.02996 =
         0.02020   -0.00231    0.00609    0.00008
AFIX  13
H11   2    0.343126    0.442332    0.569991    10.90000   -1.20000
AFIX   0
C12   1    0.199633    0.386097    0.548168    10.90000    0.01568    0.02361 =
         0.01491    0.00175    0.00640    0.00128
AFIX  13
H12   2    0.218292    0.352210    0.600973    10.90000   -1.20000
AFIX   0
C13   1    0.133239    0.531221    0.527328    10.90000    0.01485    0.02275 =
         0.01729    0.00122    0.00798    0.00043
AFIX  13
H13   2    0.085805    0.532946    0.550394    10.90000   -1.20000
AFIX   0
C14   1    0.196450    0.679850    0.542608    10.90000    0.02163    0.02182 =
         0.02279    0.00137    0.01120   -0.00123
AFIX  13
H14   2    0.159873    0.776495    0.517798    10.90000   -1.20000
AFIX   0
C15   1    0.252651    0.717143    0.623757    10.90000    0.01860    0.02606 =
         0.02603   -0.00588    0.01012   -0.00452
AFIX  23
H15A  2    0.285681    0.618649    0.648159    10.90000   -1.20000
H15B  2    0.299496    0.799690    0.626526    10.90000   -1.20000
AFIX   0
C16   1    0.194211    0.776835    0.665284    10.90000    0.01355    0.02186 =
         0.02031   -0.00320    0.00471   -0.00305
C17   1    0.174482    0.677845    0.714931    10.90000    0.01625    0.01874 =
         0.02342    0.00029    0.00512    0.00060
AFIX  43
H17   2    0.198146    0.571321    0.722970    10.90000   -1.20000
AFIX   0
C18   1    0.120231    0.732972    0.753236    10.90000    0.01688    0.02295 =
         0.02060    0.00192    0.00584   -0.00110
C19   1    0.085228    0.888582    0.740621    10.90000    0.01621    0.02359 =
         0.01918   -0.00350    0.00538   -0.00088
AFIX  43
H19   2    0.048222    0.926466    0.766395    10.90000   -1.20000
AFIX   0
C20   1    0.103562    0.990018    0.690724    10.90000    0.02010    0.01702 =
         0.02742    0.00032    0.00759   -0.00027
C21   1    0.158375    0.932013    0.653743    10.90000    0.02220    0.02187 =
         0.02374    0.00344    0.01037   -0.00088
AFIX  43
H21   2    0.171559    1.000199    0.619826    10.90000   -1.20000
AFIX   0
C22   1    0.066439    1.159136    0.677955    10.90000    0.03831    0.02142 =
         0.04652    0.00631    0.02133    0.00724
AFIX 137
H22A  2    0.016528    1.169742    0.696647    10.90000   -1.50000
H22B  2    0.042653    1.182845    0.624883    10.90000   -1.50000
H22C  2    0.115979    1.234873    0.704027    10.90000   -1.50000
AFIX   0
C23   1    0.100337    0.624430    0.807465    10.90000    0.03111    0.03237 =
         0.03661    0.01242    0.01869    0.00502
AFIX 137
H23A  2    0.154166    0.621414    0.853948    10.90000   -1.50000
H23B  2    0.086979    0.515644    0.786868    10.90000   -1.50000
H23C  2    0.046938    0.665685    0.816824    10.90000   -1.50000
AFIX   0
PART    0
C24   1    0.228098    0.088814    0.336779    11.00000    0.02068    0.03732 =
         0.02578   -0.00637    0.00955    0.00348
AFIX  23
H24A  2    0.272481    0.174620    0.337774    11.00000   -1.20000
H24B  2    0.263797   -0.009136    0.358811    11.00000   -1.20000
AFIX   0
C25   1    0.166822    0.054652    0.257680    11.00000    0.01841    0.02979 =
         0.02589   -0.00690    0.01248    0.00033
C26   1    0.129386   -0.098439    0.236938    11.00000    0.02326    0.02648 =
         0.02899   -0.00010    0.01637    0.00276
AFIX  43
H26   2    0.147001   -0.182878    0.272309    11.00000   -1.20000
AFIX   0
C27   1    0.067083   -0.130492    0.165960    11.00000    0.02125    0.02277 =
         0.03291   -0.00562    0.01723   -0.00206
C28   1    0.042533   -0.005633    0.114573    11.00000    0.01792    0.02482 =
         0.02464   -0.00736    0.01031   -0.00294
AFIX  43
H28   2   -0.000295   -0.025887    0.065906    11.00000   -1.20000
AFIX   0
C29   1    0.079336    0.148264    0.132899    11.00000    0.02070    0.02279 =
         0.02500   -0.00645    0.01333   -0.00152
C30   1    0.141757    0.176177    0.204682    11.00000    0.02116    0.02327 =
         0.02704   -0.00955    0.01281   -0.00318
AFIX  43
H30   2    0.167744    0.280338    0.217714    11.00000   -1.20000
AFIX   0
C31   1    0.051170    0.280697    0.076153    11.00000    0.03102    0.02440 =
         0.02900   -0.00469    0.01378   -0.00344
AFIX 137
H31A  2    0.093221    0.372159    0.093991    11.00000   -1.50000
H31B  2   -0.011939    0.314892    0.067895    11.00000   -1.50000
H31C  2    0.053895    0.241246    0.029634    11.00000   -1.50000
AFIX   0
C32   1    0.026335   -0.295739    0.144753    11.00000    0.03005    0.02611 =
         0.04394   -0.00447    0.01523   -0.00639
AFIX 137
H32A  2   -0.040500   -0.290904    0.132075    11.00000   -1.50000
H32B  2    0.053970   -0.369532    0.186398    11.00000   -1.50000
H32C  2    0.039018   -0.334323    0.101983    11.00000   -1.50000
AFIX   0
PART    2
same .01 c1 > c14
C1A   1    0.282980    0.560036    0.533251    10.10000   10.02100
AFIX  13
H1A   2    0.338490    0.626267    0.538452    10.10000   -1.20000
AFIX   0
C2A   1    0.167957    0.157234    0.373805    10.10000   10.02100
AFIX  13
H2A   2    0.113590    0.084879    0.364252    10.10000   -1.20000
AFIX   0
C3A   1    0.136857    0.332257    0.373491    10.10000   10.02100
AFIX  13
H3A   2    0.095092    0.374553    0.324376    10.10000   -1.20000
AFIX   0
C4A   1    0.226740    0.155525    0.456668    10.10000   10.02100
AFIX  13
H4A   2    0.259442    0.052182    0.476307    10.10000   -1.20000
AFIX   0
C5A   1    0.097293    0.335894    0.434971    10.10000   10.02100
AFIX  13
H5A   2    0.030267    0.307831    0.417013    10.10000   -1.20000
AFIX   0
C6A   1    0.226919    0.427817    0.411404    10.10000   10.02100
AFIX  13
H6A   2    0.255051    0.467071    0.376064    10.10000   -1.20000
AFIX   0
C7A   1    0.289113    0.305610    0.469144    10.10000   10.02100
AFIX  13
H7A   2    0.349026    0.283607    0.463412    10.10000   -1.20000
AFIX   0
C8A   1    0.160079    0.214249    0.493196    10.10000   10.02100
AFIX  13
H8A   2    0.124767    0.125087    0.504909    10.10000   -1.20000
AFIX   0
C9A   1    0.119313    0.501974    0.472440    10.10000   10.02100
AFIX  13
H9A   2    0.065945    0.578183    0.456104    10.10000   -1.20000
AFIX   0
C10A  1    0.206254    0.563961    0.456717    10.10000   10.02100
AFIX  13
H10A  2    0.197254    0.671654    0.432190    10.10000   -1.20000
AFIX   0
C11A  1    0.300889    0.378121    0.544682    10.10000   10.02100
AFIX  13
H11A  2    0.361295    0.351216    0.584703    10.10000   -1.20000
AFIX   0
C12A  1    0.214781    0.317101    0.560741    10.10000   10.02100
AFIX  13
H12A  2    0.231112    0.259385    0.608962    10.10000   -1.20000
AFIX   0
C13A  1    0.160028    0.473147    0.555866    10.10000   10.02100
AFIX  13
H13A  2    0.113693    0.468159    0.579966    10.10000   -1.20000
AFIX   0
C14A  1    0.234832    0.604581    0.586822    10.10000   10.02100
AFIX  13
H14A  2    0.276044    0.574425    0.638220    10.10000   -1.20000
AFIX   0
C15A  1    0.202470    0.772504    0.587200    10.10000   10.02100
AFIX  23
H15C  2    0.154677    0.795034    0.537928    10.10000   -1.20000
H15D  2    0.255011    0.845361    0.593568    10.10000   -1.20000
AFIX   0
same .01 c16 > c23
C16A  1    0.162651    0.816580    0.645695    10.10000   10.02100
C17A  1    0.156440    0.704761    0.696780    10.10000   10.02100
AFIX  43
H17A  2    0.177156    0.597620    0.695953    10.10000   -1.20000
AFIX   0
C18A  1    0.119655    0.749986    0.749466    10.10000   10.02100
C19A  1    0.089375    0.906912    0.750394    10.10000   10.02100
AFIX  43
H19A  2    0.064503    0.936997    0.786186    10.10000   -1.20000
AFIX   0
C20A  1    0.094879    1.021399    0.699528    10.10000   10.02100
C21A  1    0.131610    0.971553    0.648419    10.10000   10.02100
AFIX  43
H21A  2    0.135712    1.047662    0.613423    10.10000   -1.20000
AFIX   0
C22A  1    0.062035    1.190669    0.701940    10.10000   10.02100
AFIX  33
H22D  2    0.038739    1.200268    0.741996    10.10000   -1.50000
H22E  2    0.113449    1.265620    0.710691    10.10000   -1.50000
H22F  2    0.012527    1.216359    0.654704    10.10000   -1.50000
AFIX   0
C23A  1    0.112459    0.630206    0.805060    10.10000   10.02100
AFIX  33
H23D  2    0.136551    0.526027    0.797032    10.10000   -1.50000
H23E  2    0.148462    0.668371    0.855139    10.10000   -1.50000
H23F  2    0.047682    0.618303    0.799172    10.10000   -1.50000
AFIX   0
HKLF    4

REM  hl-7-8 in P21/n #14
REM R1 =  0.0533 for    4364 Fo > 4sig(Fo)  and  0.0638 for all    5268 data
REM    364 parameters refined using     81 restraints

END

WGHT      0.0613      1.1763

REM Highest difference peak  0.286,  deepest hole -0.322,  1-sigma level  0.045
Q1    1   0.1007  1.2287  0.6528  11.00000  0.05    0.29
Q2    1  -0.0121  0.2556  0.0297  11.00000  0.05    0.28
Q3    1   0.0421  0.3695  0.0943  11.00000  0.05    0.27
Q4    1   0.1029  0.3086  0.0541  11.00000  0.05    0.26
Q5    1   0.2810  0.4048  0.4917  11.00000  0.05    0.24
Q6    1   0.2424  0.4189  0.5374  11.00000  0.05    0.24
Q7    1   0.1091  0.3316  0.3907  11.00000  0.05    0.23
Q8    1   0.1637  0.7186  0.7459  11.00000  0.05    0.22
Q9    1   0.1762  0.3148  0.5223  11.00000  0.05    0.22
Q10   1   0.2005  0.1253  0.3615  11.00000  0.05    0.22
Q11   1   0.1683  0.6070  0.5369  11.00000  0.05    0.21
Q12   1   0.1904  0.2196  0.4821  11.00000  0.05    0.21
Q13   1   0.2227  0.6859  0.5824  11.00000  0.05    0.20
Q14   1   0.2031  0.4972  0.4137  11.00000  0.05    0.20
Q15   1   0.2272  0.6485  0.5197  11.00000  0.05    0.20
Q16   1  -0.0186  1.1264  0.6514  11.00000  0.05    0.19
Q17   1   0.1447  0.2228  0.3642  11.00000  0.05    0.19
Q18   1   0.2001  0.1558  0.4215  11.00000  0.05    0.19
Q19   1   0.0925  0.4272  0.4383  11.00000  0.05    0.18
Q20   1   0.1160  0.2949  0.4607  11.00000  0.05    0.18
;
_shelx_res_checksum              90907
_shelx_hkl_file
;
   1   0   2 123.601 28.2799   1
  -1   0  -2 121.126 28.5596   1
  -1   0   3 9388.75 252.695   1
   1   0  -3 9160.92 246.140   1
  -1   0   3 9286.09 255.616   1
   1  -1   1 8384.96 244.296   1
   1  -1   1 8867.00 256.809   1
  -1   1  -1 8424.64 248.516   1
   1   1   1 10159.6 279.641   1
   1   1   1 9642.80 246.740   1
   1  -1   1 8953.70 259.832   1
  -1  -1  -1 9653.28 263.116   1
   1   1   1 9763.86 259.527   1
  -1   1  -1 8505.16 249.245   1
  -1   1  -1 8478.24 249.906   1
   1  -1  -2 36476.5 1105.28   1
  -1   1   2 37971.2 1132.36   1
   1  -1  -2 37030.2 1106.10   1
   1  -1  -2 37219.7 1115.51   1
  -1   1   2 37551.3 1124.93   1
  -1   1   2 37307.0 1112.91   1
   1   1  -2 38498.4 1175.13   1
  -1  -1   2 33044.3 1011.54   1
   1   1  -2 38016.2 1150.33   1
   1   1  -2 37676.7 1146.89   1
  -1  -1   2 33647.4 1025.47   1
  -1  -1   2 37920.3 1137.00   1
  -1  -1   2 35676.6 1094.41   1
   1   1  -2 38604.9 1159.28   1
   0  -1  -2 186922. 7038.85   1
   0   1   2 184061. 6924.00   1
   0   1   2 186658. 7020.59   1
   0   1  -2 188733. 7187.85   1
   0  -1   2 187403. 7143.74   1
   0  -1   2 190947. 7264.23   1
   0  -1   2 187262. 7149.22   1
   0   1  -2 181155. 6921.07   1
   0   1  -2 188412. 7190.50   1
   0  -1   2 186441. 7122.76   1
   0   0  -3 26.8591 23.1281   1
   0   0   3 45.1420 23.6934   1
   0   0   3 14.9843 21.6778   1
   2   0   1 363.537 37.9230   1
   2   0   1 317.640 36.8888   1
  -2   0  -1 206.040 37.8115   1
  -2   0  -1 211.110 36.9315   1
   2   0   1 241.078 23.4020   1
   2   0   1 260.976 41.0099   1
  -2   0   3 34.5738 35.7883   1
  -2   0   3 51.8134 26.7019   1
   2   0  -3 18.1575 26.9465   1
   2   0  -3 45.5931 28.5985   1
  -2   0   3 54.5732 32.5756   1
   2   1  -1 9732.21 281.396   1
   2   1  -1 9553.77 274.341   1
   2  -1  -1 10167.5 295.806   1
   2  -1  -1 10518.8 305.741   1
  -2   1   1 10036.5 291.865   1
  -2  -1   1 9064.96 265.091   1
  -2  -1   1 9190.64 268.469   1
  -2   1   1 10531.8 305.745   1
  -2  -1   1 9724.81 282.775   1
  -2   1   1 10273.8 287.960   1
   2  -1  -1 10537.2 305.827   1
   2  -1  -1 10014.8 289.775   1
   2   1  -1 9259.68 264.089   1
   2  -1   0 1280.97 72.2820   1
  -2   1   0 1464.67 76.2757   1
  -2   1   0 1411.96 78.7087   1
  -2   1   0 1435.88 73.9859   1
   2  -1   0 1430.65 70.8972   1
   2  -1   0 1519.42 72.3156   1
  -2  -1   0 1086.94 62.8155   1
  -2  -1   2 1153.43 69.2138   1
  -2   1   2 1197.95 62.9501   1
  -2   1   2 1162.70 62.9794   1
  -2  -1   2 1337.05 69.8799   1
  -2  -1   2 1101.62 65.7307   1
   2   1  -2 1288.66 62.9793   1
   2   1  -2 1071.11 67.0854   1
   2  -1  -2 1173.34 66.1206   1
   2  -1  -2 1245.10 66.6967   1
   2   1  -2 1200.55 66.1507   1
  -2   1   2 1316.39 65.3685   1
   2  -1  -2 1292.89 69.4769   1
  -2   1   2 1180.37 65.7010   1
   2  -1  -2 1278.40 64.5428   1
   1  -1   2 285657. 11720.9   1
   1   1   2 282686. 11441.8   1
   1  -1   2 282788. 11605.9   1
   1   1   2 278344. 11263.4   1
  -1   1  -2 269725. 11087.8   1
  -1   1  -2 279357. 11466.3   1
  -1  -1  -2 275862. 11176.5   1
   1  -1   2 274742. 11281.4   1
  -1   1  -2 277601. 11313.2   1
  -3   0   1 567821. 26375.5   1
  -3   0   1 529470. 24609.7   1
  -3   0   1 549103. 25375.3   1
  -3   0   1 542985. 25242.1   1
   3   0  -1 524438. 24391.1   1
   3   0  -1 573253. 26603.5   1
   3   0  -1 564379. 26219.6   1
  -3   0   2 36.1804 35.8941   1
  -3   0   2 48.6633 37.7032   1
   3   0  -2 39.3815 37.7603   1
   3   0  -2 97.1615 34.9192   1
  -3   0   2 88.4531 37.7345   1
   3   0  -2 95.5995 40.1108   1
  -3   0   2 49.4753 39.1159   1
  -1   1   3 34104.7 1022.13   1
  -1   1   3 34629.1 1034.19   1
  -1   1   3 34819.1 1041.09   1
   1  -1  -3 34632.4 1036.11   1
   1   1  -3 36852.3 1127.43   1
   1   1  -3 36593.1 1113.96   1
   1   1  -3 36067.6 1108.54   1
   1   1  -3 36599.8 1099.01   1
  -1  -1   3 38258.1 1170.55   1
  -1  -1   3 36831.6 1122.26   1
  -1  -1   3 36325.8 1093.43   1
  -1  -1   3 37149.6 1130.39   1
  -1   0  -3 194976. 7453.98   1
   1   0   3 196723. 7517.71   1
   1   0   3 196267. 7496.06   1
   0  -1  -3 247224. 9731.34   1
   0  -1  -3 219868. 8669.32   1
   0   1   3 244877. 9649.97   1
   0   1   3 251840. 9913.16   1
   0   1  -3 239344. 9583.43   1
   0  -1   3 245847. 9853.26   1
   0   1  -3 245829. 9830.27   1
   0   1  -3 246883. 9872.69   1
   0  -1   3 246937. 9872.72   1
   0  -1   3 247584. 9881.76   1
   0  -1   3 241656. 9681.36   1
  -2  -1  -1 57879.4 1828.31   1
   2  -1   1 58974.1 1911.11   1
   2  -1   1 57725.7 1872.65   1
   2   1   1 56910.4 1802.26   1
  -2   1  -1 56771.6 1844.23   1
  -2  -1  -1 58379.9 1868.17   1
  -2  -1  -1 56510.3 1793.26   1
  -2   1  -1 56642.7 1840.60   1
   2   1   1 58834.5 1875.64   1
   2   1   1 58511.8 1860.54   1
   2  -1   1 56040.2 1824.37   1
  -1   0   4 119.030 37.3828   1
   1   0  -4 142.337 32.2198   1
   1   0  -4 116.624 34.1125   1
  -1   0   4 156.472 36.1275   1
   2   0   2 339962. 14383.1   1
  -2   0  -2 338963. 14336.3   1
   2   0   2 341927. 14478.1   1
  -2   0  -2 341277. 14457.1   1
   3   0   0 154.235 45.7378   1
   3   0   0 108.369 35.9011   1
   3   0   0 160.925 51.0501   1
  -3   0   0 175.650 37.0176   1
  -3   0   0 163.394 41.6328   1
  -3   0   0 150.480 41.9245   1
   2  -1  -3 183483. 6943.39   1
   2  -1  -3 180560. 6865.07   1
   2  -1  -3 183136. 6958.69   1
  -2   1   3 178279. 6775.19   1
  -2   1   3 185416. 7015.53   1
  -2  -1   3 176419. 6740.63   1
  -2  -1   3 174946. 6684.12   1
   2   1  -3 177585. 6781.63   1
   2   1  -3 181367. 6917.40   1
   2   1  -3 177095. 6778.59   1
  -2  -1   3 180627. 6888.41   1
   3   0  -3 95613.6 3305.74   1
  -3   0   3 97564.0 3380.50   1
  -3   0   3 99394.4 3439.70   1
  -3   0   3 94817.9 3283.63   1
   3   0  -3 97479.8 3382.07   1
  -2   0   4 403767. 17722.4   1
  -2   0   4 401551. 17691.3   1
   2   0  -4 409869. 17970.1   1
   2   0  -4 423308. 18582.4   1
   0   0  -4 226.739 34.3714   1
   0   0   4 237.966 34.1546   1
   0   0   4 200.096 36.6638   1
   3   1  -1 175155. 6651.06   1
   3   1  -1 175534. 6676.35   1
   3   1  -1 172862. 6582.02   1
   3   1  -1 176374. 6687.86   1
  -3  -1   1 172030. 6543.52   1
  -3  -1   1 171805. 6514.56   1
  -3  -1   1 175337. 6649.28   1
  -3  -1   1 172822. 6573.32   1
   3  -1  -1 176384. 6727.70   1
   3  -1  -1 178566. 6817.60   1
  -3   1   1 175568. 6704.15   1
  -3   1   1 174369. 6649.45   1
  -3   1   1 174929. 6686.46   1
   3  -1  -1 176751. 6747.32   1
   3   1  -2 459327. 20613.3   1
   3   1  -2 440020. 19742.7   1
   3   1  -2 456419. 20496.2   1
   3  -1  -2 457298. 20511.4   1
   3  -1  -2 442249. 19874.6   1
   3  -1  -2 445717. 20031.5   1
  -3   1   2 472354. 21201.1   1
  -3  -1   2 453951. 20393.9   1
  -3   1   2 443897. 19896.4   1
  -3  -1   2 446785. 20069.8   1
  -3  -1   2 439332. 19714.1   1
   3   0   1 431849. 19392.1   1
  -3   0  -1 439618. 19666.9   1
  -3   0  -1 454709. 20041.4   1
  -3   0  -1 447457. 19995.6   1
  -3   0  -1 447791. 20119.0   1
   3   0   1 443285. 19827.2   1
   3   0   1 454985. 20329.1   1
   1   1   3 5366.32 146.137   1
  -1  -1  -3 5530.75 149.815   1
  -1  -1  -3 5439.65 147.892   1
   1   1   3 5644.91 148.727   1
  -1   1  -3 6614.00 214.628   1
   1  -1   3 6524.24 198.137   1
  -1   1  -3 6507.50 205.015   1
  -1   1  -3 6500.83 191.882   1
   1  -1   3 6768.31 216.061   1
   1  -1   3 6617.33 196.631   1
  -1   1   4 29290.8 876.980   1
  -1   1   4 30146.8 888.198   1
   1  -1  -4 29779.9 875.498   1
  -1  -1   4 32870.0 996.990   1
  -1  -1   4 32578.9 965.123   1
  -1  -1   4 33164.6 1021.11   1
  -1  -1   4 32582.1 986.552   1
   1   1  -4 33836.0 1017.65   1
   1   1  -4 27021.5 808.931   1
   1   1  -4 32299.0 977.451   1
   1   1  -4 32466.7 988.542   1
  -2   1  -2 337463. 14355.5   1
  -2   1  -2 331321. 14102.1   1
   2   1   2 331507. 14027.3   1
   2  -1   2 336250. 14298.0   1
   2  -1   2 339829. 14455.9   1
   2   1   2 326642. 13718.6   1
   2   1   2 332082. 13961.1   1
  -2  -1  -2 325675. 13700.9   1
  -3  -1   0 1353.79 75.3869   1
   3   1   0 1432.14 82.1229   1
   3   1   0 1369.54 82.4465   1
  -3  -1   0 1374.00 77.7903   1
  -3   1   0 2083.39 93.6628   1
  -3   1   0 2127.03 100.332   1
  -3   1   0 2014.07 91.4895   1
   3  -1   0 2069.18 100.332   1
   3  -1   0 1778.40 95.7086   1
   3   0  -4 -9.2335 43.3955   1
   3   0  -4 30.5345 29.7646   1
  -3   0   4 69.4065 35.2205   1
  -3   0   4 8.68903 30.0701   1
  -3   0   4 -17.056 40.9060   1
   0  -2   0 52100.0 1682.97   1
   0  -2   0 50715.8 1651.07   1
   0   2   0 56459.9 1816.94   1
   0  -2   0 52289.8 1691.61   1
   0   2   0 53407.5 1718.60   1
   0   2   0 51427.1 1674.75   1
   3  -1  -3 39163.7 1203.98   1
   3  -1  -3 38584.3 1200.72   1
  -3   1   3 39427.8 1220.72   1
  -3   1   3 37403.2 1149.68   1
  -3   1   3 39711.8 1224.89   1
   3  -1  -3 39059.6 1203.50   1
  -3  -1   3 36718.1 1161.92   1
  -3  -1   3 34972.5 1104.27   1
   3   1  -3 36675.6 1145.56   1
   3   1  -3 36577.9 1148.22   1
   3   1  -3 36727.9 1160.16   1
  -3  -1   3 36333.6 1142.86   1
   2  -1  -4 76783.2 2549.66   1
  -2   1   4 77998.1 2590.77   1
  -2   1   4 77509.0 2553.19   1
   2  -1  -4 74871.5 2487.58   1
  -2   1   4 76858.0 2553.84   1
   2  -1  -4 75572.4 2504.73   1
   2   1  -4 74794.0 2532.58   1
  -2  -1   4 76034.7 2568.11   1
  -2  -1   4 74603.7 2517.56   1
  -2  -1   4 75713.2 2553.20   1
   2   1  -4 74651.8 2516.81   1
   2   1  -4 72230.5 2439.18   1
   0  -2   1 690.291 61.7595   1
   0  -2  -1 586.425 38.2797   1
   0  -2   1 731.387 68.1357   1
   0  -2  -1 662.100 60.3116   1
   0   2  -1 664.897 59.4175   1
   0   2   1 702.284 58.6273   1
   0  -2  -1 758.484 66.9702   1
   0   2  -1 749.961 67.6281   1
   0   2  -1 751.914 67.8646   1
   0  -2   1 758.642 61.7192   1
   0   2   1 645.696 66.0633   1
   0   2   1 588.052 53.5167   1
   1  -2   0 39470.3 1250.40   1
   1  -2   0 39447.1 1241.02   1
   1   2   0 40700.2 1265.64   1
   1  -2   0 40345.1 1281.25   1
   1   2   0 39623.4 1262.11   1
  -1  -2   0 39557.1 1246.98   1
  -1   2   0 40225.4 1270.23   1
  -1   2   0 40189.6 1279.83   1
   1   2   0 40508.6 1265.61   1
  -1  -2   0 39378.0 1232.01   1
  -1   2   0 40250.6 1270.61   1
  -1  -2   1 1717.65 86.6559   1
  -1   2   1 2155.83 89.8552   1
  -1   2   1 2224.90 104.850   1
  -1   2   1 2242.67 97.1542   1
  -1  -2   1 1828.80 95.9862   1
   1   2  -1 1961.32 98.0877   1
   1  -2  -1 2221.77 98.2573   1
   1  -2  -1 2130.95 99.6144   1
   1   2  -1 1786.77 101.775   1
   1  -2  -1 2248.80 101.420   1
   1   2  -1 1906.61 89.2397   1
   0  -1  -4 4.24482 20.5431   1
   0  -1  -4 12.8425 20.3583   1
   0   1  -4 36.0511 33.8786   1
   0   1  -4 118.729 33.8166   1
   0  -1   4 44.8462 39.5182   1
   0   1   4 6.47204 18.8256   1
   0  -1   4 54.8344 36.3646   1
   0  -1   4 33.2414 44.1730   1
   0   1   4 -4.3335 17.3541   1
   0  -1   4 67.3464 31.0882   1
   2   0   3 600.133 49.3541   1
  -2   0  -3 651.052 42.4489   1
  -2   0  -3 585.658 51.2826   1
   2   0   3 766.359 54.2979   1
  -1   0  -4 332.924 38.6384   1
   1   0   4 357.130 39.7466   1
   1   0   4 403.522 43.4388   1
  -4   0   2 643955. 30859.6   1
  -4   0   2 631960. 30193.1   1
  -4   0   2 654005. 31314.4   1
  -4   0   2 658488. 31582.9   1
   4   0  -2 603769. 28940.5   1
   4   0  -2 611954. 29357.1   1
   4   0  -2 621822. 29814.6   1
  -1   0   5 8054.76 243.241   1
   1   0  -5 8053.90 230.739   1
   1   0  -5 7897.60 229.043   1
  -1   0   5 8234.01 234.858   1
  -1   0   5 8035.95 234.360   1
   2   0  -5 82.2835 34.8766   1
  -2   0   5 143.579 53.8038   1
  -2   0   5 128.580 38.1770   1
  -2   0   5 42.0196 35.8904   1
   2   0  -5 76.3364 37.5086   1
  -4   0   1 5.33299 28.8702   1
   4   0  -1 -17.045 37.2101   1
   4   0  -1 43.2129 37.0545   1
  -4   0   1 25.4805 27.8273   1
  -4   0   1 -4.5828 25.9710   1
   4   0  -1 -70.538 28.3448   1
  -4   0   1 44.1098 37.7946   1
   1  -2   1 52016.0 1688.86   1
   1   2   1 53525.9 1704.22   1
   1  -2   1 51065.9 1659.35   1
  -1   2  -1 45568.9 1506.35   1
  -1   2  -1 52127.9 1703.07   1
  -1  -2  -1 52759.5 1683.97   1
  -1  -2  -1 54797.1 1657.23   1
  -1   2  -1 46375.1 1523.46   1
  -1  -2  -1 52396.8 1674.91   1
   1   2   1 54995.4 1756.89   1
   1  -2   1 50975.2 1667.20   1
  -3  -1  -1 214331. 8428.61   1
  -3  -1  -1 221469. 8711.00   1
  -3  -1  -1 225212. 8901.24   1
   3   1   1 218563. 8625.86   1
   3   1   1 215452. 8459.09   1
   3   1   1 218821. 8606.12   1
  -3   1  -1 214058. 8510.14   1
   3  -1   1 218476. 8680.15   1
   3  -1   1 222431. 8851.66   1
  -3   1  -1 217292. 8632.27   1
   3  -1   1 223303. 8866.47   1
  -1  -2   2 5153.49 166.812   1
   1   2  -2 5339.59 178.790   1
   1   2  -2 5145.47 169.414   1
  -1   2   2 4081.35 127.364   1
   1  -2  -2 3848.01 141.682   1
   1  -2  -2 4041.83 149.976   1
   1  -2  -2 3930.08 140.521   1
   1   2  -2 4983.02 178.971   1
  -1   2   2 4113.94 151.476   1
  -1  -2   2 5083.05 169.367   1
  -1  -2   2 5327.38 181.462   1
  -1   2   2 3981.13 149.230   1
  -1   2   2 4137.86 147.972   1
   4   0  -3 93.8215 52.8184   1
  -4   0   3 61.5995 53.3803   1
  -4   0   3 61.2554 43.4652   1
  -4   0   3 85.1861 48.1580   1
   4   0  -3 84.5664 42.5057   1
  -4   0   3 125.561 48.0226   1
   0   2  -2 561.941 70.7667   1
   0   2  -2 595.127 60.2527   1
   0   2  -2 629.099 67.9316   1
   0  -2   2 555.802 60.2723   1
   0   2   2 662.360 29.0517   1
   0   2   2 802.762 54.7156   1
   0   2   2 945.962 67.7164   1
   0  -2   2 581.722 70.8270   1
   0  -2  -2 667.503 56.4462   1
   0   2   2 752.591 59.3887   1
   0  -2   2 670.423 59.7983   1
  -3   0  -2 74.8536 38.5850   1
   3   0   2 94.9674 39.5961   1
   3   0   2 49.6779 34.7375   1
  -3   0  -2 30.9034 34.1681   1
   3   0   2 80.1400 49.1765   1
  -3   1   4 81736.7 2777.21   1
  -3  -1   4 86656.1 2964.90   1
  -3  -1   4 86042.6 2951.19   1
  -3  -1   4 81184.3 2791.16   1
   3   1  -4 82359.7 2824.80   1
   3  -1  -4 81895.7 2764.72   1
   3   1  -4 86439.7 2971.20   1
   3   1  -4 82664.3 2836.59   1
  -3   1   4 80677.3 2745.69   1
   3  -1  -4 79779.2 2721.28   1
   3  -1  -4 80003.6 2740.60   1
  -2   2   1 6289.05 190.865   1
  -2  -2   1 5837.48 189.560   1
  -2   2   1 6953.85 225.479   1
  -2  -2   1 6062.36 201.531   1
  -2   2   1 7071.26 232.177   1
  -2   2   1 6794.20 219.334   1
   2  -2  -1 6376.24 205.372   1
   2  -2  -1 6430.39 217.109   1
   2  -2  -1 6411.99 195.705   1
   2   2  -1 6352.49 213.087   1
   2  -2  -1 6663.25 215.140   1
   2   2  -1 5876.77 199.974   1
   4   0   0 77405.6 2615.57   1
  -4   0   0 76882.4 2622.91   1
  -4   0   0 74496.4 2519.76   1
  -4   0   0 76444.8 2588.62   1
   4   0   0 77063.6 2621.41   1
   4   0   0 79720.9 2712.26   1
   0   0   5 342.397 37.9205   1
   0   0   5 194.173 37.4358   1
   0   0  -5 144.959 35.5329   1
   0   0   5 195.683 39.4026   1
  -3   0   5 55876.7 1804.14   1
  -3   0   5 55579.9 1821.13   1
   3   0  -5 54085.8 1743.99   1
   3   0  -5 56072.0 1813.91   1
  -3   0   5 56043.1 1811.07   1
  -2   2   0 114.297 42.8804   1
   2   2   0 45.7781 39.1704   1
   2  -2   0 97.4264 49.7719   1
   2  -2   0 44.8773 40.7225   1
   2  -2   0 28.3145 41.1772   1
   2  -2   0 56.7840 44.2378   1
  -2  -2   0 54.4115 38.4280   1
   2   2   0 94.9864 32.4260   1
  -2  -2   0 46.8164 29.6750   1
  -2  -2   0 66.4938 39.2396   1
  -2   2   0 68.6068 48.6272   1
  -2   2   0 53.2319 52.2456   1
   2   1   3 379.138 37.5780   1
   2  -1   3 323.233 62.4866   1
   2   1   3 306.874 41.1308   1
  -2   1  -3 402.055 54.8227   1
  -2   1  -3 416.418 42.0811   1
  -2  -1  -3 317.353 38.0439   1
  -2   1  -3 463.769 62.9602   1
   2  -1   3 545.412 56.7120   1
  -2  -2   2 41.2898 42.5172   1
  -2   2   2 114.253 44.1555   1
  -2   2   2 101.392 35.8622   1
  -2  -2   2 -7.8053 49.1451   1
  -2   2   2 133.031 48.2601   1
   2  -2  -2 130.250 35.5232   1
  -2   2   2 182.805 41.5466   1
   2  -2  -2 174.759 50.6645   1
   2   2  -2 65.1493 41.4832   1
   2  -2  -2 159.131 46.4796   1
   2   2  -2 50.6044 51.5474   1
   2  -2  -2 154.315 46.5688   1
   2   2  -2 52.3978 47.7271   1
   2   2  -2 153.875 45.1128   1
   1  -1   4 14484.8 427.501   1
  -1   1  -4 13876.6 420.549   1
  -1   1  -4 14009.3 405.758   1
  -1   1  -4 13731.8 410.930   1
   1  -1   4 14097.1 422.089   1
   1  -1   4 14708.8 442.551   1
  -4   0   4 119176. 4304.31   1
  -4   0   4 117577. 4248.97   1
  -4   0   4 123910. 4465.83   1
   4   0  -4 118341. 4285.47   1
   4   0  -4 116598. 4210.75   1
   4  -1  -2 62524.7 2081.99   1
   4  -1  -2 64347.5 2142.55   1
  -4   1   2 57586.6 1925.23   1
  -4  -1   2 61538.8 2037.53   1
  -4  -1   2 62941.6 2072.84   1
  -4  -1   2 62186.5 2058.34   1
  -4   1   2 63502.7 2104.39   1
  -4   1   2 57075.6 1918.39   1
   4   1  -2 64710.2 2130.80   1
   4   1  -2 63883.5 2095.11   1
   4   1  -2 65946.3 2180.69   1
   4  -1  -2 61394.5 2042.10   1
   1  -2   2 674.912 70.4663   1
   1  -2   2 832.566 63.4671   1
   1   2   2 484.332 33.5496   1
   1  -2   2 757.846 62.4175   1
  -1   2  -2 644.847 57.9595   1
  -1  -2  -2 468.973 51.7932   1
  -1  -2  -2 451.183 50.1308   1
  -1   2  -2 761.956 71.5887   1
  -1   2  -2 810.195 71.2893   1
   1   2   2 421.658 49.6950   1
   1   1  -5 43283.3 1358.86   1
  -1   1   5 42238.5 1279.80   1
  -1  -1   5 43532.4 1378.03   1
   1   1  -5 42194.3 1343.53   1
   1  -1  -5 42690.8 1297.96   1
   1   1  -5 41857.9 1323.00   1
  -1  -1   5 42095.7 1343.25   1
  -1  -1   5 43485.9 1343.45   1
  -1  -1   5 43088.3 1366.06   1
  -1   1   5 41630.5 1265.56   1
  -2  -1   5 2812.01 114.835   1
  -2   1   5 3008.42 102.618   1
  -2  -1   5 2879.36 122.379   1
  -2  -1   5 3031.30 128.475   1
  -2   1   5 3046.66 111.166   1
  -2   1   5 2997.33 105.551   1
   2   1  -5 2972.34 121.975   1
   2  -1  -5 2962.16 106.520   1
   2   1  -5 2813.16 109.330   1
   2   1  -5 2764.61 108.451   1
   2  -1  -5 2939.81 103.774   1
   1  -2  -3 3745.16 133.877   1
  -1   2   3 3651.79 145.487   1
  -1   2   3 3854.05 136.057   1
  -1   2   3 3910.96 133.911   1
  -1   2   3 3930.86 122.793   1
   1  -2  -3 3710.81 128.150   1
   1  -2  -3 3665.31 131.359   1
  -1  -2   3 4230.74 144.711   1
  -1  -2   3 4092.74 149.255   1
  -1  -2   3 3845.31 151.355   1
   1   2  -3 4397.82 168.730   1
   1   2  -3 4562.80 154.963   1
   1   2  -3 4396.02 150.993   1
   1   2  -3 4409.70 154.107   1
  -4   1   1 3704.79 141.197   1
   4  -1  -1 3976.32 162.126   1
  -4  -1   1 4122.67 139.376   1
  -4  -1   1 4277.82 144.571   1
  -4   1   1 3877.65 161.108   1
  -4  -1   1 4485.52 157.162   1
   4   1  -1 4444.85 156.687   1
   4   1  -1 4414.72 151.600   1
  -4  -1   1 4439.65 148.977   1
   4  -1  -1 3921.75 161.285   1
   4   1  -1 4459.17 142.969   1
   4  -1  -1 3780.02 142.773   1
   4   1  -1 4699.40 161.130   1
  -4   1   1 3995.95 148.708   1
   4   1  -3 16343.9 488.030   1
   4   1  -3 16713.1 504.416   1
   4  -1  -3 15806.7 488.477   1
  -4  -1   3 16084.5 490.053   1
  -4   1   3 16171.7 488.836   1
   4  -1  -3 16218.6 488.777   1
  -4  -1   3 16346.9 509.801   1
   4   1  -3 15324.0 483.083   1
   4  -1  -3 16470.4 507.479   1
  -4   1   3 16161.1 490.492   1
  -4   1   3 16572.2 509.327   1
  -4  -1   3 16627.4 504.923   1
   0   2   3 5662.25 176.023   1
   0   2   3 5602.85 197.620   1
   0   2   3 5587.25 168.864   1
   0  -2  -3 5588.14 174.757   1
   0   2  -3 5560.91 191.638   1
   0   2  -3 5351.69 194.355   1
   0  -2   3 5475.15 187.532   1
   0  -2   3 5704.08 193.816   1
   0  -2   3 5183.24 187.251   1
   0   2  -3 5239.36 177.257   1
   0   2  -3 5598.48 179.847   1
   2  -2   1 24963.3 800.130   1
  -2   2  -1 28403.2 878.607   1
  -2   2  -1 29402.1 917.301   1
  -2  -2  -1 27204.0 823.534   1
   2   2   1 28304.6 823.363   1
  -2  -2  -1 28115.1 822.084   1
   2  -2   1 28744.3 892.322   1
   2   2   1 27520.6 824.131   1
   2   2   1 28546.6 865.898   1
   2  -2   1 26608.5 831.867   1
  -2  -2  -1 27294.0 831.125   1
  -2   2  -1 28517.8 894.728   1
  -3  -1  -2 34529.8 1037.04   1
   3   1   2 35255.8 1090.29   1
  -3   1  -2 32182.1 1004.72   1
  -3  -1  -2 34784.5 1049.09   1
  -3   1  -2 32113.6 1024.99   1
   3  -1   2 33334.4 1045.06   1
   3  -1   2 33439.6 1054.74   1
   3   1   2 36024.3 1086.05   1
   3   1   2 35522.8 1066.50   1
   3  -1   2 32757.7 1050.99   1
  -2   2   3 8456.17 264.512   1
   2  -2  -3 8266.10 264.524   1
  -2   2   3 8509.32 243.927   1
  -2   2   3 8278.59 265.628   1
  -2   2   3 8642.67 265.912   1
   2  -2  -3 8658.42 266.664   1
   2  -2  -3 8268.92 253.510   1
  -2  -2   3 8591.20 281.712   1
  -2  -2   3 8069.54 257.247   1
   2   2  -3 8280.28 261.673   1
   2   2  -3 8679.27 268.793   1
   2   2  -3 7828.94 265.867   1
   2   2  -3 7355.43 239.754   1
   4   0   1 159.800 46.6513   1
   4   0   1 177.250 54.0322   1
   4   0   1 222.936 56.0305   1
  -4   0  -1 227.160 44.7295   1
  -4   0  -1 200.768 48.5130   1
  -4   0  -1 187.791 34.2342   1
  -4   0  -1 207.910 48.8987   1
   2   0   4 6465.49 198.835   1
   2   0   4 6441.72 194.448   1
  -2   0  -4 6293.69 189.391   1
   2   0   4 6060.23 177.585   1
   4  -1   0 10268.9 332.451   1
   4   1   0 10629.7 329.740   1
   4   1   0 10317.7 301.147   1
  -4   1   0 10399.1 323.161   1
  -4   1   0 10855.5 343.054   1
  -4   1   0 10442.8 330.967   1
  -4  -1   0 10129.0 314.836   1
  -4  -1   0 10651.7 326.925   1
  -4  -1   0 10285.7 302.399   1
   4  -1   0 10679.3 332.408   1
   4  -1   0 10744.6 339.717   1
   4   1   0 10689.1 309.479   1
   4   1   0 11188.7 347.501   1
   0   1   5 36265.4 1036.74   1
   0  -1   5 35208.9 1102.87   1
   0  -1   5 36090.0 1117.76   1
   0   1   5 35807.2 1026.38   1
   0  -1   5 35280.7 1097.46   1
   0  -1   5 36337.3 1121.69   1
   0  -1  -5 35088.6 1006.24   1
   0   1  -5 36223.4 1113.74   1
   0  -1  -5 36976.0 1060.75   1
   0   1  -5 36038.9 1119.10   1
   3  -1  -5 92763.6 3158.78   1
  -3   1   5 94023.7 3197.38   1
  -3  -1   5 93051.8 3237.99   1
  -3   1   5 91773.5 3177.72   1
   3   1  -5 89949.6 3147.81   1
   3   1  -5 91896.8 3201.52   1
  -3  -1   5 81925.7 2883.71   1
  -3   1   5 90969.2 3134.83   1
  -3  -1   5 95136.0 3310.55   1
   3  -1  -5 91862.4 3173.01   1
   3   1  -5 89302.3 3110.65   1
   3  -1  -5 92971.2 3214.23   1
   4   1  -4 25700.0 785.884   1
  -4   1   4 25303.8 770.799   1
   4  -1  -4 24997.9 771.935   1
   4  -1  -4 25470.4 765.530   1
  -4  -1   4 24545.5 761.781   1
  -4  -1   4 24705.0 764.813   1
  -4  -1   4 23107.1 725.399   1
  -4   1   4 25989.2 795.181   1
  -4   1   4 25299.2 771.870   1
   4   1  -4 24520.1 756.268   1
   4   1  -4 25254.3 790.208   1
   4  -1  -4 24153.3 736.497   1
  -2   0   6 5454.49 175.465   1
   2   0  -6 5326.19 163.258   1
  -2   0   6 5486.96 189.490   1
   2   0  -6 5532.49 176.120   1
  -2   0   6 5515.59 175.678   1
   1   0   5 5512.02 171.842   1
   1   0   5 5530.16 169.044   1
  -1   0  -5 5186.24 154.390   1
   1   0   5 5611.87 174.761   1
   3   2  -1 55370.9 1793.39   1
   3   2  -1 53672.8 1733.62   1
  -3  -2   1 54438.3 1734.32   1
  -3  -2   1 54014.8 1769.99   1
   3   2  -1 52779.1 1720.04   1
  -3  -2   1 51883.5 1679.56   1
  -3   2   1 51248.4 1667.04   1
  -3   2   1 53067.0 1745.93   1
   3  -2  -1 50570.3 1664.29   1
   3  -2  -1 51300.8 1696.05   1
   3  -2  -1 50820.7 1671.61   1
  -3   2   1 53144.3 1745.38   1
  -3   2   1 51609.9 1702.15   1
   3  -2  -1 50907.6 1656.16   1
   3   0   3 372468. 15913.2   1
   3   0   3 383664. 16692.3   1
  -3   0  -3 383497. 16694.1   1
  -3   0  -3 384932. 16772.2   1
   3   0   3 389309. 16963.5   1
  -4   0   5 111.394 48.0234   1
  -4   0   5 117.544 40.2837   1
  -4   0   5 79.6777 53.8367   1
   4   0  -5 113.119 38.1405   1
   4   0  -5 99.8183 48.6182   1
  -3  -2   2 26161.5 815.610   1
   3   2  -2 27685.8 859.656   1
   3  -2  -2 28809.5 903.964   1
   3  -2  -2 28446.2 888.625   1
   3   2  -2 26860.6 848.941   1
  -3   2   2 28672.7 871.158   1
  -3   2   2 30088.2 932.414   1
  -3   2   2 30044.1 930.727   1
  -3  -2   2 26758.9 845.216   1
  -3   2   2 29597.1 917.714   1
   3   2  -2 27080.1 840.465   1
   3  -2  -2 28236.7 872.481   1
   3  -2  -2 28793.5 877.444   1
  -1   0   6 81.5066 34.7142   1
  -1   0   6 102.558 32.5116   1
   1   0  -6 32.4132 31.6952   1
  -1   0   6 44.8473 46.8715   1
   1   0  -6 42.2922 32.2046   1
  -1  -2  -3 7025.38 209.466   1
   1   2   3 7382.69 220.048   1
   1   2   3 7364.07 212.757   1
   1  -2   3 7695.62 243.276   1
  -1   2  -3 7483.33 246.978   1
   1  -2   3 7461.06 251.373   1
  -1   2  -3 6942.41 226.700   1
  -1   2  -3 7684.24 232.407   1
   1  -2   3 8016.61 251.475   1
  -1   2  -3 7664.92 256.123   1
  -1   2   4 4415.34 150.519   1
   1  -2  -4 4316.03 139.807   1
  -1   2   4 4408.56 145.393   1
  -1   2   4 4480.08 159.345   1
   1  -2  -4 4314.20 145.059   1
  -1  -2   4 4656.26 171.500   1
  -1  -2   4 4525.75 170.516   1
  -1  -2   4 4490.98 155.946   1
   1   2  -4 4540.30 174.150   1
   1   2  -4 4456.55 164.687   1
   1   2  -4 4318.28 153.082   1
   1   2  -4 4423.18 151.864   1
  -1  -2   4 4695.03 164.208   1
   2   2   2 6105.38 176.968   1
  -2  -2  -2 5912.97 184.313   1
  -2   2  -2 5499.35 189.363   1
  -2  -2  -2 5805.34 182.419   1
   2  -2   2 6109.78 217.971   1
   2  -2   2 5899.39 198.309   1
   2   2   2 6005.04 192.496   1
   2   2   2 5923.55 181.904   1
  -2   2  -2 5833.48 210.683   1
   2  -2   2 5792.54 200.286   1
   3   2   0 11817.5 355.033   1
   3   2   0 12011.8 378.247   1
  -3  -2   0 12195.7 365.926   1
  -3  -2   0 11819.0 367.727   1
  -3  -2   0 11906.2 345.611   1
  -3   2   0 12184.7 389.280   1
   3  -2   0 11885.8 384.365   1
   3  -2   0 11477.1 355.759   1
   3  -2   0 11327.2 352.865   1
   3  -2   0 11755.7 368.616   1
  -3   2   0 11616.2 364.882   1
   3   0  -6 8.20780 38.3622   1
   3   0  -6 36.2433 30.2835   1
  -3   0   6 17.7726 31.7599   1
  -3   0   6 -5.3727 42.8977   1
  -3   0   6 -0.2014 38.8654   1
   5   0  -2 61.6962 34.5520   1
   5   0  -2 -63.590 44.9605   1
   5   0  -2 14.0126 46.1062   1
  -5   0   2 10.1543 32.5389   1
  -5   0   2 21.3165 33.6655   1
  -5   0   2 -21.815 47.3787   1
  -5   0   2 29.8571 37.0310   1
   3  -2  -3 34023.5 1056.69   1
  -3   2   3 33583.7 1067.66   1
   3  -2  -3 33388.2 1057.10   1
  -3   2   3 33640.4 1054.38   1
  -3   2   3 33980.5 1061.39   1
   3  -2  -3 33389.1 1063.27   1
   3  -2  -3 33799.4 1044.32   1
  -3   2   3 33345.2 1021.70   1
  -3  -2   3 32682.4 1028.04   1
  -3  -2   3 33304.7 1061.94   1
  -3  -2   3 32409.7 1036.34   1
   3   2  -3 33551.1 1065.39   1
   3   2  -3 33239.5 1043.45   1
   3   2  -3 33369.3 1048.67   1
   2  -2  -4 741.575 64.4522   1
  -2   2   4 825.779 66.9006   1
   2  -2  -4 741.653 55.7237   1
   2  -2  -4 742.800 64.4160   1
  -2   2   4 739.652 64.6351   1
  -2   2   4 675.160 57.5063   1
  -2  -2   4 820.627 73.8647   1
   2   2  -4 591.974 74.8576   1
   2   2  -4 536.200 58.0168   1
   2   2  -4 615.718 67.9207   1
  -2  -2   4 834.951 63.7970   1
   2   2  -4 559.058 56.0068   1
  -2  -2   4 815.254 72.0483   1
  -5   0   3 296179. 12403.0   1
  -5   0   3 310559. 12924.3   1
   5   0  -3 270726. 11363.6   1
   5   0  -3 281504. 11795.9   1
  -5   0   3 300444. 12570.2   1
  -5   0   3 306149. 12822.3   1
   5   0  -3 274734. 11520.0   1
  -4   1  -1 19082.0 590.042   1
  -4   1  -1 19753.4 632.170   1
  -4  -1  -1 21669.7 663.420   1
  -4  -1  -1 21416.5 636.751   1
   4  -1   1 20863.8 649.309   1
   4   1   1 21868.4 624.734   1
   4   1   1 21675.0 651.033   1
   4  -1   1 19739.0 629.638   1
   4   1   1 21318.8 633.646   1
  -4  -1  -1 21396.4 638.564   1
   4   1   1 21450.8 661.376   1
   2  -1   4 43860.8 1387.82   1
   2   1   4 40307.7 1218.24   1
   2  -1   4 43427.2 1337.06   1
   2  -1   4 43839.5 1393.54   1
   2   1   4 39336.8 1189.45   1
  -2   1  -4 43313.2 1327.73   1
  -2   1  -4 42150.8 1339.95   1
  -2   1  -4 42848.0 1363.67   1
   0   2   4 873.537 52.1027   1
   0   2   4 836.581 55.8337   1
   0   2  -4 987.938 71.4287   1
   0  -2   4 937.217 72.0251   1
   0   2  -4 1043.58 81.4387   1
   0  -2   4 868.560 76.4297   1
   0  -2   4 1178.11 72.5665   1
   0   2  -4 897.637 82.1860   1
   0   2  -4 1095.97 67.8608   1
   5   0  -1 131.723 55.2289   1
   5   0  -1 130.390 52.7328   1
   5   0  -1 125.182 40.7233   1
  -5   0   1 85.8542 46.1956   1
  -5   0   1 136.251 41.6748   1
  -5   0   1 133.366 36.5328   1
  -5   0   1 126.287 54.0267   1
  -2   1   6 319.390 38.3245   1
   2  -1  -6 300.490 37.8322   1
  -2   1   6 312.070 43.1420   1
  -2   1   6 300.817 42.0882   1
   2   1  -6 165.204 41.8968   1
   2   1  -6 192.963 47.9928   1
   2   1  -6 134.842 58.3111   1
  -2  -1   6 135.747 37.8788   1
  -2  -1   6 258.852 51.5399   1
  -2  -1   6 147.698 49.3951   1
  -2  -1   6 179.785 57.0819   1
  -1   1  -5 32873.7 1027.81   1
   1  -1   5 33463.0 1044.21   1
   1  -1   5 33809.5 1050.41   1
   1  -1   5 33674.6 1022.07   1
  -1   1  -5 32478.0 990.690   1
  -1   1  -5 32753.4 1012.24   1
   0   0   6 7928.93 232.216   1
   0   0   6 7840.97 229.090   1
   0   0   6 7802.72 240.388   1
   0   0  -6 7470.93 216.315   1
   3   1   3 90866.6 3096.59   1
   3   1   3 89728.8 3131.70   1
   3  -1   3 92513.5 3230.13   1
  -3   1  -3 93004.6 3143.86   1
  -3   1  -3 90563.3 3166.68   1
   3  -1   3 90716.1 3177.10   1
  -3  -1  -3 90960.3 3102.78   1
  -3   1  -3 91630.5 3201.73   1
   3   1   3 89814.9 3063.65   1
   4  -1  -5 90095.1 3132.67   1
   4   1  -5 91361.0 3208.75   1
  -4  -1   5 90046.6 3160.06   1
  -4  -1   5 92040.2 3220.78   1
  -4  -1   5 89346.5 3137.62   1
  -4   1   5 90339.5 3154.21   1
  -4   1   5 92794.4 3243.08   1
   4   1  -5 92027.0 3219.67   1
   4   1  -5 89321.3 3125.09   1
   4  -1  -5 93972.8 3226.38   1
   4  -1  -5 89989.8 3139.41   1
   4   0   2 31836.9 986.385   1
  -4   0  -2 31305.2 971.012   1
   4   0   2 30929.9 951.050   1
   4   0   2 30687.2 974.525   1
   5   0  -4 31.6744 40.8232   1
  -5   0   4 -5.0884 44.2247   1
   5   0  -4 113.643 53.0209   1
  -5   0   4 98.1092 41.5242   1
  -5   0   4 158.146 48.2913   1
  -5   0   4 131.930 53.2368   1
  -1   1   6 1341.66 59.5260   1
   1  -1  -6 1228.32 57.7319   1
  -1   1   6 1302.67 59.9011   1
  -1  -1   6 1298.04 74.0559   1
  -1  -1   6 1253.76 70.4197   1
   1   1  -6 1244.26 73.2623   1
  -1  -1   6 1235.30 84.0708   1
  -1  -1   6 1442.20 76.8661   1
   1   1  -6 1318.34 84.1899   1
   1   1  -6 1381.72 67.4542   1
   3  -2   1 16180.3 492.349   1
   3  -2   1 15775.3 496.373   1
   3  -2   1 14538.1 451.734   1
   3  -2   1 15122.3 485.143   1
  -3  -2  -1 13962.3 425.944   1
  -3   2  -1 14916.8 476.139   1
  -3   2  -1 15179.9 469.047   1
   3   2   1 14206.9 421.239   1
  -3  -2  -1 14390.8 422.819   1
   3   2   1 14459.1 426.978   1
  -3  -2  -1 13838.6 412.895   1
   3  -2  -4 11839.1 361.537   1
   3  -2  -4 11553.8 366.227   1
  -3   2   4 11528.7 339.775   1
  -3   2   4 11927.5 359.983   1
   3  -2  -4 11697.0 347.354   1
  -3   2   4 12546.3 388.184   1
  -3   2   4 11445.7 354.287   1
  -3  -2   4 10862.4 356.159   1
   3   2  -4 11327.9 356.149   1
  -3  -2   4 11255.0 365.866   1
   3   2  -4 10636.2 332.900   1
  -3  -2   4 11193.1 353.373   1
   3   2  -4 11469.6 372.602   1
   3   2  -4 11607.6 360.716   1
   3  -1  -6 7903.76 241.116   1
  -3   1   6 8381.33 260.194   1
  -3   1   6 8315.57 250.968   1
  -3   1   6 8469.80 243.578   1
   3  -1  -6 8482.05 248.210   1
   3  -1  -6 8092.24 252.598   1
  -3  -1   6 9381.87 295.910   1
  -3  -1   6 8915.59 274.544   1
  -3  -1   6 9014.09 283.432   1
   3   1  -6 8514.98 264.581   1
   3   1  -6 8711.11 266.827   1
   3   1  -6 8561.66 277.100   1
  -5  -1   2 41672.0 1334.17   1
  -5  -1   2 41776.6 1329.37   1
   5   1  -2 42666.3 1334.37   1
   5  -1  -2 39786.6 1296.31   1
   5  -1  -2 37241.5 1222.12   1
   5  -1  -2 35450.8 1153.45   1
   5   1  -2 42846.9 1368.14   1
  -5   1   2 41142.9 1336.34   1
   5   1  -2 42936.4 1369.44   1
   5   1  -2 42850.2 1356.30   1
  -5  -1   2 41429.3 1319.12   1
  -5   1   2 40630.7 1306.14   1
  -5   1   2 42145.2 1351.36   1
  -5  -1   2 42354.9 1336.35   1
  -4   0   6 48329.8 1570.12   1
  -4   0   6 49022.2 1614.02   1
  -4   0   6 50788.2 1645.26   1
   4   0  -6 49888.1 1618.01   1
   4   0  -6 48797.4 1573.06   1
   5   1  -3 52905.6 1748.64   1
   5   1  -3 53450.9 1759.14   1
  -5   1   3 55926.6 1837.23   1
  -5  -1   3 53857.9 1781.18   1
   5   1  -3 53233.5 1727.50   1
  -5  -1   3 52225.9 1723.33   1
   5  -1  -3 51715.4 1709.22   1
  -5  -1   3 55211.8 1799.73   1
  -5   1   3 55457.1 1830.79   1
  -5  -1   3 53078.9 1746.85   1
  -5   1   3 55268.4 1831.41   1
   5  -1  -3 56495.5 1870.25   1
   5  -1  -3 54289.7 1803.32   1
  -5   0   0 -19.167 13.9023   1
  -5   0   0 12.5051 42.4278   1
  -5   0   0 34.1007 32.7078   1
  -5   0   0 6.63780 27.4524   1
   5   0   0 52.5595 34.4480   1
   5   0   0 -13.377 40.4763   1
   5   0   0 -23.441 33.5429   1
  -2  -2  -3 67431.4 2207.89   1
   2   2   3 67084.0 2195.22   1
   2   2   3 67297.9 2197.94   1
   2   2   3 67485.3 2201.49   1
   2  -2   3 67046.3 2270.11   1
  -2   2  -3 63559.4 2153.97   1
  -2   2  -3 65788.5 2239.29   1
   2  -2   3 67970.7 2308.38   1
   2  -2   3 65950.4 2229.92   1
   5   1  -1 4280.07 170.849   1
   5  -1  -1 4319.54 153.982   1
   5   1  -1 4443.14 149.818   1
   5   1  -1 4132.44 172.329   1
   5  -1  -1 4125.18 172.089   1
   5  -1  -1 4457.04 172.525   1
   5   1  -1 4255.16 137.244   1
  -5  -1   1 4126.45 155.541   1
  -5   1   1 4243.16 166.596   1
  -5   1   1 4084.70 155.623   1
  -5   1   1 3839.81 145.339   1
  -5  -1   1 4380.34 157.901   1
  -5  -1   1 4157.06 149.370   1
  -1   2  -4 1524.21 81.9961   1
   1  -2   4 1571.19 98.6877   1
   1  -2   4 1744.45 83.6189   1
  -1   2  -4 1552.58 81.2935   1
  -1   2  -4 1581.28 96.0399   1
   2   0   5 967.560 65.0198   1
  -2   0  -5 940.209 61.5096   1
   2   0   5 832.542 57.8614   1
   2   0   5 919.384 61.3527   1
   4  -2  -2 60.1949 41.2864   1
   4   2  -2 84.6933 39.6168   1
   4   2  -2 95.2990 36.7163   1
   4   2  -2 47.0945 49.4275   1
   4  -2  -2 29.8390 42.1041   1
  -4   2   2 78.2835 43.0486   1
  -4  -2   2 92.3757 50.8761   1
  -4  -2   2 140.718 43.1533   1
  -4   2   2 56.0545 43.8730   1
  -4  -2   2 91.4675 38.7435   1
  -4   2   2 7.88163 49.4968   1
   4  -2  -2 37.4397 53.6266   1
   4  -2  -2 72.2280 53.8455   1
   0  -1  -6 21781.6 586.097   1
   0  -1  -6 20612.0 559.779   1
   0   1   6 21807.0 590.033   1
   0  -1   6 23638.8 700.363   1
   0  -1   6 22226.1 679.461   1
   0  -1   6 22372.2 674.042   1
   0  -1   6 22420.2 682.037   1
   0   1  -6 21965.4 663.099   1
   0   1  -6 22112.6 665.083   1
  -5   0   5 6353.16 209.880   1
  -5   0   5 6438.56 221.947   1
   5   0  -5 6039.85 218.719   1
   5   0  -5 5956.17 199.070   1
  -5   0   5 6638.50 224.464   1
   1   2  -5 3013.57 118.066   1
  -1  -2   5 2892.53 123.043   1
  -1  -2   5 2991.01 135.033   1
  -1  -2   5 2934.12 114.960   1
   1   2  -5 2923.50 136.832   1
   1   2  -5 3079.17 131.893   1
   1  -2  -5 3766.39 123.636   1
   1   2  -5 3155.70 128.001   1
  -1   2   5 3764.79 134.592   1
  -1   2   5 3754.51 121.797   1
  -1  -2   5 3196.37 134.417   1
  -1   2   5 3644.05 122.540   1
  -2  -2   5 1168.60 70.9882   1
  -2  -2   5 1195.46 88.4535   1
   2   2  -5 1049.17 88.9115   1
  -2  -2   5 1137.47 75.0213   1
   2   2  -5 1308.58 74.7290   1
  -2   2   5 1192.37 72.4440   1
  -2   2   5 1041.45 63.3402   1
   2   2  -5 1188.74 71.4197   1
  -2   2   5 1117.40 68.3483   1
  -2  -2   5 1322.85 87.1393   1
   2   2  -5 1229.31 79.5801   1
   2  -2  -5 1097.78 68.2781   1
   2  -2  -5 993.562 69.2556   1
   2  -2  -5 1134.05 65.8854   1
  -4  -1  -2 2171.28 94.5670   1
   4  -1   2 2523.86 128.766   1
   4  -1   2 2571.43 131.419   1
  -4   1  -2 2617.48 126.233   1
   4   1   2 2328.77 107.318   1
  -4   1  -2 2395.08 102.089   1
  -4  -1  -2 2257.60 95.2775   1
   4  -1   2 2647.29 105.691   1
   4   1   2 2329.57 90.3701   1
   4   1   2 2322.83 116.724   1
   3   0   4 507.285 60.2013   1
   3   0   4 388.058 46.4958   1
   3   0   4 420.848 49.3675   1
  -3   0  -4 472.515 52.3567   1
  -3   0  -4 434.851 49.1877   1
  -5  -1   4 13633.0 424.419   1
  -5  -1   4 13805.6 426.195   1
  -5   1   4 14208.1 437.687   1
  -5   1   4 13980.8 428.628   1
  -5   1   4 13776.7 438.426   1
  -5  -1   4 14043.8 447.289   1
   5   1  -4 12759.0 399.528   1
   5   1  -4 13819.4 443.594   1
   5  -1  -4 14113.4 450.025   1
   5  -1  -4 13584.4 416.297   1
   5  -1  -4 14186.2 449.715   1
   5   1  -4 14510.1 435.311   1
  -5  -1   4 13330.7 417.645   1
   4   2  -1 4379.40 157.806   1
  -4   2   1 3996.48 155.928   1
   4  -2  -1 4153.21 161.010   1
  -4   2   1 4121.99 160.163   1
   4   2  -1 4544.40 164.659   1
   4  -2  -1 4368.41 178.290   1
  -4  -2   1 4560.73 153.248   1
   4  -2  -1 3981.09 172.187   1
  -4  -2   1 4597.39 164.127   1
  -4   2   1 3609.10 159.568   1
  -4  -2   1 4591.42 153.961   1
   4   2  -1 4728.70 163.578   1
   4  -2  -1 3976.66 151.109   1
  -4   2   3 12608.6 401.588   1
   4  -2  -3 12188.0 380.681   1
   4  -2  -3 12137.4 394.408   1
   4  -2  -3 11839.9 379.186   1
   4   2  -3 13960.8 440.726   1
  -4  -2   3 13515.4 427.814   1
  -4   2   3 12488.3 384.986   1
   4  -2  -3 12212.3 379.268   1
   4   2  -3 13844.7 418.814   1
   4   2  -3 13567.0 412.068   1
  -4   2   3 12985.4 401.846   1
  -4  -2   3 13336.8 425.658   1
  -4  -2   3 13064.9 400.638   1
  -2   0   7 20.9060 36.3508   1
  -2   0   7 -9.4111 28.9516   1
  -2   0   7 14.2068 33.5455   1
   2   0  -7 3.20578 33.9606   1
   2   0  -7 0.83188 27.0898   1
  -3  -2  -2 30415.4 924.953   1
  -3  -2  -2 30073.7 918.617   1
   3   2   2 30671.9 928.501   1
   3   2   2 31082.2 952.440   1
   3  -2   2 30099.6 965.734   1
   3  -2   2 30354.1 957.309   1
   3  -2   2 29591.4 940.073   1
  -3   2  -2 28729.5 925.635   1
  -3   2  -2 28676.4 914.841   1
   0  -3   0 70.4584 49.7083   1
   0   3   0 69.6812 42.1808   1
   0   3   0 153.527 53.6492   1
   0   3   0 106.034 59.1843   1
   0  -3   0 77.0473 42.6175   1
   0  -3   0 119.323 51.2741   1
   1   0   6 121.351 43.0856   1
   1   0   6 96.0542 37.8896   1
   1   0   6 111.526 40.5065   1
  -1   0  -6 75.9278 33.0511   1
   4  -1  -6 1785.00 99.3338   1
   4   1  -6 1420.11 79.2447   1
   4   1  -6 1272.58 93.9985   1
   4  -1  -6 1984.48 83.5241   1
   4  -1  -6 1738.55 86.2409   1
   4   1  -6 1415.57 82.0289   1
  -4  -1   6 1662.26 98.4613   1
  -4  -1   6 1445.20 98.6800   1
  -4  -1   6 1526.44 84.8385   1
  -4   1   6 1814.43 88.7772   1
  -4   1   6 1712.07 97.0291   1
   3   0  -7 446.908 57.8560   1
   3   0  -7 461.263 48.9076   1
  -3   0   7 476.909 51.0462   1
  -3   0   7 316.230 66.2113   1
  -3   0   7 531.962 58.6494   1
   5   1   0 47.0270 39.3428   1
   5   1   0 39.6594 54.8577   1
   5  -1   0 104.065 54.3248   1
  -5   1   0 101.729 42.1129   1
  -5   1   0 63.3837 50.6566   1
  -5   1   0 77.7991 45.1162   1
  -5  -1   0 31.3323 37.4246   1
   5  -1   0 72.0106 40.9008   1
  -5  -1   0 10.7441 41.9011   1
   5   1   0 8.23181 39.8564   1
  -5  -1   0 10.2113 47.9900   1
   5  -1   0 122.800 50.6291   1
   0   3  -1 1086.96 73.1084   1
   0  -3  -1 963.124 66.1150   1
   0  -3  -1 889.970 72.8342   1
   0  -3  -1 1010.19 80.2491   1
   0   3  -1 914.146 91.5529   1
   0  -3  -1 1019.58 52.3526   1
   0   3   1 845.657 86.1881   1
   0   3  -1 1000.42 85.4987   1
   0   3   1 1112.04 89.2372   1
   0  -3   1 997.463 77.1740   1
   0   3   1 879.416 73.0701   1
   0  -3   1 1102.59 73.9496   1
   0  -3   1 993.126 88.6379   1
  -4   2   0 3850.93 166.253   1
  -4  -2   0 3672.86 136.965   1
  -4  -2   0 3878.50 155.788   1
   4  -2   0 3886.85 164.836   1
   4  -2   0 3926.69 148.094   1
   4  -2   0 4189.19 160.234   1
   4   2   0 3766.89 153.170   1
   4   2   0 3905.14 140.251   1
   4   2   0 4127.47 146.150   1
   4  -2   0 3754.42 172.152   1
  -4   2   0 3699.38 152.305   1
  -4  -2   0 4062.84 146.274   1
  -4   2   0 3718.86 141.299   1
   0  -2   5 1305.09 88.2714   1
   0   2  -5 1281.64 88.8765   1
   0   2  -5 1455.61 76.8282   1
   0  -2   5 1494.39 80.8331   1
   0  -2   5 1247.56 93.5586   1
   0  -2   5 1404.70 80.0337   1
   0   2   5 1270.71 60.2324   1
   0   2  -5 1416.62 69.2730   1
   0   2  -5 1354.59 89.5509   1
   0   2   5 1265.57 62.3678   1
  -1   0   7 27935.3 862.298   1
  -1   0   7 28422.2 855.253   1
   1   0  -7 27853.0 841.679   1
   1   0  -7 28415.8 849.640   1
  -1   0   7 29103.8 872.107   1
   3   2  -5 18514.0 574.166   1
   3   2  -5 19640.3 612.544   1
   3  -2  -5 19359.0 588.018   1
   3  -2  -5 19346.6 588.733   1
   3   2  -5 18355.6 591.522   1
  -3   2   5 19833.5 601.242   1
   3   2  -5 18767.0 581.241   1
   3  -2  -5 19062.8 579.734   1
  -3   2   5 19236.4 585.150   1
  -3  -2   5 19728.6 612.730   1
  -3  -2   5 19080.9 601.793   1
  -3  -2   5 16825.9 546.275   1
  -3   2   5 19780.4 600.340   1
  -3   2   5 19407.9 578.220   1
   1  -3   0 5299.12 194.228   1
   1  -3   0 5680.96 212.430   1
   1  -3   0 5167.11 185.032   1
   1   3   0 5806.89 222.588   1
   1   3   0 5515.47 181.521   1
  -1  -3   0 5639.49 186.208   1
  -1  -3   0 5634.85 197.404   1
  -1   3   0 5651.04 194.133   1
  -1   3   0 5426.27 213.633   1
  -1   3   0 5357.35 204.795   1
  -1   3   1 12066.8 385.416   1
   1  -3  -1 12109.1 392.599   1
  -1   3   1 11912.2 389.858   1
  -1  -3   1 12674.3 404.746   1
   1  -3  -1 11952.2 401.780   1
   1  -3  -1 11867.9 366.156   1
  -1  -3   1 12061.3 375.562   1
  -1   3   1 12571.2 387.336   1
   1   3  -1 12207.9 404.654   1
   1   3  -1 12601.4 388.391   1
  -5   0  -1 8959.22 249.583   1
  -5   0  -1 9091.54 298.971   1
  -5   0  -1 8958.68 283.728   1
  -5   0  -1 8832.69 291.960   1
   5   0   1 8991.01 297.109   1
   5   0   1 8878.82 302.054   1
   5   0   1 9330.19 289.282   1
   4   0   3 32.0043 32.9402   1
   4   0   3 17.5883 44.0406   1
  -4   0  -3 -43.077 32.9896   1
  -4   0  -3 -27.857 29.2608   1
   4   0   3 56.5932 33.6806   1
  -4  -2   4 88.5830 51.8828   1
   4   2  -4 2.50070 38.9347   1
   4  -2  -4 72.7501 43.0950   1
   4  -2  -4 18.7710 45.5536   1
   4  -2  -4 85.5157 40.0197   1
   4   2  -4 7.90125 40.2251   1
   4   2  -4 -4.4521 54.1459   1
   4  -2  -4 56.6209 45.3168   1
  -4   2   4 37.8238 38.4205   1
  -4   2   4 74.8775 39.2454   1
  -4  -2   4 87.0885 51.2045   1
  -4  -2   4 7.21322 40.7789   1
  -4   2   4 23.7698 48.8823   1
  -4   2   4 82.1219 43.7130   1
  -2   1  -5 33453.7 1050.96   1
   2  -1   5 34405.7 1077.91   1
   2   1   5 32359.6 939.928   1
   2  -1   5 33878.0 1030.74   1
   2  -1   5 33939.7 1057.39   1
   2   1   5 31946.5 929.984   1
  -2  -1  -5 32451.0 948.097   1
  -2   1  -5 33593.6 1048.57   1
  -2   1  -5 34136.6 1032.75   1
  -5   1   5 29694.2 926.154   1
   5   1  -5 28452.7 899.964   1
   5  -1  -5 28580.0 907.305   1
  -5  -1   5 29385.2 927.159   1
  -5   1   5 30688.9 963.761   1
  -5  -1   5 27586.5 880.246   1
  -5   1   5 30580.7 956.668   1
  -5  -1   5 28477.0 912.394   1
   5  -1  -5 27636.5 865.355   1
   5   1  -5 28435.8 889.370   1
   5   1  -5 28778.7 924.450   1
  -3   1  -4 8223.67 228.009   1
  -3  -1  -4 7115.26 214.000   1
  -3   1  -4 8089.93 262.558   1
  -3   1  -4 8023.48 254.724   1
   3   1   4 7156.39 216.056   1
   3  -1   4 8312.96 271.996   1
   3  -1   4 8294.97 258.211   1
   3   1   4 7481.28 219.839   1
   1  -3   1 3674.11 164.254   1
   1   3   1 4079.58 147.333   1
   1   3   1 4106.89 163.726   1
  -1  -3  -1 4117.83 152.323   1
  -1  -3  -1 4255.46 153.740   1
  -1   3  -1 3952.27 155.632   1
  -1  -3  -1 4158.66 104.700   1
  -1   3  -1 3860.35 172.591   1
  -1   3  -1 3726.61 163.852   1
   1  -3   1 3685.41 151.023   1
   1  -3   1 3691.26 149.175   1
   1   3   1 4110.21 173.792   1
  -1   3   2 547.159 75.9867   1
  -1   3   2 424.825 52.8594   1
  -1   3   2 579.020 74.7718   1
  -1  -3   2 674.986 81.8357   1
  -1  -3   2 846.786 67.1497   1
   1   3  -2 541.582 78.2157   1
   1  -3  -2 452.649 63.1561   1
   1  -3  -2 702.100 46.2501   1
   1  -3  -2 575.912 68.9328   1
   1   3  -2 617.664 84.0145   1
   1  -3  -2 434.995 77.5967   1
   1   3  -2 683.605 63.8946   1
  -1  -3   2 775.346 67.3070   1
   0  -3  -2 296.500 58.3481   1
   0   3   2 328.387 57.7910   1
   0  -3  -2 297.452 49.6469   1
   0   3  -2 119.761 66.3904   1
   0  -3   2 107.279 52.5786   1
   0   3  -2 62.7028 50.7567   1
   0   3  -2 126.429 61.8294   1
   0  -3   2 88.8304 53.0750   1
   0   3   2 336.644 64.1788   1
   0   3   2 240.629 48.0113   1
   0  -3   2 88.6253 64.6611   1
  -2  -1   7 5442.42 184.759   1
  -2  -1   7 5472.96 191.496   1
  -2   1   7 5375.19 168.996   1
  -2  -1   7 5420.49 192.445   1
  -2   1   7 5644.68 177.914   1
  -2   1   7 5389.55 167.150   1
   2  -1  -7 5157.10 160.619   1
   2   1  -7 5350.70 198.881   1
  -2  -1   7 5351.72 164.000   1
   2   1  -7 5259.04 181.123   1
   2   1  -7 5449.43 180.401   1
   2  -1  -7 5380.07 168.387   1
  -5   0   6 19.2677 51.1871   1
  -5   0   6 79.9664 42.2396   1
  -5   0   6 99.4347 56.3976   1
   5   0  -6 107.249 40.4641   1
   5   0  -6 52.4463 53.8630   1
   1  -1   6 35166.3 1104.41   1
   1  -1   6 34907.8 1074.68   1
   1  -1   6 34272.1 1073.36   1
  -1   1  -6 33900.4 1070.09   1
  -1   1  -6 34207.5 1068.57   1
  -1   1  -6 33826.1 1046.41   1
   4   0  -7 44.4895 36.1351   1
  -4   0   7 -14.973 46.6012   1
  -4   0   7 21.4778 35.9074   1
   4   0  -7 -9.3550 35.1888   1
  -2   3   1 145.399 70.2812   1
   2  -3  -1 242.654 53.7035   1
   2  -3  -1 286.823 66.7637   1
   2  -3  -1 273.292 47.8704   1
   2  -3  -1 90.5662 58.2207   1
   2   3  -1 369.726 50.7427   1
   2   3  -1 425.808 67.2650   1
   2   3  -1 363.680 72.5970   1
  -2   3   1 162.042 52.2288   1
  -2  -3   1 427.955 75.1689   1
  -2   3   1 165.623 64.3715   1
  -2  -3   1 346.006 51.3418   1
   6   0  -3 10.9477 49.2123   1
   6   0  -3 48.0331 38.2390   1
   6   0  -3 34.0663 50.0620   1
  -6   0   3 26.3961 40.9596   1
  -6   0   3 37.4426 49.8071   1
  -6   0   3 -23.923 40.3332   1
  -6   0   3 10.0937 37.7189   1
  -3   1   7 548.459 54.8642   1
   3  -1  -7 614.030 50.0547   1
   3   1  -7 743.042 66.5626   1
   3   1  -7 843.450 48.7665   1
  -3   1   7 664.882 47.7326   1
  -3   1   7 656.406 55.9079   1
  -3  -1   7 756.256 76.5825   1
   3   1  -7 677.425 81.3921   1
   3   1  -7 607.051 61.9775   1
   3  -1  -7 579.644 56.5736   1
  -3  -1   7 531.485 74.0106   1
  -3  -1   7 727.482 55.0330   1
   4  -2   1 34624.1 1115.96   1
   4  -2   1 33774.8 1090.72   1
   4   2   1 32789.9 1018.96   1
  -4  -2  -1 33491.9 1051.07   1
  -4  -2  -1 33422.6 1040.38   1
  -4  -2  -1 33766.1 1043.94   1
  -4   2  -1 32404.4 1055.42   1
  -4   2  -1 33706.6 1079.79   1
   4   2   1 33553.1 1048.39   1
   4   2   1 34009.0 1068.73   1
   4  -2   1 34572.3 1106.12   1
   4  -2   1 30411.1 988.629   1
  -2  -2  -4 9725.92 275.145   1
   2   2   4 9836.44 281.943   1
   2  -2   4 9243.94 296.500   1
  -2   2  -4 9640.71 294.357   1
  -2   2  -4 9009.94 289.844   1
  -2   2  -4 9036.79 325.026   1
   2  -2   4 9822.15 307.281   1
   2  -2   4 9612.48 318.488   1
   1  -1  -7 1563.27 67.5464   1
   1  -1  -7 1478.36 61.3249   1
  -1  -1   7 1847.44 92.7585   1
  -1  -1   7 2266.07 105.814   1
   1   1  -7 1877.65 84.7487   1
  -1  -1   7 1857.61 84.3313   1
  -1   1   7 1640.41 69.2412   1
  -1   1   7 1653.40 68.9108   1
   1   1  -7 1788.15 100.196   1
   1   1  -7 1866.98 92.0603   1
  -1  -1   7 1873.68 89.7378   1
  -6   0   2 24407.9 764.207   1
   6   0  -2 25378.2 785.953   1
  -6   0   2 23781.6 754.613   1
   6   0  -2 24530.4 777.032   1
   6   0  -2 24338.5 778.012   1
  -6   0   2 24205.9 771.104   1
  -6   0   2 23731.3 725.903   1
   2  -3   0 48116.1 1550.33   1
   2   3   0 50811.1 1685.79   1
   2  -3   0 45185.2 1517.89   1
   2   3   0 51819.7 1699.14   1
  -2  -3   0 50927.2 1667.50   1
  -2   3   0 46223.4 1532.66   1
  -2   3   0 40934.2 1392.41   1
  -2   3   0 46369.7 1551.43   1
  -2  -3   0 50104.2 1618.57   1
   2  -3   0 45761.5 1526.69   1
   2  -3   0 45877.5 1517.55   1
   2   3   0 50090.4 1628.25   1
   0   0   7 184.027 41.7822   1
   0   0   7 230.451 43.8105   1
   0   0   7 179.356 49.7531   1
   0   0  -7 189.222 38.5058   1
  -5  -1  -1 3028.60 117.418   1
   5   1   1 3041.47 115.795   1
   5   1   1 3106.48 107.045   1
   5   1   1 3198.07 130.095   1
   5  -1   1 2775.38 140.655   1
   5  -1   1 3029.63 134.413   1
   5  -1   1 2823.82 118.920   1
   5   1   1 3200.26 129.855   1
  -5   1  -1 2600.21 120.781   1
  -5   1  -1 2813.56 131.136   1
  -5  -1  -1 3032.36 125.980   1
  -5   1  -1 2821.03 129.108   1
  -5  -1  -1 3010.34 132.300   1
   2  -3  -2 1988.11 82.9484   1
  -2  -3   2 1865.98 99.8240   1
   2  -3  -2 2236.30 97.7526   1
  -2  -3   2 2138.69 117.143   1
   2   3  -2 2094.95 99.6804   1
  -2   3   2 2467.70 127.757   1
   2  -3  -2 2247.70 130.514   1
  -2   3   2 2139.17 98.3470   1
  -2   3   2 2188.18 110.365   1
   2  -3  -2 2297.65 110.824   1
   2   3  -2 1939.51 120.823   1
   2   3  -2 2215.43 120.037   1
   4   1   3 33605.6 1018.38   1
   4  -1   3 31879.2 1046.59   1
   4  -1   3 32594.5 1035.96   1
  -4   1  -3 33904.1 991.097   1
  -4  -1  -3 31634.2 971.986   1
   4   1   3 32857.3 1007.13   1
   4   1   3 31987.2 1024.61   1
   4  -1   3 32770.5 1037.11   1
  -4   1  -3 32938.6 1046.84   1
  -4   1  -3 31788.3 1021.30   1
  -4  -1  -3 33423.3 1015.99   1
  -6   0   4 7027.45 232.021   1
  -6   0   4 6773.15 242.526   1
   6   0  -4 6743.96 227.596   1
   6   0  -4 6472.64 238.760   1
  -6   0   4 7158.37 243.354   1
  -6   0   4 6391.92 222.153   1
   2  -2  -6 12167.0 361.079   1
  -2   2   6 12434.2 371.884   1
   2  -2  -6 12430.6 369.118   1
  -2   2   6 12067.9 362.598   1
  -2   2   6 12580.4 375.586   1
   2   2  -6 13268.9 411.409   1
  -2  -2   6 12734.4 411.586   1
   2   2  -6 11765.1 373.730   1
  -2  -2   6 12354.1 378.869   1
  -2  -2   6 12813.0 402.632   1
  -2  -2   6 12328.6 397.190   1
   2   2  -6 13091.8 395.026   1
   2   2  -6 12181.9 399.403   1
   1   3   2 1458.52 94.3822   1
   1   3   2 1486.14 107.883   1
   1  -3   2 2124.53 104.456   1
  -1   3  -2 2257.21 128.675   1
  -1   3  -2 1557.37 91.8879   1
  -1  -3  -2 1449.62 90.3953   1
  -1   3  -2 1765.78 116.760   1
   1  -3   2 1827.30 119.118   1
   1  -3   2 1820.01 102.165   1
   1   2   5 2084.17 71.2680   1
  -1   2  -5 2035.14 106.965   1
  -1   2  -5 2158.77 126.026   1
   1  -2   5 1970.99 97.3978   1
   1   2   5 2203.76 76.7858   1
   1  -2   5 2134.45 106.334   1
  -1  -2  -5 2053.13 73.7684   1
  -1   2  -5 2069.21 91.6708   1
  -1  -2  -5 2059.71 76.7941   1
   1  -2   5 1896.58 104.776   1
   3  -2   3 1350.85 95.8617   1
   3   2   3 1087.17 74.4404   1
  -3   2  -3 1317.56 93.8614   1
  -3   2  -3 1153.13 78.9880   1
  -3  -2  -3 1139.88 61.3844   1
  -3  -2  -3 1077.32 62.0750   1
   3  -2   3 1228.27 81.5488   1
   3   2   3 997.029 64.2502   1
   3  -2   3 1184.81 79.9919   1
   3   2   3 1032.22 71.2001   1
   4  -2  -5 2490.49 107.411   1
  -4   2   5 2837.85 124.006   1
   4   2  -5 2736.52 118.725   1
  -4  -2   5 3006.57 138.109   1
   4   2  -5 2770.61 116.104   1
  -4  -2   5 2722.42 120.531   1
  -4  -2   5 2557.34 130.822   1
   4  -2  -5 2703.24 118.509   1
   4   2  -5 2966.40 145.233   1
  -4   2   5 2646.22 109.205   1
  -4   2   5 2600.06 110.050   1
   4  -2  -5 2493.08 111.962   1
  -4   2   5 2691.04 128.992   1
  -1   3   3 71688.7 2440.90   1
  -1  -3   3 71229.8 2472.06   1
  -1   3   3 71935.9 2446.59   1
  -1  -3   3 75674.5 2595.65   1
  -1   3   3 73082.8 2531.21   1
  -1  -3   3 74733.2 2587.72   1
   1  -3  -3 72727.9 2484.25   1
   1  -3  -3 72476.9 2502.12   1
   1   3  -3 73726.9 2546.50   1
   1   3  -3 72020.3 2486.12   1
   1   3  -3 70144.7 2426.99   1
   1  -3  -3 72147.0 2457.14   1
   1   3  -3 69918.7 2440.20   1
  -1   3   3 72335.3 2351.87   1
   1  -2  -6 42101.1 1310.30   1
  -1   2   6 40108.3 1288.30   1
  -1   2   6 42450.4 1315.60   1
  -1   2   6 43272.9 1344.50   1
   1   2  -6 43585.5 1395.52   1
   1   2  -6 44763.9 1443.05   1
   1   2  -6 43464.2 1392.98   1
  -1  -2   6 41657.4 1357.23   1
  -1  -2   6 43800.6 1393.36   1
  -1  -2   6 44092.1 1442.83   1
  -1  -2   6 43423.0 1408.18   1
   1   2  -6 42609.6 1414.32   1
  -6   0   1 27.3708 37.8514   1
  -6   0   1 25.4016 40.5854   1
   6   0  -1 17.4710 35.6322   1
   6   0  -1 -17.697 56.3809   1
   6   0  -1 -23.527 49.8427   1
  -6   0   1 27.5611 47.5999   1
  -6   0   1 39.0874 30.6642   1
   0  -3   3 5327.23 206.011   1
   0   3   3 4020.97 158.726   1
   0  -3   3 5711.54 195.995   1
   0  -3  -3 3969.24 157.259   1
   0   3  -3 5182.23 199.199   1
   0   3  -3 5223.94 185.755   1
   0   3  -3 5246.50 208.301   1
   0   3   3 4037.21 171.977   1
   0  -3   3 4795.70 182.806   1
   2  -3   1 86450.3 3085.83   1
   2  -3   1 85042.0 3015.43   1
   2   3   1 88875.9 3086.53   1
  -2   3  -1 85108.0 3021.46   1
  -2  -3  -1 91052.7 3180.52   1
  -2  -3  -1 91960.9 3073.94   1
   2  -3   1 87067.2 3088.62   1
   2   3   1 90742.5 3173.83   1
  -2  -3  -1 87726.4 3055.58   1
  -2   3  -1 86418.6 3079.70   1
  -2   3  -1 80036.6 2859.92   1
   5   1  -6 6163.55 209.409   1
   5   1  -6 6044.40 207.062   1
   5  -1  -6 5582.42 206.409   1
   5  -1  -6 5980.92 193.452   1
   5  -1  -6 5537.85 199.489   1
  -5  -1   6 6452.65 219.091   1
  -5   1   6 5773.54 202.236   1
  -5   1   6 6116.10 214.310   1
   5   1  -6 7651.19 260.023   1
  -5  -1   6 6466.75 226.576   1
  -5   1   6 5597.49 190.101   1
  -5  -1   6 6216.10 230.018   1
   5   0   2 20.8457 53.4551   1
  -5   0  -2 57.7438 48.5215   1
   5   0   2 94.9692 39.6160   1
   5   0   2 24.0280 47.6427   1
  -3   2   6 20253.4 615.236   1
   3  -2  -6 20068.0 617.487   1
   3  -2  -6 19779.7 605.342   1
  -3   2   6 20100.2 608.388   1
  -3   2   6 19963.5 611.567   1
   3  -2  -6 20082.3 608.363   1
   3   2  -6 19924.8 621.198   1
  -3  -2   6 18917.8 597.719   1
   3   2  -6 19877.0 640.939   1
  -3  -2   6 19741.8 631.046   1
  -3  -2   6 19271.2 619.299   1
   3   2  -6 19392.0 614.686   1
   3   2  -6 19027.3 589.628   1
  -2   3   3 3007.78 135.953   1
  -2  -3   3 2103.22 127.957   1
  -2   3   3 2589.80 97.7441   1
  -2   3   3 2919.93 135.154   1
  -2   3   3 2943.13 123.992   1
   2  -3  -3 2814.29 110.765   1
   2  -3  -3 2980.71 127.540   1
   2  -3  -3 3126.16 144.065   1
   2   3  -3 2089.69 126.932   1
   5   2  -2 20774.8 658.315   1
   5   2  -2 20750.3 645.017   1
   5   2  -2 21024.5 645.354   1
  -5  -2   2 20479.6 653.763   1
  -5  -2   2 21279.0 656.207   1
  -5  -2   2 20598.5 646.045   1
   5  -2  -2 22572.3 708.116   1
   5  -2  -2 22087.8 697.579   1
   5  -2  -2 21147.9 674.341   1
   5  -2  -2 21941.8 706.154   1
  -5   2   2 23467.8 744.880   1
  -5   2   2 23017.0 723.476   1
  -5   2   2 21885.3 682.405   1
   4   1  -7 142.440 31.9429   1
  -4   1   7 151.179 50.7020   1
   4   1  -7 247.627 57.9932   1
   4  -1  -7 130.373 38.9799   1
   4  -1  -7 139.157 52.4807   1
   4   1  -7 218.667 48.0482   1
  -4  -1   7 216.837 60.3321   1
   4   1  -7 207.162 48.4592   1
  -4  -1   7 360.446 59.7398   1
  -4  -1   7 166.784 44.9487   1
  -4   1   7 112.060 43.7000   1
   3   0   5 3835.41 123.781   1
  -3   0  -5 3921.47 141.270   1
  -3   0  -5 4133.47 147.468   1
   3   0   5 4071.27 139.799   1
   5   2  -3 42065.7 1368.79   1
  -5  -2   3 42729.5 1389.66   1
  -5  -2   3 42364.6 1395.91   1
   5   2  -3 41954.2 1359.38   1
  -5  -2   3 41206.6 1349.08   1
  -5  -2   3 41264.4 1349.10   1
   5   2  -3 43740.2 1433.51   1
   5  -2  -3 44594.0 1446.81   1
   5  -2  -3 43282.2 1423.25   1
  -5   2   3 43699.0 1437.89   1
  -5   2   3 43806.6 1437.39   1
   5  -2  -3 42424.5 1399.27   1
  -5   2   3 42235.8 1368.66   1
   5  -2  -3 43353.3 1423.52   1
  -6   1   3 3282.28 133.884   1
  -6   1   3 3385.58 153.857   1
  -6  -1   3 3337.53 146.249   1
  -6  -1   3 3240.52 138.970   1
  -6  -1   3 3204.39 132.750   1
  -6   1   3 3265.24 136.393   1
   6  -1  -3 3326.97 152.348   1
   6   1  -3 3379.10 131.705   1
   6   1  -3 3327.12 144.624   1
   6  -1  -3 3033.94 129.096   1
   6   1  -3 3059.45 122.263   1
   6  -1  -3 3399.11 153.051   1
  -6  -1   3 3047.21 125.759   1
  -6   0   5 -3.9981 49.0070   1
  -6   0   5 19.9410 37.3023   1
  -6   0   5 9.69786 41.7338   1
   6   0  -5 -13.267 45.5634   1
   6   0  -5 -9.0499 32.8192   1
  -6   0   5 16.6592 34.2570   1
   2   0   6 125565. 4529.83   1
   2   0   6 129283. 4670.81   1
   2   0   6 127153. 4579.91   1
  -2   0  -6 125900. 4539.91   1
   6   1  -2 97.7446 35.6788   1
   6   1  -2 4.34812 48.8434   1
   6   1  -2 171.732 41.0079   1
   6  -1  -2 28.5887 57.7948   1
   6  -1  -2 19.8426 41.4888   1
   6  -1  -2 -31.331 54.0307   1
  -6   1   2 43.6479 43.9508   1
  -6  -1   2 62.5149 42.2033   1
  -6  -1   2 23.8343 43.9321   1
  -6  -1   2 -2.3499 49.4778   1
  -6   1   2 30.5319 53.2879   1
   6   1  -2 105.676 61.6704   1
  -6   1   2 -19.809 41.2182   1
  -6  -1   2 38.4893 43.3270   1
   0   1   7 14890.1 385.077   1
   0   1   7 14745.5 392.625   1
   0  -1   7 14337.9 442.417   1
   0  -1   7 14844.1 454.700   1
   0  -1   7 14716.0 445.712   1
   0  -1  -7 14219.0 371.394   1
   0   1  -7 13982.8 423.602   1
   0   1  -7 13962.6 434.056   1
   0   1  -7 14339.0 434.810   1
  -5  -2   1 20965.1 645.203   1
   5   2  -1 21943.6 674.827   1
   5   2  -1 21968.9 671.020   1
   5   2  -1 21148.0 647.390   1
   5   2  -1 21553.6 669.474   1
  -5  -2   1 21502.7 684.528   1
  -5  -2   1 21218.0 653.672   1
   5  -2  -1 20860.5 662.905   1
   5  -2  -1 20769.2 664.263   1
   5  -2  -1 19209.0 616.450   1
  -5   2   1 21754.2 686.853   1
  -5   2   1 21467.0 694.691   1
  -5   2   1 21106.0 675.298   1
   6   1  -4 2917.72 141.864   1
  -6  -1   4 2876.57 124.780   1
  -6   1   4 3263.19 130.841   1
  -6   1   4 3058.63 130.940   1
  -6  -1   4 3004.06 130.478   1
  -6  -1   4 2854.67 126.319   1
  -6  -1   4 2783.69 141.062   1
  -6   1   4 3173.84 146.884   1
   6   1  -4 2749.69 120.831   1
   6  -1  -4 3218.23 149.432   1
   6  -1  -4 3398.26 134.337   1
   6   1  -4 3000.31 125.775   1
   6  -1  -4 3151.14 153.493   1
   3  -3  -1 12365.0 407.079   1
   3   3  -1 16545.6 530.210   1
   3  -3  -1 13055.7 446.253   1
  -3   3   1 13198.7 443.741   1
   3  -3  -1 12767.8 425.166   1
  -3   3   1 12711.6 429.359   1
  -3   3   1 13054.9 426.280   1
  -3  -3   1 15308.0 468.114   1
  -3  -3   1 15544.2 486.363   1
   3  -3  -1 12895.8 408.445   1
   3   3  -1 15256.3 463.817   1
   0   2   6 11204.9 310.578   1
   0  -2  -6 11063.0 308.458   1
   0   2   6 11085.6 305.690   1
   0  -2   6 11095.8 357.062   1
   0  -2   6 12306.0 391.121   1
   0  -2   6 11695.6 365.665   1
   0   2  -6 11590.4 362.500   1
   0   2  -6 11763.7 366.798   1
   0   2  -6 11593.1 389.235   1
   0  -2   6 11960.6 368.327   1
   3   3  -2 3618.10 140.343   1
   3  -3  -2 2272.36 121.330   1
  -3   3   2 2840.37 115.228   1
  -3   3   2 2587.07 119.363   1
   3  -3  -2 2532.27 116.586   1
   3   3  -2 3539.58 132.896   1
  -3   3   2 2310.40 134.295   1
   3  -3  -2 2884.87 126.525   1
   3  -3  -2 2558.52 133.102   1
   3   3  -2 3588.77 153.966   1
  -3  -3   2 3453.73 135.259   1
  -3   3   2 2463.06 132.110   1
  -3  -3   2 3656.72 154.542   1
   4  -2   2 18047.2 589.587   1
  -4   2  -2 18515.9 590.216   1
  -4  -2  -2 19016.0 586.726   1
  -4  -2  -2 18337.6 555.001   1
  -4  -2  -2 18189.5 549.479   1
  -4   2  -2 18473.4 594.021   1
   4  -2   2 18850.6 593.105   1
   4  -2   2 18234.7 586.309   1
   4   2   2 18735.9 574.086   1
   4   2   2 17825.2 529.367   1
   4   2   2 18540.3 570.979   1
   5   2  -4 8219.89 268.260   1
  -5  -2   4 8177.49 286.103   1
  -5  -2   4 8243.31 294.952   1
  -5  -2   4 8676.91 288.063   1
   5   2  -4 8071.38 287.961   1
   5  -2  -4 9319.19 293.920   1
   5  -2  -4 8709.33 290.268   1
   5  -2  -4 8723.93 297.769   1
   5  -2  -4 8601.43 299.053   1
  -5   2   4 8706.54 286.350   1
  -5   2   4 9257.60 298.282   1
  -5   2   4 9419.96 309.380   1
   2   0  -8 69.9593 43.6825   1
  -2   0   8 75.0354 36.9278   1
  -2   0   8 18.4167 42.7691   1
  -2   0   8 144.772 47.1558   1
   2   0  -8 56.9477 36.4855   1
   5   0  -7 91298.4 3223.52   1
   5   0  -7 91365.5 3230.65   1
  -5   0   7 91549.8 3262.29   1
  -5   0   7 92109.0 3250.49   1
  -5   0   7 95147.7 3354.72   1
   4   0   4 33530.3 1093.75   1
  -4   0  -4 34147.9 1073.62   1
  -4   0  -4 34196.1 1068.23   1
   4   0   4 34258.7 1070.32   1
   4   0   4 34559.2 1083.45   1
  -3   0   8 6.82024 37.2705   1
   3   0  -8 3.96729 30.4126   1
  -3   0   8 23.4422 44.3119   1
  -3   0   8 2.92041 32.0010   1
   3   0  -8 49.2383 38.2879   1
  -6   0   0 20103.9 624.281   1
  -6   0   0 20177.9 642.855   1
   6   0   0 20128.9 622.385   1
  -6   0   0 20125.6 632.007   1
   6   0   0 21161.6 679.714   1
   6   0   0 20248.4 636.840   1
   1  -3   3 18011.7 570.551   1
  -1   3  -3 17800.4 566.160   1
   1   3   3 17447.7 530.083   1
   1   3   3 16856.4 506.344   1
   1  -3   3 18144.1 587.499   1
  -1  -3  -3 16666.8 519.850   1
  -1   3  -3 17996.3 589.191   1
  -1  -3  -3 16661.7 513.137   1
  -1   3  -3 17980.8 583.621   1
   6   1  -1 8335.01 254.666   1
  -6   1   1 8203.53 278.484   1
  -6  -1   1 8294.29 284.516   1
   6  -1  -1 8852.75 284.930   1
  -6  -1   1 7797.10 278.088   1
  -6  -1   1 8073.76 271.726   1
  -6   1   1 8047.03 269.168   1
  -6  -1   1 8628.31 265.306   1
   6  -1  -1 8936.04 305.127   1
   6  -1  -1 8358.81 294.858   1
   6   1  -1 7988.92 255.447   1
  -6   1   1 8302.18 290.028   1
   6   1  -1 7969.29 282.994   1
   6   1  -1 8153.00 274.516   1
  -1   3   4 414.595 53.5328   1
   1  -3  -4 352.421 51.9712   1
   1  -3  -4 502.478 61.8869   1
  -1   3   4 561.705 42.6482   1
  -1   3   4 319.456 60.8406   1
  -1   3   4 609.350 71.2937   1
   1   3  -4 509.839 63.3571   1
  -1  -3   4 514.771 83.3115   1
  -1  -3   4 562.445 60.1273   1
   1   3  -4 432.281 65.8063   1
   1   3  -4 587.476 73.9057   1
   1   3  -4 476.133 87.8044   1
  -1  -3   4 628.601 65.9439   1
  -2   3  -2 4135.82 169.335   1
  -2  -3  -2 4618.87 158.601   1
  -2   3  -2 4461.05 197.158   1
   2   3   2 4987.70 180.408   1
   2  -3   2 4036.48 165.427   1
   2   3   2 4902.50 163.322   1
   2  -3   2 3855.96 183.815   1
   2  -3   2 4236.77 166.223   1
  -2  -3  -2 4912.64 179.788   1
  -2   3  -2 4160.51 185.344   1
  -3   3   0 8240.50 284.068   1
   3  -3   0 8961.69 306.688   1
   3  -3   0 7708.07 270.017   1
   3  -3   0 8819.19 295.009   1
  -3   3   0 8642.07 307.633   1
  -3   3   0 7928.24 293.626   1
   3  -3   0 7855.55 296.626   1
   5   1   2 18807.7 591.134   1
   5  -1   2 18960.1 593.085   1
   5   1   2 19056.3 574.486   1
   5   1   2 18904.4 547.421   1
   5  -1   2 19413.4 631.333   1
   5  -1   2 19358.2 612.210   1
   5   1   2 18860.5 576.074   1
  -5   1  -2 19646.5 611.054   1
  -5   1  -2 19299.4 622.998   1
  -5  -1  -2 19592.3 622.188   1
  -5  -1  -2 18517.3 568.010   1
  -5  -1  -2 18501.9 561.394   1
   1   0   7 72295.5 2404.16   1
   1   0   7 74412.6 2481.94   1
   1   0   7 70698.4 2387.49   1
  -1   0  -7 71688.1 2389.02   1
  -3   3   3 213.422 43.5234   1
   3   3  -3 187.136 47.8662   1
  -3   3   3 166.471 63.7091   1
   3  -3  -3 145.855 50.2377   1
  -3  -3   3 127.183 52.5082   1
   3  -3  -3 219.328 49.0250   1
   3   3  -3 244.533 69.5113   1
   3  -3  -3 225.888 58.7412   1
   3   3  -3 145.136 53.0703   1
   3  -3  -3 188.743 53.9240   1
  -3  -3   3 137.867 66.5897   1
  -3   3   3 103.257 56.3669   1
   3   3  -3 130.851 64.5444   1
  -3   3   3 188.883 49.9153   1
  -2   3   4 4691.00 198.472   1
  -2   3   4 5004.28 188.616   1
  -2   3   4 5214.28 165.752   1
  -2   3   4 4778.09 174.954   1
   2  -3  -4 5244.20 197.251   1
   2  -3  -4 4492.34 168.610   1
   2  -3  -4 4895.06 181.841   1
  -2  -3   4 5725.68 203.004   1
  -2  -3   4 5514.81 216.827   1
   2   3  -4 5196.92 188.711   1
   2   3  -4 6207.60 215.064   1
   2   3  -4 5974.38 227.557   1
   2   3  -4 6196.84 233.089   1
   3   1   5 6780.87 203.132   1
   3   1   5 6976.82 204.661   1
   3  -1   5 6292.99 224.547   1
   3  -1   5 6479.56 215.804   1
  -3  -1  -5 6251.50 179.194   1
  -3   1  -5 6464.24 223.743   1
  -3   1  -5 6593.83 192.516   1
  -3  -1  -5 6962.28 202.705   1
  -3   1  -5 6309.17 212.931   1
  -4   2   6 5165.94 182.111   1
  -4   2   6 5207.23 184.112   1
   4  -2  -6 4428.46 167.015   1
  -4   2   6 5034.45 191.574   1
  -4   2   6 4709.45 180.044   1
   4  -2  -6 4772.25 169.725   1
   4  -2  -6 4892.86 191.967   1
   4   2  -6 5353.56 192.554   1
   4   2  -6 5583.05 204.626   1
   4   2  -6 5489.59 219.598   1
  -4  -2   6 5707.95 201.148   1
  -4  -2   6 5747.10 217.647   1
  -4  -2   6 6054.57 225.417   1
   4   2  -6 5637.43 199.793   1
   5   2   0 65.4441 51.4247   1
   5   2   0 38.1961 47.8949   1
  -5  -2   0 83.9878 40.3356   1
   5   2   0 136.415 39.6962   1
   5   2   0 14.8473 40.8684   1
  -5  -2   0 43.0362 43.6930   1
  -5  -2   0 19.9161 50.9361   1
  -5   2   0 79.5260 45.8756   1
  -5   2   0 43.3122 47.9962   1
  -5   2   0 79.2059 57.1579   1
   5  -2   0 21.7516 58.3166   1
   5  -2   0 113.662 58.3199   1
   5  -2   0 87.4027 49.4810   1
   6  -1  -5 2517.45 115.050   1
   6  -1  -5 2660.63 141.183   1
   6   1  -5 3208.99 137.538   1
   6   1  -5 2988.23 129.016   1
   6   1  -5 3093.69 154.345   1
  -6   1   5 2443.37 115.263   1
  -6   1   5 2656.17 122.360   1
  -6  -1   5 3086.28 134.442   1
  -6  -1   5 2996.36 153.737   1
  -6   1   5 2790.19 136.373   1
  -6  -1   5 2627.34 124.564   1
   2  -1   6 8132.14 267.405   1
   2  -1   6 7821.26 247.298   1
   2  -1   6 7868.78 259.072   1
  -2   1  -6 7823.54 249.372   1
  -2   1  -6 7402.68 248.612   1
  -2   1  -6 7741.02 231.689   1
   1   0  -8 561.095 54.4288   1
   1   0  -8 329.457 47.7781   1
  -1   0   8 348.089 49.0540   1
  -1   0   8 237.952 68.2843   1
  -1   0   8 323.894 54.2445   1
  -6   0   6 30482.7 977.488   1
   6   0  -6 30797.0 998.880   1
   6   0  -6 29559.0 950.387   1
  -6   0   6 32173.2 1034.33   1
  -6   0   6 32032.5 1029.75   1
  -6   0   6 30620.6 989.306   1
   0   3   4 21511.8 660.053   1
   0  -3  -4 21147.6 652.810   1
   0  -3  -4 21348.4 659.229   1
   0   3   4 21191.3 644.916   1
   0   3   4 20962.2 672.354   1
   0  -3   4 22019.4 704.520   1
   0  -3   4 21897.7 708.875   1
   0  -3   4 22137.3 709.227   1
   0   3  -4 21664.8 715.209   1
   0   3  -4 21453.2 681.463   1
   0   3  -4 21515.5 685.359   1
   0   3  -4 21224.6 696.013   1
  -4   0   8 2485.72 124.516   1
  -4   0   8 2097.33 97.9462   1
  -4   0   8 2136.61 111.404   1
   4   0  -8 2280.65 117.230   1
   4   0  -8 2107.10 95.7724   1
   2  -2   5 303.589 52.6787   1
   2   2   5 238.448 36.9148   1
   2  -2   5 377.936 62.8939   1
   2   2   5 266.207 34.3560   1
  -2   2  -5 229.421 59.6329   1
  -2   2  -5 261.941 45.1637   1
  -2  -2  -5 124.736 37.2377   1
  -2  -2  -5 258.639 33.2826   1
  -2   2  -5 347.702 64.3208   1
   2  -2   5 539.649 63.2271   1
   5   2  -5 12033.0 392.115   1
  -5   2   5 13164.2 420.395   1
   5  -2  -5 13023.9 437.874   1
   5  -2  -5 12400.2 395.494   1
   5   2  -5 13726.0 453.531   1
   5  -2  -5 13101.4 415.736   1
   5   2  -5 12895.8 411.265   1
  -5  -2   5 14097.7 462.390   1
  -5  -2   5 13488.6 432.597   1
  -5  -2   5 13583.3 445.546   1
  -5   2   5 13006.3 410.572   1
  -5   2   5 12513.1 398.459   1
   3  -2   4 5064.08 187.149   1
  -3   2  -4 5050.07 211.386   1
  -3   2  -4 5019.83 170.692   1
  -3   2  -4 4588.46 172.838   1
   3  -2   4 5281.89 197.080   1
   3  -2   4 4986.50 211.889   1
   2   1  -8 2357.86 118.004   1
  -2   1   8 2334.63 93.3575   1
   2   1  -8 2435.87 107.186   1
   2  -1  -8 2223.87 88.9869   1
   2   1  -8 2447.68 108.185   1
  -2   1   8 2167.99 92.4821   1
  -2   1   8 2279.97 95.6153   1
  -2  -1   8 2350.75 105.456   1
   2  -1  -8 2146.28 87.7391   1
  -2  -1   8 2335.14 90.0852   1
  -2  -1   8 2413.96 117.306   1
  -2  -1   8 2316.97 128.472   1
   5   1  -7 775.678 87.7181   1
  -5  -1   7 768.690 83.9163   1
   5   1  -7 755.121 72.1354   1
  -5   1   7 1244.60 80.5400   1
  -5  -1   7 789.020 70.0872   1
   5  -1  -7 1077.23 92.7142   1
   5  -1  -7 1055.66 67.3058   1
   5   1  -7 731.037 70.2170   1
  -5   1   7 1115.86 76.5817   1
  -5  -1   7 844.250 89.1688   1
   5  -1  -7 1215.18 70.1709   1
  -4   1  -4 901.223 84.9791   1
   4   1   4 591.941 84.6386   1
  -4   1  -4 852.731 43.9193   1
  -4   1  -4 775.232 69.2482   1
   4  -1   4 852.157 68.9521   1
   4   1   4 437.361 60.8751   1
  -4  -1  -4 494.505 54.2625   1
   4  -1   4 833.068 80.6740   1
   3   3   1 14690.3 464.796   1
   3  -3   1 12599.0 423.584   1
   3  -3   1 13997.4 477.651   1
   3   3   1 14680.3 448.523   1
   3  -3   1 12633.1 426.762   1
  -3   3  -1 13771.5 474.412   1
  -3   3  -1 14144.6 478.904   1
  -3  -3  -1 14640.6 465.031   1
  -3  -3  -1 14609.1 424.845   1
  -3   3  -1 13858.7 456.655   1
   3  -3   1 14020.0 463.292   1
  -3  -3  -1 14647.4 454.127   1
   3  -1  -8 631.550 58.5159   1
   3   1  -8 862.571 71.3541   1
  -3   1   8 690.964 49.4846   1
  -3  -1   8 892.316 71.1937   1
   3   1  -8 977.156 88.4300   1
  -3  -1   8 1045.86 83.6669   1
  -3   1   8 714.873 58.7072   1
  -3  -1   8 1005.94 71.7761   1
   3  -1  -8 702.144 67.3268   1
  -3   1   8 764.296 67.0232   1
   3   1  -8 812.631 67.4071   1
   6   1   0 34.9790 32.4877   1
   6   1   0 50.0601 42.5976   1
   6   1   0 63.6029 47.2271   1
   6  -1   0 12.1993 51.6886   1
  -6   1   0 15.2417 43.8058   1
   6  -1   0 55.8594 57.9274   1
   6   1   0 17.9825 52.5195   1
   6  -1   0 64.8181 40.8879   1
  -6  -1   0 75.0122 52.4746   1
  -6   1   0 104.139 47.3135   1
  -6  -1   0 -16.568 42.5236   1
  -6  -1   0 39.0167 42.8283   1
  -6   1   0 17.6925 51.6269   1
  -2   2   7 66819.2 2235.76   1
   2  -2  -7 68626.8 2265.99   1
  -2   2   7 70502.8 2325.91   1
   2  -2  -7 69464.8 2298.04   1
  -2   2   7 69196.6 2294.73   1
  -2  -2   7 66070.5 2261.48   1
  -2  -2   7 64688.9 2225.07   1
  -2  -2   7 65951.8 2207.83   1
   2   2  -7 65475.7 2239.47   1
   2   2  -7 66257.3 2267.61   1
   2   2  -7 63027.1 2172.20   1
  -2  -2   7 65932.8 2262.41   1
   2   2  -7 66115.2 2220.73   1
  -3   3   4 714.051 77.3909   1
   3  -3  -4 763.323 86.7832   1
  -3   3   4 674.591 72.5559   1
   3  -3  -4 717.419 69.2128   1
  -3   3   4 777.339 80.7821   1
  -3   3   4 810.849 60.9052   1
   3  -3  -4 836.270 64.5395   1
  -3  -3   4 851.002 94.5164   1
  -3  -3   4 804.914 76.8266   1
   3   3  -4 926.004 72.5859   1
   3   3  -4 901.389 85.0073   1
   3   3  -4 899.715 93.8020   1
   3   3  -4 813.226 74.9037   1
   5   0   3 5083.13 184.649   1
   5   0   3 5099.72 203.675   1
  -5   0  -3 4988.84 183.670   1
   5   0   3 4901.27 170.093   1
  -5   0  -3 5081.65 178.047   1
   1  -1   7 27773.4 873.615   1
   1  -1   7 27971.2 861.320   1
  -1   1  -7 27822.6 866.075   1
  -1   1  -7 28413.4 871.794   1
   1  -1   7 28079.8 873.749   1
  -1   1  -7 28096.6 894.152   1
   1  -2   6 4948.09 183.963   1
  -1   2  -6 4800.33 185.592   1
  -1   2  -6 5054.10 208.295   1
  -1   2  -6 5077.40 175.465   1
   1  -2   6 5205.03 186.650   1
   1  -2   6 4807.14 202.074   1
   1  -2   6 5205.75 195.133   1
  -6   0  -1 61.6583 43.4396   1
  -6   0  -1 51.6862 29.9088   1
   6   0   1 8.19325 43.0787   1
   6   0   1 28.0904 51.1546   1
  -6   0  -1 30.9921 35.0624   1
   6   0   1 -32.550 44.1266   1
  -6   0  -1 41.2328 47.5679   1
  -3   2   7 11600.6 351.483   1
  -3   2   7 11322.0 352.113   1
   3  -2  -7 11293.1 348.773   1
   3  -2  -7 11416.7 356.750   1
  -3   2   7 11687.2 365.959   1
   3   2  -7 11848.4 398.569   1
  -3  -2   7 12265.8 393.043   1
   3   2  -7 11503.9 370.295   1
   3   2  -7 11741.7 364.994   1
  -3  -2   7 11992.9 398.372   1
   3   2  -7 11287.3 367.332   1
  -3  -2   7 12115.2 397.815   1
  -1   1   8 1880.24 77.1705   1
  -1   1   8 1864.00 76.9120   1
   1  -1  -8 1847.23 73.7952   1
  -1  -1   8 2070.39 113.686   1
  -1  -1   8 2034.50 91.4097   1
   1  -1  -8 1915.95 76.5937   1
   1   1  -8 2162.05 104.257   1
   1   1  -8 2012.49 92.7001   1
  -1  -1   8 2050.57 99.3926   1
  -1  -1   8 1829.47 94.9008   1
   1   1  -8 1885.23 104.913   1
  -1   2   7 22206.3 646.607   1
  -1   2   7 21494.3 624.931   1
   1  -2  -7 21312.0 620.744   1
   1   2  -7 21447.8 686.337   1
   1   2  -7 20880.8 674.527   1
  -1  -2   7 21930.2 667.276   1
  -1  -2   7 20913.4 665.599   1
   1   2  -7 22084.9 676.495   1
   1   2  -7 22057.0 686.447   1
  -1  -2   7 20920.5 675.480   1
  -1  -2   7 21006.7 679.080   1
  -6   1   6 67578.1 2333.50   1
  -6   1   6 64607.4 2232.33   1
   6   1  -6 74153.6 2559.52   1
   6  -1  -6 65955.4 2273.49   1
  -6   1   6 67663.4 2340.57   1
  -6  -1   6 70658.8 2434.96   1
  -6  -1   6 69503.1 2397.45   1
  -6  -1   6 71604.4 2467.06   1
   6   1  -6 68880.7 2364.64   1
   6   1  -6 68788.6 2374.92   1
   6  -1  -6 66327.5 2304.62   1
   5   2   1 6513.55 204.236   1
   5   2   1 6145.23 199.522   1
  -5  -2  -1 5958.58 208.555   1
   5   2   1 6284.86 214.816   1
  -5  -2  -1 6245.04 210.940   1
  -5  -2  -1 6267.29 205.855   1
   5   2   1 6183.56 213.205   1
  -5   2  -1 5338.56 202.036   1
  -5   2  -1 5535.78 216.618   1
   5  -2   1 5811.51 223.017   1
   5  -2   1 5530.71 215.824   1
   5  -2   1 5108.29 195.465   1
  -2   3  -3 4602.47 190.482   1
  -2   3  -3 4438.25 170.124   1
  -2   3  -3 4338.02 189.702   1
  -2  -3  -3 3351.49 143.123   1
   2   3   3 3515.30 112.520   1
   2   3   3 3346.96 127.802   1
   2   3   3 3291.22 144.089   1
   2  -3   3 4677.54 193.041   1
   2  -3   3 4468.93 175.884   1
   2  -3   3 4546.21 173.959   1
   4   2   3 478.905 51.4169   1
  -4   2  -3 738.680 67.9627   1
  -4   2  -3 680.444 74.9846   1
  -4  -2  -3 494.895 61.1803   1
  -4  -2  -3 553.423 53.8682   1
   4  -2   3 851.320 97.6507   1
   4  -2   3 713.166 66.1416   1
   4   2   3 589.549 63.8853   1
   4  -2   3 752.560 91.9379   1
   4   2   3 568.778 72.6379   1
   0   0   8 13542.0 400.491   1
   0   0   8 12791.0 400.742   1
   0   0  -8 13304.6 393.883   1
   0   0   8 13378.1 393.243   1
  -1  -3  -4 44469.0 1412.69   1
   1   3   4 43821.7 1330.55   1
   1   3   4 45224.3 1438.42   1
  -1  -3  -4 44422.8 1416.93   1
   1   3   4 44334.4 1405.74   1
  -1   3  -4 41407.6 1388.17   1
  -1   3  -4 43618.8 1429.40   1
  -1   3  -4 43081.3 1441.97   1
  -1   3  -4 42098.7 1407.72   1
   1  -3   4 43733.1 1442.55   1
   1  -3   4 41845.3 1400.84   1
   1  -3   4 43674.6 1457.80   1
  -4  -1   8 23892.7 763.068   1
  -4  -1   8 22634.3 733.683   1
   4   1  -8 21930.4 706.838   1
   4   1  -8 22092.7 709.497   1
   4  -1  -8 23772.5 693.321   1
   4  -1  -8 23585.4 736.944   1
  -4  -1   8 22669.4 722.523   1
  -4   1   8 23043.6 712.504   1
   4   1  -8 22433.2 652.958   1
  -4   1   8 23157.4 707.500   1
   4  -1  -8 22930.4 703.310   1
  -4  -3   2 12898.1 449.243   1
  -4  -3   2 12650.3 412.807   1
   4   3  -2 12680.8 407.613   1
   4   3  -2 13330.2 441.019   1
   4   3  -2 12773.0 418.040   1
   4  -3  -2 14059.8 448.236   1
  -4   3   2 15423.4 496.936   1
  -4   3   2 14911.5 477.735   1
  -4   3   2 15771.4 510.366   1
  -4   3   2 14213.6 445.671   1
   4  -3  -2 14688.9 489.960   1
   4  -3  -2 14700.2 468.043   1
   4  -3  -2 14735.4 481.407   1
  -1   3   5 22544.4 687.610   1
  -1   3   5 23482.0 713.084   1
  -1   3   5 22746.1 731.659   1
   1  -3  -5 22239.9 686.803   1
   1  -3  -5 22505.6 687.438   1
   1   3  -5 21324.1 688.695   1
  -1  -3   5 21411.9 698.396   1
  -1  -3   5 21573.2 680.806   1
  -1  -3   5 21125.3 685.830   1
   1   3  -5 21209.8 703.651   1
   1   3  -5 21544.1 690.926   1
   1   3  -5 21257.8 697.649   1
   2  -3  -5 567.838 56.3201   1
   2  -3  -5 546.943 73.2620   1
  -2   3   5 558.811 78.2508   1
  -2   3   5 282.398 63.1906   1
  -2   3   5 558.865 57.9492   1
  -2   3   5 360.221 46.5871   1
   2  -3  -5 384.622 64.0788   1
   2   3  -5 370.682 80.4228   1
   2   3  -5 497.963 62.8024   1
   2   3  -5 461.267 63.4972   1
   2   3  -5 421.502 84.3525   1
  -2  -3   5 571.401 68.7239   1
  -2  -3   5 482.406 64.8363   1
  -2  -3   5 645.687 77.8716   1
   4   3  -1 30225.6 955.821   1
  -4  -3   1 31284.4 964.629   1
   4   3  -1 31129.4 1014.69   1
  -4  -3   1 30595.5 983.358   1
  -4  -3   1 30689.8 985.801   1
   4   3  -1 30973.0 988.958   1
   4  -3  -1 29361.4 958.503   1
   4  -3  -1 28772.1 933.935   1
   4  -3  -1 28583.7 949.743   1
   4  -3  -1 28158.3 935.643   1
  -4   3   1 28620.7 942.278   1
  -4   3   1 29988.0 986.397   1
  -4   3   1 29387.0 967.264   1
   4   3  -3 4480.06 189.149   1
   4   3  -3 4312.31 165.641   1
  -4  -3   3 4042.85 164.936   1
   4   3  -3 4176.77 169.621   1
  -4  -3   3 4141.26 183.245   1
   4  -3  -3 4809.41 177.606   1
  -4   3   3 5065.37 197.969   1
  -4   3   3 4577.20 164.446   1
  -4   3   3 4969.53 185.672   1
   4  -3  -3 4944.00 184.748   1
   4  -3  -3 5037.07 199.457   1
   4  -3  -3 4968.44 183.391   1
  -4   3   3 4791.85 190.751   1
   7   0  -3 13284.1 440.634   1
   7   0  -3 12986.5 428.935   1
  -7   0   3 13101.7 411.252   1
  -7   0   3 12705.0 419.694   1
  -7   0   3 13058.6 432.186   1
  -7   0   3 12394.6 405.036   1
   7   0  -3 12469.3 404.062   1
   5   0  -8 10.4702 33.4860   1
  -5   0   8 33.6218 34.5237   1
  -5   0   8 -58.180 50.6560   1
   5   0  -8 30.6236 52.2815   1
  -5   2   6 32073.9 1024.65   1
  -5   2   6 33874.9 1078.21   1
   5  -2  -6 32029.4 1032.57   1
   5  -2  -6 33462.5 1073.35   1
  -5   2   6 32077.7 1017.30   1
   5  -2  -6 33397.9 1058.88   1
   5   2  -6 31329.9 1041.06   1
   5   2  -6 31985.3 1037.06   1
  -5  -2   6 31590.4 1033.86   1
  -5  -2   6 31228.7 1021.38   1
  -5  -2   6 31135.1 1027.52   1
  -6   0   7 -1.5825 41.4699   1
   6   0  -7 7.87171 33.9592   1
   6   0  -7 11.2826 43.4248   1
  -6   0   7 20.9007 34.7490   1
  -6   0   7 -69.961 46.0298   1
   7   0  -4 25.6563 51.2770   1
   7   0  -4 109.832 54.7230   1
  -7   0   4 -31.893 52.5036   1
  -7   0   4 -31.845 45.6706   1
  -3  -3  -2 90904.8 3208.70   1
   3   3   2 91564.6 3212.88   1
   3   3   2 91123.4 3128.20   1
   3  -3   2 96376.2 3476.62   1
   3   3   2 89643.4 3159.19   1
  -3  -3  -2 90978.4 3219.42   1
   3  -3   2 99880.4 3585.16   1
  -3   3  -2 93795.6 3391.65   1
   5   1   3 10792.1 350.175   1
   5  -1   3 10043.2 357.175   1
   5  -1   3 10518.2 343.935   1
  -5   1  -3 10078.3 345.829   1
   5   1   3 11560.0 349.376   1
   5   1   3 11277.3 313.480   1
  -5  -1  -3 11158.2 341.946   1
  -5  -1  -3 10978.2 343.847   1
  -5   1  -3 10336.9 345.720   1
  -5   1  -3 10015.5 266.900   1
   5   1   3 11188.6 349.378   1
   5  -1   3 10488.5 354.155   1
   3   0   6 37.1185 37.7178   1
  -3   0  -6 20.9177 39.4578   1
  -3   0  -6 97.2796 43.1804   1
   3   0   6 150.083 41.5987   1
   4  -2  -7 57620.7 1925.32   1
   4  -2  -7 57949.5 1937.41   1
   4  -2  -7 56288.6 1881.23   1
  -4   2   7 56743.3 1887.95   1
  -4   2   7 55626.9 1871.10   1
  -4   2   7 57159.4 1908.04   1
   4   2  -7 61668.5 2043.05   1
   4   2  -7 59353.1 2030.22   1
   4   2  -7 59295.7 2016.44   1
  -4  -2   7 60169.5 2047.04   1
  -4  -2   7 62770.9 2123.18   1
  -4  -2   7 61940.5 2106.54   1
   7   0  -2 34.9715 54.4693   1
  -7   0   2 6.00940 41.9579   1
   7   0  -2 49.5093 56.9190   1
  -7   0   2 37.6247 51.5601   1
  -7   0   2 42.0480 45.5971   1
   7   0  -2 44.0984 40.3106   1
   6  -1   1 5130.60 213.721   1
   6   1   1 5924.29 198.785   1
   6  -1   1 5317.52 202.936   1
   6   1   1 6044.87 212.169   1
   6   1   1 5551.43 222.371   1
   6   1   1 5995.63 182.931   1
  -6   1  -1 5134.56 189.616   1
  -6  -1  -1 5706.53 206.108   1
  -6  -1  -1 5835.39 210.039   1
   6  -1   1 5070.61 203.395   1
  -6   1  -1 5270.47 203.214   1
  -6  -1  -1 5780.83 195.814   1
   6   2  -3 3058.83 138.685   1
  -6  -2   3 3158.38 138.687   1
  -6  -2   3 3593.18 141.663   1
  -6   2   3 3773.26 151.437   1
  -6   2   3 4474.23 182.235   1
  -6  -2   3 3392.93 156.555   1
   6   2  -3 3305.12 153.618   1
   6   2  -3 3252.84 137.894   1
   6  -2  -3 4449.44 178.883   1
  -6  -2   3 2975.90 179.783   1
   6  -2  -3 4037.96 176.714   1
   6  -2  -3 4136.43 159.624   1
  -4  -3   0 32741.2 1074.52   1
  -4  -3   0 32747.8 1065.06   1
  -4  -3   0 35531.1 1110.16   1
   4   3   0 32747.3 1075.24   1
   4   3   0 33554.4 1081.03   1
   4  -3   0 36866.5 1220.45   1
  -4   3   0 34122.0 1137.93   1
   4  -3   0 37263.1 1209.01   1
   0   3   5 8373.40 283.559   1
   0   3   5 8356.73 252.886   1
   0   3   5 8608.95 266.278   1
   0  -3  -5 8370.69 254.655   1
   0  -3  -5 8469.87 261.768   1
   0  -3   5 7774.57 271.769   1
   0  -3   5 7468.51 255.684   1
   0  -3   5 7598.08 282.853   1
   0   3  -5 7647.49 273.133   1
   0   3  -5 7614.24 259.133   1
   0   3  -5 7429.34 279.845   1
   0   3  -5 7656.28 264.456   1
   6   2  -2 39268.4 1280.16   1
   6   2  -2 41189.2 1346.63   1
  -6  -2   2 40553.2 1333.43   1
  -6  -2   2 40114.1 1333.38   1
  -6  -2   2 42280.8 1382.01   1
   6   2  -2 40716.3 1321.43   1
   6  -2  -2 41902.3 1395.46   1
   6  -2  -2 40690.5 1356.55   1
  -6   2   2 40093.7 1325.95   1
  -6   2   2 41558.7 1387.38   1
  -3   3   5 25785.7 833.693   1
  -3   3   5 25760.8 815.650   1
  -3   3   5 25908.1 821.626   1
  -3   3   5 25885.0 788.088   1
   3  -3  -5 25535.9 804.142   1
   3  -3  -5 25432.1 810.970   1
   3  -3  -5 26194.2 844.313   1
   3   3  -5 25829.9 840.761   1
   3   3  -5 25235.6 834.283   1
  -3  -3   5 26380.7 859.123   1
   0   2  -7 3782.91 153.860   1
   0   2  -7 4079.39 163.426   1
   0  -2   7 4086.89 172.207   1
   0   2  -7 4105.86 165.321   1
   0  -2   7 4058.35 176.976   1
   0  -2   7 4265.84 157.649   1
   0  -2   7 3932.65 164.853   1
  -2   0  -7 1735.33 92.0821   1
   2   0   7 1721.67 104.921   1
   2   0   7 1709.00 94.8528   1
  -4   0  -5 46.6344 45.0952   1
   4   0   5 34.4806 21.2384   1
   4   0   5 -0.3660 38.3091   1
   4   0   5 26.6485 45.3119   1
  -4   0  -5 70.2400 37.6342   1
   0   1  -8 53759.9 1796.54   1
   0   1  -8 55263.1 1839.73   1
   0  -1   8 55020.8 1828.93   1
   0  -1   8 54960.7 1833.31   1
   0   1   8 61812.3 1914.50   1
   0  -1   8 55847.7 1864.04   1
   0   1   8 60937.5 1903.54   1
   0  -1  -8 60511.2 1886.74   1
   0  -1  -8 61201.7 1897.02   1
   0   1  -8 56631.6 1886.85   1
   6  -2  -4 5745.39 218.658   1
   6  -2  -4 5971.81 229.407   1
  -6   2   4 5701.94 203.151   1
  -6  -2   4 4901.60 236.086   1
  -6  -2   4 5779.19 205.086   1
  -6  -2   4 5864.53 228.477   1
   6  -2  -4 5837.60 203.438   1
   6   2  -4 5798.24 221.217   1
  -6   2   4 6088.28 219.061   1
  -6   2   4 6507.55 236.766   1
   6   2  -4 5743.95 199.894   1
   7   0  -5 737.907 89.5314   1
  -7   0   5 568.725 90.1587   1
  -7   0   5 982.991 92.0665   1
  -4   3   4 1802.40 105.604   1
   4  -3  -4 1757.98 98.0490   1
   4  -3  -4 2059.72 102.662   1
   4  -3  -4 1951.26 113.288   1
  -4   3   4 1733.66 125.477   1
  -4   3   4 1683.38 86.4585   1
  -4   3   4 1910.94 100.347   1
   4  -3  -4 1921.71 124.640   1
  -4  -3   4 1344.69 112.581   1
   4   3  -4 1203.06 99.9608   1
   4   3  -4 1303.46 110.921   1
  -3   0   9 128.638 54.9822   1
  -3   0   9 71.2503 43.8897   1
  -3   0   9 40.5229 49.7499   1
   3   0  -9 47.6299 36.4010   1
   3   0  -9 47.7148 45.7818   1
  -6  -2   1 56382.7 1889.74   1
  -6  -2   1 53631.7 1795.00   1
  -6  -2   1 53326.8 1788.15   1
   6   2  -1 53934.7 1800.24   1
   6   2  -1 54482.2 1812.37   1
   6   2  -1 55710.5 1861.01   1
   6   2  -1 54968.8 1817.49   1
   6  -2  -1 54315.2 1849.21   1
   6  -2  -1 55299.8 1878.60   1
  -6   2   1 54856.3 1867.45   1
  -6   2   1 52299.2 1786.18   1
  -7  -1   3 1822.02 114.829   1
  -7  -1   3 1769.78 103.267   1
   7  -1  -3 1937.40 125.869   1
   7   1  -3 1664.15 112.338   1
   7   1  -3 1724.50 91.4725   1
   7   1  -3 1668.33 114.874   1
   7  -1  -3 2197.07 123.825   1
  -7   1   3 2243.94 128.153   1
  -2   0   9 82.8252 40.6431   1
   2   0  -9 -36.490 40.3881   1
  -2   0   9 48.4812 37.2292   1
   2   0  -9 44.8846 35.9403   1
  -2   0   9 -3.3059 53.9437   1
  -5  -1   8 9952.54 355.068   1
  -5   1   8 12258.5 384.804   1
   5   1  -8 10013.0 346.326   1
   5  -1  -8 11891.4 375.108   1
   5   1  -8 10237.2 336.666   1
   5  -1  -8 12469.1 401.291   1
   5  -1  -8 13096.3 376.478   1
  -5  -1   8 9920.28 332.573   1
  -5  -1   8 10088.9 343.448   1
  -5   1   8 12389.7 395.027   1
  -7   0   1 1642.77 105.228   1
  -7   0   1 1783.35 108.171   1
   7   0  -1 1827.76 111.200   1
   7   0  -1 1722.97 114.455   1
   7   0  -1 1530.92 87.3443   1
  -6   1   7 15129.7 489.614   1
  -6   1   7 14875.8 470.276   1
  -6  -1   7 14618.7 511.729   1
  -6  -1   7 15928.7 518.555   1
   6   1  -7 15418.4 512.127   1
   6  -1  -7 14484.1 474.907   1
   6  -1  -7 14353.0 470.186   1
   6  -1  -7 15275.7 474.105   1
  -6   1   7 14505.3 471.194   1
   7  -1  -4 1032.17 102.798   1
   7   1  -4 1271.50 99.2791   1
   7  -1  -4 1039.56 101.889   1
   7   1  -4 1208.81 83.8380   1
  -7   1   4 1024.32 95.9066   1
  -7  -1   4 980.258 109.832   1
  -7  -1   4 1271.40 97.9879   1
  -7  -1   4 1092.41 85.5840   1
   6   0   2 34496.6 1112.98   1
   6   0   2 34317.9 1103.02   1
   6   0   2 33186.0 1095.92   1
  -6   0  -2 34716.8 1116.42   1
   5   2   2 10248.1 329.574   1
  -5  -2  -2 10142.5 332.492   1
  -5  -2  -2 10092.6 327.637   1
   5   2   2 9753.78 308.360   1
   5   2   2 9893.04 302.507   1
  -5  -2  -2 9802.40 304.251   1
  -5   2  -2 10258.0 351.166   1
  -5   2  -2 9884.04 329.496   1
   5  -2   2 9777.89 347.857   1
   5  -2   2 10401.0 353.076   1
   5  -2   2 10217.1 336.431   1
   3   1   6 32387.6 984.735   1
   3  -1   6 35981.2 1098.55   1
   3  -1   6 35691.6 1136.18   1
   3   1   6 31828.5 964.731   1
   3  -1   6 36379.7 1150.10   1
  -3  -1  -6 31639.3 962.811   1
  -3   1  -6 36109.3 1146.62   1
  -3   1  -6 35178.4 1118.86   1
  -3  -1  -6 31368.2 945.840   1
  -3  -2  -5 50112.8 1588.49   1
  -3  -2  -5 49624.2 1571.43   1
  -3   2  -5 54909.5 1830.10   1
  -3   2  -5 52523.4 1758.83   1
  -3   2  -5 53472.2 1808.26   1
   3  -2   5 54450.9 1816.10   1
   3   2   5 50097.8 1592.57   1
   3   2   5 51128.1 1615.60   1
   3  -2   5 54047.4 1821.13   1
  -7  -1   2 2526.33 143.573   1
  -7  -1   2 2957.80 187.942   1
  -7  -1   2 2490.92 117.079   1
   7   1  -2 2688.69 133.198   1
   7  -1  -2 2390.13 142.263   1
   7  -1  -2 2466.67 132.075   1
   7   1  -2 2568.16 129.801   1
   7   1  -2 2610.21 115.121   1
   7   1  -2 2626.75 105.162   1
  -7   1   2 2571.03 138.200   1
  -7  -1   2 2685.06 127.519   1
   6   2  -5 1106.37 79.1006   1
   6  -2  -5 817.151 84.3302   1
   6  -2  -5 920.221 91.5260   1
   6   2  -5 1138.84 99.9027   1
   6  -2  -5 1027.42 89.6493   1
  -6   2   5 1014.98 91.1318   1
  -6   2   5 776.202 72.8192   1
  -6   2   5 625.836 73.7232   1
  -6  -2   5 1082.68 102.434   1
  -6  -2   5 823.315 110.163   1
  -2  -2  -6 18098.9 486.032   1
  -2  -2  -6 16272.3 439.080   1
   2   2   6 17584.9 477.700   1
   2   2   6 17727.4 476.336   1
  -2   2  -6 20731.2 668.577   1
  -2   2  -6 19322.0 642.402   1
   2  -2   6 20708.5 654.742   1
   2  -2   6 20165.1 651.564   1
   2  -2   6 20614.7 654.375   1
  -2   2  -6 20093.5 638.688   1
   4   3   1 13418.0 413.849   1
   4   3   1 13750.9 442.310   1
  -4  -3  -1 13698.9 439.215   1
  -4  -3  -1 13686.6 412.122   1
  -4  -3  -1 13600.3 421.827   1
   4  -3   1 11013.8 402.120   1
  -4   3  -1 11176.0 410.618   1
   4  -3   1 11639.0 419.209   1
  -2  -3  -4 50726.7 1636.65   1
   2   3   4 49680.8 1595.39   1
  -2  -3  -4 50123.9 1609.81   1
   2   3   4 49469.8 1557.26   1
  -2   3  -4 49000.8 1663.47   1
   2  -3   4 48315.5 1644.77   1
   2  -3   4 46187.6 1564.84   1
   4   0  -9 34.2635 39.2935   1
  -4   0   9 23.6098 52.6188   1
  -4   0   9 50.0093 38.9751   1
   4   0  -9 51.6358 48.6221   1
  -4   0   9 20.9949 45.4160   1
   2   1   7 13093.5 344.457   1
   2   1   7 13392.9 359.338   1
   2  -1   7 15318.2 470.634   1
  -2   1  -7 14899.8 466.642   1
  -2   1  -7 14867.9 467.195   1
   2  -1   7 15310.6 476.736   1
   1   0   8 187.380 57.0408   1
   1   0   8 213.584 51.0569   1
   1   0   8 431.340 54.4118   1
  -1   0  -8 217.747 43.8631   1
  -4   1  -5 69286.3 2372.08   1
  -4  -1  -5 64343.9 2130.77   1
   4   1   5 65192.9 2167.06   1
   4   1   5 64014.8 2121.99   1
   4   1   5 64599.2 2242.21   1
   4  -1   5 69705.7 2377.35   1
   4  -1   5 68007.1 2310.74   1
  -4   1  -5 67925.3 2320.17   1
  -5   0  -4 43.5558 45.2840   1
   5   0   4 130.672 61.2859   1
   5   0   4 79.8123 39.1559   1
   5   0   4 10.8897 44.5292   1
  -5   0  -4 12.7980 43.8061   1
  -7   0   6 211.045 70.8740   1
   7   0  -6 64.1209 74.4872   1
  -7  -1   5 20717.2 680.255   1
   7  -1  -5 18989.1 632.107   1
   7   1  -5 16995.4 575.849   1
   7   1  -5 19953.9 635.342   1
  -7   1   5 19307.4 635.130   1
  -7  -1   5 18171.6 606.372   1
  -2   3   6 6401.13 231.212   1
   2  -3  -6 6208.45 217.347   1
   2  -3  -6 6268.52 206.904   1
  -2   3   6 6483.77 221.975   1
  -2   3   6 6349.05 214.299   1
  -2  -3   6 6467.24 229.269   1
  -2  -3   6 6606.61 244.065   1
   2   3  -6 6460.35 240.596   1
   2   3  -6 6224.48 242.932   1
   1   3   5 5281.39 170.512   1
   1   3   5 5397.21 177.326   1
  -1  -3  -5 5098.49 164.041   1
  -1  -3  -5 4440.60 152.343   1
   1  -3   5 4510.82 191.183   1
   1  -3   5 4705.15 204.004   1
  -1   3  -5 4637.61 204.212   1
  -1   3  -5 4526.41 213.362   1
  -1   3  -5 4755.86 199.552   1
   3   3   3 8679.30 272.455   1
   3   3   3 8729.09 287.014   1
   3  -3   3 9785.41 344.641   1
   3   3   3 8799.84 265.348   1
  -3  -3  -3 8298.38 269.589   1
  -3  -3  -3 8657.84 290.966   1
  -3   3  -3 9454.22 343.723   1
  -4   3   5 27366.6 870.899   1
  -4   3   5 27309.2 856.417   1
  -4   3   5 26929.8 865.900   1
   4  -3  -5 27459.7 893.380   1
   4  -3  -5 27128.3 876.782   1
  -4   3   5 27509.6 875.856   1
  -4  -3   5 27473.5 903.066   1
   4   3  -5 25397.3 851.467   1
   4   3  -5 28168.4 920.860   1
  -1   0   9 2189.58 92.6305   1
  -1   0   9 2035.84 118.533   1
   1   0  -9 2054.62 97.9998   1
   1   0  -9 1927.99 89.4664   1
  -1   0   9 2015.24 97.8977   1
  -2   2   8 4673.45 157.738   1
   2  -2  -8 4587.91 153.380   1
  -2   2   8 4550.51 153.502   1
  -2   2   8 4454.12 165.489   1
  -2  -2   8 4480.01 191.256   1
  -2  -2   8 4302.79 182.154   1
  -2  -2   8 4308.10 156.245   1
   2   2  -8 4591.22 200.799   1
   2   2  -8 4183.89 188.031   1
   2   2  -8 4645.15 170.383   1
   2   2  -8 4064.30 170.844   1
  -2  -2   8 3897.95 196.103   1
   5  -2  -7 917.052 78.8124   1
   5  -2  -7 951.162 99.6946   1
   5  -2  -7 1019.53 83.3194   1
  -5   2   7 1050.41 85.4785   1
  -5   2   7 1207.61 98.2199   1
  -5  -2   7 1326.62 101.680   1
  -5  -2   7 678.942 130.995   1
   5   2  -7 863.510 102.114   1
  -4   2  -4 4135.61 190.793   1
  -4   2  -4 4651.08 191.366   1
  -4   2  -4 4088.29 161.969   1
   4   2   4 4372.54 147.387   1
   4   2   4 4530.00 157.538   1
   4   2   4 4227.03 159.837   1
   4  -2   4 4006.69 173.390   1
  -4  -2  -4 4150.72 143.412   1
   4  -2   4 3993.39 173.382   1
  -4  -2  -4 4203.90 146.361   1
   1  -3  -6 13602.4 410.776   1
   1  -3  -6 13324.0 401.626   1
  -1   3   6 13772.9 443.064   1
  -1   3   6 14292.7 435.150   1
  -1   3   6 13593.3 413.379   1
  -1  -3   6 12398.1 422.614   1
  -1  -3   6 12723.8 417.702   1
   1   3  -6 12326.7 420.979   1
   1   3  -6 12042.4 428.354   1
  -3   1   9 10532.8 323.639   1
   3   1  -9 11291.0 374.351   1
   3  -1  -9 10455.9 323.421   1
   3   1  -9 11698.8 373.246   1
   3  -1  -9 10468.3 331.780   1
  -3   1   9 10538.2 302.831   1
  -3  -1   9 11566.0 366.636   1
  -3  -1   9 11536.8 389.469   1
  -3  -1   9 11560.1 375.837   1
  -3   2   8 36505.0 1142.79   1
   3  -2  -8 37613.7 1177.76   1
   3  -2  -8 37465.2 1178.60   1
  -3   2   8 37344.1 1175.35   1
  -3   2   8 38099.5 1191.74   1
  -3  -2   8 32920.8 1139.59   1
   3   2  -8 34253.7 1130.63   1
   3   2  -8 34555.1 1133.21   1
  -3  -2   8 33988.5 1116.90   1
   3   2  -8 34893.6 1103.55   1
  -3  -2   8 35480.2 1160.11   1
   6   2   0 3835.00 164.125   1
   6   2   0 3801.80 149.456   1
  -6  -2   0 3813.71 162.615   1
  -6  -2   0 3775.22 152.105   1
  -6  -2   0 3826.81 156.746   1
   6   2   0 3503.52 156.946   1
   6   2   0 3643.11 135.966   1
  -6   2   0 3008.11 158.785   1
   6  -2   0 3262.52 164.878   1
   6  -2   0 3310.56 161.752   1
   2   1  -9 10155.2 323.280   1
   2   1  -9 10399.6 333.708   1
  -2  -1   9 10413.6 337.334   1
  -2  -1   9 10718.7 334.301   1
  -2   1   9 9605.26 288.127   1
  -2  -1   9 10565.8 305.760   1
  -2  -1   9 10174.1 363.218   1
  -2   1   9 9287.15 284.470   1
   2  -1  -9 9033.93 274.591   1
   2   1  -9 10319.7 337.743   1
  -7  -1   1 72.8264 53.6570   1
  -7  -1   1 92.7175 53.9628   1
  -7  -1   1 84.7318 50.0259   1
   7   1  -1 111.453 59.0861   1
   7   1  -1 110.952 44.1387   1
   7  -1  -1 91.7103 67.0385   1
   7  -1  -1 224.065 62.3801   1
   7   1  -1 59.3700 53.0323   1
   7   1  -1 61.5892 42.9322   1
  -7   1   1 107.834 65.1080   1
   6   0  -8 43621.8 1439.91   1
   6   0  -8 44245.5 1488.84   1
  -6   0   8 44176.7 1458.61   1
  -6   0   8 42137.2 1420.79   1
  -6   0   8 43660.2 1440.62   1
   6  -1   2 7992.47 267.071   1
   6   1   2 7976.93 238.019   1
   6   1   2 8113.72 271.897   1
   6   1   2 7937.17 257.309   1
   6  -1   2 8453.84 281.780   1
   6  -1   2 6950.44 267.777   1
  -6  -1  -2 8209.58 265.358   1
  -6   1  -2 8171.29 282.037   1
   6   1   2 7981.94 290.705   1
  -6  -1  -2 8318.89 277.190   1
  -6  -1  -2 8279.99 280.180   1
  -6   1  -2 7983.29 269.090   1
   0  -4   0 14834.7 487.728   1
   0   4   0 15150.9 501.094   1
   0   4   0 15755.6 533.401   1
   0  -4   0 15130.6 523.655   1
   0   4   0 15175.0 506.893   1
  -1   2  -7 75252.4 2643.60   1
  -1   2  -7 77778.0 2724.47   1
  -1   2  -7 78681.2 2792.11   1
   1  -2   7 75635.0 2654.21   1
   1  -2   7 79742.1 2783.71   1
   1  -2   7 77827.5 2726.10   1
   1  -2   7 75341.6 2622.16   1
  -3   3   6 131.808 46.9400   1
  -3   3   6 197.778 63.0886   1
  -3   3   6 121.504 55.7685   1
   3  -3  -6 142.048 59.2736   1
   3  -3  -6 71.9544 46.9541   1
  -3   3   6 181.399 45.3237   1
   3   3  -6 146.810 69.6342   1
   3   3  -6 148.611 64.3513   1
  -3  -3   6 209.463 78.9964   1
  -3  -3   6 119.920 65.5303   1
   7   0   0 10.4928 39.6482   1
   7   0   0 56.5956 51.2007   1
  -7   0   0 54.9833 28.8384   1
  -7   0   0 90.9128 50.7200   1
  -7   0   0 16.1672 52.7896   1
   7   0   0 84.7904 56.9515   1
  -5  -3   2 3730.03 166.386   1
  -5  -3   2 3638.90 149.801   1
  -5   3   2 3489.82 172.034   1
  -5   3   2 3722.13 163.084   1
   5   3  -2 3519.07 153.563   1
   5   3  -2 4287.48 175.593   1
   5  -3  -2 3563.46 175.792   1
   5  -3  -2 3798.10 176.756   1
   5   3  -2 3619.77 146.527   1
  -5  -3   2 3966.85 147.182   1
  -5  -3   3 6136.23 211.049   1
  -5  -3   3 6039.43 236.172   1
  -5   3   3 5624.18 222.525   1
  -5   3   3 6204.64 220.634   1
   5  -3  -3 6277.98 238.069   1
   5  -3  -3 5844.77 235.126   1
   5   3  -3 6154.92 237.256   1
   0  -4  -1 33863.6 1010.19   1
   0   4   1 34231.6 1111.61   1
   0   4   1 33872.5 1126.39   1
   0  -4  -1 33906.5 1131.28   1
   0  -4  -1 31965.4 1045.27   1
   0   4  -1 31955.3 1065.45   1
   0  -4   1 31463.6 1056.99   1
   0   4   1 32876.9 1081.41   1
   0   4  -1 31945.6 1075.23   1
  -1   2   8 426.691 41.1835   1
   1  -2  -8 362.774 40.6709   1
   1  -2  -8 385.399 42.9256   1
  -1   2   8 374.066 40.5484   1
   1   2  -8 194.099 70.4911   1
  -1  -2   8 276.096 55.6934   1
  -1  -2   8 217.037 54.7829   1
   1   2  -8 282.311 52.7045   1
  -1  -2   8 93.5948 81.4489   1
  -1  -2   8 256.023 63.8839   1
  -4  -1   9 8512.58 366.774   1
   4   1  -9 10671.0 295.006   1
   4  -1  -9 10013.7 322.062   1
   4   1  -9 10303.4 360.800   1
   4  -1  -9 10499.6 346.962   1
  -4   1   9 10295.1 319.748   1
  -4  -1   9 10411.7 342.005   1
  -4  -1   9 10953.1 367.981   1
  -4   1   9 10435.9 330.381   1
   1  -4   0 14131.5 481.847   1
   1   4   0 14279.0 458.641   1
  -1  -4   0 15083.6 496.285   1
   1   4   0 15176.5 494.567   1
   1   4   0 15399.0 515.126   1
  -1   4   0 13687.6 466.146   1
  -1  -4   0 14101.9 458.970   1
  -1   4   0 13518.7 472.625   1
   1  -4   0 13747.6 422.501   1
   1  -4  -1 28406.7 925.985   1
   1   4  -1 25631.5 852.445   1
   1   4  -1 24993.3 842.279   1
  -1   4   1 28977.1 953.190   1
  -1  -4   1 24835.4 830.957   1
  -1   4   1 29595.1 970.259   1
  -1   4   1 26718.6 869.384   1
  -6   2   6 50328.9 1712.54   1
   6  -2  -6 50028.5 1700.52   1
   6  -2  -6 52337.7 1759.91   1
  -6   2   6 53880.0 1812.43   1
   6   2  -6 56671.7 1928.35   1
  -6  -2   6 51907.5 1817.42   1
  -6  -2   6 56616.2 1925.28   1
  -1   1  -8 95105.5 3361.08   1
  -1   1  -8 92305.2 3266.07   1
   1  -1   8 90132.2 3189.83   1
   1  -1   8 95857.4 3388.97   1
   1  -1   8 94919.0 3363.72   1
   5   3  -1 33443.7 1106.77   1
   5   3  -1 32697.2 1084.17   1
   5   3  -1 33066.3 1063.09   1
   5  -3  -1 33716.0 1127.89   1
  -5  -3   1 32789.7 1076.36   1
  -5   3   1 32407.4 1052.73   1
   5  -3  -1 32121.9 1063.23   1
  -5  -3   1 34749.6 1099.34   1
  -5  -3   1 33102.4 1094.74   1
  -5   3   1 31834.9 1071.58   1
   5   1   4 141.825 46.6161   1
   5   1   4 209.705 60.7253   1
  -5   1  -4 133.303 56.3580   1
  -5  -1  -4 155.321 48.0993   1
  -5   1  -4 198.278 65.6402   1
   5  -1   4 168.362 58.5540   1
  -5  -1  -4 169.182 52.5877   1
   5  -1   4 121.147 73.7134   1
   5   1   4 145.582 54.3479   1
  -7  -1   6 187315. 7368.63   1
  -7   1   6 166840. 6587.26   1
   7   1  -6 197412. 7744.18   1
   7  -1  -6 167287. 6615.75   1
   7   1  -6 178926. 7039.56   1
  -5   0   9 107.410 49.0722   1
  -5   0   9 32.1278 59.5604   1
  -5   0   9 58.1447 61.0882   1
   5   0  -9 78.2845 47.9420   1
   5   0  -9 120.520 53.1078   1
   4  -2  -8 3810.78 146.769   1
  -4   2   8 3907.26 155.699   1
   4  -2  -8 3758.67 146.952   1
   4  -2  -8 3847.07 159.049   1
  -4   2   8 3690.94 143.362   1
  -4  -2   8 5752.08 272.172   1
   4   2  -8 4418.55 167.339   1
   4   2  -8 4184.52 181.196   1
  -4  -2   8 4726.98 190.309   1
   0   3   6 2416.48 98.1636   1
   0  -3  -6 2488.64 104.234   1
   0   3   6 2445.66 104.039   1
   0   3   6 2590.75 138.515   1
   0  -3   6 2198.51 125.673   1
   0  -3   6 2254.44 132.851   1
   0   3  -6 2192.72 131.730   1
   0   3  -6 2312.79 140.110   1
   1   1  -9 4539.37 162.647   1
  -1  -1   9 4532.36 169.454   1
  -1  -1   9 4524.33 162.549   1
  -1  -1   9 4730.15 158.649   1
   1   1  -9 4451.46 173.347   1
  -1  -1   9 4511.82 211.440   1
   4   3   2 22406.8 689.154   1
   4   3   2 22918.8 711.785   1
   4   3   2 22809.6 721.833   1
  -4  -3  -2 23727.6 730.834   1
  -4  -3  -2 23192.9 734.243   1
  -4  -3  -2 22442.8 704.293   1
  -4   3  -2 22268.8 754.475   1
   4  -3   2 22406.4 744.179   1
   4  -3   2 23144.6 775.950   1
   5  -3  -4 24957.9 805.288   1
   5  -3  -4 26170.2 863.508   1
  -5   3   4 26014.2 839.636   1
  -5   3   4 25687.5 819.442   1
  -5   3   4 25122.3 833.472   1
   5   3  -4 22517.4 757.396   1
  -5  -3   4 23247.6 778.302   1
   1   4   1 15243.3 504.617   1
  -1  -4  -1 15506.2 515.336   1
   1  -4   1 12248.0 436.709   1
   1   4   1 15593.2 519.386   1
   1   4   1 15149.3 485.646   1
  -1   4  -1 11607.9 424.053   1
  -1   4  -1 11929.2 436.546   1
  -1  -4  -1 15107.9 491.564   1
  -1   4   2 57082.4 1962.37   1
  -1  -4   2 56820.0 1963.17   1
   1  -4  -2 59265.2 1898.01   1
   1  -4  -2 56363.3 1929.18   1
   1   4  -2 59043.7 2042.12   1
   1  -4  -2 58450.3 1996.64   1
   1   4  -2 58734.2 2022.91   1
  -1   4   2 58572.2 2019.03   1
  -1   4   2 59591.8 2045.68   1
  -7   0   7 399739. 17903.0   1
  -7   0   7 405253. 18127.0   1
   7   0  -7 392093. 17557.8   1
   0   4   2 5773.31 235.624   1
   0   4   2 5313.50 223.263   1
   0   4   2 5416.66 194.324   1
   0  -4  -2 5993.32 235.218   1
   0  -4  -2 5394.87 209.936   1
   6  -1  -8 5945.22 203.302   1
   6  -1  -8 6214.78 224.584   1
   6   1  -8 4949.13 209.383   1
   6  -1  -8 6413.38 208.769   1
  -6   1   8 5902.81 214.216   1
  -6  -1   8 5090.89 208.245   1
  -6   1   8 5850.07 216.764   1
   5   2   3 1477.65 89.9757   1
   5   2   3 1507.58 98.8005   1
  -5  -2  -3 1306.75 87.6830   1
   5   2   3 1293.05 80.7391   1
  -5  -2  -3 1433.97 82.5182   1
  -5   2  -3 1666.10 112.843   1
   5  -2   3 1530.88 106.521   1
   5  -2   3 1555.44 120.972   1
   7   1   0 902.802 90.4210   1
   7   1   0 823.972 64.3452   1
   7   1   0 997.407 87.0325   1
  -7  -1   0 848.481 76.6490   1
   7  -1   0 695.176 92.0388   1
   7  -1   0 357.593 82.6208   1
  -7  -1   0 765.175 88.2203   1
   7   1   0 879.898 80.3145   1
  -7   1   0 477.040 99.5121   1
   0   0   9 424.351 52.4547   1
   0   0   9 215.150 58.5182   1
   0   0  -9 290.554 46.0070   1
   0   0   9 259.923 46.8456   1
   0   0  -9 111.243 38.0588   1
  -2   4   1 1928.47 124.740   1
  -2  -4   1 1153.13 104.348   1
   2  -4  -1 1622.91 87.0779   1
   2   4  -1 1102.89 108.005   1
   2  -4  -1 1792.21 139.483   1
   2   4  -1 1162.08 115.248   1
  -2   4   1 1678.99 117.066   1
   4  -3  -6 2468.15 122.494   1
   4  -3  -6 2527.47 134.716   1
   4  -3  -6 2575.25 130.358   1
  -4   3   6 2496.15 139.520   1
  -4   3   6 2744.71 135.107   1
  -4   3   6 2477.71 112.244   1
  -4   3   6 2560.20 129.435   1
  -4  -3   6 2184.93 136.537   1
  -4  -3   6 3003.44 167.184   1
   4   3  -6 2220.68 146.592   1
   4   3  -6 2485.06 141.783   1
   6   2   1 48.6991 54.8662   1
   6   2   1 146.181 53.1109   1
  -6  -2  -1 52.5279 48.6606   1
  -6  -2  -1 -28.239 44.3302   1
  -6  -2  -1 49.7442 52.3801   1
   6   2   1 5.07925 43.6971   1
   6   2   1 53.4152 48.6905   1
  -6   2  -1 43.2206 54.9761   1
   6  -2   1 87.2037 60.8322   1
   6   0   3 55.1908 47.8132   1
   6   0   3 36.6464 53.5269   1
  -6   0  -3 29.7170 52.6103   1
  -6   0  -3 82.8411 49.2236   1
   6   0   3 67.7741 57.3712   1
  -5  -3   0 5260.88 217.330   1
  -5  -3   0 5111.53 185.522   1
  -5  -3   0 5375.68 205.129   1
   5   3   0 5499.30 204.031   1
   5   3   0 5413.19 196.181   1
   5   3   0 5501.68 223.885   1
  -2  -4   0 11482.2 386.081   1
   2  -4   0 11488.4 365.230   1
   2   4   0 11410.8 369.623   1
   2  -4   0 10982.8 391.127   1
   2   4   0 11673.8 409.936   1
  -2  -4   0 11662.4 393.058   1
  -2   4   0 10144.9 379.755   1
  -2   4   0 11311.4 394.311   1
  -3   0  -7 52006.4 1695.86   1
   3   0   7 52833.8 1721.36   1
   3   0   7 51473.7 1681.60   1
  -3   0  -7 50161.5 1618.92   1
   3   0   7 50820.5 1635.56   1
  -2   4   2 53705.0 1809.12   1
  -2  -4   2 49038.3 1684.17   1
  -2   4   2 54574.5 1855.43   1
   2   4  -2 51168.0 1758.06   1
   2  -4  -2 52499.2 1800.10   1
   2   4  -2 50350.6 1731.63   1
   0  -2   8 2713.01 141.807   1
   0  -2   8 2945.45 136.215   1
   0   2  -8 2636.38 130.673   1
   0   2  -8 2927.81 152.182   1
   0  -2   8 2788.65 132.767   1
   0   2  -8 2748.54 144.831   1
  -5   1   9 58969.5 1993.57   1
   5   1  -9 58749.1 2039.94   1
   5  -1  -9 60655.9 1956.09   1
   5  -1  -9 60293.2 2045.03   1
   5  -1  -9 57918.1 1966.96   1
  -5  -1   9 61482.6 2110.09   1
  -5  -1   9 58180.4 1994.59   1
  -5  -1   9 65683.6 2270.02   1
   5   1  -9 60322.0 1948.06   1
  -5   1   9 60409.0 2043.73   1
  -4   0  -6 162863. 6190.68   1
  -4   0  -6 161860. 6188.05   1
   4   0   6 157328. 5869.39   1
   4   0   6 159842. 6119.84   1
   4   0   6 163598. 6222.57   1
   2   3   5 3787.44 135.629   1
  -2   3  -5 2497.19 152.111   1
  -2  -3  -5 3621.40 125.673   1
  -2   3  -5 3049.03 179.324   1
   2   3   5 3701.07 131.728   1
   2  -3   5 2599.03 156.514   1
   2   3   5 3593.17 124.592   1
   1   4   2 23935.8 771.591   1
  -1   4  -2 26904.2 883.352   1
  -1  -4  -2 23630.7 766.705   1
  -1   4  -2 26130.4 867.270   1
  -1  -4  -2 23308.3 764.918   1
   1   4   2 23986.7 807.088   1
   1  -4   2 25399.1 848.182   1
   1   4   2 23366.4 762.595   1
  -5   3   5 9379.12 324.335   1
  -5   3   5 8817.97 309.395   1
  -5  -3   5 9787.57 369.690   1
  -5  -3   5 10047.5 359.844   1
   5  -3  -5 9504.40 333.963   1
   5  -3  -5 10095.1 362.047   1
   5   3  -5 9722.18 350.644   1
  -5   3   5 10134.6 329.350   1
  -7   0  -1 28791.7 939.922   1
  -7   0  -1 28729.6 899.010   1
  -7   0  -1 28874.5 948.796   1
   7   0   1 29545.0 962.004   1
   7   0   1 29288.4 962.051   1
   7   0   1 29371.2 955.938   1
  -1  -4   3 150.311 70.7406   1
   1  -4  -3 102.612 66.6421   1
   1   4  -3 52.0053 69.2053   1
  -1   4   3 285.575 67.6491   1
  -1   4   3 121.810 67.2093   1
  -1   4   3 140.549 57.4988   1
   1  -4  -3 56.5494 47.3848   1
   1   4  -3 90.8247 70.8223   1
   3   3   4 15309.1 462.174   1
   3   3   4 15551.7 476.222   1
   3   3   4 15616.4 470.825   1
  -3  -3  -4 15216.2 468.892   1
  -3   3  -4 15527.7 525.135   1
  -3  -3  -4 14706.8 448.521   1
   3  -3   4 15355.9 520.264   1
  -7   1   7 73819.2 2568.58   1
  -7  -1   7 69234.7 2475.29   1
  -7  -1   7 71690.9 2514.58   1
   7   1  -7 67736.0 2396.75   1
   7  -1  -7 73243.9 2554.31   1
   7   2  -3 953.343 88.3523   1
   7  -2  -3 898.687 100.465   1
   7  -2  -3 810.642 90.3080   1
  -7  -2   3 790.556 88.9117   1
  -7   2   3 764.207 94.6658   1
  -7  -2   3 743.700 84.5187   1
  -7  -2   3 456.156 127.193   1
   5   2  -8 37264.6 1242.42   1
  -5  -2   8 37799.8 1251.15   1
  -5   2   8 36292.9 1186.36   1
  -5   2   8 36433.8 1187.24   1
  -5  -2   8 37136.3 1301.46   1
   5  -2  -8 36137.4 1182.69   1
   5  -2  -8 36088.3 1153.95   1
   5  -2  -8 35417.9 1169.71   1
   5   2  -8 37421.1 1206.90   1
  -2   0  -8 49167.5 1579.40   1
   2   0   8 50498.5 1630.02   1
   2   0   8 48254.1 1574.98   1
   2   0   8 50709.2 1639.15   1
   0  -4  -3 1595.21 95.5568   1
   0   4  -3 1253.83 108.886   1
   0   4   3 1368.95 94.4024   1
   0   4   3 1526.00 105.473   1
   0  -4   3 1283.38 117.596   1
   0   4   3 1438.12 111.353   1
   0  -4  -3 1505.86 106.633   1
   0   4  -3 1189.09 114.370   1
   2   3  -7 33703.4 1100.27   1
   2   3  -7 32793.2 1092.03   1
  -2   3   7 33732.5 1055.28   1
  -2  -3   7 33747.5 1093.49   1
  -2  -3   7 34587.6 1158.24   1
  -2   3   7 30987.7 1002.54   1
   2  -3  -7 32899.6 1037.82   1
  -2  -3   7 33579.8 1106.79   1
  -2   3   7 32435.0 1027.63   1
   2  -3  -7 32155.7 1016.05   1
   2  -4   1 8232.93 297.074   1
   2   4   1 9022.43 306.005   1
   2   4   1 8310.37 321.314   1
   2  -4   1 8266.06 320.573   1
  -2   4  -1 7632.68 307.304   1
  -2   4  -1 8353.89 314.141   1
  -2  -4  -1 9252.10 326.843   1
  -2  -4  -1 9027.04 307.847   1
  -2  -4  -1 9150.90 240.472   1
  -6   2   7 72.8895 59.7162   1
  -6   2   7 97.7758 59.9394   1
  -6  -2   7 268.657 73.6120   1
  -6  -2   7 221.028 105.745   1
   6   2  -7 164.273 75.1540   1
   6  -2  -7 60.4892 76.1666   1
  -7  -2   4 2164.88 181.534   1
   7  -2  -4 1245.86 107.890   1
   7  -2  -4 1625.89 120.495   1
   7  -2  -4 1252.83 90.3162   1
   7   2  -4 1892.52 128.556   1
   7   2  -4 1416.55 107.504   1
  -7   2   4 1373.80 112.610   1
  -7  -2   4 1436.06 108.117   1
  -3  -2  -6 74.5776 28.5172   1
  -3   2  -6 92.0136 68.8814   1
   3  -2   6 65.1897 56.0594   1
  -3   2  -6 42.0868 55.1519   1
  -3  -2  -6 39.8485 30.5325   1
   3  -2   6 69.0005 65.9692   1
   3   2   6 111.838 27.5010   1
   3   2   6 107.205 30.7948   1
  -3   2  -6 -17.258 53.4049   1
  -2   4   3 697.756 77.3647   1
  -2  -4   3 468.182 89.1885   1
  -2   4   3 485.862 89.6599   1
  -2   4   3 731.092 91.8567   1
   2   4  -3 263.357 95.8097   1
   2   4  -3 373.863 86.3021   1
   2  -4  -3 873.334 95.8898   1
   2  -4  -3 693.596 66.2256   1
   0   1   9 2725.44 87.6965   1
   0   1   9 2869.42 85.4137   1
   0  -1   9 2078.60 104.894   1
   0  -1  -9 2757.28 86.8664   1
   0   1  -9 2514.89 132.448   1
   0   1  -9 2320.57 109.125   1
   0  -1  -9 2710.43 80.5256   1
   0  -1   9 2443.43 130.430   1
   0  -1   9 2745.04 160.187   1
  -1   3  -6 6599.59 289.012   1
  -1  -3  -6 6427.40 199.492   1
  -1   3  -6 6582.60 251.618   1
   1  -3   6 6845.35 255.816   1
   1   3   6 6894.06 213.137   1
   1  -3   6 7264.86 264.035   1
   1   3   6 6532.88 196.375   1
   8   0  -4 28104.6 927.374   1
   8   0  -4 29186.3 968.244   1
  -8   0   4 27074.1 894.487   1
  -8   0   4 28076.5 927.791   1
   7  -2  -2 10613.7 376.209   1
   7  -2  -2 10582.1 376.684   1
   7   2  -2 11604.9 413.308   1
   7   2  -2 9634.50 332.763   1
   7   2  -2 10642.2 353.733   1
  -7  -2   2 10648.5 365.792   1
  -7   2   2 11296.7 392.913   1
  -7  -2   2 9880.22 344.534   1
   3   0 -10 26.4025 47.6135   1
   3   0 -10 35.2550 37.0351   1
  -3   0  10 14.6228 34.9993   1
  -3   0  10 13.7056 42.3107   1
  -3   0  10 -25.177 47.1778   1
   8   0  -3 150.565 72.1522   1
  -8   0   3 200.139 69.2780   1
  -8   0   3 54.8543 73.4332   1
   8   0  -3 175.802 66.9645   1
  -3   3   7 7263.58 254.123   1
   3  -3  -7 7101.81 254.009   1
   3  -3  -7 6935.54 232.474   1
   3   3  -7 6799.52 272.693   1
  -3  -3   7 7686.47 284.532   1
   3   3  -7 7190.51 259.280   1
  -3   3   7 7187.33 243.433   1
  -3   3   7 7581.97 259.542   1
  -3  -3   7 7371.22 304.832   1
   6   1   3 7911.26 297.929   1
   6  -1   3 7658.38 285.951   1
   6  -1   3 6994.41 270.296   1
   6   1   3 8669.99 272.651   1
   6  -1   3 6923.97 255.981   1
   6   1   3 8341.84 271.765   1
  -6  -1  -3 8567.56 272.370   1
  -6   1  -3 6952.36 260.324   1
  -6   1  -3 6654.08 265.915   1
   6   1   3 9309.54 268.448   1
  -6  -1  -3 8420.37 274.424   1
  -1   3   7 5699.53 192.284   1
   1   3  -7 7199.23 259.539   1
  -1  -3   7 6689.81 241.391   1
  -1   3   7 5502.27 213.870   1
  -1  -3   7 6852.69 250.402   1
  -1   3   7 5550.17 184.375   1
   1  -3  -7 5342.66 179.556   1
   5   0   5 10294.9 333.256   1
   5   0   5 10377.8 344.567   1
   5   0   5 10378.5 369.619   1
  -5   0  -5 10685.6 347.432   1
  -5   0  -5 10465.3 340.245   1
   6   0  -9 159.808 62.6425   1
  -6   0   9 141.451 74.7435   1
   3  -1   7 13049.9 439.305   1
  -3  -1  -7 14282.2 400.781   1
   3   1   7 14864.3 420.524   1
  -3  -1  -7 14332.4 401.725   1
  -3   1  -7 13192.9 422.440   1
  -3   1  -7 12981.9 424.175   1
   3  -1   7 13703.6 421.378   1
   3  -1   7 13167.0 428.336   1
   3   1   7 14673.8 412.979   1
  -2   2  -7 10857.2 367.626   1
  -2   2  -7 11282.6 364.579   1
   2  -2   7 12070.3 402.267   1
   2  -2   7 11355.8 378.105   1
   2  -2   7 11340.7 389.031   1
  -2   2  -7 11353.2 395.773   1
   5  -3   1 9342.37 354.487   1
   5   3   1 11395.9 360.201   1
   5  -3   1 9573.52 347.983   1
   5   3   1 12039.3 397.730   1
  -5   3  -1 8976.58 351.633   1
  -5  -3  -1 12135.2 400.280   1
  -5  -3  -1 12052.0 382.603   1
  -5  -3  -1 11662.1 364.629   1
   4  -2   5 596.046 74.1196   1
   4   2   5 221.028 67.6374   1
   4   2   5 202.840 54.1244   1
   4   2   5 172.091 45.5854   1
   4  -2   5 485.320 62.6718   1
  -4   2  -5 516.463 62.6143   1
  -4  -2  -5 295.314 46.6820   1
  -4   2  -5 329.448 59.8988   1
  -4   2  -5 383.659 84.0858   1
  -8   0   5 -64.425 52.3681   1
   8   0  -5 107.301 50.6686   1
  -8   0   5 -38.937 52.0303   1
  -4  -3  -3 143097. 5344.37   1
   4   3   3 141643. 5297.60   1
   4   3   3 141183. 5236.66   1
  -4  -3  -3 139121. 5201.69   1
   4  -3   3 144104. 5503.58   1
   4  -3   3 127923. 4910.51   1
  -4   3  -3 143551. 5473.07   1
  -2   0  10 12640.9 390.697   1
   2   0 -10 11860.9 374.193   1
   2   0 -10 11717.1 360.045   1
  -2   0  10 11737.7 360.240   1
  -2   0  10 12434.1 399.907   1
  -4   1  -6 2929.09 143.123   1
   4  -1   6 2885.90 129.415   1
  -4   1  -6 2795.08 129.079   1
   4  -1   6 2896.39 143.902   1
   7  -2  -5 5163.23 213.647   1
  -7  -2   5 4882.21 248.396   1
   7  -2  -5 6234.17 245.980   1
   7  -2  -5 5801.71 224.267   1
   7   2  -5 5418.38 223.020   1
  -7  -2   5 5348.29 223.825   1
  -7   2   5 5663.38 229.080   1
   4   0 -10 4682.31 171.519   1
  -4   0  10 4742.09 171.892   1
  -4   0  10 4485.38 177.799   1
  -4   0  10 4848.92 197.792   1
   4   0 -10 4507.17 183.217   1
   3  -4  -1 8247.13 282.481   1
  -3   4   1 8950.36 319.654   1
  -3  -4   1 7721.14 281.753   1
  -3   4   1 8580.32 323.772   1
   3   4  -1 7599.33 300.692   1
   3   4  -1 7144.69 292.318   1
   3  -4  -1 8231.28 308.207   1
   7   1   1 3644.04 161.298   1
   7  -1   1 3814.13 167.762   1
  -7   1  -1 3959.15 128.217   1
  -7  -1  -1 3740.71 154.238   1
   7  -1   1 3400.17 174.586   1
  -7  -1  -1 3775.52 165.242   1
  -7   1  -1 3652.95 162.611   1
   7   1   1 3821.11 166.571   1
   7   1   1 4371.38 163.017   1
   7   1   1 3599.83 150.091   1
  -7   0   8 193.482 75.7841   1
   7   0  -8 231.763 79.6002   1
  -7   0   8 116.841 95.6085   1
   3   4  -2 38322.8 1297.31   1
   3  -4  -2 39230.0 1313.84   1
   3  -4  -2 39128.9 1254.37   1
   3   4  -2 38541.2 1296.06   1
  -3   4   2 39154.8 1302.57   1
  -3   4   2 39019.8 1323.43   1
  -3  -4   2 37889.3 1271.85   1
   8   0  -2 19477.6 636.846   1
   8   0  -2 19334.5 643.546   1
  -8   0   2 19012.2 626.489   1
  -8   0   2 18263.8 593.330   1
   3   2  -9 10424.9 326.435   1
  -3   2   9 10730.6 336.947   1
   3  -2  -9 10647.9 327.979   1
   3   2  -9 9906.24 346.759   1
  -3  -2   9 10172.6 419.619   1
  -3   2   9 10500.3 327.065   1
  -3   2   9 10575.3 326.294   1
  -3  -2   9 9837.47 335.890   1
   3  -2  -9 10502.9 332.745   1
   1   4   3 3617.92 179.281   1
   1   4   3 3638.17 156.699   1
   1  -4   3 3395.03 182.374   1
  -1  -4  -3 3542.28 150.575   1
  -1   4  -3 3541.04 180.119   1
  -1  -4  -3 3533.58 161.356   1
  -1   4  -3 3218.68 178.381   1
   1   4   3 3481.96 146.649   1
  -2  -2   9 6943.62 233.996   1
  -2   2   9 7446.06 245.048   1
   2   2  -9 7069.88 276.078   1
   2   2  -9 6937.11 239.872   1
  -2   2   9 7859.89 240.068   1
  -2  -2   9 7412.97 314.650   1
   2  -2  -9 7636.23 233.198   1
  -2  -2   9 7213.58 267.736   1
  -2  -2   9 6945.85 243.607   1
  -2   2   9 7644.31 235.474   1
  -7   2   1 1705.94 115.757   1
  -7  -2   1 1333.03 96.3502   1
  -7  -2   1 1064.34 98.0922   1
   7   2  -1 1486.91 112.707   1
   7   2  -1 1214.51 91.5090   1
   7   2  -1 1001.86 110.582   1
   7  -2  -1 1609.88 116.357   1
   7  -2  -1 1264.78 114.907   1
  -2   1  -8 11765.6 382.732   1
   2  -1   8 12256.8 402.369   1
   2  -1   8 11586.3 379.252   1
   2  -1   8 12418.0 406.052   1
  -2   1  -8 11681.3 390.300   1
  -1  -4   4 17487.8 595.429   1
  -1   4   4 18311.1 599.028   1
  -1   4   4 18172.1 581.664   1
  -1   4   4 18214.6 582.593   1
   1   4  -4 16271.1 565.758   1
   1   4  -4 17450.7 581.536   1
   1  -4  -4 18200.5 587.397   1
   1  -4  -4 18363.3 584.837   1
  -5   3   6 5044.78 188.712   1
  -5   3   6 4894.52 205.221   1
  -5  -3   6 5712.09 245.736   1
  -5  -3   6 6256.86 250.780   1
   5  -3  -6 5017.58 207.043   1
   5   3  -6 6243.35 246.884   1
   5  -3  -6 5059.36 219.734   1
   5   3  -6 6072.44 238.504   1
  -5   3   6 5334.25 202.898   1
  -5   3   6 4632.19 185.820   1
  -2   4  -2 7739.54 324.009   1
  -2  -4  -2 10570.2 342.314   1
  -2   4  -2 7452.62 309.875   1
   2   4   2 10521.0 353.829   1
   2   4   2 11061.0 389.259   1
   2  -4   2 8000.53 328.595   1
   2   4   2 10367.8 336.428   1
  -2  -4  -2 10389.0 350.653   1
  -3  -4   0 1491.09 74.9672   1
  -3  -4   0 1534.96 101.754   1
   3   4   0 1450.53 98.2297   1
   3   4   0 1549.05 125.761   1
   3  -4   0 1357.60 122.595   1
   3  -4   0 1443.08 111.846   1
  -3  -4   0 1495.73 105.147   1
  -3   4   0 1102.79 117.255   1
  -3   4   0 1174.75 120.334   1
   3   4   0 1484.86 103.707   1
  -6  -2  -2 27462.0 878.704   1
  -6  -2  -2 28627.7 940.946   1
   6   2   2 27522.1 870.524   1
   6   2   2 27425.6 884.441   1
  -6  -2  -2 27573.0 875.898   1
   6   2   2 27303.6 886.228   1
   6   2   2 27381.3 869.156   1
  -6   2  -2 28999.6 969.538   1
   6  -2   2 29007.8 949.372   1
   6  -2   2 28869.7 963.079   1
   8  -1  -4 81426.0 2906.76   1
   8  -1  -4 76316.3 2736.35   1
   8   1  -4 83270.5 2955.25   1
   8   1  -4 78810.1 2778.10   1
  -8  -1   4 80540.5 2859.53   1
  -8  -1   4 80600.1 2854.14   1
  -8   1   4 81618.8 2909.54   1
   3  -4  -3 6021.62 233.311   1
  -3  -4   3 5257.41 225.945   1
  -3   4   3 6420.33 239.054   1
  -3   4   3 7092.04 264.920   1
   3  -4  -3 6531.02 218.440   1
   3   4  -3 4618.59 219.145   1
   3   4  -3 5193.44 222.979   1
   4  -3  -7 830.488 78.4862   1
   4  -3  -7 774.188 71.6890   1
   4   3  -7 272.310 80.8219   1
   4   3  -7 439.313 93.2027   1
  -4   3   7 713.550 70.0691   1
  -4   3   7 778.492 77.2738   1
  -4   3   7 921.215 80.4056   1
   4  -3  -7 757.337 82.4682   1
  -4  -3   7 352.710 88.2529   1
  -4   3   7 861.212 87.9304   1
  -4  -3   7 162.462 98.8736   1
  -2   4   4 207.499 67.7371   1
  -2   4   4 280.695 66.8207   1
   2   4  -4 95.9822 70.2603   1
   2   4  -4 125.258 81.5708   1
   2  -4  -4 244.294 72.8261   1
   2  -4  -4 283.223 62.1807   1
  -2   4   4 152.191 41.1617   1
  -2   4   4 247.439 60.7180   1
  -2  -4   4 93.6172 73.3531   1
   1   0   9 2779.47 132.797   1
   1   0   9 2748.22 111.787   1
  -1   0  -9 2825.49 106.228   1
   1   0   9 3018.70 125.516   1
  -3   1  10 4614.69 163.867   1
  -3  -1  10 3843.02 157.936   1
  -3  -1  10 3708.55 192.031   1
  -3  -1  10 3844.61 170.657   1
   3  -1 -10 4543.53 162.789   1
  -3   1  10 4236.93 151.037   1
   3  -1 -10 4432.81 152.779   1
   3   1 -10 3959.55 159.969   1
  -3   1  10 4414.89 137.322   1
   3   1 -10 3894.43 178.058   1
   8   1  -3 850.774 89.2561   1
   8  -1  -3 684.889 96.6318   1
   8  -1  -3 870.185 96.0253   1
   8   1  -3 693.490 68.7236   1
   8   1  -3 827.306 93.0469   1
  -8   1   3 593.478 95.8314   1
  -8  -1   3 736.735 88.8329   1
  -8  -1   3 455.210 89.1518   1
  -6  -3   3 44167.1 1461.64   1
   6   3  -3 43432.2 1460.85   1
   6  -3  -3 43061.6 1459.04   1
  -6   3   3 42503.0 1431.59   1
  -6  -3   3 44226.4 1480.34   1
  -6   3   3 42254.1 1436.15   1
   6  -3  -3 42007.9 1423.72   1
   8   0  -6 19348.0 653.826   1
  -8   0   6 18765.2 616.915   1
  -8   0   6 19168.5 642.121   1
   4  -2  -9 5925.78 209.319   1
   4  -2  -9 5989.10 216.412   1
   4   2  -9 6022.15 195.887   1
   4   2  -9 6150.49 238.604   1
  -4   2   9 5961.98 202.536   1
  -4   2   9 6073.74 206.623   1
  -4  -2   9 6346.26 238.552   1
  -4  -2   9 5710.97 276.984   1
  -6   3   2 6203.83 250.691   1
  -6  -3   2 6405.32 228.249   1
  -6  -3   2 6195.04 240.310   1
   6   3  -2 6240.27 240.705   1
   6  -3  -2 5890.35 224.620   1
   6  -3  -2 6124.54 257.924   1
   5   1   5 35166.0 1111.43   1
   5   1   5 34876.9 1155.86   1
  -5   1  -5 38481.5 1267.29   1
  -5   1  -5 36707.6 1202.01   1
  -5  -1  -5 34798.6 1109.01   1
  -5  -1  -5 34290.3 1082.83   1
   5   1   5 34920.9 1114.97   1
   5  -1   5 36979.7 1248.05   1
   5  -1   5 39098.2 1274.47   1
   0   3   7 2301.90 96.1861   1
   0  -3   7 1852.26 120.682   1
   0   3   7 2227.45 85.3772   1
   0  -3   7 1874.88 113.729   1
   0  -3  -7 2398.26 100.720   1
   0   3  -7 2029.95 122.453   1
   0   3  -7 2192.78 131.229   1
   0   3  -7 1970.22 129.670   1
   6   1  -9 184.203 63.4213   1
  -6  -1   9 126.301 57.7170   1
  -6   1   9 103.311 55.2843   1
  -6   1   9 29.6409 52.9034   1
   6  -1  -9 82.0374 43.6320   1
   6  -1  -9 27.7546 46.1124   1
   6  -1  -9 83.7668 67.0049   1
   1  -2   8 898.609 99.6981   1
   1  -2   8 883.892 86.5131   1
   1  -2   8 872.545 100.253   1
  -1   2  -8 969.653 82.4684   1
  -1   2  -8 847.446 72.9157   1
  -1   2  -8 708.855 98.5786   1
   1  -2   8 937.486 81.7005   1
   0  -4   4 140.103 76.4642   1
   0   4   4 64.5732 50.4651   1
   0  -4  -4 105.591 61.8712   1
   0   4  -4 201.247 70.0632   1
   0   4  -4 155.747 73.4711   1
   0  -4  -4 103.262 51.2586   1
   0   4   4 84.0711 58.8589   1
   0   4   4 98.4227 65.4006   1
   8   1  -5 43815.1 1482.65   1
   8   1  -5 44942.0 1529.45   1
  -8   1   5 47978.6 1633.76   1
   8  -1  -5 48520.6 1646.03   1
  -8  -1   5 44440.7 1516.97   1
  -8  -1   5 44355.0 1510.58   1
   8  -1  -5 47006.2 1600.24   1
   1   0 -10 79.9850 48.9943   1
   1   0 -10 129.612 43.6973   1
  -1   0  10 115.222 61.5472   1
  -1   0  10 107.905 47.2068   1
  -1   0  10 119.040 42.4736   1
  -5  -2  -4 33201.4 1031.86   1
   5   2   4 34196.4 1054.83   1
   5   2   4 34107.9 1059.02   1
  -5  -2  -4 33392.7 1036.02   1
   5   2   4 32294.3 1040.62   1
  -5   2  -4 29387.2 920.035   1
  -5   2  -4 28457.0 981.327   1
   5  -2   4 27915.2 938.359   1
   5  -2   4 29823.0 1020.71   1
   7  -2  -6 125165. 4653.50   1
   7  -2  -6 122578. 4573.24   1
  -7  -2   6 122058. 4566.17   1
  -7   2   6 122560. 4571.34   1
  -7  -2   6 118774. 4459.57   1
   7   2  -6 110127. 4151.23   1
  -2  -1  10 5281.96 198.969   1
  -2   1  10 6410.71 194.296   1
  -2   1  10 6563.07 201.393   1
  -2  -1  10 5464.05 198.055   1
  -2  -1  10 4922.06 157.596   1
  -2  -1  10 4552.33 209.293   1
   2   1 -10 5290.47 193.422   1
   2  -1 -10 6327.74 197.172   1
   2   1 -10 5032.48 200.551   1
   6  -3  -4 12730.0 436.385   1
  -6  -3   4 11173.5 398.722   1
  -6   3   4 13207.5 445.970   1
  -6   3   4 12099.9 408.728   1
  -6  -3   4 10736.3 369.693   1
   6  -3  -4 12175.3 418.924   1
   6   3  -4 10303.8 382.824   1
  -5   0  10 90.6577 63.9738   1
  -5   0  10 43.3888 57.7458   1
   5   0 -10 75.8812 60.9065   1
   5   0 -10 85.8575 48.8282   1
  -5   0  10 120.658 50.9571   1
  -4  -1  10 350.010 79.6741   1
   4  -1 -10 549.578 74.6545   1
  -4   1  10 635.128 57.1878   1
   4  -1 -10 558.179 63.1497   1
   4   1 -10 394.063 85.0069   1
  -4  -1  10 5.27948 97.4493   1
  -4  -1  10 530.757 70.0359   1
  -8   0   1 -56.937 40.1546   1
  -8   0   1 35.0000 49.0303   1
   8   0  -1 29.8146 46.8594   1
   8   0  -1 -20.042 53.6779   1
   7   0   2 -9.9435 47.0051   1
  -7   0  -2 44.6656 56.3500   1
   7   0   2 39.4948 45.6526   1
   7   0   2 32.6225 58.1155   1
   7  -1  -8 1060.52 112.699   1
  -7  -1   8 926.249 116.326   1
  -7   1   8 1086.61 96.9898   1
   7   1  -8 952.379 108.205   1
   7  -1  -8 969.315 76.9083   1
  -7  -1   8 1043.76 102.725   1
   1   2  -9 8126.52 283.498   1
  -1  -2   9 7342.79 311.465   1
  -1   2   9 7818.30 222.590   1
   1   2  -9 7749.23 278.440   1
   1  -2  -9 8556.23 240.732   1
  -1  -2   9 8245.70 269.937   1
   1   2  -9 7880.74 282.890   1
  -1  -2   9 7920.92 272.682   1
   1  -2  -9 7786.93 221.252   1
  -1  -2   9 8135.30 287.331   1
   8   1  -2 1424.58 77.9992   1
   8  -1  -2 1789.04 121.574   1
   8  -1  -2 1748.14 127.782   1
   8   1  -2 1515.05 110.859   1
   8   1  -2 1609.33 105.082   1
  -8  -1   2 1346.04 99.6226   1
  -8  -1   2 1433.45 102.530   1
  -8   1   2 1739.30 100.670   1
  -8   1   2 1844.39 123.059   1
  -3   4  -1 7566.89 306.104   1
   3  -4   1 7069.50 274.490   1
   3  -4   1 7298.97 296.765   1
  -3   4  -1 7794.36 308.612   1
   6   0   4 45.4215 51.2943   1
   6   0   4 37.4019 63.2390   1
  -6   0  -4 42.9103 53.4581   1
   6   0   4 98.9816 48.3625   1
  -6   0  -4 82.0340 48.6188   1
  -6  -3   1 20321.0 670.043   1
  -6  -3   1 22051.0 705.581   1
  -6   3   1 26478.9 863.181   1
   6   3  -1 20242.3 684.639   1
   6   3  -1 20377.7 690.374   1
   6  -3  -1 22102.7 730.911   1
   6  -3  -1 25450.8 838.437   1
  -6  -2   8 9065.65 343.402   1
  -6  -2   8 9261.09 335.128   1
  -6   2   8 10208.1 352.629   1
  -6   2   8 9287.35 324.758   1
   6   2  -8 9413.23 344.144   1
   6  -2  -8 9781.15 331.980   1
   6  -2  -8 9853.97 324.737   1
   5  -3   2 362.471 94.3905   1
   5   3   2 552.301 66.9158   1
   5   3   2 613.938 62.9168   1
   5   3   2 523.507 74.5392   1
  -5  -3  -2 460.848 63.8981   1
  -5  -3  -2 418.817 74.7456   1
  -5  -3  -2 498.907 68.0469   1
  -5   3  -2 569.371 96.7523   1
   5  -3   2 638.386 89.0728   1
   3   4  -4 2198.16 139.861   1
   3  -4  -4 1978.26 118.254   1
   3   4  -4 2137.08 131.199   1
  -3   4   4 1800.54 94.0153   1
  -3   4   4 1917.70 120.396   1
  -3   4   4 1831.92 110.049   1
  -3  -4   4 2418.13 140.299   1
   7   2   0 1704.42 100.974   1
   7   2   0 1907.27 116.146   1
  -7  -2   0 1445.68 97.1910   1
   7  -2   0 1716.08 118.097   1
   7  -2   0 1576.84 121.353   1
   7   2   0 1475.04 86.7148   1
   7   2   0 1579.37 113.792   1
  -7   2   0 1510.79 117.438   1
  -7  -2   0 1618.14 114.560   1
  -7  -2   0 1539.86 108.994   1
   3  -3   5 228.991 74.7202   1
  -3  -3  -5 239.138 38.2591   1
  -3   3  -5 184.306 62.5747   1
  -3   3  -5 334.952 78.0365   1
   1  -1   9 4402.66 173.384   1
   1  -1   9 4804.05 191.034   1
  -1   1  -9 4869.08 192.001   1
  -1   1  -9 4456.66 171.089   1
   1  -1   9 3713.79 167.875   1
   8   1  -6 9442.11 348.628   1
  -8  -1   6 8537.18 351.952   1
   8  -1  -6 9470.51 356.917   1
  -8   1   6 9209.39 344.830   1
  -8  -1   6 10050.1 365.259   1
  -6  -3   5 75133.1 2663.54   1
  -6  -3   5 72636.7 2593.45   1
  -6   3   5 72882.5 2575.89   1
  -6   3   5 73810.7 2605.36   1
   6   3  -5 76066.1 2705.48   1
   6  -3  -5 74081.7 2618.19   1
   6  -3  -5 73128.7 2576.09   1
  -2   3  -6 31873.4 1045.25   1
  -2  -3  -6 30164.8 916.547   1
  -2   3  -6 31769.9 1050.75   1
  -2  -3  -6 30959.2 939.878   1
   2   3   6 30334.2 910.698   1
   2  -3   6 31747.9 1050.65   1
   2   3   6 32320.9 982.631   1
   8   0  -7 205.095 84.7830   1
  -8   0   7 166.916 78.9307   1
  -8   0   7 228.214 82.5137   1
  -2   4  -3 994.949 107.788   1
  -2  -4  -3 363.674 76.7830   1
  -2   4  -3 1111.01 111.115   1
   2   4   3 226.608 96.8888   1
   2  -4   3 1094.79 111.045   1
   2   4   3 463.000 64.4411   1
  -1  -1  10 19516.6 592.448   1
  -1  -1  10 19372.9 645.275   1
  -1  -1  10 19423.8 629.051   1
  -1   1  10 19900.4 572.831   1
   1   1 -10 19412.1 611.001   1
  -1   1  10 19672.3 573.742   1
  -1  -1  10 19492.6 615.339   1
   1   1 -10 19614.2 631.834   1
   1  -1 -10 19639.8 569.709   1
   1  -1 -10 19762.0 579.823   1
   1   4   4 8813.15 297.312   1
  -1   4  -4 10194.1 368.121   1
  -1  -4  -4 8319.22 298.774   1
   1   4   4 8291.81 283.551   1
  -1   4  -4 10607.9 380.685   1
  -1  -4  -4 7655.94 271.347   1
   1   4   4 8522.70 321.287   1
   1  -4   4 10607.8 377.329   1
  -5  -2   9 2219.53 133.856   1
  -5  -2   9 2262.99 145.085   1
  -5   2   9 2103.13 109.525   1
  -5   2   9 2112.58 122.217   1
   5  -2  -9 2045.88 111.160   1
   5  -2  -9 2133.30 130.286   1
   5  -2  -9 2258.33 112.350   1
   5   2  -9 2385.94 110.555   1
   5   2  -9 2306.31 141.863   1
  -5   2   9 1995.88 101.841   1
  -5  -1  10 80.5149 63.9261   1
  -5   1  10 109.593 52.7066   1
  -5   1  10 67.3306 47.4894   1
   5   1 -10 85.1238 56.6615   1
   5  -1 -10 68.0044 56.2987   1
   5  -1 -10 131.770 47.8718   1
   5   1 -10 40.3965 27.0219   1
  -5  -1  10 -91.281 65.4543   1
  -4  -4   2 38646.0 1298.35   1
  -4   4   2 39382.5 1332.02   1
   4  -4  -2 39247.6 1282.90   1
   4  -4  -2 39308.9 1332.47   1
   4   4  -2 38392.2 1287.68   1
   4   4  -2 37671.3 1285.65   1
  -4   4   2 38800.1 1321.60   1
   8  -1  -1 2266.16 133.669   1
  -8   1   1 2438.72 139.452   1
  -8   1   1 2373.68 110.864   1
  -8  -1   1 3025.43 154.094   1
   8  -1  -1 2530.94 152.940   1
  -8  -1   1 3010.86 131.620   1
   8   1  -1 2773.25 152.119   1
   8   1  -1 2628.00 109.151   1
   8   1  -1 2848.41 145.533   1
   7  -1   2 286.768 80.2376   1
   7  -1   2 312.890 68.0219   1
   7   1   2 215.695 66.2344   1
  -7   1  -2 356.058 78.2611   1
  -7  -1  -2 204.457 67.0460   1
  -7  -1  -2 172.925 57.9381   1
   7   1   2 176.199 41.3073   1
  -7   1  -2 367.947 32.7209   1
   7   1   2 154.692 55.8832   1
   7   1   2 199.561 65.9030   1
  -1   4   5 9883.78 324.670   1
  -1   4   5 9080.29 245.796   1
  -1   4   5 9827.96 320.787   1
  -1   4   5 9673.99 334.056   1
   1  -4  -5 9562.81 321.112   1
   1   4  -5 8924.77 342.836   1
   1  -4  -5 9387.76 311.570   1
   1   4  -5 9082.83 329.577   1
  -1  -4   5 8390.96 330.145   1
   2  -4  -5 950.132 97.8623   1
  -2   4   5 752.107 79.8191   1
  -2   4   5 857.835 91.5319   1
  -2   4   5 1004.01 111.547   1
  -2  -4   5 1149.10 113.891   1
  -2   4   5 872.238 58.9411   1
   2   4  -5 1134.49 100.899   1
   2   4  -5 1213.09 122.626   1
   2  -4  -5 804.689 77.3058   1
  -2   3   8 10793.7 336.288   1
  -2   3   8 10276.8 340.714   1
   2  -3  -8 10430.2 328.213   1
   2  -3  -8 10565.9 328.377   1
  -2   3   8 10531.0 330.180   1
  -2  -3   8 9766.67 332.678   1
   2   3  -8 10068.7 364.348   1
  -2  -3   8 9325.61 335.837   1
  -2  -3   8 9710.81 349.468   1
   2   3  -8 10083.3 343.718   1
  -4  -4   1 -10.813 57.6784   1
   4  -4  -1 36.8689 68.7341   1
   4   4  -1 7.35699 59.7619   1
   4  -4  -1 76.0615 57.6291   1
  -4   4   1 65.1017 69.8145   1
  -4   4   1 45.0600 67.3520   1
  -4  -4   1 72.3208 42.9816   1
   5  -3  -7 1409.35 102.123   1
   5  -3  -7 1625.30 106.037   1
   5  -3  -7 1435.85 110.488   1
   5   3  -7 1770.04 130.016   1
   5   3  -7 1753.13 120.154   1
  -5   3   7 1461.82 109.179   1
  -5   3   7 1496.91 105.562   1
  -5   3   7 1414.01 89.6816   1
  -5  -3   7 2170.94 139.735   1
  -5  -3   7 1700.56 125.582   1
  -5   3   7 1450.76 105.666   1
  -4  -3  -4 50.1103 52.5840   1
  -4   3  -4 -37.171 71.2714   1
   4   3   4 115.357 39.4680   1
   4   3   4 79.8113 44.2644   1
   4   3   4 40.6797 50.8635   1
  -4  -3  -4 61.6552 41.8567   1
   4  -3   4 28.9250 70.8503   1
   3  -3  -8 15.9689 44.4385   1
   3  -3  -8 21.5149 50.1411   1
  -3   3   8 66.4976 50.5659   1
  -3   3   8 31.1483 44.8100   1
  -3   3   8 40.4304 48.8643   1
   3   3  -8 15.7208 63.4468   1
   3   3  -8 0.41567 65.9211   1
  -3  -3   8 142.667 62.4350   1
  -3  -3   8 113.278 61.4210   1
  -6  -3   0 18262.3 602.042   1
  -6  -3   0 18585.5 609.501   1
   6   3   0 18477.7 597.232   1
   6   3   0 18749.6 615.376   1
  -6  -3   0 18193.5 584.235   1
  -6   3   0 17258.0 601.855   1
   6   3   0 18669.5 609.565   1
   6  -3   0 18059.5 604.204   1
   6  -3   0 17933.5 615.894   1
  -4   4   3 94.7717 80.3517   1
  -4  -4   3 102.552 71.6793   1
  -4   4   3 10.3653 72.3596   1
  -4   4   3 109.284 49.9624   1
   4   4  -3 141.953 72.6747   1
   4  -4  -3 31.4586 68.7956   1
   4  -4  -3 96.4187 59.1779   1
   4   4  -3 252.452 74.0905   1
  -7   2   7 5710.40 227.769   1
  -7  -2   7 6033.36 251.109   1
  -7  -2   7 6480.19 270.415   1
   7  -2  -7 5930.71 253.863   1
   7   2  -7 6620.74 269.566   1
   7  -2  -7 5275.70 211.514   1
   6   1   4 18582.4 528.464   1
  -6  -1  -4 19323.2 604.822   1
  -6  -1  -4 19310.9 607.530   1
  -6   1  -4 17898.4 603.368   1
   6  -1   4 19184.2 651.103   1
  -6   1  -4 17234.5 582.110   1
   6   1   4 19626.1 611.389   1
   6  -1   4 16990.4 570.657   1
   6  -1   4 17309.4 581.845   1
   6   1   4 17745.2 583.809   1
   6   1   4 19154.8 605.123   1
  -7   0   9 33582.1 1133.86   1
   7   0  -9 34621.1 1146.79   1
  -7   0   9 33714.6 1116.19   1
  -8   0   0 7331.11 268.798   1
   8   0   0 6943.82 274.551   1
   8   0   0 7216.08 280.434   1
  -3  -4  -2 55696.9 1899.49   1
  -3   4  -2 55605.7 1947.52   1
  -3   4  -2 55057.2 1936.55   1
   3   4   2 57212.5 1933.72   1
   3   4   2 57682.6 1958.52   1
   3  -4   2 55997.1 1968.71   1
  -3  -4  -2 57675.2 1969.21   1
   3  -4   2 55557.9 1934.62   1
   4   0   7 998.905 69.9342   1
   4   0   7 1155.98 81.6459   1
  -4   0  -7 1055.26 94.5448   1
  -4   0  -7 1091.19 78.9903   1
   4   0   7 1104.44 99.9034   1
  -1  -3  -7 788.048 53.2902   1
  -1   3  -7 1170.32 99.4841   1
   1   3   7 782.689 55.1063   1
   1  -3   7 1402.94 98.0450   1
  -1   3  -7 1463.31 101.814   1
  -1  -3  -7 824.098 57.2382   1
   0   0  10 36424.7 1146.07   1
   0   0  10 36665.7 1142.95   1
   0   0  10 35151.4 1148.08   1
   0   0 -10 36140.0 1132.09   1
   0   2  -9 23274.9 760.116   1
   0  -2   9 24412.6 801.834   1
   0   2  -9 23683.9 767.695   1
   0  -2   9 23837.5 779.283   1
   0   2  -9 23142.9 765.669   1
   0  -2   9 24304.8 796.264   1
   0  -2   9 24317.4 770.739   1
   3   0   8 48.0579 51.5708   1
   3   0   8 21.7261 48.3679   1
   3   0   8 93.1321 46.4409   1
  -3   0  -8 122.023 40.7259   1
  -3   0  -8 90.1521 45.4110   1
  -6   0  10 4419.73 192.358   1
  -6   0  10 4755.57 208.220   1
   6   0 -10 4058.44 174.357   1
   6   0 -10 4617.38 130.869   1
   6   2   3 29138.1 943.024   1
   6  -2   3 25720.4 859.789   1
   6   2   3 29407.6 927.677   1
   6   2   3 30221.5 956.483   1
   6  -2   3 25914.5 895.022   1
  -6  -2  -3 29828.3 946.478   1
  -6  -2  -3 29243.9 920.148   1
  -6   2  -3 25802.0 865.337   1
  -4   4   0 3060.25 166.299   1
   4  -4   0 2879.93 169.232   1
   4  -4   0 2593.00 148.284   1
   4   4   0 1954.84 140.520   1
  -4  -4   0 2111.82 102.609   1
  -4   4   0 2998.49 162.738   1
  -1   3   8 4239.28 176.145   1
   1  -3  -8 4458.69 151.666   1
  -1   3   8 4280.47 146.280   1
  -1   3   8 4643.60 154.630   1
  -1  -3   8 4019.06 180.307   1
   1   3  -8 4514.84 183.648   1
  -1  -3   8 4180.82 187.464   1
  -1  -3   8 4180.61 173.173   1
   0   4   5 24736.3 789.725   1
   0   4   5 25304.1 802.880   1
   0   4   5 25427.6 840.635   1
   0  -4   5 25599.3 864.192   1
   0   4  -5 26156.6 889.966   1
   0  -4  -5 24340.5 787.446   1
   0  -4  -5 25210.4 814.392   1
   0   4  -5 26003.9 872.890   1
  -3  -4   5 12073.2 429.763   1
  -3   4   5 10870.0 337.406   1
  -3   4   5 11344.1 386.756   1
  -3   4   5 10878.8 380.237   1
  -3   4   5 11340.1 393.326   1
   3   4  -5 11900.6 431.135   1
   3  -4  -5 11420.5 399.306   1
   3   4  -5 11630.7 403.094   1
   3  -4  -5 10855.6 375.886   1
  -3   2  -7 9278.34 328.608   1
  -3   2  -7 10084.4 353.076   1
   3  -2   7 9693.07 343.242   1
   3   2   7 8558.59 227.213   1
   3  -2   7 9935.12 343.393   1
  -3   2  -7 10277.7 321.552   1
  -6  -3   6 7883.75 299.300   1
  -6   3   6 6667.00 251.903   1
   6  -3  -6 6012.44 244.948   1
  -6  -3   6 7538.59 297.203   1
   6   3  -6 7689.27 303.684   1
   6  -3  -6 6400.01 246.986   1
  -6   3   6 6313.74 238.400   1
  -8  -1   7 5185.78 230.992   1
  -8   1   7 6148.17 243.901   1
   8   1  -7 4709.18 228.926   1
   8  -1  -7 6142.33 246.397   1
  -4   3   8 774.174 75.1246   1
  -4   3   8 887.807 70.8249   1
  -4   3   8 1046.27 92.1628   1
   4  -3  -8 679.294 73.9253   1
   4  -3  -8 1086.73 97.0577   1
   4  -3  -8 708.147 90.4752   1
  -4   3   8 823.722 82.7117   1
   4   3  -8 754.838 98.8125   1
  -4  -3   8 697.242 95.3612   1
  -4  -3   8 822.702 105.425   1
   4   3  -8 522.656 96.6030   1
  -4   2  -6 3812.45 180.267   1
  -4  -2  -6 3426.65 122.264   1
  -4  -2  -6 3262.53 118.874   1
   4   2   6 3231.04 118.912   1
   4   2   6 3308.17 119.181   1
   4   2   6 3535.21 158.438   1
   4  -2   6 3558.12 176.415   1
  -4   2  -6 4242.38 153.175   1
  -4  -4   4 4104.65 197.679   1
   4   4  -4 3807.55 196.968   1
  -4   4   4 4886.28 202.601   1
  -4   4   4 4833.58 197.273   1
   4  -4  -4 4649.49 181.002   1
   4  -4  -4 4785.65 199.614   1
   4   4  -4 3841.18 210.486   1
  -4   4   4 4560.30 169.374   1
  -5   0  -6 790.017 80.9869   1
  -5   0  -6 636.684 72.7539   1
   5   0   6 655.205 72.7523   1
   5   0   6 622.128 85.4042   1
   7   2   1 2200.66 127.250   1
   7   2   1 2244.49 133.005   1
  -7  -2  -1 2030.55 115.518   1
  -7  -2  -1 2174.84 131.702   1
  -7  -2  -1 2156.56 128.234   1
  -7   2  -1 2442.06 140.518   1
   7   2   1 2143.44 106.010   1
   7  -2   1 2504.83 139.008   1
   7  -2   1 2519.45 150.995   1
   7   2   1 2059.10 112.744   1
   7   1  -9 19064.7 640.473   1
  -7  -1   9 19504.4 646.198   1
   7  -1  -9 18096.5 596.896   1
   7  -1  -9 18698.3 586.948   1
  -7   1   9 18136.8 616.596   1
  -7  -1   9 18890.0 644.757   1
   2   0   9 557.921 67.6231   1
   2   0   9 571.898 59.4679   1
  -2   0  -9 439.832 52.5666   1
   2   0   9 323.998 64.4266   1
  -2   2  -8 1045.67 88.8641   1
  -2   2  -8 1076.15 107.988   1
  -2   2  -8 1038.45 80.1342   1
   2  -2   8 1242.62 93.1281   1
   2  -2   8 1073.40 93.4413   1
   2  -2   8 1293.86 108.120   1
   2  -2   8 1084.42 95.7780   1
  -8  -1   0 22.7631 59.4804   1
   8   1   0 100.686 58.9651   1
  -8   1   0 65.9619 57.8483   1
   8   1   0 16.0695 38.5943   1
   8   1   0 39.0092 68.0018   1
  -8   1   0 -7.3226 28.2498   1
   8  -1   0 113.723 65.8869   1
   8  -1   0 110.830 57.7856   1
  -8   0   8 47995.1 1646.91   1
  -8   0   8 48934.5 1681.08   1
   8   0  -8 47994.3 1654.83   1
  -5  -3  -3 127.103 56.7285   1
  -5  -3  -3 84.0668 51.2367   1
  -5   3  -3 168.132 74.1248   1
   5  -3   3 22.2310 75.6006   1
   5   3   3 82.6471 48.0503   1
   5   3   3 20.2746 57.6338   1
   5  -3   3 125.263 73.0942   1
  -3   0  11 15009.6 480.685   1
  -3   0  11 15084.1 496.378   1
   3   0 -11 14773.8 477.171   1
   3   0 -11 14539.4 457.731   1
  -3   0  11 14807.8 467.361   1
   4   1   7 6856.18 214.654   1
   4   1   7 6971.46 219.170   1
  -4   1  -7 6830.77 246.953   1
  -4   1  -7 6708.87 236.963   1
  -4  -1  -7 7331.60 217.385   1
  -4  -1  -7 6811.37 217.071   1
   4  -1   7 6504.80 244.175   1
   4  -1   7 6812.54 248.076   1
  -7   0  -3 594.926 80.0294   1
   7   0   3 604.932 75.6065   1
   7   0   3 646.753 87.1545   1
   7   0   3 760.108 93.2634   1
  -7   0  -3 826.116 86.1739   1
   0   1  10 32440.8 945.849   1
   0  -1 -10 31551.1 917.451   1
   0   1 -10 29782.3 968.282   1
   0  -1  10 29970.2 971.382   1
   0   1  10 32408.4 941.421   1
   0  -1  10 29761.7 979.301   1
   0  -1  10 30315.0 984.676   1
   0   1 -10 30699.1 991.327   1
   0  -1 -10 32040.1 928.379   1
  -8  -2   4 14889.4 524.171   1
   8  -2  -4 16681.7 569.493   1
  -8   2   4 15992.1 549.365   1
   8  -2  -4 15856.9 540.507   1
   8   2  -4 14819.3 506.574   1
  -8  -2   4 15378.8 524.640   1
  -3  -1  -8 17548.7 501.045   1
  -3   1  -8 20213.9 645.114   1
  -3  -1  -8 17515.4 500.952   1
  -3   1  -8 20409.3 642.812   1
   3  -1   8 20526.5 620.447   1
   3   1   8 17654.5 507.133   1
   3  -1   8 20160.4 639.300   1
   3  -1   8 20452.7 642.692   1
  -4   0  11 -12.151 58.3471   1
  -4   0  11 66.2383 50.4804   1
   4   0 -11 44.4264 62.6499   1
   4   0 -11 23.9911 42.7347   1
  -4   0  11 39.4794 44.4980   1
  -6  -1  10 5558.09 218.760   1
  -6   1  10 5204.41 201.398   1
   6  -1 -10 5236.78 167.296   1
   6  -1 -10 5410.10 222.537   1
   6   1 -10 5592.10 181.698   1
   6   1 -10 5474.06 219.639   1
  -6   1  10 5327.92 212.843   1
  -6  -1  10 5240.25 230.163   1
  -6  -3  -1 942.567 76.7491   1
  -6  -3  -1 824.025 84.9243   1
  -6   3  -1 1310.42 118.033   1
  -6  -3  -1 899.306 93.7463   1
   6   3   1 883.115 83.3854   1
   6  -3   1 1103.57 111.250   1
   6  -3   1 1027.24 126.419   1
   6   3   1 1003.57 96.1564   1
   6   3   1 817.543 76.6632   1
   6   3   1 879.660 91.5423   1
   3  -2 -10 10790.6 335.977   1
  -3  -2  10 10996.5 344.415   1
  -3   2  10 10712.6 336.377   1
  -3   2  10 11132.2 347.541   1
   3   2 -10 11327.0 405.048   1
   3  -2 -10 10791.4 340.779   1
  -3  -2  10 11969.8 411.309   1
  -3  -2  10 11156.0 390.404   1
   8   2  -3 9081.89 323.381   1
   8  -2  -3 8577.02 326.947   1
   8  -2  -3 7939.55 318.348   1
   8   2  -3 8820.05 305.153   1
  -8  -2   3 9227.52 328.941   1
  -8   2   3 8638.79 329.859   1
  -8  -2   3 9023.15 331.236   1
  -4  -4  -1 23207.6 768.312   1
  -4  -4  -1 23300.6 775.661   1
  -4   4  -1 24816.5 845.791   1
   4   4   1 23077.6 761.444   1
   4   4   1 24480.3 807.852   1
   4  -4   1 23497.8 798.148   1
  -4  -4  -1 23875.4 726.666   1
  -4   4  -1 24174.9 823.063   1
   4  -4   1 24936.1 852.923   1
   2   4   4 820.676 73.0338   1
   2   4   4 885.961 84.9801   1
   2  -4   4 473.351 101.003   1
  -2  -4  -4 741.153 75.0801   1
  -2  -4  -4 847.049 88.3309   1
  -2   4  -4 411.243 99.1323   1
  -2   4  -4 466.269 107.082   1
  -5  -2  -5 91248.2 3185.62   1
  -5   2  -5 91219.6 3305.96   1
   5   2   5 94005.7 3303.74   1
   5   2   5 90261.4 3241.09   1
   5   2   5 90687.2 3188.08   1
   5  -2   5 91825.2 3319.06   1
  -5   2  -5 94727.8 3289.49   1
  -5  -2  -5 94413.5 3315.74   1
   6  -2  -9 61384.6 2077.29   1
  -6  -2   9 62253.8 2175.19   1
  -6  -2   9 57799.8 2018.13   1
  -6   2   9 60449.3 2073.85   1
   6  -2  -9 60946.6 2099.80   1
   6   2  -9 58822.7 2056.92   1
   6   2  -9 59247.3 2000.42   1
  -8   2   5 30841.2 1043.39   1
   8  -2  -5 30585.0 1039.57   1
  -8  -2   5 29080.5 984.647   1
  -8  -2   5 31385.9 1075.83   1
   8   2  -5 31117.4 1042.00   1
   8  -2  -5 30724.5 1031.72   1
  -2   2  10 15149.9 446.510   1
  -2   2  10 15086.2 444.252   1
  -2  -2  10 14952.0 467.333   1
  -2   2  10 15055.8 478.202   1
   2   2 -10 14128.4 491.055   1
   2  -2 -10 15462.0 459.368   1
  -2  -2  10 14857.2 495.275   1
  -2  -2  10 15218.7 501.453   1
   0   3   8 11775.5 331.828   1
   0  -3  -8 11961.3 339.719   1
   0   3   8 11036.9 310.507   1
   0  -3  -8 11381.7 326.854   1
   0   3  -8 10889.3 401.940   1
   0  -3   8 9359.71 341.702   1
   0  -3   8 10189.4 361.869   1
  -2   0  11 222.246 54.3901   1
   2   0 -11 84.6877 46.0952   1
   2   0 -11 145.225 52.9550   1
  -2   0  11 142.487 48.2804   1
  -2   0  11 140.451 59.7617   1
   4   2 -10 12481.9 450.514   1
   4  -2 -10 12686.3 405.681   1
  -4  -2  10 11961.5 429.639   1
  -4   2  10 13138.6 403.935   1
  -4   2  10 13168.8 416.710   1
  -4  -2  10 12440.1 437.514   1
  -4   2  10 12956.3 412.475   1
   4  -2 -10 13018.8 416.101   1
  -2   4   6 11556.5 407.464   1
  -2   4   6 12009.8 394.207   1
   2  -4  -6 11213.5 368.881   1
   2  -4  -6 10956.6 373.378   1
  -2   4   6 11292.9 334.982   1
  -2   4   6 11180.6 369.147   1
   2   4  -6 11281.3 391.828   1
  -2  -4   6 12048.6 424.577   1
   2   4  -6 11866.5 437.005   1
   1   4   5 60093.1 2024.21   1
   1  -4   5 60320.0 2116.17   1
  -1  -4  -5 58518.6 1977.02   1
  -1   4  -5 60294.1 2120.31   1
  -1  -4  -5 59724.3 2024.47   1
  -1   4  -5 58008.4 2024.09   1
   1   4   5 60002.6 2025.51   1
   1   4   5 58302.6 2032.23   1
   3  -4   3 2969.30 181.777   1
  -3  -4  -3 3756.15 162.854   1
  -3   4  -3 2919.13 181.793   1
  -3   4  -3 2639.28 177.477   1
  -3  -4  -3 3815.27 162.287   1
   3   4   3 3651.58 156.259   1
   3   4   3 4048.31 171.046   1
   5  -1   6 5831.39 215.454   1
   5  -1   6 5638.41 214.791   1
  -5   1  -6 5903.09 222.404   1
  -5   1  -6 5970.43 219.901   1
  -5  -1  -6 4502.06 171.609   1
  -5  -1  -6 4730.94 169.726   1
   5   1   6 4711.04 172.657   1
   5   1   6 4616.08 218.286   1
   5   1   6 4585.95 175.987   1
  -4   4   5 801.235 70.2219   1
  -4   4   5 746.345 110.869   1
  -4   4   5 850.536 89.9002   1
  -4  -4   5 805.647 106.998   1
   4  -4  -5 903.680 105.668   1
   4   4  -5 859.286 114.599   1
   4   4  -5 934.266 107.777   1
  -7   2   8 2564.54 158.402   1
   7  -2  -8 2650.79 144.869   1
  -7  -2   8 3295.27 169.639   1
  -7  -2   8 3488.08 179.052   1
   7   2  -8 3441.06 175.033   1
   7  -2  -8 2709.99 147.531   1
   8  -2  -2 15310.1 529.847   1
   8  -2  -2 15032.9 522.210   1
  -8   2   2 16054.2 541.711   1
  -8  -2   2 14672.2 511.789   1
   8   2  -2 15451.2 508.771   1
   8   2  -2 14447.6 486.312   1
   8   2  -2 14487.5 473.664   1
   8   0   1 -95.745 62.4801   1
   8   0   1 -10.797 65.4833   1
  -8   0  -1 -14.864 38.3050   1
  -8   0  -1 -52.895 65.1971   1
   1  -4  -6 1115.08 89.0027   1
   1   4  -6 1654.18 127.764   1
   1   4  -6 1328.88 109.273   1
   1  -4  -6 1125.94 98.6987   1
  -1   4   6 1160.76 89.2077   1
  -1   4   6 1156.52 56.6209   1
  -1  -4   6 1535.55 117.496   1
  -1   4   6 1357.83 102.920   1
  -1   4   6 1124.88 94.7902   1
   7   3  -3 21099.8 725.916   1
  -7  -3   3 19834.1 665.200   1
  -7  -3   3 20667.6 692.308   1
   7  -3  -3 20352.4 705.698   1
   7  -3  -3 21048.4 713.655   1
  -7   3   3 20027.5 692.439   1
   2  -1   9 26414.2 856.855   1
  -2   1  -9 25827.3 839.161   1
  -2   1  -9 26398.2 847.174   1
   2  -1   9 26378.9 853.502   1
   2  -1   9 26410.1 827.740   1
  -9   0   4 71.7203 66.8396   1
  -9   0   4 69.5962 60.1866   1
   9   0  -4 98.4985 74.2433   1
  -5   3   8 768.709 83.8437   1
   5  -3  -8 857.517 84.5088   1
   5  -3  -8 733.413 80.5907   1
   5   3  -8 1040.62 105.925   1
   5   3  -8 816.512 109.605   1
   5  -3  -8 765.711 94.3839   1
  -5  -3   8 1059.11 107.064   1
  -5  -3   8 982.262 115.822   1
  -5   3   8 787.945 77.0095   1
  -5   3   8 725.838 79.8980   1
  -5   3   8 915.473 92.0551   1
   6   0   5 99.8081 65.6201   1
  -6   0  -5 11.5593 50.4607   1
   6   0   5 55.1703 57.4780   1
  -6   0  -5 34.1228 55.1260   1
   6   0   5 69.6180 53.6254   1
  -6   3   7 2756.25 153.772   1
  -6  -3   7 2584.99 166.893   1
   6   3  -7 2882.09 164.461   1
   6  -3  -7 2992.70 166.857   1
   6  -3  -7 2573.16 139.242   1
  -6  -3   7 2651.79 159.612   1
  -6   3   7 2681.81 137.106   1
  -5   0  11 9487.08 319.911   1
  -5   0  11 10055.7 358.260   1
  -5   0  11 9546.26 333.273   1
   5   0 -11 10405.3 353.498   1
   5   0 -11 9013.79 306.877   1
  -7  -3   4 2238.48 150.447   1
   7   3  -4 2248.41 148.321   1
   7  -3  -4 2708.41 162.345   1
   7  -3  -4 2695.93 145.645   1
  -7   3   4 3003.11 164.516   1
  -8  -1   8 3728.30 181.391   1
   8  -1  -8 3040.13 171.338   1
  -8  -1   8 3524.39 184.795   1
  -8   1   8 3242.14 167.154   1
   8   1  -8 3822.06 191.689   1
   3  -1 -11 2282.57 114.953   1
   3   1 -11 1749.63 103.675   1
   3   1 -11 1790.39 124.969   1
  -3  -1  11 1653.43 105.415   1
  -3  -1  11 1612.40 138.708   1
  -3  -1  11 1917.26 115.202   1
  -3   1  11 2126.59 82.1196   1
  -3   1  11 2227.21 103.481   1
  -3   1  11 2213.17 105.077   1
   3  -1 -11 2156.08 101.856   1
  -9   0   5 29846.2 1014.17   1
   9   0  -5 30539.4 1030.14   1
  -9   0   5 31142.1 1027.97   1
  -7  -1  -3 7722.97 276.391   1
   7   1   3 8492.17 303.240   1
  -7   1  -3 8816.54 302.593   1
   7   1   3 7697.74 224.634   1
   7   1   3 7921.09 278.267   1
   7  -1   3 8826.07 300.806   1
   7  -1   3 9121.16 332.926   1
  -7  -1  -3 7665.70 269.390   1
   7   1   3 7997.35 275.313   1
  -3   4   6 30514.0 1022.11   1
   3  -4  -6 29624.5 991.857   1
  -3   4   6 30467.3 1007.59   1
   3  -4  -6 30720.9 1024.46   1
  -3   4   6 30619.6 1015.95   1
  -3   4   6 30902.4 968.077   1
   3   4  -6 34205.7 1154.22   1
   3   4  -6 34148.6 1144.31   1
  -3  -4   6 32659.1 1098.21   1
   3  -3   6 -69.517 54.2295   1
   3   3   6 2.72538 27.7091   1
   3   3   6 48.5606 39.8575   1
  -3   3  -6 -22.277 44.5790   1
  -3  -3  -6 6.17317 29.6498   1
  -3   3  -6 30.0484 67.3225   1
  -3  -3  -6 59.8894 33.2575   1
  -5  -4   2 16483.1 528.919   1
  -5  -4   2 16159.0 551.538   1
   5   4  -2 16164.8 551.505   1
   5  -4  -2 15426.8 549.551   1
  -5   4   2 15982.6 556.310   1
  -5   4   2 15457.3 543.587   1
   5  -4  -2 15337.1 519.922   1
   1  -2   9 17011.4 553.926   1
  -1   2  -9 17250.4 551.759   1
  -1   2  -9 17163.5 576.527   1
  -1   2  -9 16387.3 549.039   1
   1  -2   9 16854.4 548.707   1
   1  -2   9 16775.9 565.544   1
   1  -2   9 17321.7 575.759   1
  -4  -1  11 19752.8 658.469   1
  -4   1  11 20418.5 645.886   1
  -4   1  11 19712.7 623.964   1
  -4  -1  11 19609.7 641.208   1
  -4  -1  11 19624.0 640.819   1
   4  -1 -11 19452.0 612.938   1
   4  -1 -11 20089.9 638.917   1
   4   1 -11 19594.7 649.720   1
   9   0  -3 9045.05 336.852   1
   9   0  -3 8848.14 326.904   1
  -9   0   3 8424.44 302.393   1
  -9   0   3 9083.39 331.797   1
  -7  -3   2 2354.49 141.005   1
   7   3  -2 2431.73 137.640   1
  -7  -3   2 2489.83 135.972   1
   7  -3  -2 2187.98 150.976   1
   7  -3  -2 2228.88 140.155   1
  -7   3   2 2032.26 147.388   1
   5   4  -3 8903.70 334.320   1
  -5  -4   3 9385.14 370.051   1
   5  -4  -3 9770.41 365.395   1
  -5   4   3 9097.31 313.277   1
  -5   4   3 10222.8 371.690   1
   5  -4  -3 9777.62 343.272   1
  -5   4   3 9879.48 360.437   1
  -8  -2   6 1758.68 141.469   1
  -8  -2   6 1847.38 141.107   1
  -8   2   6 2628.93 148.647   1
   8  -2  -6 2179.45 148.538   1
   8   2  -6 1930.00 138.235   1
  -1   0 -10 -18.291 31.8783   1
   1   0  10 158.189 49.4873   1
  -1   0 -10 162.605 40.7964   1
   1   0  10 162.964 48.5196   1
   1   0  10 99.3807 40.1520   1
  -2  -3  -7 5113.74 153.902   1
  -2  -3  -7 5398.31 160.968   1
  -2   3  -7 5230.40 217.577   1
  -2   3  -7 5058.44 201.906   1
   2   3   7 5466.20 161.412   1
   2  -3   7 5226.94 215.891   1
  -4   3  -5 20453.4 660.230   1
   4  -3   5 20169.5 685.151   1
   4   3   5 22337.0 678.872   1
   4   3   5 20715.9 646.069   1
   4   3   5 21608.3 646.640   1
  -4   3  -5 20335.9 683.689   1
  -4  -3  -5 21633.8 660.093   1
  -4  -3  -5 17326.7 537.337   1
  -5  -4   1 47398.3 1557.68   1
   5   4  -1 45667.0 1540.35   1
  -5  -4   1 46808.6 1599.12   1
  -5   4   1 44082.6 1524.38   1
   5  -4  -1 43608.1 1484.33   1
   5  -4  -1 44202.2 1535.14   1
  -1  -2  10 7027.23 264.776   1
  -1  -2  10 7174.07 271.362   1
   1  -2 -10 6593.80 187.156   1
   1  -2 -10 6627.21 185.985   1
  -1   2  10 6846.21 191.059   1
  -1   2  10 6715.29 188.223   1
  -7   0  10 68.5310 73.2376   1
   7   0 -10 96.7149 66.3249   1
  -7  -3   5 597.325 117.279   1
  -7  -3   5 525.178 99.5065   1
   7   3  -5 773.050 101.034   1
   7  -3  -5 495.781 101.232   1
   7  -3  -5 815.725 102.667   1
  -7   3   5 539.079 93.7516   1
  -2  -1  11 9429.01 283.562   1
  -2  -1  11 10034.4 335.260   1
  -2  -1  11 9932.22 355.328   1
  -2  -1  11 10179.0 336.619   1
  -2   1  11 10507.6 313.482   1
   2   1 -11 9890.59 332.338   1
   2  -1 -11 10701.0 320.090   1
   2   1 -11 9654.15 337.127   1
  -2   1  11 11136.5 338.643   1
  -5  -2  10 13601.8 481.755   1
   5  -2 -10 13715.8 451.127   1
   5  -2 -10 13277.6 436.554   1
   5   2 -10 13726.0 474.329   1
  -5  -2  10 13987.9 491.225   1
  -5   2  10 13244.1 434.888   1
  -5   2  10 13625.4 419.621   1
  -5   2  10 13627.4 444.545   1
  -9   0   6 52.1689 56.8026   1
  -9   0   6 53.9199 70.1118   1
   9   0  -6 9.34394 71.0906   1
   0   4   6 808.577 65.9210   1
   0   4   6 833.230 108.220   1
   0   4   6 848.178 78.0849   1
   0  -4  -6 723.330 76.1712   1
   0  -4  -6 835.112 78.6946   1
   0   4  -6 529.446 91.8055   1
   0  -4   6 540.713 104.637   1
   0   4  -6 798.493 104.580   1
   8   2  -1 1368.06 112.912   1
  -8   2   1 1049.62 116.476   1
  -8  -2   1 1567.63 119.623   1
   8  -2  -1 1148.67 120.256   1
   8   2  -1 1417.33 97.0949   1
   8  -2  -1 1170.40 110.810   1
   8   2  -1 1379.12 100.065   1
  -7   2  -2 4997.06 232.705   1
   7  -2   2 4697.20 202.223   1
   7   2   2 5108.49 192.169   1
   7   2   2 5161.12 214.202   1
  -7  -2  -2 5049.00 200.274   1
   7   2   2 5126.63 178.247   1
   7  -2   2 4552.09 223.848   1
  -7  -2  -2 4765.09 186.487   1
   7   2   2 5279.01 201.804   1
   4   4   2 5432.65 203.740   1
  -4   4  -2 4806.11 237.695   1
  -4  -4  -2 5400.65 218.362   1
  -4  -4  -2 5403.26 206.574   1
   4   4   2 5581.17 216.600   1
   4  -4   2 4590.57 230.043   1
   4  -4   2 4973.28 242.697   1
   1   0 -11 2059.43 108.324   1
  -1   0  11 1856.79 118.283   1
  -1   0  11 1944.48 101.607   1
  -1   0  11 2013.96 98.9446   1
   5   4  -4 936.499 99.8171   1
   5   4  -4 486.744 92.0093   1
  -5  -4   4 386.475 95.0219   1
   5  -4  -4 318.518 84.6039   1
   5  -4  -4 466.326 88.8822   1
  -5   4   4 273.924 85.3252   1
  -5   4   4 540.595 73.0407   1
  -5   4   4 372.051 86.8188   1
   8   1   1 14131.6 418.079   1
  -8  -1  -1 13550.7 462.812   1
   8  -1   1 12691.0 455.058   1
   8   1   1 13425.2 455.737   1
  -8   1  -1 13652.9 398.145   1
   8  -1   1 13437.1 456.381   1
  -8   1  -1 13765.5 468.815   1
   8   1   1 14369.9 486.335   1
   3  -3  -9 664.122 66.2424   1
  -3   3   9 704.763 71.6981   1
  -3   3   9 773.805 74.4574   1
   3  -3  -9 602.952 67.2498   1
  -3   3   9 721.114 68.7019   1
  -3  -3   9 649.384 79.9736   1
  -3  -3   9 275.159 83.2095   1
   3   3  -9 484.478 94.0769   1
   3   3  -9 745.579 91.7872   1
  -3  -3   9 473.302 96.6538   1
  -6  -2  -4 4782.64 187.834   1
   6   2   4 4679.30 188.039   1
   6  -2   4 5751.21 231.269   1
   6  -2   4 6257.58 268.933   1
   6   2   4 4835.10 181.745   1
  -6  -2  -4 4778.26 182.101   1
   6   2   4 5219.39 219.357   1
  -6   2  -4 5989.48 232.628   1
  -6   2  -4 6174.59 196.003   1
  -9   0   2 179.047 76.5567   1
   9   0  -2 192.134 74.3663   1
   9   0  -2 162.085 77.9473   1
  -9   0   2 153.807 56.3995   1
   2  -3  -9 3884.97 145.543   1
   2  -3  -9 3777.36 136.505   1
  -2   3   9 3723.11 139.956   1
  -2   3   9 3894.24 147.339   1
  -2   3   9 3797.64 158.128   1
  -2  -3   9 3809.59 158.277   1
   2   3  -9 3931.10 207.870   1
   2   3  -9 3775.36 165.053   1
  -2  -3   9 3373.96 167.057   1
  -2  -3   9 3578.38 188.495   1
  -9  -1   4 12481.5 434.267   1
   9  -1  -4 11838.1 430.941   1
   9  -1  -4 11812.5 435.161   1
   9   1  -4 12359.4 431.315   1
   9   1  -4 11635.3 387.473   1
  -9   1   4 11855.8 431.638   1
  -9   1   4 11653.4 394.372   1
  -9  -1   4 11869.7 414.331   1
   6   1   5 26094.2 815.011   1
   6   1   5 26100.1 819.644   1
  -6   1  -5 21879.3 736.112   1
  -6  -1  -5 25050.4 797.312   1
  -6   1  -5 22747.3 761.117   1
  -6  -1  -5 25984.9 810.227   1
   6  -1   5 21845.5 742.900   1
   6  -1   5 22763.9 789.235   1
   6  -1   5 22715.2 760.285   1
   6   1   5 25737.7 862.101   1
  -7  -3   1 829.310 86.1778   1
  -7  -3   1 706.023 92.7165   1
   7   3  -1 912.855 104.811   1
   7  -3  -1 1154.75 120.935   1
  -7   3   1 1053.86 117.391   1
   7  -3  -1 1234.01 108.807   1
  -5   1  11 3030.13 137.652   1
  -5  -1  11 3757.86 158.915   1
  -5  -1  11 3616.52 181.084   1
   5  -1 -11 3205.71 154.585   1
   5  -1 -11 3024.22 146.541   1
   5   1 -11 3956.52 186.211   1
   6  -3   2 124.167 79.0657   1
  -6  -3  -2 113.053 63.2471   1
  -6  -3  -2 125.309 58.6243   1
  -6   3  -2 109.329 81.1638   1
  -6  -3  -2 151.683 56.7012   1
   6   3   2 92.8140 51.7439   1
   6   3   2 123.516 63.5919   1
   6   3   2 173.111 57.1647   1
   6  -3   2 169.315 81.4749   1
   8   0  -9 129.690 74.8691   1
  -8   0   9 101.877 80.6841   1
  -8   0   9 128.791 73.4329   1
  -9   1   5 2164.84 149.938   1
   9   1  -5 1780.54 131.053   1
   9  -1  -5 2144.15 148.963   1
   9  -1  -5 2066.41 145.346   1
  -9  -1   5 1510.52 126.233   1
  -9   1   5 1979.80 127.437   1
  -9  -1   5 1487.77 129.474   1
  -4   4   6 701.016 99.2231   1
   4  -4  -6 438.624 90.4605   1
  -4   4   6 643.838 85.4105   1
  -4   4   6 649.072 63.5985   1
  -4  -4   6 456.970 100.344   1
   4   4  -6 321.099 82.8947   1
   4   4  -6 282.839 102.234   1
   9   1  -3 2428.73 142.309   1
   9  -1  -3 2410.99 141.339   1
   9  -1  -3 2243.27 147.997   1
   9   1  -3 2332.22 143.966   1
   9   1  -3 2201.12 110.406   1
  -9   1   3 1911.57 109.528   1
  -9   1   3 2097.64 146.347   1
  -9  -1   3 2276.32 137.075   1
  -9  -1   3 2117.75 126.251   1
   5  -4   0 1312.21 132.684   1
   5   4   0 1610.93 122.567   1
  -5   4   0 1283.03 128.693   1
  -5  -4   0 1534.19 92.0611   1
  -5  -4   0 1371.05 121.728   1
   5  -4   0 1580.25 125.019   1
  -4   3   9 645.480 70.2231   1
  -4   3   9 595.190 78.4647   1
   4  -3  -9 575.623 75.2999   1
   4  -3  -9 646.407 70.8915   1
  -4   3   9 363.875 74.2896   1
   4   3  -9 280.496 80.2000   1
   4   3  -9 263.572 92.1727   1
  -4  -3   9 231.780 94.0285   1
  -4  -3   9 288.589 84.8104   1
  -1   1 -10 6787.64 237.765   1
   1  -1  10 6887.33 247.926   1
   1  -1  10 7289.31 259.049   1
   1  -1  10 6759.33 252.975   1
  -1   1 -10 7022.11 257.498   1
   1   3   8 1908.56 64.4835   1
  -1  -3  -8 1764.59 58.0770   1
  -1  -3  -8 1835.34 63.1293   1
   1   3   8 1816.86 57.6177   1
  -1   3  -8 1730.40 139.927   1
   1  -3   8 1648.74 116.807   1
  -8   2   7 2814.30 155.562   1
   8   2  -7 2710.57 162.013   1
  -8  -2   7 2616.93 161.915   1
  -8  -2   7 2900.59 166.168   1
   8  -2  -7 2309.96 135.680   1
   8  -2  -7 2653.07 156.704   1
   6   0 -11 25.4468 61.8655   1
  -6   0  11 -58.308 63.3993   1
  -6   0  11 -52.314 57.2440   1
   5   3   4 35.1472 39.7566   1
   5  -3   4 40.7975 65.4616   1
  -5  -3  -4 48.6003 41.8759   1
   5   3   4 14.5195 49.1158   1
  -5  -3  -4 16.9304 44.7530   1
  -5   3  -4 -15.169 63.9922   1
   5  -3   4 82.9679 66.9890   1
   5   3   4 8.37634 47.0187   1
   7   3  -6 1883.93 139.248   1
  -7  -3   6 2199.88 141.670   1
  -7  -3   6 2248.31 144.838   1
   7  -3  -6 1213.93 122.755   1
  -7   3   6 1421.63 120.954   1
   7   1 -10 -44.587 64.6918   1
   7  -1 -10 1.93374 42.3428   1
   7  -1 -10 97.1391 57.8139   1
  -7   1  10 120.996 64.6703   1
  -7  -1  10 70.2430 58.9140   1
  -7  -1  10 -10.709 69.0169   1
  -2  -4  -5 630.464 70.8094   1
  -2  -4  -5 642.739 75.2175   1
   2  -4   5 983.486 111.347   1
   2   4   5 739.901 75.8200   1
  -2   4  -5 1177.90 107.844   1
   2   4   5 598.058 64.4185   1
   2   4   5 554.622 40.9885   1
  -9   0   7 16022.2 570.927   1
  -9   0   7 15842.6 551.885   1
   9   0  -7 15759.7 555.687   1
   9  -1  -6 875.410 117.163   1
  -9   1   6 1021.56 115.121   1
  -9   1   6 771.001 92.1394   1
  -9  -1   6 1316.41 118.044   1
  -9  -1   6 1156.81 103.990   1
   9   1  -6 1177.62 117.454   1
   5   4  -5 9654.03 367.376   1
   5   4  -5 9742.67 355.727   1
  -5  -4   5 9653.57 362.588   1
   5  -4  -5 9824.76 349.530   1
  -5   4   5 9242.88 336.001   1
  -5   4   5 9886.30 328.108   1
  -5   4   5 9606.91 345.483   1
  -1   3   9 1391.86 72.5056   1
   1  -3  -9 1516.55 75.2455   1
  -1   3   9 1401.01 102.510   1
  -1   3   9 1384.39 72.7070   1
   1  -3  -9 1274.17 71.6643   1
  -1  -3   9 1316.09 103.734   1
  -1  -3   9 1396.96 97.8867   1
   1   3  -9 1175.21 129.656   1
  -1  -3   9 1247.47 121.515   1
   3   4   4 9954.45 288.472   1
  -3  -4  -4 10366.6 343.639   1
  -3  -4  -4 10695.9 361.439   1
  -3   4  -4 10040.5 389.115   1
   3  -4   4 10284.9 392.563   1
   3   4   4 10517.7 346.526   1
  -1  -1  11 63.4715 51.1417   1
  -1   1  11 334.072 41.3335   1
  -1  -1  11 83.9347 73.9389   1
  -1  -1  11 61.2366 63.5099   1
   1   1 -11 114.236 63.2974   1
   1  -1 -11 181.835 38.6286   1
   1  -1 -11 213.889 43.9150   1
  -1   1  11 358.832 42.6861   1
  -1  -1  11 165.475 69.2750   1
   7  -2  -9 133.118 79.4404   1
   7   2  -9 43.0061 74.1370   1
   7  -2  -9 26.9171 57.1724   1
  -7  -2   9 82.2108 73.7921   1
  -7  -2   9 69.0554 74.8780   1
  -7   2   9 150.210 61.3001   1
   9  -1  -2 751.483 102.625   1
  -9   1   2 873.481 101.901   1
  -9  -1   2 891.169 92.5278   1
  -9  -1   2 772.425 84.4703   1
   9   1  -2 697.460 94.4263   1
  -9   1   2 793.293 73.3483   1
   9   1  -2 705.386 71.7489   1
   9   1  -2 830.381 100.358   1
   9  -1  -2 667.106 106.190   1
   7   0   4 3.81258 63.6592   1
  -7   0  -4 102.436 58.4499   1
   7   0   4 117.687 61.4736   1
  -7   0  -4 49.3246 62.4529   1
   7   0   4 254.215 71.9767   1
   8   0   2 19665.0 669.411   1
  -8   0  -2 20624.3 687.208   1
   8   0   2 20958.8 691.802   1
  -2   4   7 3232.21 143.424   1
   2  -4  -7 2990.41 131.428   1
  -2   4   7 2934.17 111.636   1
  -2   4   7 3022.37 144.046   1
   2  -4  -7 3210.29 153.384   1
  -2   4   7 3316.88 166.567   1
  -2  -4   7 3487.40 180.280   1
   2   4  -7 3113.64 189.137   1
   2   4  -7 3308.72 171.098   1
   6  -3  -8 -47.200 52.4797   1
  -6   3   8 -18.663 59.3175   1
   6  -3  -8 -10.403 54.4038   1
  -6  -3   8 -70.831 70.5224   1
  -6  -3   8 -64.206 65.0452   1
   6   3  -8 6.77482 67.6085   1
   6   3  -8 -9.3867 66.5046   1
  -4   0  -8 1133.68 83.8911   1
  -4   0  -8 1103.27 80.7379   1
   4   0   8 1007.02 79.9058   1
   4   0   8 1058.57 69.8604   1
   4   0   8 998.200 84.8163   1
   8   2   0 602.016 68.6326   1
   8   2   0 337.629 60.4186   1
   8  -2   0 337.278 90.6602   1
  -8   2   0 252.273 83.8214   1
   8   2   0 322.167 69.3365   1
  -8  -2   0 373.982 80.3309   1
   8  -2   0 256.343 86.4303   1
   9   0  -1 16700.2 577.495   1
  -9   0   1 16756.2 567.877   1
   9   0  -1 16579.9 564.350   1
  -9   0   1 16763.0 523.280   1
  -8   1   9 11222.7 393.825   1
   8  -1  -9 11048.7 364.954   1
   8   1  -9 12125.9 427.072   1
   8  -1  -9 10913.6 394.120   1
  -8  -1   9 12793.0 449.138   1
  -8  -1   9 11510.1 412.021   1
  -8   1   9 10956.4 400.733   1
   4   2   7 665.887 49.3343   1
  -4   2  -7 973.468 66.9924   1
  -4  -2  -7 672.544 47.4250   1
   4  -2   7 1129.57 104.930   1
  -4   2  -7 981.888 106.872   1
  -4  -2  -7 695.328 50.1008   1
   4   2   7 618.010 49.0422   1
   0  -5   0 27.7470 41.3754   1
   0   5   0 39.3582 76.6068   1
   0  -5   0 71.4430 65.9619   1
   0   5   0 43.0998 72.5977   1
   7   3   0 5132.84 204.704   1
   7   3   0 5623.92 229.057   1
   7   3   0 5212.47 210.113   1
  -7  -3   0 5586.09 217.817   1
  -7  -3   0 5479.19 227.308   1
   7  -3   0 5626.69 240.758   1
  -7   3   0 5665.63 245.447   1
   0  -2  10 99.6806 59.1709   1
   0  -2  10 9.95210 63.9590   1
   0  -2  10 58.4788 62.1583   1
   0   2 -10 90.2729 69.4283   1
  -1  -4  -6 240.702 57.8390   1
   1   4   6 221.279 58.7384   1
  -1  -4  -6 185.478 60.3564   1
   1   4   6 177.158 65.1574   1
   1   4   6 361.164 40.0499   1
   1   4   6 303.093 81.9589   1
  -1   4  -6 606.315 84.1250   1
  -1   4  -6 628.976 94.9950   1
   1  -4   6 347.452 89.3248   1
   3  -2   8 47.0869 62.6291   1
  -3   2  -8 34.3114 40.7380   1
  -3   2  -8 25.3045 62.0269   1
   6  -2 -10 5836.95 233.672   1
   6  -2 -10 5561.03 208.987   1
  -6  -2  10 5360.97 243.533   1
  -6   2  10 5614.80 228.744   1
  -6  -2  10 6253.95 251.490   1
   6   2 -10 5976.05 206.524   1
   6   2 -10 6497.04 268.793   1
   3  -4  -7 1185.50 101.554   1
   3  -4  -7 1334.25 95.0279   1
  -3   4   7 1235.96 99.7704   1
  -3   4   7 1471.06 98.1539   1
  -3   4   7 1308.40 98.8164   1
  -3   4   7 1241.50 80.0735   1
   3   4  -7 953.809 125.400   1
   3   4  -7 1045.21 114.111   1
  -3  -4   7 1062.53 117.413   1
   0   5   1 287.698 77.6319   1
   0   5  -1 403.785 97.8602   1
   0   5  -1 829.719 91.2353   1
   0  -5  -1 302.583 80.7418   1
   0  -5  -1 260.511 43.7846   1
   0   5   1 202.468 92.6290   1
   0  -5   1 495.641 90.4561   1
  -3   0  -9 506.312 56.7267   1
   3   0   9 323.045 62.4113   1
   3   0   9 305.683 61.0706   1
   3   0   9 619.672 63.3513   1
  -1   4   7 59.1517 53.2391   1
  -1   4   7 240.700 71.8910   1
  -1   4   7 119.014 48.8994   1
   1  -4  -7 90.7172 54.8711   1
  -1  -4   7 -72.295 71.3875   1
   1   4  -7 148.208 72.9392   1
   1   4  -7 54.1496 61.8623   1
   5   0   7 16699.1 537.188   1
   5   0   7 16501.8 459.802   1
   5   0   7 16798.3 533.571   1
  -5   0  -7 16502.2 533.989   1
  -5   0  -7 16986.7 535.213   1
  -1   5   0 14077.5 500.387   1
  -1   5   0 13979.8 484.466   1
  -1  -5   0 12929.0 475.911   1
   1  -5   0 11858.8 377.849   1
   1  -5   0 13642.8 483.929   1
   1   5   0 12887.8 470.326   1
   1   5   0 12842.3 446.090   1
   1   5  -1 3754.08 177.887   1
  -1  -5   1 3668.96 181.921   1
   1  -5  -1 2747.20 110.315   1
   1  -5  -1 3016.38 165.647   1
  -1   5   1 2784.02 169.995   1
   1   5  -1 3592.87 192.050   1
  -1   5   1 2755.35 155.309   1
   5   4   1 5714.34 231.305   1
  -5  -4  -1 5763.50 202.009   1
  -5  -4  -1 5752.39 236.307   1
  -5   4  -1 5321.63 249.839   1
   5  -4   1 5097.31 212.650   1
   5  -4   1 4603.11 233.370   1
  -6   1  11 429.786 77.7738   1
   6   1 -11 444.407 35.8882   1
  -6  -1  11 464.838 97.7156   1
  -6  -1  11 372.708 90.6161   1
   6   1 -11 464.511 101.854   1
   6  -1 -11 275.003 84.0125   1
  -4  -4  -3 1925.12 120.856   1
  -4  -4  -3 1834.04 115.839   1
   4   4   3 1959.91 116.981   1
   4  -4   3 2664.84 174.156   1
   4  -4   3 2817.04 171.517   1
  -4   4  -3 2972.58 173.452   1
   4   4   3 1943.05 120.392   1
   0   0  11 23.2327 36.2263   1
   0   0  11 30.0016 50.7824   1
   0   0 -11 21.9191 35.5875   1
   0   0 -11 -13.351 28.4963   1
   0   0  11 48.7631 40.1832   1
   5  -3  -9 112.727 65.7655   1
   5  -3  -9 65.0509 63.6336   1
   5  -3  -9 71.5038 56.6446   1
  -5   3   9 76.7017 62.7915   1
  -5   3   9 52.9801 56.7391   1
  -5   3   9 140.133 58.7697   1
  -5   3   9 44.7886 64.8197   1
   5   3  -9 157.714 79.6537   1
   5   3  -9 107.039 66.5882   1
  -5  -3   9 157.824 75.3612   1
  -5  -3   9 63.4543 72.6252   1
  -9  -1   7 23372.1 798.304   1
  -9  -1   7 24857.6 833.910   1
  -9   1   7 23622.8 808.402   1
  -9   1   7 24164.6 809.553   1
   9  -1  -7 24110.0 825.717   1
   9   1  -7 24277.4 828.780   1
  -5   2  -6 39697.0 1345.25   1
   5   2   6 36329.2 1219.00   1
   5   2   6 37297.5 1185.32   1
   5  -2   6 39515.6 1337.00   1
  -5  -2  -6 36493.8 1163.26   1
   5   2   6 36344.6 1156.90   1
  -5   2  -6 37945.5 1185.86   1
  -1  -5  -1 9908.57 377.648   1
   1   5   1 9285.42 334.470   1
   1  -5   1 10506.6 390.264   1
  -1   5  -1 10164.5 391.041   1
  -1   5  -1 10479.8 384.155   1
   1   5   1 8673.50 345.083   1
   1   5  -2 1337.25 127.550   1
   1  -5  -2 902.165 103.940   1
   1  -5  -2 953.769 60.3116   1
  -1   5   2 895.915 96.4474   1
   1   5  -2 1416.90 116.607   1
  -1  -5   2 1203.68 118.884   1
  -1   5   2 917.238 109.641   1
  -7  -3   7 10814.8 391.400   1
   7  -3  -7 9752.62 360.216   1
   7   3  -7 9552.34 370.025   1
  -7   3   7 9691.21 352.808   1
  -7  -3   7 10712.8 396.152   1
   0   5  -2 2069.67 141.463   1
   0   5  -2 1894.17 146.156   1
   0  -5  -2 1840.28 147.976   1
   0  -5   2 1891.64 144.170   1
   0   5   2 1777.13 135.375   1
   0   5   2 2104.31 142.743   1
  -7  -1  -4 4438.91 176.983   1
  -7  -1  -4 4588.56 180.113   1
   7  -1   4 4059.58 197.781   1
  -7   1  -4 4135.37 190.915   1
   7  -1   4 4129.16 193.089   1
   7   1   4 4539.29 196.928   1
   7   1   4 4253.97 125.960   1
   7   1   4 4537.31 195.847   1
   7   1   4 4284.30 171.882   1
   2  -2   9 3900.13 172.688   1
   2  -2   9 4008.73 188.141   1
  -2   2  -9 4053.52 165.457   1
  -2   2  -9 3834.40 187.372   1
  -8   1  -2 2467.35 141.792   1
   8  -1   2 2574.65 161.641   1
  -8  -1  -2 2518.07 143.527   1
   8   1   2 2606.75 95.6329   1
   8   1   2 2762.19 149.230   1
   8  -1   2 2560.71 159.979   1
   8   1   2 2417.10 141.783   1
  -5  -4   6 60.9374 79.2981   1
  -5   4   6 49.3975 54.9960   1
  -5   4   6 83.4830 76.6166   1
  -5   4   6 23.4038 60.1718   1
   5   4  -6 201.682 76.9487   1
   5   4  -6 114.902 67.3368   1
   4   1   8 32742.7 1007.51   1
   4   1   8 32399.2 987.146   1
  -4   1  -8 31299.2 1044.63   1
   4  -1   8 32703.0 1081.90   1
   4  -1   8 31725.2 1045.71   1
   4  -1   8 30182.5 936.169   1
  -4   1  -8 31463.4 1040.19   1
  -4  -1  -8 32927.3 1003.52   1
  -4  -1  -8 31803.8 969.731   1
  -8   2   8 684.449 87.8455   1
   8   2  -8 250.573 98.8428   1
   8  -2  -8 480.906 95.1764   1
   8  -2  -8 333.021 77.7091   1
  -8  -2   8 355.675 93.2890   1
  -8  -2   8 538.521 92.9130   1
   9   1  -1 1178.91 120.812   1
   9  -1  -1 1151.61 113.464   1
  -9   1   1 1115.94 111.989   1
   9  -1  -1 1264.33 123.886   1
   9   1  -1 1198.83 78.5947   1
   9   1  -1 1229.57 110.107   1
  -9   1   1 1269.13 83.8896   1
  -9  -1   1 1269.57 105.477   1
  -9  -1   1 1165.10 91.3059   1
   9   0  -8 44.2687 75.5387   1
  -9   0   8 -92.367 70.1925   1
  -9   0   8 -36.216 72.4595   1
  -3  -2  11 27.3907 41.5828   1
  -3  -2  11 52.3315 60.0374   1
  -3   2  11 93.9148 45.1098   1
   3   2 -11 37.1593 60.4339   1
  -3  -2  11 7.73316 54.8890   1
  -3   2  11 49.2452 46.7978   1
   3  -2 -11 37.2863 42.4290   1
   3  -2 -11 66.0516 44.9115   1
  -7  -2  -3 637.765 72.6317   1
  -7   2  -3 657.109 93.9176   1
   7   2   3 716.254 66.3154   1
   7   2   3 698.330 94.2169   1
   7  -2   3 632.788 110.070   1
   7   2   3 679.373 81.4112   1
   7  -2   3 744.130 107.556   1
   7   2   3 595.773 79.3755   1
  -7  -2  -3 748.155 81.4194   1
   0   3   9 1446.19 58.2289   1
   0   3   9 1485.01 54.9423   1
   0  -3  -9 1326.73 51.7628   1
   0  -3  -9 1540.69 60.5159   1
   0  -3   9 1562.10 133.489   1
   0   3  -9 1460.85 111.895   1
   0  -3   9 1479.73 101.732   1
   0  -3   9 1489.99 104.528   1
  -4   4   7 10319.2 359.259   1
  -4   4   7 10483.3 379.316   1
  -4   4   7 10486.8 337.640   1
   4   4  -7 10561.9 399.916   1
   4   4  -7 10893.2 390.596   1
  -4  -4   7 9738.03 370.968   1
  -2   5   1 1260.85 112.686   1
  -2  -5   1 933.986 126.674   1
   2  -5  -1 973.484 81.1029   1
   2  -5  -1 1005.08 117.854   1
   2   5  -1 570.026 118.602   1
   2   5  -1 726.758 103.035   1
  -2   5   1 1050.54 116.574   1
  -4  -2  11 7484.25 289.904   1
   4  -2 -11 6794.27 241.816   1
   4  -2 -11 6241.28 223.486   1
   4   2 -11 7356.09 281.780   1
  -4   2  11 6625.62 221.923   1
  -4   2  11 6722.39 231.588   1
  -4   2  11 6939.63 240.584   1
  -4  -2  11 6816.44 274.019   1
  -6  -4   3 7386.88 293.581   1
  -6  -4   3 7128.41 258.666   1
   6   4  -3 6893.31 274.263   1
   6  -4  -3 7225.77 293.345   1
   6  -4  -3 6716.88 269.516   1
  -6   4   3 6377.99 271.322   1
   6   3   3 7484.76 275.883   1
   6   3   3 7829.77 268.947   1
   6   3   3 8182.23 277.027   1
   6  -3   3 6179.96 270.889   1
   6  -3   3 6599.79 285.529   1
  -6  -3  -3 7621.16 272.291   1
  -6   3  -3 6076.70 268.238   1
  -6  -3  -3 7617.19 259.513   1
  -4   0  12 2692.85 132.323   1
   4   0 -12 2602.33 125.662   1
   4   0 -12 2686.35 151.589   1
  -4   0  12 3397.16 151.225   1
  -4   0  12 2941.52 157.451   1
  -3  -1  -9 15976.4 436.556   1
  -3  -1  -9 15714.6 436.057   1
   3  -1   9 14640.9 496.916   1
   3   1   9 16954.2 475.445   1
   3  -1   9 14202.7 484.678   1
   3   1   9 16670.5 461.934   1
   3  -1   9 14256.0 449.575   1
  -3   1  -9 14194.7 477.525   1
  -3   1  -9 14421.7 484.439   1
   2   0  10 162.417 45.4197   1
  -2   0 -10 176.373 46.7899   1
   2   0  10 205.817 53.6589   1
   2   0  10 170.750 53.1567   1
   3   0 -12 4.64509 49.5719   1
   3   0 -12 -17.932 40.9102   1
  -3   0  12 49.2183 53.5548   1
  -3   0  12 24.8130 43.1622   1
  -3   0  12 14.1205 49.6151   1
  -6  -4   2 638.102 83.3628   1
  -6  -4   2 432.536 95.2715   1
   6   4  -2 391.403 93.1991   1
   6  -4  -2 1037.76 118.144   1
   6  -4  -2 899.545 104.068   1
  -6   4   2 1045.68 111.034   1
  -5   1  -7 31108.4 1040.43   1
   5  -1   7 31863.4 1040.51   1
  -5   1  -7 31483.2 1030.23   1
   5  -1   7 32558.6 1079.41   1
   5   1   7 31980.1 1099.38   1
   5   1   7 31028.5 969.994   1
   5   1   7 30638.2 973.413   1
  -5  -1  -7 30970.9 982.389   1
   2  -5   0 17896.2 571.657   1
   2   5   0 18707.5 651.363   1
  -2   5   0 18257.9 632.191   1
  -2  -5   0 18238.2 617.363   1
   2  -5   0 17748.3 627.520   1
   2   5   0 19115.7 665.856   1
  -2   5   0 17574.8 627.462   1
   0   4   7 3851.26 148.928   1
   0   4   7 4267.32 187.607   1
   0   4   7 4001.28 159.346   1
   0  -4   7 4522.69 208.892   1
   0  -4  -7 3904.62 154.882   1
   0  -4  -7 3979.27 159.661   1
   0   4  -7 4232.25 207.106   1
   0   4  -7 4155.80 198.904   1
   3   3   7 11444.2 326.988   1
  -3   3  -7 10786.9 407.306   1
  -3  -3  -7 11117.5 317.271   1
  -3   3  -7 11354.9 388.011   1
  -3  -3  -7 11608.6 332.228   1
   3   3   7 11004.8 311.918   1
   3  -3   7 11148.9 413.385   1
  -6   0  -6 27.2222 58.9939   1
  -6   0  -6 58.4798 50.2266   1
   6   0   6 56.3890 62.3774   1
   6   0   6 171.083 74.6734   1
   6   0   6 37.0030 56.0788   1
   2   5  -2 1166.87 115.094   1
   2   5  -2 1144.25 121.733   1
  -2   5   2 1003.58 106.793   1
  -2   5   2 958.288 119.616   1
  -2  -5   2 1332.96 120.036   1
   2  -5  -2 1255.18 114.278   1
   8   0 -10 230.377 78.8759   1
  -8   0  10 135.270 79.3763   1
  -8   0  10 111.226 69.7094   1
   0  -1 -11 11929.9 328.040   1
   0   1 -11 12838.3 422.230   1
   0  -1 -11 11697.2 328.719   1
   0   1 -11 12571.4 417.165   1
   0  -1  11 12287.5 413.724   1
   0  -1  11 13135.2 436.630   1
   0  -1  11 12490.5 420.213   1
   0   1  11 12227.4 335.042   1
   0   1  11 12267.9 343.359   1
  -6  -4   4 8120.06 318.047   1
  -6  -4   4 7861.18 284.308   1
  -6   4   4 8111.45 311.757   1
   6   4  -4 8240.10 317.017   1
   6  -4  -4 8114.11 317.735   1
   6  -4  -4 7812.36 299.235   1
  -6   4   4 7486.05 281.194   1
   4   3   6 9016.84 280.984   1
   4   3   6 8544.13 262.124   1
  -4   3  -6 8340.88 289.367   1
   4   3   6 8312.94 281.094   1
  -4   3  -6 8284.58 314.314   1
  -4  -3  -6 8597.15 261.911   1
   4  -3   6 8344.52 315.807   1
  -2  -2  11 7644.91 253.275   1
  -2  -2  11 7974.38 306.339   1
   2   2 -11 7886.46 291.414   1
  -2   2  11 6861.84 214.609   1
  -2  -2  11 7754.05 285.979   1
  -2   2  11 6787.17 213.700   1
  -2   2  11 6542.58 234.296   1
   2  -2 -11 6898.84 215.667   1
   2  -2 -11 7106.15 220.765   1
  -9   0   0 2.52463 30.8490   1
   9   0   0 240.631 66.1745   1
  -9   0   0 -43.217 79.1355   1
   9   0   0 73.6978 72.2465   1
   7   0 -11 13511.3 384.907   1
   7   0 -11 12542.1 434.719   1
  -7   0  11 13294.5 472.731   1
  -7   0  11 12252.3 440.471   1
  -1  -5  -2 102.951 71.9932   1
   1   5   2 71.2742 68.5551   1
  -1   5  -2 112.661 79.1793   1
   1   5   2 61.8428 76.0963   1
   1  -5   2 3.15875 82.5021   1
  -1   5  -2 171.297 76.5536   1
   7   3   1 5676.12 231.882   1
   7   3   1 5382.94 217.942   1
  -7  -3  -1 5844.09 230.943   1
   7   3   1 5859.05 227.371   1
  -7  -3  -1 5732.96 238.545   1
   7  -3   1 6643.12 282.670   1
   7  -3   1 6708.87 275.754   1
  -7   3  -1 6622.91 271.427   1
  -1   5   3 81.0432 57.9087   1
   1   5  -3 -35.966 76.5263   1
  -1   5   3 113.816 67.4273   1
   1   5  -3 71.6337 74.1433   1
   1  -5  -3 52.3106 74.4844   1
  -1  -5   3 16.3281 74.4440   1
   8   2   1 2360.72 111.612   1
   8   2   1 2493.22 138.988   1
   8   2   1 2788.45 159.677   1
   8  -2   1 3410.40 170.997   1
   8  -2   1 3103.31 177.473   1
  -8   2  -1 3653.32 177.189   1
  -5   0  12 218.180 63.0719   1
  -5   0  12 256.601 71.3463   1
   5   0 -12 248.455 79.9229   1
  -5   0  12 68.1430 80.6385   1
   6  -4  -1 13169.5 485.282   1
  -6  -4   1 13896.5 473.126   1
  -6  -4   1 13674.9 447.811   1
  -6   4   1 13557.3 489.885   1
   6   4  -1 12890.8 467.096   1
   6  -4  -1 12437.9 450.847   1
   9  -2  -4 -31.139 72.6525   1
  -9   2   4 16.5391 73.6971   1
   9   2  -4 165.501 70.9498   1
  -9  -2   4 -12.150 67.4528   1
  -9  -2   4 63.0598 68.1396   1
   9  -2  -4 109.574 72.6051   1
  -6  -2  -5 19121.7 605.348   1
   6  -2   5 19813.0 687.178   1
   6   2   5 18162.5 621.761   1
  -6  -2  -5 18991.3 600.633   1
   6   2   5 18711.7 586.900   1
   6  -2   5 20402.4 716.905   1
   6   2   5 19715.9 617.407   1
  -6   2  -5 21142.7 717.806   1
  -6   2  -5 20508.1 597.257   1
  -2   3  -8 48.7971 79.9852   1
  -2   3  -8 84.8391 55.5471   1
   2  -3   8 140.095 78.9811   1
   0  -5   3 789.459 121.069   1
   0   5   3 1036.11 115.444   1
   0   5  -3 1024.16 116.156   1
   0   5   3 1075.25 106.752   1
   0   5  -3 921.072 121.694   1
   0  -5  -3 997.444 109.505   1
  -2   5  -1 8805.95 346.744   1
   2   5   1 9480.11 354.670   1
   2  -5   1 8391.98 337.472   1
   2   5   1 8020.58 328.194   1
   2  -5   1 8842.12 313.118   1
  -2  -5  -1 8974.28 339.492   1
  -2   5  -1 8721.37 348.721   1
  -5   2  11 19687.8 647.248   1
  -5   2  11 19576.6 643.436   1
  -5  -2  11 21341.0 709.397   1
   5  -2 -11 19932.5 648.372   1
   5  -2 -11 20138.3 665.814   1
   5   2 -11 21304.3 716.079   1
  -5  -2  11 21140.6 715.619   1
  -5   2  11 19553.9 593.899   1
  -2   0  12 8250.69 272.474   1
  -2   0  12 8541.08 280.532   1
  -2   0  12 8674.83 317.602   1
   2   0 -12 8603.10 297.761   1
   2   0 -12 8423.74 270.485   1
  -9   1   8 12175.7 434.054   1
  -9   1   8 11897.2 427.174   1
  -9  -1   8 11236.8 419.858   1
   9   1  -8 11326.9 431.075   1
   9  -1  -8 11794.7 434.580   1
   5   4   2 1192.71 112.038   1
   5  -4   2 2053.24 156.494   1
   5  -4   2 2152.75 151.246   1
  -5   4  -2 1809.52 153.292   1
  -9  -2   5 2808.81 173.876   1
  -9   2   5 3378.93 180.427   1
   9   2  -5 2904.38 166.584   1
   9  -2  -5 3640.26 190.360   1
  -9  -2   5 2760.50 165.430   1
   9  -2  -5 3409.90 184.801   1
   2  -5  -3 6447.67 208.449   1
   2   5  -3 6403.45 276.027   1
   2  -5  -3 6319.83 280.630   1
   2   5  -3 6680.71 277.918   1
  -2   5   3 6200.55 262.133   1
  -2   5   3 6410.56 252.687   1
  -2  -5   3 6080.31 268.098   1
  -8  -3   4 14502.5 529.105   1
   8   3  -4 15108.6 542.013   1
   8  -3  -4 15890.3 570.259   1
   8  -3  -4 15777.8 552.227   1
  -8   3   4 16311.1 573.693   1
  -3  -4  -5 7658.68 267.571   1
   3   4   5 8072.43 264.979   1
  -3   4  -5 7862.43 322.090   1
   3  -4   5 8174.67 324.916   1
   3   4   5 7636.04 235.992   1
  -3  -4  -5 8006.78 273.317   1
   3   4   5 7915.24 279.147   1
   9   2  -3 174.747 76.8326   1
  -9   2   3 245.457 88.6597   1
   9  -2  -3 221.221 88.9309   1
  -9  -2   3 230.061 78.5502   1
   9  -2  -3 185.563 84.1728   1
  -9  -2   3 231.658 81.3336   1
  -3   3  10 358.767 74.3374   1
  -3   3  10 335.730 56.6474   1
   3  -3 -10 330.444 61.0231   1
  -3   3  10 467.058 57.6375   1
   3  -3 -10 340.324 65.5234   1
  -3  -3  10 379.170 95.6366   1
  -3  -3  10 164.762 72.0455   1
  -3  -3  10 271.180 88.0761   1
   3   3 -10 393.905 90.8105   1
   3   3 -10 234.073 80.1067   1
  -8  -3   3 70191.2 2502.06   1
   8   3  -3 70695.4 2517.44   1
   8  -3  -3 69372.7 2474.73   1
   8  -3  -3 69926.2 2514.61   1
  -8   3   3 70345.9 2530.23   1
  -6  -4   5 3172.52 177.993   1
   6   4  -5 3053.49 176.861   1
  -6   4   5 3032.01 183.802   1
  -6   4   5 3066.36 167.281   1
   6  -4  -5 3200.25 163.661   1
  -6   4   5 3025.89 151.847   1
  -4  -1  12 2890.19 156.380   1
  -4   1  12 3332.85 140.506   1
   4  -1 -12 3337.26 150.696   1
   4  -1 -12 3205.38 137.418   1
   4   1 -12 3112.35 167.798   1
  -4   1  12 3339.60 145.416   1
  -4  -1  12 2940.62 160.902   1
  -2  -4  -6 62.7164 48.8771   1
   2   4   6 78.4921 33.5599   1
  -2  -4  -6 24.7210 44.2519   1
   2   4   6 33.7955 47.8545   1
   2   4   6 40.8478 41.4764   1
   2  -4   6 -3.8344 69.9008   1
  -2   4  -6 55.1834 73.0654   1
   2  -1  10 38409.5 1259.26   1
   2  -1  10 40176.3 1335.09   1
   2  -1  10 39951.5 1333.82   1
  -2   1 -10 40222.3 1336.74   1
  -2   1 -10 39845.1 1323.44   1
  -3   1  12 11564.7 369.733   1
  -3   1  12 11322.5 328.821   1
   3   1 -12 12639.3 428.872   1
  -3   1  12 11281.3 363.606   1
   3  -1 -12 11406.7 370.910   1
  -3  -1  12 11500.2 322.556   1
  -3  -1  12 11952.2 400.803   1
  -3  -1  12 12689.2 430.759   1
   3  -1 -12 11134.2 354.203   1
  -3  -1  12 12063.1 405.847   1
   3   1 -12 11719.7 400.441   1
   5   3   5 600.335 79.8963   1
   5   3   5 522.777 60.5965   1
  -5   3  -5 228.033 92.8584   1
  -5   3  -5 304.998 78.1227   1
  -5  -3  -5 610.809 68.6793   1
  -5  -3  -5 534.776 63.6424   1
   5   3   5 663.413 69.1147   1
   5  -3   5 409.924 96.2837   1
  -1   2 -10 25999.4 856.095   1
  -1   2 -10 26012.3 866.196   1
   1  -2  10 25209.4 842.573   1
   1  -2  10 24508.6 821.568   1
   1  -2  10 26012.7 850.915   1
   6  -3  -9 23979.5 800.024   1
  -6   3   9 23704.6 761.659   1
  -6   3   9 24289.1 795.969   1
   6  -3  -9 24523.0 813.656   1
   6   3  -9 23480.8 775.356   1
   6   3  -9 23531.4 812.087   1
  -6  -3   9 22330.3 781.932   1
  -6  -3   9 23452.1 803.559   1
   6   1   6 10113.5 345.535   1
   6  -1   6 11909.6 401.658   1
   6   1   6 10223.5 350.263   1
  -6   1  -6 12276.7 417.996   1
  -6  -1  -6 10172.0 339.166   1
  -6  -1  -6 10092.4 336.311   1
   6   1   6 10995.5 417.799   1
   6  -1   6 11880.6 441.522   1
  -8   3   5 10660.8 388.415   1
  -8  -3   5 9336.86 356.501   1
   8   3  -5 9215.60 358.307   1
  -8  -3   5 9069.47 353.917   1
   8  -3  -5 9828.73 362.235   1
   8  -3  -5 10225.6 382.619   1
   8  -1 -10 9360.33 347.342   1
   8  -1 -10 9524.50 319.755   1
   8   1 -10 10067.2 368.709   1
  -8   1  10 9036.30 353.419   1
  -8   1  10 9285.96 339.736   1
  -8  -1  10 9602.52 359.472   1
  -8  -1  10 10588.0 390.326   1
  -7   2  10 87.5470 72.0707   1
  -7  -2  10 160.528 72.5092   1
  -7  -2  10 -3.6380 80.6317   1
   7  -2 -10 120.011 52.8001   1
   7  -2 -10 66.5822 57.8641   1
   7   2 -10 1.12393 78.4848   1
   2  -3 -10 1293.35 78.0363   1
  -2   3  10 1322.46 80.2386   1
  -2   3  10 1278.16 106.938   1
  -2   3  10 1235.79 80.6265   1
   2   3 -10 1732.66 145.955   1
  -2  -3  10 1510.75 116.600   1
  -2  -3  10 1290.83 104.201   1
  -2  -3  10 1392.94 131.047   1
   2   3 -10 1503.40 100.729   1
   4  -3 -10 6879.99 248.890   1
  -4   3  10 6743.64 243.597   1
  -4   3  10 6798.95 246.851   1
   4  -3 -10 6577.22 244.077   1
  -4   3  10 6718.49 249.511   1
  -4  -3  10 6973.22 280.127   1
  -4  -3  10 6757.57 268.932   1
   4   3 -10 6715.09 279.634   1
   4   3 -10 6935.64 259.004   1
   9  -1   0 4407.46 199.997   1
  -9   1   0 4562.54 206.507   1
  -9  -1   0 4862.36 200.143   1
   9   1   0 4653.86 209.238   1
   9   1   0 4358.67 157.289   1
   9   1   0 4503.36 193.573   1
   9  -1   0 3854.71 204.499   1
  -8   0  -3 26.9669 59.1244   1
   8   0   3 19.3423 55.7863   1
   8   0   3 17.3490 64.3289   1
  -7   1  11 3805.84 181.487   1
   7  -1 -11 3585.67 165.228   1
   7  -1 -11 3683.62 134.724   1
   7   1 -11 3047.86 187.249   1
  -7  -1  11 3082.43 165.999   1
  -7  -1  11 3019.91 177.757   1
  -7   1  11 3884.73 193.150   1
  -3  -5   1 10052.8 393.170   1
   3   5  -1 10422.3 388.911   1
   3  -5  -1 10565.0 394.314   1
  -3   5   1 10418.4 397.840   1
   3  -5  -1 10439.6 354.354   1
  -3   5   1 10359.5 382.740   1
   3   5  -1 9559.40 383.294   1
  -9  -2   6 36480.1 1233.07   1
  -9   2   6 35383.6 1225.12   1
  -9  -2   6 36169.8 1242.40   1
   9   2  -6 37529.1 1277.45   1
   9  -2  -6 35135.0 1218.29   1
   9  -2  -6 35711.9 1237.70   1
   7  -3  -8 615.923 87.4545   1
  -7   3   8 479.888 103.795   1
  -7  -3   8 520.769 103.487   1
   7   3  -8 559.989 107.562   1
  -7  -3   8 547.118 100.809   1
  -3   5   2 319.968 95.7720   1
   3   5  -2 201.049 92.3994   1
   3  -5  -2 209.383 61.1913   1
   3   5  -2 187.773 96.3633   1
   3  -5  -2 273.983 88.1999   1
  -3  -5   2 190.062 84.3267   1
  -3   5   2 188.381 81.1540   1
  -1  -2  11 9048.65 322.702   1
  -1  -2  11 9158.97 332.157   1
  -1   2  11 8561.62 231.212   1
  -1   2  11 8664.80 232.458   1
  -1  -2  11 8884.77 300.496   1
   1   2 -11 8268.40 304.565   1
  -2   4   8 3347.76 144.700   1
  -2   4   8 3054.61 159.843   1
  -2   4   8 3217.13 144.387   1
   2  -4  -8 3318.35 145.372   1
   2   4  -8 3471.16 198.925   1
  -2  -4   8 3554.04 180.760   1
   2   4  -8 3476.88 180.506   1
  -8  -3   2 4949.69 220.281   1
   8   3  -2 4328.22 231.714   1
   8  -3  -2 5708.47 249.098   1
   8  -3  -2 5299.02 243.930   1
  -8   3   2 5515.87 255.145   1
   5   4  -7 15897.1 570.007   1
  -5   4   7 16207.2 559.761   1
  -5  -4   7 16297.8 579.337   1
   5   4  -7 16139.2 563.691   1
  -5   4   7 15984.5 527.299   1
  -5   4   7 16542.7 561.769   1
   5  -4  -7 16177.9 551.569   1
  -4   4  -4 52882.5 1887.47   1
   4   4   4 55029.1 1801.66   1
  -4  -4  -4 56955.5 1927.20   1
  -4  -4  -4 57428.3 1954.65   1
   4  -4   4 52644.2 1890.07   1
   4   4   4 58543.3 1974.84   1
   4   4   4 57907.9 1962.80   1
  -3   4   8 4761.91 205.303   1
  -3   4   8 4812.02 197.316   1
  -3   4   8 4642.23 170.263   1
   3  -4  -8 4751.08 187.483   1
   3  -4  -8 4774.63 189.218   1
  -3   4   8 4881.46 188.703   1
  -3  -4   8 4576.85 215.759   1
   3   4  -8 4704.28 227.142   1
   3   4  -8 4340.46 204.429   1
  -6  -4   0 13961.3 487.195   1
  -6  -4   0 13640.1 451.586   1
   6   4   0 13153.9 464.262   1
  -6   4   0 14936.9 539.391   1
   6  -4   0 14382.3 523.366   1
   6  -4   0 13839.2 477.882   1
   9   0  -9 26312.3 908.219   1
  -9   0   9 26082.3 898.634   1
  -9   0   9 26947.8 918.829   1
  -1   5  -3 11704.1 447.459   1
   1  -5   3 12239.3 462.470   1
   1   5   3 12885.1 439.559   1
  -1   5  -3 11932.6 449.544   1
  -1  -5  -3 12937.6 444.892   1
   1   5   3 12918.1 469.550   1
   5  -1 -12 3008.09 151.623   1
   5  -1 -12 3013.70 137.197   1
  -5   1  12 3165.27 147.351   1
  -5   1  12 3051.70 152.720   1
  -5  -1  12 3493.90 175.806   1
  -5  -1  12 3508.85 176.303   1
   5   1 -12 3431.36 180.564   1
   9  -2  -2 492.375 100.452   1
   9   2  -2 526.910 70.8424   1
   9   2  -2 798.228 108.864   1
  -9   2   2 337.844 101.332   1
   9  -2  -2 419.395 104.049   1
  -9  -2   2 789.782 108.884   1
   9   2  -2 403.603 87.9276   1
   1  -5  -4 5693.56 242.300   1
   1   5  -4 4854.88 238.359   1
   1   5  -4 4852.69 239.060   1
  -1   5   4 6179.49 246.803   1
  -1   5   4 6177.42 258.689   1
  -1  -5   4 5015.08 248.549   1
  -2   5  -2 269.093 85.2715   1
   2   5   2 90.9322 87.6686   1
  -2  -5  -2 210.645 80.0740   1
   2   5   2 137.819 76.5959   1
   2  -5   2 183.105 93.8486   1
  -2   5  -2 256.875 91.7131   1
  -1   0 -11 -15.340 27.1398   1
  -1   0 -11 3.40965 33.6871   1
   1   0  11 8.02550 40.9545   1
   1   0  11 35.8721 35.1891   1
   1   0  11 15.9411 35.2564   1
   3   5   0 6.97366 82.5681   1
   3  -5   0 353.524 83.6660   1
  -3   5   0 151.726 78.7165   1
  -3   5   0 121.573 81.0797   1
  -3  -5   0 17.1974 81.0102   1
  -3  -5   0 43.0402 37.1902   1
   3  -5   0 46.8666 67.0428   1
  -2   1  12 15930.8 489.960   1
   2  -1 -12 15645.9 476.504   1
   2   1 -12 17104.5 564.888   1
   2   1 -12 17121.4 561.516   1
  -2  -1  12 18486.2 606.399   1
  -2  -1  12 17085.2 551.368   1
  -2  -1  12 16811.9 505.242   1
  -2  -1  12 17285.2 587.262   1
  -2   1  12 15901.9 490.959   1
  -8  -2   9 354.761 96.6038   1
  -8  -2   9 352.132 94.5869   1
  -8   2   9 546.985 107.557   1
   8   2  -9 238.688 98.5980   1
   8  -2  -9 372.516 85.7066   1
   8  -2  -9 778.359 95.0196   1
   1   4   7 3298.50 134.017   1
   1   4   7 3503.65 141.984   1
  -1  -4  -7 3455.51 132.318   1
   1  -4   7 3294.85 175.335   1
  -1   4  -7 3376.11 182.061   1
  -1   4  -7 3227.90 169.499   1
  -6   0  12 20710.1 717.082   1
  -6   0  12 21558.3 710.161   1
   6   0 -12 21186.9 709.607   1
  -3   5   3 1435.59 118.223   1
   3   5  -3 1866.71 144.113   1
   3  -5  -3 1489.25 91.6041   1
   3  -5  -3 2040.50 140.574   1
   3   5  -3 1515.83 142.616   1
  -3  -5   3 1649.32 136.244   1
  -3   5   3 1754.53 138.626   1
  -7   0  -5 47.9688 50.4279   1
   7   0   5 -23.684 50.6885   1
   7   0   5 -120.47 59.6328   1
   7   0   5 13.0554 47.1578   1
  -7   0  -5 -20.185 57.7495   1
   2  -5  -4 14335.1 511.027   1
  -2   5   4 14215.6 508.350   1
  -2  -5   4 14440.1 521.918   1
   2   5  -4 14044.8 512.149   1
  -2   5   4 14237.3 505.649   1
   2   5  -4 14170.0 512.120   1
  -1   3  -9 5707.75 232.483   1
   1  -3   9 5613.48 247.598   1
  -8   3   6 4374.35 200.961   1
  -8  -3   6 3496.80 186.095   1
  -8  -3   6 3561.21 196.519   1
   8  -3  -6 4021.47 204.730   1
   8   3  -6 3714.02 197.847   1
   8  -3  -6 3860.97 188.202   1
   1   4  -8 4162.61 204.671   1
  -1   4   8 4487.20 172.528   1
  -1  -4   8 4548.95 208.918   1
  -1   4   8 4659.87 175.165   1
  -1   4   8 4494.85 200.821   1
   1  -4  -8 4480.35 166.289   1
   1   4  -8 4290.64 208.796   1
  10   0  -5 256.369 90.0804   1
  10   0  -5 177.183 87.2734   1
 -10   0   5 290.338 93.2411   1
 -10   0   5 225.011 77.9331   1
  -1   0  12 153.420 53.1603   1
  -1   0  12 164.251 52.8572   1
  -1   0  12 262.020 68.9827   1
 -10   0   4 34374.1 1181.39   1
 -10   0   4 34767.2 1161.48   1
  10   0  -4 35198.6 1214.58   1
  10   0  -4 34435.5 1185.93   1
  -6   4   6 741.123 97.1696   1
   6  -4  -6 1015.69 101.112   1
  -6   4   6 860.013 88.9436   1
  -6   4   6 882.035 99.3235   1
   6   4  -6 976.464 114.190   1
   6   4  -6 763.210 120.139   1
  -6  -4   6 840.984 118.084   1
   0   5  -4 38306.5 1334.24   1
   0   5   4 38613.8 1334.57   1
   0   5   4 37808.5 1274.33   1
   0  -5  -4 36412.7 1242.68   1
   0   5  -4 37515.4 1314.21   1
   0  -5   4 40272.1 1397.87   1
  -6  -2  11 3856.97 186.530   1
  -6  -2  11 3747.48 191.114   1
  -6   2  11 3139.04 156.121   1
   6   2 -11 3704.34 196.699   1
   6  -2 -11 3042.48 163.729   1
   6  -2 -11 2926.30 131.809   1
  -1   3  10 4430.61 139.939   1
  -1   3  10 4564.75 198.123   1
  -1   3  10 4612.01 142.636   1
   1  -3 -10 4656.59 146.435   1
  -1  -3  10 4038.83 177.517   1
  -1  -3  10 4582.03 218.217   1
   1   3 -10 4402.42 196.132   1
  -1  -3  10 4019.24 199.993   1
   9   0   1 23972.6 822.355   1
   9   0   1 23300.6 807.599   1
  -9   0  -1 24165.6 811.213   1
  -4   4   8 1272.36 106.323   1
  -4   4   8 1040.54 82.4873   1
  -4   4   8 1127.95 100.202   1
   4  -4  -8 1192.85 103.821   1
   4   4  -8 1205.79 135.401   1
  -4  -4   8 1086.95 118.799   1
   4   4  -8 1218.50 116.085   1
  -5   3  10 712.457 87.0652   1
  -5   3  10 786.072 84.6092   1
  -5   3  10 853.079 83.9692   1
   5  -3 -10 726.851 80.0394   1
   5  -3 -10 724.312 87.0276   1
  -5  -3  10 459.044 104.772   1
  -5  -3  10 379.611 101.198   1
   5   3 -10 743.565 107.796   1
   5   3 -10 666.256 90.2746   1
   8   1   3 5507.69 220.199   1
   8   1   3 5499.50 252.532   1
   8   1   3 5127.34 152.870   1
   8  -1   3 5757.33 228.342   1
   8  -1   3 5370.29 241.062   1
  -8  -1  -3 5321.32 218.979   1
  -8   1  -3 5323.33 217.965   1
   9   2  -7 31053.2 1067.63   1
   9  -2  -7 29892.3 1041.34   1
  -9   2   7 29901.9 1033.44   1
  -9  -2   7 32303.7 1096.55   1
  -9  -2   7 31031.3 1069.53   1
  -8   3   1 4291.63 218.163   1
  -8  -3   1 4944.47 224.517   1
   8   3  -1 5109.82 230.172   1
   8  -3  -1 4572.56 219.175   1
   8  -3  -1 4432.14 215.754   1
   7   3   2 27144.0 909.027   1
   7   3   2 27816.9 925.432   1
   7   3   2 28877.5 942.775   1
   7   3   2 27582.3 911.422   1
  -7  -3  -2 28575.9 939.221   1
  -7  -3  -2 29013.2 987.043   1
   7  -3   2 27911.0 971.900   1
   7  -3   2 30349.1 1036.48   1
  -7   3  -2 28536.1 978.724   1
  10   0  -6 4992.21 236.465   1
 -10   0   6 5953.21 251.524   1
 -10   0   6 5414.07 243.687   1
   3  -5   1 2886.57 154.396   1
   3  -5   1 2748.58 181.420   1
   3   5   1 3498.27 194.596   1
  -3  -5  -1 3118.71 170.005   1
  -3   5  -1 2839.05 173.233   1
  -3   5  -1 2706.20 178.446   1
  10   0  -3 95.7481 78.6930   1
 -10   0   3 66.7714 64.3893   1
 -10   0   3 93.8668 75.3303   1
  10   0  -3 145.336 83.5660   1
  -9  -1   9 434.108 100.699   1
   9   1  -9 430.592 107.662   1
  -9   1   9 363.352 95.4783   1
   9  -1  -9 451.290 100.370   1
  -9  -1   9 499.914 97.1840   1
  -9   1   9 492.557 97.9673   1
   6  -3   4 1767.36 134.730   1
  -6   3  -4 1906.68 142.414   1
  -6  -3  -4 1449.08 104.885   1
   6   3   4 1754.87 109.159   1
   6   3   4 1422.39 105.985   1
   6   3   4 1579.34 97.7887   1
   6  -3   4 1639.96 143.625   1
  -6  -3  -4 1411.29 100.073   1
   7   2   4 667.187 79.6049   1
  -7   2  -4 823.426 57.8425   1
  -7  -2  -4 646.097 84.0698   1
   7   2   4 478.151 63.4925   1
   7   2   4 621.306 85.5841   1
   7   2   4 929.772 100.838   1
   7  -2   4 926.285 120.718   1
   7  -2   4 1094.48 100.879   1
  -7   2  -4 867.027 117.729   1
   8   2   2 87.9012 44.2665   1
   8   2   2 130.109 75.5136   1
   8  -2   2 88.8058 83.6823   1
   8  -2   2 212.960 74.1901   1
  -8   2  -2 81.1002 74.2476   1
   8   2   2 125.090 63.8027   1
   4  -2   8 17363.4 586.891   1
  -4  -2  -8 16177.1 444.921   1
  -4   2  -8 17924.9 608.336   1
  -4  -2  -8 16656.8 460.140   1
   4   2   8 16034.0 445.358   1
  -4   2  -8 17240.5 535.560   1
   4   2   8 16855.7 472.738   1
   1  -1  11 1418.29 101.295   1
   1  -1  11 1506.99 107.798   1
   1  -1  11 1355.00 108.839   1
  -1   1 -11 1375.99 102.086   1
  -1   1 -11 1377.75 107.326   1
   9   2  -1 3166.08 143.657   1
   9  -2  -1 2948.49 181.235   1
   9   2  -1 3323.14 162.413   1
  -9   2   1 3034.79 176.400   1
   9  -2  -1 3295.06 184.368   1
   9   2  -1 3127.63 183.829   1
  -3   5   4 10228.7 378.214   1
  -3   5   4 10409.8 392.382   1
   3  -5  -4 10119.9 369.742   1
   3   5  -4 9095.26 372.250   1
   3   5  -4 8439.25 348.575   1
  -3  -5   4 9179.79 364.313   1
  -5  -4  -3 3073.02 166.720   1
  -5   4  -3 4495.71 221.763   1
   5   4   3 3048.40 152.119   1
   5   4   3 3212.28 137.323   1
   5  -4   3 4164.68 205.439   1
   5  -4   3 4082.26 210.777   1
  -5  -4  -3 2913.27 155.794   1
  -6  -1  12 7667.29 302.115   1
   6  -1 -12 7276.54 283.271   1
   6   1 -12 8224.49 325.103   1
  -6   1  12 7736.56 307.345   1
  -6  -1  12 7665.95 306.982   1
  -7  -1  -5 86.8188 58.7668   1
  -7   1  -5 180.525 68.5158   1
   7   1   5 81.2693 56.3867   1
   7  -1   5 146.458 77.2775   1
   7   1   5 85.0883 81.6878   1
   7  -1   5 144.176 65.9826   1
  -7  -1  -5 104.541 61.9782   1
   7   1   5 127.290 63.4488   1
   7   1   5 29.2960 21.5777   1
  -6   4  -1 8214.04 334.071   1
  -6  -4  -1 7412.33 288.595   1
  -6  -4  -1 7602.55 265.306   1
   6  -4   1 8081.26 329.799   1
   6  -4   1 7677.60 301.298   1
   6   4   1 7274.45 280.505   1
  -3   2  -9 5907.46 235.503   1
   3  -2   9 4961.10 213.931   1
  -3   2  -9 4898.39 185.873   1
  10   1  -5 111.385 80.3581   1
 -10   1   5 148.686 70.6357   1
  10  -1  -5 122.025 91.7662   1
 -10  -1   5 71.7682 80.5575   1
  10  -1  -5 479.891 91.3623   1
 -10  -1   5 37.6937 75.5226   1
 -10   1   5 228.767 90.2781   1
   4   0   9 68.4313 40.3124   1
   4   0   9 -5.9791 50.0442   1
  -4   0  -9 90.6651 49.5446   1
   4   0   9 99.4100 46.9994   1
  -4   0  -9 86.8571 45.3735   1
   8   0 -11 -62.952 63.2734   1
  -8   0  11 11.1636 72.3355   1
  -1   1  12 116.526 37.6291   1
   1  -1 -12 231.596 36.3622   1
  -1  -1  12 174.127 51.8465   1
  -1   1  12 64.8116 41.3561   1
   1   1 -12 153.459 63.4495   1
  -1  -1  12 153.107 67.2594   1
  -1  -1  12 209.094 72.6000   1
  -1  -1  12 176.523 64.2941   1
   5   2   7 2531.48 104.463   1
   5   2   7 2440.09 140.781   1
   5  -2   7 1523.44 140.532   1
  -5  -2  -7 2565.26 109.266   1
  -5  -2  -7 2399.35 104.699   1
  -5   2  -7 1729.34 142.483   1
  -5   2  -7 1695.13 87.2213   1
   5   2   7 2574.01 105.775   1
  10   1  -4 327.923 87.7971   1
 -10   1   4 231.094 94.2762   1
 -10   1   4 223.395 69.0565   1
  10   1  -4 347.155 90.6254   1
 -10  -1   4 214.525 87.0060   1
 -10  -1   4 175.072 79.8016   1
  10  -1  -4 214.960 96.5805   1
  10  -1  -4 322.567 90.7566   1
   8   3  -7 5297.87 243.376   1
  -8   3   7 6801.36 265.145   1
  -8  -3   7 5006.48 241.821   1
  -8  -3   7 5082.77 244.976   1
   8  -3  -7 6302.36 264.183   1
  -2   5  -3 16459.6 603.772   1
  -2   5  -3 19128.9 680.738   1
  -2  -5  -3 18523.2 620.903   1
   2   5   3 18952.0 625.912   1
   2  -5   3 19552.0 695.031   1
   2   5   3 20137.0 698.938   1
 -10   0   7 26.3407 65.7738   1
 -10   0   7 22.5057 64.2229   1
  10   0  -7 -62.815 65.9163   1
   5   0   8 40.5996 26.1375   1
   5   0   8 43.3164 53.9185   1
   5   0   8 30.9412 45.3296   1
  -5   0  -8 30.9366 52.2124   1
  -5   0  -8 8.95596 45.8204   1
   9  -1   1 113.585 65.5807   1
  -9  -1  -1 85.7204 67.9932   1
  -9   1  -1 20.4438 36.2394   1
   9   1   1 80.9492 40.2499   1
   9   1   1 -22.762 69.4462   1
  -9   1  -1 88.4389 66.6890   1
   9   1   1 119.115 69.8627   1
   9  -1   1 37.8371 76.3825   1
   0  -2  11 2722.18 143.060   1
   0  -2  11 2700.02 141.126   1
   0   2 -11 2592.08 143.785   1
   0  -2  11 2672.81 148.427   1
   0   4   8 1733.68 132.628   1
   0   4   8 1686.74 93.1442   1
   0  -4  -8 1537.49 92.7533   1
   0   4   8 1611.31 85.5430   1
   0  -4   8 1607.73 131.731   1
   0   4  -8 1499.45 131.022   1
   0   4  -8 1551.59 129.763   1
  -1   5  -4 370.439 117.863   1
  -1   5  -4 343.876 109.561   1
   1   5   4 1166.21 114.528   1
   1  -5   4 428.535 118.215   1
   1   5   4 843.320 95.2217   1
  -1  -5  -4 705.613 97.2612   1
   4   5  -2 205.126 105.022   1
   4   5  -2 271.917 95.9840   1
  -4  -5   2 122.392 82.2696   1
  -4   5   2 152.003 83.3399   1
  -4   5   2 71.4495 91.0880   1
   4  -5  -2 156.856 72.0278   1
   4  -5  -2 158.932 89.0714   1
  -1   5   5 5721.68 231.229   1
  -1   5   5 6317.03 263.666   1
   1  -5  -5 5622.75 232.583   1
   1   5  -5 5028.00 253.143   1
   1   5  -5 5538.19 257.233   1
  -1  -5   5 6119.58 275.971   1
  10  -1  -6 13279.8 485.553   1
  10   1  -6 15043.0 519.124   1
 -10  -1   6 14634.9 514.530   1
 -10  -1   6 14499.7 507.326   1
 -10   1   6 11891.4 451.660   1
 -10   1   6 13150.2 466.676   1
  -2   5   5 4241.08 205.142   1
  -2   5   5 4605.23 203.098   1
   2  -5  -5 4050.29 201.452   1
   2   5  -5 3343.43 217.704   1
   2   5  -5 3399.12 205.714   1
  -2  -5   5 3666.54 208.580   1
  -4  -5   1 24518.1 837.539   1
  -4  -5   1 26557.1 831.219   1
   4   5  -1 24681.1 875.564   1
   4   5  -1 24132.2 855.307   1
   4  -5  -1 25815.8 857.914   1
  -4   5   1 26179.7 906.436   1
  -4   5   1 26454.5 910.147   1
   4  -5  -1 26366.7 914.220   1
 -10   0   2 3277.46 175.490   1
  10   0  -2 3984.21 200.444   1
  10   0  -2 3273.36 175.179   1
 -10   0   2 3271.96 150.886   1
 -10   1   3 5758.20 224.587   1
 -10   1   3 5761.81 259.578   1
  10  -1  -3 6101.81 259.952   1
  10   1  -3 5455.39 239.111   1
  10  -1  -3 5559.81 254.714   1
  10   1  -3 5582.49 246.338   1
 -10  -1   3 5528.01 241.711   1
 -10  -1   3 5602.36 220.269   1
  -4  -5   3 11954.8 440.911   1
   4   5  -3 11311.8 427.882   1
   4   5  -3 11497.3 439.274   1
  -4   5   3 11755.4 429.796   1
   4  -5  -3 11669.1 391.977   1
   4  -5  -3 11511.2 427.065   1
  -4   5   3 11521.1 432.540   1
  -7   3   9 659.438 89.3685   1
   7  -3  -9 395.284 99.9013   1
   7  -3  -9 726.024 111.670   1
   7   3  -9 851.217 97.0658   1
  -7  -3   9 823.645 106.147   1
  -7  -3   9 712.072 116.568   1
   7   3  -9 938.718 117.181   1
   3   0  10 -9.9966 39.6663   1
   3   0  10 38.7587 37.4154   1
   3   0  10 7.56095 41.1378   1
  -3   0 -10 -2.7120 29.5368   1
  -3   0 -10 25.8486 38.7923   1
  -7  -4   3 6523.96 271.607   1
  -7  -4   3 6489.85 256.908   1
   7   4  -3 6065.60 258.395   1
   7  -4  -3 7703.00 302.864   1
  -7   4   3 7540.72 306.883   1
   5  -4  -8 10827.8 385.779   1
  -5   4   8 11167.5 390.465   1
  -5   4   8 10109.9 353.694   1
  -5   4   8 10547.8 381.872   1
  -5  -4   8 11121.5 414.013   1
   5   4  -8 10547.3 409.314   1
   5   4  -8 10854.6 394.107   1
  -6   4   7 2227.46 146.611   1
  -6   4   7 2109.37 131.933   1
  -6   4   7 2246.60 152.502   1
   6  -4  -7 2514.98 162.768   1
  -6  -4   7 2096.03 162.158   1
   6   4  -7 2275.51 164.957   1
   6   4  -7 1933.24 155.777   1
   8   3   0 3637.43 175.186   1
   8   3   0 3919.20 189.634   1
  -8  -3   0 3952.45 193.129   1
  -8   3   0 3459.23 194.865   1
   8  -3   0 3725.12 199.205   1
   8  -3   0 3725.69 198.110   1
   7  -4  -4 1250.48 127.524   1
   7  -4  -4 1263.07 120.391   1
   7   4  -4 1372.96 125.724   1
  -7  -4   4 1227.70 123.104   1
  -7   4   4 1333.01 126.003   1
   3  -5   2 10678.6 414.242   1
   3   5   2 10567.7 407.248   1
   3  -5   2 9978.82 370.924   1
  -3   5  -2 10573.1 410.786   1
  -3  -5  -2 9693.97 359.559   1
  -3   5  -2 11326.7 422.874   1
   3   5   2 10411.2 373.445   1
  -9  -2   8 59.3237 81.5134   1
  -9  -2   8 67.3805 81.4848   1
   9   2  -8 34.8433 85.3622   1
   9  -2  -8 200.151 81.8460   1
  -9   2   8 199.210 82.0456   1
  -4  -3  -7 99.6285 40.8662   1
  -4   3  -7 64.0660 75.6754   1
   4   3   7 108.618 40.8528   1
   4   3   7 204.171 38.8517   1
   4   3   7 108.901 67.8984   1
   4  -3   7 144.263 74.2564   1
  -4  -3  -7 190.985 35.8130   1
  -4   3  -7 101.407 61.7785   1
  -7   0  12 6.82526 69.1586   1
  -7   0  12 -17.703 72.3931   1
   7   0 -12 81.3797 58.2463   1
  -3  -4  -6 64.8471 47.8843   1
   3   4   6 10.7608 51.5205   1
   3   4   6 67.1077 46.1403   1
  -3  -4  -6 101.344 50.6081   1
   3   4   6 63.4814 44.5443   1
   3  -4   6 171.087 79.6753   1
  -3   4  -6 170.039 81.5403   1
  -9   0  10 75.6157 77.6029   1
  -9   0  10 94.8626 68.3499   1
   9   0 -10 -5.4151 74.6819   1
   0  -3  10 206.640 85.3199   1
   0   3 -10 85.5629 82.8819   1
   0  -3  10 169.437 74.4306   1
  -3   3  -8 3012.50 179.217   1
  -3   3  -8 2630.40 140.310   1
   3  -3   8 2753.22 153.995   1
   7   4  -2 1091.39 127.660   1
  -7  -4   2 982.287 106.893   1
  -7  -4   2 955.964 94.5558   1
   7  -4  -2 1091.79 125.694   1
  -7   4   2 1224.59 120.078   1
   7  -4  -2 1148.64 108.269   1
  -6   3  10 6596.29 248.616   1
  -6   3  10 6660.74 258.572   1
   6  -3 -10 6440.39 260.567   1
   6  -3 -10 6743.57 266.150   1
  -6  -3  10 8230.55 319.342   1
  -6  -3  10 7438.43 310.360   1
   6   3 -10 7557.44 315.035   1
   6   3 -10 8467.46 305.828   1
  -4   2  12 13285.3 409.419   1
   4  -2 -12 12934.0 425.082   1
  -4   2  12 13464.5 431.608   1
  -4   2  12 13425.8 429.450   1
   4  -2 -12 13663.6 436.928   1
  -4  -2  12 13916.1 486.154   1
  -4  -2  12 13842.4 474.208   1
   4   2 -12 14575.7 496.571   1
  -4  -5   0 620.093 58.5889   1
   4   5   0 573.846 115.918   1
   4   5   0 645.685 114.294   1
  -4  -5   0 759.807 92.4937   1
   4  -5   0 587.992 105.564   1
   4  -5   0 484.278 120.317   1
  -4   5   0 720.490 113.152   1
  -4   5   0 752.252 114.576   1
  -2   2 -10 1824.82 106.891   1
  -2   2 -10 1860.69 134.231   1
   2  -2  10 2176.14 131.020   1
   2  -2  10 1935.92 137.154   1
   3  -2 -12 18753.7 580.190   1
  -3   2  12 18436.5 569.172   1
  -3   2  12 19707.1 599.449   1
  -3  -2  12 16852.3 528.059   1
   3   2 -12 17757.0 618.426   1
  -3  -2  12 17223.4 592.064   1
  -3  -2  12 17908.6 608.314   1
   0   5   5 1223.97 104.406   1
   0   5   5 1017.66 112.813   1
   0  -5  -5 1042.71 102.543   1
   0   5  -5 231.013 120.922   1
   0  -5   5 492.507 117.927   1
   0   5  -5 590.359 119.349   1
  -6   0  -7 44.5727 68.7295   1
  -6   0  -7 161.631 67.4405   1
   6   0   7 242.302 88.5148   1
   6   0   7 161.306 68.2429   1
   6   0   7 220.499 67.0696   1
  -4  -1  -9 7329.90 222.512   1
   4   1   9 7235.83 218.584   1
   4   1   9 7258.48 223.459   1
   4  -1   9 6716.80 224.135   1
   4  -1   9 6634.52 259.084   1
  -4  -1  -9 7532.21 224.272   1
   4  -1   9 7065.70 271.902   1
  -4   1  -9 6524.53 255.570   1
  -4   1  -9 6680.12 266.117   1
  -3   5   5 6697.42 281.486   1
  -3   5   5 7083.15 291.225   1
   3  -5  -5 7612.71 310.741   1
   3   5  -5 6970.31 299.153   1
   3   5  -5 7706.17 323.710   1
  -3  -5   5 7159.41 312.407   1
  -8  -1  11 6735.90 289.475   1
   8  -1 -11 6621.55 237.285   1
  -8   1  11 6461.78 276.369   1
  -8  -1  11 6506.24 262.927   1
   8   1 -11 6331.22 274.358   1
   8  -1 -11 6823.83 271.108   1
  -8   1  11 6334.21 273.685   1
   0   0 -12 774.665 72.2989   1
   0   0  12 940.438 73.1419   1
   0   0  12 872.154 67.2091   1
   0   0  12 876.587 86.5207   1
   2   4   7 1366.80 81.7359   1
  -2   4  -7 1487.43 131.106   1
   2  -4   7 1462.63 128.940   1
  -2  -4  -7 1275.34 81.8089   1
   2   4   7 1305.21 80.8367   1
   2   4   7 1323.09 88.1350   1
  -6   2  -6 2121.90 152.493   1
  -6  -2  -6 2187.53 108.578   1
  -6  -2  -6 1927.03 104.642   1
   6   2   6 1863.79 103.324   1
   6  -2   6 2281.10 151.747   1
   6   2   6 1888.20 103.114   1
   6  -2   6 2247.74 166.842   1
  -6   2  -6 2303.89 87.1373   1
   6   2   6 1927.12 138.876   1
  -4   4  -5 7498.87 328.194   1
  -4  -4  -5 9704.29 330.935   1
   4   4   5 9137.88 294.421   1
   4  -4   5 8055.12 342.942   1
   4   4   5 10003.7 330.873   1
  -4  -4  -5 9505.53 322.227   1
 -10   1   7 640.763 107.659   1
 -10   1   7 576.686 91.5007   1
 -10  -1   7 440.541 114.499   1
  10   1  -7 267.444 106.312   1
 -10  -1   7 323.630 103.845   1
  10  -1  -7 782.626 110.888   1
   8  -2 -10 7574.11 292.195   1
  -8   2  10 7493.74 306.821   1
   8  -2 -10 7520.55 284.829   1
  -8  -2  10 8465.62 329.486   1
  -8  -2  10 7892.59 331.308   1
   8   2 -10 8196.27 327.478   1
  -5   1  -8 1472.91 116.706   1
  -5  -1  -8 943.867 76.8259   1
  -5   1  -8 1295.30 95.0376   1
   5  -1   8 1532.75 108.850   1
   5  -1   8 1330.29 107.668   1
   5   1   8 973.204 79.8958   1
   5   1   8 910.592 74.7753   1
   7  -4  -5 35.7476 74.5387   1
   7  -4  -5 75.3768 72.8728   1
   7   4  -5 69.4441 78.1995   1
  -7  -4   5 19.1507 77.1420   1
  -7   4   5 83.4162 72.1219   1
   4   5  -4 845.772 147.053   1
   4  -5  -4 1072.10 89.1840   1
  -4   5   4 1301.19 133.902   1
   4  -5  -4 1201.59 116.693   1
  -4   5   4 1096.44 121.978   1
   4   5  -4 804.327 128.125   1
  -4  -5   4 904.017 124.433   1
   9   2   0 6551.17 267.769   1
   9  -2   0 7359.81 310.877   1
   9   2   0 6190.47 230.326   1
  -9   2   0 7416.46 293.533   1
   9   2   0 6853.95 282.991   1
   9  -2   0 7798.90 302.012   1
   7  -2 -11 14745.2 474.133   1
  -7  -2  11 13975.2 509.464   1
  -7   2  11 14950.2 508.994   1
  -7  -2  11 13211.0 475.847   1
   7   2 -11 13970.5 506.580   1
   7  -2 -11 14490.0 497.631   1
  -8   0  -4 14575.9 498.704   1
   8   0   4 14193.7 510.631   1
   8   0   4 14468.3 487.370   1
   5   3   6 34.3695 59.8640   1
   5  -3   6 -23.224 72.7913   1
   5   3   6 71.9005 42.8825   1
   5   3   6 62.3348 45.5204   1
  -5   3  -6 45.7276 54.7786   1
  -5   3  -6 118.295 84.1277   1
  -5  -3  -6 -6.5509 34.1032   1
  -5  -3  -6 49.5774 39.9836   1
 -10   0   8 132564. 5106.15   1
 -10   0   8 132502. 5099.33   1
  10   0  -8 127523. 4940.65   1
  10  -1  -2 201.327 85.3282   1
  10   1  -2 164.724 80.7456   1
  10   1  -2 177.126 82.5635   1
 -10   1   2 148.396 89.9605   1
 -10  -1   2 318.167 72.5490   1
 -10   1   2 69.7090 63.0878   1
 -10  -1   2 297.640 79.4280   1
  10  -1  -2 157.287 93.7073   1
  -4   0  13 -10.173 49.0854   1
  -4   0  13 16.0448 56.1300   1
  -4   0  13 85.0920 56.1123   1
   4   0 -13 -16.644 41.5733   1
   4   0 -13 -5.1286 59.4065   1
  -3   4   9 168.472 62.8710   1
  -3   4   9 267.731 69.7079   1
   3  -4  -9 201.749 67.1173   1
  -3   4   9 112.450 62.5391   1
  -3   4   9 149.204 50.6615   1
   3  -4  -9 160.771 62.1981   1
   3   4  -9 58.7861 74.8368   1
   3   4  -9 68.8630 91.1663   1
  -3  -4   9 101.839 82.1355   1
  -5   2  12 66.2119 57.3776   1
   5  -2 -12 61.7063 66.3427   1
   5  -2 -12 56.1421 58.0713   1
  -5   2  12 28.6855 42.6432   1
  -5   2  12 46.5482 64.1359   1
   5   2 -12 112.484 75.7927   1
   5   2 -12 171.348 44.8849   1
  -5  -2  12 47.6742 76.5689   1
  -5  -2  12 214.689 71.4879   1
  -3   1 -10 3537.57 167.727   1
  -3   1 -10 3787.41 175.402   1
   3  -1  10 3703.55 146.268   1
   3  -1  10 3947.98 179.148   1
   3   1  10 3996.85 114.499   1
   3  -1  10 3636.20 176.438   1
  -3  -1 -10 3906.57 107.873   1
   3   1  10 4089.39 118.462   1
   9   0   2 -53.520 68.6214   1
   9   0   2 -68.576 68.6385   1
  -9   0  -2 45.9997 69.7165   1
   2  -4  -9 10614.8 352.800   1
   2  -4  -9 10085.4 342.433   1
  -2   4   9 10553.8 371.240   1
  -2   4   9 10789.7 346.568   1
  -2   4   9 10325.5 339.881   1
   2   4  -9 11111.3 397.841   1
  -2  -4   9 10716.0 399.398   1
  -2   3  -9 86.2368 81.6273   1
   2  -3   9 123.672 80.6683   1
  -7  -4   1 415.533 99.7461   1
   7   4  -1 643.233 102.286   1
  -7  -4   1 322.235 81.6050   1
   7  -4  -1 505.372 111.040   1
  -7   4   1 305.435 107.451   1
   7  -4  -1 631.363 110.766   1
  -3   0  13 18150.0 614.746   1
  -3   0  13 18887.2 613.139   1
   3   0 -13 18847.2 624.220   1
  -3   0  13 19015.4 618.287   1
   3   0 -13 18485.5 601.428   1
  -2   2  12 3308.60 121.064   1
  -2   2  12 3325.91 148.086   1
   2  -2 -12 3283.10 125.437   1
   2  -2 -12 3211.52 122.075   1
  -2   2  12 3457.88 125.289   1
  -2  -2  12 4136.18 201.762   1
  -2  -2  12 4396.39 195.437   1
   2   2 -12 4501.81 208.171   1
  -2  -2  12 4135.92 162.837   1
  -6  -4  -2 1618.06 116.856   1
  -6   4  -2 1526.67 150.758   1
   6   4   2 1525.68 114.896   1
   6  -4   2 1592.68 143.423   1
   6  -4   2 1423.09 130.537   1
  -8   3   8 1320.19 119.001   1
   8  -3  -8 1251.24 119.377   1
   8   3  -8 1408.57 137.992   1
  -8  -3   8 1414.92 134.162   1
  -8  -3   8 1210.28 139.803   1
 -10   0   1 103.189 66.6346   1
  10   0  -1 18.9248 75.3307   1
  10   0  -1 33.2853 81.8217   1
 -10   0   1 11.7790 50.4464   1
  -3   3  11 4056.07 153.160   1
  -3   3  11 3861.39 168.820   1
  -3   3  11 4042.92 166.009   1
   3  -3 -11 4023.96 155.609   1
   3  -3 -11 3946.18 158.144   1
   3   3 -11 4029.29 220.416   1
  -3  -3  11 3675.66 188.995   1
  -3  -3  11 3789.29 168.899   1
  -3  -3  11 3426.37 177.770   1
   3   3 -11 3680.35 167.253   1
  -7   1  12 4783.91 232.557   1
   7  -1 -12 4770.74 150.475   1
  -7  -1  12 4168.37 220.824   1
   7  -1 -12 5415.32 226.229   1
   7   1 -12 4335.24 135.403   1
  -7  -1  12 4842.01 234.659   1
   7   1 -12 4727.66 238.737   1
  -7   1  12 4927.96 212.278   1
   7   3   3 746.618 84.8419   1
   7   3   3 774.787 90.3266   1
   7   3   3 682.595 76.9210   1
   7   3   3 708.736 99.7694   1
  -7  -3  -3 905.010 103.089   1
  -7  -3  -3 687.570 90.1431   1
   7  -3   3 531.253 111.086   1
   7  -3   3 617.000 109.318   1
  -7   3  -3 521.630 111.166   1
   9  -1 -10 8445.35 330.566   1
  -9  -1  10 8320.36 329.011   1
   9   1 -10 7867.80 328.877   1
  -9   1  10 8407.45 321.190   1
  -9  -1  10 8145.68 342.473   1
   9  -1 -10 8894.98 313.253   1
  -9   1  10 8640.99 347.723   1
  -2   0 -11 -24.058 33.1787   1
  -2   0 -11 41.7399 40.0599   1
   2   0  11 52.4538 40.5839   1
   2   0  11 57.6119 41.4097   1
   2   0  11 56.0293 49.2953   1
  -5   0  13 1284.19 120.054   1
  -5   0  13 1192.26 103.378   1
   5   0 -13 1101.66 109.814   1
  -4   3  11 6392.87 234.043   1
  -4   3  11 6394.72 238.724   1
  -4  -3  11 7103.15 284.773   1
   4  -3 -11 6838.87 252.924   1
   4   3 -11 6937.60 289.344   1
   4  -3 -11 6736.02 244.996   1
  -4   3  11 6722.58 238.906   1
  -4  -3  11 7175.38 282.307   1
   4   3 -11 7172.56 262.992   1
   4   5   1 2401.49 157.513   1
   4   5   1 2357.86 173.265   1
  -4  -5  -1 2133.86 90.4234   1
  -4  -5  -1 2201.47 149.965   1
   4  -5   1 2064.76 139.793   1
   4  -5   1 2615.74 176.811   1
  -4   5  -1 2246.59 162.393   1
  -4   5  -1 2455.73 169.950   1
   2   5   4 2375.40 133.921   1
  -2  -5  -4 2110.24 136.536   1
  -2   5  -4 2648.92 180.389   1
  -2   5  -4 3022.27 179.345   1
   2  -5   4 2492.55 180.206   1
   2   5   4 2137.94 162.345   1
   6   1   7 26764.9 939.638   1
   6   1   7 25466.8 815.025   1
   6   1   7 26388.4 863.938   1
   6  -1   7 28700.1 992.799   1
  -6  -1  -7 26021.6 844.866   1
  -6   1  -7 27513.5 912.478   1
  -6  -1  -7 25105.9 801.985   1
   6  -1   7 27829.3 914.571   1
   4  -4  -9 210.060 77.6234   1
   4  -4  -9 58.7034 62.9204   1
  -4   4   9 120.104 64.2295   1
  -4   4   9 158.841 73.7123   1
  -4   4   9 230.497 72.4154   1
  -4   4   9 154.710 57.8854   1
   4   4  -9 189.612 78.0036   1
   4   4  -9 309.129 97.1238   1
  -4  -4   9 128.693 66.7760   1
  -4  -4   9 189.541 85.2531   1
   0  -1  12 1589.51 109.121   1
   0  -1 -12 1365.24 53.1415   1
   0  -1 -12 1227.17 57.5202   1
   0   1 -12 1502.38 106.805   1
   0   1 -12 1454.54 104.566   1
   0  -1  12 1798.74 109.462   1
   0  -1  12 1641.39 112.584   1
   0   1  12 1383.97 61.6251   1
   0   1  12 1333.82 56.1041   1
  -1  -4  -8 610.960 61.8976   1
   1   4   8 804.170 64.2302   1
  -1  -4  -8 795.613 61.9430   1
   1   4   8 669.184 58.9054   1
   1  -4   8 537.260 100.902   1
  -1   4  -8 754.061 107.807   1
   5   4   4 3482.48 154.069   1
   5  -4   4 3567.13 204.313   1
   5   4   4 3548.18 164.694   1
   5   4   4 3386.82 145.004   1
  -5  -4  -4 3443.37 158.552   1
  -5   4  -4 3687.43 206.862   1
  -5  -4  -4 3638.99 167.804   1
   5  -4   4 3643.76 200.475   1
  -7   4   6 5970.76 252.361   1
   7  -4  -6 5982.47 260.249   1
  -7  -4   6 6461.98 284.967   1
   7   4  -6 6567.91 285.917   1
   2  -3 -11 23964.7 722.022   1
   2  -3 -11 22458.0 683.546   1
  -2   3  11 22785.3 747.781   1
  -2   3  11 23098.3 703.512   1
  -2   3  11 23437.5 707.352   1
  -2  -3  11 22597.2 785.385   1
  -2  -3  11 21784.3 737.514   1
  -2  -3  11 22530.4 765.602   1
   2   3 -11 23469.6 827.952   1
   8  -2   3 792.030 112.482   1
   8  -2   3 821.445 98.3904   1
   8   2   3 331.998 77.9983   1
   8   2   3 385.583 99.6453   1
  -8   2  -3 742.750 117.953   1
   8  -1   4 2258.73 155.354   1
   8   1   4 1931.16 160.214   1
  -8  -1  -4 1831.31 123.759   1
   8   1   4 2009.54 123.300   1
  -8   1  -4 2011.61 149.318   1
   8  -1   4 2331.24 150.945   1
  -2   5   6 3868.80 185.577   1
   2  -5  -6 4106.55 191.577   1
  -2   5   6 3583.11 186.417   1
  -2  -5   6 3925.09 218.072   1
   2   5  -6 3657.98 196.597   1
   2   5  -6 3368.37 208.977   1
   1   5   5 2346.97 130.551   1
  -1  -5  -5 2442.17 145.142   1
   1   5   5 2763.41 170.169   1
  -1  -5  -5 2663.37 142.859   1
   1   5   5 2656.06 154.427   1
   1  -5   5 2296.23 171.936   1
  -1   5  -5 2221.64 178.078   1
  -1   5  -5 2426.50 172.436   1
  -3  -5  -3 211.515 73.3236   1
  -3   5  -3 130.756 93.3920   1
   3   5   3 199.373 72.4178   1
   3   5   3 312.729 93.4295   1
   3  -5   3 53.5350 99.2897   1
  -3   5  -3 101.804 95.8970   1
   4   5  -5 4724.94 247.796   1
   4   5  -5 4753.32 236.741   1
  -4   5   5 5080.11 194.811   1
  -4   5   5 5384.34 245.051   1
  -4   5   5 5189.81 224.949   1
   4  -5  -5 5381.96 254.978   1
  -4  -5   5 4875.51 241.424   1
   1  -4  -9 -5.7886 40.3400   1
   1   4  -9 56.7314 81.4961   1
   1   4  -9 171.154 65.1222   1
   1  -4  -9 2.27978 37.0841   1
  -1   4   9 -36.377 59.8394   1
  -1   4   9 -25.390 39.0836   1
  -1  -4   9 49.5873 63.1155   1
  -1   4   9 37.7979 42.0943   1
 -10  -1   8 25750.1 892.755   1
 -10   1   8 24046.0 852.022   1
 -10   1   8 24583.0 856.795   1
  10   1  -8 24434.5 861.881   1
  10  -1  -8 23816.2 844.955   1
   4  -1 -13 2608.11 127.022   1
  -4   1  13 2866.17 136.325   1
  -4   1  13 3018.72 164.693   1
  -4   1  13 2683.11 137.296   1
   4  -1 -13 2832.24 143.655   1
  -4  -1  13 2371.78 172.014   1
  -4  -1  13 2565.77 147.099   1
   4   1 -13 2461.73 151.664   1
  -8  -3  -1 3134.13 170.299   1
   8   3   1 3076.93 143.641   1
   8   3   1 3324.40 160.839   1
   8   3   1 3124.50 168.505   1
  -8   3  -1 3316.69 191.027   1
   8  -3   1 3630.07 205.010   1
   8  -3   1 3372.69 188.550   1
   1  -5  -6 1376.19 118.928   1
  -1   5   6 1552.24 132.213   1
  -1   5   6 1624.96 114.471   1
  -1  -5   6 1719.34 149.676   1
   1   5  -6 1982.45 153.159   1
   1   5  -6 1979.66 171.229   1
   7   0   6 98.5431 58.1413   1
   7   0   6 70.2236 54.6027   1
   7   0   6 89.7588 71.7641   1
  -7   0  -6 -7.2870 56.0529   1
  -7   0  -6 56.6819 68.1392   1
  -9  -2   9 4895.55 256.365   1
   9   2  -9 5191.23 250.009   1
   9  -2  -9 5388.13 244.077   1
  -9   2   9 4819.44 227.058   1
  -9  -2   9 5467.44 248.427   1
  -2   0  13 -52.286 64.9083   1
   2   0 -13 75.2772 53.6738   1
   2   0 -13 -34.024 44.2748   1
  -2   0  13 39.6457 40.7375   1
  -2   0  13 45.3314 43.9136   1
   9   1   2 10186.5 370.189   1
  -9  -1  -2 9451.25 352.287   1
  -9   1  -2 11041.6 418.115   1
   9  -1   2 10599.9 378.148   1
   9   1   2 10551.7 410.138   1
   9  -1   2 10532.3 403.396   1
  -9   3   4 18274.7 658.088   1
   9   3  -4 18373.6 653.297   1
   9  -3  -4 18082.0 658.487   1
   9  -3  -4 18179.2 644.005   1
  -9  -3   4 18335.0 652.081   1
  -6   3  -5 50.3613 75.5278   1
  -6   3  -5 76.6806 56.0661   1
   6   3   5 31.0412 50.6376   1
   6  -3   5 156.519 83.6473   1
   6  -3   5 140.915 74.0859   1
   6   3   5 -18.570 65.4839   1
  -6  -3  -5 56.5823 54.6465   1
  -6  -3  -5 19.5303 50.7864   1
   6   3   5 26.3185 49.7412   1
  -6   4   8 1203.29 112.623   1
   6  -4  -8 1227.84 103.766   1
  -6   4   8 1105.60 115.590   1
   6   4  -8 907.773 117.058   1
  -6  -4   8 817.150 126.300   1
   6   4  -8 959.621 136.497   1
  -6  -4   8 761.812 134.277   1
  -3  -1  13 4113.49 203.070   1
  -3  -1  13 3990.94 182.232   1
  -3   1  13 4992.53 217.890   1
  -3   1  13 4914.74 180.651   1
   3  -1 -13 4590.65 171.824   1
   3   1 -13 3980.57 193.881   1
  -3   1  13 5106.14 188.980   1
   3  -1 -13 4666.51 182.196   1
  -3  -1  13 4028.49 130.550   1
  -3   1  13 4866.50 153.793   1
   1  -2  11 21432.2 718.742   1
  -1   2 -11 20866.7 707.438   1
   1  -2  11 21276.1 702.907   1
   1  -2  11 20271.8 705.382   1
  -5  -3  11 2235.14 154.607   1
  -5  -3  11 2327.55 162.900   1
   5  -3 -11 2835.62 154.283   1
   5  -3 -11 2435.87 141.161   1
   5   3 -11 2701.00 141.218   1
   5   3 -11 2575.86 169.844   1
  -5   3  11 2749.12 135.737   1
  -5   3  11 2602.79 131.713   1
  -5   3  11 2336.36 129.039   1
  10   1  -1 5034.23 256.823   1
  10   1  -1 5651.13 235.650   1
  10  -1  -1 6215.60 262.451   1
 -10   1   1 5845.06 257.822   1
 -10  -1   1 5291.11 211.549   1
  10  -1  -1 5364.87 252.396   1
 -10  -1   1 5379.19 257.469   1
 -10   1   1 5927.05 210.020   1
   9  -3  -5 15101.4 561.580   1
   9  -3  -5 15297.4 558.062   1
  -9  -3   5 15742.3 572.880   1
   9   3  -5 15609.0 565.133   1
  -9   3   5 15747.8 566.978   1
  -9  -3   5 15684.9 583.244   1
  -3   5   6 2874.31 194.936   1
  -3   5   6 3051.85 177.856   1
  -3   5   6 2993.93 123.856   1
   3  -5  -6 3184.54 183.867   1
  -3  -5   6 4321.04 218.411   1
   3   5  -6 4451.79 209.668   1
   3   5  -6 4513.32 239.615   1
   7   4   0 692.175 104.688   1
  -7  -4   0 921.180 111.723   1
  -7  -4   0 747.738 92.8234   1
   7  -4   0 892.336 129.031   1
   7  -4   0 951.165 131.328   1
  -7   4   0 990.883 131.649   1
   2  -1  11 11635.3 406.631   1
   2  -1  11 11977.5 406.434   1
   2  -1  11 11401.9 383.862   1
  -2   1 -11 12318.3 412.857   1
  -2   1 -11 11727.7 408.930   1
  -5  -5   2 1959.62 117.335   1
  -5  -5   2 2161.65 143.450   1
  -5   5   2 1371.58 142.170   1
   5  -5  -2 1594.15 147.367   1
  -5   5   2 1311.25 144.489   1
   5   5  -2 2438.06 167.417   1
   5   5  -2 2194.91 146.866   1
   5  -5  -2 1530.90 124.895   1
   6  -2 -12 3039.73 161.542   1
  -6   2  12 2953.92 152.879   1
   6   2 -12 3654.81 219.148   1
  -6  -2  12 3583.94 196.811   1
  -6  -2  12 3531.32 174.865   1
   6   2 -12 3689.60 143.288   1
   7   2   5 5197.83 232.009   1
   7   2   5 5171.12 202.224   1
   7  -2   5 5809.33 269.228   1
   7   2   5 4789.06 173.235   1
  -7  -2  -5 4874.60 197.395   1
  -7  -2  -5 4865.67 195.729   1
  -7   2  -5 5856.29 259.366   1
   7   2   5 5144.51 202.404   1
  -7   2  -5 5430.25 160.206   1
  -5   1  13 356.754 84.7019   1
  -5  -1  13 1269.33 105.533   1
  -5   1  13 612.256 106.259   1
   5   1 -13 1197.85 117.006   1
   5  -1 -13 391.347 81.5429   1
   5  -1 -13 612.976 84.3687   1
  -5  -1  13 1216.18 113.495   1
  -5   1  13 674.189 90.9137   1
   9  -3  -3 5589.97 264.674   1
   9  -3  -3 5604.71 257.233   1
   9   3  -3 4679.03 222.758   1
  -9   3   3 5954.53 268.831   1
  -9  -3   3 4376.95 249.358   1
  -5   5   3 2531.87 174.332   1
   5  -5  -3 2577.71 153.282   1
   5  -5  -3 2738.07 177.171   1
   5   5  -3 2432.50 175.579   1
   5   5  -3 2615.03 165.870   1
  -5   5   3 2698.55 166.650   1
  -5  -5   3 2249.75 163.598   1
  -6   0  13 43.2685 79.8782   1
  -6   0  13 168.609 73.1027   1
   6   0 -13 39.2270 73.4519   1
 -10  -2   5 1927.15 149.916   1
 -10   2   5 2046.58 159.369   1
  10   2  -5 2180.69 147.496   1
  10  -2  -5 2224.97 172.125   1
  10  -2  -5 2220.68 161.791   1
 -10  -2   5 2234.85 168.391   1
 -10   0   9 210.999 96.0493   1
 -10   0   9 302.376 101.163   1
  10   0  -9 16.5608 103.081   1
  -1  -2  12 1854.91 112.215   1
   1   2 -12 1912.56 131.856   1
  -1  -2  12 2034.21 129.843   1
  -1  -2  12 1868.72 137.617   1
 -10  -2   4 229.793 116.192   1
 -10  -2   4 322.242 94.8634   1
 -10   2   4 270.046 97.8667   1
  10   2  -4 438.167 90.5814   1
  10  -2  -4 274.324 102.345   1
  10  -2  -4 315.717 103.775   1
   1  -3  10 1699.36 120.487   1
  -1   3 -10 1802.77 145.277   1
   5   5  -1 1932.69 137.436   1
  -5  -5   1 1702.42 149.325   1
  -5  -5   1 1982.10 111.053   1
   5   5  -1 1869.76 160.883   1
  -5   5   1 1955.65 154.986   1
  -5   5   1 1901.61 153.530   1
   5  -5  -1 1959.07 161.986   1
   5  -5  -1 1786.94 132.505   1
   7  -3 -10 749.994 111.257   1
  -7   3  10 712.195 104.564   1
   7  -3 -10 701.620 97.9707   1
  -7  -3  10 1066.17 116.712   1
   7   3 -10 916.506 110.061   1
   7   3 -10 1033.58 122.968   1
  -7  -3  10 852.100 139.777   1
   9  -2   1 35.6484 78.7943   1
   9  -2   1 152.342 72.8800   1
   9   2   1 18.7976 45.7757   1
   9   2   1 -12.683 65.5973   1
   9   2   1 96.0291 73.3691   1
  -9   2  -1 91.2576 73.1686   1
   5  -4  -9 2084.43 133.489   1
  -5   4   9 2251.84 131.128   1
  -5   4   9 2040.54 120.740   1
  -5   4   9 2304.73 138.489   1
   5   4  -9 1725.85 132.357   1
   5   4  -9 1697.39 158.262   1
  -5  -4   9 1703.65 146.874   1
  -5  -4   9 1462.38 152.146   1
  -8   0  12 314.877 103.733   1
   8   0 -12 355.533 108.465   1
  -8   0  12 310.204 86.5500   1
   8   0 -12 505.553 52.7090   1
   9   3  -6 3365.13 193.996   1
   9  -3  -6 2768.52 183.048   1
  -9  -3   6 3560.04 195.498   1
  -9   3   6 2880.22 182.431   1
  -9  -3   6 3462.87 195.486   1
   9  -3  -6 3009.73 200.168   1
   0   5   6 6388.22 250.089   1
   0   5   6 6560.37 260.285   1
   0  -5  -6 6985.52 272.895   1
   0  -5  -6 6232.29 256.029   1
   0   5   6 6610.43 272.964   1
   0   5  -6 6613.03 283.354   1
   0   5  -6 6328.83 284.289   1
   0  -5   6 6803.76 289.821   1
  10  -2  -6 1028.14 136.159   1
  10  -2  -6 1379.94 139.700   1
  10   2  -6 1414.12 135.823   1
 -10  -2   6 1630.27 160.434   1
 -10  -2   6 1399.96 134.487   1
 -10   2   6 1116.44 129.369   1
  -4   5  -2 73.4063 78.1575   1
  -4  -5  -2 -1.2383 62.4730   1
   4  -5   2 80.0640 79.7426   1
   4  -5   2 82.8277 69.9117   1
   4   5   2 -6.9415 65.8020   1
  -4   5  -2 -67.935 78.1909   1
  -1   3  11 117.016 29.3058   1
  -1   3  11 187.193 70.9283   1
   1  -3 -11 251.169 30.2044   1
   1  -3 -11 243.829 26.7832   1
  -1  -3  11 170.610 74.0762   1
  -1  -3  11 187.539 72.0391   1
   1   3 -11 221.864 91.3870   1
  -1  -3  11 422.750 87.2848   1
  -5   5   4 465.306 107.776   1
  -5  -5   4 759.078 109.618   1
  -5   5   4 593.810 102.324   1
   5   5  -4 554.536 113.908   1
   5   5  -4 546.303 113.942   1
   5  -5  -4 475.780 108.947   1
   5  -5  -4 478.702 90.5882   1
  -9   0  11 -15.879 73.9798   1
  -9   0  11 -36.807 61.4410   1
   9   0 -11 -21.413 68.5255   1
 -10   0   0 425.479 92.1545   1
  10   0   0 207.118 99.0070   1
 -10   0   0 430.781 57.4550   1
  10   0   0 314.614 90.2085   1
 -10   2   3 15009.2 547.987   1
  10  -2  -3 14667.8 543.800   1
  10  -2  -3 14509.8 530.994   1
 -10  -2   3 15047.3 519.150   1
 -10  -2   3 15481.4 543.888   1
  10   2  -3 15453.0 536.740   1
  -7  -1  -6 289.977 69.9659   1
  -7  -1  -6 329.137 75.5149   1
   7   1   6 317.269 75.1632   1
   7  -1   6 106.849 102.753   1
   7  -1   6 236.655 81.8408   1
  -7   1  -6 302.359 83.3013   1
   7   1   6 170.791 75.5505   1
   7   1   6 328.482 84.6438   1
   7   4  -7 2325.25 169.326   1
   7  -4  -7 1811.68 140.168   1
   7   4  -7 2256.87 161.968   1
  -7   4   7 1835.95 135.820   1
  -7  -4   7 2161.09 163.885   1
   2   1 -13 3270.25 160.356   1
  -2   1  13 4029.25 145.122   1
  -2  -1  13 3634.94 191.952   1
  -2   1  13 3908.22 178.801   1
  -2  -1  13 3350.53 155.615   1
  -2  -1  13 3046.08 125.433   1
  -2  -1  13 3345.59 164.873   1
  -2   1  13 3846.09 146.474   1
   2  -1 -13 3917.08 140.712   1
   2   1 -13 3074.84 161.577   1
  -9  -3   2 423.770 90.2051   1
  -9   3   2 151.442 102.483   1
   9   3  -2 395.073 86.8625   1
   9  -3  -2 281.332 105.234   1
   9  -3  -2 364.898 102.871   1
   1   0  12 14.4347 48.7517   1
  -1   0 -12 42.6560 37.7121   1
  -1   0 -12 -8.9150 32.4171   1
   1   0  12 23.1969 44.2353   1
   1   0  12 34.6161 39.8801   1
  -8   3   9 1476.35 139.471   1
   8  -3  -9 1499.97 132.172   1
  -8  -3   9 1849.34 174.000   1
  -8  -3   9 1538.63 136.885   1
   8   3  -9 1444.04 148.529   1
   0   4   9 52.9876 41.3313   1
   0   4   9 41.7082 38.0230   1
   0   4   9 64.8940 70.3761   1
   0  -4  -9 26.2552 38.8260   1
   0   4  -9 28.1651 73.1413   1
   0  -4   9 81.6455 72.8004   1
  -4   5   6 5634.73 208.632   1
   4  -5  -6 5899.79 265.826   1
  -4   5   6 5796.01 260.695   1
  -4   5   6 5790.32 260.544   1
  -4  -5   6 6757.28 294.830   1
   4   5  -6 6724.88 282.734   1
   4   5  -6 6170.78 295.929   1
   6   4   3 99.5951 64.9113   1
   6   4   3 60.9727 62.8445   1
   6   4   3 3.22020 67.6061   1
  -6  -4  -3 142.157 74.6197   1
   6  -4   3 201.858 104.461   1
  -6   4  -3 225.676 94.2029   1
   6  -4   3 243.761 89.1724   1
  -6  -1  13 21227.4 743.733   1
  -6  -1  13 21017.3 717.063   1
   6  -1 -13 19837.9 672.174   1
   6   1 -13 20825.0 729.327   1
  -6   1  13 20247.2 712.675   1
  -6   1  13 20049.6 670.727   1
  -5  -5   0 8102.42 273.519   1
  -5  -5   0 8404.37 331.971   1
   5   5   0 8570.22 339.056   1
   5  -5   0 8150.26 342.679   1
  -5   5   0 8383.19 342.733   1
  -5   5   0 8036.01 343.534   1
   5  -5   0 8024.98 317.040   1
  10   1  -9 27556.9 973.036   1
 -10   1   9 26035.9 913.587   1
 -10   1   9 26323.8 927.287   1
 -10  -1   9 28098.5 975.154   1
 -10  -1   9 28765.3 1010.67   1
  10  -1  -9 25980.7 917.037   1
  -4   2  -9 9458.05 360.772   1
  -4   2  -9 9311.18 310.670   1
   4  -2   9 9618.82 354.786   1
   8  -2 -11 4072.47 183.471   1
   8  -2 -11 4271.34 215.397   1
   8   2 -11 4202.34 218.341   1
  -8   2  11 4149.26 182.775   1
  -8  -2  11 3926.33 233.998   1
  -8  -2  11 3900.04 212.855   1
  -3  -4  -7 667.299 62.6284   1
   3   4   7 707.142 67.3220   1
  -3   4  -7 803.263 112.598   1
  -3  -4  -7 474.114 58.6554   1
   3  -4   7 834.738 109.833   1
   3   4   7 824.243 73.0167   1
  -1   0  13 129.166 51.8610   1
  -1   0  13 36.8091 47.3462   1
  -1   0  13 89.5603 66.1363   1
   1   0 -13 44.5021 50.2152   1
   1   0 -13 23.2512 45.1180   1
  -6   3  11 82.0220 64.4509   1
  -6   3  11 132.565 57.7198   1
   6  -3 -11 61.9945 67.9160   1
   6  -3 -11 4.12313 62.2147   1
  -6  -3  11 29.9294 84.9122   1
  -6  -3  11 116.421 76.4026   1
   6   3 -11 29.3178 62.8334   1
   6   3 -11 126.108 83.7025   1
 -10   2   7 188.049 97.5906   1
  10   2  -7 270.231 93.5631   1
 -10  -2   7 144.190 93.4910   1
  10  -2  -7 226.617 99.5508   1
  -5   2  -8 1323.81 115.729   1
  -5   2  -8 1189.86 69.5970   1
  -5  -2  -8 661.640 55.2914   1
   5   2   8 666.656 56.7218   1
   5   2   8 771.593 58.6304   1
   5   2   8 914.990 107.376   1
   5  -2   8 1353.28 113.621   1
  -5  -2  -8 690.372 55.2371   1
  -4  -4  -6 24382.1 771.773   1
  -4  -4  -6 23084.4 731.648   1
   4   4   6 23720.8 740.753   1
   4   4   6 25388.3 796.881   1
  -4   4  -6 23383.9 828.526   1
   4  -4   6 23417.1 828.946   1
   2   5   5 11007.3 420.627   1
   2   5   5 10092.9 360.260   1
   2   5   5 10907.9 387.746   1
  -2  -5  -5 10473.8 379.667   1
  -2  -5  -5 9972.32 367.853   1
  -2   5  -5 12231.3 463.718   1
  -2   5  -5 12891.2 471.415   1
   2  -5   5 12799.4 467.764   1
  -9  -3   7 184.951 99.3447   1
  -9  -3   7 105.125 91.9087   1
  -9   3   7 105.769 88.1001   1
   9   3  -7 84.1004 88.9920   1
   9  -3  -7 165.712 89.3587   1
  -8   1  12 874.144 107.131   1
  -8   1  12 642.983 118.048   1
   8  -1 -12 762.989 69.7633   1
   8  -1 -12 915.135 115.589   1
  -8  -1  12 1060.61 130.485   1
   8   1 -12 623.511 109.653   1
  -8  -1  12 722.371 122.788   1
  -5   5   5 6874.93 280.725   1
  -5   5   5 6604.97 281.234   1
  -5   5   5 6332.66 248.005   1
   5  -5  -5 6798.25 312.323   1
   5   5  -5 7047.88 307.096   1
   5   5  -5 6685.24 293.564   1
  -5  -5   5 6522.11 292.089   1
  -7  -4  -1 13909.9 493.336   1
   7  -4   1 14769.0 560.802   1
   7   4   1 13870.0 487.366   1
  -7  -4  -1 14077.9 494.813   1
  -7   4  -1 14381.1 543.424   1
   7  -4   1 15132.8 550.583   1
  -3   5  -4 107.933 92.3642   1
  -3  -5  -4 102.133 70.1937   1
   3   5   4 129.195 68.7581   1
   3   5   4 236.784 95.3635   1
   3  -5   4 219.253 92.2631   1
  -3   5  -4 116.440 94.3168   1
   9   0   3 27510.0 938.097   1
   9   0   3 27055.7 945.628   1
  -9   0  -3 28024.6 958.043   1
 -10   2   2 4287.99 223.479   1
  10  -2  -2 4395.14 222.463   1
  10   2  -2 4183.62 201.807   1
  10  -2  -2 4335.47 233.569   1
  10   2  -2 4336.53 205.864   1
   9  -1 -11 30166.8 973.909   1
   9  -1 -11 30755.2 1052.44   1
  -9   1  11 30517.8 1057.88   1
  -9   1  11 28846.9 985.064   1
  -9  -1  11 26377.5 957.492   1
  -9  -1  11 26699.4 935.878   1
   9   1 -11 26582.2 942.033   1
  10  -1   0 452.915 93.6403   1
  10  -1   0 515.634 103.328   1
 -10   1   0 456.661 96.8451   1
 -10   1   0 199.734 51.0399   1
 -10  -1   0 486.336 99.8674   1
  10   1   0 229.604 81.3594   1
  10   1   0 370.804 110.132   1
   3  -2  10 1449.02 121.271   1
  -3   2 -10 1412.15 123.389   1
  -3   2 -10 1386.60 100.783   1
   7   3   4 9047.89 331.086   1
  -7  -3  -4 9067.41 327.677   1
  -7  -3  -4 8835.62 319.382   1
   7   3   4 8811.32 324.556   1
   7   3   4 9296.14 333.161   1
  -7   3  -4 10958.7 404.042   1
   7  -3   4 10641.8 423.698   1
   7  -3   4 10466.7 414.542   1
  -2  -4  -8 831.366 62.1560   1
  -2  -4  -8 865.653 65.7784   1
   2   4   8 804.001 59.9654   1
   2   4   8 785.207 60.3315   1
  -2   4  -8 962.955 119.473   1
   2  -4   8 1177.53 137.081   1
   8   3   2 3502.54 168.525   1
   8   3   2 3177.81 161.644   1
   8   3   2 3622.13 172.189   1
  -8  -3  -2 3449.05 174.043   1
  -8   3  -2 3106.78 185.041   1
   8  -3   2 2691.60 173.109   1
   8  -3   2 2982.17 190.409   1
  -2   5   7 6566.95 201.433   1
   2   5  -7 7958.39 329.552   1
  -2   5   7 6384.29 255.901   1
  -2   5   7 6568.68 270.095   1
  -2  -5   7 7840.31 331.308   1
   2  -5  -7 6478.02 259.985   1
   2   5  -7 8071.40 334.298   1
  -7   0  13 13021.0 480.839   1
  -7   0  13 13249.6 468.810   1
   7   0 -13 13043.7 475.171   1
  -4  -3  -8 2475.44 88.0202   1
   4   3   8 2771.01 151.710   1
   4   3   8 2422.38 83.8019   1
   4   3   8 2512.62 87.9638   1
  -4   3  -8 3106.02 154.365   1
   4  -3   8 2762.89 175.961   1
  -4   3  -8 2647.40 152.351   1
   9  -3  -1 8074.44 340.294   1
  -9  -3   1 7727.98 318.896   1
   9  -3  -1 8664.64 350.722   1
   9   3  -1 8762.69 338.201   1
  -9   3   1 8336.15 348.011   1
   9   3  -1 7934.53 313.655   1
   1  -1  12 2418.75 138.686   1
   1  -1  12 2459.09 137.949   1
   1  -1  12 2283.92 133.603   1
  -1   1 -12 2260.20 130.342   1
  -1   1 -12 2484.10 139.494   1
  -5   0  -9 1652.86 102.321   1
   5   0   9 1450.89 70.1597   1
   5   0   9 1570.76 103.213   1
  -5   0  -9 1532.13 101.785   1
   5   0   9 1543.73 102.246   1
  -8   0  -5 53.3691 73.4006   1
   8   0   5 225.224 87.3932   1
   8   0   5 215.703 68.8529   1
   7  -2 -12 62.2856 46.4542   1
   7  -2 -12 42.7553 68.6932   1
  -7   2  12 -5.4988 65.5979   1
   7   2 -12 70.9104 44.8392   1
   7   2 -12 6.71484 78.6430   1
  -7  -2  12 19.0887 71.2396   1
  -7  -2  12 114.614 85.0303   1
  -9  -2  10 2453.64 176.323   1
  -9   2  10 1541.93 125.733   1
  -9  -2  10 1395.71 141.718   1
   9  -2 -10 1707.75 138.372   1
   9  -2 -10 1881.33 137.271   1
   9   2 -10 1444.22 151.676   1
   4   0  10 1608.26 94.5428   1
  -4   0 -10 1325.93 84.0235   1
  -4   0 -10 1678.87 96.9947   1
   4   0  10 1654.38 95.3572   1
  -1  -5  -6 6025.00 242.321   1
  -1  -5  -6 5584.07 229.269   1
   1   5   6 5647.68 226.282   1
   1   5   6 5915.70 236.010   1
   1   5   6 5887.44 260.935   1
  -1   5  -6 6410.67 289.163   1
  -1   5  -6 6156.73 275.080   1
   1  -5   6 6333.23 280.581   1
   8  -4  -4 7001.28 302.433   1
  -8  -4   4 7374.22 337.692   1
  -8   4   4 6435.77 293.074   1
   8   4  -4 7433.34 307.038   1
   8  -4  -4 6740.58 298.260   1
  11   0  -5 12945.7 478.270   1
  11   0  -5 12664.0 490.183   1
 -11   0   5 13289.3 469.143   1
 -11   0   5 12439.0 471.403   1
   3  -4 -10 2011.15 119.485   1
  -3   4  10 1890.01 119.080   1
  -3   4  10 2209.34 116.520   1
  -3   4  10 1950.11 128.177   1
   3  -4 -10 2168.76 124.652   1
   3   4 -10 1876.81 160.483   1
  -3  -4  10 2052.51 151.768   1
  -3  -4  10 1978.96 146.087   1
   3   4 -10 2087.48 143.490   1
   8  -4  -3 5836.27 277.610   1
   8  -4  -3 5959.76 274.603   1
   8   4  -3 5727.14 255.330   1
  -8   4   3 6111.06 275.058   1
  -8  -4   3 5369.94 249.723   1
  -3   5   7 458.223 94.7789   1
   3  -5  -7 387.904 94.9413   1
  -3   5   7 335.931 113.874   1
  -3   5   7 496.537 60.2116   1
   3   5  -7 820.000 103.294   1
  -3  -5   7 629.349 118.848   1
   3   5  -7 559.810 123.752   1
  -3   3  -9 -20.444 57.4111   1
   3  -3   9 8.77793 68.9385   1
  -3   3  -9 -32.216 69.8090   1
   6   2   7 942.367 83.1561   1
   6   2   7 813.528 73.4544   1
  -6   2  -7 1093.22 122.960   1
  -6   2  -7 1137.08 63.5751   1
  -6  -2  -7 782.230 71.7358   1
   6   2   7 1103.84 115.541   1
   6  -2   7 998.570 121.556   1
  -1   5   7 5748.70 234.899   1
   1  -5  -7 5575.95 236.532   1
  -1   5   7 5876.36 277.039   1
  -1   5   7 5228.45 226.295   1
   1  -5  -7 5590.28 242.808   1
  -1  -5   7 6152.56 277.449   1
   1   5  -7 6062.84 259.861   1
   1   5  -7 6031.23 278.340   1
  -5   3  -7 22910.8 754.485   1
   5   3   7 20544.0 633.804   1
   5   3   7 20547.7 628.298   1
  -5   3  -7 22831.1 794.313   1
  -5  -3  -7 20008.7 617.203   1
   5   3   7 20179.5 663.969   1
  -5  -3  -7 20288.3 625.633   1
   5  -3   7 22061.8 774.592   1
   5  -4   5 2597.14 176.876   1
   5  -4   5 2651.62 176.051   1
   5   4   5 2446.06 134.237   1
   5   4   5 2197.66 121.014   1
  -5   4  -5 2656.21 180.752   1
  -5  -4  -5 2264.84 123.963   1
  -5  -4  -5 2241.96 126.572   1
   5   4   5 2436.87 129.066   1
   0  -2  12 116.038 66.6675   1
   0  -2  12 38.7949 68.8090   1
   0   2 -12 136.672 68.8321   1
   0  -2  12 55.5950 68.6318   1
  10   0 -10 12038.4 455.700   1
 -10   0  10 12256.1 468.811   1
 -10   0  10 12647.5 464.995   1
  -6   4   9 207.153 78.0311   1
   6   4  -9 95.2040 99.1910   1
   6  -4  -9 182.464 88.7902   1
   6   4  -9 132.671 85.6034   1
  -6  -4   9 136.695 94.9467   1
  -6   4   9 188.537 77.0392   1
 -11   0   6 202.860 100.303   1
  11   0  -6 127.018 103.254   1
 -11   0   6 804.658 108.463   1
  -5  -5  -1 3809.15 197.903   1
   5   5   1 3684.07 202.003   1
  -5  -5  -1 3871.73 150.456   1
   5  -5   1 4376.87 240.039   1
   5  -5   1 4202.32 205.671   1
  -5   5  -1 4130.19 224.977   1
  -1  -1  13 7477.46 293.823   1
  -1   1  13 7351.41 289.947   1
  -1   1  13 7108.69 218.142   1
  -1   1  13 6965.50 216.950   1
  -1  -1  13 7309.97 271.170   1
   1   1 -13 7398.61 275.311   1
   1   1 -13 7145.85 273.624   1
   1  -1 -13 6962.11 216.631   1
   1  -1 -13 7166.25 217.859   1
  -1  -1  13 7521.81 281.531   1
  -1  -1  13 7159.52 247.682   1
 -11   0   4 222.976 88.1657   1
  11   0  -4 36.5707 88.0777   1
  11   0  -4 174.669 90.4082   1
 -11   0   4 16.6586 89.7165   1
   8   4  -5 26274.5 927.876   1
  -8   4   5 27718.3 973.368   1
  -8  -4   5 27179.0 955.532   1
   8  -4  -5 28030.7 972.624   1
   8  -4  -5 28106.1 991.012   1
   4   5   3 1034.95 107.464   1
  -4  -5  -3 992.816 109.378   1
   4  -5   3 1581.41 150.883   1
   4  -5   3 1304.32 134.740   1
  -4   5  -3 1392.66 147.056   1
  -2  -4  10 3294.43 188.858   1
   2  -4 -10 3976.67 159.198   1
   2  -4 -10 3592.91 152.720   1
  -2   4  10 3903.71 179.882   1
  -2   4  10 3761.35 151.850   1
   2   4 -10 3463.75 181.440   1
  -2   4  10 3749.53 152.707   1
   0   3 -11 3860.57 200.799   1
   0  -3  11 3674.44 178.350   1
   0  -3  11 3831.55 189.904   1
   4   4 -10 794.255 104.204   1
   4   4 -10 633.541 132.871   1
  -4   4  10 919.268 91.5838   1
  -4  -4  10 976.393 118.132   1
  -4   4  10 1083.79 101.187   1
  -4  -4  10 1177.47 128.823   1
  -4   4  10 976.639 92.2698   1
   4  -4 -10 985.364 91.8400   1
  -4   4  10 1146.87 99.4854   1
   4  -4 -10 999.631 102.518   1
   8   2   4 3259.90 179.430   1
  -8  -2  -4 3198.63 154.190   1
   8   2   4 3224.62 161.399   1
   8   2   4 3205.71 136.514   1
   8   2   4 3249.63 163.761   1
  -8   2  -4 2437.04 159.411   1
   8  -2   4 2693.17 190.790   1
   8  -2   4 2622.45 158.790   1
   6   0   8 220.732 72.5301   1
  -6   0  -8 267.114 74.0870   1
   6   0   8 292.591 73.8378   1
   6   0   8 285.555 99.3550   1
  -6   0  -8 637.238 75.4690   1
   7   4  -8 115.108 100.582   1
   7  -4  -8 76.5616 93.6837   1
  -7   4   8 174.266 76.7134   1
   7   4  -8 210.901 92.3416   1
  -7  -4   8 270.999 100.839   1
  -7  -4   8 266.095 104.389   1
 -10  -2   8 8733.67 381.176   1
  10  -2  -8 9222.15 374.029   1
  10   2  -8 7100.02 321.511   1
 -10   2   8 9562.67 375.266   1
 -10  -2   8 8189.28 344.857   1
   9   1   3 6.94644 92.2371   1
   9  -1   3 116.192 87.8877   1
   9  -1   3 128.045 81.8936   1
   9   1   3 120.263 70.1966   1
  -9  -1  -3 -29.620 70.7403   1
  -9   1  -3 178.308 71.8771   1
   8   4  -2 1565.34 145.495   1
  -8   4   2 704.565 131.901   1
   8  -4  -2 1241.04 125.323   1
  -8  -4   2 1289.48 118.178   1
   8  -4  -2 1273.06 141.480   1
  -4   2  13 5546.17 205.225   1
  -4   2  13 5604.33 217.164   1
  -4  -2  13 6651.02 275.334   1
  -4  -2  13 6836.41 276.167   1
   4  -2 -13 5495.01 208.262   1
  -4   2  13 5245.42 187.513   1
   4   2 -13 6276.79 280.097   1
   4  -2 -13 5203.62 207.142   1
   3   0  11 169.452 55.6628   1
   3   0  11 264.240 60.8721   1
  -3   0 -11 288.490 51.6259   1
   3   0  11 234.590 66.2230   1
   9   2   2 5741.42 256.092   1
   9  -2   2 6118.30 282.232   1
   9   2   2 5483.58 229.533   1
  -9   2  -2 6527.58 270.767   1
   9   2   2 5336.35 198.250   1
   9  -2   2 6107.10 286.867   1
  10   0   1 54.3754 72.0858   1
 -10   0  -1 53.3272 69.7373   1
  10   0   1 161.133 82.2889   1
  -7  -1  13 4183.69 226.676   1
   7  -1 -13 3980.97 207.892   1
   7   1 -13 4915.58 242.798   1
  -7   1  13 3999.21 219.138   1
  -7  -1  13 4705.54 235.958   1
  -5   5   6 4996.42 248.179   1
  -5  -5   6 4882.90 245.925   1
   5   5  -6 4972.69 263.156   1
   5   5  -6 5136.58 263.397   1
  -5   5   6 5380.70 245.798   1
  -5   5   6 5153.52 208.828   1
   5  -5  -6 5579.93 264.605   1
 -11   0   7 13118.0 495.786   1
  11   0  -7 13746.4 518.894   1
 -11   0   7 13410.5 503.345   1
  -3  -2  13 457.815 66.0465   1
  -3   2  13 816.162 75.3935   1
  -3  -2  13 444.536 95.6462   1
   3  -2 -13 621.797 69.4262   1
   3   2 -13 460.364 110.466   1
  -3   2  13 914.952 79.4371   1
  -3  -2  13 465.363 104.513   1
  -9  -3   8 639.570 120.799   1
  -9  -3   8 1338.49 151.881   1
   9  -3  -8 493.059 115.881   1
   9   3  -8 772.339 126.795   1
  -9   3   8 594.942 109.368   1
  -5  -1  -9 15184.4 449.435   1
   5  -1   9 12901.6 444.089   1
   5  -1   9 12676.5 462.668   1
  -5   1  -9 13683.3 458.256   1
   5   1   9 16022.7 479.877   1
  -5  -1  -9 15273.8 468.318   1
  -5   1  -9 12850.5 464.532   1
   5   1   9 16267.5 497.859   1
   8  -1   5 3869.57 203.163   1
   8  -1   5 3585.34 193.990   1
   8   1   5 3949.30 224.371   1
   8   1   5 4114.44 193.691   1
  -8   1  -5 3909.53 201.102   1
  -8  -1  -5 3961.83 190.896   1
   8   1   5 4161.74 191.597   1
  10   2  -1 47.9756 54.5724   1
  10  -2  -1 92.5965 76.3522   1
  10  -2  -1 -27.390 83.8376   1
 -10   2   1 61.6818 78.2630   1
  10   2  -1 -5.4972 64.0862   1
  10   2  -1 76.5292 81.1511   1
  -2   2 -11 4305.95 204.750   1
   2  -2  11 4715.12 207.798   1
   2  -2  11 4262.53 185.592   1
   4  -1  10 757.910 81.9967   1
  -4  -1 -10 901.578 55.4792   1
  -4   1 -10 378.791 87.1033   1
   4   1  10 847.414 56.3302   1
  -4   1 -10 393.774 95.9588   1
  -4  -1 -10 921.578 53.7577   1
   4  -1  10 517.138 94.6483   1
   4   1  10 963.069 53.7834   1
 -11   0   3 2513.14 155.461   1
 -11   0   3 2635.83 171.626   1
  11   0  -3 2656.48 173.636   1
  11   0  -3 2688.27 172.329   1
  -4   5   7 15286.4 539.596   1
   4   5  -7 15194.8 566.730   1
  -4   5   7 15459.3 495.425   1
  -4  -5   7 15587.0 587.893   1
   4  -5  -7 15564.2 549.771   1
   4   5  -7 13361.5 539.508   1
  -4   5   7 16032.9 556.311   1
  -5  -2  13 17608.1 594.607   1
  -5   2  13 15963.0 551.682   1
  -5   2  13 15692.2 525.235   1
  -5   2  13 14559.9 442.102   1
   5   2 -13 18646.4 654.363   1
  -5  -2  13 18234.4 630.828   1
   5  -2 -13 16065.7 536.437   1
   5  -2 -13 15324.1 530.194   1
  -1   4  -9 6389.19 272.635   1
  -1  -4  -9 5353.41 172.037   1
   1  -4   9 6019.20 253.256   1
   1   4   9 5477.60 175.063   1
   1   4   9 5653.56 177.064   1
 -11  -1   5 2317.87 165.024   1
 -11   1   5 2133.98 172.082   1
  11  -1  -5 2168.43 168.169   1
  11  -1  -5 2293.59 174.449   1
  11   1  -5 2555.82 165.279   1
 -11   1   5 2733.70 156.136   1
 -11  -1   5 2503.38 163.537   1
   6   5  -3 2935.57 195.614   1
   6  -5  -3 3097.73 197.640   1
   6  -5  -3 3153.80 169.097   1
   6   5  -3 2608.87 197.591   1
  -6   5   3 3153.85 193.493   1
  -6  -5   3 2820.83 154.483   1
  -6  -5   3 2700.21 171.272   1
  -6   5   3 3414.76 194.280   1
   8   4  -6 3239.95 196.653   1
  -8   4   6 2554.86 175.323   1
   8  -4  -6 3036.78 187.551   1
   8  -4  -6 2536.55 183.551   1
  -8  -4   6 3231.83 196.649   1
   4   3 -12 234.658 83.7572   1
  -4  -3  12 342.705 115.842   1
   4  -3 -12 707.764 75.4970   1
  -4   3  12 580.177 71.3276   1
  -4   3  12 730.021 83.6450   1
  -4  -3  12 353.664 106.334   1
   4   3 -12 299.311 104.840   1
   4  -3 -12 656.812 75.9913   1
  -4   3  12 809.066 81.2460   1
  -2   3 -10 1264.84 114.110   1
   2  -3  10 1398.24 112.561   1
   3   3 -12 132.064 67.9896   1
   3  -3 -12 8.79550 47.0315   1
  -3  -3  12 19.3758 54.4883   1
  -3  -3  12 155.677 64.3644   1
  -3   3  12 15.4100 43.3190   1
  -3  -3  12 63.5862 70.9928   1
  -3   3  12 18.4486 54.4288   1
  -3   3  12 56.0103 44.5640   1
   3  -3 -12 -27.500 38.8146   1
  -6  -5   2 1286.91 123.769   1
  -6   5   2 1358.34 140.968   1
   6  -5  -2 1219.12 123.985   1
   6   5  -2 1207.82 143.380   1
  -6  -5   2 1270.82 104.783   1
   6  -5  -2 1114.20 142.079   1
   0   5  -7 1.23809 83.1835   1
   0  -5  -7 97.4288 64.0348   1
   0   5  -7 85.6160 95.4141   1
   0   5   7 39.7446 54.4254   1
   0  -5   7 87.6964 84.5958   1
   0   5   7 58.2742 59.8632   1
   0   5   7 136.053 89.7773   1
   0  -5  -7 12.7500 58.3217   1
  10   1 -10 3271.22 204.356   1
 -10   1  10 2697.25 189.430   1
  10  -1 -10 3138.95 194.213   1
 -10   1  10 2806.43 181.554   1
 -10  -1  10 3332.49 215.893   1
 -10  -1  10 3511.39 198.562   1
 -11   1   6 186.404 93.8552   1
 -11  -1   6 107.518 87.6176   1
 -11   1   6 105.082 81.2287   1
  11  -1  -6 125.163 94.4238   1
  11  -1  -6 124.518 93.0152   1
  11   1  -6 56.0893 83.4078   1
 -11  -1   6 79.1958 95.5745   1
  -6  -3  -6 14825.6 478.975   1
  -6   3  -6 14165.5 520.709   1
  -6  -3  -6 14004.7 441.504   1
   6  -3   6 15161.0 571.889   1
   6   3   6 14667.9 473.045   1
   6   3   6 15406.9 490.340   1
   6   3   6 13706.6 471.614   1
  -6   3  -6 14457.9 479.191   1
   6  -3   6 14606.3 552.531   1
 -11  -1   4 783.988 114.127   1
  11  -1  -4 490.824 123.309   1
  11  -1  -4 629.305 121.351   1
  11   1  -4 1182.83 115.317   1
  11   1  -4 821.977 118.862   1
 -11  -1   4 753.826 105.991   1
 -11   1   4 354.516 88.1560   1
 -11   1   4 577.613 123.122   1
   8   3 -10 3486.83 192.583   1
   8  -3 -10 3121.93 169.806   1
  -8  -3  10 3657.02 206.040   1
  -8  -3  10 3914.58 239.552   1
  -8   3  10 3454.64 193.298   1
   8   3 -10 3920.92 219.977   1
   1   4 -10 904.894 116.750   1
   1  -4 -10 854.213 71.3864   1
   1  -4 -10 745.336 63.2385   1
  -1   4  10 923.045 70.4016   1
  -1   4  10 917.456 72.0006   1
  -1  -4  10 786.362 109.484   1
  -1   4  10 999.916 107.023   1
   6  -5  -4 2574.49 181.159   1
   6  -5  -4 2778.38 156.319   1
   6   5  -4 2900.18 185.356   1
  -6   5   4 2875.74 177.089   1
  -6   5   4 2576.47 178.071   1
  -6  -5   4 2678.94 142.270   1
   6   5  -4 2751.62 185.971   1
  -6  -5   4 2788.20 182.640   1
  -5   4  10 31.5624 62.6832   1
  -5  -4  10 143.903 92.7097   1
  -5   4  10 88.6575 66.2647   1
  -5   4  10 126.308 67.3941   1
   5   4 -10 214.957 92.3132   1
   5  -4 -10 52.4891 67.8562   1
  -5  -4  10 77.5066 86.1854   1
   5   4 -10 100.583 75.0764   1
  -9  -3   0 180.480 80.3178   1
   9   3   0 149.217 76.7003   1
   9  -3   0 -48.831 86.7723   1
   9  -3   0 114.027 88.6962   1
   9   3   0 133.909 66.3968   1
  -9   3   0 -26.828 88.1203   1
   7   3 -11 9904.06 394.464   1
  -7  -3  11 9691.70 398.061   1
  -7  -3  11 9673.77 381.628   1
  -7   3  11 9928.43 371.704   1
   7  -3 -11 10053.1 373.124   1
   7  -3 -11 9936.20 376.360   1
   7   3 -11 9501.76 350.416   1
   0   0  13 15.3921 41.5371   1
   0   0 -13 -11.285 33.4113   1
   0   0  13 59.5823 56.0766   1
   0   0  13 11.6876 46.1427   1
   0   0 -13 28.3547 38.0196   1
  -6  -1  -8 73.4688 45.0727   1
  -6  -1  -8 40.0597 46.3349   1
   6   1   8 -35.457 47.4875   1
   6  -1   8 16.4027 69.3354   1
   6   1   8 105.620 50.5559   1
  -6   1  -8 3.48466 61.2660   1
   6   1   8 112.643 85.1575   1
  -8   4   1 707.350 126.197   1
  -8  -4   1 346.904 91.5401   1
   8  -4  -1 822.116 108.456   1
   8   4  -1 283.949 108.799   1
  -4   0  14 185.513 65.7376   1
  -4   0  14 79.6252 63.1233   1
   4   0 -14 56.8717 64.1141   1
   4   0 -14 63.9284 63.8876   1
  -4   0  14 106.503 78.3387   1
   7   4   2 10230.2 366.043   1
   7   4   2 10042.0 349.061   1
  -7  -4  -2 10459.8 380.269   1
  -7   4  -2 10659.4 430.167   1
   7  -4   2 10214.4 401.162   1
   7  -4   2 10992.0 428.913   1
   7   2   6 1659.01 113.138   1
  -7  -2  -6 1556.45 112.355   1
  -7   2  -6 2537.38 158.712   1
   7  -2   6 2333.04 178.139   1
   7   2   6 1533.85 110.479   1
   7   2   6 1643.39 142.117   1
  -9   0  12 73.4475 75.5669   1
  -9   0  12 49.5698 64.4974   1
   9   0 -12 -60.308 69.8187   1
  -6  -4  -4 2515.90 141.742   1
   6   4   4 2299.42 124.855   1
   6   4   4 2470.21 145.786   1
   6   4   4 2437.03 137.781   1
  -6  -4  -4 2050.45 134.150   1
   6  -4   4 2693.92 178.060   1
   6  -4   4 2276.80 168.950   1
  -6   4  -4 2411.24 181.335   1
  -5   0  14 134.593 66.9428   1
  -5   0  14 128.527 86.4077   1
   5   0 -14 122.880 77.5927   1
   5   3 -12 2109.63 157.404   1
   5  -3 -12 1993.02 128.454   1
   5  -3 -12 1980.96 129.102   1
   5   3 -12 2068.35 118.629   1
  -5  -3  12 2062.15 146.643   1
  -5   3  12 2017.54 130.978   1
  -5   3  12 1908.03 108.239   1
  -5   3  12 2199.53 129.361   1
  -5  -3  12 2367.13 163.568   1
  -2   2  13 6448.41 198.632   1
  -2   2  13 6569.59 208.274   1
  -2  -2  13 6268.30 227.102   1
   2  -2 -13 6278.67 196.844   1
  -2  -2  13 6637.17 274.083   1
  -2  -2  13 6331.71 278.868   1
  -2   2  13 6466.48 233.643   1
   2  -2 -13 6305.26 198.327   1
   2   2 -13 6799.85 279.995   1
  -6  -5   1 133.947 76.5640   1
   6   5  -1 232.538 93.1304   1
   6  -5  -1 119.021 83.1760   1
   6  -5  -1 137.114 98.4905   1
  -6   5   1 286.169 97.5732   1
  -6  -5   1 40.2248 64.5877   1
   3  -1  11 17271.3 588.506   1
   3  -1  11 16708.1 563.902   1
   3  -1  11 16420.1 527.655   1
  -3   1 -11 16315.7 546.016   1
  -3   1 -11 16742.9 555.777   1
 -10  -1  -1 1436.35 131.014   1
 -10   1  -1 939.774 68.3361   1
 -10   1  -1 1127.21 143.288   1
  10   1   1 1283.82 123.934   1
  10  -1   1 1010.51 134.348   1
  10   1   1 1487.67 127.574   1
  10  -1   1 1114.70 119.313   1
  -7   0  -7 218.728 90.1940   1
  -7   0  -7 454.154 86.2512   1
   7   0   7 541.480 108.422   1
   7   0   7 498.348 91.3710   1
   7   0   7 749.150 89.3509   1
  11   1  -7 1946.46 159.706   1
  11  -1  -7 2211.43 168.630   1
 -11  -1   7 2051.21 161.911   1
 -11  -1   7 1812.08 150.198   1
 -11   1   7 1881.28 153.603   1
 -11   1   7 2025.47 160.399   1
 -11   0   8 -82.176 94.4147   1
 -11   0   8 -72.527 85.4024   1
  11   0  -8 -5.5761 91.9832   1
  -2  -3  12 498.812 90.1317   1
   2  -3 -12 598.050 57.3635   1
  -2  -3  12 635.818 111.300   1
  -2   3  12 760.132 58.9746   1
  -2  -3  12 814.651 101.648   1
  -2   3  12 715.482 92.7759   1
   2  -3 -12 671.142 55.0162   1
   5  -5   2 10851.8 413.194   1
   5   5   2 10323.0 381.435   1
  -5   5  -2 11048.5 437.114   1
  -5  -5  -2 9842.85 369.153   1
   5  -5   2 9627.67 402.737   1
   0   6   0 6559.26 303.735   1
   0  -6   0 6962.79 227.176   1
   0   6   0 7041.06 290.827   1
   0  -6   0 6867.33 320.475   1
  -3   0  14 186.884 69.5963   1
   3   0 -14 179.870 75.0291   1
   3   0 -14 169.351 65.1423   1
  -3   0  14 227.907 86.8261   1
  -3   0  14 133.973 70.5145   1
 -11   1   3 4836.72 215.018   1
 -11  -1   3 6004.83 255.859   1
  11  -1  -3 5308.70 266.493   1
  11  -1  -3 5284.39 253.075   1
  11   1  -3 6320.97 273.847   1
  11   1  -3 6230.81 269.850   1
 -11   1   3 5234.24 263.531   1
 -11  -1   3 6064.99 264.345   1
  -3  -5  -5 722.582 99.5158   1
  -3  -5  -5 617.147 91.1154   1
   3   5   5 791.383 88.6323   1
   3   5   5 730.259 95.8383   1
   3  -5   5 594.881 120.922   1
  -3   5  -5 879.243 127.322   1
 -11   0   2 -6.2085 76.3820   1
  11   0  -2 -49.981 78.5571   1
 -11   0   2 80.1683 56.7832   1
  11   0  -2 61.7994 73.0532   1
  -6  -2  13 348.602 111.045   1
  -6  -2  13 516.787 112.572   1
   6  -2 -13 237.654 92.7381   1
  -6   2  13 289.672 77.4602   1
   6   2 -13 471.741 52.8563   1
   6   2 -13 346.467 116.282   1
   6  -5  -5 17757.8 637.743   1
  -6   5   5 17602.0 618.033   1
   6  -5  -5 18297.7 634.252   1
   6   5  -5 16696.4 619.049   1
  -6  -5   5 16992.8 627.487   1
  -6   5   5 17474.1 628.092   1
   6   5  -5 17606.7 642.077   1
   0  -6   1 423.440 112.763   1
   0   6   1 446.523 115.649   1
   0   6   1 725.218 103.507   1
   0   6  -1 519.875 124.016   1
   0  -6  -1 498.873 127.729   1
   0   6  -1 838.711 109.343   1
   0  -6  -1 542.729 48.3200   1
   2   5   6 2232.90 163.833   1
   2   5   6 2287.25 135.395   1
   2   5   6 1994.31 124.081   1
  -2   5  -6 1610.92 159.711   1
  -2   5  -6 2033.28 169.442   1
  -2  -5  -6 2170.53 136.268   1
  -2  -5  -6 1976.53 129.675   1
   2  -5   6 2150.79 167.105   1
  10  -2  -9 194.188 93.9790   1
  10   2  -9 68.7477 93.9385   1
 -10   2   9 315.933 91.1674   1
 -10  -2   9 117.953 92.2615   1
 -10  -2   9 -92.940 101.498   1
   8   0 -13 63.9452 67.7755   1
  -8   0  13 38.1629 83.9723   1
  -8   0  13 42.6028 76.1577   1
   2   0  12 10119.4 324.805   1
   2   0  12 9932.71 342.269   1
  -2   0 -12 9475.10 305.588   1
   2   0  12 10163.8 330.786   1
   1  -6   0 442.939 110.613   1
   1   6   0 327.233 116.167   1
   1   6   0 326.991 120.134   1
  -1  -6   0 484.922 52.3014   1
  -1  -6   0 495.915 104.250   1
  -1   6   0 396.911 126.531   1
  -1   6   0 420.708 119.822   1
   1   6  -1 77.8153 72.1570   1
  -1  -6   1 16.4400 76.9807   1
  -1   6   1 84.6316 71.5966   1
  -1   6   1 -111.44 84.3283   1
   1  -6  -1 108.850 77.0368   1
   1  -6  -1 38.0836 40.9899   1
   1   6  -1 44.7478 83.9063   1
   8   4  -7 12347.4 471.665   1
  -8   4   7 11166.6 419.567   1
  -8  -4   7 11619.8 451.538   1
   8  -4  -7 10579.3 412.695   1
   8   3   3 435.866 88.4855   1
   8   3   3 230.627 80.1808   1
  -8  -3  -3 533.244 83.4036   1
   8   3   3 387.580 79.1531   1
  -8   3  -3 48.4113 100.290   1
   8  -3   3 322.578 111.816   1
   0  -1 -13 2558.93 79.9751   1
   0  -1  13 2566.22 151.104   1
   0   1 -13 2323.26 140.426   1
   0   1 -13 2192.17 133.955   1
   0  -1  13 2015.97 123.448   1
   0  -1  13 2301.58 135.026   1
   0   1  13 2759.60 87.3048   1
   0  -1  13 2263.50 134.157   1
   0   1  13 2643.74 88.2931   1
   0   1  13 2784.60 150.393   1
   8  -2 -12 9169.81 315.721   1
   8  -2 -12 9883.82 377.088   1
   8   2 -12 9221.06 375.564   1
  -8  -2  12 9301.88 394.477   1
  -8   2  12 9738.97 367.020   1
  -8  -2  12 9130.74 362.422   1
   4  -1 -14 74.3453 60.1616   1
   4  -1 -14 50.1862 62.0876   1
   4   1 -14 -40.525 73.0610   1
  -4   1  14 19.2421 55.1268   1
  -4  -1  14 184.647 94.6169   1
  -4  -1  14 50.8384 67.8276   1
  -4   1  14 145.706 75.3579   1
  -4   1  14 59.7194 58.0681   1
  -2   5   8 3528.01 180.741   1
   2   5  -8 4054.34 223.158   1
  -2   5   8 3222.65 120.014   1
  -2  -5   8 4147.05 223.167   1
   2  -5  -8 3157.66 180.978   1
  -2   5   8 3126.54 195.370   1
   2   5  -8 4067.36 229.516   1
  -5  -5   7 14348.6 536.570   1
  -5   5   7 14151.2 506.227   1
  -5   5   7 14110.8 534.936   1
   5   5  -7 13985.0 546.416   1
  -5   5   7 13533.5 466.359   1
   5   5  -7 13198.2 515.319   1
   6   0 -14 539.284 96.5805   1
  -6   0  14 440.900 95.0179   1
  -6   0  14 409.183 108.186   1
  -9  -2  11 112.682 118.338   1
  -9   2  11 304.100 88.2294   1
  -9  -2  11 139.148 100.590   1
   9   2 -11 249.328 103.899   1
   9  -2 -11 384.126 89.3509   1
   9  -2 -11 261.095 81.5185   1
  -4  -5  -4 3459.19 168.988   1
   4  -5   4 3883.03 193.195   1
  -4   5  -4 3558.55 216.743   1
   4  -5   4 3879.30 217.488   1
  10   2   0 2950.58 186.267   1
  10   2   0 3216.22 175.107   1
  10   2   0 2739.66 143.005   1
  10  -2   0 3656.49 217.049   1
  10  -2   0 3019.44 197.693   1
 -10   2   0 2886.02 183.785   1
  -1  -6  -1 1009.33 111.916   1
   1  -6   1 774.439 96.1440   1
   1  -6   1 995.667 129.024   1
   1   6   1 794.377 127.628   1
   1   6   1 1081.03 136.271   1
  -1   6  -1 1045.13 123.716   1
  -1   6  -1 653.859 129.325   1
   3   5  -8 2320.00 194.261   1
  -3   5   8 2705.37 176.087   1
  -3  -5   8 2546.22 184.374   1
  -3   5   8 2727.16 164.341   1
   3  -5  -8 2548.49 154.524   1
   3   5  -8 2448.16 161.269   1
  -3   5   8 2546.62 113.435   1
   6  -5   0 3820.78 205.355   1
  -6  -5   0 3776.83 163.487   1
   6   5   0 3857.65 207.959   1
  -6   5   0 3387.50 211.145   1
  -6  -5   0 3942.93 207.298   1
   6  -5   0 3886.61 222.849   1
  -1   6   2 2598.21 166.718   1
   1  -6  -2 2451.07 96.4172   1
   1   6  -2 2663.08 188.271   1
   1  -6  -2 2531.40 191.019   1
  -1   6   2 2525.90 182.928   1
   1   6  -2 2708.31 170.136   1
  -1  -6   2 2872.09 183.850   1
  10   0 -11 35.7879 81.7171   1
 -10   0  11 40.9107 76.1929   1
 -10   0  11 47.8967 84.6779   1
   9  -3  -9 6006.94 293.757   1
  -9  -3   9 5546.75 269.561   1
   9   3  -9 6342.30 293.528   1
  -9   3   9 6109.92 263.741   1
  -9  -3   9 5708.48 296.538   1
  -9  -1  12 733.898 100.959   1
   9  -1 -12 370.132 96.3026   1
  -9  -1  12 642.761 122.433   1
  -9   1  12 204.227 91.4028   1
  -9   1  12 237.058 114.269   1
   9   1 -12 603.935 128.433   1
   9  -1 -12 310.259 77.9173   1
  -5   1  14 3161.79 182.236   1
  -5  -1  14 2827.63 183.371   1
   5  -1 -14 2921.29 166.807   1
  -5   1  14 3039.23 162.218   1
   5   1 -14 2958.85 175.450   1
  -5  -1  14 3010.25 175.427   1
   5  -1 -14 2641.70 146.932   1
  -5   1  14 2560.85 149.263   1
   7   4  -9 482.562 115.132   1
  -7  -4   9 424.068 112.635   1
  -7  -4   9 410.332 117.039   1
  -7   4   9 234.864 84.9583   1
   7  -4  -9 245.568 103.766   1
   7   4  -9 327.690 100.587   1
   0   6  -2 1583.70 158.421   1
   0   6   2 1769.77 154.658   1
   0  -6   2 1524.11 150.238   1
   0   6  -2 1701.47 152.783   1
   0  -6  -2 1529.14 130.863   1
   0   6   2 1861.04 156.834   1
   9   0   4 -39.296 66.2241   1
  -9   0  -4 34.0765 62.1893   1
   9   0   4 17.6643 61.0103   1
  -7  -1  -7 5966.24 233.378   1
  -7  -1  -7 5301.62 219.999   1
   7  -1   7 5771.60 241.350   1
  -7   1  -7 5979.99 247.494   1
   7  -1   7 5995.81 281.936   1
   7   1   7 5565.59 220.083   1
   7   1   7 5544.91 236.803   1
   7   1   7 5559.76 275.977   1
   1  -3  11 9183.48 355.199   1
  -1   3 -11 9093.27 366.263   1
  -8  -4   0 10389.5 398.648   1
  -8   4   0 10680.9 421.275   1
   8  -4   0 10622.9 422.855   1
   8  -4   0 10356.1 406.999   1
   8   4   0 10397.7 397.792   1
 -11   1   8 1265.75 130.644   1
 -11   1   8 800.159 126.573   1
 -11  -1   8 541.523 124.680   1
  11   1  -8 967.809 129.846   1
  11  -1  -8 1061.51 137.042   1
 -11  -1   8 497.429 139.940   1
   1  -2  12 44.7000 79.2769   1
   1  -2  12 67.9478 74.0407   1
  -1   2 -12 115.620 74.6263   1
   4  -4   7 787.816 151.491   1
   4   4   7 1119.58 89.4043   1
   4   4   7 1238.65 86.7909   1
  -4   4  -7 856.943 129.603   1
  -4  -4  -7 1137.86 80.5508   1
  -4  -4  -7 814.422 69.8127   1
   4   4   7 1160.97 79.5595   1
   1   5   7 2296.42 182.836   1
   1   5   7 1911.22 116.020   1
   1  -5   7 1676.49 162.857   1
  -1   5  -7 1591.32 148.638   1
  -1  -5  -7 2123.54 127.854   1
  -1  -5  -7 1894.50 119.480   1
  -1   5  -7 1511.71 162.906   1
   1   5   7 2234.53 128.185   1
  -3   1  14 956.235 84.5842   1
  -3   1  14 1120.12 112.219   1
  -3  -1  14 858.014 54.0025   1
  -3  -1  14 959.380 112.589   1
   3   1 -14 1033.56 110.612   1
  -3   1  14 1045.49 84.1715   1
   3  -1 -14 1170.49 86.4623   1
   3  -1 -14 992.397 81.6739   1
  -3   1  14 866.933 59.1181   1
  -3  -1  14 1015.79 121.031   1
   0  -4  10 495.357 105.852   1
   0   4  10 579.161 49.9832   1
   0   4  10 694.825 51.1152   1
   0   4  10 673.904 112.247   1
   0  -4 -10 647.453 54.1746   1
   0   4 -10 728.383 113.227   1
   0  -4 -10 711.165 51.9682   1
  -6   3  12 28.1566 47.5433   1
  -6  -3  12 9.83673 69.6437   1
  -6  -3  12 116.725 77.1107   1
   6  -3 -12 4.01592 57.2209   1
   6   3 -12 -17.455 53.0152   1
   6   3 -12 101.329 77.7009   1
  -6   3  12 10.2275 55.2535   1
  -3  -4  -8 8131.50 251.908   1
  -3  -4  -8 8135.18 254.919   1
  -3   4  -8 8001.07 334.751   1
   3  -4   8 8531.45 344.026   1
   3   4   8 8381.86 253.764   1
   3   4   8 8418.99 286.695   1
   3   4   8 8393.56 258.009   1
   7   3   5 3286.11 163.141   1
   7  -3   5 3693.34 228.504   1
   7   3   5 3538.52 180.239   1
   7  -3   5 3934.23 235.052   1
  -7  -3  -5 3434.68 162.746   1
  -7  -3  -5 3400.16 162.911   1
  -7   3  -5 3765.52 231.432   1
  -7   3  -5 3885.38 162.468   1
   7   3   5 3440.58 164.900   1
  -2   0  14 16643.6 578.700   1
  -2   0  14 15828.2 523.670   1
   2   0 -14 14713.7 480.400   1
   2   0 -14 15628.0 516.435   1
  -2   0  14 15826.6 512.139   1
  -2   6   1 4398.09 240.681   1
  -2   6   1 4498.28 232.082   1
  -2  -6   1 4952.29 243.128   1
   2   6  -1 4874.32 230.379   1
   2  -6  -1 4423.30 238.046   1
   2   6  -1 4928.23 256.051   1
  11  -1  -2 4547.19 240.777   1
  11  -1  -2 4442.73 231.813   1
  11   1  -2 4438.98 219.302   1
  11   1  -2 4791.54 232.712   1
 -11   1   2 4464.80 192.486   1
 -11   1   2 4704.32 242.176   1
 -11  -1   2 4509.94 249.713   1
 -11  -1   2 4529.98 201.084   1
  -6   4  10 550.708 97.3524   1
  -6   4  10 839.620 97.2614   1
   6   4 -10 676.453 105.561   1
   6   4 -10 614.915 132.748   1
   6  -4 -10 772.390 102.560   1
  -6  -4  10 479.607 129.189   1
  -6  -4  10 1032.81 125.659   1
   1   5  -8 184.644 100.903   1
  -1   5   8 489.136 41.5170   1
  -1  -5   8 169.788 109.745   1
   1  -5  -8 490.365 81.4423   1
  -1   5   8 463.045 93.8596   1
  -1   5   8 637.026 87.1305   1
  -1   5   8 466.044 81.7784   1
   1   5  -8 4.91922 114.852   1
   1  -5  -8 473.428 85.2949   1
 -10  -3   5 12987.7 493.995   1
 -10   3   5 14610.3 544.708   1
  10  -3  -5 14057.1 533.267   1
  10  -3  -5 15164.4 570.544   1
  10   3  -5 13189.9 495.272   1
 -10  -3   5 13085.1 480.101   1
  -8  -1  13 8663.60 338.874   1
  -8   1  13 8177.82 328.260   1
  -8   1  13 8717.99 368.247   1
   8  -1 -13 8816.33 349.815   1
   8   1 -13 8236.36 333.810   1
   8   1 -13 7935.18 235.109   1
   8  -1 -13 8190.23 246.976   1
  -8  -1  13 8682.23 362.124   1
   2  -1  12 248.478 80.1769   1
   2  -1  12 208.610 70.9244   1
   2  -1  12 274.254 76.1286   1
  -2   1 -12 212.498 69.9004   1
  -2   1 -12 293.478 76.1967   1
   2   1  12 140.145 63.8245   1
  -1   3  12 65.1924 64.7666   1
  -1  -3  12 109.475 68.8361   1
  -1  -3  12 169.289 83.5933   1
   1   3 -12 41.7292 85.8408   1
  -1  -3  12 27.1064 83.5223   1
  10  -3  -4 3483.32 206.782   1
  10   3  -4 3317.03 191.281   1
 -10  -3   4 3457.97 198.609   1
 -10   3   4 2828.13 201.395   1
  10  -3  -4 3098.95 208.959   1
   2  -6   0 12338.4 480.263   1
  -2   6   0 12381.6 491.424   1
  -2   6   0 11644.4 453.069   1
  -2  -6   0 13509.8 512.467   1
   2  -6   0 12233.0 420.177   1
   2   6   0 13829.3 520.163   1
   2   6   0 12973.8 465.241   1
  -2  -6   0 13051.9 371.251   1
  -6   5   6 2758.77 168.921   1
  -6  -5   6 1461.59 169.221   1
  -6   5   6 2335.34 134.297   1
   6   5  -6 1983.60 160.837   1
   6   5  -6 1847.33 170.381   1
  -6   5   6 2718.40 188.315   1
  -1  -2  13 -74.057 49.7987   1
   1   2 -13 30.2720 51.4738   1
  -1  -2  13 30.2116 53.5441   1
  -1  -2  13 12.4325 42.1803   1
  -2   6   2 274.425 102.081   1
   2  -6  -2 564.392 67.4055   1
   2  -6  -2 318.737 135.682   1
  -2   6   2 455.713 120.498   1
   2   6  -2 880.973 115.096   1
   2   6  -2 677.371 131.145   1
  -2  -6   2 711.021 118.943   1
 -11   0   9 1324.06 140.708   1
  11   0  -9 984.551 143.979   1
 -11   0   9 1274.23 159.069   1
 -10   0  -2 6053.89 278.031   1
  10   0   2 6011.14 272.267   1
  10   0   2 6037.49 279.644   1
   9  -3   1 9682.08 394.609   1
   9   3   1 10388.9 381.909   1
   9   3   1 11283.3 405.631   1
  -9   3  -1 9455.71 391.763   1
  -9  -3  -1 10761.6 389.572   1
   9  -3   1 10142.4 410.828   1
  -4   5   8 17645.6 605.584   1
  -4   5   8 18252.9 646.628   1
  -4   5   8 17057.5 555.884   1
  -4  -5   8 16317.3 615.509   1
   4   5  -8 16954.6 627.676   1
   4   5  -8 16677.5 633.677   1
  -1  -6  -2 248.448 105.603   1
   1  -6   2 459.331 117.424   1
   1   6   2 217.414 103.281   1
   1   6   2 211.713 109.987   1
  -1   6  -2 423.409 119.000   1
  -1   6  -2 486.124 112.575   1
  -5  -4  -6 869.243 83.3370   1
  -5  -4  -6 749.194 78.9169   1
   5   4   6 837.684 88.1041   1
   5   4   6 831.359 83.3293   1
   5   4   6 716.391 83.2396   1
   5  -4   6 1543.76 135.006   1
  -5   4  -6 980.899 138.508   1
  10  -3  -6 4057.37 226.505   1
 -10  -3   6 3958.06 234.839   1
 -10   3   6 4282.67 237.999   1
 -10  -3   6 4274.27 232.340   1
  10  -3  -6 4052.03 224.741   1
  10   3  -6 4198.06 227.870   1
  -1   6   3 1374.76 149.102   1
   1   6  -3 1237.56 162.239   1
   1   6  -3 1486.17 153.082   1
  -1  -6   3 1255.66 157.471   1
  -1   6   3 1175.02 120.688   1
   1  -6  -3 1583.72 155.301   1
  -9   2  -3 8083.19 352.082   1
   9   2   3 8416.30 321.171   1
   9   2   3 8384.25 308.144   1
   9   2   3 8034.90 275.296   1
   9  -2   3 8495.87 358.851   1
   9  -2   3 8099.49 330.550   1
 -11   0   1 30381.4 1059.20   1
 -11   0   1 28131.7 910.903   1
  11   0  -1 30535.0 1056.18   1
  11   0  -1 30117.2 1070.19   1
   6   1 -14 8040.06 345.394   1
  -6  -1  14 8246.62 334.508   1
  -6  -1  14 7838.70 347.761   1
  -6   1  14 9452.23 335.308   1
  -6   1  14 9635.87 385.176   1
   6  -1 -14 9636.30 350.687   1
  10  -3  -3 640.206 134.667   1
 -10  -3   3 876.448 117.023   1
 -10   3   3 909.102 127.639   1
  10   3  -3 951.743 134.263   1
  10  -3  -3 674.306 130.390   1
  10   1 -11 24231.1 867.726   1
 -10   1  11 24707.4 878.044   1
 -10  -1  11 24064.0 871.363   1
  10  -1 -11 25260.9 888.233   1
 -10   1  11 24756.1 865.206   1
 -10  -1  11 24247.5 862.221   1
  10  -1 -11 24096.9 825.539   1
   8   0   6 1284.85 108.699   1
  -8   0  -6 1287.14 125.978   1
   8   0   6 1309.74 130.252   1
   2   4   9 14360.1 406.414   1
  -2   4  -9 14838.9 542.758   1
   2  -4   9 15212.0 545.252   1
   2   4   9 15027.1 433.938   1
  -2  -4  -9 14147.6 401.422   1
   9  -1   4 7931.84 324.451   1
   9   1   4 8108.48 351.288   1
   9   1   4 8372.78 309.831   1
  -9   1  -4 7794.58 323.349   1
  -9  -1  -4 8840.16 326.647   1
   9  -1   4 8205.52 349.349   1
   0   6   3 3963.54 231.597   1
   0  -6  -3 4399.00 234.296   1
   0   6  -3 4291.47 232.878   1
   0  -6   3 4293.04 237.068   1
   0   6  -3 4362.26 249.630   1
   0   6   3 4282.53 225.892   1
  -7   2  13 6279.95 258.573   1
  -7  -2  13 6373.11 287.425   1
   7  -2 -13 6657.12 274.276   1
   7   2 -13 6251.93 307.703   1
  -7  -2  13 6342.71 298.211   1
   7   2 -13 6355.94 214.207   1
  -2  -6  -1 304.556 109.513   1
  -2   6  -1 270.821 108.057   1
  -2   6  -1 306.379 116.633   1
   2  -6   1 298.756 84.1111   1
   2   6   1 297.529 113.671   1
   2  -6   1 279.127 111.070   1
   2   6   1 336.004 102.180   1
  -8   4   8 894.729 126.889   1
  -8  -4   8 299.759 117.070   1
  -8  -4   8 359.029 123.407   1
   8  -4  -8 887.318 117.035   1
   8   4  -8 293.145 122.140   1
  -5  -2  -9 2896.01 97.9002   1
   5   2   9 3306.17 189.564   1
  -5  -2  -9 2783.50 94.9797   1
   5  -2   9 2692.39 164.714   1
   5   2   9 2910.89 101.588   1
   5   2   9 2896.18 101.789   1
  -5   2  -9 2654.05 175.543   1
   8   2   5 1718.24 150.844   1
  -8   2  -5 2410.23 168.890   1
   8  -2   5 2458.39 178.684   1
   8   2   5 1369.52 118.669   1
   8  -2   5 2270.20 163.447   1
  -5  -5  -3 2097.39 138.741   1
  -5   5  -3 1869.94 167.985   1
   5   5   3 2008.55 149.700   1
   5  -5   3 2062.47 171.364   1
   5  -5   3 2041.70 175.271   1
   3   4 -11 3877.47 189.633   1
   3   4 -11 3542.66 208.930   1
  -3   4  11 3543.52 162.975   1
  -3  -4  11 3849.51 207.545   1
  -3  -4  11 4070.16 208.679   1
  -3   4  11 3601.37 171.506   1
  -3   4  11 3533.47 157.155   1
   3  -4 -11 3483.32 163.464   1
   3  -4 -11 3952.56 171.922   1
   7   4   3 6365.30 250.912   1
  -7  -4  -3 6091.90 248.295   1
   7   4   3 5991.87 234.871   1
   7  -4   3 6384.44 284.066   1
  -7   4  -3 5832.02 287.093   1
   7  -4   3 6202.02 293.392   1
   2   6  -3 14856.0 583.393   1
  -2   6   3 16234.9 605.907   1
  -2  -6   3 15677.3 598.845   1
   2  -6  -3 15717.2 601.015   1
   2   6  -3 15573.7 587.560   1
  -2   6   3 15733.3 568.550   1
   4  -2  10 2669.92 167.111   1
  -4   2 -10 3116.45 180.742   1
   2   1 -14 16141.7 565.550   1
  -2   1  14 17342.6 542.073   1
  -2   1  14 17479.3 614.848   1
   2  -1 -14 16421.8 510.215   1
  -2  -1  14 15953.8 578.849   1
  -2  -1  14 15814.0 501.531   1
  -2  -1  14 16115.2 551.129   1
  -2   1  14 17031.2 522.240   1
   4  -4 -11 234.714 73.8599   1
   4   4 -11 280.607 84.3629   1
   4   4 -11 220.140 112.491   1
  -4  -4  11 273.035 100.891   1
  -4   4  11 298.368 74.6263   1
  -4   4  11 232.493 77.4972   1
   4  -4 -11 217.722 75.4401   1
  -4   4  11 282.660 74.9264   1
  -4  -4  11 282.674 96.8126   1
  11  -2  -5 4317.69 233.932   1
  11  -2  -5 4365.02 235.985   1
  11   2  -5 3564.24 206.946   1
 -11  -2   5 3736.49 213.132   1
 -11  -2   5 3709.54 208.846   1
 -11   2   5 4130.44 231.572   1
   6  -5   1 213.080 102.908   1
   6  -5   1 242.353 113.683   1
   6   5   1 405.516 92.1892   1
  -6  -5  -1 244.382 89.5789   1
  -6  -5  -1 234.689 64.4959   1
  -6   5  -1 225.733 112.694   1
   7   0 -14 99.3736 71.6462   1
  -7   0  14 6.40122 75.7684   1
  -7   0  14 -35.003 68.2113   1
  -4   3  -9 173.327 62.9237   1
  -4   3  -9 144.837 97.3870   1
   4   3   9 160.677 82.6715   1
   4  -3   9 144.143 94.7174   1
   8  -3 -11 244.984 87.8853   1
   8   3 -11 160.096 90.1934   1
   8   3 -11 284.543 111.050   1
  -8   3  11 377.841 101.297   1
  -8  -3  11 224.335 106.298   1
  -8  -3  11 305.465 110.943   1
   8  -3 -11 404.533 105.162   1
 -10  -2  10 17430.5 647.230   1
  10  -2 -10 17836.7 638.978   1
 -10  -2  10 17650.1 645.352   1
  10   2 -10 16971.6 636.330   1
 -10   2  10 17929.4 668.449   1
  11   2  -6 127.739 89.0431   1
 -11  -2   6 176.488 89.9824   1
 -11   2   6 60.6239 91.7022   1
 -11  -2   6 130.490 93.2550   1
  11  -2  -6 -45.472 90.4881   1
  11  -2  -6 -19.564 96.6091   1
  11   1  -9 11720.9 473.547   1
 -11   1   9 12935.7 494.040   1
 -11   1   9 12589.0 465.494   1
  11  -1  -9 12274.0 480.937   1
 -11  -1   9 12352.1 507.056   1
  11  -2  -4 3074.67 194.636   1
  11   2  -4 2456.85 170.966   1
  11  -2  -4 3096.31 201.964   1
 -11  -2   4 2312.93 173.963   1
 -11  -2   4 2480.21 163.158   1
 -11   2   4 2969.38 193.632   1
  10  -3  -7 2543.32 182.284   1
 -10   3   7 3197.99 190.089   1
  10   3  -7 2137.15 179.724   1
 -10  -3   7 2147.57 178.953   1
 -10  -3   7 2309.02 169.844   1
   1   0  13 132.119 52.0493   1
   1   0  13 78.9314 47.3743   1
  -1   0 -13 79.2407 45.3732   1
  -1   0 -13 52.6039 44.6747   1
   1   0  13 123.638 59.7224   1
   5   3   8 827.990 62.4819   1
   5   3   8 993.195 116.357   1
   5   3   8 911.974 61.5555   1
   5  -3   8 1090.37 132.571   1
  -5   3  -8 1184.40 138.720   1
  -5   3  -8 812.023 78.8680   1
  -5  -3  -8 870.628 56.8291   1
  10   1   2 197.892 97.0036   1
  10  -1   2 401.369 107.818   1
  10  -1   2 476.811 95.0811   1
  10   1   2 314.408 116.989   1
 -10   1  -2 579.281 93.5967   1
 -10  -1  -2 255.052 100.913   1
   0   5   8 1177.46 108.311   1
   0   5   8 1233.19 106.792   1
   0  -5   8 1335.48 143.585   1
   0   5   8 1282.86 150.697   1
   0  -5  -8 1108.83 99.1945   1
   0  -5  -8 1258.79 103.663   1
   0   5  -8 1091.85 145.468   1
   0   5  -8 1123.27 150.474   1
   2   4 -11 521.580 117.701   1
  -2   4  11 828.844 69.8343   1
  -2  -4  11 761.011 112.825   1
   2  -4 -11 792.930 77.3847   1
   2   4 -11 561.105 104.107   1
  -2   4  11 802.495 72.7092   1
  -2   4  11 956.788 100.545   1
   3  -6  -1 2049.38 132.155   1
   3  -6  -1 2254.51 174.937   1
   3   6  -1 1700.13 167.284   1
   3   6  -1 1796.99 147.481   1
  -3   6   1 2270.63 176.546   1
  -3  -6   1 1941.13 148.698   1
  -3  -6   1 1709.13 90.4439   1
  -3   6   1 1770.66 160.780   1
  -6  -2  -8 11211.1 362.228   1
  -6  -2  -8 11292.3 353.235   1
   6   2   8 11710.1 446.394   1
   6   2   8 11377.2 353.747   1
   6   2   8 11732.6 382.085   1
   6  -2   8 11970.8 445.531   1
  -6   2  -8 11249.3 430.180   1
  -3  -6   2 204.308 89.3396   1
   3  -6  -2 58.6517 59.8433   1
   3   6  -2 224.328 87.3126   1
   3   6  -2 76.5989 101.131   1
  -3   6   2 143.312 84.2491   1
  -3   6   2 -3.0452 102.080   1
   3  -6  -2 -6.9495 89.4312   1
  11   1  -1 10147.2 385.149   1
  11  -1  -1 10556.5 408.764   1
  11  -1  -1 9920.84 410.671   1
  11   1  -1 10264.1 397.767   1
 -11   1   1 9613.36 313.751   1
 -11  -1   1 9832.16 407.870   1
 -11   1   1 10688.5 416.679   1
  10  -3  -2 8205.52 353.985   1
 -10   3   2 7488.30 335.004   1
 -10  -3   2 8568.97 357.271   1
  10   3  -2 8505.24 353.040   1
  10  -3  -2 7407.85 328.708   1
   8   4   1 3120.19 174.159   1
  -8  -4  -1 2578.44 169.284   1
   8  -4   1 2940.87 221.562   1
   8  -4   1 2847.51 196.479   1
  -8   4  -1 2547.47 188.029   1
  -1  -6  -3 4519.91 232.877   1
  -1   6  -3 4297.05 250.623   1
  -1   6  -3 4289.31 243.670   1
   1   6   3 4470.26 224.929   1
   1   6   3 4651.07 244.452   1
   1  -6   3 4043.21 240.944   1
  -3   3 -10 2989.85 191.880   1
   3  -3  10 3065.04 192.932   1
  -3   2 -11 -30.401 66.8145   1
   3  -2  11 -2.8848 55.4152   1
   3  -2  11 91.5894 65.3214   1
   7  -5  -3 991.216 117.002   1
   7   5  -3 1010.15 121.060   1
  -7   5   3 645.948 124.977   1
  -7  -5   3 801.415 108.264   1
   7  -5  -3 957.236 135.783   1
  -7  -5   3 755.629 144.388   1
   8  -1   6 4684.38 235.581   1
   8   1   6 3649.67 225.570   1
   8   1   6 3286.27 173.410   1
   8   1   6 2948.50 172.512   1
   8  -1   6 4706.81 214.201   1
  -8  -1  -6 2842.41 169.457   1
  -8  -1  -6 3065.56 167.105   1
  -8   1  -6 4871.72 214.177   1
   1   0 -14 -27.714 40.6988   1
   1   0 -14 -1.9182 38.0248   1
  -1   0  14 14.6629 43.9083   1
  -1   0  14 13.6459 40.2618   1
  -1   0  14 -30.879 57.5901   1
   9  -4  -4 35.1944 93.2770   1
   9   4  -4 1.38317 87.8595   1
  -9  -4   4 169.444 85.0693   1
  -9   4   4 -0.8233 91.2169   1
   9  -4  -4 88.2661 80.0618   1
   5   5  -8 594.938 134.763   1
   5   5  -8 927.530 128.765   1
  -5   5   8 199.263 105.188   1
   5  -5  -8 443.500 106.580   1
  -5   5   8 334.548 111.456   1
  -5   5   8 390.702 77.2957   1
  -5  -5   8 657.161 123.630   1
 -10   2  -1 550.920 112.255   1
 -10   2  -1 685.730 61.0219   1
  10   2   1 589.718 117.824   1
  10   2   1 585.558 100.930   1
  10   2   1 386.002 73.7329   1
  10  -2   1 847.630 114.002   1
  10  -2   1 580.409 123.561   1
   6   4   5 2423.18 141.403   1
  -6  -4  -5 2325.05 144.764   1
   6   4   5 2449.69 138.703   1
  -6   4  -5 3987.70 217.837   1
  -6   4  -5 3408.51 176.758   1
   6  -4   5 3934.50 216.377   1
   6  -4   5 3874.49 210.799   1
  -1   6   4 27507.3 990.209   1
  -1  -6   4 28277.3 1034.41   1
   1   6  -4 28804.4 1050.29   1
   1  -6  -4 28155.9 995.429   1
   1   6  -4 30023.8 1069.61   1
  -1   6   4 27539.7 971.787   1
   6   5  -7 1536.29 173.058   1
   6   5  -7 1142.75 167.697   1
  -6   5   7 1606.11 138.549   1
  -6   5   7 1430.29 125.784   1
  -6   5   7 1833.40 143.529   1
  -6  -5   7 1410.20 162.966   1
   6  -5  -7 1909.43 161.362   1
  11   2  -7 1701.64 152.625   1
 -11  -2   7 1306.11 158.092   1
  11  -2  -7 1306.76 157.706   1
 -11  -2   7 1488.88 156.641   1
 -11   2   7 1538.86 156.267   1
  -2  -6  -2 3150.47 191.510   1
   2   6   2 3020.52 183.462   1
   2   6   2 3188.05 209.496   1
   2  -6   2 3183.08 181.624   1
   2  -6   2 3438.96 219.441   1
  -2   6  -2 3265.64 205.716   1
  -2   6  -2 3462.64 216.749   1
  -3  -6   0 1127.57 142.665   1
   3   6   0 1424.11 149.955   1
   3  -6   0 801.251 102.084   1
   3  -6   0 550.514 133.208   1
   3   6   0 1000.81 117.835   1
  -3   6   0 901.223 142.982   1
  -3   6   0 1021.62 130.416   1
  -3  -6   0 860.036 53.4750   1
   5  -4 -11 2200.08 139.014   1
   5   4 -11 2132.10 158.690   1
  -5   4  11 2483.49 145.491   1
  -5  -4  11 2365.76 170.317   1
  -5  -4  11 2369.23 174.151   1
  -5   4  11 2307.97 150.147   1
   5   4 -11 1993.94 171.652   1
  -7  -5   4 397.929 109.102   1
  -7   5   4 273.313 104.405   1
   7   5  -4 454.913 106.366   1
   7  -5  -4 236.167 94.7599   1
   7  -5  -4 270.311 106.215   1
   5   0  10 4.86860 41.6041   1
   5   0  10 -1.8092 42.4927   1
   5   0  10 -1.9886 25.9394   1
  -5   0 -10 12.7915 41.5706   1
  -5   0 -10 8.18638 39.9552   1
   7  -3 -12 171.230 75.1968   1
   7  -3 -12 372.086 87.0826   1
   7   3 -12 -165.46 100.834   1
   7   3 -12 172.764 81.2596   1
  -7  -3  12 153.666 95.4628   1
  -7   3  12 199.098 81.9543   1
  -7  -3  12 229.386 99.8020   1
   9  -4  -5 15827.7 609.214   1
   9   4  -5 18634.7 680.936   1
  -9  -4   5 19214.7 688.449   1
   9  -4  -5 17402.2 657.330   1
  -9   4   5 16624.0 629.598   1
   3  -5   6 -88.176 89.1101   1
   3   5   6 57.7587 63.4539   1
   3   5   6 127.107 62.0428   1
  -3  -5  -6 2.25081 59.1523   1
  -3   5  -6 86.4331 91.4459   1
  -3  -5  -6 51.9763 63.5970   1
   9  -3 -10 488.607 118.011   1
  -9   3  10 436.399 95.7827   1
  -9  -3  10 121.676 110.557   1
   9   3 -10 179.569 109.380   1
  -9  -3  10 137.583 101.917   1
  11   2  -3 -26.705 83.2568   1
 -11  -2   3 -35.838 70.5025   1
 -11  -2   3 10.4345 60.4240   1
  11   2  -3 142.377 70.6472   1
  11  -2  -3 54.5911 83.5709   1
  11  -2  -3 -87.399 77.4771   1
 -11   2   3 59.7722 78.9129   1
  -3  -6   3 1461.14 194.812   1
  -3   6   3 2483.77 170.960   1
  -3   6   3 2785.21 194.188   1
   3   6  -3 1481.69 174.673   1
   3   6  -3 1467.03 164.280   1
   3  -6  -3 2573.29 181.747   1
   2   6  -4 22075.2 820.641   1
  -2   6   4 24594.5 874.574   1
   2  -6  -4 23664.2 853.181   1
  -2  -6   4 22572.7 843.429   1
   2   6  -4 22013.3 824.536   1
  -2   6   4 23886.9 860.266   1
  -9   4   3 17369.9 634.889   1
  -9  -4   3 15505.6 568.144   1
   9  -4  -3 16015.2 609.411   1
   9  -4  -3 15536.2 598.930   1
   9   4  -3 15397.4 562.648   1
  -7  -5   2 2805.26 161.728   1
  -7  -5   2 2629.37 167.098   1
  -7   5   2 2812.39 194.932   1
   7   5  -2 2919.20 175.147   1
   7  -5  -2 2802.07 184.484   1
   7  -5  -2 3031.91 202.663   1
   7  -1 -14 19907.9 701.332   1
   7   1 -14 19454.5 712.674   1
  -7   1  14 20222.1 734.258   1
  -7  -1  14 20269.9 737.690   1
  -7   1  14 20077.7 689.556   1
  -7  -1  14 19875.3 711.821   1
 -11   0  10 91.8283 90.7050   1
  11   0 -10 125.835 92.8494   1
 -11   0  10 25.1065 89.0660   1
   4   0  11 127.066 53.2502   1
   4   0  11 94.6403 47.7575   1
  -4   0 -11 8.13846 41.5082   1
   4   0  11 135.869 50.4213   1
  -4   0 -11 72.8157 47.8607   1
   6  -3   7 30992.6 1133.91   1
   6   3   7 31374.7 1056.39   1
   6   3   7 31696.1 1029.23   1
   6   3   7 30680.7 979.676   1
   6  -3   7 30849.0 1075.21   1
  -6   3  -7 30367.6 1066.82   1
  -6   3  -7 30351.5 1009.07   1
  -6  -3  -7 30310.7 983.145   1
   0  -3  12 1772.93 146.626   1
   0  -3  12 1891.53 141.120   1
   0   3 -12 1894.77 152.451   1
   9   0 -13 1739.98 161.389   1
   9   0 -13 1478.35 86.8234   1
  -9   0  13 1442.65 153.362   1
  -9   0  13 1547.47 132.573   1
  -1   4 -10 2452.79 176.803   1
   1  -4  10 3021.64 194.751   1
  -6   0  -9 37.9845 56.1428   1
  -6   0  -9 0.56110 54.9867   1
   6   0   9 31.0716 56.9657   1
   6   0   9 70.2175 55.0615   1
   2   5   7 356.816 71.3732   1
   2   5   7 643.438 86.8488   1
  -2   5  -7 530.461 122.517   1
  -2  -5  -7 428.157 81.2428   1
  -2  -5  -7 526.777 78.6918   1
   2  -5   7 552.948 119.630   1
   2   5   7 524.480 116.413   1
   0   6  -4 6258.97 296.322   1
   0  -6   4 6279.16 300.059   1
   0   6  -4 6170.28 301.315   1
   0  -6  -4 4897.82 251.461   1
   0   6   4 4591.61 260.747   1
   0   6   4 4975.71 241.998   1
  -4  -5  -5 224.070 83.8195   1
  -4  -5  -5 718.303 90.1349   1
   4  -5   5 485.357 118.131   1
   4   5   5 396.293 85.3907   1
   4   5   5 320.614 79.5152   1
  -4   5  -5 460.402 121.473   1
  -1   1 -13 2315.46 129.871   1
   1  -1  13 2572.56 143.648   1
   1   1  13 2248.76 134.079   1
   1  -1  13 2367.56 134.331   1
   1  -1  13 2417.24 146.521   1
  -1   1 -13 2412.77 140.341   1
  -7  -4  10 5815.17 290.330   1
   7   4 -10 5624.81 295.995   1
   7   4 -10 5697.80 257.768   1
   7  -4 -10 5311.24 254.214   1
  -7   4  10 5578.65 254.981   1
  -7  -4  10 6081.76 284.268   1
   7   5  -5 11596.6 457.311   1
   7   5  -5 12623.5 487.779   1
   7  -5  -5 12185.2 452.063   1
  -7  -5   5 11203.1 455.824   1
  -7   5   5 11625.2 457.740   1
  -8  -3  -4 6172.35 255.318   1
   8   3   4 5531.51 225.351   1
   8   3   4 6023.19 247.881   1
   8   3   4 6042.72 255.431   1
   8  -3   4 5769.75 290.015   1
  -8   3  -4 5421.53 265.142   1
   0   2 -13 94.3715 75.0107   1
   0  -2  13 131.085 75.3871   1
   0  -2  13 105.113 76.8234   1
   0  -2  13 74.7324 72.6134   1
   9  -4  -6 3673.99 229.280   1
   9   4  -6 3372.01 222.050   1
   9  -4  -6 3644.82 225.299   1
  -9   4   6 3922.83 227.331   1
  -9  -4   6 2941.13 208.958   1
  11   0   0 303.029 109.365   1
 -11   0   0 359.493 98.5759   1
  11   0   0 274.644 114.599   1
 -11   0   0 136.485 60.1987   1
  -4  -2  14 4373.22 211.183   1
  -4   2  14 3325.13 150.577   1
   4  -2 -14 2982.93 142.975   1
   4   2 -14 4421.21 227.491   1
   4  -2 -14 3464.42 157.769   1
  -4   2  14 3108.47 125.455   1
  -4  -2  14 4121.06 207.278   1
  -4   2  14 3264.88 151.449   1
  10  -3  -8 7613.75 336.799   1
 -10  -3   8 7753.81 351.004   1
 -10  -3   8 7844.38 345.394   1
 -10   3   8 7539.83 327.193   1
  10   3  -8 8732.27 363.871   1
  -1   4  11 572.469 57.6550   1
   1  -4 -11 714.366 62.3080   1
   1  -4 -11 622.656 60.8652   1
  -1   4  11 817.505 106.837   1
   1   4 -11 829.867 145.760   1
  -1   4  11 703.201 59.6321   1
  -1  -4  11 1151.56 118.765   1
  10   0 -12 5075.93 253.274   1
 -10   0  12 5293.68 264.746   1
  -4   3  13 84.7417 49.8074   1
  -4   3  13 -4.1198 51.1957   1
  -4   3  13 20.2450 49.5874   1
   4   3 -13 -56.885 75.3851   1
  -4  -3  13 113.547 76.1548   1
  -4  -3  13 103.421 71.8645   1
   4  -3 -13 -21.828 52.1389   1
   4  -3 -13 -12.981 43.2586   1
   3  -6   1 4547.09 254.285   1
   3  -6   1 4369.20 211.885   1
   3   6   1 4017.83 225.382   1
   3   6   1 3965.93 233.463   1
  -3   6  -1 4561.68 255.080   1
  -3  -6  -1 4275.43 230.899   1
  -3   6  -1 4302.80 237.054   1
  -3  -5   9 3694.64 216.703   1
  -3   5   9 3606.21 204.131   1
  -3   5   9 3203.17 141.686   1
   3   5  -9 3608.51 213.279   1
  -3   5   9 3721.88 183.894   1
   9  -2 -12 5599.61 243.137   1
   9  -2 -12 5401.43 270.692   1
  -9   2  12 5631.76 247.703   1
  -9  -2  12 6722.34 291.180   1
  -9  -2  12 5892.40 287.516   1
   9   2 -12 5855.57 278.759   1
  -5  -2  14 264.655 95.0416   1
  -5  -2  14 285.233 101.416   1
  -5   2  14 152.432 71.9344   1
   5  -2 -14 199.084 77.2440   1
   5  -2 -14 147.061 66.2825   1
   5   2 -14 328.381 103.329   1
  -5   2  14 205.730 71.5842   1
  -5   2  14 129.274 41.6220   1
   9   4  -2 683.163 126.255   1
   9  -4  -2 520.778 124.946   1
   9  -4  -2 603.895 117.927   1
  -9  -4   2 637.183 124.988   1
  -9   4   2 308.467 124.602   1
   9   3   2 10695.1 390.365   1
   9   3   2 10097.9 381.075   1
   9   3   2 10035.1 372.652   1
   9  -3   2 10594.1 435.530   1
   9  -3   2 11029.5 428.703   1
  -9  -3  -2 10525.3 391.624   1
  -9   3  -2 11094.5 432.001   1
  -2   5   9 6001.77 234.474   1
  -2   5   9 5450.97 185.528   1
  -2  -5   9 6072.27 289.913   1
  -2   5   9 5570.55 238.487   1
  -2   5   9 5978.13 281.662   1
   2   5  -9 6147.66 295.622   1
   2   5  -9 6572.34 292.240   1
  -1  -1  14 8831.89 316.096   1
   1  -1 -14 10183.9 306.149   1
   1   1 -14 9079.84 343.302   1
   1   1 -14 9493.25 347.265   1
   1  -1 -14 9751.47 297.426   1
  -1  -1  14 9249.27 348.507   1
  -1  -1  14 9409.18 359.960   1
  -1   1  14 10402.6 315.738   1
  -1   1  14 10237.1 307.201   1
  -1  -1  14 9705.99 349.097   1
  -1   1  14 10842.6 396.572   1
  -7  -2  -7 2069.70 116.612   1
  -7  -2  -7 1881.97 113.609   1
  -7   2  -7 2290.19 164.621   1
   7   2   7 2043.31 118.412   1
   7  -2   7 2266.27 182.679   1
   7   2   7 2319.77 163.461   1
   7   2   7 1812.54 114.720   1
   7  -5  -1 918.851 139.175   1
  -7  -5   1 1056.25 136.308   1
   7  -5  -1 879.601 132.046   1
   7   5  -1 1006.43 134.765   1
  -7  -5   1 808.246 101.315   1
  -7   5   1 705.065 137.474   1
   3  -3 -13 17.4959 46.0059   1
  -3   3  13 69.0085 43.3645   1
  -3  -3  13 44.1328 58.3010   1
  -3   3  13 73.5070 47.4071   1
  -3  -3  13 24.7722 74.8126   1
  -3  -3  13 145.771 85.6862   1
   3  -3 -13 67.4692 42.5229   1
   3   3 -13 -63.164 93.2950   1
  -3   3  13 118.177 58.6176   1
 -11   2   8 19156.4 711.328   1
  11   2  -8 19791.3 720.403   1
  11  -2  -8 19462.5 721.870   1
 -11  -2   8 18812.6 701.710   1
 -11  -2   8 19016.6 694.546   1
   5   1  10 7548.06 244.024   1
   5  -1  10 6790.47 272.726   1
  -5  -1 -10 7502.41 237.163   1
   5  -1  10 6289.83 275.123   1
  -5   1 -10 7100.95 282.195   1
  -5  -1 -10 7574.38 238.034   1
   5   1  10 7805.82 247.492   1
   5   1  10 7489.16 241.086   1
   6  -5   2 28.4672 60.1122   1
   6  -5   2 163.147 76.3405   1
   6   5   2 59.0107 62.0978   1
  -6  -5  -2 -67.845 60.2667   1
  -6   5  -2 -142.87 77.2507   1
   3  -6  -4 23175.5 851.068   1
  -3  -6   4 19279.4 741.083   1
  -3   6   4 22337.0 783.167   1
   3   6  -4 19762.7 751.833   1
   3   6  -4 20354.6 770.512   1
  -3   6   4 22128.6 801.369   1
   8   4  -9 13890.2 518.776   1
   8   4  -9 14189.3 552.335   1
  -8  -4   9 13587.5 538.109   1
  -8   4   9 13634.4 521.167   1
  -8  -4   9 14662.9 552.194   1
   8  -4  -9 13209.1 488.657   1
  10  -3  -1 918.599 137.739   1
  10   3  -1 807.102 118.182   1
 -10   3   1 944.424 134.395   1
  10   3  -1 892.475 124.090   1
 -10  -3   1 579.434 123.136   1
  10  -3  -1 1150.20 136.736   1
   3  -2 -14 6232.38 220.268   1
  -3  -2  14 7233.75 296.502   1
   3   2 -14 7369.34 307.854   1
  -3  -2  14 7091.60 291.784   1
  -3   2  14 7026.23 243.794   1
  -3   2  14 7038.86 239.240   1
  -3  -2  14 6889.13 242.687   1
   3  -2 -14 7033.26 239.340   1
  -2   3 -11 1198.22 137.793   1
   2  -3  11 1268.15 138.710   1
   5   3 -13 5236.67 201.246   1
   5   3 -13 5178.87 278.641   1
  -5   3  13 4738.34 209.223   1
  -5   3  13 4438.65 183.123   1
  -5   3  13 5166.36 210.920   1
  -5  -3  13 5024.17 237.536   1
  -5  -3  13 4669.83 230.607   1
   5  -3 -13 4802.12 211.558   1
   5  -3 -13 4398.55 199.346   1
  11  -2  -2 1004.66 143.329   1
  11   2  -2 802.440 142.547   1
 -11   2   2 1013.46 133.434   1
  11   2  -2 890.521 115.028   1
  11  -2  -2 1058.97 135.012   1
  11  -1 -10 2074.89 179.341   1
  11   1 -10 2533.69 192.914   1
 -11   1  10 2157.16 175.531   1
 -11   1  10 2076.88 173.049   1
 -11  -1  10 2805.55 191.509   1
 -11  -1  10 2651.74 186.163   1
  -3   0 -12 20.8146 36.7446   1
  -3   0 -12 25.8035 42.0807   1
   3   0  12 9.45182 43.2627   1
   3   0  12 4.57349 47.0241   1
   4  -1  11 32.5292 51.0232   1
   4  -1  11 163.547 67.0317   1
   4   1  11 63.3578 30.3915   1
   4   1  11 88.1990 31.0744   1
   4  -1  11 50.7368 70.4656   1
  -4   1 -11 32.6476 72.6330   1
  -4  -1 -11 114.807 25.5405   1
  -4  -1 -11 108.220 27.9601   1
  -4   1 -11 3.16589 64.3566   1
   4   1  11 17.6090 56.1526   1
   8   2 -13 3555.74 148.623   1
   8   2 -13 3503.13 210.178   1
   8  -2 -13 3643.30 200.247   1
  -8  -2  13 3149.09 190.480   1
  -8  -2  13 3478.26 210.546   1
  -8   2  13 3586.25 192.045   1
   8  -2 -13 3315.20 154.691   1
  -4   5   9 7848.23 332.539   1
  -4   5   9 7532.75 269.366   1
   4   5  -9 8461.58 378.146   1
   4   5  -9 9041.04 369.702   1
   4  -5  -9 7994.16 332.880   1
  -4  -5   9 8390.78 367.851   1
  -4   5   9 8005.51 312.854   1
  -2   2 -12 23324.2 808.418   1
   2  -2  12 20805.1 715.559   1
   2  -2  12 23259.2 792.864   1
  -9  -1  13 23746.7 866.000   1
  -9   1  13 21902.5 788.549   1
  -9  -1  13 22781.0 808.807   1
   9   1 -13 23572.7 837.230   1
   9  -1 -13 23250.3 748.985   1
  -9   1  13 22743.6 831.366   1
   9  -1 -13 22789.8 822.405   1
  -6  -1  -9 283.107 59.1217   1
  -6   1  -9 199.793 86.3347   1
   6   1   9 359.094 44.6576   1
   6   1   9 296.208 58.9514   1
   6  -1   9 123.864 76.2829   1
   6   1   9 226.017 59.5735   1
   6   1   9 437.408 117.668   1
  -1   5  -8 12623.7 488.365   1
   1   5   8 11680.5 393.475   1
   1   5   8 11444.4 325.393   1
   1   5   8 13164.7 514.354   1
   1  -5   8 12218.9 485.129   1
  -1  -5  -8 12306.7 413.708   1
  -1   5  -8 12519.1 473.280   1
   1   5   8 12330.5 408.551   1
  -1  -5  -8 11154.1 388.909   1
  -2   6  -3 6344.21 311.191   1
   2   6   3 6104.63 290.028   1
  -2  -6  -3 5725.76 266.156   1
  -2   6  -3 6362.20 300.382   1
   2  -6   3 6015.35 303.528   1
   2   6   3 5829.78 260.966   1
   7   0   8 224.702 90.0088   1
   7   0   8 91.1706 63.8590   1
  -7   0  -8 7.86450 66.5761   1
   7   0   8 34.6437 71.7081   1
  -7   0  -8 84.8159 66.7351   1
  -8   0  14 2282.48 178.030   1
  -8   0  14 2270.25 146.005   1
   8   0 -14 2350.81 151.632   1
   6  -4 -11 3935.05 197.487   1
   6   4 -11 3089.51 213.994   1
   6   4 -11 3274.33 179.116   1
  -6  -4  11 3378.76 213.694   1
  -6  -4  11 3668.26 212.635   1
  -6   4  11 3779.83 192.617   1
  -6   4  11 4094.45 194.545   1
  -5  -5  -4 1017.12 100.415   1
  -5   5  -4 737.337 144.009   1
   5  -5   4 1010.24 127.972   1
   5   5   4 1113.75 106.607   1
   5  -5   4 1144.96 147.990   1
   7   5  -6 2866.13 218.362   1
   7  -5  -6 2577.61 184.528   1
  -7   5   6 2369.59 174.704   1
   7   5  -6 3054.41 205.253   1
  -7  -5   6 2814.07 200.222   1
  10   0   3 477.373 107.266   1
 -10   0  -3 282.172 108.330   1
  10   0   3 346.442 105.436   1
  -1   6  -4 1558.53 170.427   1
   1   6   4 2174.68 156.546   1
   1   6   4 1972.98 169.289   1
  -1  -6  -4 1927.79 155.373   1
  -1   6  -4 1823.73 168.571   1
   1  -6   4 1532.74 175.210   1
  -9   0  -5 5227.13 238.371   1
   9   0   5 4609.01 242.300   1
   9   0   5 5387.20 236.913   1
   4   6  -2 73.3799 86.7148   1
   4  -6  -2 -16.613 81.1819   1
   4  -6  -2 -7.6954 60.9971   1
  -4  -6   2 52.9618 76.5196   1
  -4   6   2 -27.471 76.4568   1
  -4   6   2 74.3378 86.9229   1
  -4  -6   2 12.0727 46.1386   1
  -9   4   7 4406.17 233.977   1
  -9  -4   7 5168.27 264.908   1
   9   4  -7 5087.59 264.928   1
   9  -4  -7 4161.48 241.408   1
  11   1   0 8655.18 333.386   1
  11  -1   0 7637.59 330.867   1
  11   1   0 8211.92 350.212   1
 -11   1   0 8163.37 369.284   1
 -11   1   0 8024.47 267.253   1
 -11  -1   0 8630.51 338.161   1
  11  -1   0 8880.45 375.952   1
   1  -6  -5 1937.04 161.661   1
  -1   6   5 2273.63 174.876   1
  -1   6   5 2025.76 155.914   1
   1   6  -5 929.712 161.899   1
  -1  -6   5 1339.33 174.856   1
  -1  -5   9 29745.0 1076.49   1
   1   5  -9 29390.6 1067.99   1
   1  -5  -9 31334.0 1067.30   1
   1   5  -9 29085.0 1044.00   1
   1  -5  -9 31186.4 1039.48   1
  -1   5   9 31110.7 1020.11   1
  -1   5   9 29055.0 900.805   1
  -1   5   9 31549.0 1074.01   1
  -1   5   9 30431.7 1054.67   1
   2   6  -5 1956.44 186.563   1
   2   6  -5 1547.10 184.267   1
   2  -6  -5 2711.73 195.096   1
  -2  -6   5 1854.27 189.639   1
  -2   6   5 2553.05 178.368   1
  -2   6   5 2518.26 185.695   1
  -4   6   1 266.817 113.406   1
   4   6  -1 132.752 109.665   1
   4  -6  -1 314.809 110.516   1
   4  -6  -1 264.807 89.3382   1
  -4  -6   1 164.356 55.3067   1
  -4  -6   1 188.240 112.886   1
  -4   6   1 378.233 104.215   1
 -10   1  12 1880.37 169.288   1
  10  -1 -12 2129.51 185.373   1
  10  -1 -12 1585.10 112.084   1
  10   1 -12 1463.80 157.767   1
 -10  -1  12 1445.97 151.256   1
 -10  -1  12 1414.43 169.370   1
 -10   1  12 1797.11 149.755   1
 -12   0   6 50.0431 91.4188   1
 -12   0   6 18.0080 82.9827   1
  12   0  -6 124.209 87.9270   1
  -6  -2  14 24765.5 879.464   1
  -6  -2  14 23985.0 866.611   1
   6  -2 -14 23729.8 805.227   1
   6   2 -14 25453.4 919.625   1
 -12   0   5 -9.4895 76.4230   1
 -12   0   5 16.1599 64.9868   1
  12   0  -5 -55.879 75.2548   1
  12   0  -5 6.15451 73.6226   1
  -7  -3  -6 7182.57 269.670   1
   7   3   6 7643.49 301.535   1
  -7  -3  -6 7196.15 276.620   1
   7   3   6 7397.02 275.001   1
   7   3   6 7362.20 274.143   1
   7  -3   6 7894.26 366.505   1
   7  -3   6 8412.88 338.434   1
  -7   3  -6 7964.53 277.327   1
  -7   3  -6 8580.80 377.523   1
  10  -2 -11 20112.8 739.471   1
  10   2 -11 17583.5 663.783   1
 -10  -2  11 17661.4 657.814   1
 -10  -2  11 17026.5 649.270   1
 -10   2  11 18510.7 659.621   1
   4  -6  -3 1918.49 207.309   1
   4   6  -3 2159.40 189.640   1
   4  -6  -3 2256.56 143.628   1
  -4   6   3 2187.37 185.235   1
   4   6  -3 2382.38 191.257   1
  -4  -6   3 2547.77 185.605   1
  -4   6   3 2017.47 170.257   1
   2  -3 -13 3843.64 129.805   1
  -2  -3  13 4165.05 227.500   1
  -2  -3  13 3860.15 216.964   1
  -2  -3  13 3600.28 181.338   1
  -2   3  13 4222.50 189.339   1
  -2   3  13 3609.83 123.025   1
   2  -3 -13 3683.37 122.487   1
  -2   3  13 4009.57 129.151   1
  -7  -4  -4 3627.74 183.431   1
  -7   4  -4 2781.59 207.938   1
   7   4   4 3591.29 177.056   1
   7  -4   4 2852.67 203.006   1
   7   4   4 3344.77 167.352   1
   7  -4   4 2970.21 203.334   1
  -9   2  -4 9990.57 416.622   1
   9  -2   4 9809.77 419.551   1
   9   2   4 10285.3 410.123   1
   9  -2   4 9590.21 405.218   1
   9   2   4 10377.1 332.344   1
   9   2   4 11314.8 389.194   1
  -8  -4  -2 3257.66 180.029   1
  -8   4  -2 3824.10 224.266   1
   8   4   2 3498.45 182.574   1
   8   4   2 3185.04 160.921   1
   8  -4   2 3148.45 206.825   1
   8  -4   2 3545.72 221.314   1
   6  -5  -8 3170.12 176.222   1
  -6   5   8 2786.01 167.339   1
  -6  -5   8 3567.36 220.893   1
  -6   5   8 2933.08 198.110   1
  -6   5   8 2765.71 190.458   1
   6   5  -8 3505.42 236.901   1
   6   5  -8 3156.48 213.049   1
  -4   0  15 156.870 87.5242   1
   4   0 -15 -6.2755 78.5221   1
  -4   0  15 128.184 72.8745   1
   4  -4   8 5322.33 258.601   1
  -4  -4  -8 4677.03 162.681   1
  -4   4  -8 5583.44 288.796   1
   4   4   8 5044.80 206.083   1
   4   4   8 5122.83 175.494   1
  -4  -4  -8 4936.59 168.230   1
   4   4   8 4987.16 167.346   1
   5   0 -15 29261.2 1002.18   1
  -5   0  15 30341.5 1021.68   1
  -5   0  15 30159.4 1059.81   1
   3   6   2 1407.47 169.228   1
   3  -6   2 1782.70 155.121   1
   3   6   2 1703.11 146.014   1
  -3   6  -2 2107.85 173.876   1
  -3   6  -2 1885.37 174.693   1
  -3  -6  -2 1491.07 150.322   1
   3  -6   2 2139.23 178.360   1
   9  -4  -1 2690.52 193.129   1
  -9  -4   1 3262.88 196.151   1
  -9   4   1 2629.52 196.644   1
   9   4  -1 3225.68 176.082   1
   9  -4  -1 3202.79 199.699   1
   7  -5   0 3268.29 207.931   1
   7   5   0 2572.20 175.155   1
  -7  -5   0 2415.78 176.006   1
  -7  -5   0 2503.34 146.836   1
  -7   5   0 2948.33 204.888   1
   7  -5   0 2910.55 193.035   1
 -12   0   7 10.9376 65.3111   1
  12   0  -7 -21.124 68.4270   1
 -12   0   7 5.05009 69.5489   1
  -2   2  14 1812.53 77.4991   1
  -2  -2  14 2557.50 153.557   1
  -2  -2  14 2245.95 118.680   1
  -2  -2  14 2191.62 166.763   1
  -2   2  14 1792.19 116.571   1
  -2   2  14 1851.40 82.4919   1
   2  -2 -14 1595.11 76.3965   1
   2  -2 -14 1762.45 80.2288   1
  12   0  -4 953.001 135.428   1
 -12   0   4 816.610 120.043   1
 -12   0   4 933.847 135.768   1
  12   0  -4 1034.77 131.229   1
  -6  -3  13 1083.29 136.737   1
  -6  -3  13 974.749 128.815   1
  -6   3  13 783.406 87.2488   1
  -6   3  13 882.421 107.618   1
   6   3 -13 1186.84 93.9920   1
   6   3 -13 1010.50 133.546   1
  -4  -6   0 3017.91 203.273   1
  -4  -6   0 2627.16 100.814   1
   4  -6   0 2293.34 194.600   1
  -4   6   0 2599.74 184.244   1
   4  -6   0 2122.63 156.448   1
   4   6   0 3205.27 210.563   1
  -4   6   0 2137.73 192.071   1
   3   4   9 814.022 89.7228   1
   3   4   9 526.403 39.3129   1
   3  -4   9 492.558 112.145   1
  -3   4  -9 351.218 110.362   1
   0   0  14 5992.03 211.217   1
   0   0  14 6353.95 225.628   1
   0   0  14 6400.99 257.661   1
   3   1  12 908.356 98.3562   1
   3  -1  12 1322.86 109.212   1
  -3   1 -12 1213.75 107.361   1
  -3   1 -12 1111.66 104.640   1
   3  -1  12 1062.77 103.901   1
   3  -1  12 1081.27 107.046   1
  10   3  -9 5858.28 295.898   1
 -10  -3   9 6366.65 303.111   1
  10  -3  -9 5401.27 275.294   1
 -10   3   9 5395.92 263.997   1
 -10  -3   9 6204.33 310.113   1
   0   6   5 3577.58 194.268   1
   0  -6  -5 3729.18 206.490   1
   0   6  -5 3423.91 222.951   1
   0   6  -5 3260.33 220.973   1
   0  -6   5 3554.59 232.538   1
   0   6   5 3317.07 212.445   1
  -3   6   5 1365.64 166.283   1
  -3  -6   5 2325.27 194.805   1
   3   6  -5 2207.84 189.403   1
   3   6  -5 2401.83 185.643   1
  -3   6   5 1633.83 144.751   1
   3  -6  -5 1604.70 172.797   1
   5   4   7 3114.55 133.198   1
  -5  -4  -7 3067.23 136.963   1
   5   4   7 3280.75 158.430   1
   5   4   7 3260.51 142.902   1
   5  -4   7 3809.65 239.882   1
  -5   4  -7 3937.52 217.857   1
  11   2  -9 2994.57 205.465   1
 -11   2   9 2290.85 186.231   1
 -11  -2   9 2605.53 232.013   1
  11  -2  -9 2616.25 196.350   1
 -11  -2   9 2724.23 194.770   1
  -7  -1  -8 4443.37 191.098   1
   7   1   8 4705.80 187.239   1
   7  -1   8 5960.32 284.871   1
   7  -1   8 5896.53 242.718   1
   7   1   8 4578.37 266.512   1
   7   1   8 4467.68 205.167   1
  -7   1  -8 5717.35 237.394   1
  -7  -1  -8 4342.29 194.039   1
  -8  -1  14 10148.1 408.623   1
  -8   1  14 9228.46 366.905   1
  -8  -1  14 9799.77 406.293   1
  -8   1  14 8527.58 373.668   1
   8   1 -14 9861.99 420.329   1
   8  -1 -14 9120.45 368.622   1
 -10   1  -3 2627.11 186.224   1
 -10  -1  -3 3123.80 175.327   1
  10  -1   3 2633.91 183.437   1
  10  -1   3 2679.42 187.405   1
  10   1   3 2660.91 167.660   1
  10   1   3 2807.56 178.069   1
  10  -2   2 205.200 108.119   1
  10  -2   2 244.372 93.2370   1
  10   2   2 305.423 55.3542   1
 -10   2  -2 42.1294 41.2314   1
  10   2   2 225.310 82.5011   1
  10   2   2 292.591 104.138   1
 -10   2  -2 171.984 95.7961   1
   0  -4  11 17029.7 643.711   1
   0   4 -11 17062.3 615.767   1
   0   4  11 18000.6 641.987   1
  -5   5   9 869.399 113.333   1
  -5   5   9 709.218 88.8444   1
   5   5  -9 997.600 135.640   1
   5   5  -9 669.775 146.516   1
  -5   5   9 1024.89 131.938   1
   5  -5  -9 1027.92 120.184   1
  -5  -5   9 946.599 133.900   1
   4   6  -4 419.230 142.046   1
   4   6  -4 434.983 146.847   1
  -4   6   4 567.115 132.438   1
  -4  -6   4 539.272 137.573   1
   4  -6  -4 895.126 90.0857   1
  -4   6   4 960.712 124.330   1
   4  -6  -4 720.722 131.482   1
   9  -1   5 1313.80 150.604   1
   9   1   5 1060.63 130.961   1
   9   1   5 1141.50 111.253   1
  -9  -1  -5 965.714 124.949   1
   9  -1   5 1431.26 139.583   1
  -9   1  -5 1377.52 137.727   1
  11   0 -11 3070.12 202.128   1
 -11   0  11 3057.79 201.731   1
 -11   0  11 3247.24 196.624   1
   3   0 -15 2259.20 134.607   1
  -3   0  15 2483.56 141.252   1
  -3   0  15 2392.84 138.301   1
  -3   0  15 2744.25 161.784   1
   3   0 -15 2544.66 147.328   1
  -8  -3  12 11518.7 444.797   1
   8   3 -12 11101.3 449.493   1
   8   3 -12 10483.2 386.363   1
   8  -3 -12 11102.3 418.199   1
   8  -3 -12 11765.5 440.132   1
  -8  -3  12 11019.2 450.054   1
  -8   3  12 11403.6 423.737   1
  -6   0  15 277.749 95.6431   1
  -6   0  15 214.210 106.977   1
   6   0 -15 312.369 102.677   1
  11  -2  -1 6.72508 88.3417   1
  11  -2  -1 -11.220 76.5469   1
  11   2  -1 31.7831 54.6228   1
  11   2  -1 18.3611 79.3918   1
  11   2  -1 24.4623 71.7845   1
 -11   2   1 36.4002 80.7617   1
 -11   2   1 35.2618 53.3669   1
  12   1  -6 51.2618 91.5994   1
 -12  -1   6 218.220 94.9442   1
 -12   1   6 61.7518 85.9749   1
  12  -1  -6 150.813 102.555   1
 -12   1   6 138.920 98.6712   1
 -12  -1   6 68.8565 97.3935   1
  12  -1  -6 59.3324 97.3173   1
  12  -1  -5 1243.74 147.994   1
 -12  -1   5 1404.19 148.162   1
 -12  -1   5 1545.32 139.775   1
 -12   1   5 1589.66 156.548   1
 -12   1   5 1112.69 128.400   1
  12   1  -5 1354.94 144.970   1
  12  -1  -5 1548.93 163.064   1
   9  -3 -11 210.075 93.0199   1
   9   3 -11 264.347 115.219   1
  -9   3  11 138.737 108.107   1
  -9  -3  11 261.067 113.638   1
  -9  -3  11 224.203 100.945   1
 -10   3   0 781.468 127.884   1
 -10  -3   0 401.204 109.938   1
  10  -3   0 596.399 129.509   1
  10  -3   0 1172.14 128.042   1
  10   3   0 316.300 114.728   1
  10   3   0 292.408 109.972   1
  -7  -5   7 11858.7 478.999   1
   7  -5  -7 10000.7 428.179   1
   7   5  -7 11977.3 479.649   1
   7   5  -7 12219.9 463.324   1
  -7   5   7 10117.2 404.662   1
  -7   5   7 10013.6 427.765   1
   8   2   6 11991.9 416.123   1
   8   2   6 11279.7 367.740   1
   8   2   6 11331.4 418.071   1
   8  -2   6 11966.8 490.650   1
   8   2   6 11731.7 459.468   1
   8  -2   6 12896.8 484.871   1
  -8   2  -6 13603.9 504.420   1
  12   0  -8 11223.4 453.444   1
 -12   0   8 11242.1 448.712   1
 -12   0   8 11183.3 448.348   1
  -4   1  15 5390.24 220.378   1
  -4  -1  15 7017.33 275.054   1
  -4  -1  15 6959.90 290.038   1
  -4   1  15 5673.64 299.349   1
   4  -1 -15 5416.58 238.156   1
  -4   1  15 5180.91 218.767   1
   4  -1 -15 5097.96 215.554   1
   4   1 -15 6918.34 287.727   1
   2   0  13 4.21277 56.0193   1
   2   0  13 16.7771 44.1374   1
   2   0  13 45.7527 44.2547   1
  -2   0 -13 31.0961 42.8798   1
  -2   0 -13 2.87000 42.5418   1
  11   0   1 3971.56 224.978   1
  11   0   1 3321.35 208.922   1
 -11   0  -1 3595.65 219.383   1
   5  -1 -15 11293.8 417.815   1
  -5   1  15 11208.8 402.085   1
   5   1 -15 11000.8 429.488   1
  -5   1  15 12190.7 460.486   1
  -5  -1  15 10176.5 413.853   1
  -5   1  15 11201.0 411.114   1
  -5  -1  15 11031.2 412.028   1
  -9   4   8 2517.64 168.044   1
  -9  -4   8 1508.69 160.598   1
   9  -4  -8 2353.49 176.796   1
   9   4  -8 1188.15 159.560   1
  -9  -4   8 1358.94 173.489   1
   1  -3  12 495.386 103.912   1
   1  -3  12 269.066 95.1426   1
  -1   3 -12 354.971 110.497   1
 -12   0   3 66.5942 74.0686   1
 -12   0   3 -40.058 83.3539   1
  12   0  -3 25.3250 87.8989   1
  12   0  -3 109.494 83.5729   1
   0   5  -9 2220.66 182.871   1
   0   5   9 2089.22 122.707   1
   0  -5   9 1970.46 174.947   1
   0   5   9 2131.10 126.121   1
   0  -5  -9 2158.28 127.110   1
   0   5   9 2498.94 188.190   1
   0  -5  -9 2092.81 122.878   1
   0   5  -9 2484.94 194.027   1
  12   1  -7 3821.39 220.756   1
  12  -1  -7 4240.67 241.602   1
 -12  -1   7 3633.55 236.392   1
 -12  -1   7 3676.29 225.747   1
 -12   1   7 4376.24 224.232   1
 -12   1   7 4266.01 237.990   1
 -12   1   4 463.521 116.755   1
 -12   1   4 511.082 97.6469   1
 -12  -1   4 279.556 94.2920   1
 -12  -1   4 155.257 107.590   1
  12  -1  -4 535.058 119.130   1
  12   1  -4 204.538 112.350   1
  12  -1  -4 428.913 116.261   1
  12   1  -4 199.721 104.794   1
   8   0   7 92.3847 82.7535   1
  -8   0  -7 -10.920 69.6348   1
   8   0   7 50.8475 59.0780   1
  -6   5  -3 496.349 130.791   1
   6   5   3 586.723 97.3039   1
  -6  -5  -3 523.845 108.925   1
   6  -5   3 516.815 127.724   1
   6  -5   3 562.077 135.680   1
  -4   4  12 231.383 76.2644   1
   4  -4 -12 306.961 79.0373   1
   4  -4 -12 134.216 73.5813   1
  -4   4  12 242.407 73.5952   1
  -4   4  12 243.378 87.8648   1
  -4  -4  12 383.439 104.949   1
   4   4 -12 739.283 116.753   1
  -4  -4  12 321.754 101.009   1
   4   4 -12 521.070 96.1123   1
   7  -2 -14 192.938 82.8856   1
   7   2 -14 207.401 116.688   1
  -7   2  14 194.093 79.4825   1
  -7  -2  14 -24.461 102.778   1
  -7  -2  14 100.604 107.132   1
  -4   6  -1 922.631 142.288   1
   4   6   1 1184.11 135.013   1
   4  -6   1 745.275 113.648   1
  -4   6  -1 1354.29 153.742   1
   4   6   1 1195.94 153.379   1
   4  -6   1 597.419 147.182   1
  -4  -6  -1 1085.04 134.200   1
  -2   6  -4 2031.85 187.395   1
   2   6   4 2386.93 185.339   1
  -2   6  -4 2246.10 190.957   1
   2  -6   4 2662.05 207.425   1
   2   6   4 2387.06 161.861   1
  -2  -6  -4 2300.31 161.073   1
  -2   4 -10 3835.83 212.008   1
   2  -4  10 3959.78 235.179   1
   3  -4 -12 1888.39 112.577   1
   3  -4 -12 1694.10 107.988   1
  -3   4  12 2054.21 128.935   1
  -3   4  12 1801.00 107.202   1
  -3   4  12 1664.50 111.466   1
  -3  -4  12 1461.82 148.442   1
  -3  -4  12 1813.67 172.474   1
   3   4 -12 1694.55 127.633   1
   3   4 -12 1628.68 163.822   1
   0   1 -14 6898.17 271.809   1
   0  -1  14 7499.89 282.748   1
   0  -1  14 6732.50 277.568   1
   0  -1  14 6928.96 280.202   1
   0  -1  14 6369.30 264.230   1
   0   1  14 7628.29 294.168   1
   0   1 -14 6376.87 264.112   1
  -3  -5  -7 1995.17 129.788   1
   3   5   7 1837.70 114.526   1
   3   5   7 1644.50 73.3947   1
  -3  -5  -7 2008.47 121.734   1
   3   5   7 2252.90 128.890   1
   3  -5   7 1594.82 166.406   1
  -3   5  -7 1851.09 173.809   1
   6   4   6 31125.7 1051.54   1
  -6   4  -6 31327.3 1129.81   1
  -6   4  -6 30420.7 1071.28   1
  -6  -4  -6 30959.4 1056.96   1
  -6  -4  -6 31864.9 1055.39   1
   6  -4   6 30889.7 1106.32   1
   6  -4   6 31330.1 1150.84   1
   6   4   6 30717.1 1029.89   1
   6   4   6 30974.2 1025.12   1
  -1  -3  13 11767.1 454.834   1
  -1   3  13 11040.5 407.383   1
  -1  -3  13 11891.1 457.423   1
   1   3 -13 12126.1 465.206   1
   8   4 -10 191.281 110.407   1
   8   4 -10 125.681 92.1983   1
   8  -4 -10 140.631 99.2940   1
  -8  -4  10 32.8935 102.774   1
  -8  -4  10 155.294 110.852   1
  -8   4  10 82.3001 98.8470   1
  -1   2 -13 1007.18 119.369   1
   1  -2  13 1004.85 109.204   1
   1  -2  13 1086.46 120.817   1
  -4  -5  -6 16836.4 580.672   1
   4   5   6 16772.3 574.598   1
   4   5   6 15975.3 478.170   1
   4   5   6 18087.4 597.112   1
   4  -5   6 15402.5 597.342   1
  -4  -5  -6 17588.1 590.908   1
  -4   5  -6 15131.7 605.087   1
   9  -4   0 828.861 155.169   1
  -9   4   0 792.534 135.941   1
   9   4   0 563.026 119.777   1
   9  -4   0 1190.72 133.406   1
  -9  -4   0 619.826 117.055   1
 -11  -1  11 13973.8 535.814   1
 -11   1  11 13800.7 534.355   1
 -11   1  11 13377.9 514.669   1
 -11  -1  11 13675.2 576.653   1
  11  -1 -11 13666.4 536.823   1
  11   1 -11 13728.0 541.068   1
  -7  -4  11 100.544 107.201   1
   7  -4 -11 217.110 95.6847   1
   7   4 -11 72.6795 96.4999   1
   7   4 -11 338.971 119.139   1
  -7   4  11 206.972 88.5755   1
  -7   4  11 265.365 76.9073   1
  -7  -4  11 74.1323 111.138   1
   3  -1 -15 1800.80 107.567   1
  -3   1  15 1867.16 109.468   1
  -3   1  15 2224.82 173.963   1
  -3  -1  15 1907.84 81.1095   1
   3   1 -15 2285.29 164.439   1
  -3   1  15 1695.48 81.6842   1
   3  -1 -15 1458.59 98.7077   1
  -3  -1  15 2269.31 148.298   1
  -3  -1  15 2111.01 133.665   1
  -3   1  15 1937.12 115.977   1
  -2   6   6 10862.3 427.267   1
   2  -6  -6 10597.3 426.589   1
  -2   6   6 11160.8 435.422   1
   2   6  -6 9266.14 416.230   1
   2   6  -6 9639.54 422.231   1
  -2  -6   6 9280.01 417.331   1
   1   6   5 463.934 106.906   1
  -1   6  -5 1153.95 144.049   1
   1   6   5 590.269 126.732   1
   1  -6   5 1052.68 148.160   1
  -1   6  -5 841.220 144.365   1
  -1  -6  -5 499.202 114.876   1
  -3   6  -3 1359.70 154.012   1
  -3   6  -3 1075.39 144.642   1
   3   6   3 1128.35 146.746   1
   3  -6   3 873.004 129.600   1
   3  -6   3 1189.53 159.393   1
  -3  -6  -3 977.540 126.225   1
   3   6   3 998.869 120.207   1
  -7  -5  -1 1353.20 117.515   1
  -7   5  -1 1200.07 160.825   1
   7   5   1 1362.12 130.624   1
   7  -5   1 1404.48 153.233   1
  -7  -5  -1 1134.18 131.014   1
   7  -5   1 1230.13 158.212   1
   4   6  -5 3163.23 219.488   1
   4  -6  -5 2696.69 219.363   1
  -4  -6   5 3004.18 217.867   1
  -4   6   5 2715.70 179.897   1
   4   6  -5 3078.19 234.969   1
  -4   6   5 2765.49 234.246   1
  -6   1  15 6504.79 263.244   1
  -6   1  15 7128.00 320.202   1
  -6  -1  15 6190.70 298.752   1
   6  -1 -15 6544.41 268.296   1
   6   1 -15 6301.58 289.181   1
  -6  -1  15 6369.14 288.217   1
  -9  -3  -3 11111.1 401.972   1
  -9   3  -3 11369.0 477.202   1
   9   3   3 10893.7 410.348   1
   9   3   3 10880.5 393.870   1
   9   3   3 10305.8 375.656   1
   9  -3   3 10898.3 456.184   1
   9  -3   3 11403.5 439.565   1
  -1   6   6 12987.6 487.675   1
   1  -6  -6 13522.4 511.813   1
   1   6  -6 14354.1 599.653   1
   1   6  -6 13634.6 547.821   1
  -1   6   6 12858.2 505.830   1
  -1  -6   6 14302.9 569.090   1
  -5   4  12 -51.616 66.3772   1
  -5   4  12 46.3291 58.9635   1
   5  -4 -12 52.4881 62.0323   1
  -5  -4  12 -17.022 71.1980   1
  -5  -4  12 77.6856 78.3319   1
   5   4 -12 50.3603 69.6292   1
   5   4 -12 -93.205 81.7049   1
   2   0 -15 41.9519 57.3968   1
  -2   0  15 7.94125 60.9202   1
  -2   0  15 129.840 82.3177   1
  -2   0  15 39.9216 52.9839   1
  -2   0  15 67.4924 39.8148   1
   1   2 -14 10601.7 403.308   1
  -1  -2  14 9936.01 371.779   1
  -1  -2  14 10553.9 396.140   1
  -1  -2  14 10064.7 390.462   1
  -2  -5  -8 1011.65 85.6118   1
  -2   5  -8 1236.63 161.876   1
  -2  -5  -8 1216.17 97.6117   1
   2   5   8 1221.88 98.5115   1
   2  -5   8 1582.26 154.475   1
   2   5   8 1184.89 65.3989   1
   2   5   8 1276.66 92.8888   1
   2   5   8 1264.33 146.431   1
  -7   3  13 3730.94 187.407   1
   7   3 -13 3124.05 160.487   1
   7   3 -13 3469.38 214.479   1
  -7  -3  13 3346.28 217.969   1
  -7  -3  13 3007.50 199.059   1
   7  -3 -13 3443.07 186.013   1
 -12   1   8 3476.79 222.734   1
 -12  -1   8 3195.94 239.126   1
  12  -1  -8 3732.54 230.742   1
 -12  -1   8 3086.09 214.385   1
 -12   1   8 3250.91 210.563   1
  12   1  -8 3324.28 211.520   1
  -2   1 -13 1424.32 114.769   1
   2  -1  13 1538.43 114.054   1
   2   1  13 1861.44 114.924   1
   2  -1  13 1229.19 111.688   1
   2  -1  13 1410.64 115.895   1
  -2   1 -13 1192.98 113.019   1
  11  -1   1 58.4503 80.8130   1
  11   1   1 92.6407 89.3526   1
  11  -1   1 45.4320 94.2690   1
  11   1   1 210.164 85.4147   1
 -11   1  -1 57.8909 39.5683   1
 -11   1  -1 -21.968 86.2588   1
 -11  -1  -1 76.6493 89.1684   1
   2  -4 -12 3843.16 149.252   1
   2  -4 -12 3508.58 144.481   1
  -2   4  12 3410.58 147.954   1
  -2   4  12 3638.07 144.369   1
  -2   4  12 3738.42 190.644   1
  -2  -4  12 4104.60 215.165   1
   2   4 -12 4117.13 253.535   1
  -2  -4  12 4012.95 213.684   1
   5  -2  10 398.190 102.281   1
  -5   2 -10 434.577 107.663   1
   7   0 -15 19254.1 699.547   1
  -7   0  15 19904.5 724.450   1
  -7   0  15 18727.8 671.845   1
  -5   3  -9 12808.0 451.575   1
   5   3   9 14050.8 516.717   1
   5  -3   9 12782.3 502.774   1
  -5   3  -9 12490.6 499.296   1
  -8  -3  -5 -11.813 58.4255   1
   8  -3   5 -41.455 88.0217   1
   8   3   5 45.2546 57.5530   1
   8   3   5 -31.951 48.7630   1
   8   3   5 87.9967 67.8827   1
   8   3   5 16.2608 58.4789   1
  -8  -3  -5 -29.036 58.3383   1
  -8   3  -5 3.31930 74.0774   1
  -8   3  -5 45.7162 45.4538   1
 -10   0  13 62.5531 78.5389   1
 -10   0  13 17.5033 94.0905   1
  10   0 -13 29.0943 81.9427   1
  12  -1  -3 49.5770 99.0287   1
  12   1  -3 2.35107 86.5437   1
 -12   1   3 21.2646 68.3772   1
  12  -1  -3 313.358 95.1436   1
  12   1  -3 112.974 90.8614   1
 -12   1   3 76.5904 97.0483   1
 -12  -1   3 64.2546 88.1156   1
 -12  -1   3 90.1015 81.5336   1
  -3   6   6 3037.30 238.348   1
   3   6  -6 4225.55 241.599   1
   3   6  -6 4254.59 252.871   1
   3  -6  -6 3192.98 213.574   1
  -3  -6   6 4110.58 251.298   1
  -3   6   6 3065.09 202.605   1
  -4   3 -10 14598.9 551.882   1
  -4   3 -10 14133.9 506.476   1
   4  -3  10 13947.9 534.405   1
   5   6  -2 1605.35 174.167   1
   5  -6  -2 1757.53 174.398   1
   5  -6  -2 1996.42 147.819   1
  -5  -6   2 1981.18 163.217   1
   5   6  -2 1960.01 198.605   1
  -5   6   2 2158.15 171.191   1
  -5   6   2 1939.89 175.316   1
  -5  -6   2 1929.26 122.246   1
   8   5  -4 12027.0 473.329   1
  -8  -5   4 12676.2 491.963   1
   8  -5  -4 11639.8 462.587   1
   8  -5  -4 10522.1 451.218   1
  -8   5   4 12132.6 482.081   1
   8   1   7 11548.8 410.324   1
   8   1   7 12086.3 453.144   1
   8  -1   7 12913.1 501.124   1
   8  -1   7 13029.5 470.900   1
  -8  -1  -7 10712.5 409.171   1
  -8  -1  -7 11833.7 414.490   1
   8   1   7 11249.0 427.162   1
  -8   1  -7 12558.1 458.103   1
  11   3  -5 11002.2 434.371   1
  11  -3  -5 10717.0 449.572   1
 -11   3   5 10373.3 446.983   1
 -11  -3   5 10806.0 438.284   1
  11  -3  -5 11044.6 452.379   1
 -12   0   9 90.1093 75.7051   1
 -12   0   9 -78.975 81.7442   1
  12   0  -9 39.7640 89.6135   1
   5   6  -3 202.865 111.230   1
  -5   6   3 451.439 108.981   1
  -5  -6   3 215.286 79.1479   1
  -5  -6   3 54.1928 107.899   1
   5  -6  -3 270.453 89.8998   1
   5   6  -3 1.02738 111.067   1
  -5   6   3 219.199 114.773   1
   5  -6  -3 387.103 114.529   1
  -3   5  10 520.376 69.4699   1
   3  -5 -10 353.123 94.0372   1
  -3   5  10 747.726 89.9800   1
  -3   5  10 710.575 112.367   1
  -3  -5  10 94.2888 119.919   1
   3   5 -10 302.471 117.349   1
   8   5  -3 4331.82 256.439   1
  -8  -5   3 3833.51 223.348   1
   8  -5  -3 4573.50 238.599   1
  -8   5   3 4149.23 241.437   1
  11  -2 -10 2276.99 178.132   1
 -11   2  10 1939.00 172.445   1
 -11  -2  10 2256.05 183.947   1
  11   2 -10 2265.70 189.543   1
 -11  -2  10 2669.48 230.412   1
   9   0 -14 91.0981 76.7391   1
  -9   0  14 13.3890 74.3046   1
  -9   0  14 -16.634 92.5460   1
   4  -2  11 8687.07 347.409   1
  -4   2 -11 9040.00 355.398   1
 -12   0   2 7710.59 308.685   1
 -12   0   2 7768.17 333.155   1
  12   0  -2 7762.45 343.042   1
  12   0  -2 6785.10 312.086   1
  -5   5  -5 2451.52 203.279   1
  -5  -5  -5 2732.77 163.637   1
   5  -5   5 2753.47 207.648   1
   5  -5   5 2657.43 189.212   1
   9  -2 -13 8591.38 360.360   1
   9  -2 -13 7893.07 298.749   1
   9   2 -13 8399.58 397.587   1
  -9   2  13 8450.28 348.457   1
  -9  -2  13 8508.20 354.031   1
  -9  -2  13 9035.13 392.229   1
  10  -3 -10 3928.89 253.062   1
  10   3 -10 3574.22 233.673   1
 -10  -3  10 3495.30 222.091   1
 -10  -3  10 4067.00 258.450   1
 -10   3  10 4285.90 222.251   1
  -6  -5   9 3137.64 227.300   1
   6   5  -9 3346.36 219.745   1
   6   5  -9 3223.24 236.105   1
   6  -5  -9 4403.64 234.817   1
  -6   5   9 4532.57 221.796   1
  -6   5   9 4569.04 234.299   1
  11   3  -6 4466.53 232.476   1
 -11  -3   6 3945.16 233.506   1
 -11   3   6 3546.87 228.955   1
 -11  -3   6 4336.54 254.399   1
  11  -3  -6 3789.89 265.276   1
  11  -3  -6 3603.71 232.360   1
  -6  -2  -9 1391.37 76.4136   1
  -6   2  -9 1021.72 136.972   1
  -6  -2  -9 1415.62 75.7685   1
   6   2   9 1375.26 80.3488   1
   6   2   9 1399.47 85.1028   1
   6  -2   9 1011.00 141.402   1
   6   2   9 1646.65 156.164   1
 -11   3   4 19924.1 743.534   1
 -11  -3   4 18950.6 725.742   1
  11  -3  -4 19452.2 723.633   1
  11  -3  -4 19085.5 717.590   1
  11   3  -4 18607.7 678.231   1
  -5  -6   1 6838.63 251.152   1
   5   6  -1 6299.40 324.096   1
  -5   6   1 6976.72 327.499   1
  -5  -6   1 6777.82 328.273   1
   5  -6  -1 6894.39 297.744   1
   5  -6  -1 7358.43 341.398   1
   5   6  -1 7130.32 336.240   1
  -5   6   1 7346.15 334.997   1
  -8  -5   5 9666.99 406.874   1
   8   5  -5 9905.70 404.749   1
  -8   5   5 7725.24 352.784   1
   8  -5  -5 8188.22 359.561   1
   8  -5  -5 7493.48 349.009   1
  -2   5  10 12501.7 426.130   1
  -2   5  10 11181.3 366.712   1
  -2   5  10 11846.8 456.369   1
  -2   5  10 11601.3 421.388   1
   2  -5 -10 12094.7 415.805   1
   2   5 -10 12652.1 491.168   1
   2   5 -10 12133.1 496.512   1
  -2  -5  10 12139.0 481.197   1
  -4   5  10 2292.26 134.359   1
  -4   5  10 2677.40 167.722   1
  -4   5  10 2545.29 181.130   1
   4  -5 -10 2561.64 171.537   1
   4   5 -10 3257.32 221.993   1
   4   5 -10 3512.62 205.246   1
  -4  -5  10 3499.28 213.663   1
   8   4   3 75.9185 63.5503   1
   8  -4   3 7.12897 75.5028   1
  -8  -4  -3 -10.719 53.6169   1
  -8   4  -3 16.5446 75.1427   1
   8  -4   3 -62.382 76.7003   1
   8   4   3 -12.602 56.1346   1
   0   6   6 2187.56 161.167   1
   0  -6   6 2974.37 211.412   1
   0   6  -6 3181.81 211.288   1
   0   6  -6 2934.94 214.582   1
   0   6   6 1921.79 179.078   1
   0  -6  -6 2067.59 161.649   1
   6  -3   8 214.253 81.4397   1
  -6  -3  -8 103.129 43.2096   1
  -6  -3  -8 19.4473 41.0635   1
  -6   3  -8 167.901 104.888   1
  -6   3  -8 142.461 54.8215   1
   6   3   8 48.8247 41.9780   1
   6   3   8 1.54254 73.3228   1
   6   3   8 -4.1472 43.7879   1
  11  -2   0 8685.82 379.648   1
  11   2   0 7816.04 327.147   1
 -11   2   0 8671.35 365.161   1
  11   2   0 8604.34 347.337   1
  11   2   0 7537.77 281.781   1
  11  -2   0 8500.71 381.952   1
   7   5  -8 7845.51 349.774   1
  -7   5   8 5819.06 292.899   1
  -7  -5   8 7546.37 347.992   1
   7  -5  -8 5466.69 265.273   1
  -7   5   8 5409.51 282.838   1
   7   5  -8 7898.56 359.072   1
   4   6   2 33.6160 80.0685   1
   4   6   2 -2.7015 94.7151   1
   4  -6   2 -72.916 95.6011   1
  -4   6  -2 62.6250 93.1925   1
  -4   6  -2 159.242 92.5358   1
  -4  -6  -2 98.5159 82.9456   1
   4  -6   2 25.8241 79.8386   1
   5  -6  -4 38326.3 1299.60   1
   5   6  -4 35250.9 1287.48   1
   5   6  -4 36127.6 1326.10   1
  -5   6   4 35876.6 1306.20   1
   5  -6  -4 37051.3 1338.53   1
  -5   6   4 36331.0 1310.38   1
  -5  -6   4 35307.2 1292.56   1
  -8  -5   2 8126.16 364.167   1
   8   5  -2 8071.08 361.311   1
   8  -5  -2 7528.30 351.645   1
   8  -5  -2 7992.53 352.939   1
  -8   5   2 7555.86 348.651   1
  10  -2 -12 5122.19 251.254   1
  10  -2 -12 5544.67 294.588   1
  10   2 -12 5580.77 290.866   1
 -10  -2  12 5960.33 308.642   1
 -10  -2  12 5856.92 286.384   1
 -10   2  12 5444.64 261.103   1
  -9  -4   9 4103.92 249.910   1
  -9   4   9 4629.29 237.972   1
   9   4  -9 3395.32 233.744   1
   9  -4  -9 4994.69 244.282   1
  -9  -4   9 3344.08 225.034   1
  -2  -1  15 4380.13 195.625   1
   2  -1 -15 2813.69 127.266   1
  -2  -1  15 3839.92 212.819   1
  -2   1  15 2920.73 130.923   1
  -2   1  15 3004.93 132.963   1
  -2   1  15 3237.17 194.523   1
  -2  -1  15 3546.39 147.813   1
   3  -3  11 11433.8 452.038   1
  -3   3 -11 11761.4 466.285   1
  10   0   4 5573.27 267.779   1
  10   0   4 5298.33 252.175   1
 -10   0  -4 5340.75 260.785   1
  10  -3   1 3541.18 207.752   1
 -10  -3  -1 2692.84 177.892   1
  10   3   1 2687.14 181.485   1
  10   3   1 2860.09 174.706   1
  10  -3   1 3271.82 215.951   1
 -10   3  -1 3326.65 210.706   1
  11   3  -7 4926.18 265.330   1
  11  -3  -7 5033.78 274.098   1
  11  -3  -7 4976.68 272.420   1
 -11   3   7 5374.02 276.935   1
 -11  -3   7 4611.48 256.502   1
 -11  -3   7 4560.41 250.164   1
   1  -4  11 38.2683 71.0010   1
  -1   4 -11 -72.307 76.0608   1
   7   1 -15 1070.81 156.668   1
  -7   1  15 1159.30 154.589   1
  -7  -1  15 1331.93 142.904   1
  -7   1  15 1189.30 122.573   1
   7  -1 -15 1094.41 135.987   1
  -7  -1  15 1332.15 157.467   1
 -10  -1  13 4764.19 244.611   1
 -10   1  13 5106.43 247.213   1
 -10  -1  13 4917.47 283.321   1
  10  -1 -13 5497.16 226.544   1
 -10   1  13 5264.70 277.204   1
  10   1 -13 4873.99 258.722   1
  10  -1 -13 5289.56 283.405   1
  11  -3  -3 524.996 132.783   1
  11  -3  -3 526.556 131.305   1
 -11  -3   3 606.624 113.823   1
 -11   3   3 474.564 133.141   1
  11   3  -3 807.417 114.276   1
   6  -4 -12 5946.46 275.911   1
  -6   4  12 6192.03 254.798   1
  -6   4  12 5664.45 249.990   1
   6   4 -12 5714.62 296.117   1
   6   4 -12 5744.41 258.465   1
  -6  -4  12 6132.88 291.592   1
  -6  -4  12 6073.79 300.494   1
   7  -4   5 2269.16 202.047   1
   7  -4   5 2327.76 187.252   1
   7   4   5 2220.10 140.908   1
  -7   4  -5 2531.06 198.482   1
  -7   4  -5 1875.58 145.428   1
   7   4   5 2451.78 151.657   1
  -7  -4  -5 2489.29 151.365   1
  -7  -4  -5 2063.88 144.733   1
   7   4   5 2228.06 148.057   1
   1   5   9 6817.38 220.168   1
   1  -5   9 7189.70 330.176   1
  -1  -5  -9 7131.40 262.205   1
   1   5   9 7331.04 265.260   1
   1   5   9 7768.37 273.202   1
  -1   5  -9 6725.15 331.338   1
   1   5   9 8008.72 366.054   1
   4  -6  -6 26888.0 944.479   1
  -4   6   6 24859.9 913.849   1
   4   6  -6 25300.3 966.826   1
  -4   6   6 25275.8 926.147   1
   4   6  -6 25679.5 949.283   1
  -4  -6   6 24530.8 926.354   1
  12   1  -9 4017.55 249.691   1
 -12  -1   9 4562.53 252.161   1
 -12   1   9 5145.04 265.597   1
 -12   1   9 4500.66 263.191   1
  12  -1  -9 4376.14 259.789   1
   5   6   0 597.171 142.081   1
  -5   6   0 477.901 134.006   1
  -5   6   0 295.693 125.545   1
   5  -6   0 307.787 106.747   1
   5  -6   0 365.747 133.192   1
   5   6   0 482.659 135.985   1
  -5  -6   0 561.639 64.0552   1
  -5  -6   0 1159.39 133.948   1
   8   5  -6 835.580 122.376   1
  -8  -5   6 142.453 118.578   1
   8  -5  -6 62.8356 100.963   1
  -8   5   6 140.170 102.076   1
   8  -5  -6 156.306 109.257   1
 -11   0  12 -84.626 78.6820   1
  11   0 -12 15.4848 74.1588   1
 -11   0  12 33.6554 68.7981   1
   9   1 -14 140.392 99.4797   1
  -9   1  14 -47.796 108.366   1
  -9  -1  14 271.016 113.375   1
   9   1 -14 142.709 35.8920   1
  -9  -1  14 238.267 94.8556   1
   9  -1 -14 256.405 104.311   1
   9  -1 -14 90.8860 42.5254   1
 -10  -4   5 33182.6 1200.03   1
  10   4  -5 32202.7 1169.51   1
 -10   4   5 33159.8 1211.43   1
  10  -4  -5 32711.0 1199.47   1
  10  -4  -5 32026.4 1159.45   1
   3  -2  12 33250.7 1141.63   1
   3  -2  12 31350.7 1057.94   1
  -3   2 -12 32454.5 1142.59   1
  12   1  -2 1697.73 152.882   1
 -12  -1   2 1594.60 181.563   1
 -12  -1   2 1809.72 140.010   1
 -12   1   2 1936.66 134.601   1
 -12   1   2 1864.23 175.598   1
  12  -1  -2 1630.39 176.070   1
  12   1  -2 1609.39 156.456   1
  12  -1  -2 2022.72 192.696   1
  -1   4  12 2701.19 179.589   1
   1   4 -12 3759.74 208.789   1
  -1  -4  12 3536.16 204.488   1
  -1   0 -14 19.9566 41.2985   1
  -1   0 -14 5.95932 40.7645   1
   1   0  14 55.8231 57.0777   1
   1   0  14 29.5477 44.9486   1
   1   0  14 23.8724 42.2664   1
 -10  -4   4 4527.83 269.076   1
  10   4  -4 4293.08 238.339   1
  10  -4  -4 3717.20 244.973   1
  10  -4  -4 3956.19 225.759   1
 -10   4   4 3876.74 249.438   1
   5   0  11 4518.29 186.581   1
  -5   0 -11 4301.17 186.906   1
  -5   0 -11 4504.42 170.167   1
   5   0  11 4207.98 152.319   1
   7   2   8 8377.50 366.746   1
   7   2   8 8289.84 300.512   1
   7  -2   8 8675.83 400.928   1
  -7   2  -8 8901.72 375.150   1
  -7  -2  -8 7917.44 295.103   1
   7   2   8 8006.46 274.315   1
   8   2 -14 791.866 70.4572   1
   8   2 -14 1100.46 166.842   1
  -8  -2  14 949.247 125.222   1
   8  -2 -14 868.669 126.142   1
  -8  -2  14 982.536 141.655   1
  -8   2  14 1026.33 118.443   1
  -1   5  10 6277.39 242.939   1
   1  -5 -10 7018.96 260.328   1
  -1   5  10 6790.23 253.262   1
  -1   5  10 7145.87 321.860   1
   1  -5 -10 6461.38 259.002   1
  -1  -5  10 7103.65 328.375   1
   1   5 -10 7542.13 332.891   1
   1   5 -10 7168.22 339.436   1
  10  -2   3 7158.31 348.158   1
  10   2   3 7472.08 300.002   1
 -10   2  -3 6871.59 305.790   1
  10  -2   3 7741.79 351.117   1
  10   2   3 7681.50 312.660   1
  10   2   3 6940.13 240.653   1
  -9   4  -1 758.992 145.948   1
  -9  -4  -1 1476.81 134.113   1
   9   4   1 1139.55 113.320   1
   9   4   1 1533.78 137.836   1
   9  -4   1 1016.15 148.719   1
   9  -4   1 1017.69 145.306   1
   6   0  10 3585.56 164.054   1
  -6   0 -10 3386.67 168.075   1
  -6   0 -10 3858.71 176.161   1
   6   0  10 3632.91 179.130   1
   5  -5 -10 11125.8 421.294   1
  -5   5  10 10531.1 398.047   1
  -5   5  10 10454.1 415.361   1
  -5   5  10 10030.4 375.618   1
   5   5 -10 10467.3 462.137   1
   5   5 -10 11744.1 457.381   1
  -5  -5  10 11455.1 462.713   1
   2   6   5 8034.15 322.125   1
   2   6   5 7306.66 345.663   1
   2  -6   5 8327.82 385.753   1
  -2  -6  -5 7732.74 338.664   1
  -2   6  -5 9064.18 390.211   1
  -2   6  -5 9430.19 404.197   1
   9   2   5 1266.60 80.3465   1
   9  -2   5 1498.68 169.581   1
   9  -2   5 1865.78 167.175   1
   9   2   5 1337.88 123.289   1
  -9   2  -5 1610.95 165.193   1
   9   2   5 1528.55 156.564   1
   0  -3  13 840.883 126.560   1
   0   3 -13 839.968 129.589   1
   0  -3  13 1142.91 122.191   1
   5   6  -5 7303.91 358.069   1
  -5   6   5 5064.80 278.449   1
   5  -6  -5 5227.66 281.443   1
  -5  -6   5 7758.75 358.012   1
   5   6  -5 7618.80 348.420   1
  -5   6   5 5561.68 298.175   1
   9   0   6 193.448 95.9166   1
   9   0   6 88.8889 81.3870   1
  -9   0  -6 103.330 83.3745   1
  -8  -5   1 11049.2 415.611   1
   8   5  -1 10664.9 407.327   1
  -8   5   1 9610.58 419.658   1
   8  -5  -1 10398.9 448.234   1
   8  -5  -1 11067.3 447.471   1
  -4  -3  14 4113.00 217.375   1
   4  -3 -14 4389.26 171.304   1
  -4   3  14 4083.17 185.036   1
  -4  -3  14 4149.36 207.207   1
  -4   3  14 3900.58 173.844   1
  -4   3  14 4176.91 160.656   1
   4  -3 -14 4074.06 176.085   1
   4   3 -14 4022.41 223.259   1
   7   5   2 597.647 104.900   1
   7  -5   2 568.253 138.212   1
   7  -5   2 388.854 137.112   1
  -7  -5  -2 859.652 111.556   1
  -7   5  -2 449.667 139.562   1
 -10  -4   6 4683.23 259.895   1
  10   4  -6 5085.28 262.033   1
  10  -4  -6 3137.81 240.330   1
  10  -4  -6 3126.75 248.389   1
 -10   4   6 2802.16 226.675   1
  -3   6  -4 789.031 146.123   1
  -3  -6  -4 667.187 113.438   1
   3  -6   4 1076.31 157.163   1
   3   6   4 518.861 109.008   1
  -3   6  -4 849.233 147.120   1
   3   6   4 749.427 144.487   1
  12  -2  -6 775.464 144.611   1
 -12  -2   6 942.642 140.723   1
  12  -2  -6 675.848 148.384   1
  12   2  -6 997.294 140.499   1
 -12  -2   6 1140.61 148.955   1
 -12   2   6 680.463 117.430   1
 -12   2   6 1084.60 154.316   1
  12  -2  -5 3668.93 229.711   1
  12  -2  -5 3061.83 222.713   1
 -12   2   5 3246.18 190.702   1
  12   2  -5 3959.84 214.700   1
 -12   2   5 3360.01 222.838   1
 -12  -2   5 3679.00 220.958   1
 -12  -2   5 3420.24 215.287   1
  11   0   2 -63.824 84.8468   1
  11   0   2 99.4590 87.2561   1
 -11   0  -2 133.597 90.2969   1
  -1   0  15 1145.54 93.8520   1
  -1   0  15 1226.72 127.264   1
   1   0 -15 1038.42 83.4570   1
   1   0 -15 1110.25 86.6169   1
  -1   0  15 1292.84 98.1259   1
 -10  -4   3 10054.9 402.575   1
  10   4  -3 10109.9 440.619   1
 -10   4   3 9477.46 420.787   1
  10  -4  -3 10879.5 454.034   1
  10  -4  -3 10610.6 427.949   1
   9   3 -12 992.091 150.351   1
   9  -3 -12 694.285 115.441   1
  -9  -3  12 977.051 139.495   1
  -9  -3  12 1315.10 156.952   1
  -9   3  12 708.439 133.178   1
   9   3 -12 1046.10 121.009   1
  -6  -5  -4 531.100 99.1871   1
  -6   5  -4 111.133 125.095   1
   6   5   4 623.897 90.9945   1
   6  -5   4 325.387 113.730   1
   6  -5   4 235.598 124.841   1
  -5   3  14 94.9330 69.6681   1
  -5   3  14 125.987 62.2757   1
   5  -3 -14 138.035 71.4577   1
  -5  -3  14 255.421 95.3236   1
   5   3 -14 335.080 118.600   1
  -5  -3  14 243.519 105.920   1
  -5   3  14 133.600 75.1122   1
   5  -3 -14 235.878 72.7695   1
  12   0 -10 17276.5 656.647   1
 -12   0  10 17554.9 681.198   1
 -12   0  10 16589.1 634.202   1
  10  -1   4 2051.20 158.109   1
  10  -1   4 1896.22 170.991   1
  10   1   4 1330.12 143.107   1
 -10  -1  -4 1324.49 134.712   1
  10   1   4 1302.71 132.825   1
 -10   1  -4 1707.30 161.642   1
  -7   3  -7 11878.3 503.671   1
  -7   3  -7 11120.3 379.054   1
   7  -3   7 11226.3 492.670   1
   7   3   7 12930.8 477.829   1
   7   3   7 13226.5 432.412   1
   7  -3   7 11651.5 481.434   1
  -7  -3  -7 12504.8 427.241   1
   7   3   7 13065.7 444.523   1
   4   0  12 11264.3 365.334   1
   4   0  12 10631.9 351.313   1
   4   0  12 11014.7 379.143   1
  -4   0 -12 10936.9 373.763   1
  -2  -6   7 7036.44 349.237   1
  -2   6   7 6887.18 296.535   1
  -2   6   7 6382.50 295.565   1
   2  -6  -7 6462.47 295.165   1
   2   6  -7 6601.36 311.961   1
   2   6  -7 6785.92 346.144   1
  -4   2  15 107.171 44.9800   1
  -4  -2  15 359.743 93.0530   1
  -4  -2  15 420.504 98.1735   1
  -4   2  15 114.009 66.8598   1
   4   2 -15 459.157 111.026   1
   4  -2 -15 134.547 63.6107   1
   4  -2 -15 185.421 66.0630   1
  11   3  -8 9351.61 402.452   1
 -11   3   8 7906.62 355.878   1
 -11  -3   8 8931.33 396.313   1
 -11  -3   8 9083.72 396.739   1
  11  -3  -8 7575.68 354.985   1
   5  -2 -15 1379.77 116.683   1
   5  -2 -15 1623.86 125.921   1
  -5   2  15 1641.33 120.874   1
  -5   2  15 1757.92 118.305   1
  -5  -2  15 2000.85 156.587   1
  -5  -2  15 1903.25 159.986   1
   5   2 -15 2184.35 174.865   1
  -8   0  15 197.678 101.736   1
   8   0 -15 157.224 105.949   1
  -8   0  15 117.353 115.752   1
 -12   0   1 92.5871 56.3551   1
  12   0  -1 159.795 102.882   1
  12   0  -1 244.508 95.9934   1
 -12   0   1 86.3845 96.0052   1
  -3   3  14 520.597 62.2916   1
   3  -3 -14 456.728 58.5696   1
   3   3 -14 302.274 128.694   1
  -3   3  14 488.468 57.3354   1
  -3  -3  14 189.801 103.963   1
  -3  -3  14 223.206 85.1381   1
  -3  -3  14 301.519 117.325   1
   3  -3 -14 536.762 60.9896   1
  -1   6  -6 6729.04 347.963   1
  -1   6  -6 7162.89 380.456   1
   1  -6   6 7397.99 360.990   1
   1   6   6 8254.40 320.528   1
   1   6   6 7995.25 386.997   1
  -1  -6  -6 8549.49 353.928   1
 -12  -2   7 21666.1 806.629   1
 -12   2   7 23695.0 867.539   1
  12   2  -7 20741.0 784.806   1
 -12  -2   7 21619.4 822.361   1
 -12   2   7 22031.3 794.818   1
  12  -2  -7 22852.2 850.996   1
  12   2  -4 132.802 88.1007   1
 -12   2   4 88.7868 104.678   1
 -12   2   4 132.227 76.5427   1
 -12  -2   4 156.980 90.2899   1
  12  -2  -4 106.990 100.786   1
 -12  -2   4 46.8740 96.8103   1
  12  -2  -4 82.3017 107.091   1
 -11   3   2 2082.73 189.303   1
 -11  -3   2 2640.82 169.303   1
  11  -3  -2 1913.78 186.772   1
  11   3  -2 2536.71 166.245   1
  11  -3  -2 2220.10 191.940   1
  -3   6   7 13023.3 514.717   1
   3   6  -7 16208.4 633.094   1
   3   6  -7 15430.0 594.523   1
  -3   6   7 14283.3 539.327   1
  -3  -6   7 15537.5 609.395   1
   3  -6  -7 14202.3 541.799   1
 -11  -1  12 4455.82 251.308   1
 -11  -1  12 4520.41 265.727   1
 -11   1  12 5819.78 261.502   1
 -11   1  12 4773.66 262.075   1
  11   1 -12 4192.06 250.264   1
  11  -1 -12 5077.79 267.781   1
  11  -1 -12 4695.17 215.773   1
   0  -2  14 5540.09 251.796   1
   0   2 -14 5597.51 257.021   1
   0  -2  14 5669.11 256.992   1
  -1  -6   7 7254.81 353.604   1
  -1   6   7 7438.62 309.438   1
   1   6  -7 8250.03 358.413   1
  -1   6   7 6577.91 315.885   1
   1  -6  -7 7007.25 305.634   1
   1   6  -7 7896.65 376.395   1
  -8  -3  13 -20.162 101.944   1
  -8  -3  13 183.757 87.5068   1
  -8   3  13 31.3275 76.2835   1
   8   3 -13 -1.5436 94.4933   1
   8   3 -13 63.0432 63.8512   1
   8  -3 -13 18.1958 76.5430   1
   8  -3 -13 75.2760 79.8488   1
   2  -3  12 1559.38 156.804   1
  -2   3 -12 1596.11 161.306   1
   4  -4   9 1484.34 166.788   1
   4   4   9 1135.44 107.944   1
  -4   4  -9 1260.80 144.764   1
  -8  -4  11 125.279 123.289   1
  -8   4  11 296.924 101.007   1
   8   4 -11 187.120 90.4873   1
   8   4 -11 180.137 122.977   1
   8  -4 -11 231.846 111.344   1
  -8  -4  11 161.270 115.582   1
  -1   1 -14 2341.03 141.683   1
  -1   1 -14 2192.82 136.127   1
   1  -1  14 2076.15 151.522   1
   1  -1  14 2165.92 144.686   1
   1  -1  14 2212.01 138.777   1
   1   1  14 2249.96 142.465   1
   7   0   9 2170.32 170.528   1
   7   0   9 1790.49 126.713   1
  -7   0  -9 1458.50 129.933   1
  -7   0  -9 1864.96 129.009   1
   7   0   9 1550.10 129.042   1
  -5   1 -11 1631.09 120.920   1
  -5  -1 -11 1428.24 75.4193   1
   5   1  11 1471.35 77.1955   1
   5   1  11 1351.41 83.2564   1
   5   1  11 1435.89 94.3927   1
  -5  -1 -11 1427.06 74.1175   1
   8   5  -7 10806.5 462.387   1
  -8  -5   7 10765.0 454.112   1
   8   5  -7 9819.16 415.861   1
   8  -5  -7 9704.69 411.305   1
  -8   5   7 10045.5 438.542   1
  -5  -6  -1 6148.23 286.684   1
   5  -6   1 5539.81 300.680   1
  -5   6  -1 6316.65 307.813   1
  -5   6  -1 5869.38 300.460   1
   5   6   1 6123.04 323.347   1
   5  -6   1 5792.67 274.930   1
   5   6   1 5647.65 286.275   1
  10   4  -7 15310.5 601.518   1
 -10  -4   7 15400.8 596.154   1
  10  -4  -7 14883.5 587.009   1
 -10   4   7 14717.5 573.546   1
   5   4   8 6246.02 219.639   1
   5   4   8 6117.35 213.599   1
   5   4   8 6250.88 249.674   1
   5  -4   8 7458.41 351.072   1
  -5  -4  -8 6224.23 212.006   1
  -5   4  -8 7724.34 358.095   1
  -5  -4  -8 5915.44 210.679   1
   4  -6   3 3133.02 196.213   1
  -4   6  -3 2915.57 222.949   1
   4   6   3 2409.49 170.648   1
   4   6   3 2360.12 217.036   1
   4  -6   3 3022.17 226.719   1
  -4   6  -3 3282.77 219.496   1
  -4  -6  -3 2350.37 175.282   1
   6   1  10 2087.20 115.362   1
   6   1  10 2183.82 110.189   1
   6   1  10 2154.93 95.4558   1
  -6   1 -10 2034.74 144.253   1
   6  -1  10 1891.70 143.234   1
  -6  -1 -10 1935.67 108.290   1
   6   1  10 2189.14 164.183   1
  -6  -1 -10 2255.74 107.775   1
 -11  -2  11 223.657 114.503   1
 -11  -2  11 -50.081 109.866   1
  11  -2 -11 221.259 108.970   1
  11   2 -11 112.478 110.572   1
 -11   2  11 128.104 95.7935   1
  -3  -2  15 9832.95 423.316   1
   3  -2 -15 10664.3 348.713   1
   3  -2 -15 11030.5 352.386   1
   3   2 -15 10263.0 415.349   1
  -3  -2  15 9553.40 331.587   1
  -3   2  15 11548.7 361.563   1
  -3  -2  15 10648.1 413.348   1
  -3   2  15 11041.7 356.814   1
  -9   1  -6 2054.36 156.514   1
   9  -1   6 2122.65 180.447   1
  -9  -1  -6 2341.95 156.534   1
   9   1   6 2134.84 167.064   1
   9   1   6 2395.91 156.762   1
   9  -1   6 2130.65 158.938   1
   6  -2 -15 -40.447 80.2876   1
   6   2 -15 100.692 109.965   1
  -6   2  15 91.8006 75.1688   1
  -6  -2  15 191.340 94.6594   1
  -6  -2  15 251.479 99.5422   1
 -10  -4   2 211.741 115.025   1
  10   4  -2 250.014 99.7680   1
 -10   4   2 269.227 119.608   1
  10  -4  -2 196.501 113.547   1
  10  -4  -2 342.945 121.392   1
   6  -3 -14 9491.07 350.573   1
  -6  -3  14 8502.26 357.896   1
   6   3 -14 7977.20 358.876   1
  -6  -3  14 7727.63 355.914   1
  -6   3  14 8690.14 293.227   1
  -6   3  14 9399.54 344.659   1
  11   1   2 1903.70 161.334   1
  11  -1   2 2138.27 154.203   1
  11  -1   2 1877.12 173.453   1
  11   1   2 1944.05 161.037   1
 -11   1  -2 1718.26 178.114   1
 -11  -1  -2 1879.88 160.148   1
  -1  -1  15 2831.98 180.607   1
  -1  -1  15 3005.35 158.039   1
  -1   1  15 2146.08 95.0175   1
  -1  -1  15 2699.63 142.377   1
  -1   1  15 2263.50 100.948   1
   1  -1 -15 2054.71 91.6071   1
   1   1 -15 3087.41 160.474   1
  -1   1  15 2471.65 166.478   1
 -10  -3  11 2678.26 224.394   1
 -10  -3  11 2623.90 201.712   1
 -10   3  11 2889.04 194.305   1
  10  -3 -11 3163.07 199.064   1
  10   3 -11 3088.38 218.208   1
  12   1 -10 1801.25 184.010   1
 -12   1  10 1529.96 158.604   1
 -12  -1  10 1560.33 209.802   1
 -12   1  10 1659.42 170.289   1
  12  -1 -10 1984.44 183.490   1
 -12  -1  10 1868.45 177.891   1
  -7   5   9 7497.04 318.907   1
   7   5  -9 8267.46 399.035   1
   7  -5  -9 8183.82 368.187   1
   7   5  -9 9767.42 403.461   1
  -7  -5   9 9289.21 410.331   1
  -7   5   9 7842.53 346.000   1
   3   4  10 289.413 79.3782   1
   3  -4  10 364.027 102.852   1
  -3   4 -10 322.071 107.347   1
  -9   3  -4 217.770 69.8621   1
   9   3   4 741.695 91.7960   1
  -9   3  -4 312.602 141.143   1
  -9  -3  -4 877.571 96.9890   1
   9  -3   4 443.929 136.019   1
   9   3   4 456.526 82.9090   1
   9   3   4 930.110 113.612   1
   9  -3   4 233.309 117.323   1
   4  -1  12 685.801 92.8833   1
   4   1  12 372.014 82.4669   1
  -4   1 -12 748.626 98.9111   1
   4  -1  12 751.072 81.2495   1
   4  -1  12 787.920 101.848   1
 -12   2   8 17031.7 657.869   1
 -12   2   8 16341.8 653.601   1
  12   2  -8 18719.6 718.499   1
 -12  -2   8 17925.4 684.128   1
  12  -2  -8 16989.1 686.327   1
 -12  -2   8 19003.8 721.673   1
  -5   6   6 5163.94 261.875   1
  -5  -6   6 4438.57 273.582   1
   5   6  -6 4370.24 290.364   1
   5  -6  -6 4794.21 256.278   1
   5   6  -6 4590.91 301.590   1
  -5   6   6 4949.24 270.048   1
   2  -2  13 3052.71 185.120   1
   2  -2  13 3026.80 183.330   1
  -2   2 -13 3224.79 206.917   1
   8   5   0 1020.74 135.189   1
  -8  -5   0 737.330 130.710   1
   8  -5   0 867.107 148.491   1
   8  -5   0 734.476 150.071   1
  -8   5   0 678.227 149.874   1
  11  -2   1 453.033 130.333   1
  11   2   1 398.949 103.778   1
  11   2   1 276.100 101.016   1
 -11   2  -1 447.070 57.1399   1
 -11   2  -1 422.337 116.468   1
  11   2   1 228.766 70.5507   1
  11  -2   1 415.417 111.430   1
   8  -1 -15 8971.31 374.123   1
   8   1 -15 8477.08 385.121   1
  -8   1  15 8388.82 354.942   1
  -8   1  15 8994.53 397.390   1
  -8  -1  15 8426.18 387.181   1
  -8  -1  15 9205.00 385.608   1
 -12   1   1 11322.9 465.587   1
  12  -1  -1 11502.2 471.872   1
  12  -1  -1 11131.3 446.104   1
  12   1  -1 10898.9 430.586   1
 -12  -1   1 11262.5 442.698   1
  12   1  -1 11196.5 451.871   1
  -4   5  -7 6672.48 324.395   1
  -4  -5  -7 4675.10 207.365   1
  -4  -5  -7 5007.92 217.760   1
   4  -5   7 6975.52 315.408   1
   4   5   7 4825.10 206.203   1
   4   5   7 4920.79 175.438   1
  -7   4  12 7069.08 269.622   1
  -7   4  12 7154.87 290.196   1
   7  -4 -12 7063.03 299.896   1
  -7  -4  12 6688.01 330.661   1
   7   4 -12 5947.13 315.751   1
   7   4 -12 6089.11 278.522   1
  -7  -4  12 6117.40 308.637   1
  12  -2  -3 110.610 103.976   1
 -12   2   3 84.1392 73.0701   1
 -12   2   3 -13.673 99.5052   1
  12   2  -3 51.9364 90.8532   1
  12   2  -3 60.7831 86.3750   1
  12  -2  -3 78.1725 98.3653   1
  -9  -4  10 3483.15 230.441   1
  -9   4  10 4092.78 211.341   1
   9   4 -10 3776.29 245.022   1
   9  -4 -10 4109.40 248.502   1
   9   4 -10 3238.87 210.768   1
  -9  -4  10 3224.05 240.246   1
   0   5  10 720.656 75.7455   1
   0   5  10 755.711 82.8811   1
   0   5  10 999.424 146.498   1
   0  -5 -10 538.343 77.3520   1
   0   5 -10 814.341 141.165   1
   0  -5  10 933.928 132.867   1
   3  -5   8 12100.4 508.581   1
   3   5   8 15690.3 497.263   1
  -3  -5  -8 13537.3 447.719   1
   3   5   8 14581.3 479.310   1
   3   5   8 13801.9 418.759   1
  -3   5  -8 11680.9 503.861   1
   4  -6  -7 34.8125 104.602   1
  -4  -6   7 140.345 116.676   1
  -4   6   7 105.927 101.361   1
  -4   6   7 52.7911 97.2664   1
   4   6  -7 102.617 119.746   1
   4   6  -7 1.16970 121.842   1
   3   0  13 29602.1 976.428   1
   3   0  13 30366.2 1009.38   1
  -3   0 -13 30112.5 991.541   1
  -3   0 -13 30265.7 952.524   1
  -2  -3  14 7532.17 330.810   1
  -2  -3  14 6886.28 288.581   1
  -2  -3  14 7201.13 304.769   1
  -2   3  14 6071.57 248.066   1
   2   3 -14 8123.90 348.886   1
   8   2   7 30605.8 1094.60   1
   8  -2   7 30020.4 1068.96   1
   8  -2   7 28329.5 1078.08   1
  -8  -2  -7 30537.4 1022.14   1
  -8  -2  -7 29615.9 1041.31   1
  -8   2  -7 30527.4 1088.61   1
   8   2   7 29980.0 1058.85   1
   8   2   7 30985.1 1019.78   1
   8   2   7 28684.0 941.933   1
   6  -5 -10 4639.63 235.230   1
  -6   5  10 4625.25 234.360   1
  -6   5  10 4187.84 238.749   1
   6   5 -10 4299.36 245.943   1
  -6  -5  10 4525.78 260.891   1
   6   5 -10 4199.57 268.446   1
   6   6  -3 354.863 138.623   1
   6   6  -3 608.861 124.330   1
  -6   6   3 305.979 126.386   1
  -6   6   3 318.441 126.142   1
   6  -6  -3 490.979 111.244   1
   6  -6  -3 298.740 129.778   1
  -6  -6   3 950.849 122.688   1
  -6  -6   3 351.476 100.118   1
   6   4   7 8895.20 303.935   1
   6  -4   7 7272.91 332.710   1
   6   4   7 8585.07 300.298   1
  -6   4  -7 7270.20 376.444   1
  -6  -4  -7 7869.30 285.206   1
   6  -4   7 7420.21 368.000   1
   6   4   7 8239.12 308.988   1
  -6   6   2 1285.28 161.049   1
   6   6  -2 1117.12 167.907   1
   6  -6  -2 1053.67 159.575   1
   6  -6  -2 1332.36 131.122   1
   6   6  -2 1258.78 144.717   1
  -6  -6   2 1172.70 113.363   1
  -6   6   2 1144.58 157.716   1
  -6  -6   2 1778.64 174.291   1
   0   4  12 102.873 97.1125   1
   0   4 -12 200.324 113.533   1
   0  -4  12 157.644 115.927   1
   0   6   7 15868.2 544.246   1
   0  -6   7 13851.3 571.610   1
   0   6  -7 12896.4 547.323   1
   0  -6  -7 16286.9 588.404   1
   0   6   7 15814.8 595.313   1
   0   6  -7 12521.6 526.064   1
   7  -1   9 4622.86 257.070   1
   7   1   9 3275.28 166.960   1
   7   1   9 3622.35 168.210   1
  -7  -1  -9 3576.57 159.543   1
  -7  -1  -9 3305.91 165.622   1
  -7   1  -9 4405.20 216.892   1
   7  -1   9 4256.46 200.030   1
   7   1   9 3778.73 245.158   1
 -11   3   9 2504.22 189.203   1
  11  -3  -9 2697.63 206.505   1
  11   3  -9 2785.91 212.359   1
 -11  -3   9 2330.92 214.786   1
 -11  -3   9 2435.32 204.889   1
  10   3   2 1073.50 106.248   1
  10   3   2 1060.47 129.864   1
  10   3   2 1208.48 129.971   1
 -10   3  -2 687.515 166.068   1
 -10  -3  -2 1053.09 125.294   1
  10  -3   2 1110.19 156.347   1
  10  -3   2 1093.18 142.257   1
   6   6  -4 1309.73 187.042   1
  -6   6   4 2138.34 181.969   1
  -6   6   4 2299.40 187.717   1
   6   6  -4 1951.57 182.190   1
  -6  -6   4 2167.48 180.017   1
   6  -6  -4 2210.58 163.196   1
   6  -6  -4 2536.17 225.130   1
  -5   0  16 362.719 106.415   1
  -5   0  16 45.2716 116.574   1
   5   0 -16 312.247 97.0670   1
  -8   4  -4 15593.0 611.980   1
  -8  -4  -4 15629.7 554.699   1
   8  -4   4 15490.7 619.292   1
   8  -4   4 15906.4 611.990   1
   8   4   4 15223.0 540.863   1
   8   4   4 15133.6 521.402   1
  -5  -5  -6 17010.2 578.863   1
  -5  -5  -6 16192.8 576.531   1
  -5   5  -6 17345.3 666.449   1
   5   5   6 17037.2 578.388   1
   5   5   6 16668.6 593.050   1
   5   5   6 16165.0 507.719   1
   5  -5   6 17952.2 694.663   1
   5  -5   6 17293.2 655.469   1
 -10  -4   8 1123.66 140.989   1
  10   4  -8 322.420 137.138   1
 -10  -4   8 476.910 138.364   1
  10  -4  -8 409.733 133.806   1
 -10   4   8 476.644 124.622   1
  11   3  -1 10451.6 432.521   1
  11   3  -1 11288.4 425.213   1
  11  -3  -1 11355.3 469.039   1
  11  -3  -1 10721.9 467.922   1
 -11   3   1 10941.5 457.837   1
 -11  -3   1 11131.7 454.103   1
  -4   0  16 17438.1 600.139   1
  -4   0  16 18995.0 707.870   1
   4   0 -16 16633.0 591.566   1
  -4   4  13 4408.73 192.954   1
   4  -4 -13 4062.88 188.162   1
   4  -4 -13 4370.02 196.328   1
  -4   4  13 4421.14 206.783   1
  -4   4  13 4254.05 208.078   1
   4   4 -13 5184.48 265.538   1
  -4  -4  13 5242.28 253.382   1
  -4  -4  13 4917.50 244.480   1
   4   4 -13 4906.36 228.677   1
 -10   0  14 13964.5 525.033   1
 -10   0  14 13452.1 545.910   1
  10   0 -14 14102.0 533.230   1
  10   0 -14 15300.9 495.556   1
   6  -6  -1 3891.89 211.896   1
   6   6  -1 3284.28 199.610   1
   6   6  -1 3040.88 229.034   1
   6  -6  -1 3624.21 237.627   1
  -6  -6   1 3019.34 190.265   1
  -6  -6   1 2917.48 160.564   1
  -6   6   1 4249.28 245.401   1
  -2   2  15 15929.9 462.251   1
  -2   2  15 15914.9 471.318   1
  -2  -2  15 15906.4 567.432   1
  -2  -2  15 15226.6 570.723   1
  -2  -2  15 14378.6 495.591   1
  -2   2  15 16052.0 529.426   1
   2  -2 -15 12542.5 363.998   1
   2   2 -15 15994.4 580.290   1
   9  -4   2 6862.24 334.449   1
  -9  -4  -2 6811.99 291.811   1
  -9   4  -2 7056.14 334.661   1
   9   4   2 6942.59 299.660   1
   9   4   2 6743.97 282.020   1
   8   3   6 11699.7 416.587   1
   8   3   6 12742.4 475.132   1
   8   3   6 11046.6 407.856   1
   8   3   6 11987.2 451.953   1
   8  -3   6 13130.0 545.631   1
  -8  -3  -6 11193.2 418.552   1
  -8  -3  -6 11870.4 425.595   1
  -8   3  -6 13955.2 445.865   1
  -8   3  -6 13638.6 546.761   1
   2   5   9 108.090 47.5582   1
   2   5   9 121.868 100.014   1
   2   5   9 73.6368 51.9177   1
  -2   5  -9 276.305 109.967   1
  -2  -5  -9 66.2807 52.7704   1
  -2  -5  -9 57.7461 49.6481   1
   2  -5   9 302.180 125.580   1
   2   5   9 78.8411 50.9693   1
   8   0   8 9728.07 401.576   1
   8   0   8 9372.89 353.201   1
  -8   0  -8 9736.29 370.542   1
  12   0 -11 6.82222 70.1349   1
 -12   0  11 79.6629 71.1518   1
 -12   0  11 -117.16 83.8658   1
  -3   4  13 1936.73 129.344   1
   3  -4 -13 1584.37 104.201   1
  -3   4  13 1569.58 104.745   1
  -3   4  13 1928.81 104.149   1
  -3  -4  13 2116.16 189.452   1
  -3  -4  13 2354.34 168.460   1
  -8  -5   8 684.293 144.961   1
   8   5  -8 614.365 144.001   1
   8   5  -8 831.685 145.680   1
  -8   5   8 155.404 111.452   1
   8  -5  -8 186.165 114.715   1
   7   2 -15 4631.67 269.830   1
  -7  -2  15 4447.77 248.194   1
  -7  -2  15 4258.74 255.266   1
   7  -2 -15 3664.00 223.168   1
   5  -6   2 9.95693 88.5874   1
   5  -6   2 156.467 104.875   1
   5   6   2 37.1893 110.080   1
  -5   6  -2 91.0506 104.119   1
  -5  -6  -2 21.3102 88.4561   1
 -10  -4   1 197.803 107.028   1
  10   4  -1 128.473 105.899   1
  10  -4  -1 122.723 113.072   1
  10  -4  -1 366.469 119.302   1
 -10   4   1 179.887 114.514   1
  -6   0  16 14629.4 531.897   1
  -6   0  16 13938.9 553.267   1
   6   0 -16 13656.7 522.641   1
  -3   5  11 5430.48 261.657   1
  -3   5  11 5121.78 236.227   1
  -3   5  11 5267.01 220.503   1
   3  -5 -11 5449.65 229.762   1
  -3   5  11 4923.48 200.843   1
  -3  -5  11 4806.25 265.244   1
   3   5 -11 5209.14 264.286   1
 -10  -2  13 256.287 127.191   1
 -10  -2  13 265.904 116.779   1
  10   2 -13 269.702 119.894   1
  10  -2 -13 199.241 92.9726   1
 -10   2  13 115.431 113.433   1
  10  -2 -13 191.394 100.777   1
   7  -5   3 1766.62 193.326   1
   7   5   3 1919.36 164.115   1
  -7   5  -3 2768.11 200.770   1
   7  -5   3 2060.02 184.493   1
  -7  -5  -3 1872.14 145.071   1
   2  -4  11 467.709 118.445   1
  -2   4 -11 514.657 141.739   1
  -3   1 -13 3706.36 178.681   1
   3  -1  13 3637.56 178.991   1
   3   1  13 3622.69 163.155   1
   3  -1  13 3451.49 185.588   1
   3  -1  13 3650.16 168.232   1
  -5   4  13 7791.52 305.010   1
   5  -4 -13 7699.55 303.234   1
  -5   4  13 7803.15 304.805   1
  -5  -4  13 7914.54 347.505   1
  -5  -4  13 7113.03 316.820   1
   5   4 -13 7557.53 359.970   1
   5   4 -13 7819.21 315.896   1
  12   0   0 -24.295 94.7798   1
 -12   0   0 20.6717 97.9309   1
  12   0   0 96.3543 78.8672   1
  -3  -6  -5 54.6825 77.5025   1
  -3   6  -5 315.657 109.710   1
  -3   6  -5 223.553 109.606   1
   3   6   5 -38.168 85.9638   1
   3   6   5 -45.888 107.674   1
   3  -6   5 79.1232 110.120   1
   4  -5 -11 99.4357 83.1248   1
  -4   5  11 140.556 79.6568   1
  -4   5  11 102.718 70.0656   1
  -4   5  11 67.3097 88.8449   1
   4   5 -11 188.669 118.238   1
  -4  -5  11 216.148 108.513   1
   4   5 -11 187.398 99.3107   1
 -12  -2   9 63857.9 2408.03   1
 -12  -2   9 61474.9 2297.94   1
  12   2  -9 58885.7 2216.40   1
  12  -2  -9 63219.5 2347.32   1
 -12   2   9 63894.5 2364.64   1
 -12   2   9 63358.6 2316.09   1
   6  -6  -5 1755.49 150.743   1
   6  -6  -5 1873.38 211.319   1
   6   6  -5 1815.40 181.396   1
   6   6  -5 1646.56 179.348   1
  -6   6   5 1649.94 171.915   1
  -6  -6   5 1610.44 178.960   1
  -6   6   5 1769.31 168.263   1
  -2  -6  -6 1006.29 106.836   1
   2  -6   6 352.682 143.542   1
   2   6   6 1042.21 116.810   1
  -2   6  -6 345.368 137.091   1
   2   6   6 945.962 145.266   1
  -2   6  -6 320.614 142.569   1
  -7   3  14 1613.17 131.086   1
  -7  -3  14 1744.45 155.433   1
   7  -3 -14 1477.97 135.859   1
   7   3 -14 1684.81 205.885   1
  -7  -3  14 1898.91 180.179   1
   9   2 -14 5703.17 215.223   1
   9  -2 -14 5952.98 294.866   1
   9   2 -14 5982.22 299.536   1
  -9  -2  14 5623.53 277.884   1
   9  -2 -14 5431.51 221.670   1
  -9   2  14 5994.78 283.144   1
  -9  -2  14 6033.15 315.078   1
 -12   2   2 6184.76 248.154   1
 -12   2   2 6675.37 316.876   1
  12   2  -2 6044.87 289.519   1
  12   2  -2 6314.45 280.948   1
  12  -2  -2 6146.40 306.736   1
  12  -2  -2 6551.46 329.050   1
 -11   0  13 11204.9 471.292   1
  11   0 -13 11550.9 466.063   1
   0   0  15 78.9235 66.4442   1
   0   0  15 35.1324 48.1441   1
   0   0 -15 20.7458 44.4955   1
   0   0  15 30.0021 49.3983   1
   0   0 -15 28.1338 45.7354   1
  -1   3 -13 5959.43 291.568   1
   1  -3  13 5953.49 287.040   1
   1  -3  13 5566.22 257.996   1
   3   0 -16 87.9866 71.3871   1
  -3   0  16 52.3150 64.9543   1
  -3   0  16 196.397 101.270   1
  -3   0  16 47.8881 67.4354   1
   2  -5 -11 7837.06 287.225   1
  -2   5  11 7537.19 270.522   1
  -2   5  11 7218.01 315.738   1
  -2   5  11 7321.99 291.024   1
   2  -5 -11 7061.36 289.947   1
   2   5 -11 7579.90 333.105   1
   2   5 -11 7267.68 348.583   1
  -2  -5  11 7716.34 348.663   1
   5  -1 -16 8401.79 340.362   1
  -5  -1  16 8675.60 384.567   1
  -5  -1  16 9372.06 377.123   1
  -5   1  16 8950.12 385.783   1
  -5   1  16 8531.46 323.484   1
   5   1 -16 9533.52 392.092   1
  -9   0  15 960.695 138.608   1
  -9   0  15 711.754 153.322   1
   9   0 -15 773.965 144.486   1
   2  -6  -8 52.0678 94.8996   1
  -2   6   8 100.040 105.573   1
  -2   6   8 82.4627 81.3268   1
   2   6  -8 -110.13 109.967   1
   2   6  -8 95.2116 96.6881   1
  -2  -6   8 54.2863 104.101   1
  -4   1  16 7106.78 293.506   1
  -4  -1  16 9322.48 349.637   1
   4   1 -16 9695.55 401.222   1
   4  -1 -16 7245.05 292.157   1
   4  -1 -16 7058.93 295.682   1
  -4   1  16 7882.01 345.012   1
  -4  -1  16 8795.52 400.222   1
  -4   1  16 7310.06 277.962   1
   5  -6  -7 4730.08 276.696   1
   5   6  -7 4512.39 297.327   1
  -5   6   7 4839.85 291.385   1
  -5   6   7 4338.41 205.976   1
  -5   6   7 5019.62 270.867   1
  -5  -6   7 4275.24 275.272   1
   5   6  -7 3917.28 284.465   1
  13   0  -6 53.8232 91.6227   1
 -13   0   6 131.995 96.7820   1
 -13   0   6 -40.068 89.2103   1
  -8  -5  -1 57.6849 59.8796   1
   8   5   1 -31.974 61.3543   1
  -8   5  -1 -57.596 75.4141   1
   8  -5   1 -30.223 74.0982   1
   8  -5   1 30.2702 63.8727   1
  10   0   5 141.760 93.2367   1
 -10   0  -5 107.093 93.9184   1
  10   0   5 143.220 102.406   1
  -4  -6  -4 32865.6 1149.16   1
  -4   6  -4 32642.3 1219.14   1
   4  -6   4 31379.0 1145.66   1
   4   6   4 32845.9 1223.94   1
   4   6   4 31303.2 1100.77   1
   4  -6   4 32994.7 1230.87   1
  10   1 -14 5662.16 281.104   1
  10  -1 -14 5907.95 228.070   1
  10  -1 -14 5524.69 298.344   1
 -10   1  14 5868.22 309.606   1
 -10  -1  14 5250.36 300.135   1
 -10  -1  14 5279.73 267.556   1
 -10   1  14 5731.00 261.918   1
  -3   6   8 461.309 119.675   1
  -3   6   8 264.626 143.259   1
   3  -6  -8 497.325 121.397   1
  -3  -6   8 622.586 151.513   1
   3   6  -8 702.031 153.247   1
   3   6  -8 726.413 158.955   1
  -6  -6   0 4798.61 263.926   1
   6  -6   0 4932.82 282.895   1
  -6   6   0 5348.03 282.120   1
  -6  -6   0 4579.92 188.724   1
   6   6   0 4620.19 261.451   1
   6   6   0 4410.11 281.358   1
   6  -6   0 5287.37 253.883   1
   7  -4   6 6994.91 319.601   1
  -7  -4  -6 5268.29 227.994   1
  -7  -4  -6 5836.89 246.484   1
  -7   4  -6 6798.28 362.164   1
   7   4   6 5891.01 254.501   1
   7   4   6 5496.12 241.642   1
   7   4   6 5344.10 227.408   1
   7  -4   6 6592.27 342.698   1
  -2   4  13 9614.09 309.419   1
  -2   4  13 10860.5 421.129   1
  -2   4  13 10787.0 330.853   1
   2  -4 -13 11221.8 344.323   1
   2  -4 -13 9510.56 302.928   1
  -2  -4  13 12178.9 488.598   1
  -2  -4  13 12643.9 472.545   1
   2   4 -13 12563.3 506.495   1
  -1  -3  14 1349.62 148.604   1
  -1   3  14 806.716 117.639   1
   1   3 -14 1562.99 150.349   1
  -1  -3  14 1257.51 148.243   1
   8   1   8 114.083 109.422   1
  -8  -1  -8 75.6404 68.2302   1
   8  -1   8 105.748 84.7953   1
   8  -1   8 161.290 111.829   1
   8   1   8 64.1989 81.8031   1
   8   1   8 182.309 68.5205   1
  -8   1  -8 49.8698 82.1463   1
   9   5  -4 274.142 125.254   1
  -9  -5   4 54.6793 101.300   1
   9  -5  -4 135.833 112.972   1
   9  -5  -4 134.348 114.106   1
  -9   5   4 107.012 113.557   1
  10  -2   4 1056.00 137.667   1
  10  -2   4 464.490 139.766   1
  10   2   4 566.744 110.415   1
 -10   2  -4 449.875 112.104   1
  10   2   4 603.801 113.604   1
  10   2   4 574.130 61.3590   1
   6  -5   5 1030.02 180.144   1
  -6  -5  -5 1202.32 118.846   1
  -6   5  -5 1046.66 163.513   1
   6   5   5 1300.55 118.112   1
   6   5   5 1023.92 87.6606   1
   6  -5   5 1193.62 163.943   1
 -11   0  -3 116.067 96.1865   1
  11   0   3 74.2753 96.1400   1
  11   0   3 64.3673 90.3234   1
 -12   1  11 16543.1 635.281   1
 -12  -1  11 16653.6 654.794   1
  12  -1 -11 16661.3 647.785   1
 -12  -1  11 16694.9 650.660   1
 -12   1  11 16747.8 634.365   1
  12   1 -11 17488.6 678.533   1
 -13   0   7 1073.82 154.564   1
  13   0  -7 1225.60 158.504   1
 -13   0   7 1194.11 158.158   1
  13   0  -5 9943.60 425.366   1
 -13   0   5 9701.74 412.835   1
 -13   0   5 9797.74 422.137   1
  13   0  -5 10496.2 448.242   1
  -5   5  11 1800.41 167.482   1
  -5   5  11 1767.30 157.336   1
   5  -5 -11 2024.89 176.068   1
   5   5 -11 2999.55 195.680   1
  -5  -5  11 3201.74 207.702   1
   5   5 -11 3132.94 225.423   1
   5  -3  10 14190.2 574.643   1
   5   3  10 16189.2 582.991   1
  -5   3 -10 14069.7 564.371   1
  -5   3 -10 13409.0 491.255   1
  -6  -1  16 9870.47 417.819   1
  -6  -1  16 10404.9 408.651   1
  -6   1  16 8670.92 388.617   1
   6  -1 -16 8374.99 356.624   1
  -6   1  16 8416.42 350.522   1
   6   1 -16 10775.8 425.598   1
  -1   6  -7 3364.49 256.518   1
   1  -6   7 3395.67 246.330   1
  -1  -6  -7 3568.07 199.204   1
  -1   6  -7 3206.17 243.392   1
   1   6   7 4181.48 272.542   1
   1   6   7 3805.61 198.927   1
   2   0  14 1993.40 108.667   1
  -2   0 -14 1741.26 96.9018   1
  -2   0 -14 1952.11 102.193   1
   2   0  14 1985.69 128.213   1
   2   0  14 1906.20 104.828   1
  -9  -5   5 4415.10 258.460   1
  -9   5   5 4538.60 264.258   1
   9  -5  -5 4830.39 270.448   1
   9  -5  -5 4397.22 267.414   1
 -12   1   0 18993.5 630.904   1
  12  -1   0 19288.3 711.516   1
 -12  -1   0 20466.6 753.860   1
  12  -1   0 19400.1 746.145   1
  12   1   0 19797.7 709.487   1
  12   1   0 19098.6 715.437   1
 -12   1   0 19119.7 712.349   1
   7   0 -16 59.1373 89.3782   1
  -7   0  16 70.3708 88.4758   1
  -7   0  16 -57.221 104.139   1
   9   5  -3 1083.75 136.174   1
  -9  -5   3 650.713 166.360   1
   9  -5  -3 1384.70 172.311   1
  -9   5   3 1522.34 168.745   1
   9  -5  -3 1303.31 166.683   1
  -6   4  13 4653.75 230.338   1
  -6   4  13 4293.12 207.639   1
   6  -4 -13 4550.38 221.937   1
  -6  -4  13 5098.55 263.908   1
   6   4 -13 4762.32 231.472   1
   6   4 -13 5021.51 278.884   1
  -6  -4  13 4741.27 276.807   1
 -11   2  12 12259.9 506.818   1
  11  -2 -12 12760.5 547.742   1
  11   2 -12 14147.8 560.050   1
 -11   2  12 13012.2 506.298   1
 -11  -2  12 13588.1 566.388   1
 -11  -2  12 14008.2 559.852   1
  11   3 -10 374.918 127.220   1
 -11   3  10 172.830 112.097   1
  11  -3 -10 98.6720 117.131   1
 -11  -3  10 547.129 133.335   1
 -11  -3  10 91.7833 137.240   1
   1  -6  -8 1436.95 146.430   1
  -1   6   8 1389.37 149.864   1
  -1   6   8 1300.61 138.807   1
  -1  -6   8 1648.41 188.512   1
   1   6  -8 1628.26 199.796   1
   1   6  -8 1732.18 187.625   1
 -10  -4   9 219.927 147.445   1
 -10  -4   9 305.421 141.528   1
  10   4  -9 372.188 144.225   1
 -10   4   9 1166.53 131.894   1
  10  -4  -9 918.052 132.917   1
   4  -3  11 6786.82 336.591   1
  -4   3 -11 6599.69 321.391   1
   1  -2  14 57.3490 74.6298   1
   1  -2  14 41.3328 76.2171   1
  -1   2 -14 41.9504 87.3526   1
  -9   3  13 2736.87 192.549   1
   9   3 -13 2293.03 152.963   1
   9  -3 -13 3264.59 207.732   1
   9   3 -13 2563.07 205.103   1
  -9  -3  13 2586.47 200.072   1
  -9  -3  13 2095.02 216.920   1
   1   5  10 39109.0 1313.00   1
  -1  -5 -10 37160.8 1253.16   1
   1   5  10 41317.1 1501.39   1
   1   5  10 38963.8 1262.71   1
   1  -5  10 41643.6 1504.14   1
  -1   5 -10 41767.9 1518.25   1
  -6   3  -9 21604.8 805.368   1
  -6  -3  -9 18524.3 561.008   1
   6  -3   9 22168.0 802.272   1
   6   3   9 22239.2 775.567   1
   6   3   9 21543.3 650.302   1
  -6   3  -9 20517.2 690.662   1
  -6  -3  -9 20618.6 614.463   1
   6   3   9 18829.6 578.424   1
  11  -1 -13 106.008 86.4163   1
 -11  -1  13 182.599 122.720   1
  11   1 -13 312.154 118.379   1
  11  -1 -13 281.663 129.261   1
 -11   1  13 137.499 118.883   1
 -11   1  13 151.382 100.796   1
 -11  -1  13 213.007 110.800   1
  -5   2 -11 10285.9 408.110   1
   5  -2  11 10309.1 421.836   1
  -6   6   6 3944.61 242.256   1
  -6   6   6 4014.65 260.631   1
  -6  -6   6 4562.69 276.499   1
   6  -6  -6 4413.03 245.552   1
   6   6  -6 4247.41 288.198   1
   6   6  -6 4715.75 281.404   1
   0  -1  15 50.3170 52.5819   1
   0   1 -15 20.6934 50.8085   1
   0   1  15 -5.0137 55.6567   1
   0  -1  15 -126.84 54.4846   1
   0  -1  15 46.9914 48.0986   1
   7  -5 -10 8025.11 363.480   1
  -7   5  10 7940.79 350.916   1
  -7   5  10 7445.86 339.343   1
   7   5 -10 9323.26 431.437   1
  -7  -5  10 9189.30 413.684   1
   7   5 -10 9239.49 394.104   1
   4  -6  -8 12929.8 510.683   1
  -4   6   8 12209.7 489.323   1
  -4   6   8 12088.2 489.892   1
  -4   6   8 12278.3 421.771   1
   4   6  -8 15778.7 589.981   1
  -4  -6   8 16485.7 643.190   1
   4   6  -8 14095.9 548.953   1
  -3   1  16 761.647 84.2245   1
  -3   1  16 833.797 84.3417   1
  -3   1  16 1069.63 150.304   1
  -3  -1  16 533.760 140.502   1
  -3   1  16 736.346 56.2139   1
   3   1 -16 539.964 130.328   1
   3  -1 -16 712.193 80.1984   1
  -3  -1  16 798.230 117.498   1
  -6  -2 -10 1917.39 84.2624   1
  -6  -2 -10 2109.67 86.3336   1
  -6   2 -10 2582.32 173.699   1
   6   2  10 2027.10 89.3402   1
   6   2  10 2535.10 184.152   1
   6  -2  10 2558.11 172.157   1
  13   0  -8 -2.5708 93.2374   1
 -13   0   8 -10.364 92.0620   1
 -13   0   8 -61.449 96.5057   1
 -13   0   4 -59.739 88.9889   1
  13   0  -4 53.3673 94.4590   1
  13   0  -4 12.9193 86.4506   1
 -13   0   4 52.7608 87.8583   1
   8  -4 -12 12099.1 475.310   1
  -8   4  12 12126.4 464.010   1
  -8  -4  12 11976.6 522.407   1
   8   4 -12 12341.9 517.190   1
   8   4 -12 11806.8 458.729   1
  -8  -4  12 12215.4 499.025   1
   9   5  -6 268.206 107.590   1
  -9  -5   6 311.092 117.064   1
  -9   5   6 -27.349 107.524   1
   9  -5  -6 191.030 110.773   1
   9  -5  -6 112.141 109.815   1
   9   2   6 10924.6 445.090   1
   9  -2   6 9373.86 410.112   1
   9   2   6 10243.6 321.022   1
   9   2   6 11900.9 414.302   1
  -9   2  -6 8954.32 404.986   1
   9  -2   6 9249.36 423.795   1
  11   3   0 1807.26 166.056   1
  11   3   0 1895.89 166.085   1
 -11   3   0 1157.98 167.029   1
  11  -3   0 1713.38 188.410   1
  11  -3   0 1344.84 165.923   1
 -11  -3   0 1923.95 168.343   1
  -9  -1  15 7622.34 375.149   1
  -9   1  15 8635.15 393.155   1
   9   1 -15 8548.97 392.352   1
   9  -1 -15 9168.23 396.660   1
  -9   1  15 9162.32 375.797   1
  -9  -1  15 9055.33 399.927   1
  -1   5  11 1739.30 162.572   1
   1  -5 -11 1346.91 99.7652   1
  -1   5  11 1669.15 100.868   1
  -1   5  11 1486.54 105.940   1
   1   5 -11 1780.38 178.476   1
  -1  -5  11 2335.96 176.024   1
  10  -3 -12 24966.8 924.311   1
  10   3 -12 25533.8 950.644   1
 -10  -3  12 24028.3 945.146   1
 -10  -3  12 25853.5 947.989   1
 -10   3  12 24116.9 864.357   1
 -13  -1   6 26710.0 973.280   1
 -13  -1   6 25676.3 971.706   1
 -13   1   6 26629.4 986.325   1
 -13   1   6 25572.4 916.793   1
  13   1  -6 25876.5 950.976   1
  13  -1  -6 26255.4 994.442   1
  13  -1  -6 25639.7 958.457   1
 -10  -1  -5 15744.2 559.893   1
  10  -1   5 15003.4 560.837   1
  10   1   5 15768.9 556.280   1
  10   1   5 14284.3 550.300   1
  10  -1   5 14719.5 584.917   1
 -10   1  -5 15739.0 581.631   1
 -11   2  -2 1634.53 154.709   1
 -11   2  -2 1279.87 75.1290   1
  11   2   2 1497.01 162.834   1
  11   2   2 1233.71 89.4436   1
  11  -2   2 1751.34 149.191   1
  11  -2   2 1495.69 176.783   1
  11   2   2 1309.03 136.139   1
   9   4 -11 57.7911 98.9439   1
  -9  -4  11 -86.079 116.360   1
   9  -4 -11 0.73492 82.8406   1
   9   4 -11 87.7432 102.234   1
  -9  -4  11 266.830 100.267   1
  -9   4  11 -8.0609 95.4643   1
  10   4   0 1610.99 158.278   1
 -10  -4   0 1735.05 162.695   1
 -10   4   0 1775.29 177.746   1
  10  -4   0 1530.85 172.877   1
  10  -4   0 1857.73 177.898   1
  -1  -2  15 9127.97 376.656   1
  -1  -2  15 8646.96 368.367   1
  -1  -2  15 7988.88 319.826   1
   1   2 -15 8456.92 345.632   1
  12  -2 -10 31211.0 1136.80   1
 -12   2  10 29722.5 1092.47   1
 -12  -2  10 27692.9 1071.89   1
 -12   2  10 29088.5 1097.22   1
  12   2 -10 28542.2 1088.18   1
 -12  -2  10 27576.3 1046.29   1
   9   5  -2 1029.39 127.938   1
  -9  -5   2 1049.26 154.035   1
   9  -5  -2 913.818 159.340   1
  -9   5   2 908.937 149.392   1
   9  -5  -2 841.701 159.425   1
  -4   2 -12 32.6494 94.7669   1
   4  -2  12 68.0762 81.0487   1
  11  -1   3 194.619 103.340   1
  11  -1   3 202.151 102.064   1
 -11  -1  -3 74.1547 88.2488   1
 -11   1  -3 142.456 104.435   1
  11   1   3 37.9514 92.5419   1
  11   1   3 -12.020 86.0953   1
 -13   1   7 5548.11 277.534   1
 -13  -1   7 5224.29 286.048   1
 -13  -1   7 5417.50 323.818   1
 -13   1   7 5675.84 304.876   1
  13   1  -7 5081.84 277.517   1
  13  -1  -7 5174.81 296.270   1
 -13   1   5 343.224 137.138   1
 -13   1   5 458.013 128.067   1
 -13  -1   5 431.705 139.456   1
 -13  -1   5 378.614 129.661   1
  13  -1  -5 583.575 142.287   1
  13  -1  -5 587.439 133.799   1
  13   1  -5 367.697 123.183   1
  -8  -2  15 15268.7 599.110   1
  -8  -2  15 14688.6 604.301   1
  -8   2  15 15352.5 557.120   1
   8   2 -15 15228.5 610.794   1
   8  -2 -15 15104.3 561.070   1
   2   0 -16 2250.43 138.781   1
  -2   0  16 2285.76 139.862   1
  -2   0  16 2172.60 106.093   1
  -2   0  16 2354.60 135.497   1
  -2   0  16 2398.78 184.325   1
   2   0 -16 2165.56 134.346   1
   1  -4  12 41463.8 1492.71   1
  -1   4 -12 42453.2 1530.80   1
   8   5  -9 39312.0 1434.25   1
   8   5  -9 40130.7 1491.23   1
  -8  -5   9 40698.6 1507.83   1
  -8   5   9 37375.5 1372.14   1
   8  -5  -9 37922.2 1391.55   1
  12   2  -1 456.678 116.903   1
 -12   2   1 727.925 81.4715   1
  12  -2  -1 377.815 129.373   1
 -12   2   1 386.651 131.999   1
  12   2  -1 576.982 111.063   1
  12  -2  -1 650.887 147.441   1
   5   6   3 5077.44 301.589   1
   5  -6   3 3938.92 279.692   1
   5  -6   3 4831.08 269.371   1
  -5  -6  -3 5036.37 251.641   1
  -5   6  -3 5111.06 293.859   1
   0  -7   0 78.5884 50.3077   1
   0  -7   0 123.364 105.186   1
   0   7   0 161.695 115.446   1
   0   7   0 103.860 99.6901   1
   2  -1  14 6020.03 249.158   1
   2  -1  14 5694.63 234.490   1
   2   1  14 6178.89 240.201   1
  -2   1 -14 5840.57 235.121   1
  -9   0  -7 3606.95 194.633   1
   9   0   7 3625.73 210.448   1
   9   0   7 3430.24 217.704   1
  -7  -1  16 5301.45 273.282   1
  -7   1  16 4427.41 232.097   1
  -7   1  16 4703.93 282.136   1
  -7  -1  16 5360.49 300.845   1
   7   1 -16 5629.61 293.106   1
   7  -1 -16 4836.83 268.960   1
   6  -6   1 113.325 114.884   1
   6  -6   1 311.336 135.509   1
  -6   6  -1 258.931 130.215   1
  -6  -6  -1 399.532 115.636   1
   6   6   1 534.278 122.564   1
   0  -7   1 3052.49 222.313   1
   0   7   1 3796.78 239.770   1
   0   7   1 3580.05 211.914   1
   0   7  -1 3047.08 245.119   1
   0   7  -1 2736.76 227.203   1
   0  -7  -1 3356.19 217.584   1
  -3   3 -12 764.350 132.216   1
   3  -3  12 715.926 138.683   1
   1   7   0 9159.46 417.720   1
   1  -7   0 8872.66 303.930   1
  -1   7   0 9594.45 433.569   1
   1   7   0 8617.12 404.729   1
  -1  -7   0 8721.39 259.105   1
  -1  -7   0 8923.86 387.967   1
   1  -7   0 9645.31 420.536   1
  -1   7   0 9816.92 411.036   1
  -7  -2  -9 5356.13 198.535   1
  -7   2  -9 5929.37 283.259   1
   7   2   9 4861.55 203.713   1
   7   2   9 5631.95 299.354   1
   7   2   9 5047.47 190.487   1
   7  -2   9 6020.07 325.121   1
   1   7  -1 141.255 108.592   1
   1  -7  -1 52.0495 93.5747   1
  -1   7   1 4.93527 92.9778   1
   1   7  -1 163.468 108.931   1
  -1  -7   1 20.5797 47.6273   1
  -1   7   1 34.9872 101.213   1
  -1  -7   1 88.5954 94.3243   1
   1  -7  -1 30.3296 46.0143   1
   1   4 -13 1870.63 192.084   1
  -1  -4  13 1813.82 186.093   1
   7   3   8 6258.86 227.833   1
  -7  -3  -8 6243.92 222.200   1
  -7   3  -8 6753.80 339.250   1
   7  -3   8 6719.59 356.778   1
   7   3   8 5788.65 229.507   1
   7   3   8 6602.26 296.944   1
   7  -3   8 6365.22 320.174   1
   8   3 -14 86.6403 64.9353   1
  -8  -3  14 227.890 129.916   1
   8  -3 -14 418.577 100.697   1
   8   3 -14 258.001 120.434   1
  -8  -3  14 559.988 134.218   1
  -8   3  14 181.709 96.5900   1
   6  -5 -11 16220.4 610.461   1
  -6   5  11 16836.3 614.880   1
  -6   5  11 15862.4 593.586   1
   6   5 -11 18783.6 735.152   1
   6   5 -11 19146.2 702.174   1
  -6  -5  11 18498.3 710.832   1
 -12   0  12 8349.51 367.557   1
 -12   0  12 8846.17 393.849   1
  12   0 -12 8437.77 379.181   1
 -10   3  -3 6588.97 312.326   1
  10   3   3 5622.00 260.630   1
  10  -3   3 6637.18 307.311   1
  10  -3   3 6268.67 332.594   1
  10   3   3 6082.02 283.718   1
 -10  -3  -3 5892.29 265.642   1
   0   6   8 12958.6 469.785   1
   0   6   8 12271.6 494.079   1
   0  -6  -8 12798.7 476.699   1
   0   6  -8 12334.9 499.184   1
   0  -6   8 12462.3 522.331   1
   0   6  -8 13410.4 547.972   1
   9   3   5 195.563 87.5387   1
   9   3   5 118.161 74.3878   1
  -9  -3  -5 203.786 84.6302   1
   9  -3   5 127.493 127.060   1
  -9   3  -5 144.976 106.758   1
   9  -3   5 162.622 102.564   1
   9   3   5 171.301 103.323   1
 -13   1   8 3800.20 239.227   1
  13   1  -8 3476.32 224.508   1
 -13   1   8 3260.90 235.488   1
  13  -1  -8 3551.14 248.269   1
 -13  -1   8 3833.32 287.668   1
 -13  -1   8 2979.02 228.912   1
  13  -1  -4 9218.42 404.268   1
  13   1  -4 9997.03 413.898   1
  13   1  -4 10058.7 427.848   1
 -13   1   4 9700.96 391.312   1
 -13   1   4 9481.14 422.222   1
  13  -1  -4 8963.99 422.254   1
 -13  -1   4 11450.3 476.998   1
 -13  -1   4 9904.20 418.122   1
   9   5  -7 11275.2 490.714   1
  -9  -5   7 11107.1 482.438   1
   9  -5  -7 12558.3 494.484   1
  -9   5   7 12061.5 484.053   1
 -13   0   9 5.82187 87.2943   1
 -13   0   9 -63.425 86.8575   1
  13   0  -9 11.9493 95.5032   1
  13   0  -3 11360.5 466.629   1
  13   0  -3 11673.3 485.066   1
 -13   0   3 11775.4 472.067   1
 -13   0   3 11774.0 478.349   1
   9   4   3 1425.03 126.367   1
   9  -4   3 1384.42 169.383   1
   9   4   3 1665.40 154.776   1
  -9   4  -3 1182.57 164.101   1
  -9  -4  -3 1440.23 132.408   1
  12   0   1 122.357 94.8366   1
 -12   0  -1 -10.309 95.1673   1
  12   0   1 11.1753 90.8924   1
  12   3  -6 2438.21 204.030   1
 -12   3   6 2431.48 203.733   1
 -12  -3   6 3515.39 247.366   1
 -12  -3   6 3195.15 214.398   1
  12  -3  -6 2594.28 213.632   1
  12  -3  -6 2652.60 218.663   1
  12   3  -5 127.028 104.516   1
  12  -3  -5 139.004 120.531   1
  12  -3  -5 119.840 119.882   1
 -12   3   5 354.134 115.991   1
 -12  -3   5 65.1608 108.303   1
   1   7   1 481.104 115.218   1
  -1   7  -1 451.188 129.618   1
  -1   7  -1 347.031 142.370   1
   1   7   1 374.568 135.642   1
   1  -7   1 349.209 140.883   1
  -1  -7  -1 493.707 114.872   1
   1  -7   1 328.968 81.5649   1
  -1   7   2 -62.659 106.290   1
  -1   7   2 96.1194 109.969   1
  -1  -7   2 190.903 105.421   1
   1  -7  -2 49.4883 99.3206   1
   1   7  -2 142.137 114.345   1
   1   7  -2 103.731 101.606   1
   7   6  -3 1634.85 195.295   1
  -7  -6   3 1536.89 158.969   1
   7   6  -3 1681.23 192.881   1
   7  -6  -3 2479.52 200.586   1
   7  -6  -3 1833.96 180.469   1
  -7   6   3 2039.32 183.694   1
   0  -7  -2 2547.21 188.089   1
   0  -7   2 2209.75 144.677   1
   0  -7   2 2471.17 207.012   1
   0   7   2 2979.04 213.481   1
   0   7  -2 2330.79 199.935   1
   0   7   2 2851.20 213.791   1
   0   7  -2 2391.45 218.433   1
   7   5   4 103.468 86.3927   1
  -7   5  -4 113.181 115.323   1
   7  -5   4 61.7741 121.252   1
   7  -5   4 137.843 108.335   1
  -7  -5  -4 91.3370 74.4824   1
  -5   6   8 167.200 108.369   1
  -5   6   8 209.959 73.2965   1
  -5   6   8 199.531 110.362   1
   5   6  -8 130.201 140.367   1
  -5  -6   8 227.533 132.471   1
   8   5   2 -36.572 78.5961   1
  -8  -5  -2 13.5249 83.9938   1
  -8   5  -2 159.563 104.955   1
   8  -5   2 111.676 91.0846   1
   8  -5   2 99.2791 102.731   1
   7  -4 -13 80.1828 85.0046   1
  -7   4  13 -36.267 80.6262   1
  -7   4  13 34.2544 62.6965   1
  -7  -4  13 137.772 101.715   1
   7   4 -13 134.757 81.3922   1
   7   4 -13 174.286 110.042   1
  -7  -4  13 -13.947 114.915   1
  -4   3  15 615.290 72.3111   1
   4   3 -15 517.324 137.734   1
  -4   3  15 360.426 77.2011   1
  -4   3  15 625.944 80.2167   1
  -4  -3  15 669.153 127.942   1
  -4  -3  15 487.167 116.643   1
  -6   6   7 17503.4 703.044   1
   6   6  -7 19589.8 776.980   1
   6   6  -7 19492.3 766.806   1
  -6  -6   7 19856.1 763.139   1
  -6   6   7 18632.3 712.966   1
  -8   0  16 12584.8 501.843   1
  -8   0  16 12287.6 523.011   1
   8   0 -16 12569.2 502.915   1
   4   5   8 1170.31 86.6868   1
   4   5   8 1044.70 83.3125   1
   4   5   8 1280.74 90.3479   1
  -4   5  -8 724.719 159.747   1
  -4  -5  -8 625.268 81.2755   1
   4  -5   8 780.046 155.783   1
  -5   3  15 178.104 59.7128   1
  -5  -3  15 107.952 107.186   1
   5   3 -15 293.885 122.649   1
  -5  -3  15 139.671 108.098   1
   5  -3 -15 164.866 77.1887   1
  -7  -6   4 1346.97 156.382   1
   7   6  -4 1266.89 159.490   1
   7   6  -4 1493.42 177.701   1
   7  -6  -4 1299.71 159.031   1
   7  -6  -4 777.020 158.736   1
  -7   6   4 1038.81 153.048   1
  -9  -5   1 648.172 141.802   1
   9   5  -1 952.551 136.807   1
  -9   5   1 921.760 150.602   1
   9  -5  -1 533.862 128.506   1
  -2  -1  16 14575.5 509.449   1
  -2   1  16 12584.7 496.520   1
   2  -1 -16 12358.4 399.904   1
  -2   1  16 12913.2 422.259   1
   2   1 -16 15019.9 527.405   1
  -2  -1  16 12277.2 404.699   1
  -2   1  16 12156.4 398.282   1
  -2  -1  16 14150.0 541.792   1
  -5  -4  -9 42.8263 29.0650   1
   5   4   9 18.9908 33.0178   1
   5  -4   9 44.4531 86.7919   1
   5   4   9 66.4200 32.2546   1
   5   4   9 94.3739 68.3111   1
  -5   4  -9 48.8224 91.0160   1
  -8   4  -5 24531.8 913.436   1
  -8  -4  -5 21067.4 740.186   1
   8  -4   5 24831.5 929.870   1
   8  -4   5 25036.1 965.426   1
   8   4   5 22728.4 778.915   1
   8   4   5 22617.5 779.310   1
   3  -6   6 675.434 153.874   1
   3   6   6 1004.41 120.484   1
  -3  -6  -6 1174.78 124.502   1
  -3   6  -6 1220.01 165.433   1
   3   6   6 1121.02 157.286   1
   4   4  10 313.586 89.1293   1
   4  -4  10 163.373 124.348   1
  -4   4 -10 180.636 105.981   1
   9  -1   7 1229.57 161.231   1
   9  -1   7 1557.06 136.302   1
   9   1   7 1110.38 118.670   1
   9   1   7 1086.08 140.166   1
  -9   1  -7 1539.08 141.633   1
  -9  -1  -7 1188.55 120.442   1
  -6   0 -11 135.169 66.3321   1
   6   0  11 208.842 64.2893   1
   6   0  11 42.9251 31.3163   1
   6   0  11 126.509 71.4393   1
 -12  -3   7 1997.86 204.021   1
  12  -3  -7 743.742 163.395   1
  12  -3  -7 757.764 164.431   1
  12   3  -7 1268.87 155.879   1
 -12  -3   7 1096.49 159.888   1
 -12   3   7 726.163 153.372   1
   3  -2  13 6255.62 255.500   1
  -3   2 -13 7285.88 305.305   1
   3  -2  13 7461.10 329.403   1
  -2   7   1 11276.0 492.093   1
  -2  -7   1 13594.3 527.504   1
  -2   7   1 10501.6 443.181   1
   2  -7  -1 9712.65 330.331   1
   2   7  -1 14311.4 566.166   1
   2   7  -1 13007.0 541.514   1
   2  -7  -1 11534.5 490.321   1
  12   3  -4 143.191 89.1451   1
 -12   3   4 -5.8776 102.931   1
 -12  -3   4 39.4412 87.5782   1
  12  -3  -4 -20.612 102.906   1
  12  -3  -4 53.3586 99.5969   1
  -7  -6   2 1393.90 139.565   1
   7   6  -2 1201.84 138.784   1
   7   6  -2 1277.23 174.698   1
   7  -6  -2 851.696 161.884   1
  -7   6   2 608.506 162.430   1
   7  -6  -2 893.480 137.998   1
  11   4  -5 963.646 163.377   1
 -11  -4   5 1187.24 167.734   1
  11  -4  -5 1583.33 172.126   1
  11  -4  -5 1702.26 193.702   1
 -11   4   5 1755.88 189.216   1
   5   0  12 8.51214 37.9166   1
   5   0  12 -34.917 47.1071   1
  -5   0 -12 -8.3028 35.4116   1
   3   5   9 25380.0 807.494   1
  -3   5  -9 24952.3 936.409   1
   3   5   9 24959.3 784.273   1
   3  -5   9 25319.6 948.740   1
  -3  -5  -9 26471.6 840.221   1
   0  -3  14 10273.3 417.181   1
   0  -3  14 10537.7 416.992   1
   0   3 -14 10269.7 429.939   1
  -5  -5  -7 5519.19 226.679   1
  -5   5  -7 5589.35 294.389   1
   5   5   7 5021.80 219.289   1
   5   5   7 4814.59 183.414   1
   5   5   7 5298.12 220.540   1
   5  -5   7 4756.01 292.203   1
   2  -7   0 2082.73 196.671   1
   2  -7   0 1923.48 129.473   1
   2   7   0 2714.74 226.920   1
  -2  -7   0 2696.41 187.740   1
  -2   7   0 1953.82 185.285   1
  -2   7   0 2058.63 203.091   1
   2   7   0 2270.56 205.982   1
  10  -4 -10 297.068 134.724   1
  10   4 -10 331.215 132.939   1
 -10  -4  10 399.725 131.627   1
 -10   4  10 131.145 105.133   1
  11   4  -6 31439.1 1160.24   1
 -11  -4   6 32972.5 1206.27   1
  11  -4  -6 31767.3 1189.39   1
 -11   4   6 31648.9 1187.15   1
  11  -4  -6 31785.6 1173.28   1
  -2   6  -7 7481.67 349.709   1
  -2   6  -7 8051.49 371.340   1
   2   6   7 6511.69 279.363   1
   2  -6   7 7916.60 367.260   1
  -2  -6  -7 6344.02 281.469   1
   2   6   7 6154.10 318.315   1
   2  -7  -2 21040.3 797.215   1
   2   7  -2 22053.1 853.029   1
   2  -7  -2 23613.8 746.954   1
  -2   7   2 20908.2 814.492   1
  -2  -7   2 21626.5 820.627   1
  -2   7   2 21432.1 795.144   1
   2   7  -2 21639.7 810.946   1
  -4   6  -5 4597.81 289.630   1
   4  -6   5 4413.90 278.403   1
   4  -6   5 4630.90 274.114   1
  -4  -6  -5 5079.11 252.352   1
   4   6   5 4778.03 221.928   1
   4   6   5 5326.18 308.226   1
  11   4  -4 5736.53 299.016   1
 -11  -4   4 5566.08 294.031   1
  11  -4  -4 6912.03 335.741   1
  11  -4  -4 7564.76 368.685   1
 -11   4   4 7479.41 359.628   1
  12  -1 -12 91.0053 109.707   1
 -12  -1  12 122.205 102.030   1
 -12  -1  12 31.4875 126.219   1
 -12   1  12 56.9299 98.7474   1
  12   1 -12 40.6156 105.113   1
 -12   1  12 125.356 103.524   1
   0   5  11 4455.13 264.348   1
   0   5  11 4198.05 165.015   1
   0  -5 -11 4179.01 162.914   1
   0   5 -11 4499.56 261.597   1
   0  -5  11 4438.45 256.618   1
  -7  -6   5 4323.60 256.370   1
   7   6  -5 4345.28 266.856   1
   7   6  -5 5010.08 273.179   1
   7  -6  -5 3400.83 230.291   1
  -7   6   5 3373.57 228.674   1
   7  -6  -5 4061.09 218.190   1
  -7   6   5 3203.97 229.823   1
  -5  -2  16 3955.04 232.701   1
  -5   2  16 4187.48 203.102   1
   5   2 -16 4092.35 245.387   1
   5  -2 -16 4095.82 196.146   1
  -5  -2  16 4129.33 242.286   1
 -11  -3  11 2111.23 210.846   1
 -11   3  11 1037.07 144.354   1
 -11  -3  11 876.892 155.674   1
  11   3 -11 646.781 162.076   1
  11  -3 -11 653.774 150.216   1
   3  -3 -15 3691.84 141.736   1
  -3   3  15 3866.88 145.485   1
  -3   3  15 3986.86 182.320   1
  -3  -3  15 3104.59 173.863   1
  -3  -3  15 3553.16 216.107   1
  -3  -3  15 3767.00 230.064   1
   1   7   2 1160.86 158.894   1
   1  -7   2 716.467 159.197   1
  -1  -7  -2 1067.58 134.400   1
  -1   7  -2 388.020 163.953   1
  -1   7  -2 769.951 151.008   1
   1   7   2 928.983 154.519   1
   1  -7   2 587.230 115.842   1
 -13   1   9 48.3822 100.276   1
  13  -1  -9 -2.1182 102.860   1
  13   1  -9 22.1162 102.044   1
 -13   1   9 73.2432 87.6405   1
   6   4   8 9335.20 313.002   1
  -6   4  -8 8759.63 386.505   1
  -6  -4  -8 9322.60 310.991   1
   6  -4   8 8751.94 378.055   1
   6   4   8 9860.36 365.776   1
   1   0  15 119.900 70.1812   1
  -1   0 -15 56.2156 46.7846   1
   1   0  15 55.3366 50.5202   1
 -13  -1   3 2275.50 170.280   1
 -13  -1   3 1271.15 183.569   1
 -13   1   3 1228.67 165.681   1
 -13   1   3 1789.58 153.723   1
  13   1  -3 1454.30 167.191   1
  13   1  -3 1030.74 149.987   1
  13  -1  -3 1266.97 169.974   1
  13  -1  -3 1016.63 156.846   1
   6   3 -15 2636.26 191.214   1
   6  -3 -15 2456.84 156.814   1
  -6   3  15 2095.82 112.689   1
  -6  -3  15 2113.26 193.209   1
  -6   3  15 2380.91 151.874   1
  -6  -3  15 2249.66 203.339   1
  -1   7   3 1958.24 167.528   1
  -1   7   3 1922.69 198.638   1
   1   7  -3 2488.80 208.480   1
   1   7  -3 2708.54 223.039   1
   1  -7  -3 1937.62 203.431   1
  -1  -7   3 2340.40 214.600   1
  12  -1   1 98.4764 100.899   1
  12   1   1 102.053 91.0924   1
  12  -1   1 138.372 87.7301   1
  12   1   1 94.5441 78.5596   1
 -12   1  -1 42.1543 87.4396   1
 -12  -1  -1 44.1384 80.1681   1
 -12   1  -1 -2.4862 40.6975   1
   4   2 -16 450.725 138.840   1
  -4  -2  16 608.571 164.440   1
  -4  -2  16 1241.47 135.345   1
   7   0  10 -78.826 95.7801   1
   7   0  10 35.2410 62.2921   1
  -7   0 -10 101.298 61.9624   1
 -10   2  14 2819.96 223.707   1
 -10  -2  14 3449.78 265.061   1
 -10  -2  14 2835.54 208.842   1
  10  -2 -14 2810.52 217.022   1
  10   2 -14 2970.52 255.055   1
 -10   2  14 2757.86 203.178   1
  -3   6   9 3432.58 191.349   1
   3  -6  -9 3664.01 222.234   1
  -3   6   9 3342.09 230.229   1
   3   6  -9 2663.47 234.600   1
   3   6  -9 2666.74 236.983   1
  -3  -6   9 2832.55 226.073   1
   3  -4  11 17.6732 115.104   1
  -3   4 -11 164.320 120.578   1
  -2   6   9 47.9701 80.4141   1
   2  -6  -9 4.98590 94.7349   1
  -2   6   9 200.427 113.500   1
   2   6  -9 205.067 102.689   1
  -2  -6   9 189.781 114.422   1
   2   6  -9 16.3330 116.819   1
   8  -2   8 33616.1 1204.04   1
   8  -2   8 35005.4 1313.41   1
  -8  -2  -8 31146.7 1041.95   1
   8   2   8 30613.0 1033.13   1
   8   2   8 31651.1 1174.01   1
  -8   2  -8 33790.6 1206.54   1
  10   4   1 1537.79 139.694   1
  10   4   1 1455.39 152.337   1
 -10  -4  -1 1274.10 147.390   1
  10  -4   1 1738.67 178.047   1
  10  -4   1 1597.49 175.150   1
 -10   4  -1 1751.04 179.935   1
  -7  -6   1 50.0887 85.1360   1
   7   6  -1 17.1648 107.540   1
   7  -6  -1 146.560 99.4849   1
  -7   6   1 104.404 111.022   1
   7  -6  -1 155.324 116.078   1
  11   0 -14 129.222 106.322   1
 -11   0  14 3.35270 101.358   1
 -11   0  14 171.630 123.551   1
   0  -7  -3 113.727 107.486   1
   0   7  -3 43.0384 114.781   1
   0   7  -3 38.9260 113.770   1
   0   7   3 114.236 83.7171   1
   0  -7   3 -5.3421 114.676   1
   0   7   3 14.4012 104.738   1
 -10   0  15 -15.849 111.048   1
  10   0 -15 67.0481 83.7432   1
 -10   0  15 8.78449 97.9098   1
 -12  -2  11 2447.63 201.234   1
 -12  -2  11 3789.10 304.082   1
 -12   2  11 1693.11 178.144   1
 -12   2  11 1421.39 212.183   1
  12   2 -11 1951.77 207.915   1
  12  -2 -11 1633.60 187.478   1
   2   7   1 1164.24 162.694   1
   2  -7   1 730.824 166.999   1
   2  -7   1 905.864 118.668   1
   2   7   1 1275.87 169.474   1
  -2  -7  -1 965.141 139.913   1
  -2   7  -1 808.382 170.066   1
  -2   7  -1 1054.27 159.917   1
  12  -3  -8 13722.2 570.755   1
 -12  -3   8 14681.7 586.797   1
  12   3  -8 14216.9 575.641   1
 -12   3   8 12899.7 543.922   1
 -12  -3   8 16123.0 633.420   1
   4   0  13 -15.263 33.4327   1
  -4   0 -13 42.9419 32.1400   1
   4   0  13 -43.004 39.6102   1
  -8   1  16 12205.2 510.333   1
  -8  -1  16 10913.8 430.227   1
  -8   1  16 12243.3 468.405   1
  -8  -1  16 10933.8 493.877   1
   8   1 -16 11030.5 484.894   1
   8  -1 -16 12026.3 474.375   1
  11   4  -7 233.205 131.819   1
 -11  -4   7 322.871 130.116   1
  11  -4  -7 373.279 143.485   1
  11  -4  -7 197.320 124.834   1
 -11   4   7 636.308 139.021   1
   2  -3  13 7860.71 344.352   1
  -2   3 -13 6929.18 324.339   1
  11  -3   1 414.206 145.735   1
  11  -3   1 329.005 128.941   1
  11   3   1 418.433 121.478   1
  11   3   1 599.963 118.865   1
 -11   3  -1 339.307 129.239   1
 -11  -3  -1 879.668 120.166   1
   6   6   2 16197.3 617.782   1
  -6  -6  -2 16326.4 620.783   1
   6  -6   2 17222.8 658.762   1
   6  -6   2 18847.0 729.899   1
  -6   6  -2 18233.9 719.916   1
   9   5  -8 14235.6 589.244   1
   9   5  -8 13894.2 575.971   1
  -9  -5   8 14217.7 585.076   1
   9  -5  -8 14376.8 564.613   1
  -9   5   8 14145.0 577.111   1
  -6  -2  16 1374.76 156.297   1
   6  -2 -16 828.712 118.512   1
  -6   2  16 769.504 108.407   1
  -6  -2  16 1735.65 171.402   1
   6   2 -16 1356.99 163.181   1
 -12  -3   3 1421.87 146.935   1
  12  -3  -3 1534.60 177.211   1
  12  -3  -3 1285.59 169.706   1
  12   3  -3 1194.59 146.931   1
 -12   3   3 1284.91 173.825   1
  -2   7   3 6099.17 335.091   1
   2   7  -3 7870.96 366.194   1
   2   7  -3 7514.06 377.083   1
   2  -7  -3 6073.58 345.035   1
  -2  -7   3 8215.83 377.567   1
  -2   7   3 5099.06 316.859   1
 -13   0  10 10.0694 104.098   1
 -13   0  10 196.025 117.048   1
  13   0 -10 142.109 113.196   1
  11   4  -3 26579.3 961.005   1
 -11  -4   3 28041.0 1040.17   1
  11  -4  -3 27386.7 1049.52   1
  11  -4  -3 25583.7 981.485   1
 -11   4   3 26017.9 997.010   1
 -13   0   2 66.8275 85.8555   1
  13   0  -2 35.8543 88.1185   1
  13   0  -2 -25.510 96.7832   1
   6   1  11 4095.20 156.929   1
   6  -1  11 4135.32 206.615   1
   6   1  11 4059.31 154.735   1
  -6  -1 -11 3824.52 146.825   1
  -6   1 -11 3881.69 199.061   1
   1   0 -16 2.65630 44.9955   1
  -1   0  16 90.5885 56.5197   1
  -1   0  16 152.812 90.4285   1
  12  -2   0 -45.507 77.0503   1
  12  -2   0 83.0956 89.1414   1
  12   2   0 108.350 85.0985   1
 -12   2   0 -97.511 79.3872   1
 -12   2   0 -20.230 40.1366   1
  12   2   0 18.4218 75.9312   1
   8  -3   7 15005.4 635.820   1
   8   3   7 14001.4 531.148   1
  -8  -3  -7 13380.1 465.891   1
  -8   3  -7 14157.2 587.925   1
   8   3   7 13114.8 461.590   1
  -5  -1 -12 2572.03 94.2493   1
  -5   1 -12 3699.55 172.791   1
   5   1  12 3138.41 139.411   1
   5   1  12 3057.45 111.357   1
   4  -5 -12 932.477 105.129   1
  -4   5  12 662.612 121.267   1
  -4   5  12 778.766 111.887   1
   4   5 -12 627.910 134.063   1
   4   5 -12 696.517 160.153   1
  -4  -5  12 1068.07 146.905   1
   2   5  10 225.223 54.0315   1
   2   5  10 262.826 64.7691   1
  -2   5 -10 244.915 121.899   1
   2  -5  10 239.245 143.757   1
   3  -5 -12 1126.19 104.710   1
  -3   5  12 1253.92 138.759   1
  -3   5  12 1253.98 107.708   1
   3   5 -12 1830.99 178.026   1
   3   5 -12 1764.57 157.413   1
  -3  -5  12 1787.40 171.155   1
  -4   6   9 13136.2 510.982   1
  -4   6   9 13439.7 508.075   1
  -4  -6   9 15065.6 610.120   1
   4   6  -9 15500.3 616.910   1
 -11  -2  13 5636.01 345.419   1
 -11  -2  13 5205.63 298.854   1
  11   2 -13 5778.07 314.921   1
  11  -2 -13 5801.19 287.413   1
 -11   2  13 5868.35 310.477   1
 -11   2  13 5833.78 313.859   1
   1   6   8 224.332 106.349   1
  -1  -6  -8 175.313 84.1371   1
   1   6   8 173.514 82.0034   1
  -1   6  -8 118.954 128.312   1
  -1   6  -8 42.6755 120.317   1
   1  -6   8 -6.1265 118.848   1
   0  -2  15 28.4494 69.8268   1
   0   2 -15 -3.4877 79.2693   1
   0  -2  15 3.31626 65.0693   1
   6   5   6 12357.5 416.227   1
   6   5   6 14014.2 486.357   1
  -6   5  -6 12143.4 555.551   1
  -6  -5  -6 13699.4 473.998   1
   6  -5   6 12005.5 509.028   1
   6  -5   6 12028.5 540.045   1
  -8   5  10 658.183 129.681   1
  -8  -5  10 128.380 151.862   1
   8  -5 -10 393.166 136.396   1
   8   5 -10 115.331 132.800   1
   8   5 -10 108.620 153.922   1
  -5   6  -4 1612.29 197.173   1
   5  -6   4 1929.46 207.091   1
   5  -6   4 1988.33 194.438   1
   5   6   4 1361.67 159.279   1
  -5  -6  -4 1675.96 166.184   1
   7   6  -6 9075.43 409.764   1
   7   6  -6 8624.93 412.323   1
  -7  -6   6 9313.73 423.810   1
  -7   6   6 10041.2 452.333   1
  -7   6   6 9202.55 390.853   1
   3  -2 -16 3983.97 156.088   1
   3   2 -16 3984.36 234.083   1
  -3  -2  16 4449.83 231.966   1
  -3   2  16 4211.52 173.124   1
  -3   2  16 3911.78 151.706   1
  -3  -2  16 4388.35 266.111   1
  -9  -5   0 206.922 111.686   1
   9   5   0 136.639 104.817   1
   9  -5   0 147.818 106.825   1
  -9   5   0 288.044 122.246   1
  11   0   4 62.7248 97.7077   1
 -11   0  -4 74.3193 91.0749   1
  11   0   4 46.9476 90.6594   1
  -7   5  11 4454.08 246.846   1
  -7   5  11 4019.85 227.591   1
   7  -5 -11 4213.02 238.128   1
   7   5 -11 3415.31 270.303   1
   7   5 -11 3565.91 235.426   1
  -7  -5  11 3800.06 257.007   1
   0   4  13 151.038 84.1101   1
   0  -4  13 -2.8571 83.2025   1
   0   4 -13 32.9275 108.646   1
   3   7  -1 15254.3 597.200   1
   3  -7  -1 15382.6 627.985   1
  -3   7   1 15681.7 636.909   1
  -3  -7   1 15441.7 607.577   1
   3   7  -1 15427.4 630.581   1
  -3   7   1 15365.5 604.688   1
   3  -7  -1 16022.4 553.350   1
  -4   4  14 747.707 106.291   1
  -4   4  14 728.282 85.5262   1
   4  -4 -14 927.470 93.0003   1
  -4  -4  14 593.469 158.366   1
  -4  -4  14 997.713 144.588   1
   4   4 -14 594.834 143.883   1
   9   2 -15 8935.44 401.583   1
  -9   2  15 9029.82 378.610   1
   9  -2 -15 8732.44 376.363   1
   9   2 -15 9149.12 297.431   1
  -9  -2  15 9047.31 383.179   1
  -9  -2  15 9713.45 447.886   1
   1  -1  15 5566.11 233.425   1
  -1   1 -15 5348.17 228.312   1
   1   1  15 5154.83 232.421   1
   1  -1  15 5439.97 259.851   1
  -3  -7   2 8353.88 432.078   1
   3  -7  -2 8810.29 407.294   1
   3   7  -2 8808.02 396.598   1
   3   7  -2 8382.66 413.674   1
  -3   7   2 8683.40 428.563   1
  -3   7   2 8693.59 393.995   1
  -1   6   9 10670.1 468.032   1
  -1   6   9 11610.5 440.627   1
   1  -6  -9 11383.4 438.756   1
   1   6  -9 13104.4 544.223   1
  -1  -6   9 13643.0 551.539   1
   1   6  -9 13160.5 550.508   1
  -7   1 -10 1694.46 152.494   1
   7   1  10 2386.63 174.160   1
   7   1  10 1950.24 116.120   1
   7  -1  10 1965.56 195.278   1
   7  -1  10 1800.52 157.514   1
  13   2  -6 506.112 129.917   1
 -13  -2   6 228.033 161.020   1
 -13   2   6 232.263 110.545   1
 -13   2   6 438.663 140.024   1
 -13  -2   6 271.356 133.065   1
  13  -2  -6 575.933 142.431   1
  13  -2  -6 464.017 143.961   1
  10  -2   5 970.729 152.159   1
  10  -2   5 1157.91 144.839   1
  10   2   5 483.370 139.330   1
  10   2   5 414.337 111.090   1
 -10   2  -5 761.250 144.834   1
  -9   4  12 9842.54 410.544   1
   9  -4 -12 9439.37 414.729   1
  -9  -4  12 9334.80 417.152   1
  -9  -4  12 10065.1 485.436   1
   9   4 -12 9527.24 396.412   1
   9   4 -12 8584.23 416.272   1
   1  -7   3 130.705 118.151   1
  -1   7  -3 -37.205 114.763   1
  -1   7  -3 -47.437 118.721   1
  -1  -7  -3 48.1468 105.102   1
   1   7   3 155.889 103.861   1
   1   7   3 132.194 113.186   1
  -5   4  14 7745.76 303.900   1
  -5   4  14 7703.25 291.252   1
   5  -4 -14 7718.97 298.039   1
  -5  -4  14 7661.51 370.744   1
   5   4 -14 8058.77 322.264   1
   5   4 -14 7785.49 361.044   1
  -5  -4  14 7818.16 339.826   1
   5  -5 -12 3159.70 172.099   1
  -5   5  12 3031.25 195.518   1
  -5   5  12 3124.95 188.079   1
   5   5 -12 3025.03 206.981   1
   5   5 -12 2772.36 233.782   1
  -5  -5  12 2775.25 214.321   1
  -2   3  15 7405.21 293.934   1
  -2  -3  15 7438.38 338.187   1
  -2  -3  15 7582.64 362.959   1
   2   3 -15 8058.29 357.235   1
   7  -4   7 2783.31 208.325   1
   7  -4   7 2663.80 229.410   1
   7   4   7 3569.57 163.275   1
   7   4   7 3847.23 198.600   1
  -7   4  -7 2875.27 252.625   1
  -7  -4  -7 2937.41 139.111   1
 -11   1  14 3771.93 251.726   1
 -11  -1  14 4693.03 292.179   1
  11  -1 -14 3811.09 228.841   1
  11   1 -14 3826.46 241.966   1
 -11  -1  14 3837.45 232.982   1
 -11   1  14 3683.13 253.028   1
 -10   1  15 1114.66 174.590   1
 -10  -1  15 1240.68 149.609   1
 -10  -1  15 1896.12 196.893   1
  10  -1 -15 1028.82 141.761   1
  10   1 -15 1217.98 159.473   1
  11  -2   3 1698.58 158.131   1
  11   2   3 2090.64 176.415   1
  11   2   3 1793.92 148.515   1
 -11   2  -3 1796.16 161.835   1
  11  -2   3 1939.75 190.276   1
  13  -2  -7 131.405 137.340   1
  13   2  -7 477.927 130.187   1
 -13  -2   7 618.250 134.325   1
 -13   2   7 154.959 132.120   1
 -13   2   7 98.8581 114.168   1
   6  -6  -8 5869.13 309.862   1
  -6   6   8 6534.93 314.659   1
  -6   6   8 6648.16 334.329   1
   6   6  -8 5491.06 319.993   1
   6   6  -8 5017.59 314.928   1
  -6  -6   8 4923.85 311.031   1
 -13   2   5 14145.5 587.519   1
  13   2  -5 13679.1 544.364   1
  13  -2  -5 14741.6 585.085   1
  13  -2  -5 14093.1 585.837   1
 -13  -2   5 13643.1 554.733   1
 -13  -2   5 14159.6 571.627   1
 -13   2   5 14138.1 519.677   1
  -1   7   4 10211.3 445.339   1
  -1   7   4 10800.4 475.643   1
  -1  -7   4 10121.8 472.389   1
   1  -7  -4 10453.4 432.742   1
   1   7  -4 10530.2 481.290   1
   1   7  -4 10794.4 479.288   1
  -4   1 -13 4360.50 206.518   1
   4   1  13 5169.95 212.042   1
   4  -1  13 4408.09 191.558   1
   4  -1  13 4572.08 205.587   1
   2  -7   2 19336.3 768.417   1
  -2   7  -2 19036.9 747.199   1
  -2  -7  -2 19555.9 740.655   1
  -2   7  -2 18594.3 742.485   1
   2   7   2 18654.7 733.341   1
   2   7   2 18714.2 717.494   1
   2  -7   2 18925.8 664.386   1
 -11  -4   8 346.002 132.909   1
 -11   4   8 882.696 139.904   1
  11   4  -8 343.475 136.538   1
  11  -4  -8 501.921 137.259   1
  -3  -7   0 3778.15 269.362   1
  -3   7   0 4071.15 270.710   1
  -3   7   0 3876.68 261.607   1
   3   7   0 3899.89 272.747   1
   3   7   0 3747.36 218.325   1
   3  -7   0 4135.78 273.848   1
   3  -7   0 4267.94 206.372   1
  -2   5  12 3702.39 210.537   1
  -2   5  12 3392.59 155.437   1
  -2  -5  12 2999.19 219.637   1
   2   5 -12 3234.87 217.034   1
   2   5 -12 3366.67 231.241   1
   7   3 -15 288.928 154.793   1
  -7   3  15 464.294 107.301   1
   7   3 -15 166.377 73.4460   1
   7  -3 -15 614.858 114.556   1
  -7  -3  15 1106.85 150.060   1
  -7  -3  15 158.044 115.222   1
 -10   0  -6 6053.53 286.349   1
  10   0   6 6203.37 315.906   1
  10   0   6 6249.40 283.913   1
   8   0   9 70.0102 93.5599   1
  -8   0  -9 54.8904 69.9538   1
   8   0   9 -14.911 65.0082   1
 -10  -3  13 1716.10 175.101   1
  10  -3 -13 1395.58 171.766   1
  10   3 -13 2283.82 206.921   1
  10   3 -13 1693.43 145.742   1
 -10   3  13 1244.87 138.838   1
 -10  -3  13 3209.90 238.241   1
   2  -2  14 3267.80 179.774   1
   2  -2  14 2812.88 173.660   1
  -2   2 -14 3410.94 211.206   1
   3  -4 -14 7.95813 44.3403   1
  -3   4  14 41.1322 72.1324   1
  -3   4  14 6.87796 46.2170   1
  -3  -4  14 45.1906 80.8092   1
  -3  -4  14 175.984 85.7096   1
   7   6   0 282.801 105.021   1
  -7  -6   0 128.811 96.4303   1
  -7   6   0 -34.896 109.453   1
   7  -6   0 11.9468 101.782   1
   7  -6   0 -19.671 114.705   1
  13  -1 -10 27315.5 1027.04   1
 -13   1  10 26185.5 956.488   1
 -13  -1  10 27769.9 1092.01   1
 -13   1  10 27148.2 1011.78   1
  13   1 -10 27386.5 1041.21   1
  13  -1  -2 206.425 120.645   1
  13  -1  -2 397.378 122.234   1
 -13   1   2 177.622 100.483   1
 -13   1   2 184.850 121.093   1
  13   1  -2 127.042 121.799   1
  13   1  -2 165.451 107.779   1
  -3   7   3 1338.16 175.419   1
  -3  -7   3 2683.78 217.306   1
   3  -7  -3 1729.14 199.199   1
  -3   7   3 1867.79 214.384   1
   3   7  -3 2779.78 214.097   1
   3   7  -3 2878.10 235.822   1
   3  -7  -3 1974.95 125.282   1
  -1  -1  16 4093.66 245.626   1
  -1   1  16 4506.80 154.973   1
  -1  -1  16 3596.59 192.855   1
   1   1 -16 3660.55 192.207   1
   1  -1 -16 4159.99 141.757   1
  -1   1  16 4829.77 242.661   1
  -2   7   4 1750.62 194.528   1
  -2   7   4 1714.04 194.323   1
  -2  -7   4 1407.44 207.994   1
   2  -7  -4 1525.94 207.495   1
   2   7  -4 1530.63 189.717   1
   2   7  -4 1542.61 205.487   1
   7   2 -16 75.2675 124.795   1
  -7  -2  16 351.121 132.033   1
  -7  -2  16 96.2227 116.008   1
  -7   2  16 147.400 84.3152   1
   7  -2 -16 203.010 102.876   1
  11   4  -2 44.6097 91.6049   1
 -11  -4   2 -2.8660 76.4320   1
  11  -4  -2 -35.163 98.3628   1
 -11   4   2 8.52656 95.9154   1
  11  -4  -2 74.2725 114.108   1
 -12   3   9 7.70496 108.268   1
  12  -3  -9 39.4151 118.659   1
  12   3  -9 167.524 108.966   1
 -12  -3   9 85.8587 115.757   1
 -12  -3   9 105.884 144.971   1
  -9  -3  14 4686.50 263.556   1
   9   3 -14 4402.02 206.214   1
   9  -3 -14 3699.48 232.056   1
  -9  -3  14 5550.92 315.621   1
   9   3 -14 4810.56 283.596   1
  -9   3  14 3907.77 231.796   1
   8  -4 -13 8502.37 367.581   1
  -8   4  13 8479.01 362.898   1
   8   4 -13 8956.55 362.632   1
   8   4 -13 9335.53 439.734   1
  -8  -4  13 8953.04 440.368   1
  -8  -4  13 8535.03 396.687   1
   2  -4  12 21780.1 838.441   1
  -2   4 -12 22206.2 849.573   1
 -12  -3   2 394.083 127.174   1
 -12   3   2 166.922 126.110   1
  12   3  -2 199.307 104.148   1
  12  -3  -2 263.119 124.908   1
  12  -3  -2 238.680 137.930   1
 -12   0  13 113.904 114.961   1
  12   0 -13 -7.0679 105.228   1
   0   7   4 7724.31 361.618   1
   0   7  -4 8274.01 399.381   1
   0   7  -4 8912.76 421.774   1
   0  -7   4 8649.56 408.158   1
   0   7   4 7862.50 376.969   1
   0  -7  -4 7923.99 379.788   1
  -3   0 -14 30.9942 44.0623   1
   3   0  14 42.8149 67.9573   1
  -9   0  16 136.140 124.513   1
  -9   0  16 197.195 107.301   1
   9   0 -16 56.5203 111.480   1
   5   0 -17 22681.0 821.373   1
  -5   0  17 21491.0 770.204   1
  -5   0  17 21425.1 823.325   1
   5  -6  -9 149.171 100.706   1
  -5   6   9 138.738 115.971   1
  -5   6   9 111.078 97.0073   1
  -5  -6   9 157.940 121.279   1
   5   6  -9 37.1438 122.433   1
   5   6  -9 69.0855 127.833   1
  -8  -5  -3 3522.23 219.700   1
   8   5   3 3356.72 189.284   1
  -8   5  -3 3655.35 249.614   1
   8  -5   3 3473.24 261.739   1
   8  -5   3 3290.53 238.845   1
  11  -1   4 82.2929 81.1495   1
  11  -1   4 50.2677 99.1148   1
  11   1   4 146.189 92.6859   1
 -11  -1  -4 36.3573 87.0407   1
 -11   1  -4 27.3715 98.6977   1
  11   1   4 49.3379 81.8861   1
 -13  -2   8 28997.0 1085.19   1
 -13  -2   8 29075.9 1142.17   1
 -13   2   8 26636.6 1009.48   1
 -13   2   8 25994.7 963.190   1
  13   2  -8 29646.5 1090.03   1
  13  -2  -8 26004.9 1000.22   1
 -13   2   4 869.122 171.752   1
  13  -2  -4 930.527 170.335   1
 -13   2   4 1094.60 132.880   1
  13  -2  -4 1480.10 172.312   1
  13   2  -4 1559.72 159.048   1
 -13  -2   4 1277.93 153.685   1
 -13  -2   4 1463.85 191.275   1
 -12   0  -2 797.622 151.124   1
  12   0   2 1055.15 144.560   1
  12   0   2 977.287 148.191   1
   6  -4 -14 3980.86 211.124   1
  -6   4  14 4561.84 225.559   1
  -6   4  14 4258.19 209.243   1
  -6  -4  14 5244.80 270.074   1
   6   4 -14 5228.39 235.612   1
  -6  -4  14 5541.04 309.360   1
   6   4 -14 5547.35 292.478   1
   3   7   1 2220.74 199.730   1
  -3  -7  -1 2400.38 216.821   1
  -3   7  -1 2562.94 218.960   1
  -3   7  -1 2240.62 227.952   1
   3   7   1 2190.59 221.324   1
   3  -7   1 2361.00 220.056   1
   3  -7   1 2274.55 166.622   1
  -6   0  17 234.736 103.802   1
   6   0 -17 321.498 112.711   1
  -6   0  17 532.909 145.763   1
  10   4 -11 -20.471 109.219   1
  10  -4 -11 14.6350 87.9327   1
 -10  -4  11 150.524 101.167   1
 -10   4  11 81.2412 102.218   1
 -10  -4  11 46.1058 129.769   1
  10   4 -11 2.21017 90.6739   1
   9   5  -9 285.917 137.289   1
   9   5  -9 227.465 132.555   1
  -9  -5   9 221.454 134.657   1
  -9   5   9 208.624 134.776   1
   9  -5  -9 170.150 114.760   1
  -7  -6   7 1208.92 182.923   1
   7   6  -7 1628.24 174.556   1
   7   6  -7 1821.39 192.968   1
  -7   6   7 1769.87 166.620   1
  -7   6   7 2370.72 197.373   1
   7  -6  -7 1718.29 166.665   1
  -4   0  17 -24.036 92.7167   1
  -4   0  17 39.4473 69.5940   1
   4   0 -17 32.9211 77.9312   1
  10  -3   4 2022.26 211.642   1
  10  -3   4 2393.16 192.828   1
  10   3   4 2126.07 180.888   1
  10   3   4 2150.77 153.802   1
 -10   3  -4 2398.53 225.840   1
 -10  -3  -4 1729.82 150.777   1
  -9  -4  -4 1665.08 158.326   1
  -9   4  -4 1676.50 193.397   1
   9   4   4 1481.77 142.742   1
   9  -4   4 2140.33 211.885   1
   9   4   4 1891.90 141.579   1
   1   5  11 1742.01 191.353   1
  -1  -5 -11 1660.95 79.2855   1
   1   5  11 1683.67 83.0558   1
   1  -5  11 1165.80 177.239   1
  -1   5 -11 1387.94 179.754   1
  13   0 -11 15283.3 616.219   1
 -13   0  11 15919.1 664.222   1
 -13   0  11 16354.4 627.733   1
   2   2 -16 2288.99 175.745   1
  -2  -2  16 1959.68 160.881   1
  -2   2  16 2849.26 143.921   1
  -2  -2  16 2005.63 196.010   1
  10   1   6 23.5174 110.583   1
 -10  -1  -6 87.6268 72.9859   1
  10  -1   6 34.7124 88.5872   1
 -10   1  -6 21.1826 90.3825   1
  10  -1   6 46.5279 97.2252   1
  10   1   6 3.16509 82.4055   1
  13   0  -1 6126.31 322.853   1
  13   0  -1 6134.77 315.071   1
 -13   0   1 5559.92 283.970   1
  -3  -7   4 1645.68 193.483   1
  -3   7   4 680.376 174.562   1
   3   7  -4 1628.37 186.463   1
   3  -7  -4 1195.99 190.533   1
   3   7  -4 1659.45 196.972   1
  -3   7   4 1033.78 154.288   1
   8  -1   9 3192.31 234.530   1
   8   1   9 3486.01 177.448   1
  -8  -1  -9 3877.35 183.607   1
  -8   1  -9 2844.02 198.381   1
   8   1   9 3954.01 257.429   1
   8  -1   9 3200.15 187.463   1
   0  -6  -9 1983.29 143.702   1
   0   6   9 2323.60 209.686   1
   0   6   9 2008.89 142.838   1
   0   6  -9 2222.59 208.570   1
   0   6  -9 2255.33 214.331   1
   0  -6   9 2008.49 194.091   1
  -9   2  -7 7786.35 355.326   1
   9   2   7 6863.77 344.177   1
   9  -2   7 7694.41 356.755   1
   9  -2   7 7511.51 367.295   1
   9   2   7 6175.88 265.791   1
  -6   5  12 1513.10 146.758   1
   6  -5 -12 1441.51 148.245   1
  -6   5  12 1490.38 148.850   1
  -6  -5  12 2041.48 184.833   1
   6   5 -12 2266.29 175.988   1
   6   5 -12 2095.54 209.506   1
   7  -5   5 260.972 108.765   1
  -7  -5  -5 23.3516 78.3126   1
   7   5   5 62.3288 83.8646   1
   7   5   5 69.1731 66.5119   1
  -7   5  -5 102.538 114.949   1
   7  -5   5 73.8484 108.587   1
  -2   4  14 1932.42 157.421   1
   2   4 -14 1879.61 201.398   1
  -2  -4  14 1832.38 191.946   1
  -2  -4  14 2255.49 194.786   1
   6  -6   3 4438.98 278.437   1
   6  -6   3 4155.18 259.747   1
  -6  -6  -3 4039.35 227.767   1
   6   6   3 4389.24 242.201   1
  -6   6  -3 3879.11 268.115   1
 -11   3  12 3922.58 227.712   1
  11   3 -12 4260.63 274.012   1
 -11  -3  12 4364.51 320.286   1
 -11  -3  12 4266.78 258.320   1
  11  -3 -12 4211.29 240.998   1
 -10  -5   5 3334.17 228.020   1
  10   5  -5 3321.54 231.986   1
  10  -5  -5 3093.01 235.573   1
 -10   5   5 2851.70 225.277   1
  10  -5  -5 3328.03 241.029   1
  -1   5  12 2482.65 190.440   1
   1  -5 -12 2338.72 114.770   1
  -1   5  12 2408.79 118.912   1
   1   5 -12 2758.50 210.189   1
  -1  -5  12 2687.24 206.028   1
  -1   3 -14 12464.5 493.712   1
   1  -3  14 11753.7 486.136   1
   1  -3  14 11141.8 441.792   1
 -10  -5   4 27490.4 1016.11   1
  10   5  -4 29173.6 1065.04   1
 -10   5   4 27653.4 1053.82   1
  10  -5  -4 28073.5 1071.76   1
  10  -5  -4 28453.7 1074.30   1
  12  -1 -13 5216.89 290.083   1
 -12   1  13 5749.06 310.887   1
 -12   1  13 5644.73 288.833   1
  12   1 -13 5732.21 307.004   1
 -12  -1  13 5882.13 337.750   1
 -12  -1  13 5541.15 293.453   1
   3   6   7 7255.77 288.496   1
   3   6   7 8071.17 394.670   1
  -3  -6  -7 7627.67 304.222   1
  -3   6  -7 7733.57 380.730   1
   3  -6   7 7913.22 379.273   1
   5  -3  11 2079.37 190.472   1
  -5   3 -11 2321.58 194.468   1
   5   3  11 1770.36 154.524   1
  -3   1 -14 1254.67 125.022   1
   3   1  14 1678.68 122.419   1
   3  -1  14 1283.41 117.457   1
   3  -1  14 1440.59 119.801   1
   2  -7   3 16910.9 621.268   1
  -2  -7  -3 15913.8 624.251   1
  -2   7  -3 16798.8 673.360   1
  -2   7  -3 16504.3 682.444   1
   2   7   3 16180.7 654.201   1
   2   7   3 16578.7 638.954   1
   2  -7   3 16718.2 686.695   1
   9  -1 -16 8574.43 382.363   1
   9   1 -16 8576.77 373.968   1
  -9   1  16 8646.75 374.428   1
  -9  -1  16 9472.88 433.943   1
  -9   1  16 8116.63 389.957   1
  -9  -1  16 8884.61 367.138   1
 -11   4   9 2261.51 194.803   1
 -11  -4   9 2595.14 210.220   1
 -11  -4   9 2008.92 211.286   1
  11   4  -9 2459.10 209.238   1
  11  -4  -9 2588.32 205.654   1
 -12  -2  12 20848.4 800.366   1
 -12   2  12 20938.9 830.343   1
 -12   2  12 20163.5 772.785   1
  12  -2 -12 20237.2 779.077   1
 -12  -2  12 21563.8 871.671   1
  12   2 -12 20502.5 796.146   1
  10   4   2 8670.84 352.382   1
 -10  -4  -2 8562.12 353.832   1
  10   4   2 8556.14 359.027   1
 -10   4  -2 8241.62 388.293   1
  10  -4   2 8024.57 379.119   1
  10  -4   2 8290.06 392.744   1
  -9  -5  -1 1400.09 149.769   1
   9   5   1 1495.77 149.932   1
   9  -5   1 1029.86 160.422   1
   9  -5   1 1312.05 184.358   1
  -9   5  -1 1339.13 171.888   1
   5  -1 -17 66717.9 2409.29   1
  -5   1  17 66808.0 2386.00   1
  -5  -1  17 69013.3 2510.35   1
  -5  -1  17 66428.7 2516.87   1
   5   1 -17 68952.1 2542.76   1
  -5   1  17 71729.6 2707.46   1
  -1   7  -4 5057.53 298.528   1
  -1  -7  -4 4907.05 271.978   1
  -1   7  -4 4631.00 298.430   1
   1   7   4 4713.15 274.442   1
   1   7   4 4807.48 262.098   1
   1  -7   4 4581.28 295.954   1
   4   6   6 2675.31 224.348   1
   4   6   6 2714.02 160.972   1
  -4   6  -6 2118.82 211.519   1
   4  -6   6 2807.80 212.567   1
  -4  -6  -6 2480.29 172.169   1
   6  -3  10 6748.43 347.369   1
  -6   3 -10 6626.90 352.624   1
   6   3  10 8647.78 360.313   1
   4   7  -2 26.3841 121.000   1
   4   7  -2 316.379 146.901   1
   4  -7  -2 71.2699 81.6178   1
   4  -7  -2 183.536 131.126   1
  -4  -7   2 244.008 124.357   1
  -4   7   2 237.744 124.347   1
  -4   7   2 484.433 138.286   1
 -13  -2   9 3812.17 279.869   1
 -13  -2   9 3375.54 329.038   1
 -13   2   9 4769.06 285.269   1
 -13   2   9 4663.64 286.323   1
  13   2  -9 4536.44 275.666   1
  13  -2  -9 4637.18 287.332   1
  -9   3  -6 26523.9 1009.28   1
   9   3   6 25004.6 924.115   1
   9  -3   6 24982.9 977.061   1
   9  -3   6 25925.1 947.448   1
   9   3   6 24839.7 863.335   1
  -9  -3  -6 23129.5 807.030   1
  13   2  -3 15202.5 596.334   1
 -13   2   3 15551.8 546.181   1
  13  -2  -3 15602.8 623.584   1
  13  -2  -3 15945.9 620.886   1
  13   2  -3 15285.1 590.807   1
 -13   2   3 15163.7 620.344   1
   7   6   1 1667.97 174.818   1
  -7  -6  -1 1987.28 172.502   1
  -7   6  -1 1440.51 186.791   1
   7  -6   1 1810.09 180.778   1
   7  -6   1 1991.31 199.074   1
  -1   7   5 3452.91 243.722   1
   1  -7  -5 3252.59 248.122   1
   1   7  -5 2952.01 258.719   1
  -1  -7   5 2737.90 253.523   1
   1   7  -5 3318.51 251.257   1
  -1   7   5 3604.91 247.178   1
 -10  -5   6 1527.69 186.756   1
  10   5  -6 1553.61 177.655   1
  10  -5  -6 2097.26 198.055   1
  10  -5  -6 2202.01 203.122   1
 -10   5   6 2501.92 191.693   1
   2   7  -5 41304.6 1570.55   1
   2   7  -5 41454.4 1586.27   1
   2  -7  -5 46958.1 1732.48   1
  -2  -7   5 41398.8 1598.98   1
  -2   7   5 44871.4 1663.30   1
  -2   7   5 45820.9 1679.44   1
 -12   1  -2 515.380 123.548   1
  12   1   2 658.820 130.362   1
  12  -1   2 547.618 120.272   1
  12  -1   2 1127.27 144.805   1
  12   1   2 485.636 134.131   1
 -12  -1  -2 485.622 130.445   1
 -12   2  -1 13559.1 428.503   1
  12   2   1 12797.2 529.816   1
  12   2   1 13214.0 518.515   1
  12  -2   1 14986.5 601.374   1
  12  -2   1 13358.3 537.279   1
 -12   2  -1 14380.1 562.521   1
 -11  -4   1 201.173 100.551   1
  11   4  -1 253.195 116.956   1
 -11   4   1 273.253 129.420   1
  11  -4  -1 302.733 127.971   1
  11  -4  -1 397.132 134.641   1
  -4  -7   1 205.570 110.947   1
  -4   7   1 -44.568 128.642   1
   4   7  -1 168.548 132.122   1
  -4   7   1 51.7564 122.997   1
   4   7  -1 310.990 134.458   1
   4  -7  -1 77.5015 87.8374   1
   4  -7  -1 95.4592 129.705   1
  -7   0  17 53327.1 1926.05   1
  -7   0  17 53313.2 2000.63   1
   7   0 -17 53370.9 1964.09   1
 -11  -3  -2 1557.11 157.185   1
  11   3   2 1963.08 179.319   1
  11  -3   2 1762.95 184.528   1
  11  -3   2 1965.63 200.451   1
 -11   3  -2 1946.93 215.444   1
  11   3   2 1633.36 159.709   1
  -6   1  17 11131.5 474.004   1
  -6  -1  17 10139.0 469.013   1
   6   1 -17 9923.60 438.179   1
   6  -1 -17 10549.0 423.006   1
  -6   1  17 10752.4 415.446   1
  -6  -1  17 9966.13 413.426   1
  -1  -3  15 10026.1 424.752   1
  -1   3  15 9833.52 379.770   1
  -1  -3  15 10501.9 444.025   1
   1   3 -15 9862.65 416.504   1
  10   5  -3 18697.5 735.960   1
 -10  -5   3 18523.9 701.488   1
  10  -5  -3 18560.2 735.428   1
 -10   5   3 17658.7 708.280   1
  10  -5  -3 17989.0 726.578   1
   4   7  -3 6555.92 340.246   1
   4  -7  -3 5283.51 308.739   1
  -4   7   3 5620.40 320.407   1
   4  -7  -3 5853.57 248.443   1
  -4  -7   3 6893.03 339.390   1
  -4   7   3 5687.72 343.412   1
   4   7  -3 6931.24 354.112   1
 -12  -3  10 5158.61 336.372   1
  12  -3 -10 4546.29 299.180   1
  12   3 -10 5681.39 316.675   1
 -12  -3  10 5469.92 313.949   1
 -12   3  10 4866.82 288.285   1
  -4   1  17 846.401 107.894   1
  -4  -1  17 1477.97 205.294   1
  -4  -1  17 1152.52 145.563   1
   4   1 -17 1145.10 149.934   1
   4  -1 -17 935.656 114.572   1
  -4   1  17 1208.46 155.756   1
   3   0 -17 2989.87 180.031   1
  -3   0  17 3714.95 239.268   1
  -3   0  17 2765.00 159.897   1
   8  -4   6 614.988 143.886   1
  -8   4  -6 723.736 149.152   1
   8   4   6 738.362 125.172   1
   8   4   6 776.711 98.4080   1
   8  -4   6 835.569 169.257   1
  -8  -4  -6 895.341 102.786   1
  -4   3 -12 1888.57 175.125   1
   4  -3  12 1647.86 172.497   1
   0   0  16 3238.31 188.936   1
   0   0  16 2801.50 145.956   1
   0   0 -16 2890.05 139.471   1
  -2  -6  -8 991.205 107.737   1
   2   6   8 933.703 104.346   1
   2   6   8 1451.75 188.778   1
   2  -6   8 548.169 152.087   1
  -2   6  -8 410.079 164.427   1
  -8  -2  16 18636.1 722.119   1
  -8  -2  16 18340.5 746.562   1
  -8   2  16 19434.8 748.706   1
   8   2 -16 18943.1 742.051   1
   8  -2 -16 19881.0 720.874   1
 -13  -1  11 6826.57 352.994   1
  13   1 -11 7158.35 366.070   1
  13  -1 -11 8086.80 392.203   1
 -13  -1  11 6438.40 360.402   1
 -13   1  11 8517.67 379.246   1
 -13   1  11 7717.88 392.500   1
   3  -7   2 14978.1 564.556   1
   3  -7   2 14973.6 620.563   1
   3   7   2 15440.6 631.724   1
  -3   7  -2 14679.2 614.556   1
  -3  -7  -2 15582.3 610.090   1
  -3   7  -2 15432.3 626.451   1
   3   7   2 14803.9 581.505   1
   8  -3 -15 23219.2 830.297   1
  -8  -3  15 22525.9 882.754   1
  -8  -3  15 22197.2 865.316   1
  -8   3  15 22389.6 796.989   1
   8   3 -15 22383.1 854.642   1
   8   3 -15 24327.1 801.297   1
 -13   1   1 1797.28 188.906   1
 -13  -1   1 1396.56 158.107   1
  13   1  -1 1255.00 177.080   1
  13  -1  -1 2078.63 188.136   1
  13   1  -1 1170.88 157.880   1
  13  -1  -1 1879.57 185.402   1
   9   0   8 150.855 111.402   1
  -9   0  -8 223.643 100.818   1
   9   0   8 133.499 96.9045   1
  12  -3  -1 2501.87 206.158   1
  12   3  -1 2553.70 206.484   1
  12   3  -1 2851.27 205.356   1
 -12   3   1 2381.86 215.725   1
 -12  -3   1 3089.34 196.724   1
  12  -3  -1 2538.57 226.536   1
  -8  -6   4 1874.74 182.046   1
   8   6  -4 1695.54 179.743   1
   8   6  -4 1567.04 200.229   1
   8  -6  -4 1851.68 168.610   1
   8  -6  -4 1763.26 190.267   1
  -8   6   4 2153.51 184.726   1
   6   2  11 1000.09 138.253   1
   6  -2  11 426.438 113.819   1
  -6   2 -11 479.770 116.321   1
  -3   6  10 1323.44 143.433   1
  -3   6  10 1360.96 131.491   1
   3  -6 -10 1245.28 131.133   1
   3   6 -10 1413.98 155.498   1
  -3  -6  10 1357.97 175.951   1
   3   6 -10 1246.90 181.399   1
  -5   2 -12 2300.10 173.832   1
   5  -2  12 2215.68 162.163   1
  -8  -6   3 405.877 119.967   1
   8   6  -3 273.641 141.948   1
   8  -6  -3 199.272 113.136   1
   8  -6  -3 418.349 138.601   1
  -8   6   3 315.885 129.415   1
  -7   4  14 392.458 96.5351   1
   7  -4 -14 434.053 118.320   1
  -7   4  14 272.990 76.4922   1
   7   4 -14 534.182 106.573   1
   7   4 -14 475.327 178.384   1
  -7  -4  14 453.759 151.575   1
  -7  -4  14 702.481 135.230   1
  -4   7   0 10714.8 452.379   1
  -4   7   0 9596.61 444.961   1
  -4  -7   0 8270.53 378.635   1
   4  -7   0 10370.0 398.004   1
   4  -7   0 11299.0 494.131   1
   4   7   0 7595.79 402.790   1
   4   7   0 8320.48 405.800   1
   0  -7   5 126.565 130.628   1
   0   7   5 148.097 110.945   1
   0   7  -5 255.201 130.934   1
   0   7  -5 150.391 134.409   1
   0  -7  -5 338.071 119.638   1
   0   7   5 140.573 118.382   1
  -4  -5  -9 2122.05 112.876   1
   4  -5   9 3029.46 219.686   1
  -4   5  -9 3176.80 223.298   1
   4   5   9 2671.94 133.251   1
   4   5   9 2382.53 119.433   1
   3   7  -5 14729.1 624.088   1
  -3   7   5 16247.2 658.418   1
  -3   7   5 16103.2 644.791   1
  -3  -7   5 15232.4 645.915   1
   3  -7  -5 15924.7 661.166   1
   3   7  -5 13667.2 605.708   1
  -8   5  11 1303.17 152.456   1
   8  -5 -11 756.529 157.562   1
  -8  -5  11 367.246 165.981   1
   8   5 -11 635.260 148.177   1
   8   5 -11 689.297 179.289   1
  -5  -6  -5 11988.7 458.379   1
  -5   6  -5 10751.5 482.088   1
   5   6   5 11921.4 439.324   1
   5  -6   5 11102.7 489.422   1
   5  -6   5 11391.9 502.698   1
   6  -6  -9 8396.80 382.485   1
  -6   6   9 8576.57 382.544   1
  -6   6   9 8233.31 388.457   1
   6   6  -9 8288.96 415.279   1
  -6  -6   9 8537.74 413.691   1
   6   6  -9 8685.16 417.479   1
   7   3   9 897.163 136.220   1
  -7   3  -9 839.421 160.315   1
  -7  -3  -9 832.995 72.3380   1
   7  -3   9 673.718 181.138   1
   7  -3   9 1062.47 158.575   1
 -10  -5   7 -20.510 88.3241   1
  10   5  -7 -138.85 83.1786   1
  10  -5  -7 129.394 88.3646   1
 -10   5   7 23.3430 83.4446   1
   8   6  -5 2539.92 208.256   1
   8   6  -5 2204.32 218.370   1
  -8  -6   5 2020.42 198.947   1
  -8   6   5 2461.05 204.248   1
   8  -6  -5 2765.63 192.928   1
   1  -4  13 4770.79 295.062   1
  -1   4 -13 5164.42 308.580   1
  -5   5  -8 5854.27 301.949   1
   5   5   8 4075.58 178.676   1
   5   5   8 4219.68 182.900   1
   5  -5   8 5496.82 299.621   1
  -2   6  10 5023.65 227.311   1
  -2   6  10 5007.63 273.072   1
  -2  -6  10 3586.30 254.236   1
   2   6 -10 3507.94 261.365   1
   2   6 -10 3083.51 260.514   1
   4   7  -4 5255.99 308.375   1
  -4   7   4 6450.14 318.933   1
  -4   7   4 6256.95 334.908   1
  -4  -7   4 5486.88 315.178   1
   4  -7  -4 6360.99 326.193   1
   4   7  -4 5795.31 334.354   1
  -4   6  10 4368.70 257.554   1
  -4   6  10 4565.03 231.262   1
   4  -6 -10 4752.90 254.824   1
  -4  -6  10 3790.73 261.431   1
   4   6 -10 4058.41 271.808   1
  -2   0 -15 59.4058 44.8980   1
   2   0  15 30.0637 79.6144   1
   2   0  15 63.0585 48.3453   1
   1  -2  15 4009.49 205.865   1
   1  -2  15 3628.67 202.805   1
  -1   2 -15 3468.60 219.385   1
  -7   6   8 33.9849 123.041   1
  -7   6   8 224.118 124.788   1
   7   6  -8 297.792 132.719   1
   7   6  -8 292.735 138.143   1
   7  -6  -8 152.415 102.745   1
  -7  -6   8 53.4722 124.085   1
   8   6  -2 298.618 122.962   1
  -8  -6   2 322.149 148.914   1
   8  -6  -2 366.114 139.398   1
   8  -6  -2 492.596 149.653   1
  -8   6   2 1081.53 146.591   1
  10   5  -2 1587.97 176.090   1
 -10  -5   2 1197.47 151.013   1
  10  -5  -2 1413.36 162.678   1
  10  -5  -2 1441.32 184.161   1
 -10   5   2 1333.38 185.203   1
  -7  -2 -10 103.757 46.6281   1
   7   2  10 39.8469 48.0190   1
   7   2  10 308.415 116.182   1
   7  -2  10 251.379 126.187   1
  -7   2 -10 371.067 101.017   1
  -7  -1  17 9345.60 427.848   1
  -7   1  17 7421.69 341.168   1
  -7   1  17 7684.40 367.309   1
  -7  -1  17 9534.20 400.698   1
   7  -1 -17 7882.58 360.647   1
   7   1 -17 8608.49 389.817   1
   3   5  10 4213.53 182.075   1
   3   5  10 3669.58 136.616   1
   3  -5  10 4281.27 299.131   1
  -3   5 -10 4249.86 259.712   1
 -11   0  15 1192.52 196.214   1
  11   0 -15 1947.45 176.147   1
 -11   0  15 2089.37 193.277   1
   3   1 -17 4074.69 228.352   1
  -3  -1  17 4197.19 233.962   1
  -3   1  17 4417.26 152.439   1
  -3   1  17 5416.08 294.758   1
  -3   1  17 5231.95 207.388   1
  -3  -1  17 3956.21 271.017   1
  -1   4  14 524.007 115.786   1
   1   4 -14 1133.48 158.894   1
  -1  -4  14 1073.97 151.528   1
   0   1 -16 5194.88 229.465   1
   0  -1  16 5228.24 255.884   1
   0   1  16 5390.49 254.297   1
   0  -1  16 5619.25 242.433   1
 -11  -2  14 -45.200 83.1165   1
 -11  -2  14 -63.280 95.6252   1
 -11   2  14 4.73900 82.4374   1
 -11   2  14 148.178 89.3160   1
  11   2 -14 3.72094 87.8201   1
  11  -2 -14 -12.239 73.4506   1
 -10   2  15 9342.06 396.961   1
 -10   2  15 9155.00 421.563   1
 -10  -2  15 8461.60 435.814   1
 -10  -2  15 9095.44 407.715   1
  10  -2 -15 9306.41 411.821   1
  10   2 -15 9245.32 413.554   1
  10   2 -15 8694.73 299.072   1
  -4   2 -13 66.4995 87.1567   1
   4  -2  13 145.246 84.2723   1
  -5   4 -10 6067.34 299.108   1
   5   4  10 5446.14 247.572   1
   5  -4  10 6221.14 295.136   1
   9   1   8 3088.34 171.610   1
   9  -1   8 2798.75 222.811   1
   9   1   8 3074.31 206.612   1
  -9   1  -8 2536.48 183.962   1
   9  -1   8 2865.92 180.703   1
  -9  -1  -8 2900.73 165.948   1
   7  -5 -12 16529.5 614.914   1
  -7   5  12 16017.3 585.444   1
  -7   5  12 16470.2 614.707   1
  -7  -5  12 14749.9 603.103   1
   7   5 -12 14855.5 632.165   1
   7   5 -12 14805.2 576.063   1
   9  -5 -10 3766.36 267.483   1
  -9   5  10 3168.98 224.461   1
   9   5 -10 4104.41 259.600   1
  -9  -5  10 4029.20 274.430   1
   9   5 -10 3890.70 278.431   1
  13   2 -10 1877.05 214.988   1
 -13  -2  10 1293.61 205.091   1
  13  -2 -10 2070.39 223.666   1
 -13  -2  10 1975.20 219.818   1
 -13   2  10 2995.04 218.090   1
 -13   2  10 2843.37 229.825   1
 -13   2   2 671.722 89.1536   1
  13  -2  -2 643.407 139.100   1
 -13   2   2 668.181 151.455   1
  13  -2  -2 668.003 147.571   1
  13   2  -2 450.504 152.651   1
  13   2  -2 516.253 158.179   1
  -1  -2  16 1888.98 174.488   1
   1   2 -16 1795.04 165.949   1
  -1  -2  16 1370.61 140.361   1
  -3   3 -13 3659.63 223.078   1
   3  -3  13 3905.28 229.715   1
   1   6   9 1291.70 109.335   1
   1   6   9 1510.71 185.045   1
  -1  -6  -9 1225.90 119.769   1
   1  -6   9 741.072 164.554   1
  -1   6  -9 906.666 171.619   1
  -8  -6   6 4093.58 255.213   1
   8   6  -6 3996.31 250.426   1
   8   6  -6 3444.17 245.174   1
  -8   6   6 2825.65 219.348   1
   8  -6  -6 3238.35 233.018   1
   4  -7   1 237.940 111.353   1
   4  -7   1 232.431 141.171   1
   4   7   1 81.3672 102.282   1
   4   7   1 53.8563 137.459   1
  -4   7  -1 349.419 130.706   1
  -4   7  -1 425.608 136.261   1
  -4  -7  -1 227.815 131.824   1
   2  -7   4 934.864 124.435   1
   2   7   4 927.765 132.723   1
   2   7   4 480.052 150.209   1
   2  -7   4 567.463 160.874   1
  -2  -7  -4 574.253 135.785   1
  -2   7  -4 737.472 163.200   1
  -2   7  -4 552.618 156.215   1
 -11  -4  10 1188.06 175.898   1
 -11  -4  10 1343.37 183.119   1
 -11   4  10 1316.14 157.248   1
  11  -4 -10 1300.95 202.440   1
  11   4 -10 1271.14 177.869   1
 -13   0  12 -70.345 100.770   1
 -13   0  12 197.311 98.4235   1
  13   0 -12 20.1163 109.027   1
   4  -4  11 24224.7 918.143   1
  -4   4 -11 24613.8 938.253   1
   4   4  11 23791.9 836.848   1
   6  -5   7 2553.91 218.176   1
  -6   5  -7 2292.73 250.900   1
   6   5   7 2305.29 132.137   1
   6  -5   7 2540.63 211.453   1
  -6  -5  -7 2435.23 148.424   1
 -13   0   0 85.6176 100.278   1
  13   0   0 170.711 112.579   1
  13   0   0 47.5609 100.580   1
   0   5  12 2125.14 186.153   1
   0   5  12 1705.81 82.5245   1
   0  -5  12 1999.38 217.624   1
   0   5 -12 1464.17 179.904   1
  -8   0  17 182.021 115.663   1
  -8   0  17 120.031 136.528   1
   8   0 -17 330.712 124.285   1
   9  -4 -13 5251.65 292.343   1
  -9   4  13 5785.62 301.631   1
   9   4 -13 6368.33 349.463   1
  -9  -4  13 5691.22 342.955   1
  -9  -4  13 6245.12 315.404   1
   9   4 -13 6131.24 297.055   1
   6   4   9 2453.31 112.368   1
   6   4   9 2800.14 182.460   1
   6  -4   9 3513.77 240.643   1
  -6   4  -9 3331.48 246.590   1
 -14   0   6 2702.18 197.251   1
  14   0  -6 2602.44 213.469   1
 -14   0   6 2707.07 221.487   1
  14   0  -7 -145.71 96.3246   1
 -14   0   7 -24.101 91.3799   1
 -14   0   7 102.846 97.0613   1
  -1   6  10 14617.5 516.335   1
   1  -6 -10 15052.5 522.547   1
  -1   6  10 15249.5 571.822   1
  -1  -6  10 14187.6 587.151   1
   1   6 -10 15206.2 621.130   1
   1   6 -10 14590.0 601.589   1
 -10   0  16 1241.41 189.056   1
  10   0 -16 1415.30 155.406   1
 -10   0  16 1797.75 173.333   1
   5  -3 -16 142.594 64.1354   1
  -5   3  16 38.5337 62.5449   1
  -5   3  16 4.47044 54.2246   1
  -5  -3  16 -27.647 118.296   1
   5   3 -16 113.856 93.5936   1
  -5  -3  16 19.7325 77.6908   1
   5  -6 -10 6636.31 310.835   1
  -5   6  10 6885.32 344.905   1
  -5   6  10 6851.57 310.763   1
   5   6 -10 6691.05 353.833   1
  -5  -6  10 6822.64 354.637   1
   5   6 -10 6277.31 356.113   1
   2  -1  15 942.710 127.415   1
   2  -1  15 1201.83 120.556   1
   2   1  15 1736.71 132.597   1
  -2   1 -15 1018.25 104.237   1
 -11   2  -4 455.993 127.905   1
  11   2   4 37.2548 123.886   1
  11   2   4 116.057 91.9387   1
  11  -2   4 268.908 124.923   1
  11  -2   4 362.802 127.055   1
  -2   0  17 141.760 72.8357   1
   2   0 -17 114.157 73.1539   1
  -2   0  17 114.011 109.082   1
   8   5   4 1695.15 153.387   1
   8   5   4 1404.68 117.209   1
  -8  -5  -4 1881.10 154.204   1
   8  -5   4 1099.65 207.243   1
  -8   5  -4 1712.49 195.794   1
   8  -5   4 1536.69 180.553   1
  11   0   5 7188.48 348.422   1
  11   0   5 8170.24 355.840   1
 -11   0  -5 7962.32 348.607   1
   2  -7  -6 20093.5 769.054   1
  -2   7   6 19138.6 758.410   1
  -2   7   6 21193.6 790.149   1
  -2  -7   6 18278.4 760.009   1
   2   7  -6 18818.7 765.155   1
   2   7  -6 18394.7 810.312   1
   1   7   5 4633.42 247.070   1
   1  -7   5 3240.84 267.378   1
   1   7   5 4547.61 263.716   1
  -1   7  -5 3464.59 263.436   1
  -1  -7  -5 4175.57 248.177   1
  -1   7  -5 3343.86 266.702   1
   3   7   3 1590.27 197.769   1
   3  -7   3 2035.24 207.447   1
   3   7   3 1692.86 168.360   1
   3  -7   3 1742.64 161.013   1
  -3   7  -3 1644.66 199.990   1
  -3  -7  -3 1900.07 179.154   1
  -3   7  -3 1998.81 203.752   1
 -11  -4   0 21.1284 103.494   1
  11   4   0 -68.422 102.163   1
  11  -4   0 201.855 118.550   1
  11  -4   0 235.744 111.594   1
 -11   4   0 146.478 116.480   1
  -8  -6   1 4078.02 232.193   1
   8   6  -1 4103.05 227.788   1
  -8   6   1 3922.62 265.829   1
   8  -6  -1 4548.67 258.150   1
   8  -6  -1 4024.92 272.775   1
  -7  -6  -2 -32.731 95.2000   1
   7   6   2 187.631 101.736   1
   7  -6   2 35.3677 113.753   1
  -7   6  -2 252.075 128.930   1
   7  -6   2 114.825 113.460   1
   4   7  -5 167.290 138.407   1
  -4   7   5 274.125 136.682   1
  -4   7   5 41.8992 141.545   1
   4  -7  -5 286.683 122.786   1
  -4  -7   5 137.191 143.266   1
   4   7  -5 390.235 144.160   1
  10   5  -8 4898.66 293.280   1
 -10  -5   8 5095.01 293.381   1
 -10   5   8 4422.71 264.071   1
  10  -5  -8 4423.69 276.975   1
   4  -3 -16 563.711 75.7332   1
  -4   3  16 762.994 85.0842   1
  -4   3  16 778.114 75.8018   1
   4   3 -16 519.816 155.004   1
  -4  -3  16 555.134 136.744   1
  -4  -3  16 447.954 131.455   1
 -10   4  12 4030.98 249.061   1
  10  -4 -12 4152.64 239.440   1
  10   4 -12 3851.34 249.205   1
 -10  -4  12 3907.37 257.638   1
  10   4 -12 3932.48 272.147   1
 -10  -4  12 3981.92 280.554   1
  12   0 -14 27694.3 1033.97   1
 -12   0  14 26932.9 1000.73   1
 -12   0  14 27235.6 1036.79   1
  -4   5  13 2509.04 170.307   1
  -4   5  13 2108.11 136.408   1
   4  -5 -13 2396.88 148.330   1
  -4  -5  13 2222.20 204.102   1
   4   5 -13 1738.20 176.682   1
   4   5 -13 2182.02 218.339   1
  -1   7   6 3758.30 259.280   1
   1  -7  -6 3873.66 249.841   1
   1   7  -6 5214.87 300.215   1
   1   7  -6 5461.34 316.591   1
  -1   7   6 3535.34 235.409   1
  -1  -7   6 4621.34 295.257   1
  10   3 -14 379.391 143.118   1
  10   3 -14 328.578 105.754   1
 -10   3  14 445.035 125.660   1
 -10  -3  14 148.250 147.728   1
 -10  -3  14 400.497 129.834   1
  10  -3 -14 549.305 132.816   1
 -14   0   5 116.171 98.9123   1
  14   0  -5 61.6025 110.945   1
  14   0  -5 33.1970 100.179   1
 -14   0   5 18.8247 105.313   1
 -14   0   8 3917.37 248.382   1
 -14   0   8 3418.16 240.123   1
  14   0  -8 3416.22 246.424   1
   6  -6   4 327.942 138.919   1
   6  -6   4 154.256 138.386   1
  -6  -6  -4 243.877 98.8925   1
  -6   6  -4 376.372 136.615   1
  -9  -5  -2 133.464 106.612   1
   9   5   2 277.802 103.797   1
   9  -5   2 382.154 131.396   1
  -9   5  -2 348.230 131.144   1
   9  -5   2 341.382 129.808   1
 -11   1  15 339.276 114.975   1
 -11  -1  15 330.721 148.770   1
  11  -1 -15 456.291 126.195   1
 -11  -1  15 431.321 128.781   1
 -11   1  15 715.599 147.276   1
  11   1 -15 298.356 129.540   1
   8   3   8 692.430 88.8542   1
   8   3   8 498.490 132.270   1
   8  -3   8 164.959 163.125   1
  -8   3  -8 420.842 143.795   1
  12   3 -11 4691.09 298.310   1
  12  -3 -11 5831.78 306.975   1
 -12  -3  11 4639.96 313.853   1
 -12  -3  11 4480.96 294.819   1
 -12   3  11 5388.07 301.649   1
   3  -5 -13 15927.1 521.968   1
  -3   5  13 15354.9 508.548   1
  -3   5  13 15370.4 566.521   1
   3   5 -13 13431.2 576.428   1
  -3  -5  13 12643.6 540.563   1
   3   5 -13 13775.2 562.894   1
 -10   2  -6 728.397 147.090   1
  10   2   6 667.667 147.086   1
  10   2   6 907.112 118.065   1
  10  -2   6 945.345 160.812   1
  10  -2   6 1058.96 147.552   1
 -10  -5   1 3052.94 222.369   1
  10   5  -1 2935.05 208.448   1
  10  -5  -1 2514.26 212.971   1
 -10   5   1 2597.03 233.288   1
  10  -5  -1 2682.30 214.746   1
   6  -3 -16 977.261 106.497   1
  -6  -3  16 735.141 154.567   1
  -6  -3  16 470.177 141.879   1
   6   3 -16 567.529 167.916   1
   8   2   9 30469.8 1130.81   1
   8  -2   9 30930.7 1134.07   1
   8  -2   9 32670.4 1231.50   1
  -8   2  -9 30991.1 1126.85   1
   8   2   9 30229.5 1006.08   1
  12   0   3 78.2098 99.6379   1
 -12   0  -3 66.4288 99.7727   1
  12   0   3 41.3556 95.3658   1
  -3   7   6 4882.63 282.282   1
   3  -7  -6 4712.57 289.166   1
   3   7  -6 2872.97 304.663   1
  -3   7   6 4897.33 277.762   1
   3   7  -6 2764.32 260.572   1
  -3  -7   6 3063.59 271.518   1
   2   5  11 887.408 98.8935   1
   2  -5  11 1376.00 161.560   1
  -2   5 -11 1257.18 196.526   1
  -5   7   2 44290.4 1699.60   1
  -5   7   2 46370.9 1762.77   1
   5   7  -2 50155.2 1898.25   1
   5  -7  -2 49342.8 1743.24   1
   5   7  -2 47735.6 1766.93   1
   5  -7  -2 46661.8 1771.41   1
  -5  -7   2 48633.9 1811.69   1
   6   0  12 2833.32 150.609   1
  -6   0 -12 2893.47 136.414   1
   6   0  12 2468.29 103.210   1
   5  -5 -13 811.178 119.598   1
  -5   5  13 818.556 123.579   1
  -5   5  13 757.734 114.125   1
   5   5 -13 647.524 133.432   1
   5   5 -13 1112.03 165.215   1
  -5  -5  13 1024.66 152.412   1
  12  -3   0 5701.17 309.241   1
  12   3   0 6076.44 302.274   1
  12   3   0 5667.47 298.987   1
 -12   3   0 6041.95 315.727   1
 -12  -3   0 5780.95 303.249   1
  12  -3   0 5415.71 323.282   1
   5  -7  -3 124.388 86.8759   1
   5   7  -3 133.271 138.023   1
  -5   7   3 118.036 126.667   1
  -5  -7   3 301.265 125.570   1
  -5   7   3 8.94657 126.575   1
   5  -7  -3 104.430 126.024   1
   3  -4  12 25966.7 945.637   1
  -3   4 -12 26330.4 968.153   1
 -13   1  12 685.845 138.392   1
 -13  -1  12 603.361 180.403   1
 -13   1  12 725.875 167.882   1
  13  -1 -12 614.960 155.486   1
  13   1 -12 509.397 152.218   1
 -13  -1  12 512.258 145.740   1
 -13  -1   0 13620.7 533.159   1
 -13   1   0 13933.0 464.411   1
 -13   1   0 13780.6 564.965   1
  13   1   0 13052.1 512.945   1
  13  -1   0 13134.9 555.478   1
  13   1   0 13034.7 538.732   1
  13  -1   0 13459.3 545.762   1
  -8   1  17 5170.47 296.775   1
   8   1 -17 4825.32 299.682   1
  -8  -1  17 5246.97 291.154   1
  -8   1  17 5525.49 272.042   1
  -8  -1  17 4939.24 294.292   1
   8  -1 -17 5365.14 275.691   1
  12  -2 -13 2834.07 224.957   1
  12   2 -13 3751.80 256.263   1
 -12  -2  13 3960.15 251.594   1
 -12  -2  13 3418.56 261.596   1
 -12   2  13 2884.57 253.685   1
 -12   2  13 2812.29 234.666   1
 -11  -3  13 88.4706 90.6645   1
 -11   3  13 21.8767 95.1383   1
  11   3 -13 -19.336 97.8555   1
  11  -3 -13 -69.613 81.8903   1
 -11  -3  13 68.2047 102.230   1
   0  -3  15 6546.48 310.456   1
   0  -3  15 6621.42 314.102   1
   0   3 -15 6299.25 314.029   1
  -8  -6   7 1857.12 205.542   1
   8   6  -7 1877.03 194.449   1
   8   6  -7 1814.09 201.956   1
  -8   6   7 2346.76 191.452   1
   8  -6  -7 2159.02 190.424   1
 -14  -1   6 2356.92 198.482   1
 -14   1   6 1559.97 193.821   1
 -14   1   6 1699.82 159.718   1
 -14  -1   6 1978.45 179.907   1
  14   1  -6 1816.87 180.327   1
  14  -1  -6 1667.67 190.549   1
  14  -1  -6 1772.38 202.085   1
   3  -2  14 606.656 97.0100   1
  -3   2 -14 479.280 122.899   1
   3  -2  14 505.967 127.151   1
  -9   2  16 2848.13 187.996   1
   9   2 -16 2038.33 197.582   1
   9  -2 -16 3001.29 196.031   1
  -9  -2  16 1883.29 204.978   1
  -9   2  16 2853.89 221.308   1
  -9  -2  16 2479.23 227.261   1
  14   1  -7 208.170 113.399   1
  14  -1  -7 55.2212 119.123   1
 -14   1   7 95.4057 104.127   1
 -14   1   7 162.620 124.639   1
 -14  -1   7 89.7236 115.672   1
 -14  -1   7 265.641 120.935   1
   5   0  13 275.304 59.4377   1
   5   0  13 389.890 71.4389   1
  -5   0 -13 216.950 60.2702   1
   7   4   8 349.821 99.5226   1
   7  -4   8 332.832 145.369   1
  -7  -4  -8 229.190 66.8521   1
   7  -4   8 312.956 119.499   1
  -7   4  -8 321.072 128.755   1
   7   4   8 286.597 74.6728   1
   8  -4 -14 9354.88 390.991   1
  -8   4  14 8989.50 377.032   1
   8   4 -14 9498.82 450.925   1
   8   4 -14 9361.66 371.056   1
  -8  -4  14 9981.86 437.534   1
  -8  -4  14 9909.74 455.721   1
   5  -7  -1 9994.25 488.361   1
   5   7  -1 11463.7 521.079   1
   5  -7  -1 11410.5 452.124   1
  -5   7   1 10363.3 488.107   1
  -5   7   1 10572.0 487.814   1
  -5  -7   1 11101.5 478.456   1
   5   7  -1 11457.3 515.435   1
  10   4   3 7644.55 329.542   1
 -10  -4  -3 7761.49 330.011   1
  10   4   3 8018.55 339.620   1
  10  -4   3 8601.31 432.832   1
  10  -4   3 8181.86 405.821   1
 -10   4  -3 8593.83 401.564   1
  -5  -2  17 -12.616 120.833   1
  -5   2  17 82.1961 61.0857   1
   5   2 -17 76.0405 109.338   1
   5  -2 -17 29.7810 67.9743   1
  -5  -2  17 212.199 97.6447   1
 -10   1  16 5724.41 319.105   1
 -10   1  16 5646.24 298.658   1
 -10  -1  16 6343.47 303.583   1
 -10  -1  16 6180.04 333.051   1
  10   1 -16 6309.10 311.214   1
  10  -1 -16 5519.67 311.403   1
   7   0  11 1573.12 175.892   1
   7   0  11 1307.76 112.837   1
  -7   0 -11 1552.82 125.524   1
  -3   3  16 529.026 50.4423   1
  -3   3  16 487.261 88.3774   1
  -3  -3  16 272.468 115.769   1
  -3  -3  16 246.553 128.058   1
  -9  -4  -5 18553.9 663.789   1
   9  -4   5 19762.8 790.290   1
  -9   4  -5 19436.8 754.157   1
   9   4   5 18656.3 670.002   1
   9   4   5 18691.3 669.186   1
   2  -1 -17 64.1643 50.3038   1
  -2  -1  17 130.564 92.0127   1
   2   1 -17 191.470 91.4626   1
  -2   1  17 147.540 109.869   1
  -2   1  17 89.8678 55.0979   1
  -2  -1  17 60.8256 110.452   1
  11  -1   5 1295.44 148.697   1
  11   1   5 813.492 123.361   1
 -11  -1  -5 660.146 127.342   1
  11  -1   5 1085.90 161.573   1
 -11   1  -5 1052.33 148.633   1
  11   1   5 744.154 137.559   1
   0   7  -6 1638.31 202.417   1
   0   7  -6 1761.53 201.531   1
   0   7   6 2058.30 179.892   1
   0  -7   6 1973.56 212.917   1
   0   7   6 2352.64 205.580   1
   0  -7  -6 2170.47 179.173   1
  -9  -3  15 7215.10 347.499   1
  -9   3  15 8854.91 363.722   1
   9  -3 -15 8662.73 365.830   1
  -9  -3  15 6425.17 357.108   1
   9   3 -15 6701.28 358.631   1
  14   0  -4 3338.47 226.965   1
 -14   0   4 3452.91 237.596   1
  14   0  -4 3502.57 252.915   1
 -14   0   4 3462.83 211.602   1
 -12   2  -2 1673.41 173.846   1
  12  -2   2 1612.99 195.723   1
  12  -2   2 1476.33 196.371   1
  12   2   2 1766.14 183.642   1
  12   2   2 1844.39 165.253   1
   4  -7   2 611.458 162.562   1
  -4   7  -2 653.338 153.746   1
  -4  -7  -2 390.571 141.249   1
   4  -7   2 473.561 122.472   1
   4   7   2 367.924 135.234   1
  -4   7  -2 744.642 157.894   1
   4   7   2 482.485 157.941   1
  10   0   7 128.649 110.005   1
 -10   0  -7 56.3335 90.5957   1
  10   0   7 102.072 98.2667   1
  -5  -7   4 560.694 162.407   1
  -5   7   4 1097.86 161.750   1
  -5   7   4 1165.81 177.330   1
   5   7  -4 487.855 172.783   1
   5  -7  -4 744.051 131.629   1
   5  -7  -4 1227.05 197.825   1
 -14   0   9 78.5236 102.214   1
  14   0  -9 -50.652 104.292   1
 -14   0   9 44.1238 98.5006   1
 -12  -4   6 154.909 112.175   1
 -12   4   6 135.447 119.635   1
  12   4  -6 71.0016 113.136   1
  12  -4  -6 57.9687 120.786   1
  12  -4  -6 57.9268 116.547   1
 -12  -1  14 1277.56 157.156   1
 -12  -1  14 505.706 161.054   1
  12   1 -14 487.630 151.987   1
  12  -1 -14 630.534 147.559   1
 -12   1  14 630.776 155.129   1
 -12   1  14 689.499 142.063   1
 -13  -3   6 133.736 106.691   1
 -13   3   6 151.358 110.689   1
  13   3  -6 -22.315 104.562   1
  13  -3  -6 -9.0799 116.496   1
  13  -3  -6 85.9761 113.320   1
 -13  -3   6 58.3990 89.7250   1
  12   4  -5 993.799 146.937   1
 -12  -4   5 722.788 145.920   1
 -12   4   5 -50.959 148.402   1
  12  -4  -5 400.437 153.419   1
  12  -4  -5 476.719 150.373   1
  10   3   5 23322.5 876.598   1
  10  -3   5 22852.5 907.425   1
  10  -3   5 22195.9 878.112   1
  10   3   5 24737.5 869.367   1
 -10   3  -5 22656.6 858.711   1
 -10  -3  -5 24970.2 875.102   1
  -6   2  17 2336.32 200.080   1
  -6  -2  17 2350.97 196.229   1
  -6  -2  17 2755.35 196.210   1
   6  -2 -17 1998.16 156.472   1
   6   2 -17 2594.55 218.567   1
  -6   2  17 2194.35 157.308   1
 -14  -1   5 801.629 140.764   1
  14   1  -5 690.727 133.010   1
  14  -1  -5 325.843 135.482   1
 -14   1   5 280.289 121.100   1
 -14  -1   5 731.457 146.876   1
 -14   1   5 201.924 147.739   1
  14  -1  -5 157.163 145.100   1
  -7   5  -6 1083.08 213.117   1
   7   5   6 1263.45 122.927   1
   7  -5   6 1203.45 164.933   1
   7  -5   6 1153.36 211.614   1
   7   5   6 1255.03 102.632   1
  -7  -5  -6 1416.93 119.381   1
  14  -1  -8 4446.66 272.076   1
 -14   1   8 4360.18 280.954   1
  14   1  -8 4686.45 268.721   1
 -14  -1   8 4415.07 277.157   1
 -14  -1   8 4642.38 282.330   1
 -14   1   8 3845.58 254.407   1
  -2   5  13 36.6487 52.4506   1
  -2   5  13 65.5849 84.3652   1
   2  -5 -13 23.9033 46.6468   1
  -2  -5  13 9.26186 97.9045   1
   2   5 -13 69.2929 131.915   1
  -7   6   9 2354.28 211.860   1
  -7   6   9 2633.89 203.308   1
   7  -6  -9 2363.27 217.281   1
  -7  -6   9 2726.75 226.877   1
   7   6  -9 2825.29 243.009   1
   7   6  -9 2850.89 235.938   1
   4  -2 -17 1784.92 114.816   1
   4   2 -17 1650.42 177.859   1
  -4   2  17 2073.10 127.877   1
  -4   2  17 1684.71 87.5735   1
  -4  -2  17 1788.71 191.212   1
  -4  -2  17 1812.43 161.526   1
  11  -3   3 17354.6 698.720   1
  11  -3   3 16727.3 655.715   1
  11   3   3 16784.1 627.687   1
 -11   3  -3 16292.0 691.654   1
 -11  -3  -3 17375.2 634.575   1
  11   3   3 16493.6 640.776   1
 -13  -3   7 215.254 151.210   1
 -13   3   7 669.433 150.289   1
 -13  -3   7 471.145 140.439   1
  13   3  -7 322.943 137.469   1
  13  -3  -7 718.586 154.066   1
  13  -3  -7 469.621 151.853   1
  13   3  -5 991.575 149.987   1
  13  -3  -5 1022.56 165.636   1
 -13   3   5 1134.40 169.829   1
 -13  -3   5 598.056 152.962   1
  13  -3  -5 763.807 167.163   1
  -4   4  15 89.8507 69.7940   1
  -4   4  15 22.1208 56.4057   1
   4  -4 -15 -8.0103 43.7712   1
  -4  -4  15 228.785 111.849   1
  -4  -4  15 130.902 94.0468   1
   4   4 -15 96.7352 122.720   1
   8   6   0 1173.81 155.724   1
  -8  -6   0 1137.14 153.883   1
  -8   6   0 752.191 169.425   1
   8  -6   0 823.036 175.207   1
   8  -6   0 895.723 161.347   1
 -13  -2  11 5986.56 355.081   1
 -13  -2  11 5774.42 332.118   1
 -13   2  11 7126.69 350.736   1
 -13   2  11 7238.71 379.284   1
  13   2 -11 6700.08 360.197   1
  13  -2 -11 6959.59 357.937   1
   5  -4 -15 58.1145 75.8476   1
  -5   4  15 25.9329 74.1263   1
  -5   4  15 1.83642 63.9185   1
   5   4 -15 224.037 109.369   1
  -5  -4  15 160.661 131.500   1
  -5  -4  15 331.759 120.014   1
  13  -2  -1 679.216 149.989   1
 -13   2   1 413.715 72.9201   1
 -13   2   1 531.723 144.624   1
  13   2  -1 460.021 140.850   1
  13  -2  -1 807.136 140.915   1
  13   2  -1 452.191 132.633   1
  -4  -6  -7 -6.2182 62.1180   1
   4  -6   7 48.7635 91.9006   1
   4   6   7 111.982 99.7195   1
   4   6   7 -40.579 61.3265   1
  -4   6  -7 55.2480 97.5107   1
  -2   3 -14 4321.78 255.969   1
   2  -3  14 4370.40 254.749   1
  12   1   3 411.610 131.728   1
  12   1   3 704.899 135.833   1
 -12   1  -3 476.063 142.943   1
 -12  -1  -3 458.433 128.214   1
  12  -1   3 539.114 140.017   1
  12  -1   3 592.547 140.272   1
   0   6  10 2271.05 214.587   1
   0  -6 -10 2247.42 139.961   1
   0   6  10 2443.53 141.169   1
   0   6 -10 1781.77 184.395   1
   0   6 -10 1870.29 209.962   1
   0  -6  10 2049.67 194.424   1
  -3  -6  -8 4843.15 228.652   1
   3   6   8 5226.98 300.536   1
   3   6   8 4919.38 227.638   1
   3  -6   8 4223.88 277.256   1
  -3   6  -8 4882.44 294.660   1
  12   4  -7 1734.78 186.785   1
  12  -4  -7 1575.80 200.288   1
 -12   4   7 1679.83 203.556   1
  12  -4  -7 2102.12 198.280   1
 -12  -4   7 1906.47 195.161   1
   6   1  12 1074.93 78.2668   1
   6   1  12 1057.84 80.2747   1
   6  -1  12 1886.70 138.888   1
  -6   1 -12 1831.77 138.271   1
  -7   3  16 2127.97 141.610   1
   7  -3 -16 2017.09 161.550   1
  -7  -3  16 1764.84 184.463   1
   7   3 -16 1922.98 190.089   1
  -7  -3  16 1905.46 176.477   1
   4   7  -6 4734.27 299.023   1
   4   7  -6 4776.78 305.976   1
   4  -7  -6 4503.59 289.582   1
  -4  -7   6 4897.94 304.544   1
  -4   7   6 4987.71 298.763   1
  -4   7   6 4526.23 256.895   1
  12   4  -4 4229.05 255.082   1
 -12  -4   4 4007.72 252.512   1
  12  -4  -4 3630.61 263.584   1
  12  -4  -4 3808.80 273.384   1
 -12   4   4 3773.18 267.907   1
  -6   6  10 5062.71 270.217   1
  -6   6  10 4912.14 258.845   1
   6  -6 -10 5065.59 276.188   1
  -6  -6  10 5197.98 308.109   1
   6   6 -10 5338.58 327.525   1
   6   6 -10 5890.12 319.591   1
  -6   5  13 3137.34 190.251   1
   6  -5 -13 2982.93 189.321   1
  -6   5  13 3202.70 202.446   1
   6   5 -13 2824.50 240.552   1
  -6  -5  13 3110.98 223.954   1
   6   5 -13 2967.69 205.793   1
   5  -7   0 13.0923 73.7031   1
   5  -7   0 -141.46 104.445   1
   5   7   0 193.478 106.804   1
   5   7   0 -69.668 95.6497   1
  -5   7   0 -90.665 100.179   1
  -5   7   0 40.6907 97.5752   1
  -5  -7   0 -28.042 80.5270   1
   0   4  14 39.9236 96.8675   1
   0  -4  14 225.724 113.760   1
   0   4 -14 339.732 122.255   1
 -10   5   9 3382.53 252.964   1
  10   5  -9 1875.05 214.634   1
  10  -5  -9 3527.18 232.480   1
 -10  -5   9 1902.06 214.283   1
  10   5  -9 2041.88 221.262   1
  -1   0 -16 11.2990 41.0136   1
   1   0  16 31.3877 62.8291   1
   1   0  16 10.9942 47.4063   1
   4   0  14 6151.50 229.369   1
   4   0  14 5680.09 226.041   1
  -4   0 -14 6411.91 222.941   1
   5   1  13 6643.08 253.105   1
  -5   1 -13 7316.57 289.051   1
   7  -1  11 2154.35 203.972   1
  -7   1 -11 2123.28 158.462   1
   7   1  11 1856.78 177.500   1
  -7  -1 -11 1910.89 109.863   1
   7   1  11 1790.17 118.903   1
   7  -1  11 2218.91 165.160   1
   2  -7   5 981.840 179.058   1
   2   7   5 1175.16 138.825   1
   2   7   5 1162.15 164.954   1
  -2  -7  -5 1066.95 147.868   1
  -2   7  -5 759.877 167.400   1
  -2   7  -5 637.528 163.936   1
  11   4 -11 281.344 142.895   1
 -11  -4  11 184.568 134.479   1
 -11  -4  11 251.207 135.197   1
  11  -4 -11 134.669 147.889   1
 -11   4  11 254.232 112.634   1
 -13   3   8 2102.06 205.099   1
  13  -3  -8 2078.25 217.491   1
 -13  -3   8 2172.46 243.183   1
  13   3  -8 2501.83 207.566   1
 -13  -3   8 2254.51 215.485   1
  13   3  -4 2175.21 182.043   1
 -13  -3   4 1696.32 179.854   1
 -13   3   4 1716.16 196.292   1
  13  -3  -4 1493.73 195.684   1
  13  -3  -4 1742.05 188.268   1
  -3   4  15 825.219 106.016   1
  -3   4  15 533.504 61.9382   1
   3   4 -15 155.438 124.543   1
  -3  -4  15 174.313 142.115   1
  -3  -4  15 173.990 143.714   1
   8   0  10 649.171 155.203   1
  -8   0 -10 867.849 105.852   1
   8   0  10 564.439 99.6993   1
  -9   0  17 2553.22 210.353   1
  -9   0  17 2514.88 212.038   1
   9   0 -17 2503.40 209.604   1
   8  -5 -12 3828.18 244.603   1
  -8   5  12 3822.59 237.847   1
  -8  -5  12 4289.60 271.225   1
   8   5 -12 4048.44 244.746   1
   8   5 -12 3830.94 279.756   1
   5   7  -5 37172.2 1477.40   1
   5  -7  -5 38963.3 1488.86   1
  -5  -7   5 37983.2 1437.67   1
  -5   7   5 37138.5 1382.03   1
  -5   7   5 37115.1 1421.74   1
   5  -6   6 470.903 162.447   1
   5  -6   6 779.427 172.593   1
  -5   6  -6 244.187 160.951   1
  -5  -6  -6 890.243 116.583   1
   5   6   6 1053.32 114.622   1
  14  -1  -4 7824.91 403.770   1
 -14  -1   4 9980.99 427.148   1
  14   1  -4 9539.83 416.359   1
  14  -1  -4 9286.39 410.524   1
  14   1  -4 9569.35 426.152   1
 -14   1   4 8840.79 366.009   1
 -14   1   4 8446.72 403.113   1
 -14  -1   4 9478.76 424.022   1
   6  -4 -15 1251.69 127.101   1
  -6   4  15 1013.01 108.913   1
  -6   4  15 1234.47 122.428   1
  -6  -4  15 1387.58 173.388   1
   6   4 -15 1124.30 177.928   1
  -6  -4  15 1068.06 148.898   1
   6   4 -15 1358.67 126.232   1
  -3   7  -4 174.281 128.599   1
   3  -7   4 292.451 113.078   1
  -3   7  -4 109.683 133.117   1
  -3  -7  -4 264.786 112.155   1
   3  -7   4 410.671 140.195   1
   3   7   4 190.723 132.612   1
   3   7   4 201.029 110.872   1
 -10  -1  -7 2406.97 168.242   1
 -10   1  -7 2640.39 185.143   1
  10  -1   7 2245.59 181.651   1
  10   1   7 1919.76 183.340   1
  10   1   7 2330.23 167.015   1
  10  -1   7 2374.72 208.029   1
 -14   1   9 511.205 145.317   1
  14   1  -9 488.285 137.648   1
  14  -1  -9 420.196 152.715   1
 -14  -1   9 282.227 108.100   1
 -14  -1   9 370.158 158.002   1
 -14   1   9 413.427 141.540   1
   7  -2 -17 2650.48 188.941   1
   7   2 -17 3318.08 250.695   1
  -7   2  17 2414.01 215.550   1
  -7   2  17 2768.67 181.446   1
  -7  -2  17 2949.20 217.438   1
  -7  -2  17 3453.63 224.084   1
  -9   5  11 30442.7 1134.69   1
   9  -5 -11 29122.3 1104.96   1
   9   5 -11 31039.0 1138.97   1
  -9  -5  11 29833.3 1141.96   1
   9   5 -11 29920.3 1173.22   1
 -10  -5   0 183.639 106.336   1
  10   5   0 -15.719 102.766   1
 -10   5   0 -56.497 120.388   1
  10  -5   0 223.031 119.265   1
  10  -5   0 271.732 136.886   1
  -1   0  17 13.4807 45.8917   1
  -1   0  17 42.6102 66.7191   1
   1   0 -17 -23.087 36.3785   1
  -3  -2  17 1594.02 183.272   1
  -3  -2  17 2009.27 162.031   1
 -14   0   3 -37.766 77.4305   1
  14   0  -3 25.5569 94.5316   1
  14   0  -3 -16.786 98.5418   1
 -14   0   3 -62.789 98.4748   1
   2   6   9 89.5170 71.9659   1
   2   6   9 -31.119 135.695   1
  -2  -6  -9 85.1740 72.2295   1
  -2   6  -9 274.223 117.533   1
   2  -6   9 128.546 117.025   1
   0   2 -16 243.396 95.4066   1
   0  -2  16 82.0324 101.913   1
   0  -2  16 278.620 111.293   1
   2  -7  -7 150.577 100.143   1
  -2   7   7 -117.50 102.906   1
  -2   7   7 70.9759 93.7337   1
   2   7  -7 53.5138 111.805   1
  -2  -7   7 57.8622 112.375   1
   2   7  -7 -0.3103 111.474   1
  12  -4  -8 3230.06 238.808   1
  12   4  -8 2758.44 223.232   1
 -12   4   8 3052.93 225.759   1
 -12  -4   8 2366.99 226.389   1
   2  -4  13 112.249 115.716   1
  -2   4 -13 82.6744 118.196   1
  11   4   1 79.4574 102.657   1
 -11  -4  -1 89.5229 109.436   1
  11   4   1 186.753 112.229   1
  11  -4   1 31.3398 127.762   1
  11  -4   1 138.447 121.346   1
 -11   4  -1 442.726 124.881   1
  14   0 -10 177.493 132.203   1
 -14   0  10 206.069 124.070   1
 -14   0  10 326.467 141.085   1
  -8   6   8 15079.6 580.813   1
   8  -6  -8 15382.5 602.927   1
  -8  -6   8 15960.0 657.599   1
   8   6  -8 15104.9 636.344   1
   8   6  -8 15993.5 656.019   1
  -2   3  16 815.685 104.741   1
  -2  -3  16 602.810 135.111   1
   2   3 -16 627.726 142.373   1
  -2  -3  16 504.322 139.756   1
   1   5  12 4515.07 272.149   1
   1  -5  12 4177.41 292.414   1
  -1   5 -12 3678.24 253.132   1
   9   2   8 1018.88 114.352   1
   9  -2   8 792.772 174.934   1
   9   2   8 1239.40 164.330   1
   9  -2   8 1173.44 153.935   1
  -9   2  -8 605.214 146.676   1
  -9  -2  -8 1019.61 117.412   1
 -13   0  13 3313.79 249.149   1
  13   0 -13 3804.00 247.412   1
  -3   6  11 16999.6 673.691   1
  -3   6  11 17714.4 632.479   1
   3  -6 -11 17482.4 634.340   1
   3   6 -11 17480.0 719.702   1
   3   6 -11 17201.2 701.375   1
  -3  -6  11 16973.5 685.286   1
  12   4  -3 822.504 191.483   1
 -12  -4   3 890.847 195.613   1
  12  -4  -3 1596.60 189.524   1
  12  -4  -3 1487.73 182.622   1
 -12   4   3 1470.83 185.562   1
  -7  -6  -3 5497.97 277.108   1
   7   6   3 5787.62 287.470   1
   7  -6   3 5563.72 313.597   1
   7  -6   3 5216.21 319.192   1
  -7   6  -3 6168.91 341.740   1
 -13   0  -1 6245.70 303.768   1
  13   0   1 6040.48 323.896   1
  13   0   1 6283.76 300.368   1
   9  -3   7 17349.2 716.958   1
   9   3   7 16038.1 618.329   1
  -9   3  -7 17871.0 715.752   1
   9  -3   7 16861.1 668.372   1
  -9  -3  -7 15259.2 541.398   1
   9   3   7 14452.5 510.780   1
  -1   7  -6 3487.32 257.445   1
  -1  -7  -6 3468.29 217.570   1
   1   7   6 3046.46 197.611   1
   1  -7   6 3517.17 266.822   1
   1   7   6 3498.57 241.618   1
  -1   7  -6 3220.91 246.390   1
  -4   6  11 1966.73 151.173   1
  -4   6  11 1768.12 184.772   1
   4  -6 -11 1872.26 154.011   1
  -4  -6  11 1358.25 190.700   1
   4   6 -11 1447.80 195.797   1
   8   4   7 1952.93 165.145   1
   8   4   7 1664.35 133.834   1
   8  -4   7 2352.49 198.347   1
   8  -4   7 1633.68 212.928   1
  -8  -4  -7 1621.16 130.279   1
  -8   4  -7 2361.02 194.317   1
   3  -7  -7 1631.22 181.734   1
  -3   7   7 1483.51 179.534   1
  -3   7   7 1600.49 184.978   1
  -3  -7   7 1484.16 203.839   1
   3   7  -7 1913.11 198.034   1
   3   7  -7 1949.56 204.693   1
  -1   7   7 4124.35 235.048   1
  -1   7   7 3955.09 252.165   1
   1  -7  -7 3901.50 242.387   1
  -1  -7   7 4179.17 283.212   1
   1   7  -7 4401.09 276.621   1
   1   7  -7 3811.72 272.326   1
   1  -1  16 25.2196 67.6021   1
  -1   1 -16 54.3258 81.0638   1
   1  -1  16 56.6403 89.0686   1
   1   1  16 154.682 75.8161   1
   5   7   1 6334.64 329.131   1
   5   7   1 5957.84 358.491   1
   5  -7   1 6561.61 370.757   1
   5  -7   1 7208.98 329.554   1
  -5  -7  -1 5937.66 325.279   1
  -5   7  -1 7339.70 381.074   1
  -5   7  -1 7377.26 372.408   1
  -1   5  13 26180.3 950.578   1
  -1  -5  13 22782.6 868.777   1
   1   5 -13 22682.2 875.987   1
   4  -1  14 6354.73 262.572   1
  -4   1 -14 6460.75 275.860   1
   4   1  14 6961.83 267.948   1
   4  -1  14 6203.66 258.028   1
 -12   3  12 1736.51 179.939   1
  12  -3 -12 1962.07 219.771   1
 -12  -3  12 1832.81 196.179   1
 -12  -3  12 1574.41 215.499   1
  12   3 -12 1905.42 207.512   1
   4  -7   3 437.828 154.872   1
   4   7   3 341.416 123.159   1
   4  -7   3 235.983 121.085   1
  -4  -7  -3 273.801 123.453   1
  -4   7  -3 361.189 140.827   1
  -4   7  -3 235.089 142.636   1
   4   7   3 546.294 145.334   1
  -2   6  11 211.834 89.8470   1
  -2   6  11 26.8512 75.3842   1
   2  -6 -11 10.5727 76.5919   1
   2   6 -11 102.756 119.875   1
   2   6 -11 -29.328 123.398   1
  -2  -6  11 178.463 118.845   1
   2  -2  15 6426.66 296.774   1
   2  -2  15 6165.68 282.744   1
  -2   2 -15 6095.54 290.312   1
  -8   1 -10 154.922 104.887   1
   8   1  10 226.712 121.964   1
   8  -1  10 155.788 135.119   1
   8   1  10 360.275 84.6517   1
   8  -1  10 171.024 108.671   1
  -8  -1 -10 289.361 73.5649   1
   9   1 -17 150.018 130.419   1
  -9  -1  17 108.495 118.117   1
  -9   1  17 130.057 121.484   1
  -9  -1  17 222.824 127.347   1
  -9   1  17 265.102 110.110   1
   9  -1 -17 90.2417 112.798   1
  13  -3  -9 7488.23 391.059   1
  13   3  -9 7747.99 386.234   1
 -13  -3   9 7396.23 381.111   1
 -13  -3   9 7757.53 429.999   1
 -13   3   9 7411.69 380.303   1
 -13  -3   3 185.129 120.145   1
  13   3  -3 416.906 128.775   1
 -13   3   3 432.155 141.393   1
  13  -3  -3 522.416 144.682   1
  13  -3  -3 384.092 138.842   1
   9   5   3 1326.91 146.196   1
  -9  -5  -3 1504.26 169.081   1
   9  -5   3 1560.38 183.163   1
   9  -5   3 1611.12 186.684   1
  -9   5  -3 1412.73 191.695   1
  12  -3   1 1201.94 170.167   1
  12   3   1 1184.10 166.335   1
 -12  -3  -1 1385.57 162.380   1
  12   3   1 1323.29 158.405   1
  12  -3   1 1174.42 181.438   1
 -12   3  -1 956.299 171.366   1
   8   6   1 1898.99 178.367   1
  -8  -6  -1 1665.31 169.960   1
  -8   6  -1 2074.65 221.396   1
   8  -6   1 1950.61 211.439   1
   8  -6   1 1692.56 192.781   1
  -2   4  15 455.407 115.054   1
  -2  -4  15 465.161 140.027   1
  -2  -4  15 635.275 145.067   1
   2   4 -15 490.760 151.002   1
   1   1 -17 12857.2 458.628   1
  -1   1  17 11920.6 481.165   1
  -1  -1  17 12232.9 486.258   1
  -1  -1  17 12593.3 452.350   1
 -11   2  15 1505.43 182.571   1
  11   2 -15 1056.38 98.4812   1
  11  -2 -15 1628.96 183.531   1
 -11  -2  15 1204.15 162.483   1
 -11  -2  15 1229.37 188.811   1
  11   2 -15 1352.20 178.777   1
 -11   2  15 1463.15 168.215   1
 -14  -1   3 2668.88 190.794   1
  14  -1  -3 2739.36 208.963   1
  14   1  -3 2535.95 200.524   1
  14   1  -3 2260.47 210.997   1
 -14   1   3 2654.94 192.529   1
 -14   1   3 2527.70 216.842   1
 -14  -1   3 2478.63 204.357   1
  14  -1  -3 2648.89 222.723   1
  -5   0  18 -31.859 106.639   1
   5   0 -18 38.7957 91.8591   1
  -5   0  18 53.1794 87.6753   1
   9   6  -4 3614.09 244.251   1
  -9  -6   4 3931.60 287.457   1
   9  -6  -4 3678.82 246.790   1
  -9   6   4 3665.09 257.009   1
   9  -6  -4 3725.95 260.586   1
  -6   6  -5 348.929 145.221   1
  -6  -6  -5 245.578 107.430   1
   6  -6   5 193.567 126.819   1
   6  -6   5 489.398 141.259   1
   6   6   5 402.553 109.117   1
   7  -5 -13 3184.94 213.204   1
  -7   5  13 3323.51 200.369   1
  -7   5  13 3356.98 193.209   1
   7   5 -13 3070.07 255.757   1
   7   5 -13 2911.81 201.521   1
  -7  -5  13 3162.84 249.952   1
  -7  -5  13 2820.26 229.486   1
  -5  -7   6 15641.4 685.804   1
   5  -7  -6 17676.6 700.813   1
   5   7  -6 16513.7 734.956   1
  -5   7   6 18969.7 749.349   1
  -5   7   6 19087.6 768.719   1
  -8   3  16 34.0473 84.7541   1
   8  -3 -16 77.4069 92.2553   1
   8   3 -16 72.0382 116.160   1
  -8  -3  16 224.990 120.641   1
  -8  -3  16 179.578 125.718   1
 -14   1  10 5033.06 302.927   1
  14   1 -10 5382.79 320.427   1
 -14  -1  10 5226.49 335.947   1
 -14   1  10 5199.38 312.165   1
  14  -1 -10 5558.12 319.652   1
  -5   6  11 8468.43 406.239   1
  -5   6  11 9103.43 370.341   1
   5  -6 -11 8908.52 384.049   1
   5   6 -11 9528.30 465.068   1
  -5  -6  11 9861.68 457.873   1
   5   6 -11 10084.4 450.754   1
   7  -4 -15 1189.04 145.922   1
  -7   4  15 1185.44 124.328   1
   7   4 -15 1272.27 130.991   1
  -7  -4  15 1629.35 168.237   1
  -7  -4  15 1252.30 187.958   1
   7   4 -15 1084.23 176.057   1
   6   0 -18 2633.54 213.518   1
  -6   0  18 2276.55 252.692   1
  -6   0  18 2509.42 181.403   1
  -5   5  -9 57.2600 111.082   1
   5   5   9 38.6575 48.6221   1
   5  -5   9 116.975 109.192   1
   5   5   9 91.3463 68.8769   1
  -8  -5  -5 -8.9295 63.4540   1
   8   5   5 24.3114 65.8842   1
   8   5   5 -14.868 52.6080   1
  -8   5  -5 -116.79 91.4792   1
   8  -5   5 52.8132 84.8928   1
   8  -5   5 38.4410 83.7968   1
 -13   1  13 2042.28 184.985   1
 -13   1  13 1976.86 192.614   1
  13   1 -13 1245.94 187.663   1
  13  -1 -13 1730.96 190.644   1
 -13  -1  13 1576.72 178.614   1
 -13  -1  13 1666.47 203.616   1
 -10   4  13 127.800 125.460   1
  10  -4 -13 268.596 132.392   1
 -10  -4  13 340.269 124.168   1
  10   4 -13 174.055 110.133   1
 -10  -4  13 241.952 149.287   1
  10   4 -13 125.451 132.598   1
   9   6  -5 2999.10 227.935   1
   9   6  -5 2931.27 240.243   1
  -9  -6   5 2701.11 262.946   1
  -9   6   5 3887.05 243.690   1
   9  -6  -5 3411.27 232.798   1
   9  -6  -5 2902.87 229.431   1
  13  -1   1 1994.95 201.260   1
 -13  -1  -1 1679.79 189.290   1
 -13   1  -1 1784.47 185.902   1
  13   1   1 1706.56 211.146   1
  13   1   1 1571.22 181.726   1
  13  -1   1 1701.85 174.039   1
   3   0  15 3520.23 150.550   1
   3   0  15 3967.00 181.247   1
   4   5  10 1658.72 123.938   1
   4  -5  10 2223.73 225.940   1
  -4   5 -10 1867.49 190.544   1
   6  -3  11 6859.37 336.054   1
   6   3  11 7402.27 344.506   1
  -6   3 -11 6711.67 349.595   1
   4  -7  -7 1948.61 194.702   1
  -4   7   7 1637.46 224.401   1
  -4   7   7 1472.01 193.359   1
   4   7  -7 1809.59 201.690   1
  -4  -7   7 2029.01 204.739   1
   4   7  -7 2179.01 214.520   1
  -9  -6   3 2475.46 206.025   1
   9   6  -3 2197.36 200.472   1
   9  -6  -3 2568.52 216.699   1
  -9   6   3 2653.06 231.106   1
  11  -5  -5 11381.3 513.181   1
  11  -5  -5 11473.6 528.049   1
  11   5  -5 13074.3 533.931   1
 -11   5   5 10948.0 499.630   1
 -11  -5   5 12850.3 529.392   1
  12   4  -9 11137.2 487.806   1
 -12   4   9 10774.1 466.553   1
 -12  -4   9 10984.0 483.158   1
  12  -4  -9 10900.4 477.909   1
 -12  -4   9 10290.2 477.018   1
   5   3  12 425.302 116.940   1
   5  -3  12 337.272 127.582   1
  -5   3 -12 302.418 126.240   1
  -6  -7   3 686.315 186.283   1
   6   7  -3 514.945 170.538   1
   6   7  -3 660.682 160.369   1
   6  -7  -3 590.494 164.568   1
  -6   7   3 500.192 157.131   1
  -6   7   3 618.248 160.359   1
   6  -7  -3 691.095 125.762   1
 -11   0  16 -70.687 78.1691   1
 -11   0  16 32.1163 98.6259   1
  11   0 -16 35.4113 80.9884   1
   9  -4 -14 8119.95 368.481   1
  -9   4  14 8477.32 364.961   1
  -9  -4  14 8122.60 415.290   1
  -9  -4  14 8095.04 386.594   1
   9   4 -14 7771.39 328.459   1
   9   4 -14 7528.12 397.042   1
  13  -2 -12 1834.27 231.433   1
  13   2 -12 2760.90 226.582   1
 -13   2  12 1611.44 190.426   1
 -13  -2  12 2501.47 231.831   1
 -13   2  12 1489.35 195.843   1
 -13  -2  12 2196.94 207.137   1
   6   7  -2 6022.58 325.139   1
   6   7  -2 6030.92 352.578   1
  -6  -7   2 5803.47 316.289   1
   6  -7  -2 4409.76 311.149   1
   6  -7  -2 4685.54 251.946   1
  -6   7   2 4542.77 304.187   1
  -6   7   2 4332.29 303.622   1
 -12  -4   2 8164.69 409.777   1
  12   4  -2 8150.86 367.451   1
  12  -4  -2 7730.25 395.544   1
 -12   4   2 8125.89 399.089   1
  12  -4  -2 8394.54 412.001   1
  13  -2   0 20153.1 798.157   1
 -13   2   0 20044.8 784.311   1
  13   2   0 19186.1 780.085   1
 -13   2   0 19681.9 652.088   1
  13   2   0 19398.9 740.778   1
  13  -2   0 19621.1 795.083   1
   9   0   9 1567.06 181.184   1
  -9   0  -9 1814.26 154.593   1
   9   0   9 1897.16 154.669   1
  -8   2  17 -6.5932 86.8729   1
   8   2 -17 -72.637 126.965   1
   8  -2 -17 206.746 92.7277   1
  -8  -2  17 195.826 117.557   1
  -8  -2  17 -5.6892 113.113   1
  -8   2  17 308.845 119.856   1
   0  -7  -7 2857.54 197.237   1
   0   7   7 2833.12 187.164   1
   0   7   7 2857.26 217.817   1
   0   7  -7 2160.44 225.413   1
   0  -7   7 2170.51 223.802   1
   0   7  -7 2576.69 227.206   1
 -10   5  10 478.155 155.241   1
  10  -5 -10 418.580 137.097   1
  10   5 -10 389.732 144.784   1
 -10  -5  10 519.315 156.415   1
  10   5 -10 404.180 153.885   1
  -1  -6 -10 333.851 78.5154   1
   1   6  10 769.402 93.9762   1
   1   6  10 947.202 170.157   1
   1  -6  10 387.061 148.534   1
  -1   6 -10 224.159 149.367   1
  11  -5  -6 4916.99 298.412   1
 -11  -5   6 4176.18 273.261   1
  11  -5  -6 5650.98 325.819   1
  11   5  -6 3821.02 261.906   1
 -11   5   6 5230.80 300.758   1
  14  -2  -6 545.516 161.014   1
  14  -2  -6 459.297 153.488   1
 -14  -2   6 500.945 147.899   1
 -14  -2   6 482.230 144.660   1
 -14   2   6 519.779 155.022   1
  14   2  -6 356.349 141.240   1
 -14   2   6 591.968 120.168   1
 -14  -2   7 1503.24 192.911   1
 -14   2   7 1558.48 163.433   1
 -14  -2   7 1131.29 181.022   1
  14   2  -7 941.185 171.360   1
  14  -2  -7 1697.81 190.270   1
  14  -2  -7 1229.96 156.985   1
 -14   2   7 1600.21 194.365   1
 -11  -5   4 1438.32 182.861   1
  11   5  -4 1895.02 184.392   1
  11  -5  -4 1266.40 194.519   1
 -11   5   4 1120.42 182.304   1
  11  -5  -4 1301.79 207.686   1
   4   0 -18 64143.9 2317.45   1
  -4   0  18 64080.5 2400.79   1
  -4   0  18 65228.6 2338.29   1
  12   0 -15 102.770 108.366   1
 -12   0  15 -24.077 99.9614   1
 -12   0  15 111.519 117.183   1
   7  -6 -10 81.7325 121.318   1
  -7   6  10 168.221 118.119   1
  -7   6  10 46.2378 110.195   1
   7   6 -10 288.794 151.202   1
  -7  -6  10 259.332 134.395   1
   7   6 -10 169.324 134.583   1
 -10   2  16 2751.59 235.393   1
 -10   2  16 2528.23 199.134   1
  10  -2 -16 2628.55 214.496   1
 -10  -2  16 2938.47 234.212   1
 -10  -2  16 2525.74 238.390   1
  10   2 -16 2121.63 253.427   1
   6   7  -4 1918.59 217.983   1
   6   7  -4 2400.61 226.222   1
  -6  -7   4 2113.42 212.367   1
   6  -7  -4 2409.07 218.587   1
  -6   7   4 2426.70 212.140   1
  -6   7   4 2654.52 218.373   1
   6  -7  -4 2386.54 177.440   1
  -2  -2  17 2067.41 187.164   1
  -2  -2  17 2139.77 166.756   1
  -2   2  17 2262.16 141.436   1
   2   2 -17 2128.20 196.065   1
 -14   0   2 960.511 129.417   1
 -14   0   2 841.501 182.639   1
  14   0  -2 764.709 147.823   1
  14   0  -2 1164.88 160.265   1
  11  -2   5 132.054 100.550   1
  11   2   5 171.066 91.7667   1
 -11   2  -5 310.110 104.144   1
  11  -2   5 318.823 133.403   1
  11   2   5 276.975 137.515   1
   9  -6  -6 120.375 121.835   1
   9   6  -6 131.134 144.913   1
   9  -6  -6 225.582 115.812   1
   9   6  -6 237.709 123.919   1
  -9  -6   6 113.816 124.275   1
  -9   6   6 135.905 114.608   1
  -6  -5  -8 1459.95 100.495   1
  -6   5  -8 1160.91 181.617   1
   6   5   8 1829.26 117.065   1
   6   5   8 1726.19 128.155   1
   6  -5   8 1161.92 184.219   1
   6  -5   8 1216.47 177.314   1
   1  -3  15 5987.26 304.147   1
   1  -3  15 5914.88 280.009   1
  -1   3 -15 6110.15 308.673   1
  14   0 -11 11.9554 102.792   1
 -14   0  11 83.2863 95.9337   1
 -14   0  11 -167.76 98.2332   1
  -1   6  11 35.6656 64.8640   1
  -1   6  11 3.63013 111.649   1
   1  -6 -11 64.4573 73.5299   1
   1   6 -11 230.671 119.207   1
   1   6 -11 58.6670 118.609   1
  -1  -6  11 -24.215 116.174   1
 -12  -2  14 52.5299 116.729   1
 -12   2  14 199.673 99.8007   1
  12   2 -14 86.2112 122.942   1
  12  -2 -14 12.3231 107.702   1
 -12   2  14 28.2571 116.792   1
 -12  -2  14 200.775 130.380   1
  -7   3 -10 21620.4 838.072   1
   7  -3  10 22501.3 869.684   1
   7  -3  10 23182.5 930.003   1
   7   3  10 22552.5 832.057   1
  -7   0  18 -59.561 125.693   1
  -7   0  18 95.6980 95.3785   1
   7   0 -18 107.438 105.935   1
 -14  -2   5 215.179 123.775   1
 -14   2   5 422.124 144.257   1
 -14   2   5 289.377 97.7016   1
  14   2  -5 115.299 121.046   1
  14  -2  -5 285.832 145.300   1
  14  -2  -5 272.711 145.659   1
 -14  -2   5 156.662 130.602   1
 -14   2   8 3289.20 246.300   1
 -14  -2   8 3793.76 274.692   1
 -14  -2   8 2740.57 236.324   1
  14  -2  -8 3027.18 248.488   1
  14   2  -8 2802.71 235.762   1
 -14   2   8 2989.91 217.931   1
  12   0   4 64.1534 102.675   1
  12   0   4 50.6664 94.3861   1
 -12   0  -4 27.3247 96.0993   1
   6   7  -1 2079.11 230.589   1
   6   7  -1 2073.47 198.812   1
  -6  -7   1 2099.35 222.615   1
  -6   7   1 1805.39 213.511   1
   6  -7  -1 1636.81 216.003   1
   6  -7  -1 1718.83 188.622   1
  -6   7   1 2024.82 212.750   1
   3   5  11 16387.5 551.657   1
   3  -5  11 15786.2 626.394   1
  -3   5 -11 16296.2 684.589   1
  -9  -6   2 5207.17 313.154   1
   9   6  -2 5927.63 323.137   1
  -9   6   2 5234.96 311.137   1
   9  -6  -2 5721.62 312.512   1
   9  -6  -2 5479.92 324.789   1
  -5  -1  18 1092.22 174.625   1
  -5   1  18 1675.59 135.142   1
  -5   1  18 1694.21 187.351   1
  -5  -1  18 978.864 149.724   1
   5  -1 -18 1547.73 139.747   1
   5   1 -18 1111.80 161.319   1
  10   4   4 4445.91 251.844   1
  10   4   4 4314.28 232.561   1
 -10  -4  -4 4080.50 222.114   1
  10  -4   4 3940.34 290.520   1
  10  -4   4 4494.55 280.121   1
 -10   4  -4 4267.78 283.504   1
  10   5   1 1608.92 173.645   1
 -10  -5  -1 1926.77 181.136   1
  10  -5   1 1921.89 203.645   1
 -10   5  -1 1876.96 202.929   1
  10  -5   1 2102.47 230.003   1
 -11  -3  14 2023.19 191.040   1
  11  -3 -14 2128.15 180.886   1
  11   3 -14 1912.63 211.658   1
  11   3 -14 2037.39 159.041   1
 -11   3  14 2660.09 210.278   1
 -11  -3  14 2522.23 231.719   1
 -10   3  15 3468.96 225.224   1
 -10  -3  15 3090.60 258.836   1
  10  -3 -15 3498.41 236.160   1
  10   3 -15 3176.12 247.238   1
 -10  -3  15 2785.79 226.992   1
   4  -3  13 621.556 141.868   1
  -4   3 -13 792.601 143.248   1
 -11   5   7 25.0767 85.0641   1
 -11  -5   7 -138.97 84.3311   1
  11  -5  -7 34.0522 77.1077   1
  11  -5  -7 29.1281 90.4168   1
  11   5  -7 61.4470 83.6970   1
  -6  -1  18 545.723 137.563   1
  -6   1  18 -8.6772 129.660   1
   6  -1 -18 214.457 111.037   1
  -6  -1  18 370.105 122.655   1
   6   1 -18 443.985 134.215   1
  -6   1  18 241.301 102.249   1
  -5  -7  -2 7556.51 358.271   1
  -5   7  -2 7296.81 349.456   1
  -5   7  -2 7569.60 386.351   1
   5   7   2 7342.02 395.607   1
   5  -7   2 7473.28 397.957   1
   5   7   2 7083.86 347.725   1
   5  -7   2 7469.78 349.921   1
   8  -6  -9 295.469 159.490   1
  -8   6   9 293.437 126.976   1
  -8  -6   9 601.635 162.465   1
   8   6  -9 1391.87 173.549   1
   8   6  -9 772.179 168.954   1
 -11   0  -6 301.803 123.374   1
  11   0   6 464.450 135.340   1
  11   0   6 316.275 119.231   1
 -12   2  -3 213.406 141.735   1
  12   2   3 287.253 137.441   1
  12   2   3 232.618 107.893   1
  12  -2   3 31.7842 134.307   1
  12  -2   3 347.258 133.764   1
 -13  -3  10 13411.9 573.267   1
 -13  -3  10 14215.8 651.370   1
  13  -3 -10 11880.7 546.033   1
  13   3 -10 14349.2 604.144   1
 -13   3  10 11874.9 522.032   1
  -3   1 -15 5301.73 245.637   1
   3   1  15 4773.56 212.823   1
   3  -1  15 5187.91 224.884   1
   3  -1  15 5403.07 231.725   1
  11   5  -3 19112.6 775.642   1
 -11  -5   3 19986.6 752.570   1
  11  -5  -3 20152.2 809.897   1
  11  -5  -3 20785.2 791.458   1
 -11   5   3 19706.3 783.485   1
  13   3  -2 7083.91 334.235   1
 -13  -3   2 7051.03 362.342   1
 -13   3   2 7195.88 372.830   1
  13  -3  -2 6805.52 351.358   1
  13  -3  -2 7950.04 393.959   1
  -6   2 -12 387.412 121.839   1
   6   2  12 441.871 134.297   1
   6  -2  12 330.884 105.823   1
  -1   3  16 1496.48 145.356   1
  -1  -3  16 2456.21 190.923   1
   1   3 -16 2059.14 184.233   1
  -1  -3  16 1996.81 185.919   1
   3   7   5 631.882 152.535   1
  -3  -7  -5 481.538 146.171   1
   3   7   5 403.849 119.218   1
   3  -7   5 633.630 133.369   1
   3  -7   5 565.845 164.645   1
  -3   7  -5 721.649 155.372   1
  -3   7  -5 509.821 154.134   1
  -6  -7   5 9647.71 457.042   1
   6   7  -5 9508.37 473.371   1
   6   7  -5 9802.57 474.136   1
  -6   7   5 10611.7 475.491   1
   6  -7  -5 10936.0 485.444   1
  -6   7   5 10707.3 468.350   1
  -2  -7  -6 207.365 122.595   1
  -2   7  -6 105.941 132.139   1
  -2   7  -6 127.259 123.757   1
   2   7   6 225.256 97.3597   1
   2   7   6 196.495 126.147   1
   2  -7   6 193.000 136.544   1
 -11   4  12 1198.52 188.492   1
  11  -4 -12 1377.20 169.001   1
 -11  -4  12 1377.64 177.878   1
 -11  -4  12 1514.31 203.332   1
  11   4 -12 1179.20 183.832   1
  11   4 -12 1087.49 154.317   1
 -11   1  16 74.3029 112.472   1
 -11  -1  16 151.709 118.068   1
 -11  -1  16 50.0640 116.061   1
 -11   1  16 -13.862 106.776   1
  11   1 -16 85.0035 102.169   1
  11  -1 -16 -40.801 94.4470   1
  -1   4 -14 4642.97 289.465   1
   1  -4  14 4967.12 285.753   1
   9   1   9 133.319 80.2563   1
  -9   1  -9 249.862 103.693   1
   9  -1   9 342.466 99.3808   1
   9  -1   9 386.832 131.899   1
   9   1   9 196.172 112.864   1
  -9  -1  -9 181.365 86.8666   1
  -5   4 -11 953.861 180.423   1
   5   4  11 1446.62 140.872   1
   5  -4  11 813.105 171.046   1
  -5   2 -13 444.895 124.672   1
   5  -2  13 438.158 122.141   1
  -6   6  11 12904.9 511.431   1
  -6   6  11 13454.9 552.305   1
   6  -6 -11 13697.7 534.827   1
   6   6 -11 13598.0 601.921   1
  -6  -6  11 13224.8 573.708   1
   6   6 -11 13975.9 578.825   1
  -4   1  18 12839.9 461.455   1
  -4  -1  18 14649.3 598.962   1
  -4   1  18 12326.8 551.420   1
   4  -1 -18 12296.0 446.932   1
   4   1 -18 14281.4 540.257   1
  -4  -1  18 14638.9 532.524   1
 -12   1  15 18776.9 712.299   1
 -12  -1  15 18446.3 711.984   1
 -12  -1  15 18205.0 746.911   1
 -12   1  15 19076.7 759.124   1
  12   1 -15 18135.2 727.490   1
  12  -1 -15 18991.7 772.372   1
 -10   0  17 -91.051 85.8473   1
  10   0 -17 17.5168 90.5960   1
 -10   0  17 113.323 96.9109   1
   7  -2  11 2403.53 225.115   1
   7   2  11 1917.76 200.924   1
   7  -2  11 2472.87 176.928   1
  -7   2 -11 2310.37 184.092   1
   6   4  10 200.429 99.4201   1
  -6   4 -10 130.533 133.338   1
   6  -4  10 136.755 126.662   1
  11   3   4 14493.1 581.915   1
  11   3   4 15146.3 566.267   1
  11  -3   4 14856.1 648.764   1
 -11   3  -4 13807.4 579.393   1
 -11  -3  -4 15022.8 561.097   1
  11  -3   4 15232.4 640.779   1
  14  -1  -2 370.903 129.522   1
  14   1  -2 229.685 120.783   1
  14   1  -2 229.682 133.080   1
 -14   1   2 377.386 96.6790   1
 -14  -1   2 172.108 121.136   1
 -14   1   2 346.275 137.388   1
  14  -1  -2 323.225 134.874   1
   9  -6  -7 390.935 160.318   1
  -9   6   7 342.198 128.621   1
  -9  -6   7 301.126 137.947   1
   9   6  -7 432.441 141.734   1
   9   6  -7 276.540 138.899   1
   0   5  13 6377.17 320.392   1
   0   5 -13 5785.84 319.911   1
   0  -5  13 6265.65 344.786   1
   9   4   6 6077.59 255.092   1
  -9  -4  -6 5697.65 255.086   1
  -9   4  -6 6074.51 362.679   1
   9  -4   6 6259.80 347.446   1
   9   4   6 5834.45 273.980   1
   4  -5 -14 1479.67 129.607   1
  -4   5  14 1654.85 133.153   1
  -4   5  14 1231.86 140.866   1
   4   5 -14 1180.10 170.777   1
  -4  -5  14 892.000 177.112   1
  14   2  -4 -122.49 105.086   1
 -14  -2   4 66.1216 109.603   1
 -14   2   4 155.087 90.1095   1
 -14   2   4 97.2314 122.563   1
  14  -2  -4 9.61162 117.722   1
  14  -2  -4 247.666 126.487   1
  -3   0  18 29.2956 116.907   1
  -3   0  18 77.4305 77.8792   1
  14  -1 -11 93.0854 116.459   1
 -14   1  11 -8.7243 120.167   1
  14   1 -11 17.1222 120.663   1
 -14   1  11 -4.2938 108.713   1
 -14  -1  11 148.447 116.325   1
 -14  -1  11 77.5268 116.605   1
  10  -2   7 95.5510 124.524   1
  10  -2   7 119.161 111.195   1
 -10   2  -7 196.733 109.739   1
  10   2   7 122.600 121.476   1
  10   2   7 121.572 85.2019   1
  -2   7   8 135.391 101.139   1
   2  -7  -8 150.353 109.787   1
  -2   7   8 146.797 110.648   1
  -2  -7   8 140.605 131.983   1
   2   7  -8 110.835 129.328   1
   2   7  -8 6.79987 131.849   1
  14  -2  -9 518.337 164.057   1
  14   2  -9 439.851 154.662   1
 -14   2   9 638.394 159.759   1
 -14   2   9 584.031 150.566   1
 -14  -2   9 429.037 153.557   1
 -14  -2   9 377.874 157.985   1
  -5   7   7 304.253 112.837   1
  -5   7   7 6.14462 125.045   1
   5  -7  -7 119.374 110.303   1
  -5  -7   7 15.7981 134.991   1
   5   7  -7 172.245 124.146   1
 -11  -4  -2 3046.12 215.328   1
  11   4   2 2817.83 206.809   1
  11   4   2 2946.91 207.293   1
 -11   4  -2 3187.80 243.113   1
  11  -4   2 3174.59 251.254   1
  11  -4   2 3218.73 237.042   1
   4  -7   4 268.370 123.943   1
   4   7   4 176.565 143.186   1
   4   7   4 187.634 108.199   1
  -4   7  -4 499.030 146.788   1
  -4   7  -4 543.253 143.578   1
  -4  -7  -4 159.099 114.992   1
   4  -7   4 244.334 154.744   1
  -7   1  18 382.134 141.433   1
   7  -1 -18 320.260 129.925   1
   7   1 -18 319.063 139.523   1
  -7   1  18 383.325 118.188   1
  -7  -1  18 410.552 129.544   1
  -7  -1  18 570.763 145.681   1
   3  -7  -8 1118.29 157.236   1
  -3   7   8 1295.94 163.499   1
  -3   7   8 1197.46 163.679   1
  -3  -7   8 1551.44 200.480   1
   3   7  -8 1328.21 181.921   1
   3   7  -8 1781.19 203.958   1
  -1   4  15 170.188 96.9231   1
   1   4 -15 427.165 133.116   1
  -1  -4  15 337.232 129.895   1
   6   7   0 6153.92 360.269   1
  -6  -7   0 6069.37 338.943   1
  -6   7   0 5691.32 338.852   1
   6  -7   0 5943.39 350.984   1
   6  -7   0 5996.10 303.400   1
   9  -5 -12 40.6036 126.266   1
  -9   5  12 236.654 119.952   1
  -9  -5  12 -75.404 131.540   1
   9   5 -12 215.098 121.849   1
   9   5 -12 274.031 140.187   1
  -5   5  14 128.089 83.5973   1
  -5   5  14 150.352 90.3134   1
   5  -5 -14 60.1628 85.7745   1
   5   5 -14 160.060 126.197   1
   5   5 -14 50.1706 94.5992   1
  -5  -5  14 145.079 119.296   1
  12   4 -10 2121.07 209.640   1
  12  -4 -10 2471.56 245.844   1
 -12  -4  10 2288.04 218.790   1
 -12   4  10 2240.31 195.988   1
 -12  -4  10 2158.25 211.746   1
 -12   1  -4 296.685 137.498   1
  12  -1   4 489.408 140.862   1
 -12  -1  -4 529.882 123.620   1
  12   1   4 808.783 133.512   1
  12   1   4 528.099 125.611   1
  12  -1   4 299.449 134.027   1
   0   0  17 87.4949 81.2810   1
   0   0  17 33.1392 56.3125   1
  -7  -6  -4 1234.38 158.795   1
   7   6   4 1406.83 150.892   1
   7  -6   4 1235.40 191.979   1
   7  -6   4 1328.47 194.665   1
  -7   6  -4 1254.51 204.407   1
   7   5   7 -2.5965 76.3538   1
  -7   5  -7 175.696 138.594   1
  -7  -5  -7 81.2822 71.9128   1
   7   5   7 63.6912 73.7190   1
   7  -5   7 182.082 119.037   1
   7  -5   7 85.3256 104.352   1
   4   4  12 4719.97 237.801   1
  -4   4 -12 3487.74 272.672   1
   4  -4  12 3636.56 271.736   1
  -8  -6  -2 2333.79 184.496   1
   8   6   2 2305.21 195.369   1
  -8   6  -2 2539.31 228.990   1
   8  -6   2 2109.13 229.782   1
   8  -6   2 2054.75 219.289   1
  -4  -6  -8 444.606 97.8284   1
   4   6   8 468.716 96.2895   1
   4  -6   8 620.599 145.407   1
  -4   6  -8 669.828 155.446   1
  11   5  -8 -54.783 114.000   1
  11  -5  -8 199.007 118.958   1
 -11   5   8 71.2709 131.613   1
 -11  -5   8 99.4899 114.500   1
  -8   4  15 5730.53 271.691   1
   8  -4 -15 5587.94 281.245   1
  -8  -4  15 5768.96 318.433   1
  -8  -4  15 6513.93 348.766   1
   8   4 -15 6025.59 273.726   1
   8   4 -15 5723.38 337.884   1
   9   6  -1 272.285 144.493   1
  -9  -6   1 312.294 146.087   1
   9  -6  -1 621.099 154.172   1
   9  -6  -1 542.330 157.198   1
  -9   6   1 565.157 150.815   1
  10   3   6 2736.57 216.425   1
  10  -3   6 3030.84 264.523   1
  10  -3   6 2694.54 220.422   1
 -10  -3  -6 2890.84 187.449   1
 -10   3  -6 3038.51 220.471   1
  10   3   6 2845.81 178.673   1
 -12  -4   1 12466.0 528.383   1
  12   4  -1 11568.0 470.111   1
  12  -4  -1 11794.0 523.651   1
 -12   4   1 11270.4 505.416   1
  12  -4  -1 12006.2 530.568   1
   8  -3   9 18572.6 784.212   1
   8   3   9 20592.8 768.695   1
  -8   3  -9 18767.6 740.245   1
   8   3   9 19850.4 652.952   1
  -1  -7  -7 632.238 134.230   1
   1   7   7 646.811 150.603   1
   1   7   7 318.492 112.165   1
  -1   7  -7 335.784 157.833   1
  -1   7  -7 421.213 148.305   1
   1  -7   7 826.099 158.793   1
 -11  -1  -6 437.236 109.814   1
  11  -1   6 502.716 145.507   1
  11  -1   6 295.329 125.305   1
 -11   1  -6 283.121 126.047   1
  11   1   6 637.963 128.406   1
  11   1   6 475.872 122.778   1
  -3   5  14 19536.0 707.329   1
  -3   5  14 19371.1 644.368   1
   3   5 -14 18361.0 741.090   1
  -3  -5  14 19089.1 776.897   1
   8   0 -18 33060.4 1233.98   1
  -8   0  18 33797.7 1230.19   1
  -8   0  18 33305.7 1260.53   1
 -13   0  14 48.5526 85.1242   1
 -13   0  14 -109.31 91.4148   1
  13   0 -14 41.5277 92.9161   1
  11   5  -2 893.328 162.385   1
 -11  -5   2 598.992 165.068   1
 -11   5   2 843.401 175.591   1
  11  -5  -2 713.715 168.430   1
  11  -5  -2 664.914 162.388   1
  13   0   2 42.8875 112.653   1
  13   0   2 82.4569 114.340   1
 -13   0  -2 195.708 115.708   1
   1  -7  -8 3167.01 214.827   1
  -1   7   8 3089.14 224.990   1
  -1   7   8 3476.93 205.544   1
   1   7  -8 4000.35 266.546   1
  -1  -7   8 3410.41 261.244   1
   1   7  -8 3753.33 269.743   1
   3   6   9 1572.42 121.587   1
   3   6   9 1988.60 191.516   1
   3  -6   9 1314.59 186.524   1
  -3   6  -9 1317.49 185.282   1
   8  -5 -13 1631.79 184.231   1
  -8   5  13 1823.97 173.295   1
  -8  -5  13 2072.84 211.705   1
  -8  -5  13 2356.57 222.611   1
   8   5 -13 2161.45 198.738   1
   8   5 -13 2021.14 223.165   1
   2   5  12 30.2415 52.0105   1
   2  -5  12 5.03538 92.8446   1
  -2   5 -12 -83.495 79.6574   1
   5  -6   7 146.096 129.149   1
   5  -6   7 180.705 123.184   1
   5   6   7 274.382 86.4441   1
  -5   6  -7 76.0022 127.061   1
  -5  -6  -7 148.008 93.2930   1
   1  -2  16 12825.7 486.375   1
  -1   2 -16 13612.3 522.211   1
   1  -2  16 12998.2 492.011   1
   7  -4   9 6448.48 353.193   1
  -7   4  -9 6583.57 369.529   1
   7   4   9 5652.92 280.717   1
   7  -4   9 6257.28 361.519   1
  12  -3 -13 1412.39 160.863   1
 -12  -3  13 457.790 182.587   1
 -12   3  13 980.941 142.435   1
 -12  -3  13 561.270 162.266   1
  12   3 -13 459.160 173.319   1
   6   7  -6 2002.23 225.335   1
  -6  -7   6 1936.33 226.824   1
   6   7  -6 2245.03 243.912   1
   6  -7  -6 2465.51 216.267   1
  -6   7   6 2405.28 241.257   1
  -6   7   6 2400.57 219.736   1
  -3   3 -14 207.194 119.184   1
   3  -3  14 244.580 117.635   1
  -9   3  16 4540.82 242.880   1
   9  -3 -16 4047.47 252.831   1
   9   3 -16 4297.34 281.882   1
  -9  -3  16 4239.38 259.787   1
  -9  -3  16 4309.70 286.077   1
   4  -2  14 268.331 112.074   1
  -4   2 -14 403.574 116.054   1
   2   0  16 16535.4 592.832   1
   0   6  11 4408.95 199.566   1
   0   6  11 4636.25 310.001   1
   0   6 -11 4510.12 297.028   1
   0  -6  11 4427.85 281.797   1
  -5   3  17 2163.20 118.575   1
  -5   3  17 2700.87 153.753   1
  -5  -3  17 2430.19 204.905   1
  -5  -3  17 2844.20 234.320   1
   5   3 -17 2260.74 224.809   1
 -10  -1  17 157.082 143.439   1
  10  -1 -17 255.530 134.904   1
  10   1 -17 283.435 156.381   1
 -10   1  17 681.739 148.928   1
 -10   1  17 364.448 130.424   1
 -10  -1  17 338.572 144.027   1
   4  -7  -8 564.597 147.920   1
  -4   7   8 720.917 168.813   1
  -4   7   8 553.340 144.489   1
   4   7  -8 503.687 159.557   1
   4   7  -8 553.008 149.947   1
  -4  -7   8 513.500 159.516   1
   8  -2  10 1185.94 176.609   1
  -8   2 -10 1064.73 142.690   1
   8   2  10 728.658 77.0541   1
   8  -2  10 746.226 139.271   1
   8   2  10 805.307 158.847   1
   9   2 -17 406.838 148.102   1
  -9  -2  17 1008.04 137.177   1
  -9  -2  17 953.795 163.887   1
  -9   2  17 569.326 157.756   1
  -9   2  17 594.608 128.488   1
   9  -2 -17 673.628 138.384   1
  14   0  -1 249.634 119.874   1
 -14   0   1 117.901 117.524   1
  14   0  -1 192.316 136.160   1
  12  -3   2 1484.08 204.539   1
 -12  -3  -2 1599.08 166.438   1
 -12   3  -2 1360.05 180.922   1
  12   3   2 1708.16 184.666   1
  12  -3   2 1193.95 184.843   1
  12   3   2 1877.32 167.102   1
  -3   1  18 5624.20 304.205   1
  -3  -1  18 4994.74 287.819   1
  -3   1  18 4771.35 197.767   1
  -3  -1  18 5117.83 259.447   1
   6  -5 -14 8048.36 344.775   1
  -6   5  14 8056.42 350.838   1
  -6   5  14 7966.06 320.088   1
  -6  -5  14 6754.89 370.431   1
  -6  -5  14 7077.23 355.755   1
   6   5 -14 7331.83 326.857   1
   6   5 -14 7631.01 438.769   1
  10   0   8 2545.71 220.195   1
  10   0   8 2640.55 199.509   1
 -10   0  -8 2653.39 183.849   1
 -14   0  12 3160.38 238.674   1
 -14   0  12 3154.51 235.612   1
  14   0 -12 3159.31 246.705   1
   6  -3 -17 4987.22 228.651   1
  -6   3  17 5645.36 234.686   1
   6   3 -17 4942.45 281.174   1
  -6  -3  17 5272.37 289.289   1
  -6  -3  17 4841.13 258.044   1
  10  -5 -11 6339.68 359.715   1
 -10   5  11 5784.63 301.654   1
  10   5 -11 5556.84 321.033   1
 -10  -5  11 5919.59 347.346   1
  10   5 -11 5927.60 352.877   1
   0  -1  17 165.158 94.7181   1
   0   1  17 174.698 95.2559   1
   0   1 -17 49.6270 74.2232   1
   0  -1  17 67.2077 73.2519   1
  -4   3  17 11293.7 391.207   1
  -4  -3  17 10596.7 462.583   1
  -4  -3  17 10070.3 431.456   1
   4   3 -17 10861.5 480.003   1
  -1  -2  17 34.6171 88.4135   1
  -1  -2  17 5.93696 72.8175   1
  -1   2  17 -7.2541 84.2815   1
   1   2 -17 58.0817 87.6479   1
  14  -2  -3 1263.32 182.857   1
 -14   2   3 1182.70 183.317   1
 -14   2   3 880.544 121.746   1
  14   2  -3 1176.59 161.904   1
  14  -2  -3 1176.31 174.943   1
  14   2  -3 904.451 156.793   1
   9   5   4 1251.74 129.769   1
  -9  -5  -4 1324.23 139.457   1
   9   5   4 1305.49 154.237   1
   9  -5   4 1748.97 188.851   1
  -9   5  -4 1779.92 191.426   1
   9  -5   4 1666.47 185.630   1
 -14  -2  10 12707.5 570.047   1
 -14  -2  10 13170.8 619.717   1
 -14   2  10 13541.9 586.310   1
  14   2 -10 12798.4 554.774   1
 -14   2  10 12605.6 557.306   1
  14  -2 -10 13481.1 584.752   1
 -13   3  11 19752.7 781.361   1
 -13  -3  11 19935.1 873.514   1
 -13  -3  11 20125.2 814.487   1
  13  -3 -11 20198.2 800.916   1
  13   3 -11 19444.7 794.816   1
  -9   6   8 482.225 163.490   1
   9  -6  -8 515.833 147.279   1
   9   6  -8 769.287 183.128   1
  -9  -6   8 544.270 165.288   1
   9   6  -8 727.183 164.837   1
 -13  -3   1 573.335 132.080   1
  13   3  -1 431.834 158.793   1
  13   3  -1 447.299 131.517   1
  13  -3  -1 663.204 173.354   1
  13  -3  -1 651.371 161.117   1
 -13   3   1 804.719 106.859   1
 -13   3   1 784.154 163.849   1
 -13  -2  13 124.291 129.847   1
 -13  -2  13 113.745 143.168   1
 -13   2  13 163.031 121.101   1
 -13   2  13 227.292 126.207   1
  13  -2 -13 387.889 131.905   1
  13   2 -13 87.3202 136.013   1
   5  -7   3 3970.20 294.958   1
   5   7   3 4223.45 295.745   1
   5   7   3 3680.39 235.721   1
   5  -7   3 4031.81 259.175   1
  -5   7  -3 3871.83 273.526   1
  -5  -7  -3 4150.94 246.228   1
 -13   2  -1 130.114 108.171   1
  13  -2   1 116.433 100.148   1
  13   2   1 -67.042 101.618   1
  13  -2   1 10.6996 121.603   1
  13   2   1 49.0542 95.1878   1
   3  -4  13 148.969 129.431   1
  -3   4 -13 231.566 132.662   1
  -2   5  14 4334.96 245.201   1
  -2  -5  14 5265.27 323.744   1
   2   5 -14 5338.34 301.491   1
  -8  -1  18 2793.25 245.969   1
  -8   1  18 4229.51 268.021   1
   8   1 -18 2975.10 242.069   1
  -8  -1  18 2973.80 227.308   1
  -8   1  18 3916.94 227.154   1
   8  -1 -18 4631.79 268.790   1
 -13  -1  14 517.520 174.355   1
 -13  -1  14 1201.90 158.865   1
  13   1 -14 644.612 160.110   1
  13  -1 -14 509.393 151.039   1
 -13   1  14 389.607 145.874   1
 -13   1  14 572.460 160.075   1
   6   7   1 12662.9 576.166   1
  -6  -7  -1 12113.6 524.029   1
   6  -7   1 12865.9 575.170   1
  -6   7  -1 12505.0 564.002   1
   6  -7   1 12949.4 535.267   1
 -13  -1  -2 -17.219 89.6008   1
 -13   1  -2 -26.916 87.4955   1
  13   1   2 -70.823 111.199   1
  13   1   2 -63.633 90.5075   1
  13  -1   2 164.524 104.584   1
  13  -1   2 -44.902 97.4259   1
   4  -6 -12 7152.31 327.588   1
  -4   6  12 7226.78 320.029   1
  -4   6  12 7322.13 358.647   1
   4   6 -12 7612.16 409.313   1
  -4  -6  12 7467.43 393.496   1
   4   6 -12 8484.10 400.660   1
   2   6  10 176.213 130.608   1
   2   6  10 59.2644 60.7678   1
   2  -6  10 43.2577 113.630   1
  -2   6 -10 54.9096 120.719   1
  -3   6  12 21076.7 817.171   1
  -3   6  12 21509.3 763.804   1
   3  -6 -12 21845.3 778.389   1
   3   6 -12 21750.4 887.181   1
  -3  -6  12 22203.0 889.505   1
   3   6 -12 23963.5 907.024   1
  -6  -6  -6 325.763 100.757   1
   6  -6   6 341.990 137.347   1
  -6   6  -6 292.289 150.327   1
   6  -6   6 198.469 135.777   1
   6   6   6 303.481 99.6453   1
 -11   5   9 3021.24 227.681   1
 -11  -5   9 3278.12 246.630   1
  11  -5  -9 3568.28 246.921   1
  11   5  -9 2893.64 241.527   1
   2  -1  16 366.243 89.5044   1
   2   1  16 470.307 105.523   1
  -2   1 -16 374.834 83.9748   1
   2  -1  16 314.287 85.3887   1
  -8   6  10 117.191 111.871   1
  -8   6  10 131.154 91.9411   1
   8  -6 -10 36.4616 94.2856   1
   8   6 -10 -53.166 123.354   1
  -8  -6  10 30.0105 126.546   1
   8   6 -10 92.8669 125.869   1
 -10  -5  -2 1788.29 176.464   1
  10   5   2 1724.81 171.249   1
  10  -5   2 1820.74 194.911   1
  10  -5   2 1806.57 203.234   1
 -10   5  -2 1450.37 198.660   1
   0   7   8 1229.02 155.498   1
   0   7   8 1303.97 199.382   1
   0  -7  -8 1050.84 162.456   1
   0  -7   8 2115.03 198.765   1
   0   7  -8 1345.62 191.833   1
   0   7  -8 1948.13 204.810   1
   5  -4 -16 312.252 87.2978   1
  -5   4  16 382.876 89.8179   1
  -5   4  16 416.704 89.8695   1
  -5  -4  16 403.201 142.371   1
  -5  -4  16 700.774 126.693   1
   5   4 -16 586.718 138.905   1
  -2   0  18 20299.2 696.016   1
  -2   0  18 20881.3 785.758   1
  -9  -6   0 60.3592 102.150   1
   9   6   0 47.2522 101.757   1
   9  -6   0 -37.417 115.551   1
   9  -6   0 -44.960 118.526   1
  -9   6   0 152.385 115.738   1
  -7   6  11 9214.07 422.879   1
  -7   6  11 10148.9 431.390   1
   7  -6 -11 9631.03 417.911   1
  -7  -6  11 9448.72 452.592   1
   7   6 -11 9853.58 444.039   1
   7   6 -11 9432.33 472.858   1
   6   0  13 107.389 58.7428   1
  -6   0 -13 -7.7063 44.5106   1
 -14   1   1 451.324 147.682   1
  14   1  -1 477.256 143.620   1
  14  -1  -1 444.949 150.222   1
  14  -1  -1 381.705 135.951   1
  14   1  -1 625.073 132.957   1
 -14  -1   1 577.688 164.004   1
 -11  -5   1 3841.16 255.496   1
  11   5  -1 3581.39 251.972   1
 -11   5   1 4244.64 278.006   1
  11  -5  -1 4366.44 279.001   1
  11  -5  -1 3636.08 262.989   1
  -4   4  16 2859.92 159.691   1
  -4  -4  16 2731.86 240.399   1
  -4  -4  16 2674.96 203.290   1
   7   0  12 206.166 77.6514   1
   7   0  12 126.703 120.977   1
  -7   0 -12 55.7367 72.0972   1
   7  -3 -17 105.575 94.3194   1
  -7  -3  17 112.689 116.421   1
   7   3 -17 54.7100 136.528   1
  -7  -3  17 126.325 122.619   1
  10  -4 -14 575.797 145.015   1
 -10   4  14 805.746 142.664   1
  10   4 -14 328.314 164.035   1
  10   4 -14 543.554 120.840   1
 -10  -4  14 654.156 182.849   1
 -10  -4  14 276.268 154.316   1
  10  -1   8 189.211 122.281   1
  10   1   8 65.5011 127.692   1
 -10   1  -8 214.078 100.422   1
 -10  -1  -8 101.128 84.1683   1
  10   1   8 -10.477 84.9765   1
  10  -1   8 170.093 98.5194   1
  14   1 -12 4469.78 307.041   1
 -14   1  12 5145.64 296.706   1
 -14  -1  12 4632.66 301.984   1
  14  -1 -12 5109.36 320.116   1
 -14   1  12 5536.78 301.362   1
 -14  -1  12 5200.33 305.748   1
  -5   6  12 684.248 170.225   1
  -5   6  12 1007.54 130.709   1
   5  -6 -12 1438.16 165.657   1
  -5  -6  12 1504.42 197.646   1
   5   6 -12 1789.09 213.697   1
   5   6 -12 1854.74 193.103   1
  -7  -7   3 14141.7 632.416   1
   7   7  -3 13153.6 567.819   1
   7   7  -3 13425.1 615.268   1
   7  -7  -3 15180.3 654.038   1
   7  -7  -3 15677.2 587.646   1
  -7   7   3 15425.2 638.007   1
  -3   3  17 291.841 85.6737   1
  -3  -3  17 395.036 116.768   1
   3   3 -17 254.409 131.097   1
  -3  -3  17 404.262 126.808   1
   8   5   6 3250.98 172.350   1
   8   5   6 3114.34 177.696   1
  -8  -5  -6 3068.55 171.068   1
   8  -5   6 3372.09 279.051   1
   8  -5   6 3229.46 247.991   1
  -8   5  -6 3114.20 246.676   1
   8   4   8 277.339 97.6339   1
   8   4   8 233.326 74.7590   1
   8  -4   8 19.2146 147.747   1
   8  -4   8 241.015 116.467   1
  -8   4  -8 69.6875 121.708   1
  -5  -2  18 293.075 119.171   1
  -5  -2  18 283.050 143.366   1
   5   2 -18 339.431 131.453   1
  -5   2  18 295.651 92.1686   1
   5  -2 -18 318.473 86.4985   1
  -5   2  18 458.007 129.434   1
  -5   7   8 1385.87 171.993   1
   5  -7  -8 1408.97 188.917   1
  -5   7   8 1504.96 181.280   1
  -5  -7   8 2053.31 212.829   1
   5   7  -8 2221.94 235.367   1
   0  -3  16 8022.62 358.320   1
   0  -3  16 7967.64 355.954   1
   0   3 -16 7669.88 363.318   1
 -12  -4  11 116.203 114.937   1
 -12  -4  11 191.318 119.624   1
  12  -4 -11 -20.827 111.808   1
  12   4 -11 50.7891 121.000   1
 -12   4  11 -34.975 107.039   1
   6  -7  -7 166.991 134.926   1
  -6   7   7 64.0856 110.511   1
  -6   7   7 -10.341 104.883   1
   6   7  -7 -14.045 122.037   1
   6   7  -7 243.595 139.614   1
  -6  -7   7 243.332 129.847   1
   2  -6 -12 27538.6 955.056   1
  -2   6  12 26818.0 1024.07   1
  -2   6  12 27343.7 940.497   1
   2   6 -12 28820.2 1086.33   1
   2   6 -12 26973.9 1062.24   1
  -2  -6  12 28232.4 1101.69   1
   7   7  -4 948.780 218.158   1
   7   7  -4 1264.39 197.817   1
  -7  -7   4 992.583 176.007   1
   7  -7  -4 1593.37 167.258   1
  -7   7   4 1508.78 189.778   1
  -7   7   4 1304.12 186.908   1
   7  -7  -4 1488.22 231.793   1
  -6   2  18 5186.72 236.523   1
  -6  -2  18 5715.81 300.718   1
  -6  -2  18 5920.38 302.572   1
  -6   2  18 5061.66 289.587   1
   6   2 -18 6129.16 325.447   1
   6  -2 -18 4886.46 238.970   1
  -9  -3  -8 790.695 89.5594   1
   9   3   8 798.715 104.146   1
   9  -3   8 518.853 156.718   1
   9  -3   8 321.212 172.662   1
   9   3   8 500.108 139.989   1
  -9   3  -8 370.899 160.768   1
  -6   4  16 124.246 76.2099   1
  -6   4  16 93.7175 68.4763   1
   6  -4 -16 138.992 80.7540   1
  -6  -4  16 168.874 126.718   1
  -6  -4  16 175.691 127.549   1
   6   4 -16 102.472 120.626   1
   3   7   6 4610.22 247.620   1
  -3  -7  -6 3864.11 221.577   1
   3  -7   6 3228.35 260.660   1
   3   7   6 4118.69 286.305   1
  -3   7  -6 3350.75 265.991   1
   5   0  14 53.6382 52.8058   1
  -3   2 -15 1037.84 132.150   1
   3   2  15 1024.87 118.597   1
   3  -2  15 558.401 133.551   1
   3  -2  15 706.049 106.137   1
 -12  -4   0 7459.77 366.772   1
  12   4   0 8353.62 374.883   1
  12  -4   0 6866.94 370.425   1
 -12   4   0 6505.11 357.384   1
  12  -4   0 7118.24 386.601   1
  -7  -7   2 3591.76 281.912   1
   7   7  -2 3444.43 242.476   1
   7   7  -2 3754.45 286.336   1
  -7   7   2 2247.59 248.824   1
   7  -7  -2 2616.75 257.285   1
   7  -7  -2 2857.36 214.976   1
   9   0 -18 63.4496 104.863   1
  -9   0  18 -4.8128 107.076   1
  -9   0  18 28.2256 96.3638   1
   7  -5 -14 1386.75 176.455   1
  -7   5  14 1615.73 160.480   1
  -7   5  14 1755.80 156.389   1
   7   5 -14 1965.64 164.111   1
   7   5 -14 1742.36 213.382   1
  -7  -5  14 1938.51 190.939   1
  -7  -5  14 1807.72 209.643   1
 -11   2  16 1047.32 191.889   1
  11   2 -16 1121.76 177.601   1
  11  -2 -16 841.185 175.008   1
 -11  -2  16 1220.59 194.870   1
 -11  -2  16 1246.78 195.713   1
 -11   2  16 1330.14 172.467   1
   9  -2   9 568.241 151.102   1
   9  -2   9 1033.61 183.841   1
  -9   2  -9 1174.37 152.884   1
  -9  -2  -9 1121.99 104.362   1
   9   2   9 1129.73 109.992   1
   9   2   9 1219.43 177.057   1
  11  -4 -13 2254.75 233.488   1
 -11   4  13 1996.39 188.195   1
  11   4 -13 2664.53 208.390   1
  11   4 -13 2250.19 227.250   1
 -11  -4  13 2354.40 213.871   1
 -11  -4  13 2284.25 249.046   1
   2   7   7 117.457 97.3449   1
   2   7   7 212.829 120.908   1
  -2  -7  -7 162.086 103.496   1
  -2   7  -7 60.3413 122.934   1
   2  -7   7 -128.49 129.340   1
  -2   7  -7 152.918 123.535   1
   0   4  15 151.047 90.4078   1
   0  -4  15 32.3313 112.145   1
   0   4 -15 8.15523 114.193   1
   4   7   5 3328.83 260.723   1
   4   7   5 3649.04 231.370   1
   4  -7   5 3694.87 247.175   1
  -4  -7  -5 3465.03 214.185   1
   4  -7   5 4012.47 276.835   1
  -4   7  -5 3385.88 264.980   1
  -4  -2  18 56.2311 114.162   1
  -4  -2  18 73.0974 95.9101   1
  -4   2  18 105.750 96.8074   1
   4   2 -18 -9.8358 103.736   1
   1   5  13 4489.25 274.605   1
   1  -5  13 4701.96 268.004   1
  -1   5 -13 4562.16 272.553   1
  12   2 -15 2448.79 233.458   1
 -12   2  15 2783.20 200.000   1
  12  -2 -15 3293.74 224.647   1
 -12   2  15 2879.08 241.501   1
 -12  -2  15 2051.24 242.926   1
 -12  -2  15 2807.82 263.759   1
  -7   7   5 1193.72 183.153   1
  -7  -7   5 1424.98 229.493   1
  -7   7   5 1412.51 212.803   1
   7   7  -5 1495.44 195.692   1
   7   7  -5 1376.64 190.853   1
   7  -7  -5 1463.76 163.386   1
   7  -7  -5 1125.78 178.580   1
  -3   4  16 2765.58 171.096   1
  -3  -4  16 2795.12 202.006   1
   3   4 -16 3199.42 248.233   1
  -3  -4  16 2852.46 229.704   1
  -2  -1  18 320.598 115.624   1
  -2  -1  18 117.275 91.2680   1
  -2   1  18 148.896 116.982   1
   2   1 -18 217.716 92.9226   1
  -2   3 -15 538.221 136.604   1
   2  -3  15 510.369 132.577   1
  -8  -6  -3 46.1465 87.3856   1
   8   6   3 60.0842 91.4749   1
   8  -6   3 -0.3686 120.852   1
   8  -6   3 55.2584 123.273   1
  -8   6  -3 46.9058 121.464   1
 -15   0   7 827.236 164.555   1
 -15   0   7 699.695 149.054   1
  15   0  -7 588.944 161.947   1
  -6   1 -13 359.868 99.3403   1
   6  -1  13 404.205 100.762   1
 -14   2   2 -26.154 122.637   1
  14  -2  -2 55.4071 123.790   1
 -14   2   2 19.6258 73.0667   1
  14   2  -2 155.195 129.966   1
  14   2  -2 134.117 99.0491   1
  14  -2  -2 132.536 120.747   1
   8   0  11 38.0836 104.827   1
   8   0  11 44.5045 63.4318   1
  -8   0 -11 4.44192 66.8723   1
  -9   4  15 1122.00 148.925   1
   9  -4 -15 822.304 154.120   1
   9   4 -15 1071.33 188.037   1
  -9  -4  15 945.902 185.563   1
  -9  -4  15 1272.43 174.056   1
   9   4 -15 1001.74 123.195   1
 -14   2  11 1583.37 180.427   1
 -14  -2  11 1660.29 247.351   1
 -14  -2  11 1652.35 210.937   1
  14   2 -11 1820.95 214.517   1
  14  -2 -11 1655.55 208.759   1
 -14   2  11 1988.58 205.150   1
  12   0 -16 5454.16 304.244   1
 -12   0  16 6174.36 333.617   1
 -12   0  16 5682.74 338.698   1
  -7   1 -12 830.312 113.285   1
   7  -1  12 903.032 122.257   1
   7  -1  12 503.856 165.225   1
   7   1  12 461.320 170.441   1
  15   0  -6 125.945 119.627   1
 -15   0   6 188.839 123.536   1
 -15   0   6 10.1741 119.434   1
 -13   4   6 9392.42 448.817   1
 -13  -4   6 10655.9 471.880   1
  13  -4  -6 8889.96 434.980   1
  13   4  -6 11255.8 477.990   1
  13  -4  -6 9080.91 447.377   1
  10   4   5 1180.09 145.366   1
 -10  -4  -5 1203.07 139.359   1
  10   4   5 1256.74 145.478   1
  10  -4   5 652.653 162.966   1
  10  -4   5 852.984 191.672   1
 -10   4  -5 741.829 171.297   1
  -7   2  18 1201.56 130.690   1
  -7  -2  18 535.733 155.223   1
   7  -2 -18 1115.93 135.502   1
   7   2 -18 587.350 168.011   1
  -7  -2  18 508.541 158.313   1
  -7   2  18 1145.73 164.455   1
  -3   7   9 2436.28 201.331   1
  -3   7   9 2472.13 193.953   1
   3  -7  -9 2082.85 196.735   1
  -3  -7   9 2546.20 248.112   1
   3   7  -9 3002.89 239.253   1
   3   7  -9 2591.73 257.314   1
 -15   0   8 -10.255 102.904   1
 -15   0   8 -57.617 105.631   1
  15   0  -8 -1.0923 108.161   1
   9  -6  -9 1588.72 216.782   1
  -9   6   9 1845.36 200.099   1
   9   6  -9 1490.63 198.626   1
   9   6  -9 1260.07 175.225   1
  -9  -6   9 1290.87 200.427   1
 -12   2  -4 4129.38 252.177   1
  12   2   4 3397.37 259.181   1
  12   2   4 3815.92 222.028   1
  12  -2   4 4269.76 247.331   1
  12  -2   4 3942.97 275.019   1
 -11  -3  15 3699.60 261.025   1
 -11  -3  15 3358.54 287.305   1
 -11   3  15 4225.54 264.867   1
  11   3 -15 4041.02 287.045   1
  11  -3 -15 4020.35 267.787   1
  11   3 -15 3913.21 213.931   1
  -2   7   9 6130.43 296.053   1
  -2   7   9 6007.52 309.940   1
   2  -7  -9 5494.81 285.320   1
   2   7  -9 5611.49 323.552   1
   2   7  -9 5899.82 345.951   1
  -2  -7   9 5818.70 339.537   1
  -1   5  14 6251.43 316.280   1
   1   5 -14 6029.82 363.374   1
  -1  -5  14 6630.92 328.106   1
   7   7  -1 1795.68 223.940   1
  -7  -7   1 1643.37 211.543   1
   7   7  -1 1730.83 225.186   1
  -7   7   1 1809.61 204.843   1
   7  -7  -1 1518.84 178.990   1
   7  -7  -1 1702.66 213.339   1
  11   4   3 297.589 126.045   1
  11   4   3 407.803 128.083   1
 -11  -4  -3 207.991 125.486   1
  11  -4   3 631.885 172.346   1
 -11   4  -3 856.782 163.727   1
  11  -4   3 982.542 161.849   1
  13  -4  -7 131.658 127.129   1
  13   4  -7 172.937 128.141   1
  13  -4  -7 153.890 134.278   1
 -13   4   7 278.466 126.561   1
 -13  -4   7 55.3315 130.400   1
  13  -4  -5 6168.78 353.467   1
  13   4  -5 6885.00 342.501   1
 -13   4   5 5126.10 333.866   1
  13  -4  -5 6074.80 350.649   1
 -13  -4   5 6483.45 342.723   1
   1   6  11 31.9129 107.908   1
   1  -6  11 115.679 119.472   1
  -1   6 -11 58.2978 118.158   1
   5   5  10 5401.68 221.803   1
   5  -5  10 4924.38 285.296   1
  -5   5 -10 4191.16 281.537   1
   6   7   2 239.024 155.083   1
  -6  -7  -2 269.393 127.527   1
   6   7   2 356.603 128.564   1
   6  -7   2 213.257 158.049   1
  -6   7  -2 -16.456 144.412   1
   6  -7   2 271.930 127.936   1
   0   8   0 283.975 128.948   1
   0   8   0 303.005 150.626   1
   0  -8   0 348.657 143.488   1
  11   2   6 1261.28 146.293   1
  11   2   6 1208.71 163.831   1
 -11   2  -6 1497.57 187.023   1
  11  -2   6 2005.74 187.924   1
  11  -2   6 1640.93 196.145   1
   2  -4  14 1789.89 190.697   1
  -2   4 -14 1655.40 196.419   1
 -11   0  17 13833.4 579.224   1
  11   0 -17 14328.9 610.483   1
 -11   0  17 14133.3 610.412   1
  12   0   5 50.1980 103.017   1
  12   0   5 91.7782 94.0957   1
 -12   0  -5 -35.839 97.1219   1
   5  -1  14 1178.72 111.225   1
  -5   1 -14 1024.76 108.579   1
   5   1  14 662.248 91.6724   1
   6  -6 -12 6461.44 315.814   1
  -6   6  12 5827.00 296.125   1
  -6   6  12 6198.63 329.203   1
   6   6 -12 6927.48 383.835   1
   6   6 -12 6412.29 341.625   1
  -6  -6  12 6988.66 371.518   1
   7   6   5 26156.2 955.330   1
  -7  -6  -5 25453.3 913.200   1
  -7   6  -5 24920.6 990.694   1
   7  -6   5 24020.2 926.635   1
   7  -6   5 24596.6 963.164   1
  -7   4  16 2872.75 181.144   1
   7  -4 -16 2769.27 188.334   1
  -7  -4  16 2373.87 205.479   1
  -7  -4  16 2885.18 237.156   1
   7   4 -16 2623.54 266.254   1
   7   4 -16 2768.20 173.188   1
 -14   0   0 480.777 158.523   1
  14   0   0 325.690 142.069   1
  14   0   0 547.437 150.657   1
  -9   1  18 12666.0 510.521   1
  -9  -1  18 12458.9 547.109   1
  -9  -1  18 11946.3 522.895   1
  -9   1  18 12338.3 533.095   1
   9  -1 -18 12835.9 521.970   1
   9   1 -18 11714.2 536.246   1
   0   8  -1 37.2595 106.462   1
   0  -8  -1 5.61571 115.981   1
   0  -8   1 -59.517 101.384   1
   0   8   1 -62.519 100.003   1
   0   8  -1 104.500 94.4005   1
   0   8   1 20.7477 86.6567   1
  11  -5 -10 786.431 197.231   1
 -11   5  10 703.620 163.383   1
  11   5 -10 1838.88 193.884   1
  11   5 -10 1440.43 188.298   1
 -11  -5  10 1551.88 197.014   1
 -10   6   5 220.661 124.062   1
  10   6  -5 59.6955 146.313   1
  10  -6  -5 290.226 130.334   1
 -10  -6   5 16.1131 120.200   1
  10  -6  -5 173.605 126.083   1
  13  -3 -12 19719.2 776.095   1
 -13  -3  12 18191.1 759.983   1
 -13   3  12 19502.6 764.159   1
 -13  -3  12 18304.1 749.993   1
  13   3 -12 18566.6 779.900   1
   4   5  11 1834.51 139.831   1
   4  -5  11 2332.95 230.376   1
  -4   5 -11 1855.47 228.141   1
   4   0  15 38.8022 63.9883   1
  -4   7   9 162.116 116.970   1
  -4   7   9 180.816 111.487   1
   4  -7  -9 191.934 125.674   1
   4   7  -9 320.359 131.151   1
   4   7  -9 188.708 146.154   1
  -4  -7   9 320.784 142.157   1
 -15   0   5 390.078 146.873   1
  15   0  -5 407.921 143.207   1
  15   0  -5 405.433 152.602   1
 -15   0   5 437.234 131.895   1
 -13  -3   0 20261.0 791.017   1
  13   3   0 21051.6 807.419   1
  13   3   0 19121.1 741.804   1
  13  -3   0 19456.0 804.128   1
 -13   3   0 18192.1 755.722   1
  13  -3   0 18737.5 760.656   1
  14   0 -13 24.9583 107.025   1
 -14   0  13 14.6179 101.424   1
 -14   0  13 32.4001 101.982   1
  -1   6  12 4558.14 292.558   1
  -1   6  12 4699.14 211.427   1
   1   6 -12 3898.01 287.495   1
  -1  -6  12 4029.44 285.017   1
 -10  -6   4 3400.15 245.994   1
  10  -6  -4 3114.18 257.141   1
  10  -6  -4 3267.13 248.769   1
  10   6  -4 3786.07 279.809   1
 -10   6   4 3807.00 264.354   1
   8  -3 -17 4177.56 244.641   1
  -8   3  17 4147.61 213.963   1
  -8  -3  17 3696.51 273.440   1
  -8  -3  17 4076.12 244.895   1
   8   3 -17 4606.21 317.153   1
   9  -5 -13 1451.82 171.059   1
  -9   5  13 1360.12 165.127   1
   9   5 -13 1035.34 204.530   1
  -9  -5  13 1138.00 207.527   1
  -9  -5  13 1448.57 190.435   1
   9   5 -13 928.050 176.742   1
  -1   8   0 1328.13 227.592   1
   1  -8   0 2088.03 216.490   1
   1   8   0 2666.01 239.627   1
  -1   8   0 2327.16 212.104   1
   1   8   0 2372.72 239.505   1
  -1  -8   0 2555.23 217.519   1
   6  -5   9 7.44181 143.953   1
  -6   5  -9 310.635 134.325   1
   6  -5   9 228.114 153.452   1
   6   5   9 270.288 77.2158   1
   1  -8  -1 220.452 140.671   1
  -1  -8   1 373.469 144.518   1
  -1   8   1 134.830 126.025   1
  -1   8   1 292.772 149.811   1
   1   8  -1 700.651 140.174   1
   1   8  -1 525.338 156.579   1
   1   7   8 34.6063 121.869   1
  -1  -7  -8 82.6159 84.7944   1
   1   7   8 17.2418 76.3609   1
   1  -7   8 27.5378 104.451   1
  -1   7  -8 -23.946 106.100   1
  -1   7  -8 -66.916 96.7344   1
 -14  -3   6 1210.93 180.988   1
  14  -3  -6 992.883 192.880   1
 -14   3   6 697.138 183.562   1
  14  -3  -6 1238.77 190.339   1
  14   3  -6 1159.67 166.000   1
  14  -3  -7 4299.28 291.635   1
 -14  -3   7 3590.51 263.988   1
  14   3  -7 3534.12 252.213   1
 -14  -3   7 3094.82 261.103   1
 -14   3   7 3685.57 272.521   1
  14  -3  -7 3747.31 285.290   1
 -15   0   9 777.785 174.757   1
 -15   0   9 1175.19 176.802   1
  15   0  -9 940.796 174.384   1
  -5  -7  -4 1212.45 155.458   1
   5   7   4 1422.84 147.495   1
   5   7   4 1806.72 200.657   1
  -5   7  -4 860.134 186.542   1
   5  -7   4 753.627 168.414   1
   5  -7   4 1117.88 190.285   1
  -7   7   6 474.348 133.386   1
  -7  -7   6 494.405 155.854   1
   7  -7  -6 321.714 142.256   1
   7   7  -6 548.659 154.432   1
   7   7  -6 598.956 155.961   1
  -7   7   6 250.367 176.865   1
   1   0  17 2723.16 188.947   1
   9   6   1 3439.62 235.925   1
  -9  -6  -1 3642.32 237.993   1
   9  -6   1 3495.00 271.972   1
   9  -6   1 3078.48 268.227   1
  -9   6  -1 3470.73 263.983   1
 -10   3  16 138.353 102.730   1
  10  -3 -16 151.440 115.840   1
  10   3 -16 30.5130 123.182   1
 -10  -3  16 57.3213 115.078   1
 -10  -3  16 99.4369 133.986   1
 -10   2  17 1296.76 187.780   1
  10  -2 -17 1606.35 171.219   1
  10   2 -17 824.104 170.250   1
 -10  -2  17 509.871 177.781   1
 -10  -2  17 905.807 151.831   1
 -15   1   7 714.625 142.437   1
 -15  -1   7 621.352 161.677   1
 -15   1   7 775.168 167.349   1
 -15  -1   7 541.167 159.640   1
  15   1  -7 1100.38 159.530   1
  15  -1  -7 717.979 160.666   1
  -2   3  17 6638.48 265.673   1
  -2  -3  17 5884.69 320.786   1
  -2  -3  17 6116.96 308.988   1
   2   3 -17 5756.45 304.991   1
   8  -1  11 4272.47 234.280   1
   8   1  11 3907.28 188.321   1
   8   1  11 4024.98 249.634   1
   8  -1  11 4488.94 280.813   1
  -8   1 -11 4103.62 228.301   1
  13  -4  -8 5606.66 325.725   1
  13   4  -8 4636.81 298.221   1
 -13   4   8 5625.75 313.728   1
 -13  -4   8 4794.28 299.715   1
 -13  -4   4 623.427 150.519   1
 -13   4   4 677.801 175.192   1
  13  -4  -4 684.910 169.520   1
  13  -4  -4 431.889 164.605   1
  13   4  -4 528.544 139.413   1
 -11  -3  -5 -40.303 99.1186   1
 -11   3  -5 120.528 136.929   1
  11  -3   5 241.090 137.374   1
  11  -3   5 171.062 106.696   1
  11   3   5 51.3966 115.292   1
  11   3   5 105.833 88.5633   1
  11   5   0 -38.876 105.237   1
 -11  -5   0 175.772 104.395   1
 -11   5   0 102.705 118.673   1
  11  -5   0 76.0760 118.325   1
  11  -5   0 -13.145 115.024   1
  10   6  -6 23.4829 110.469   1
 -10  -6   6 65.0911 108.149   1
 -10   6   6 91.4585 105.201   1
  10  -6  -6 109.430 108.771   1
  10  -6  -6 -99.560 105.732   1
  -1   7   9 114.032 104.007   1
   1  -7  -9 26.4410 103.653   1
  -1   7   9 105.188 108.619   1
  -1  -7   9 142.599 129.929   1
   1   7  -9 110.521 130.916   1
   1   7  -9 90.4033 122.193   1
  -3   2  18 4186.78 265.690   1
  -3  -2  18 3399.69 217.901   1
   3   2 -18 3367.63 223.425   1
  -3  -2  18 3443.33 242.065   1
 -12  -1  16 198.225 137.662   1
 -12   1  16 -3.8675 130.213   1
  12   1 -16 179.279 120.254   1
  12  -1 -16 108.901 116.883   1
 -12  -1  16 145.335 113.693   1
 -10   5  12 -4.6358 109.434   1
  10  -5 -12 -91.785 96.9397   1
  10   5 -12 -6.5055 126.505   1
  10   5 -12 205.850 104.006   1
 -10  -5  12 51.8211 116.155   1
  15   1  -6 664.120 149.712   1
  15  -1  -6 791.773 163.794   1
  15  -1  -6 804.596 172.240   1
 -15   1   6 559.132 131.525   1
 -15   1   6 668.769 162.170   1
 -15  -1   6 620.343 150.541   1
 -15  -1   6 549.082 155.951   1
 -12  -3  14 184.373 124.858   1
 -12  -3  14 104.161 143.708   1
 -12   3  14 87.2163 130.805   1
  12  -3 -14 213.712 114.098   1
  12   3 -14 130.921 135.591   1
  13   0 -15 2047.69 212.589   1
 -13   0  15 2024.65 219.243   1
 -13   0  15 2432.16 239.279   1
   1  -8   1 3848.62 290.122   1
  -1   8  -1 4529.60 281.775   1
  -1   8  -1 4689.52 310.173   1
  -1  -8  -1 4904.19 318.138   1
   1   8   1 4581.78 263.009   1
   1   8   1 3555.56 274.261   1
  15   1  -8 9327.06 430.096   1
 -15  -1   8 8699.36 433.247   1
 -15  -1   8 8898.30 431.789   1
 -15   1   8 9695.89 427.882   1
 -15   1   8 8892.19 439.768   1
  15  -1  -8 9493.28 454.078   1
  14  -3  -5 14229.1 598.755   1
  14   3  -5 13211.1 556.254   1
 -14   3   5 13206.7 581.660   1
 -14   3   5 12052.9 483.375   1
  14  -3  -5 12924.0 575.632   1
 -14  -3   5 14012.1 576.681   1
  13   0   3 3712.18 252.826   1
  13   0   3 3625.27 250.043   1
 -13   0  -3 3667.49 251.283   1
  10   6  -3 7068.43 380.169   1
 -10   6   3 7046.22 371.005   1
 -10  -6   3 6448.67 337.072   1
  10  -6  -3 6927.86 370.679   1
  10  -6  -3 6937.42 363.901   1
  -1  -8   2 3568.24 263.054   1
  -1   8   2 3723.40 268.202   1
  -1   8   2 3703.65 270.045   1
   1   8  -2 3529.69 255.628   1
   1   8  -2 3279.78 263.628   1
   1  -8  -2 3951.23 258.561   1
 -14   3   8 275.155 134.246   1
  14  -3  -8 257.690 137.231   1
  14   3  -8 149.733 121.215   1
 -14  -3   8 38.2419 140.681   1
 -14  -3   8 -33.892 129.132   1
   0  -2  17 54.8691 86.6021   1
   0   2 -17 125.225 92.4740   1
   0  -2  17 47.2700 93.8688   1
   0   2  17 -7.3572 90.9894   1
   0   8   2 285.197 141.399   1
   0   8  -2 352.738 134.729   1
   0   8   2 90.4145 141.410   1
   0   8  -2 340.249 146.177   1
   0  -8   2 338.328 148.744   1
   0  -8  -2 101.145 152.391   1
  11   0   7 37131.8 1437.38   1
 -11   0  -7 39374.8 1451.92   1
  11   0   7 40548.1 1463.79   1
  -6   7   8 222.949 115.920   1
  -6   7   8 231.308 122.942   1
   6   7  -8 197.312 125.018   1
  -6  -7   8 224.541 138.835   1
   6   7  -8 151.141 148.298   1
  -2   4  16 3356.45 195.397   1
  -2  -4  16 3487.63 216.509   1
   2   4 -16 2861.59 248.002   1
  -2  -4  16 2793.01 230.704   1
 -12   3  -3 837.280 187.149   1
 -12  -3  -3 490.478 127.651   1
  12   3   3 402.967 131.224   1
  12  -3   3 703.839 171.997   1
  12  -3   3 749.284 155.120   1
  12   3   3 479.155 150.561   1
  -1   0  18 -24.886 85.9565   1
   7   7   0 1710.43 212.829   1
   7   7   0 1267.49 211.442   1
  -7  -7   0 1441.15 191.608   1
   7  -7   0 1380.43 206.381   1
  -7   7   0 1265.43 194.471   1
   7  -7   0 1263.49 175.349   1
 -11   1  17 4361.92 299.341   1
  11  -1 -17 4714.43 297.855   1
  11   1 -17 4359.41 311.357   1
 -11  -1  17 4495.80 304.385   1
 -11  -1  17 4836.42 304.456   1
 -11   1  17 4285.88 277.030   1
 -12   1  -5 119.735 114.102   1
  12   1   5 -7.1078 110.098   1
  12   1   5 158.346 96.0059   1
 -12  -1  -5 143.794 99.1365   1
  12  -1   5 46.6741 107.480   1
  12  -1   5 38.3719 116.782   1
  -9   0 -10 48.7405 77.3620   1
   9   0  10 -0.0157 127.317   1
   9   0  10 39.6869 75.8532   1
   9  -4   7 3792.34 274.137   1
   9   4   7 3727.02 214.558   1
  -9  -4  -7 3213.60 186.429   1
  -9   4  -7 3351.39 273.630   1
   9   4   7 2971.02 166.815   1
  -6   3 -12 1294.48 176.022   1
   6  -3  12 1475.36 171.515   1
   6   3  12 1457.40 163.485   1
   8  -2 -18 92.9899 100.121   1
  -8  -2  18 356.376 128.691   1
  -8  -2  18 312.379 132.542   1
  -8   2  18 57.3102 110.950   1
  -8   2  18 307.138 133.386   1
   8   2 -18 311.566 148.298   1
  14   1   0 2871.96 216.605   1
  14  -1   0 3171.23 258.620   1
  14  -1   0 3127.73 249.845   1
  14   1   0 2984.02 268.124   1
 -14   1   0 3014.88 236.660   1
 -14  -1   0 2765.63 211.745   1
   2  -8  -1 455.174 140.691   1
  -2   8   1 252.875 156.054   1
  -2  -8   1 237.808 134.529   1
  -2   8   1 559.745 164.598   1
   2   8  -1 96.3075 153.717   1
   2   8  -1 157.555 150.895   1
 -13  -2  14 2392.16 214.027   1
  13  -2 -14 2014.54 205.436   1
 -13   2  14 2110.54 211.817   1
 -13   2  14 2015.94 229.936   1
  13   2 -14 2628.43 233.176   1
 -13  -2  14 2311.03 231.509   1
  13  -2   2 303.493 147.299   1
  13   2   2 327.285 124.303   1
 -13   2  -2 307.790 129.643   1
  13  -2   2 370.318 150.964   1
  13   2   2 331.914 145.273   1
   3   5  12 5341.96 232.360   1
  -3   5 -12 5913.09 319.128   1
   3  -5  12 5935.36 310.190   1
   4  -1  15 2082.74 147.865   1
  -4   1 -15 2087.35 150.842   1
   4   1  15 3001.63 151.416   1
   4  -1  15 2181.29 152.764   1
   4  -6   9 3728.04 258.192   1
  -4   6  -9 3420.73 265.762   1
   8  -6 -11 7756.17 389.383   1
  -8   6  11 7083.70 357.624   1
  -8   6  11 8043.47 381.659   1
   8   6 -11 9059.07 451.948   1
   8   6 -11 8579.38 407.852   1
  -8  -6  11 9326.47 445.039   1
 -15   1   5 1174.94 183.061   1
 -15   1   5 1216.80 153.332   1
 -15  -1   5 1249.62 177.362   1
  15  -1  -5 1225.46 177.427   1
  15  -1  -5 954.490 184.148   1
  15   1  -5 828.275 159.767   1
 -15  -1   5 596.506 166.447   1
  14  -1 -13 6090.63 340.029   1
  14   1 -13 5946.91 339.551   1
 -14   1  13 6312.86 331.565   1
 -14  -1  13 6087.89 394.467   1
 -14   1  13 5806.68 327.736   1
 -14  -1  13 5708.49 324.224   1
  -2   8   0 8088.46 428.090   1
  -2   8   0 7570.38 386.198   1
  -2  -8   0 8909.84 411.885   1
   2  -8   0 7967.07 415.396   1
   2   8   0 9158.36 447.730   1
   2   8   0 8865.14 450.663   1
 -15   0   4 16.7373 96.8839   1
  15   0  -4 191.201 108.462   1
  15   0  -4 -81.127 112.268   1
 -15   0   4 63.9854 111.945   1
  -2   8   2 98.0212 112.010   1
  -2  -8   2 192.938 118.058   1
  -2   8   2 88.5820 132.740   1
   2   8  -2 59.4858 118.827   1
   2  -8  -2 5.19151 120.297   1
   2   8  -2 187.224 136.691   1
   5   3  13 139.405 101.585   1
   5  -3  13 64.6267 105.181   1
  -5   3 -13 98.9471 113.360   1
   7  -5   8 2613.80 202.913   1
   7  -5   8 2522.80 225.114   1
   7   5   8 1715.02 132.738   1
  -7   5  -8 2123.22 207.595   1
 -15   1   9 -90.841 112.470   1
 -15  -1   9 -27.434 118.130   1
 -15   1   9 11.0082 106.588   1
  15  -1  -9 -6.0560 115.223   1
  15   1  -9 -30.860 107.406   1
  -8   5  14 3351.90 213.556   1
   8  -5 -14 2957.64 221.465   1
  -8  -5  14 3279.33 257.141   1
   8   5 -14 3451.06 229.176   1
   8   5 -14 3038.54 264.602   1
  -8  -5  14 3196.66 244.414   1
  12  -4 -12 133.818 125.038   1
 -12   4  12 192.552 139.031   1
  12   4 -12 2.96131 137.182   1
 -12  -4  12 194.172 132.366   1
 -12  -4  12 166.497 142.102   1
  10  -6  -7 2195.79 211.802   1
  10   6  -7 2200.55 216.720   1
  10   6  -7 2307.56 217.003   1
 -10  -6   7 2467.93 226.918   1
 -10   6   7 2177.59 240.427   1
   2   2  16 93.2477 75.7463   1
   2  -2  16 -26.351 90.7917   1
   2  -2  16 97.7227 76.4563   1
  -2   2 -16 3.75829 87.4691   1
   5   6   8 83.0747 82.4272   1
  -5   6  -8 409.986 137.042   1
   5  -6   8 233.228 134.110   1
  10   5   3 2118.11 178.112   1
 -10  -5  -3 2061.86 178.692   1
 -10   5  -3 2027.48 218.992   1
  10  -5   3 2123.92 222.459   1
   1  -1  17 3227.93 193.297   1
   1  -1  17 3132.84 180.856   1
   1   1  17 3449.27 197.275   1
  -1   1 -17 3246.56 171.246   1
  -5   7   9 6406.85 368.923   1
  -5   7   9 6559.95 327.536   1
  -5  -7   9 7508.79 398.586   1
   5   7  -9 7681.65 414.266   1
  -7   3 -11 268.050 129.006   1
   7   3  11 186.134 115.338   1
   7  -3  11 325.435 130.855   1
   7  -3  11 233.748 158.206   1
 -15   0  10 43.7067 121.181   1
  15   0 -10 -3.1930 124.629   1
 -15   0  10 140.212 118.724   1
  -9  -5  -5 414.917 101.312   1
   9   5   5 181.971 102.725   1
   9   5   5 194.998 97.3213   1
   9  -5   5 49.9932 140.111   1
   9  -5   5 252.116 130.588   1
  -9   5  -5 94.3188 164.704   1
  -1  -8  -2 33.2304 134.064   1
  -1   8  -2 261.435 125.457   1
   1   8   2 -129.27 127.595   1
   1  -8   2 134.174 132.604   1
   1  -8   2 114.878 81.9750   1
   1   8   2 98.4241 126.634   1
  -1   8  -2 195.113 139.343   1
  13   4  -9 1395.41 170.267   1
 -13   4   9 427.272 158.014   1
 -13  -4   9 1237.46 178.675   1
  13  -4  -9 615.265 171.738   1
 -13  -4   9 734.857 168.427   1
   6   0 -19 102.556 112.568   1
  -6   0  19 40.7423 91.0277   1
  -6   0  19 240.631 123.436   1
 -13  -4   3 14591.6 619.233   1
  13   4  -3 13646.3 583.802   1
  13  -4  -3 12231.2 548.002   1
  13  -4  -3 12793.9 578.285   1
 -13   4   3 11497.8 537.251   1
 -14  -3   4 2908.54 235.535   1
 -14   3   4 3844.91 273.287   1
  14   3  -4 3078.63 225.127   1
 -14   3   4 3366.47 197.128   1
  14  -3  -4 3965.70 270.064   1
  14  -3  -4 3494.33 278.889   1
  14  -2  -1 96.1860 138.483   1
  14  -2  -1 236.287 125.511   1
  14   2  -1 117.616 131.354   1
  14   2  -1 145.324 112.212   1
 -14   2   1 72.6275 132.347   1
  -1   8   3 2330.21 216.177   1
  -1  -8   3 1519.77 205.701   1
  -1   8   3 2068.77 200.570   1
   1  -8  -3 1862.44 227.756   1
   1   8  -3 1394.03 195.528   1
   1   8  -3 1457.93 216.140   1
 -10   3  -7 4501.80 266.540   1
  10   3   7 4023.51 209.404   1
  10  -3   7 5064.95 318.861   1
  10   3   7 4280.15 257.568   1
  10  -3   7 4610.97 297.442   1
 -10  -3  -7 3861.41 208.236   1
 -12  -4  -1 2422.06 199.125   1
  12   4   1 2086.00 196.181   1
  12   4   1 1967.59 191.408   1
 -12   4  -1 2001.41 216.272   1
  12  -4   1 2098.48 224.819   1
  12  -4   1 2095.84 217.220   1
  14  -3  -9 334.976 142.330   1
  14   3  -9 -73.060 129.654   1
 -14   3   9 286.379 133.945   1
 -14  -3   9 97.9099 128.969   1
 -14  -3   9 99.7723 156.131   1
 -10  -6   2 6670.60 331.627   1
  10  -6  -2 6201.26 351.711   1
  10  -6  -2 6351.27 367.614   1
  10   6  -2 6306.22 318.319   1
 -10   6   2 6621.81 359.018   1
   5   0 -19 12927.1 506.730   1
  -5   0  19 13038.6 502.050   1
  -5   0  19 12478.6 528.967   1
 -12   5   6 367.082 140.457   1
  12   5  -6 274.328 135.368   1
  12  -5  -6 509.879 164.125   1
  12  -5  -6 142.414 148.434   1
 -12  -5   6 240.211 134.921   1
  12   5  -5 274.216 136.974   1
 -12  -5   5 383.191 165.242   1
 -12   5   5 540.534 147.608   1
  12  -5  -5 448.198 174.986   1
  12  -5  -5 413.115 158.792   1
 -13   1  15 10397.4 486.661   1
  13   1 -15 11510.2 512.054   1
 -13  -1  15 10260.6 501.930   1
 -13   1  15 11035.1 471.562   1
 -13  -1  15 11342.0 525.825   1
  13  -1 -15 10997.7 488.483   1
  10  -2   8 80.3186 114.410   1
  10  -2   8 -35.097 105.273   1
  10   2   8 79.7207 99.2899   1
 -10   2  -8 94.2436 102.145   1
 -10  -2  -8 13.1570 73.3853   1
  10   2   8 96.1614 72.4195   1
  14  -2 -12 1441.77 193.123   1
  14   2 -12 889.865 198.926   1
 -14  -2  12 1067.40 194.641   1
 -14   2  12 1566.91 183.666   1
 -14   2  12 1374.69 180.742   1
 -14  -2  12 992.735 186.477   1
  13  -1   3 314.184 146.980   1
  13   1   3 452.776 137.175   1
  13  -1   3 434.956 145.682   1
 -13  -1  -3 544.960 138.223   1
  13   1   3 492.534 133.855   1
 -13   1  -3 209.015 157.076   1
  -7   7   7 2289.83 224.698   1
  -7   7   7 2100.42 227.923   1
  -7  -7   7 2041.84 219.181   1
   7   7  -7 1877.48 208.956   1
   7   7  -7 1736.54 220.010   1
   3   6  10 4889.24 324.596   1
   3  -6  10 4139.31 275.856   1
  -3   6 -10 3990.78 287.340   1
  11  -1   7 369.993 148.208   1
 -11  -1  -7 603.301 124.125   1
  11  -1   7 302.925 130.364   1
 -11   1  -7 288.648 131.055   1
  11   1   7 634.872 134.958   1
  11   1   7 505.884 124.619   1
   0  -8  -3 259.107 155.918   1
   0  -8   3 203.979 97.3685   1
   0   8  -3 378.898 142.497   1
   0   8   3 456.466 120.297   1
   0   8   3 444.262 143.317   1
   0  -8   3 170.159 157.697   1
   0   8  -3 196.615 152.074   1
 -10   0  18 302.875 144.954   1
 -10   0  18 356.804 140.505   1
  10   0 -18 519.548 150.162   1
  -2   8  -1 1607.26 197.997   1
  -2  -8  -1 1811.29 226.137   1
  -2   8  -1 2020.42 224.223   1
   2  -8   1 1640.42 218.646   1
   2   8   1 1996.85 185.103   1
   2   8   1 1744.25 215.937   1
   2  -8   1 1658.09 141.295   1
  -4   5  15 12407.4 473.467   1
  -4   5  15 12344.4 434.301   1
   4   5 -15 11646.3 518.372   1
  -4  -5  15 10928.0 526.243   1
   8  -4 -16 2201.14 168.337   1
  -8   4  16 1847.82 173.261   1
   8   4 -16 1639.68 204.171   1
  -8  -4  16 1622.92 188.580   1
  -8  -4  16 1846.74 215.572   1
  -5   5  15 142.653 100.934   1
  -5   5  15 95.5641 84.5991   1
   5  -5 -15 256.366 84.8665   1
   5   5 -15 498.437 148.035   1
   5   5 -15 374.119 124.995   1
  -5  -5  15 432.802 133.567   1
  -7   6  12 17.2470 82.9220   1
  -7   6  12 32.0498 83.1602   1
   7  -6 -12 15.5395 86.8875   1
  -7  -6  12 -185.34 93.5911   1
   7   6 -12 65.8024 92.4382   1
   7   6 -12 -12.160 111.495   1
  -1  -1  18 1735.32 140.949   1
   1   1 -18 1734.92 141.917   1
  -1   1  18 1943.77 171.466   1
  -1  -1  18 1461.57 164.083   1
   2   8  -3 1069.85 197.194   1
  -2   8   3 1059.75 181.979   1
   2   8  -3 883.730 177.729   1
   2  -8  -3 1150.44 172.248   1
  -2   8   3 1367.55 185.060   1
  -2  -8   3 1355.23 186.060   1
   9  -6 -10 161.927 122.862   1
  -9   6  10 217.993 140.679   1
  -9  -6  10 398.472 153.539   1
   9   6 -10 493.892 154.390   1
   9   6 -10 268.703 152.525   1
   0   7   9 6823.26 342.812   1
   0   7   9 6754.61 305.696   1
   0  -7  -9 7041.98 311.077   1
   0   7  -9 6757.46 395.782   1
   0  -7   9 6742.22 362.365   1
   0   7  -9 5949.24 358.547   1
  -9   1 -10 1106.73 156.507   1
   9  -1  10 1353.40 134.435   1
   9   1  10 1500.73 191.714   1
   9   1  10 1232.50 112.627   1
   9  -1  10 1336.01 189.818   1
  -9  -1 -10 1207.71 112.330   1
   6   4  11 3875.22 226.956   1
   6  -4  11 3306.22 259.367   1
  -6   4 -11 3362.06 271.494   1
  12  -5  -7 17528.6 728.620   1
  12   5  -7 17136.2 694.164   1
  12  -5  -7 17264.0 694.439   1
 -12  -5   7 17176.3 700.911   1
 -12   5   7 16539.0 683.175   1
  -7   0  19 4410.86 283.197   1
  -7   0  19 4603.24 254.428   1
   7   0 -19 4280.97 258.738   1
  12  -5  -4 342.936 150.899   1
  12  -5  -4 72.5782 159.352   1
 -12  -5   4 355.201 125.344   1
  12   5  -4 232.745 150.325   1
 -12   5   4 130.941 138.414   1
   5   4  12 6811.30 306.930   1
   5  -4  12 5453.37 335.829   1
  -5   4 -12 5598.43 345.232   1
   3   0  16 35.5721 65.3626   1
   6   7   3 10961.6 465.879   1
   6   7   3 12045.0 548.930   1
  -6  -7  -3 11289.8 476.153   1
   6  -7   3 11274.0 532.479   1
   6  -7   3 10996.7 490.300   1
  -6   7  -3 11545.1 534.226   1
   0   5  14 118.350 107.006   1
   0  -5  14 65.9457 122.310   1
   0   5 -14 51.4100 110.358   1
  -6  -6  -7 1366.40 137.317   1
  -6   6  -7 1239.81 191.804   1
   6  -6   7 1432.41 190.520   1
   6   6   7 1621.63 135.740   1
   6  -6   7 940.365 178.755   1
   0   6  12 39224.5 1443.29   1
   0   6 -12 37278.2 1435.35   1
   0  -6  12 36747.7 1407.16   1
 -15   1   4 18.0773 101.255   1
 -15  -1   4 61.3070 109.093   1
  15  -1  -4 200.398 118.427   1
 -15   1   4 68.0641 127.565   1
  15   1  -4 74.5737 114.166   1
  15  -1  -4 105.777 131.316   1
 -15  -1   4 80.1405 117.546   1
  15   1  -4 114.901 117.342   1
   1  -3  16 4363.45 241.351   1
   1  -3  16 5149.72 272.227   1
  -1   3 -16 5052.10 279.871   1
   3   7   7 -39.916 86.0835   1
  -3  -7  -7 27.3399 90.9618   1
   3   7   7 116.954 119.863   1
   3  -7   7 154.616 115.724   1
  -3   7  -7 142.680 122.180   1
   4  -3  14 10118.9 431.012   1
  -4   3 -14 10136.8 437.802   1
   4   0 -19 166.585 91.2549   1
  -4   0  19 -32.555 112.316   1
  -4   0  19 62.3422 81.4247   1
   4   7   6 347.054 99.9505   1
  -4   7  -6 336.243 152.242   1
  -4  -7  -6 219.917 123.970   1
   4  -7   6 220.619 148.432   1
   4  -7   6 487.201 150.607   1
   4   7   6 414.514 153.842   1
  15  -1 -10 883.422 183.560   1
  15   1 -10 1014.46 176.716   1
 -15  -1  10 1544.72 199.561   1
 -15   1  10 677.950 174.927   1
 -15   1  10 714.032 179.467   1
  -2  -2  18 10003.6 436.329   1
  -2   2  18 9657.27 438.812   1
  -2  -2  18 9725.31 423.312   1
   2   2 -18 9630.52 397.408   1
  11  -5 -11 330.666 157.942   1
 -11   5  11 256.646 122.913   1
 -11  -5  11 158.546 146.641   1
  11   5 -11 241.429 141.337   1
  11   5 -11 187.938 147.999   1
  -6   2 -13 1717.82 151.302   1
   6  -2  13 1872.96 157.713   1
   6   2  13 2122.33 206.108   1
   8   6   4 2339.09 180.809   1
  -8  -6  -4 2450.97 178.449   1
  -8   6  -4 2477.14 244.160   1
   8  -6   4 2459.09 234.239   1
   8  -6   4 2387.38 218.264   1
  -3   5  15 72.9305 88.8761   1
  -3  -5  15 105.871 112.378   1
   3   5 -15 109.370 150.143   1
   8   3  10 194.096 108.963   1
   8  -3  10 -136.80 136.388   1
  -8   3 -10 60.6726 115.348   1
   9  -3 -17 1041.72 152.323   1
  -9   3  17 1237.11 143.080   1
  -9  -3  17 1118.22 158.683   1
  -9  -3  17 796.395 184.702   1
   9   3 -17 862.220 179.399   1
   3   8  -1 657.088 141.712   1
   3   8  -1 723.930 175.108   1
   3  -8  -1 429.383 164.417   1
  -3   8   1 294.974 158.711   1
  -3  -8   1 493.039 178.515   1
  -3   8   1 328.217 147.146   1
   6  -1 -19 559.428 125.312   1
  -6   1  19 608.835 158.917   1
  -6  -1  19 878.502 194.763   1
  -6  -1  19 1103.96 145.473   1
  -6   1  19 886.270 128.240   1
   6   1 -19 774.936 155.988   1
  -1   4 -15 1175.74 170.473   1
   1  -4  15 868.809 169.183   1
  -7  -7  -1 8369.51 404.191   1
   7   7   1 8127.59 419.557   1
   7   7   1 8090.95 457.544   1
  -7   7  -1 11108.2 509.251   1
   7  -7   1 11071.5 511.504   1
   7  -7   1 10659.1 464.548   1
  -3   8   2 1375.70 173.843   1
  -3   8   2 1559.94 198.648   1
   3  -8  -2 1172.93 221.952   1
   3   8  -2 1299.71 200.608   1
   3   8  -2 1108.35 164.234   1
  -3  -8   2 1200.14 214.109   1
  10  -6  -8 172.484 125.415   1
 -10   6   8 296.456 146.058   1
 -10  -6   8 134.201 137.311   1
  10   6  -8 185.493 134.361   1
  10   6  -8 84.0284 155.545   1
  -6   5  15 3809.43 212.282   1
  -6   5  15 4108.94 215.553   1
   6  -5 -15 3885.90 215.379   1
   6   5 -15 3518.09 274.336   1
  -6  -5  15 3679.50 261.037   1
  -6  -5  15 3422.11 248.524   1
   6   5 -15 4070.98 240.106   1
   7   2  12 348.428 146.471   1
  -7   2 -12 534.416 116.218   1
   7  -2  12 260.872 112.561   1
  -5  -1  19 16583.3 665.860   1
  -5   1  19 18192.6 708.281   1
  -5   1  19 17568.1 613.497   1
   5   1 -19 17718.8 678.842   1
  -5  -1  19 17728.6 649.329   1
   5  -1 -19 16253.1 588.136   1
  -4   6  13 444.645 105.010   1
   4  -6 -13 517.324 113.168   1
  -4   6  13 292.300 134.898   1
  -4  -6  13 733.613 167.236   1
   4   6 -13 510.561 166.435   1
   4   6 -13 911.196 160.486   1
   7  -4  10 3787.03 286.297   1
   7  -4  10 3323.16 278.603   1
  -7   4 -10 4077.33 293.734   1
   7   4  10 3629.38 224.568   1
  15   0  -3 1893.74 195.761   1
  15   0  -3 1685.82 196.395   1
 -15   0   3 1736.00 162.580   1
 -15   0   3 1300.99 182.334   1
   1   8   3 4532.19 287.269   1
  -1   8  -3 4391.28 288.592   1
  -1   8  -3 4683.82 309.620   1
  -1  -8  -3 4592.78 303.250   1
   1  -8   3 4678.12 231.307   1
   1  -8   3 4022.23 304.756   1
   1   8   3 4834.81 298.077   1
  -9  -6  -2 100.570 94.3272   1
   9   6   2 7.50730 97.6496   1
   9  -6   2 95.0073 115.356   1
   9  -6   2 22.0559 123.157   1
  -9   6  -2 -41.518 116.897   1
  -1   3  17 1502.06 140.946   1
  -1  -3  17 1268.14 168.643   1
  -1  -3  17 1404.45 162.300   1
   1   3 -17 1410.91 177.119   1
 -14   3   3 -15.115 115.617   1
 -14   3   3 43.5468 83.0239   1
  14  -3  -3 15.2313 112.566   1
 -14  -3   3 43.3123 125.874   1
  14  -3  -3 0.23561 123.003   1
  14   3  -3 117.978 96.6632   1
 -11   4  14 3621.21 226.103   1
  11  -4 -14 3956.93 276.409   1
  11   4 -14 3543.48 278.510   1
 -11  -4  14 4009.78 264.561   1
  11   4 -14 4080.41 245.463   1
 -11  -4  14 4057.79 301.078   1
   2   7   8 3617.74 211.812   1
   2   7   8 4012.19 266.551   1
  -2  -7  -8 3564.25 220.332   1
  -2   7  -8 3393.52 264.646   1
   2  -7   8 3866.94 274.528   1
  10  -4 -15 183.376 110.238   1
 -10   4  15 105.431 105.427   1
  10   4 -15 75.8621 85.2252   1
  10   4 -15 42.0607 128.558   1
 -10  -4  15 61.1474 138.908   1
 -10  -4  15 -73.002 119.921   1
 -10   1  18 733.616 141.802   1
 -10  -1  18 590.849 159.175   1
 -10  -1  18 508.678 155.483   1
 -10   1  18 634.033 159.389   1
  10  -1 -18 518.502 149.003   1
  10   1 -18 485.143 145.061   1
  12  -5  -8 2487.14 243.565   1
  12   5  -8 3479.77 249.008   1
 -12   5   8 2855.91 236.785   1
 -12  -5   8 3434.68 255.455   1
   1   8  -4 177.642 123.815   1
  -1  -8   4 104.742 117.914   1
  -1   8   4 26.5570 113.954   1
   1  -8  -4 121.044 125.530   1
   1   8  -4 -99.989 111.296   1
  -1   8   4 -48.985 110.946   1
   4   4  13 6179.79 282.675   1
  -4   4 -13 5831.98 342.287   1
   4  -4  13 6210.09 348.456   1
  -3   6  13 9364.40 367.358   1
  -3   6  13 9032.13 415.304   1
   3  -6 -13 8866.50 358.074   1
   3   6 -13 10444.7 471.754   1
  -3  -6  13 10226.9 480.687   1
   3   6 -13 10402.4 503.524   1
   2   8   2 1595.31 205.808   1
   2  -8   2 1775.93 143.507   1
   2  -8   2 1510.80 209.412   1
   2   8   2 1532.00 198.836   1
  -2   8  -2 1660.89 197.879   1
  -2   8  -2 1774.91 218.309   1
  -2  -8  -2 1432.96 208.013   1
  -2   5 -13 2548.16 206.127   1
   2  -5  13 2231.99 197.070   1
 -11  -5  -1 3058.45 230.309   1
  11   5   1 2930.05 213.893   1
  11  -5   1 3926.25 262.912   1
  11  -5   1 2997.33 260.692   1
 -11   5  -1 3361.39 264.975   1
  14  -3 -10 839.515 178.765   1
 -14   3  10 643.048 166.548   1
 -14  -3  10 533.507 210.626   1
 -14  -3  10 804.660 176.436   1
  14   3 -10 601.754 175.329   1
   3  -8   0 6208.10 278.471   1
   3  -8   0 6934.20 428.264   1
   3   8   0 6345.31 373.144   1
   3   8   0 5775.35 309.768   1
  -3  -8   0 5992.99 363.020   1
  -3   8   0 5853.40 364.617   1
  -3   8   0 5956.62 342.840   1
  10   6  -1 233.211 137.368   1
 -10  -6   1 294.999 139.907   1
  10  -6  -1 216.672 145.821   1
  10  -6  -1 299.687 156.317   1
 -10   6   1 162.896 145.234   1
  15   0 -11 2277.80 226.159   1
 -15   0  11 2213.73 211.229   1
 -15   0  11 2193.97 237.934   1
 -13  -3  13 2749.51 227.858   1
 -13  -3  13 2361.92 304.508   1
 -13   3  13 2361.71 211.202   1
  13   3 -13 2287.30 237.122   1
  13  -3 -13 2567.04 222.226   1
 -12  -5   3 2555.87 209.505   1
 -12   5   3 1985.45 229.538   1
  12   5  -3 2113.93 228.190   1
  12  -5  -3 2544.15 222.375   1
  12  -5  -3 2553.01 244.392   1
  13   3   1 26916.4 1046.11   1
  13   3   1 27231.9 1024.72   1
 -13  -3  -1 27606.4 1031.31   1
 -13   3  -1 25641.5 1014.99   1
  13  -3   1 26230.7 1050.68   1
  13  -3   1 25859.1 1009.33   1
   5  -2  14 2734.50 183.412   1
   5   2  14 2800.39 153.268   1
  -5   2 -14 3586.44 216.005   1
 -13   4  10 1873.78 211.058   1
  13  -4 -10 1938.20 224.771   1
  13   4 -10 2611.89 226.334   1
 -13  -4  10 2768.36 239.196   1
 -13  -4  10 2608.34 225.347   1
   2   6  11 3477.72 240.304   1
  -2   6 -11 3167.01 251.755   1
   2  -6  11 3206.04 250.328   1
  14   0   1 19.2550 113.571   1
  14   0   1 92.1192 95.0475   1
 -14   0  -1 19.9608 123.199   1
  13   4  -2 545.091 130.005   1
 -13  -4   2 324.226 159.520   1
 -13   4   2 272.420 151.868   1
  13  -4  -2 211.238 162.445   1
  13  -4  -2 519.789 153.939   1
   8   7  -4 786.630 233.989   1
   8  -7  -4 926.168 180.073   1
   8  -7  -4 1197.12 173.559   1
   8   7  -4 795.800 173.703   1
  -8   7   4 1173.82 175.685   1
  -8  -7   4 925.484 200.092   1
  -3  -8   3 10727.0 491.385   1
  -3   8   3 11905.4 490.793   1
  -3   8   3 11723.3 532.054   1
   3   8  -3 10084.3 461.197   1
   3   8  -3 10704.7 505.487   1
   3  -8  -3 11089.0 548.861   1
  -1   4  16 2663.42 191.615   1
  -1  -4  16 2643.28 191.111   1
   1   4 -16 2517.36 227.898   1
  -1  -4  16 2851.74 221.210   1
   5  -6 -13 2383.34 181.468   1
  -5   6  13 2477.38 186.445   1
  -5   6  13 2636.57 214.690   1
   5   6 -13 2419.56 220.614   1
  -5  -6  13 2305.25 228.055   1
  -2  -8   4 505.640 172.065   1
   2  -8  -4 445.787 182.095   1
   2   8  -4 760.653 164.142   1
   2   8  -4 718.679 177.464   1
  -2   8   4 477.507 159.645   1
  -2   8   4 978.663 138.174   1
  -7   1  19 1394.88 154.434   1
  -7   1  19 1445.86 183.488   1
  -7  -1  19 1206.53 168.208   1
   7   1 -19 908.411 178.893   1
   7  -1 -19 1431.23 167.104   1
  -7  -1  19 950.989 180.722   1
   8   5   7 1473.03 122.223   1
   8   5   7 1579.58 137.502   1
   8  -5   7 1674.04 209.816   1
   8  -5   7 1967.36 228.995   1
  -8   5  -7 1463.34 199.425   1
  -3   7  10 20330.4 769.147   1
  -3   7  10 19545.0 787.547   1
  -3  -7  10 19821.1 807.686   1
   3   7 -10 19127.7 810.753   1
   3   7 -10 19853.0 833.823   1
   3  -1  16 777.870 102.658   1
   3   1  16 396.977 100.371   1
   3  -1  16 530.540 95.0568   1
   8   7  -3 9444.53 482.621   1
   8  -7  -3 9576.33 462.658   1
  -8   7   3 8556.21 439.443   1
   8  -7  -3 9845.11 436.437   1
  -8  -7   3 8863.07 420.366   1
   8   7  -3 9859.83 480.359   1
  -9   2  18 82.8062 106.251   1
  -9  -2  18 311.744 133.085   1
  -9  -2  18 301.839 109.588   1
   9  -2 -18 114.847 110.530   1
   9   2 -18 190.973 118.349   1
  -9   2  18 -64.774 127.385   1
 -14   0  14 11798.7 520.839   1
  14   0 -14 11044.9 511.496   1
  10   0   9 10.0780 109.512   1
  10   0   9 42.7217 80.5504   1
 -10   0  -9 82.2532 88.1510   1
   5  -7   5 291.227 149.487   1
  -5  -7  -5 342.298 124.352   1
  -5   7  -5 111.477 143.549   1
   5   7   5 324.565 118.731   1
   5   7   5 197.600 144.096   1
   5  -7   5 147.317 139.958   1
  -6   7   9 118.385 144.902   1
   6  -7  -9 193.242 128.823   1
  -6   7   9 232.350 126.048   1
  -6  -7   9 116.865 142.430   1
   6   7  -9 210.354 126.991   1
   6   7  -9 237.387 153.404   1
  -8   0  19 33.9592 100.055   1
  -8   0  19 0.66846 85.2161   1
   8   0 -19 -55.367 92.5727   1
   0  -8  -4 496.623 164.356   1
   0   8   4 511.751 156.308   1
   0   8  -4 694.725 166.715   1
   0   8  -4 515.683 179.769   1
   0   8   4 689.974 157.548   1
   0  -8   4 727.841 176.189   1
   8  -7  -5 603.677 157.974   1
   8  -7  -5 552.001 125.264   1
  -8  -7   5 511.323 150.049   1
  -8   7   5 422.358 143.235   1
   8   7  -5 446.821 165.057   1
   8   7  -5 204.467 153.112   1
  -4  -1  19 2736.14 184.604   1
  -4   1  19 3165.02 221.483   1
   4   1 -19 2772.85 195.855   1
  -4  -1  19 2645.93 241.001   1
   2  -7 -10 3498.74 226.268   1
  -2   7  10 3384.50 222.592   1
  -2   7  10 3143.28 263.720   1
  -2  -7  10 4195.28 287.440   1
   2   7 -10 4049.81 293.532   1
   2   7 -10 4638.35 318.143   1
  -4   7  10 284.913 119.585   1
  -4   7  10 202.281 152.784   1
   4   7 -10 525.840 172.872   1
   4   7 -10 323.165 160.661   1
  -4  -7  10 346.318 152.487   1
 -15  -2   7 261.530 126.807   1
 -15  -2   7 129.875 118.305   1
 -15   2   7 -32.076 120.495   1
  15   2  -7 52.8963 112.648   1
  15  -2  -7 -86.500 114.370   1
 -15   2   7 -9.8567 98.0718   1
 -11  -4  -4 29280.5 1084.31   1
  11   4   4 30013.4 1103.61   1
  11   4   4 29509.0 1070.91   1
 -11   4  -4 32231.6 1235.32   1
  11  -4   4 31312.1 1197.83   1
  11  -4   4 32235.1 1260.11   1
   8   2  11 452.608 144.675   1
   8  -2  11 451.550 156.300   1
  -8   2 -11 463.601 125.259   1
   8  -2  11 377.759 139.399   1
  -7   7   8 1318.95 158.637   1
  -7   7   8 659.396 190.624   1
   7  -7  -8 1418.03 192.756   1
  -7  -7   8 1348.81 196.078   1
   7   7  -8 1566.05 202.733   1
   7   7  -8 1474.75 214.612   1
 -12  -2  16 1441.82 217.027   1
 -12   2  16 1515.35 161.541   1
 -12   2  16 1439.32 193.929   1
  12   2 -16 1365.81 197.169   1
  12  -2 -16 1161.95 200.775   1
 -12  -2  16 1101.11 208.121   1
   8   7  -2 278.785 170.542   1
   8   7  -2 390.887 178.497   1
   8  -7  -2 711.809 173.118   1
   8  -7  -2 488.243 147.482   1
  -8  -7   2 207.317 164.838   1
  -8   7   2 698.256 165.790   1
 -15  -2   6 2172.38 234.109   1
 -15  -2   6 2777.11 232.542   1
 -15   2   6 2955.97 219.607   1
  15  -2  -6 3010.94 238.911   1
  15  -2  -6 3041.01 254.763   1
  15   2  -6 2099.83 216.965   1
 -15   2   6 2761.80 249.696   1
   3  -8   1 484.493 172.656   1
   3  -8   1 798.365 108.578   1
  -3  -8  -1 296.344 165.509   1
   3   8   1 350.948 157.475   1
  -3   8  -1 677.063 179.842   1
  -3   8  -1 341.089 156.334   1
   3   8   1 147.422 161.972   1
  15   2  -8 1999.22 215.392   1
 -15  -2   8 1846.95 226.229   1
 -15   2   8 1973.39 202.829   1
 -15   2   8 2020.37 232.479   1
 -15  -2   8 2344.30 239.564   1
  15  -2  -8 2204.24 228.056   1
  15   1  -3 9706.77 454.351   1
  15   1  -3 9876.24 440.243   1
  15  -1  -3 9096.34 440.296   1
  15  -1  -3 8961.26 470.937   1
 -15   1   3 9581.24 455.777   1
 -15   1   3 9349.58 381.848   1
 -15  -1   3 9499.25 441.435   1
  -7  -6  -6 965.452 121.750   1
   7  -6   6 763.990 200.855   1
   7  -6   6 943.772 171.421   1
  -7   6  -6 683.058 185.122   1
  -2   6  13 4798.52 274.517   1
  -2  -6  13 3265.38 267.658   1
   2   6 -13 3357.37 277.453   1
  -2   5  15 66.7934 92.1512   1
   2   5 -15 140.858 138.781   1
  -2  -5  15 99.6486 112.692   1
  -3   0  19 17494.5 696.298   1
  -3   0  19 15426.8 553.915   1
   5   3 -18 2381.50 242.111   1
  -5  -3  18 2265.12 200.881   1
  -5  -3  18 2312.35 219.597   1
   7  -5 -15 610.114 130.468   1
  -7   5  15 552.665 119.650   1
  -7   5  15 501.253 110.598   1
  -7  -5  15 507.785 165.929   1
  -7  -5  15 586.887 148.440   1
   7   5 -15 662.981 173.418   1
   7   5 -15 662.355 136.427   1
  -6   3  18 4194.93 210.956   1
   6   3 -18 3987.24 296.869   1
  -6  -3  18 4215.69 268.608   1
  -6  -3  18 4006.38 270.153   1
  10   4   6 4185.04 218.238   1
  10   4   6 3871.44 233.783   1
 -10  -4  -6 3850.16 204.598   1
  10  -4   6 3578.92 250.175   1
 -10   4  -6 3689.80 300.044   1
  10  -4   6 3937.82 292.307   1
  -3  -8   4 128.933 136.129   1
  -3   8   4 61.6064 137.119   1
  -3   8   4 91.5972 138.636   1
   3   8  -4 215.028 141.139   1
   3   8  -4 228.146 129.303   1
   3  -8  -4 65.2126 125.085   1
 -15   1  11 3693.10 288.258   1
 -15  -1  11 3641.39 262.440   1
 -15   1  11 3616.96 263.434   1
 -15  -1  11 3743.44 274.462   1
  15   1 -11 4193.67 285.229   1
  15  -1 -11 3811.09 278.163   1
   8  -4   9 116.731 148.159   1
   8  -4   9 360.019 141.162   1
  -8   4  -9 169.988 145.873   1
   8   4   9 88.7608 97.4656   1
  10  -5 -13 14063.7 603.954   1
 -10   5  13 14078.0 589.623   1
  10   5 -13 14502.5 581.846   1
 -10  -5  13 14435.1 614.056   1
  10   5 -13 14247.0 634.715   1
 -10  -5  13 13829.5 620.669   1
 -11   2  17 11375.9 458.681   1
 -11  -2  17 10485.0 515.527   1
 -11  -2  17 10111.9 452.530   1
  11   2 -17 10522.4 491.518   1
 -11   2  17 11279.2 519.028   1
  11  -2 -17 11609.7 501.296   1
  12  -2   5 3680.03 227.248   1
  12   2   5 3462.97 207.828   1
  12  -2   5 4078.40 275.158   1
 -12   2  -5 4372.73 290.423   1
  12   2   5 3335.17 233.674   1
  -3   3 -15 1257.52 168.272   1
   3  -3  15 1758.22 168.334   1
  14   1   1 3853.61 270.631   1
  14  -1   1 3327.78 270.737   1
  14  -1   1 3790.32 263.232   1
  14   1   1 3605.13 248.935   1
 -14   1  -1 3445.69 282.125   1
 -14  -1  -1 3320.13 262.660   1
   1   7   9 23.6354 79.0477   1
   1   7   9 54.5622 109.614   1
  -1  -7  -9 -3.8291 84.3444   1
  -1   7  -9 25.2857 118.693   1
  -1   7  -9 111.289 116.787   1
   1  -7   9 180.199 118.460   1
  14  -2   0 156.821 129.952   1
  14  -2   0 261.552 144.681   1
  14   2   0 86.8152 113.571   1
 -14   2   0 340.397 141.057   1
  14   2   0 269.025 152.898   1
 -12  -5   9 134.891 136.017   1
 -12   5   9 366.520 132.379   1
  12  -5  -9 198.099 136.803   1
  12   5  -9 133.222 135.737   1
  -6   6  13 111.800 110.985   1
  -6   6  13 219.870 111.682   1
   6  -6 -13 37.7719 114.062   1
  -6  -6  13 216.097 134.537   1
   6   6 -13 100.924 136.857   1
   6   6 -13 50.3252 127.233   1
   8   7  -6 2539.11 235.364   1
   8   7  -6 3048.46 240.514   1
  -8   7   6 2573.73 224.978   1
  -8  -7   6 2449.30 235.595   1
   0   0  18 2819.56 193.063   1
  11  -3 -16 11904.4 518.748   1
 -11   3  16 11435.3 497.306   1
 -11  -3  16 11588.3 551.785   1
  11   3 -16 11850.3 534.981   1
 -11  -3  16 11892.7 517.750   1
   9  -5 -14 558.968 153.805   1
  -9   5  14 1054.86 148.056   1
   9   5 -14 407.823 182.171   1
   9   5 -14 515.520 127.164   1
  -9  -5  14 636.819 173.836   1
  -9  -5  14 650.253 165.900   1
 -14  -1  14 132.284 128.782   1
 -14   1  14 165.765 137.235   1
  14  -1 -14 201.691 138.296   1
 -14   1  14 168.390 156.805   1
  14   1 -14 307.661 136.903   1
 -14  -1  14 127.755 150.182   1
  12   0 -17 42.2162 123.857   1
 -12   0  17 -9.8873 92.8955   1
 -12   0  17 92.2080 122.878   1
 -10   6   9 7212.28 354.827   1
  10  -6  -9 7054.15 361.252   1
  10   6  -9 6845.47 356.522   1
 -10  -6   9 6856.74 385.041   1
  10   6  -9 6833.18 376.560   1
  -4   2 -15 528.367 140.005   1
   4  -2  15 1102.99 136.704   1
   4   2  15 952.279 113.866   1
 -10   1  -9 2927.84 202.186   1
  10   1   9 2638.05 252.391   1
 -10  -1  -9 2652.24 173.040   1
  10   1   9 2502.09 168.109   1
  10  -1   9 2770.11 199.948   1
  10  -1   9 3027.10 237.872   1
  12  -5  -2 2389.22 231.485   1
 -12   5   2 2028.24 229.013   1
  12  -5  -2 2231.72 262.454   1
 -12  -5   2 2329.13 232.227   1
  12   5  -2 2800.05 234.159   1
  15   2  -5 546.249 146.991   1
  15  -2  -5 515.790 165.348   1
  15  -2  -5 593.760 170.268   1
 -15  -2   5 321.080 188.567   1
 -15  -2   5 420.566 136.119   1
 -15   2   5 601.375 134.884   1
 -15   2   5 784.231 173.113   1
 -14   2  13 23583.0 961.113   1
  14  -2 -13 24136.9 960.627   1
  14   2 -13 23489.0 946.246   1
 -14  -2  13 23151.6 919.128   1
 -14  -2  13 24594.5 973.358   1
 -14   2  13 23770.0 918.715   1
   9   3   9 10229.3 447.664   1
   9  -3   9 9616.57 449.451   1
   9  -3   9 9427.52 482.762   1
  -9   3  -9 9031.56 435.625   1
 -12   4  13 7186.59 388.466   1
  12  -4 -13 6715.61 355.765   1
  12   4 -13 7404.49 365.581   1
 -12  -4  13 7745.81 393.814   1
 -12  -4  13 7556.85 417.398   1
  12   4 -13 6825.55 389.152   1
  -8   1  19 99.5533 99.7964   1
   8  -1 -19 164.415 111.095   1
   8   1 -19 104.733 127.928   1
  -8  -1  19 124.306 122.268   1
  -8  -1  19 248.066 131.257   1
  -8   1  19 38.9776 126.476   1
   3  -4  14 103.586 118.352   1
  -3   4 -14 63.0002 120.951   1
   2  -8   3 137.152 140.067   1
   2   8   3 243.136 129.964   1
   2   8   3 70.6645 119.706   1
  -2   8  -3 -19.793 125.695   1
   2  -8   3 74.7866 97.9174   1
  -2  -8  -3 138.540 126.332   1
  -2   8  -3 79.8095 134.229   1
   9  -4 -16 186.000 116.930   1
  -9   4  16 138.463 109.823   1
   9   4 -16 107.124 149.279   1
  -9  -4  16 569.197 149.937   1
  -9  -4  16 195.324 156.252   1
 -15   2   9 30380.8 1148.37   1
 -15   2   9 30165.5 1185.28   1
 -15  -2   9 30830.8 1223.65   1
 -15  -2   9 29561.6 1171.27   1
  15  -2  -9 31698.1 1233.77   1
  15   2  -9 30289.5 1176.19   1
  -4  -3  18 6080.58 321.084   1
  -4  -3  18 5619.77 336.939   1
  -1   7  10 766.220 173.074   1
  -1   7  10 740.896 132.281   1
   1  -7 -10 962.274 129.805   1
   1   7 -10 421.457 171.562   1
  -1  -7  10 693.754 171.299   1
   1   7 -10 464.406 154.799   1
 -12   3  15 3240.28 247.681   1
 -12  -3  15 2846.76 242.886   1
 -12  -3  15 3575.45 279.238   1
  12   3 -15 2999.09 266.279   1
  12  -3 -15 3073.62 225.827   1
  12   3 -15 3400.29 198.053   1
   1   2  17 4344.30 237.531   1
   1  -2  17 4681.03 245.426   1
   1  -2  17 4833.36 252.354   1
  -1   2 -17 4637.96 252.207   1
  -5   4  17 885.539 113.792   1
   5   4 -17 1091.42 197.246   1
  -5  -4  17 965.469 180.399   1
  -5  -4  17 947.977 196.419   1
   1   8   4 651.245 159.321   1
  -1   8  -4 474.954 160.918   1
  -1  -8  -4 667.546 159.312   1
  -1   8  -4 403.990 183.705   1
   1   8   4 1116.13 158.765   1
   1  -8   4 690.408 176.588   1
   1  -8   4 430.374 123.198   1
  -5   7  10 2559.18 236.947   1
   5  -7 -10 2242.86 204.836   1
  -5   7  10 2389.34 200.042   1
   5   7 -10 2995.91 265.913   1
  -5  -7  10 2643.52 239.723   1
   5   7 -10 2346.91 246.794   1
   4   8  -2 500.454 172.062   1
   4   8  -2 541.854 142.004   1
   4  -8  -2 289.671 160.291   1
  -4  -8   2 657.904 156.127   1
  -4   8   2 304.243 154.769   1
  -4   8   2 420.242 164.074   1
  14   3  -2 2015.79 215.852   1
 -14   3   2 1753.51 216.565   1
 -14   3   2 1858.59 147.279   1
  14  -3  -2 1820.14 211.446   1
  14  -3  -2 1875.36 223.066   1
 -14  -3   2 1967.61 191.795   1
   8  -6 -12 1116.42 164.652   1
  -8   6  12 1025.69 159.797   1
  -8   6  12 1095.96 170.721   1
   8   6 -12 874.022 175.706   1
   8   6 -12 916.758 200.059   1
  -8  -6  12 986.731 183.315   1
   8  -7  -1 90.2086 139.412   1
   8   7  -1 161.966 146.637   1
   8   7  -1 48.3144 141.708   1
  -8   7   1 278.399 138.186   1
  -8  -7   1 283.916 138.615   1
   8  -7  -1 42.5531 127.106   1
  -7  -7  -2 6584.99 340.906   1
   7   7   2 6346.92 385.947   1
   7  -7   2 6392.36 369.781   1
   7  -7   2 6045.46 350.089   1
  -7   7  -2 6429.80 375.768   1
  -1  -8   5 3180.85 260.963   1
  -1   8   5 2503.68 235.480   1
   1   8  -5 3166.03 275.761   1
   1  -8  -5 3048.27 250.316   1
   1   8  -5 3552.75 249.459   1
  -1   8   5 2620.26 229.038   1
 -15   0   2 118.626 127.235   1
  15   0  -2 -41.409 102.074   1
  15   0  -2 96.6242 113.297   1
  -2   8   5 3770.67 267.106   1
  -2  -8   5 3717.45 283.905   1
  -2   8   5 3141.95 264.155   1
   2   8  -5 4041.85 299.996   1
   2  -8  -5 3442.17 280.314   1
   2   8  -5 3983.19 271.543   1
  12   4   2 928.177 152.366   1
  12   4   2 926.330 144.421   1
 -12  -4  -2 681.682 152.896   1
  12  -4   2 552.594 181.182   1
  12  -4   2 393.428 165.267   1
 -12   4  -2 355.392 166.716   1
  14   3 -11 2179.31 222.747   1
 -14   3  11 1647.92 188.555   1
 -14   3  11 1631.60 204.313   1
 -14  -3  11 2082.35 227.476   1
 -14  -3  11 1880.62 222.453   1
  14  -3 -11 1473.13 210.908   1
  -4   8   1 12420.1 544.662   1
  -4  -8   1 11959.6 529.677   1
   4  -8  -1 12232.6 613.383   1
  -4   8   1 12441.4 558.304   1
   4   8  -1 11563.2 526.353   1
   4   8  -1 11122.2 537.960   1
  12   0   6 -145.81 105.482   1
 -12   0  -6 12.9902 100.080   1
  12   0   6 14.8776 95.7226   1
   9  -6 -11 5545.96 342.681   1
  -9   6  11 5752.44 331.415   1
  -9  -6  11 6280.71 366.274   1
   9   6 -11 5959.83 355.013   1
   9   6 -11 5674.18 364.256   1
  13   0 -16 -25.847 141.610   1
 -13   0  16 149.465 129.974   1
 -13   0  16 78.9537 108.324   1
   7  -3 -18 94.4582 92.7214   1
  -7   3  18 128.175 89.8925   1
  -7  -3  18 299.520 131.238   1
  -7  -3  18 307.249 138.506   1
   7   3 -18 105.078 149.760   1
  10   6   0 1404.66 175.446   1
 -10  -6   0 1392.22 172.514   1
 -10   6   0 334.885 182.442   1
  10  -6   0 850.332 161.745   1
  13  -2 -15 8335.78 407.200   1
 -13  -2  15 8025.09 400.354   1
 -13  -2  15 8301.05 440.467   1
 -13   2  15 8549.56 467.423   1
 -13   2  15 8883.58 442.632   1
  13   2 -15 7905.16 416.766   1
   2   0  17 105.402 78.8322   1
   6  -4 -17 908.220 118.900   1
  -6   4  17 994.566 104.510   1
  -6   4  17 816.411 106.541   1
  -6  -4  17 1007.69 143.259   1
   6   4 -17 993.375 165.072   1
  -6  -4  17 748.113 205.953   1
  13   2   3 1591.59 171.484   1
  13   2   3 1426.75 171.230   1
 -13   2  -3 1311.17 209.455   1
  13  -2   3 1762.05 173.006   1
  13  -2   3 1628.28 201.632   1
 -13   0  -4 48.7030 107.072   1
  13   0   4 23.6897 108.492   1
  13   0   4 75.9303 111.513   1
   4   8  -3 746.910 191.112   1
   4   8  -3 766.429 204.183   1
   4  -8  -3 1292.78 182.072   1
  -4  -8   3 656.044 180.194   1
  -4   8   3 999.657 191.310   1
  -4   8   3 1353.35 207.100   1
   6   7   4 177.069 128.259   1
   6   7   4 92.3703 94.7251   1
  -6  -7  -4 12.4786 94.9421   1
   6  -7   4 82.1264 115.393   1
   6  -7   4 -48.073 120.970   1
  -6   7  -4 -7.9272 121.079   1
 -12  -3  -4 1974.12 176.714   1
 -12   3  -4 2125.63 203.723   1
  12   3   4 1601.09 165.408   1
  12  -3   4 2181.08 238.333   1
  12  -3   4 1961.95 229.275   1
  12   3   4 1979.13 200.715   1
  -4   4  17 1039.78 116.216   1
  -4  -4  17 1446.10 186.779   1
  -4  -4  17 1358.04 169.888   1
  -3  -1  19 -38.412 76.6069   1
  -3   1  19 -52.605 104.810   1
  -3  -1  19 -84.276 100.294   1
   3   1 -19 61.9631 81.5702   1
 -10  -5  -4 8691.92 369.055   1
  10   5   4 8417.36 354.203   1
  10   5   4 8480.55 387.379   1
  10  -5   4 8880.19 486.638   1
 -10   5  -4 8810.46 439.660   1
  11  -2   7 119.095 124.377   1
  11  -2   7 152.902 111.577   1
  11   2   7 47.6058 84.9232   1
 -11   2  -7 15.5512 113.220   1
  11   2   7 88.1942 122.574   1
 -15   0  12 185.160 114.730   1
  15   0 -12 23.5846 124.478   1
 -15   0  12 18.9509 115.073   1
 -13  -4  11 135.261 131.023   1
  13   4 -11 67.8954 138.265   1
  13  -4 -11 239.704 138.135   1
 -13   4  11 239.554 127.036   1
 -13  -4  11 198.813 171.717   1
  -3   8  -2 255.533 150.338   1
   3  -8   2 238.122 105.845   1
   3  -8   2 336.286 153.821   1
  -3   8  -2 252.532 142.650   1
   3   8   2 294.771 137.088   1
   3   8   2 263.776 145.569   1
  -3  -8  -2 132.461 140.858   1
   1   6  12 438.763 142.822   1
  -1   6 -12 108.764 133.427   1
   1  -6  12 22.7966 132.947   1
  13   4  -1 413.564 140.050   1
  13  -4  -1 129.925 146.162   1
  13  -4  -1 375.448 156.231   1
 -13   4   1 323.911 148.097   1
 -13  -4   1 267.253 153.892   1
  11   3   6 44.4388 91.3641   1
 -11   3  -6 224.461 133.587   1
  11  -3   6 -49.582 105.164   1
  11   3   6 135.352 119.600   1
 -11  -3  -6 48.5827 91.6494   1
  11  -3   6 299.590 133.578   1
  -1  -2  18 515.050 109.862   1
  -1  -2  18 489.038 132.260   1
  -1   2  18 418.265 136.758   1
   1   2 -18 521.921 130.323   1
   9  -2  10 26.6219 96.8048   1
   9   2  10 51.1319 117.701   1
   9  -2  10 57.8937 127.458   1
  -9   2 -10 101.491 103.177   1
   0  -1  18 435.113 115.509   1
   0  -1  18 229.273 91.7192   1
   0   1  18 453.562 107.156   1
  -9   0  19 11939.8 526.071   1
  -9   0  19 11549.8 490.639   1
   9   0 -19 11470.0 511.329   1
 -11  -5  12 4002.01 300.232   1
 -11   5  12 4518.31 262.687   1
  11   5 -12 3797.19 273.676   1
  11  -5 -12 4813.71 324.694   1
  11   5 -12 4365.99 314.757   1
   4   8   0 2087.11 220.738   1
  -4   8   0 1394.60 217.034   1
  -4   8   0 1296.51 204.885   1
   4  -8   0 1776.86 235.567   1
  -4  -8   0 2464.70 206.159   1
   4   8   0 2099.89 235.211   1
   4  -8   0 1648.68 159.747   1
 -12   1  17 396.222 156.314   1
 -12  -1  17 383.557 140.369   1
  12   1 -17 348.045 152.049   1
  12  -1 -17 463.856 139.084   1
 -12  -1  17 373.270 165.307   1
 -12   1  17 518.392 151.476   1
   0   8   5 447.037 151.372   1
   0   8   5 321.012 145.751   1
   0  -8   5 603.892 162.818   1
   0  -8  -5 384.039 144.399   1
   0   8  -5 407.521 166.494   1
   0   8  -5 330.751 150.715   1
 -11   0  18 87.4325 120.171   1
 -11   0  18 78.0354 129.256   1
  11   0 -18 58.4248 127.947   1
   3   8  -5 33.3211 109.333   1
  -3   8   5 -9.8030 115.778   1
   3  -8  -5 19.8795 126.942   1
   3   8  -5 -71.697 114.250   1
  -3   8   5 -131.07 114.673   1
  -3  -8   5 -15.213 116.914   1
   1   5  14 27.2834 111.417   1
   1  -5  14 229.128 127.372   1
  -1   5 -14 2.95741 108.248   1
   7   0  13 5174.33 308.328   1
  15   2  -4 1514.35 186.418   1
 -15   2   4 1747.56 220.746   1
 -15   2   4 1669.45 158.860   1
 -15  -2   4 1390.28 198.314   1
  15  -2  -4 1606.47 218.392   1
  15  -2  -4 1950.26 213.937   1
   5   5  11 207.359 77.3812   1
  -5   5 -11 96.2908 123.248   1
   5  -5  11 223.454 119.798   1
   8   7  -7 227.064 144.427   1
   8   7  -7 -10.722 151.198   1
  -8   7   7 539.848 133.854   1
  -8  -7   7 276.111 149.638   1
   8  -7  -7 645.921 141.138   1
  -1   6  13 1468.97 195.478   1
  -1  -6  13 1308.46 190.460   1
   1   6 -13 1492.71 202.864   1
 -10  -3  17 559.098 160.030   1
 -10   3  17 403.190 125.176   1
  10   3 -17 293.889 152.483   1
  10  -3 -17 236.241 133.068   1
 -10  -3  17 282.400 138.225   1
  15  -2 -10 5418.05 335.081   1
 -15  -2  10 4246.71 299.600   1
  15   2 -10 4654.14 295.208   1
 -15   2  10 5990.90 335.393   1
 -15  -2  10 4169.70 310.595   1
 -15   2  10 5520.04 335.915   1
  -4  -8   4 8379.87 420.988   1
  -4   8   4 6387.41 369.583   1
   4   8  -4 8488.53 432.258   1
   4  -8  -4 6607.74 402.600   1
   4   8  -4 8928.94 421.542   1
  -4   8   4 6389.18 341.423   1
  -6   5 -10 1.10581 108.867   1
   6  -5  10 -31.580 128.024   1
   6   5  10 78.2010 67.8543   1
   9  -5   6 1475.78 178.633   1
   9   5   6 1032.67 129.848   1
   9  -5   6 872.248 184.772   1
   9   5   6 1050.67 130.035   1
  -9   5  -6 806.021 178.714   1
  -9  -5  -6 1266.26 127.686   1
  -6  -2  19 880.288 155.113   1
  -6   2  19 224.381 99.1362   1
  -6  -2  19 908.781 142.025   1
  -6   2  19 211.913 177.875   1
   6   2 -19 667.727 166.318   1
 -15  -1   2 272.661 131.389   1
  15  -1  -2 408.040 143.422   1
  15   1  -2 129.901 127.401   1
  15  -1  -2 405.069 134.393   1
  15   1  -2 129.990 137.737   1
 -15   1   2 270.676 140.492   1
  -3  -3  18 209.147 136.596   1
   3   3 -18 203.747 134.550   1
  -3  -3  18 181.903 126.517   1
   9   6   3 792.318 141.365   1
  -9  -6  -3 380.575 137.898   1
   9  -6   3 1288.56 173.981   1
  -9   6  -3 1369.58 185.030   1
   9  -6   3 1057.55 202.698   1
  -5   2  19 5033.44 287.809   1
  -5  -2  19 5232.04 276.507   1
   5   2 -19 5093.40 304.331   1
  -5  -2  19 4957.03 280.325   1
  12   1   6 3710.83 282.649   1
 -12  -1  -6 3834.41 231.894   1
 -12   1  -6 4325.11 271.146   1
  12   1   6 3548.03 228.559   1
  12  -1   6 4449.70 272.614   1
  12  -1   6 4443.04 285.916   1
   7   4 -17 154.809 133.290   1
  -7  -4  17 -36.124 138.885   1
  -7   4  17 166.450 90.5398   1
  -7  -4  17 215.169 139.160   1
   7  -4 -17 186.874 98.1774   1
 -11   5  -2 4321.39 302.188   1
  11  -5   2 4853.85 295.947   1
 -11  -5  -2 4200.89 259.107   1
  11   5   2 3875.52 244.606   1
  11  -5   2 4423.62 292.521   1
 -13   1  16 2193.40 228.498   1
  13   1 -16 2339.02 223.663   1
 -13  -1  16 2072.53 205.189   1
 -13  -1  16 2364.58 243.370   1
  13  -1 -16 2350.10 220.361   1
   2   1  17 5005.23 230.910   1
   2  -1  17 4263.42 227.073   1
   1   5 -15 251.740 133.676   1
  -1   5  15 547.072 119.222   1
  -1  -5  15 177.761 150.703   1
  13  -1   4 1318.36 183.689   1
  13   1   4 1348.82 174.167   1
  13   1   4 1357.58 176.111   1
 -13  -1  -4 1352.49 168.949   1
  13  -1   4 1319.24 184.138   1
 -13   1  -4 919.431 190.634   1
  12  -5 -10 4989.97 300.496   1
  12   5 -10 3698.76 280.074   1
 -12   5  10 4947.18 285.922   1
 -12  -5  10 4017.82 287.628   1
  -7  -7   9 1214.97 200.730   1
   7   7  -9 1826.56 190.087   1
   7  -7  -9 1330.16 201.139   1
   7   7  -9 2110.97 208.108   1
  -7   7   9 1245.14 164.334   1
  -7   7   9 1585.00 191.006   1
   0  -3  17 2118.54 183.962   1
   0  -3  17 2309.41 199.013   1
   0   3 -17 2370.29 203.684   1
  -3  -4  17 116.349 118.809   1
  -3  -4  17 121.599 124.410   1
   3   4 -17 59.4481 111.514   1
  -3   4  17 129.887 83.3094   1
   4  -5  12 4532.22 277.829   1
   4   5  12 4851.44 212.648   1
  -4   5 -12 5112.32 327.297   1
   0   4  16 246.266 123.862   1
   0   4 -16 1230.85 170.385   1
   0  -4  16 670.359 155.165   1
  10  -2 -18 1322.76 180.509   1
 -10   2  18 1300.45 159.274   1
 -10  -2  18 1397.36 184.542   1
 -10  -2  18 1126.89 151.918   1
  10   2 -18 1079.74 207.189   1
 -10   2  18 971.582 177.779   1
  -2   0  19 14.4558 97.8317   1
  -7   6  13 1640.39 173.483   1
   7  -6 -13 1720.60 178.783   1
  -7  -6  13 1940.54 200.768   1
  -7   6  13 1543.37 176.312   1
   7   6 -13 1827.43 200.363   1
   7   6 -13 1891.33 224.314   1
 -15  -1  12 -30.479 110.548   1
 -15  -1  12 37.5055 134.237   1
  15   1 -12 141.355 119.144   1
  15  -1 -12 41.7907 121.081   1
 -15   1  12 21.6138 107.696   1
 -15   1  12 6.83831 103.632   1
   8   0  12 255.665 144.977   1
   8   0  12 405.961 98.1613   1
   8   7   0 697.953 178.139   1
   8  -7   0 922.793 171.658   1
   8  -7   0 807.928 190.311   1
  -8  -7   0 906.013 175.360   1
  -8   7   0 925.420 183.889   1
   8   7   0 833.142 197.259   1
   8   5 -15 796.485 153.748   1
  -8  -5  15 1341.74 183.113   1
  -8  -5  15 1212.66 176.548   1
  -8   5  15 1360.92 152.265   1
   8  -5 -15 1142.60 149.500   1
   8   5 -15 840.726 197.677   1
   9   4   8 1504.34 164.785   1
   9  -4   8 2223.78 232.277   1
  -9   4  -8 2410.04 205.646   1
  -5   6  -9 7185.95 376.768   1
   5  -6   9 7128.95 374.201   1
  -8   6  -5 3883.37 296.570   1
  -8  -6  -5 4415.71 241.979   1
   8  -6   5 3993.81 279.231   1
   8  -6   5 4123.06 288.443   1
   8   6   5 3944.88 236.236   1
 -12   5   1 106.338 145.664   1
  12   5  -1 382.793 140.194   1
  12  -5  -1 318.098 144.333   1
  12  -5  -1 239.597 141.660   1
 -12  -5   1 330.579 142.668   1
  -4   7  -7 831.320 189.107   1
   4   7   7 1258.95 192.547   1
  -4  -7  -7 1252.84 142.062   1
   4  -7   7 1232.56 185.141   1
   4  -7   7 910.114 176.664   1
   4   7   7 1179.30 139.639   1
   0   7  10 2524.20 213.044   1
   0   7  10 2511.88 178.319   1
   0  -7  10 2948.46 238.908   1
   0   7 -10 3075.79 251.933   1
   0   7 -10 2865.21 268.112   1
   0  -7 -10 2357.60 174.430   1
  -4   6 -10 4306.34 292.965   1
   4  -6  10 4624.58 289.451   1
   3  -7   8 526.233 164.994   1
  -3  -7  -8 903.842 124.518   1
   3   7   8 611.740 164.154   1
  -3   7  -8 517.727 172.535   1
   3   7   8 665.939 117.274   1
   8   3 -18 7308.04 383.247   1
  -8   3  18 7957.97 352.713   1
  -8  -3  18 7779.26 399.840   1
  -8  -3  18 7539.78 357.455   1
   8  -3 -18 7886.50 353.408   1
   7   2 -19 15.7793 117.110   1
   7  -2 -19 37.8303 87.1837   1
  -7  -2  19 66.3851 109.047   1
  -7   2  19 43.9413 84.5852   1
  -7  -2  19 92.4747 103.421   1
  -7   2  19 -27.673 108.872   1
 -13  -3  14 630.182 148.468   1
 -13   3  14 371.955 140.926   1
  13   3 -14 384.820 168.182   1
  13  -3 -14 378.595 144.171   1
 -13  -3  14 238.045 171.907   1
  11   6  -5 1747.47 233.999   1
  11  -6  -5 1822.66 215.350   1
  11  -6  -5 2193.32 225.711   1
 -11   6   5 2395.53 208.568   1
 -11  -6   5 1470.05 201.522   1
   6  -7 -10 3658.47 257.436   1
   6   7 -10 3917.79 302.489   1
  -6   7  10 3994.06 254.018   1
  -6   7  10 3550.13 245.412   1
   6   7 -10 3348.04 298.080   1
  -6  -7  10 3945.98 291.573   1
   3  -2  16 2494.74 168.211   1
   3  -2  16 2902.29 192.047   1
  -3   2 -16 2817.61 197.469   1
   3   2  16 2799.65 177.694   1
  11   0   8 111.936 97.8414   1
  11   0   8 103.643 126.582   1
 -11   0  -8 42.7071 99.7683   1
  13   3   2 5013.67 283.004   1
 -13  -3  -2 5732.38 320.414   1
  13   3   2 5298.74 304.350   1
 -13   3  -2 5680.39 374.117   1
  13  -3   2 5679.60 318.404   1
  13  -3   2 5573.51 349.940   1
  -9   1  19 4186.16 289.238   1
  -9   1  19 4865.63 270.194   1
  -9  -1  19 5131.41 311.277   1
  -9  -1  19 5458.21 306.407   1
   9   1 -19 5468.15 322.532   1
   9  -1 -19 4779.75 282.598   1
  -4   8  -1 140.245 126.523   1
   4  -8   1 108.442 95.6072   1
  -4   8  -1 74.8043 132.233   1
  -4  -8  -1 40.7006 132.727   1
   4   8   1 148.669 140.152   1
   4  -8   1 89.3583 149.129   1
   2  -8   4 666.424 139.815   1
   2  -8   4 746.631 177.199   1
  -2  -8  -4 329.472 156.873   1
  -2   8  -4 791.845 165.616   1
  -2   8  -4 682.239 176.463   1
   2   8   4 604.642 162.781   1
   2   8   4 604.994 151.640   1
 -11   1  18 75.4968 136.161   1
 -11   1  18 71.0205 125.902   1
  11  -1 -18 192.364 135.107   1
  11   1 -18 96.5251 151.426   1
 -11  -1  18 247.391 134.425   1
 -11  -1  18 326.999 143.911   1
   7   1  13 392.687 144.044   1
  -7   1 -13 94.9923 84.6096   1
   7  -1  13 131.270 87.9282   1
  10   6 -10 1535.33 205.726   1
  10  -6 -10 1753.94 227.070   1
  10   6 -10 1620.20 218.807   1
 -10  -6  10 1267.13 215.765   1
 -10   6  10 1628.19 213.667   1
  11  -6  -6 91.9125 89.3068   1
  11  -6  -6 -8.7545 88.2094   1
 -11  -6   6 -0.5025 85.6405   1
  11   6  -6 64.0168 86.2620   1
 -11   6   6 -123.24 81.9385   1
   7  -5   9 1091.40 202.528   1
  -7   5  -9 1336.68 219.464   1
   7   5   9 1111.30 124.473   1
   7  -5   9 1390.69 205.538   1
   6  -1  14 1623.28 139.435   1
  11  -6  -4 191.515 142.956   1
  11   6  -4 231.561 156.210   1
 -11   6   4 -21.518 129.622   1
 -11  -6   4 211.879 123.897   1
  11  -6  -4 230.671 138.901   1
  -2   3 -16 95.6434 107.786   1
   2  -3  16 153.122 104.739   1
  14   0   2 13852.9 594.724   1
 -14   0  -2 15108.3 638.637   1
  14   0   2 14503.6 613.631   1
  -4  -2  19 10520.2 441.869   1
  -4   2  19 10322.3 482.302   1
  -4  -2  19 10718.9 444.436   1
  -2   4 -15 3241.07 248.043   1
   2  -4  15 3521.42 253.910   1
  -2  -8   6 4424.06 319.357   1
  -2   8   6 5076.79 308.062   1
   2   8  -6 4101.18 296.616   1
   2   8  -6 4117.63 310.760   1
   2  -8  -6 5273.10 316.186   1
  -2   8   6 5548.13 315.727   1
  -1   8  -5 37.9627 102.729   1
  -1   8  -5 -9.0317 111.755   1
  -1  -8  -5 -7.7661 100.431   1
   1   8   5 -9.1316 90.6329   1
   1   8   5 10.9397 101.344   1
   1  -8   5 39.2620 110.371   1
   6  -6   8 1756.23 203.661   1
  -6   6  -8 1552.32 203.567   1
   6  -6   8 1710.93 193.745   1
  -3   8  -3 339.586 153.359   1
  -3  -8  -3 341.713 157.131   1
   3  -8   3 528.268 163.664   1
   3  -8   3 505.253 126.743   1
   3   8   3 338.520 161.619   1
   3   8   3 469.030 150.615   1
  -3   8  -3 476.017 160.936   1
   5   7   6 1095.99 196.593   1
  -5  -7  -6 1253.82 144.948   1
  -5   7  -6 943.478 188.067   1
   5   7   6 1231.46 145.541   1
   5  -7   6 1338.29 190.044   1
   5  -7   6 785.207 188.587   1
   4   8  -5 1724.28 211.772   1
   4  -8  -5 1373.66 215.213   1
  -4  -8   5 2015.54 219.549   1
  -4   8   5 1519.93 196.331   1
  -4   8   5 1375.80 207.381   1
   4   8  -5 1306.86 195.422   1
 -14  -3   1 3472.76 283.028   1
 -14   3   1 4370.12 298.409   1
  14   3  -1 3361.87 265.319   1
  14  -3  -1 4966.13 295.545   1
  14   3  -1 3478.07 280.537   1
  14  -3  -1 4414.78 306.806   1
  14   0 -15 1.19426 117.007   1
 -14   0  15 -37.612 114.179   1
 -14   0  15 -59.748 107.528   1
   1  -8  -6 2494.37 246.536   1
  -1   8   6 2602.54 218.619   1
  -1  -8   6 3044.42 262.123   1
  -1   8   6 2168.92 230.499   1
   1   8  -6 2175.98 233.028   1
   1   8  -6 2989.42 265.649   1
 -10   3  -8 1453.53 206.150   1
  10  -3   8 1740.66 197.046   1
  10  -3   8 1339.74 212.454   1
  10   3   8 1533.94 190.226   1
  14   3 -12 79.9496 136.216   1
 -14  -3  12 -42.790 139.464   1
 -14   3  12 203.191 116.491   1
 -14   3  12 112.559 124.194   1
  14  -3 -12 25.4151 128.867   1
 -14  -3  12 93.8841 133.157   1
  15   2  -3 4783.09 296.798   1
 -15  -2   3 4563.70 301.435   1
  15  -2  -3 5580.23 343.867   1
 -15   2   3 5873.07 352.028   1
  15   2  -3 5101.19 311.265   1
  15  -2  -3 5849.98 343.988   1
  -3   6 -11 565.293 156.289   1
   3   6  11 413.320 174.235   1
   3  -6  11 374.824 148.637   1
 -11  -4  15 3401.74 289.026   1
 -11   4  15 3198.82 238.841   1
  11   4 -15 3200.42 210.205   1
  11   4 -15 3278.26 272.465   1
  11  -4 -15 3271.10 225.120   1
 -11  -4  15 3361.01 252.052   1
   2   7   9 1196.94 128.113   1
  -2   7  -9 967.330 193.177   1
   2   7   9 1361.52 186.226   1
   2  -7   9 906.207 182.886   1
  10  -6   1 2.96491 95.8785   1
  10   6   1 4.25148 75.4936   1
 -10   6  -1 -26.584 88.0724   1
 -10  -6  -1 12.5880 77.4216   1
  -2   1  19 164.574 129.959   1
   2   1 -19 469.613 104.364   1
  -2  -1  19 363.393 101.204   1
  -2  -1  19 507.613 139.461   1
  15   0  -1 2123.15 218.281   1
  15   0  -1 2508.99 208.078   1
 -15   0   1 2340.51 246.438   1
   8  -1  12 1682.69 199.432   1
   8  -1  12 1241.84 140.365   1
   8   1  12 1421.73 211.029   1
  -8   1 -12 1172.51 148.367   1
  11  -6  -7 3406.21 267.331   1
 -11  -6   7 3459.53 265.562   1
 -11   6   7 3267.50 242.946   1
  11   6  -7 3062.35 257.680   1
   8   7  -8 558.290 188.093   1
   8   7  -8 484.195 166.379   1
   8  -7  -8 371.453 168.402   1
  -8  -7   8 560.632 162.597   1
  -8   7   8 471.149 138.338   1
  -8   7   8 475.321 137.387   1
 -15   2  11 2963.41 254.218   1
 -15  -2  11 2576.98 284.469   1
  15   2 -11 2427.64 247.838   1
 -15  -2  11 3080.70 263.757   1
 -15   2  11 3184.60 262.870   1
  15  -2 -11 3110.49 261.294   1
  -3   7  11 1755.39 206.192   1
  -3  -7  11 2203.03 221.209   1
  -3   7  11 1453.42 164.566   1
   3  -7 -11 1469.77 165.582   1
   3   7 -11 2004.99 208.858   1
   3   7 -11 1841.95 223.448   1
  -7  -7  -3 5.41736 105.524   1
   7   7   3 195.936 130.354   1
   7  -7   3 76.7147 119.973   1
  -7   7  -3 105.635 128.951   1
   7  -7   3 -56.028 118.044   1
  -3  -8   6 2168.08 236.345   1
  -3   8   6 1981.72 211.338   1
   3   8  -6 2397.27 220.127   1
   3   8  -6 1719.91 230.888   1
   3  -8  -6 2007.08 227.437   1
  -3   8   6 2054.50 215.366   1
  14   2   1 -67.788 105.691   1
  14  -2   1 210.591 105.352   1
  14  -2   1 -0.6983 119.645   1
  14   2   1 41.0184 122.101   1
 -14   2  -1 -8.6959 112.120   1
  11  -6  -3 350.857 159.957   1
  11   6  -3 287.020 158.913   1
  11  -6  -3 322.473 161.715   1
 -11   6   3 371.303 153.739   1
 -11  -6   3 307.639 159.365   1
  -5  -8   2 384.165 144.583   1
   5   8  -2 414.099 144.413   1
   5   8  -2 485.690 165.423   1
  -5   8   2 118.035 144.804   1
   5  -8  -2 330.918 195.685   1
  -5   8   2 248.463 158.215   1
   3   5  13 3162.88 174.037   1
   3  -5  13 3175.38 221.288   1
  -3   5 -13 2809.43 266.612   1
  -4   7  11 452.405 158.446   1
   4   7 -11 522.787 176.057   1
   4   7 -11 591.980 169.656   1
  -4  -7  11 541.363 159.185   1
   4  -7 -11 358.968 121.326   1
  -4   7  11 288.207 116.371   1
  -5   8   3 56.3519 112.742   1
   5   8  -3 8.78472 139.644   1
   5   8  -3 114.895 131.636   1
   5  -8  -3 199.596 120.961   1
  -5   8   3 -38.705 121.362   1
  -5  -8   3 -13.797 117.583   1
  11   1   8 21955.3 786.870   1
  11  -1   8 18762.9 782.300   1
  11  -1   8 19140.9 741.857   1
  11   1   8 21555.9 883.119   1
 -11  -1  -8 21879.4 786.132   1
 -11   1  -8 19091.4 754.675   1
  -9   0 -11 892.348 123.381   1
   9   0  11 703.423 167.557   1
   9   0  11 839.033 118.423   1
 -14  -2  14 -100.48 102.093   1
 -14  -2  14 21.9372 92.3928   1
  14   2 -14 55.8075 96.5596   1
 -14   2  14 71.8675 112.140   1
 -14   2  14 -36.017 86.7946   1
  14  -2 -14 18.3942 96.0549   1
 -15   0  13 4526.25 294.435   1
 -15   0  13 4444.09 287.626   1
  15   0 -13 4471.04 297.240   1
  13   4 -12 1375.41 210.678   1
 -13   4  12 1143.25 175.693   1
 -13  -4  12 1330.97 249.983   1
 -13  -4  12 1137.91 196.304   1
  13  -4 -12 1345.33 196.168   1
  10  -2   9 5993.28 314.782   1
  10   2   9 5547.72 300.392   1
 -10   2  -9 5734.44 313.705   1
  10  -2   9 5950.47 333.707   1
  13  -4   0 166.779 145.313   1
  13  -4   0 22.4799 134.232   1
  13   4   0 164.766 125.276   1
 -13   4   0 125.269 133.715   1
 -13  -4   0 194.980 134.092   1
  -8   4  17 45.8605 91.4801   1
   8   4 -17 58.6012 118.924   1
   8  -4 -17 67.1685 84.1665   1
  -8  -4  17 -9.9007 116.655   1
  -8  -4  17 0.36504 104.148   1
   8   2 -19 910.400 193.218   1
  -8   2  19 1209.80 175.090   1
  -8   2  19 1139.98 131.172   1
  -8  -2  19 628.060 172.280   1
   8  -2 -19 1075.46 150.752   1
  -8  -2  19 612.223 169.113   1
  14  -4  -6 1480.57 210.009   1
  14  -4  -6 1373.88 203.524   1
 -14   4   6 1450.52 195.159   1
 -14  -4   6 892.671 186.471   1
  14   4  -6 1263.14 180.907   1
 -14  -4   7 480.469 162.991   1
 -14   4   7 642.027 156.811   1
  14   4  -7 535.309 156.826   1
  14  -4  -7 535.852 169.010   1
  14  -4  -7 570.126 163.603   1
   5  -8  -1 788.119 205.044   1
  -5   8   1 602.539 191.035   1
  -5  -8   1 1559.21 184.929   1
  -5   8   1 503.814 189.844   1
   5   8  -1 1554.71 218.776   1
   5   8  -1 1886.13 213.263   1
   5  -8  -1 1053.64 145.256   1
 -14  -1  -2 1377.22 189.013   1
  14  -1   2 932.699 190.006   1
 -14   1  -2 1345.24 183.769   1
  14  -1   2 1252.30 167.048   1
  14   1   2 1387.42 182.391   1
  14   1   2 1344.05 184.677   1
  10  -4 -16 603.669 149.979   1
 -10   4  16 447.192 140.605   1
  10   4 -16 815.150 181.411   1
 -10  -4  16 562.849 177.705   1
 -10  -4  16 704.678 158.549   1
   2   7 -11 43.0392 116.577   1
  -2   7  11 41.5594 75.2023   1
   2   7 -11 -81.179 107.370   1
  -2   7  11 102.847 107.598   1
  -2  -7  11 -213.67 104.870   1
   5   5 -16 2066.41 220.504   1
  -5   5  16 1292.12 155.077   1
  -5  -5  16 1411.86 208.755   1
  -5  -5  16 1738.10 196.586   1
  -2  -3  18 5533.23 302.719   1
   2   3 -18 5749.39 317.351   1
  -2  -3  18 5485.04 317.232   1
  -2  -4  17 -59.895 104.148   1
  -2  -4  17 34.8896 105.219   1
  -2   4  17 -47.149 78.2930   1
   2   4 -17 -17.134 111.077   1
  -6   3 -13 208.198 132.274   1
   6  -3  13 241.735 123.310   1
   6   3  13 388.788 126.725   1
  11   4   5 4195.57 245.077   1
 -11  -4  -5 3961.23 238.250   1
  11   4   5 3654.00 241.391   1
  11  -4   5 3414.43 261.939   1
  11  -4   5 3975.23 304.473   1
 -11   4  -5 3482.09 311.593   1
   0  -6  13 3255.22 251.166   1
   0   6  13 3827.27 266.541   1
   0   6 -13 2736.07 251.322   1
   0  -8  -6 752.358 158.952   1
   0   8   6 617.394 143.141   1
   0   8  -6 283.547 167.618   1
   0  -8   6 269.486 174.027   1
   0   8   6 801.716 163.268   1
   0   8  -6 328.272 173.544   1
   4   6 -14 7452.65 409.311   1
   4   6 -14 7745.77 387.087   1
  -4  -6  14 7560.79 394.131   1
  -4   6  14 8534.87 389.901   1
  -4   6  14 8370.65 330.127   1
   4   8   2 598.767 187.601   1
   4  -8   2 1326.37 202.288   1
   4   8   2 1139.11 172.745   1
  -4   8  -2 1243.61 184.311   1
   4  -8   2 1173.51 152.465   1
  -4  -8  -2 1045.24 181.583   1
  -4   8  -2 1256.39 195.799   1
  14   1 -15 1986.26 221.209   1
 -14   1  15 1733.80 187.899   1
 -14  -1  15 1924.22 227.310   1
 -14   1  15 1720.34 206.783   1
 -14  -1  15 1961.70 205.651   1
  14  -1 -15 1465.87 202.240   1
  -5  -8   4 143.081 130.461   1
  -5   8   4 138.372 124.728   1
   5   8  -4 128.440 144.584   1
   5  -8  -4 84.7478 156.940   1
   5   8  -4 87.4352 159.988   1
  -5   8   4 136.888 135.282   1
  -4   5  16 5816.53 287.991   1
  -4  -5  16 4662.37 338.595   1
   4   5 -16 5317.00 320.865   1
  -7   3 -12 214.203 127.817   1
   7   3  12 369.372 129.492   1
   7  -3  12 352.505 136.163   1
 -12  -4  14 -28.586 134.554   1
  12   4 -14 30.7343 125.450   1
 -12  -4  14 274.076 112.341   1
  12  -4 -14 32.4901 120.053   1
 -12   4  14 19.3183 95.9084   1
  12   4 -14 -29.755 88.3658   1
   8   7   1 2990.96 284.859   1
   8   7   1 3142.29 247.804   1
   8  -7   1 3100.16 266.747   1
  -8   7  -1 2099.29 252.463   1
  -8  -7  -1 2984.37 247.992   1
   8  -7   1 3242.88 256.634   1
  10  -5 -14 96.1788 125.019   1
  10   5 -14 56.9463 117.102   1
 -10  -5  14 134.099 127.950   1
 -10  -5  14 -37.504 137.598   1
 -10   5  14 162.643 118.008   1
  10   5 -14 39.7333 137.016   1
 -10   0  19 77.6826 96.0004   1
  10   0 -19 -37.452 104.222   1
 -10   0  19 -79.187 97.2567   1
  14  -4  -5 8719.18 446.703   1
  14   4  -5 8392.66 402.777   1
 -14   4   5 9123.42 453.727   1
 -14  -4   5 8113.90 462.643   1
  14  -4  -5 8529.15 438.865   1
  -9  -6  12 758.309 182.139   1
  -9   6  12 1121.21 170.719   1
   9   6 -12 800.413 178.192   1
   9   6 -12 654.996 191.816   1
   9  -6 -12 840.372 179.228   1
 -14   4   8 77.5878 130.096   1
  14   4  -8 348.289 135.354   1
  14  -4  -8 60.9299 138.051   1
 -14  -4   8 239.547 138.472   1
  -5  -6  14 3426.47 252.629   1
  -5   6  14 2917.64 218.097   1
  -5   6  14 2946.68 196.175   1
   5   6 -14 3518.76 245.684   1
   5  -6 -14 3248.46 203.426   1
  -3  -2  19 94.2283 105.368   1
  -3   2  19 255.032 106.701   1
  -3  -2  19 150.923 103.058   1
   3   2 -19 153.024 126.985   1
  -8   5  -8 978.948 213.588   1
   8  -5   8 751.253 194.939   1
   8  -5   8 1135.83 171.880   1
   8   5   8 960.308 123.327   1
  -9  -7   4 3850.93 305.571   1
  -9   7   4 3929.13 285.526   1
   9   7  -4 4065.73 275.539   1
   9   7  -4 3639.20 301.354   1
   9  -7  -4 3871.54 254.878   1
  -6  -7  -5 390.207 129.838   1
   6   7   5 358.209 122.063   1
   6   7   5 542.699 160.767   1
  -6   7  -5 248.500 159.597   1
   6  -7   5 303.456 156.164   1
   6  -7   5 219.339 152.327   1
  -7   6  -7 3619.49 276.479   1
   7  -6   7 3678.56 262.259   1
   7  -6   7 3265.94 263.279   1
  12   5 -11 11513.0 526.400   1
  12  -5 -11 11489.8 560.690   1
  12   5 -11 11297.3 518.351   1
 -12  -5  11 11474.8 530.633   1
 -12   5  11 10433.8 475.089   1
  15   1  -1 5239.12 318.611   1
 -15  -1   1 5682.49 313.416   1
 -15   1   1 6233.85 384.811   1
  15   1  -1 5269.60 299.438   1
  15  -1  -1 5985.23 327.655   1
  15  -1  -1 6182.18 343.383   1
 -11  -6   8 3688.33 279.494   1
  11   6  -8 3754.40 269.994   1
  11   6  -8 3419.91 270.436   1
  11  -6  -8 3523.92 261.422   1
 -11   6   8 3457.52 250.724   1
   5   7 -11 301.493 137.156   1
   5  -7 -11 36.4283 101.333   1
   5   7 -11 195.673 141.415   1
  -5   7  11 109.192 130.078   1
  -5  -7  11 66.5721 129.245   1
  -5   7  11 -7.5937 100.691   1
   6  -5 -16 942.884 125.191   1
  -6   5  16 663.415 135.384   1
  -6  -5  16 1217.07 181.793   1
  -6  -5  16 1260.67 172.014   1
  -6   5  16 977.924 123.412   1
   6   5 -16 1419.14 155.295   1
   6   5 -16 812.866 189.238   1
  -9  -7   5 1217.38 177.210   1
  -9   7   5 955.449 185.158   1
   9   7  -5 1051.09 194.708   1
   9   7  -5 1321.27 185.518   1
   9  -7  -5 1145.34 170.018   1
   9  -7  -5 1342.93 192.370   1
  12  -4   3 1603.25 230.992   1
  12   4   3 2023.16 188.708   1
 -12  -4  -3 1960.65 185.307   1
 -12   4  -3 1632.33 213.774   1
  12   4   3 1784.85 183.348   1
  12  -4   3 1570.76 217.184   1
   1   0  18 2.11166 64.5044   1
   3   6 -14 7276.11 404.214   1
  -3  -6  14 7744.61 394.530   1
  -3   6  14 7911.80 372.681   1
  -5   3 -14 1476.97 179.896   1
   5   3  14 1717.89 177.814   1
   5  -3  14 1374.55 166.613   1
  -6   4 -12 19124.3 797.275   1
   6   4  12 20697.5 772.022   1
   6  -4  12 18829.9 772.995   1
  12  -5   0 443.588 192.202   1
  12  -5   0 463.759 158.454   1
 -12  -5   0 488.372 151.059   1
 -12   5   0 325.512 160.378   1
  12   5   0 447.543 148.157   1
  -4   8   6 156.476 152.618   1
  -4  -8   6 245.004 159.813   1
  -4   8   6 129.998 147.648   1
   4  -8  -6 396.560 163.959   1
   4   8  -6 576.454 150.561   1
   4   8  -6 292.336 153.883   1
   9  -7  -3 3983.38 300.840   1
  -9   7   3 3973.08 286.815   1
  -9  -7   3 4250.27 302.021   1
   9   7  -3 4151.13 313.231   1
   9  -7  -3 4530.71 284.942   1
   9   7  -3 3853.46 316.526   1
  11   6  -2 5782.35 349.156   1
 -11  -6   2 6120.49 317.224   1
  11  -6  -2 5773.59 368.234   1
  11  -6  -2 5805.17 353.982   1
 -11   6   2 5206.63 326.766   1
  -5   8   0 2612.94 261.076   1
  -5  -8   0 2779.29 238.333   1
  -5   8   0 2831.13 264.166   1
   5   8   0 3634.05 265.598   1
   5  -8   0 3370.48 279.989   1
   5  -8   0 3235.28 224.614   1
   5   8   0 3582.36 287.208   1
   9  -3 -18 1887.36 178.832   1
   9   3 -18 1421.35 205.168   1
  -9  -3  18 1817.93 190.190   1
  -9  -3  18 1972.12 217.551   1
   0  -2  18 642.848 129.913   1
   0   2 -18 1030.68 138.421   1
   0   2  18 522.917 133.203   1
   0  -2  18 930.462 133.922   1
   9  -1  11 1050.08 129.195   1
  -9   1 -11 1175.28 150.426   1
   9   1  11 1358.62 191.641   1
   9  -1  11 1250.33 194.469   1
  15  -1 -13 396.033 166.802   1
 -15   1  13 769.046 180.785   1
  15   1 -13 285.325 167.095   1
 -15  -1  13 726.652 160.619   1
 -15  -1  13 362.876 165.343   1
 -15   1  13 408.018 153.896   1
  12  -2 -17 1380.44 203.322   1
  12   2 -17 997.471 221.477   1
 -12   2  17 968.557 198.162   1
 -12   2  17 1736.70 185.055   1
 -12  -2  17 694.202 204.314   1
 -12  -2  17 1315.87 180.551   1
  -8   6  13 1829.49 176.851   1
  -8   6  13 1688.22 190.217   1
  -8  -6  13 1541.27 200.885   1
   8  -6 -13 1669.61 196.073   1
   8   6 -13 1884.62 237.855   1
   8   6 -13 1570.88 194.164   1
   2  -6  12 192.739 119.270   1
  -2   6 -12 20.3781 119.759   1
   2   6  12 23.4715 104.981   1
  16   0  -7 0.20772 110.666   1
 -16   0   7 69.4504 110.064   1
 -16   0   7 -3.0947 93.3600   1
  -1   7 -10 -23.656 131.188   1
   1   7  10 121.685 145.650   1
   1  -7  10 214.615 131.630   1
 -16   0   8 14379.7 631.436   1
 -16   0   8 14978.7 623.945   1
  16   0  -8 15398.8 649.620   1
 -11  -5  13 906.296 211.952   1
  11  -5 -13 1139.88 181.351   1
 -11  -5  13 1357.38 199.732   1
 -11   5  13 1830.99 202.804   1
  11   5 -13 1429.14 221.609   1
  11   5 -13 1507.85 178.162   1
   0  -5  15 722.148 147.700   1
   0   5 -15 1359.92 184.696   1
   0   5  15 361.304 136.966   1
   5  -4  13 7803.13 399.677   1
   5   4  13 7855.48 345.507   1
  -5   4 -13 7948.98 416.762   1
  -7  -7  10 537.591 179.680   1
  -7   7  10 720.486 151.548   1
   7  -7 -10 656.727 158.858   1
   7   7 -10 338.298 172.225   1
  -7   7  10 413.667 132.763   1
   7   7 -10 488.524 179.671   1
   7   4  11 649.739 140.047   1
   7  -4  11 642.106 172.192   1
   7  -4  11 485.084 180.326   1
  -7   4 -11 463.795 178.192   1
   3   5 -16 1472.28 218.018   1
  -3   5  16 969.379 146.504   1
  -3  -5  16 1370.32 172.023   1
 -15  -3   7 1398.27 190.312   1
  15  -3  -7 1022.75 211.540   1
  15  -3  -7 1120.49 201.106   1
  15   3  -7 1634.64 182.534   1
 -15   3   7 394.924 191.405   1
 -15   3   7 705.920 162.198   1
   2   8   5 -14.757 112.748   1
   2   8   5 59.0385 95.9343   1
  -2   8  -5 -111.22 115.056   1
  -2  -8  -5 44.5523 102.411   1
  -2   8  -5 122.780 118.960   1
   2  -8   5 32.7223 104.592   1
   2  -8   5 75.4713 120.250   1
   8   3  11 5885.47 324.188   1
   8  -3  11 6314.26 372.515   1
  -8   3 -11 5372.77 317.640   1
   4   1  16 751.061 99.7886   1
  -9  -7   6 2467.72 235.996   1
  -9   7   6 3214.16 280.414   1
   9   7  -6 3031.27 251.891   1
   9   7  -6 3299.37 301.453   1
   9  -7  -6 2706.82 239.872   1
   5  -8  -5 166.462 119.005   1
   5   8  -5 -23.117 132.953   1
   5   8  -5 18.2626 124.421   1
  -5   8   5 19.6249 126.595   1
  -5   8   5 105.573 137.242   1
  -5  -8   5 153.260 132.247   1
   9  -5 -15 33.0835 115.271   1
   9   5 -15 349.788 148.453   1
   9   5 -15 162.211 119.311   1
  -9   5  15 143.104 112.579   1
  -9  -5  15 208.991 138.118   1
  -9  -5  15 105.285 132.965   1
  14  -4  -4 424.672 166.549   1
  14  -4  -4 293.172 160.611   1
  14   4  -4 1025.59 182.047   1
 -14   4   4 360.142 175.758   1
 -14  -4   4 693.145 160.963   1
  -1   0  19 2219.23 193.123   1
  15   2  -2 11837.4 535.360   1
  15  -2  -2 12123.6 566.335   1
 -15   2   2 12054.9 564.799   1
  15  -2  -2 12321.8 547.868   1
  15   2  -2 12883.1 543.493   1
   6   0 -20 1443.27 157.200   1
  -6   0  20 1667.91 143.660   1
  -6   0  20 1811.66 219.078   1
   3  -8   4 1209.08 206.873   1
   3  -8   4 999.457 154.831   1
   3   8   4 1390.20 174.507   1
   3   8   4 1568.82 203.477   1
  -3   8  -4 1382.64 202.874   1
  -3  -8  -4 1385.54 183.577   1
  -3   8  -4 1385.99 190.598   1
  12   3 -16 3513.31 296.010   1
  12  -3 -16 3685.46 251.024   1
 -12   3  16 3629.02 261.009   1
 -12  -3  16 4204.80 277.980   1
 -12  -3  16 3656.95 287.447   1
 -10   4  -7 147.161 121.816   1
  10  -4   7 196.266 118.701   1
  10   4   7 12.1014 103.237   1
  10  -4   7 148.177 142.108   1
   1   7 -11 2160.83 232.466   1
  -1   7  11 1879.03 148.681   1
  -1   7  11 2216.51 221.948   1
  -1  -7  11 1781.03 215.326   1
   1   7 -11 1708.50 235.130   1
  16   0  -6 2637.97 244.029   1
 -16   0   6 3381.45 236.650   1
 -16   0   6 3214.75 258.617   1
 -14  -4   9 209.329 151.483   1
  14   4  -9 350.139 143.467   1
  14  -4  -9 232.847 150.470   1
 -14   4   9 281.063 139.098   1
  15  -3  -6 5429.60 340.382   1
  15   3  -6 5714.88 319.040   1
 -15   3   6 5052.23 339.196   1
 -15  -3   6 4973.96 306.408   1
 -15   3   6 4992.79 273.671   1
  15  -3  -6 4976.75 339.950   1
  -6   6  14 18.4134 85.3228   1
   6   6 -14 127.637 136.298   1
   6   6 -14 113.154 115.671   1
  -6   6  14 72.9269 106.909   1
   6  -6 -14 -10.288 104.981   1
  -6  -6  14 249.193 128.873   1
 -12   2  -6 1507.03 182.585   1
  12   2   6 2140.45 181.893   1
  12  -2   6 2084.86 207.032   1
  12  -2   6 2102.67 222.353   1
  12   2   6 2265.80 196.276   1
  13   5  -6 -107.46 110.408   1
 -13   5   6 -34.321 109.932   1
  13  -5  -6 72.8104 134.399   1
  13  -5  -6 -50.086 118.791   1
 -13  -5   6 -19.204 109.950   1
 -10  -5  -5 49.2540 101.207   1
  10   5   5 204.194 94.5646   1
  10   5   5 128.086 97.4558   1
 -10   5  -5 39.8479 128.789   1
  10  -5   5 -60.714 131.842   1
  13   2 -16 1515.58 205.272   1
 -13   2  16 1469.92 201.272   1
  13  -2 -16 910.416 218.484   1
 -13  -2  16 1777.15 202.894   1
 -13  -2  16 1377.39 217.058   1
 -13   2  16 1395.52 175.070   1
  10  -1 -19 955.607 171.827   1
  10   1 -19 974.762 200.893   1
 -10   1  19 1011.74 178.098   1
 -10   1  19 1049.22 160.639   1
 -10  -1  19 770.899 173.111   1
 -10  -1  19 949.591 175.919   1
  15  -3  -8 3851.94 290.531   1
 -15   3   8 3688.83 252.027   1
 -15  -3   8 3087.35 270.614   1
 -15  -3   8 2842.50 266.828   1
 -15   3   8 3778.90 278.269   1
  15   3  -8 2948.75 253.286   1
  -2   2 -17 936.283 137.005   1
   2  -2  17 950.507 137.653   1
   2  -2  17 1026.39 136.320   1
   2   2  17 800.788 120.718   1
  13   2   4 127.617 120.852   1
  13   2   4 16.5081 95.1893   1
  13  -2   4 75.9512 111.953   1
  13  -2   4 -45.993 115.940   1
 -13   2  -4 19.3371 121.368   1
  10   6 -11 9346.69 481.209   1
  10  -6 -11 10398.8 462.069   1
 -10  -6  11 9374.07 485.370   1
 -10   6  11 9216.05 468.603   1
  10   6 -11 10430.1 492.134   1
  16   0  -9 79.7779 128.509   1
 -16   0   9 49.8444 129.237   1
 -16   0   9 169.181 132.892   1
  -9   7   2 528.723 150.159   1
   9  -7  -2 295.265 148.586   1
   9   7  -2 315.084 175.248   1
   9   7  -2 470.009 169.376   1
  -9  -7   2 264.295 159.573   1
   9  -7  -2 271.334 160.437   1
  -9  -6  -4 1078.01 134.777   1
   9   6   4 1090.45 144.287   1
  -9   6  -4 962.704 197.039   1
   9  -6   4 765.039 184.355   1
   9  -6   4 939.780 173.020   1
  -2   8   7 9110.46 428.533   1
  -2  -8   7 9154.42 474.644   1
   2   8  -7 9219.95 518.278   1
   2  -8  -7 9127.25 445.113   1
   2   8  -7 9313.66 460.504   1
  -2   8   7 8720.36 431.147   1
  11   5   3 1249.99 149.281   1
 -11  -5  -3 1024.12 152.690   1
  11  -5   3 808.724 184.542   1
  11  -5   3 1255.15 184.491   1
 -11   5  -3 710.118 193.758   1
 -13  -5   7 6973.70 379.320   1
  13  -5  -7 6991.17 383.324   1
 -13   5   7 6469.11 366.964   1
  13   5  -7 6765.73 367.764   1
  13  -5  -7 7362.43 419.236   1
  15  -2 -12 9130.09 453.577   1
  15   2 -12 9122.45 474.930   1
 -15   2  12 8323.75 452.539   1
 -15   2  12 9173.47 442.228   1
 -15  -2  12 10010.9 469.316   1
 -15  -2  12 9272.47 460.882   1
  13   5  -5 1768.10 248.309   1
  13  -5  -5 2236.20 265.563   1
 -13  -5   5 1826.35 210.720   1
  13  -5  -5 2154.05 230.906   1
 -13   5   5 1964.97 216.159   1
  -5   0  20 -15.095 73.2212   1
   5   0 -20 38.4585 86.9629   1
  -5   0  20 -121.13 114.015   1
  -8   7   9 389.456 120.717   1
   8  -7  -9 242.145 153.657   1
  -8   7   9 302.439 150.031   1
   8   7  -9 235.353 164.364   1
  -8  -7   9 187.858 152.015   1
   8   7  -9 309.373 159.216   1
  -7   0  20 -1.9716 95.9302   1
  -7   0  20 111.021 115.957   1
   7   0 -20 115.025 121.304   1
  -2   5 -14 1466.00 178.106   1
   2  -5  14 1559.15 176.575   1
   1   1  18 228.341 96.3876   1
   1  -1  18 128.736 94.5448   1
 -11  -3  17 7913.65 426.918   1
  11  -3 -17 8566.60 409.559   1
 -11  -3  17 7881.89 392.992   1
  11   3 -17 8056.05 458.517   1
 -11   3  17 8433.73 392.825   1
 -12   3  -5 573.228 144.726   1
 -12  -3  -5 368.113 131.753   1
  12   3   5 167.552 146.251   1
  12  -3   5 764.911 142.404   1
  12  -3   5 409.185 173.065   1
  12   3   5 124.904 110.899   1
  -1  -8  -6 646.836 150.147   1
   1   8   6 602.725 171.558   1
  -1   8  -6 705.537 180.725   1
  -1   8  -6 873.560 173.345   1
   1   8   6 415.198 144.014   1
   1  -8   6 698.572 182.940   1
   2   6 -14 712.092 169.342   1
  -2  -6  14 833.457 163.125   1
  -2   6  14 181.485 144.692   1
  -7   5  16 5771.03 275.016   1
  -7   5  16 5554.38 269.802   1
   7  -5 -16 5907.16 287.072   1
  -7  -5  16 4811.57 315.974   1
   7   5 -16 4855.26 330.257   1
   7   5 -16 5757.37 297.304   1
  -7  -5  16 4899.87 300.650   1
  14  -3   0 349.410 173.999   1
  14  -3   0 358.474 149.614   1
  14   3   0 448.260 164.751   1
  14   3   0 353.854 152.495   1
 -14   3   0 449.261 154.898   1
 -14  -3   0 628.671 162.019   1
 -13   0  17 557.305 169.236   1
  13   0 -17 632.828 190.756   1
 -13   0  17 458.127 146.517   1
  -3  -8   7 89.1428 160.013   1
  -3   8   7 407.047 144.392   1
   3  -8  -7 307.824 156.539   1
  -3   8   7 369.838 141.822   1
   3   8  -7 182.828 187.669   1
   3   8  -7 231.919 151.401   1
 -13   0  -5 3379.76 251.924   1
  13   0   5 3461.62 248.006   1
  13   0   5 3304.24 256.966   1
  10   0  10 2161.60 219.284   1
  10   0  10 2287.57 179.884   1
 -10   0 -10 2489.55 187.512   1
   9   2 -19 2835.44 236.342   1
  -9   2  19 3192.25 204.870   1
  -9  -2  19 3046.97 247.297   1
  -9  -2  19 3074.88 247.614   1
  -9   2  19 3298.03 256.630   1
   9  -2 -19 3120.58 236.527   1
  -4   3 -15 714.210 141.095   1
   4  -3  15 450.468 134.768   1
  11  -2 -18 38.0428 132.875   1
 -11  -2  18 267.239 132.643   1
 -11   2  18 72.3130 136.323   1
 -11  -2  18 198.417 139.537   1
 -11   2  18 79.1739 120.940   1
  11   2 -18 47.9507 128.614   1
   1   8  -7 1561.59 241.463   1
   1   8  -7 1636.70 202.005   1
   1  -8  -7 843.796 176.866   1
  -1  -8   7 913.100 206.725   1
  -1   8   7 782.782 164.369   1
  -1   8   7 890.628 180.799   1
 -16   1   7 10688.6 462.797   1
  16   1  -7 11564.3 512.701   1
  16  -1  -7 10394.4 496.599   1
 -16  -1   7 11294.4 518.536   1
 -16  -1   7 12073.8 509.981   1
 -16   1   7 10866.7 524.514   1
  15   3  -5 976.021 178.518   1
 -15  -3   5 788.369 177.731   1
 -15   3   5 1468.87 167.599   1
 -15   3   5 1418.63 209.630   1
  15  -3  -5 1396.27 210.170   1
  15  -3  -5 1393.44 199.167   1
 -12   0  18 103.505 108.388   1
  12   0 -18 84.3842 118.873   1
 -12   0  18 139.430 137.681   1
 -14   3  13 1340.78 197.035   1
 -14   3  13 1907.85 199.473   1
 -14  -3  13 1375.17 215.726   1
 -14  -3  13 1392.05 207.862   1
  14   3 -13 1845.79 226.028   1
  14  -3 -13 1372.46 200.089   1
   7   2  13 91.0093 112.278   1
  -7   2 -13 24.6578 95.3252   1
   7  -2  13 -3.6141 82.3253   1
   1  -4  16 257.741 139.878   1
  -1   4 -16 423.230 145.768   1
 -16  -1   8 1241.53 184.615   1
 -16  -1   8 734.305 176.179   1
 -16   1   8 601.453 184.984   1
 -16   1   8 505.464 160.466   1
  16   1  -8 1269.87 177.001   1
  16  -1  -8 515.975 177.520   1
   5   8   1 562.559 179.692   1
  -5   8  -1 658.449 175.248   1
   5  -8   1 557.056 124.655   1
   5   8   1 698.262 128.559   1
  -5   8  -1 594.836 176.726   1
   5  -8   1 774.875 186.034   1
  -5  -8  -1 554.893 169.712   1
   6   2  14 1468.77 195.190   1
  -6   2 -14 1253.42 160.668   1
  11   6  -9 -11.785 125.459   1
  11  -6  -9 254.827 136.364   1
 -11   6   9 253.614 124.579   1
  11   6  -9 48.7354 138.316   1
 -11  -6   9 134.741 141.834   1
  -4   4 -14 1996.62 211.009   1
   4  -4  14 1923.76 217.468   1
   4   4  14 1857.30 179.678   1
 -15  -3   9 2069.48 246.393   1
 -15   3   9 2143.01 231.632   1
  15   3  -9 2097.87 222.450   1
 -15  -3   9 1761.18 232.559   1
 -15   3   9 2047.34 221.330   1
  15  -3  -9 2176.68 244.996   1
   6   7 -11 166.602 124.270   1
   6  -7 -11 -7.9336 101.672   1
  -6   7  11 -67.542 94.2055   1
  -6  -7  11 106.695 118.628   1
  -6   7  11 52.1796 94.4647   1
   6   7 -11 -2.3409 129.954   1
  10  -6   2 720.797 161.198   1
 -10   6  -2 737.224 178.566   1
 -10  -6  -2 446.079 146.556   1
  10   6   2 718.330 140.222   1
  10  -6   2 776.818 176.959   1
 -16   0   5 52.5954 108.595   1
  16   0  -5 -133.28 115.109   1
  16   0  -5 119.824 108.507   1
   1  -3  17 1901.55 172.511   1
   1  -3  17 1979.56 185.215   1
  -1   3 -17 2309.54 190.754   1
   4   8   3 3227.20 236.400   1
   4  -8   3 3425.31 283.086   1
   4  -8   3 3131.46 241.035   1
  -4  -8  -3 3076.61 246.251   1
  -4   8  -3 3821.28 271.281   1
  -4   8  -3 3690.64 275.923   1
   4   8   3 2940.66 260.612   1
 -13  -5   8 265.141 145.559   1
 -13   5   8 -25.370 145.061   1
  13   5  -8 375.469 139.858   1
  13  -5  -8 257.132 147.250   1
 -13  -5   4 7931.13 425.643   1
  13  -5  -4 7405.76 395.567   1
  13  -5  -4 7543.53 413.982   1
  13   5  -4 7839.35 386.218   1
 -13   5   4 7428.39 402.421   1
   8  -4  10 11322.3 526.383   1
  -8   4 -10 11974.1 546.828   1
   8  -4  10 11952.1 565.810   1
   8   4  10 11355.7 483.153   1
  -9  -7   7 3612.19 267.781   1
   9   7  -7 3435.75 268.930   1
   9  -7  -7 3295.14 260.150   1
   9   7  -7 3152.41 264.001   1
  -9   7   7 3851.08 257.643   1
  -9  -4  17 143.296 125.729   1
  -9  -4  17 131.858 131.685   1
  -9   4  17 55.4745 95.6011   1
   9   4 -17 76.4171 160.863   1
   9  -4 -17 121.414 102.996   1
  -1   1  19 2814.21 201.686   1
  -1  -1  19 2065.77 194.783   1
  15   0   0 114.045 119.289   1
 -15   0   0 78.0812 125.022   1
  15   0   0 278.956 137.013   1
  -6  -1  20 1113.08 145.498   1
  -6  -1  20 941.923 199.363   1
  -6   1  20 439.945 120.560   1
   6   1 -20 738.382 158.625   1
  -6   1  20 1184.34 170.777   1
  11  -6  -1 1476.53 205.791   1
 -11   6   1 1930.05 225.209   1
  11   6  -1 1457.64 203.011   1
  11  -6  -1 1990.89 206.090   1
 -11  -6   1 1614.40 173.039   1
  16   1  -6 2326.54 224.366   1
  16  -1  -6 2900.53 246.679   1
 -16  -1   6 2774.54 243.448   1
 -16   1   6 2246.15 256.679   1
 -16   1   6 2571.16 194.928   1
 -16  -1   6 3004.19 242.217   1
  16  -1  -6 2299.33 252.107   1
 -16   0  10 1760.97 203.611   1
 -16   0  10 1276.55 201.447   1
  16   0 -10 1387.31 202.098   1
   3   0  17 85.3340 79.0012   1
  13  -3 -15 205.914 128.426   1
 -13  -3  15 168.264 149.536   1
 -13  -3  15 150.046 135.365   1
  13   3 -15 186.722 153.494   1
 -13   3  15 106.611 140.743   1
 -13   3  15 258.494 140.039   1
 -12   0  -7 80.7006 99.4041   1
  12   0   7 28.8868 98.4617   1
  12   0   7 28.7009 120.538   1
  13   3   3 363.626 120.449   1
 -13  -3  -3 147.108 128.126   1
  13   3   3 226.086 139.418   1
 -13   3  -3 144.480 137.242   1
  13  -3   3 148.384 160.322   1
  13  -3   3 218.096 159.036   1
 -16   1   9 158.537 132.019   1
 -16  -1   9 196.854 154.310   1
  16   1  -9 143.994 134.694   1
  16  -1  -9 92.9116 143.105   1
 -16   1   9 242.694 146.746   1
  -7  -7  -4 311.953 123.091   1
   7   7   4 485.619 123.198   1
   7   7   4 411.615 169.000   1
  -7   7  -4 738.993 173.216   1
   7  -7   4 230.309 154.095   1
   7  -7   4 358.904 168.111   1
  -1  -4  17 33.7949 83.4840   1
  -1   4  17 12.3653 83.7703   1
  -1  -4  17 49.7657 107.900   1
   1   4 -17 16.6170 110.612   1
  14  -4  -3 663.961 192.104   1
 -14  -4   3 1419.20 205.432   1
 -14   4   3 423.180 190.112   1
  14   4  -3 1110.89 162.675   1
  14  -4  -3 404.700 178.690   1
   8   6   6 1383.02 159.016   1
  -8   6  -6 1530.12 217.850   1
   8  -6   6 1404.50 191.301   1
   8  -6   6 1233.64 200.759   1
  -4   0  20 2230.13 189.230   1
  11   3   7 9936.06 451.978   1
  11  -3   7 9022.78 468.990   1
  11   3   7 9728.18 393.269   1
  11  -3   7 7845.06 426.110   1
 -11   3  -7 8801.12 404.026   1
   8   7   2 -6.0043 123.954   1
   8  -7   2 234.859 137.316   1
   8  -7   2 82.9119 132.866   1
  -8  -7  -2 6.49388 121.671   1
  -8   7  -2 214.652 143.383   1
   2   2 -19 2067.10 185.259   1
  -2  -2  19 1643.94 191.141   1
  -2  -2  19 2174.21 168.502   1
  -2   2  19 1690.39 192.430   1
  -5  -1  20 132.844 103.029   1
   5   1 -20 203.649 136.677   1
  -5   1  20 285.314 126.942   1
  -5  -1  20 303.860 127.906   1
   5   8  -6 3752.64 282.266   1
   5   8  -6 3584.94 291.115   1
   5  -8  -6 4086.77 320.345   1
  -5  -8   6 3690.45 292.939   1
  -5   8   6 4142.02 300.333   1
  -5   8   6 3739.57 286.000   1
   8   2  12 237.559 105.658   1
   8  -2  12 173.094 135.444   1
   8  -2  12 109.813 97.2211   1
  -8   2 -12 -19.702 98.3961   1
   4   7   8 38.9322 105.431   1
   4  -7   8 -88.190 100.981   1
  -4   7  -8 35.0479 107.974   1
 -14  -4  10 1831.60 219.830   1
 -14  -4  10 2147.03 221.793   1
 -14   4  10 2135.43 215.884   1
  14   4 -10 2179.35 225.820   1
  14  -4 -10 1891.67 232.632   1
   9   7  -1 181.683 157.567   1
   9   7  -1 144.405 142.391   1
   9  -7  -1 12.6126 148.474   1
  -9   7   1 187.629 139.324   1
   9  -7  -1 124.814 151.792   1
  -9  -7   1 339.651 139.775   1
  -2  -5  16 142.771 122.526   1
  -2   5  16 159.489 112.330   1
   2   5 -16 124.403 150.109   1
  -7  -1  20 19169.0 765.768   1
  -7   1  20 20025.8 739.833   1
   7  -1 -20 19661.1 750.465   1
   7   1 -20 18715.5 757.963   1
  -7   1  20 19969.6 798.615   1
  -7  -1  20 19194.7 738.917   1
  13  -4 -13 2596.98 229.346   1
 -13  -4  13 2457.03 258.374   1
 -13   4  13 2908.80 255.489   1
  13   4 -13 2180.44 258.339   1
 -13  -4  13 2306.54 236.023   1
  -8   0  20 17235.0 660.282   1
  -8   0  20 16808.6 698.151   1
   8   0 -20 16937.8 675.621   1
  15   0 -14 64.4227 110.316   1
 -15   0  14 -39.502 96.9497   1
   1   3 -18 5455.20 311.362   1
  -1   3  18 6054.34 275.276   1
  -1  -3  18 5623.46 297.006   1
  -1  -3  18 5807.62 316.494   1
  13  -4   1 4656.92 329.895   1
  13   4   1 5074.20 305.319   1
 -13  -4  -1 5433.36 325.057   1
 -13   4  -1 4408.71 310.297   1
  13   4   1 5247.96 298.474   1
  13  -4   1 4489.76 310.043   1
   9  -3  10 5722.51 360.981   1
   9   3  10 5458.99 324.608   1
   9  -3  10 5532.01 324.331   1
  -9   3 -10 5439.76 326.719   1
   9   5   7 60.6970 90.7095   1
   9  -5   7 128.441 139.710   1
   9  -5   7 198.364 122.441   1
  -9   5  -7 123.776 150.418   1
  -4   8   7 48.8023 123.431   1
   4   8  -7 141.053 128.014   1
   4  -8  -7 86.4740 130.898   1
   4   8  -7 176.649 123.819   1
  -4   8   7 15.5453 151.264   1
  -4  -8   7 -100.68 133.393   1
  -5   2 -15 -15.488 86.1578   1
   5  -2  15 -25.335 84.5096   1
  13  -1 -17 -53.046 135.432   1
 -13  -1  17 26.6933 106.916   1
 -13  -1  17 -46.751 122.075   1
 -13   1  17 98.7442 103.405   1
 -13   1  17 137.309 121.096   1
  13   1 -17 12.2287 116.647   1
  -6  -8   3 7991.11 411.394   1
   6  -8  -3 8021.49 472.392   1
   6   8  -3 8340.85 453.422   1
  -6   8   3 7892.90 413.993   1
  -6   8   3 7419.62 408.666   1
   6   8  -3 7984.60 405.151   1
  11  -2   8 333.555 140.421   1
  11  -2   8 514.365 155.465   1
  11   2   8 398.827 127.066   1
  11   2   8 151.306 101.989   1
 -11   2  -8 540.992 151.777   1
  14   0   3 14.6086 131.033   1
  14   0   3 77.4485 121.128   1
 -14   0  -3 199.868 131.521   1
  13  -1   5 1494.39 190.800   1
  13   1   5 1553.97 176.411   1
  13   1   5 1689.14 193.601   1
 -13   1  -5 1646.42 211.639   1
 -13  -1  -5 1870.81 178.106   1
  13  -1   5 1542.87 198.426   1
  10  -1  10 4734.77 274.160   1
  10   1  10 4188.91 320.126   1
  10  -1  10 4361.19 296.747   1
 -10   1 -10 4787.93 256.074   1
   7  -6 -14 4495.25 261.195   1
   7   6 -14 4562.79 282.873   1
  -7   6  14 4578.94 270.187   1
  -7  -6  14 4568.91 294.363   1
  -7   6  14 4104.66 249.085   1
   7   6 -14 4734.27 328.661   1
  -3   7  -9 91.8522 107.961   1
   3   7   9 -11.369 99.5163   1
   3  -7   9 -93.352 103.088   1
  -6  -8   2 14726.8 679.865   1
   6  -8  -2 16152.5 613.626   1
   6  -8  -2 16485.2 707.831   1
   6   8  -2 14942.4 680.781   1
  -6   8   2 15783.5 672.022   1
  -6   8   2 15441.1 682.103   1
   6   8  -2 14614.9 626.888   1
 -12  -1  18 4644.66 288.693   1
 -12  -1  18 4429.92 299.558   1
 -12   1  18 4701.61 311.307   1
  12  -1 -18 3905.24 302.480   1
 -12   1  18 4208.12 250.775   1
  12   1 -18 4519.91 292.205   1
  -5   7  -7 411.759 178.964   1
   5  -7   7 625.590 155.395   1
   5   7   7 934.442 125.739   1
   5  -7   7 587.537 180.205   1
   5   7   7 1256.00 187.425   1
   0   8  -7 13290.7 650.046   1
   0  -8  -7 13247.0 563.386   1
   0   8  -7 13114.4 596.025   1
   0   8   7 12396.0 557.984   1
   0  -8   7 13690.3 618.973   1
   0   8   7 13166.8 531.224   1
  15   3  -4 830.855 167.533   1
 -15   3   4 1569.85 211.300   1
 -15  -3   4 773.852 183.586   1
 -15   3   4 1638.72 156.539   1
  15  -3  -4 1341.04 212.101   1
  15  -3  -4 1642.06 206.874   1
  12  -5 -12 8725.95 432.514   1
 -12   5  12 9387.69 419.698   1
 -12  -5  12 8431.15 440.009   1
  12   5 -12 8104.43 421.125   1
  12   5 -12 7198.56 420.618   1
  14  -2   2 1.18519 125.396   1
  14   2   2 139.489 110.399   1
  14   2   2 147.082 102.728   1
 -14   2  -2 16.7536 136.462   1
  14  -2   2 -97.155 104.756   1
   1  -6  13 1797.49 201.680   1
  -1   6 -13 1682.76 240.386   1
   1   6  13 1560.28 209.565   1
 -14   0  16 1604.16 195.877   1
  14   0 -16 1659.33 204.893   1
 -14   0  16 1607.61 209.033   1
 -16   1   5 6341.11 319.153   1
  16  -1  -5 6028.29 351.086   1
 -16  -1   5 5867.83 334.962   1
 -16  -1   5 5873.14 326.664   1
  16  -1  -5 5959.52 351.421   1
 -16   1   5 6635.89 378.332   1
  16   1  -5 6076.51 382.868   1
   0  -7  11 2523.01 233.926   1
   0   7 -11 2504.37 249.976   1
   0   7  11 2698.98 254.021   1
   6   8  -4 203.066 127.769   1
  -6  -8   4 -4.8766 131.204   1
   6  -8  -4 89.8466 163.344   1
  -6   8   4 144.337 129.153   1
  -6   8   4 61.8375 134.083   1
   6   8  -4 170.566 143.148   1
 -15  -3  10 17443.4 738.877   1
 -15  -3  10 17386.7 756.903   1
  15   3 -10 17444.5 724.321   1
  15  -3 -10 15913.8 702.781   1
 -15   3  10 15122.5 665.247   1
 -15   3  10 15200.4 623.451   1
 -13   5   9 355.698 156.877   1
 -13  -5   9 551.832 166.529   1
  13   5  -9 385.412 158.109   1
  13  -5  -9 679.709 167.469   1
   6   3 -19 86.9229 138.383   1
  -6  -3  19 75.7104 117.441   1
  -6  -3  19 74.9856 113.845   1
  13   5  -3 1038.11 157.139   1
 -13   5   3 918.183 183.264   1
 -13  -5   3 633.159 191.882   1
  13  -5  -3 893.648 186.908   1
  13  -5  -3 619.499 177.854   1
  15  -1   0 4228.60 285.563   1
  15  -1   0 3338.04 253.783   1
 -15   1   0 3998.80 317.134   1
  15   1   0 3250.91 273.293   1
  15   1   0 3031.62 258.307   1
 -15  -1   0 3021.96 277.084   1
  14   2 -15 18.0544 112.438   1
 -14   2  15 67.8065 109.184   1
 -14   2  15 -74.070 121.044   1
 -14  -2  15 -63.413 101.879   1
  14  -2 -15 13.7956 100.208   1
 -14  -2  15 2.51545 106.607   1
  12  -5   1 657.822 167.876   1
 -12   5  -1 569.315 175.973   1
 -12  -5  -1 764.888 160.680   1
  12   5   1 592.301 153.770   1
  12  -5   1 679.061 212.502   1
  16   0  -4 1049.10 181.208   1
 -16   0   4 1279.54 187.149   1
  16   0  -4 1211.42 191.687   1
  -5  -3  19 500.679 133.284   1
   5   3 -19 378.844 163.870   1
  -5  -3  19 409.300 150.628   1
  16   1 -10 7182.54 374.257   1
 -16   1  10 6047.07 357.525   1
 -16  -1  10 6714.63 383.467   1
 -16   1  10 5763.16 352.039   1
  16  -1 -10 5515.34 359.044   1
   3  -1  17 2061.52 153.083   1
   3   1  17 1982.68 149.427   1
  12   1   7 395.853 152.754   1
 -12   1  -7 225.757 137.014   1
 -12  -1  -7 100.172 103.270   1
  12  -1   7 8.33657 143.844   1
  12   1   7 232.478 106.116   1
  12  -1   7 227.688 129.427   1
  -6   8   1 615.866 194.939   1
  -6  -8   1 844.897 170.360   1
   6  -8  -1 1098.93 159.815   1
  -6   8   1 1378.30 194.924   1
   6  -8  -1 704.942 199.583   1
   6   8  -1 831.924 202.281   1
   6   8  -1 956.943 210.552   1
  -1   6  14 3171.61 239.547   1
  -1  -6  14 2557.20 231.239   1
   1   6 -14 2614.82 247.495   1
  -4   1  20 8504.79 427.399   1
  -4  -1  20 8614.57 370.311   1
  -4  -1  20 8386.27 421.755   1
  -5  -4  18 936.137 198.932   1
  -5  -4  18 1270.80 192.221   1
   5   4 -18 867.239 171.562   1
 -10   3  18 7134.10 341.785   1
 -10  -3  18 6920.10 385.910   1
 -10  -3  18 6962.88 367.663   1
  10  -3 -18 7478.70 359.527   1
  10   3 -18 7309.43 394.163   1
  15  -2  -1 4782.09 326.183   1
  15   2  -1 4106.77 284.589   1
 -15   2   1 4840.96 325.488   1
  15   2  -1 3782.93 301.558   1
  15  -2  -1 5025.32 321.322   1
 -11   0  19 289.734 123.180   1
  11   0 -19 369.081 158.818   1
 -11   0  19 427.475 148.837   1
   8  -5 -16 6997.69 329.545   1
  -8   5  16 7121.17 322.976   1
  -8  -5  16 7492.50 392.294   1
  -8  -5  16 6804.54 371.627   1
   8   5 -16 6701.65 399.827   1
   5  -6  10 689.449 164.735   1
  -5   6 -10 508.518 191.896   1
  -6  -4  18 1765.12 197.241   1
   6   4 -18 1164.95 188.987   1
  -6  -4  18 1274.67 175.041   1
   9  -7  -8 708.649 190.348   1
   9   7  -8 692.339 180.293   1
  -9   7   8 524.083 147.094   1
  -9  -7   8 495.137 171.034   1
   9   7  -8 566.991 197.686   1
   5  -8   2 6.34789 110.874   1
   5  -8   2 76.8597 128.901   1
   5   8   2 66.9127 127.478   1
  -5   8  -2 93.0617 125.707   1
  -5   8  -2 28.6822 124.826   1
  -5  -8  -2 12.7619 117.200   1
   5   8   2 43.7487 109.819   1
  16   0 -11 26.6800 134.575   1
 -16   0  11 94.4122 136.057   1
 -16   0  11 221.805 127.368   1
   8  -1 -20 2314.90 206.744   1
  -8   1  20 2778.20 240.575   1
  -8  -1  20 2618.57 226.698   1
  -8  -1  20 2989.94 238.148   1
  -8   1  20 2611.21 214.700   1
   8   1 -20 2654.33 248.828   1
  15   1 -14 3088.93 266.319   1
  15  -1 -14 3022.87 263.942   1
 -15   1  14 3307.11 257.065   1
 -15   1  14 3161.16 252.705   1
 -15  -1  14 2955.66 303.245   1
 -15  -1  14 3401.11 256.296   1
   3  -4  15 1120.67 175.740   1
  -3   4 -15 1302.46 189.240   1
  -6   5 -11 2671.25 266.180   1
   6  -5  11 2551.63 259.353   1
   3  -8   5 1063.41 207.998   1
   3   8   5 1384.24 166.878   1
   3   8   5 827.883 196.730   1
  -3   8  -5 1549.34 196.013   1
  -3   8  -5 1566.09 203.867   1
  -3  -8  -5 790.742 174.731   1
   3  -8   5 1323.59 168.427   1
  -7  -3  19 46.5982 121.479   1
  -7  -3  19 136.957 117.767   1
   7   3 -19 5.20352 138.914   1
   5  -5  12 491.417 167.374   1
  -5   5 -12 151.447 167.662   1
   3  -3  16 62.0258 99.8178   1
  -3   3 -16 59.3606 115.674   1
  14   1   3 180.479 123.194   1
  14  -1   3 187.070 130.517   1
  14  -1   3 183.832 138.351   1
 -14   1  -3 64.3226 142.110   1
 -14  -1  -3 -42.882 126.284   1
  14   1   3 82.8872 125.712   1
   6  -8  -5 3021.96 248.583   1
  -6   8   5 2747.39 273.841   1
  -6  -8   5 2854.80 284.969   1
  -6   8   5 2308.05 235.837   1
   6   8  -5 2457.83 252.491   1
   6   8  -5 2371.66 232.995   1
   4   7 -12 641.306 189.393   1
  -4   7  12 497.231 168.558   1
  -4   7  12 979.940 120.511   1
  -4  -7  12 846.757 176.646   1
   4   7 -12 619.917 182.511   1
   4  -7 -12 525.648 141.089   1
   2   8   6 255.869 125.735   1
  -2  -8  -6 427.101 134.769   1
  -2   8  -6 336.911 161.473   1
  -2   8  -6 252.976 158.860   1
   2   8   6 518.631 161.439   1
   2  -8   6 329.193 170.328   1
   9   2  11 1332.99 195.549   1
   9  -2  11 1298.15 159.848   1
   9  -2  11 1699.67 212.131   1
  -9   2 -11 1404.28 162.982   1
 -11  -4  16 107.911 141.809   1
 -11   4  16 79.4060 117.865   1
 -11  -4  16 197.804 126.553   1
  11  -4 -16 82.4637 120.816   1
  11   4 -16 -16.969 138.487   1
 -11  -6  10 545.145 173.329   1
 -11   6  10 259.656 143.849   1
  11   6 -10 595.481 170.598   1
  11   6 -10 509.982 176.040   1
  11  -6 -10 238.545 182.530   1
   2  -7  10 548.931 160.913   1
   2   7  10 463.117 149.475   1
  -2   7 -10 245.293 165.260   1
  -3   7  12 3010.31 191.865   1
   3   7 -12 3140.08 273.159   1
   3   7 -12 2827.77 266.735   1
   3  -7 -12 2673.35 199.138   1
  -3   7  12 2742.59 217.205   1
  -3  -7  12 3149.60 261.063   1
  15   2 -13 921.911 191.806   1
 -15   2  13 380.754 191.550   1
 -15  -2  13 665.208 173.606   1
 -15   2  13 620.767 167.031   1
 -15  -2  13 593.422 178.676   1
  15  -2 -13 472.893 180.015   1
  -4   6 -11 -94.787 115.680   1
   4  -6  11 163.486 110.271   1
  -9   4  -9 1096.18 203.361   1
   9  -4   9 1391.69 213.854   1
   9   4   9 934.462 146.716   1
  -9  -6  13 2181.12 227.312   1
  -9   6  13 2270.15 213.427   1
   9   6 -13 1990.39 216.393   1
   9   6 -13 1738.52 252.821   1
   9  -6 -13 2414.90 234.596   1
   6  -6   9 1613.53 213.455   1
   6  -6   9 1652.10 197.999   1
  -6   6  -9 1734.70 208.492   1
   6  -7   6 1939.03 220.277   1
  -6   7  -6 1968.03 233.438   1
  -6  -7  -6 1806.90 171.504   1
   6   7   6 1602.64 157.808   1
   6   7   6 1312.86 221.089   1
   6  -7   6 1873.36 234.037   1
  -4  -4  18 2050.52 241.524   1
   4   4 -18 2482.39 244.162   1
  -4  -4  18 2369.94 226.107   1
  -8   7  10 1330.08 195.329   1
  -8  -7  10 1002.89 205.324   1
   8   7 -10 1603.94 209.035   1
   8   7 -10 853.029 215.637   1
   8  -7 -10 1397.17 197.322   1
  -8   7  10 1447.31 158.042   1
  -4  -3  19 1243.38 193.603   1
  -4  -3  19 1197.60 178.584   1
   4   3 -19 737.352 183.361   1
 -14   1  16 171.543 138.357   1
 -14  -1  16 105.835 140.680   1
  14   1 -16 144.014 137.883   1
  14  -1 -16 0.14370 129.109   1
 -14   1  16 117.442 120.623   1
 -14  -1  16 116.743 128.629   1
 -12   4  15 88.5009 119.371   1
 -12  -4  15 76.1594 116.585   1
  12   4 -15 60.1550 99.3567   1
 -12  -4  15 -50.579 134.486   1
  12  -4 -15 -6.7680 122.987   1
  12   4 -15 87.2752 130.048   1
  -3   0  20 -229.39 143.159   1
   9  -7   0 1956.82 233.240   1
  -9   7   0 2148.24 233.852   1
  -9  -7   0 2222.83 221.863   1
   9   7   0 1899.09 220.831   1
   9  -7   0 2298.08 245.417   1
  -7   7  11 89.3278 139.085   1
  -7   7  11 285.106 132.310   1
  -7  -7  11 221.293 159.734   1
   7   7 -11 250.124 160.027   1
   7  -7 -11 252.905 139.140   1
   7   7 -11 413.168 163.895   1
 -14  -4   2 2894.69 272.044   1
 -14   4   2 3198.22 274.730   1
  14  -4  -2 3057.49 266.928   1
  14   4  -2 2968.96 221.563   1
  14  -4  -2 2968.40 269.573   1
  -4   2 -16 4611.62 255.800   1
   4   2  16 3510.98 190.493   1
   4  -2  16 4841.03 252.723   1
  11   6   0 29.6991 129.517   1
  11  -6   0 135.743 155.251   1
 -11  -6   0 63.1127 128.430   1
 -11   6   0 133.904 146.634   1
  11  -6   0 319.996 137.356   1
   1  -5  15 392.421 159.676   1
   1   5  15 427.738 144.794   1
  -1   5 -15 377.728 167.240   1
 -14  -4  11 -99.895 135.509   1
  14  -4 -11 91.5146 143.784   1
 -14   4  11 82.8460 108.563   1
  14   4 -11 -6.6266 112.643   1
 -14  -4  11 9.92778 117.224   1
   2   8  -8 267.194 150.797   1
  -2   8   8 290.141 134.277   1
  -2   8   8 290.728 136.932   1
  -2  -8   8 193.113 158.574   1
   2  -8  -8 209.104 132.505   1
   2   8  -8 195.971 183.374   1
  -9   0  20 -77.153 127.419   1
   9   0 -20 208.509 125.439   1
  -9   0  20 103.603 120.946   1
 -16  -1   4 2740.28 235.840   1
  16  -1  -4 2125.26 236.983   1
  16   1  -4 2334.53 246.886   1
 -16   1   4 2881.07 257.861   1
  16   1  -4 2510.93 221.602   1
  16  -1  -4 2471.54 236.353   1
  10  -6 -12 5157.23 340.672   1
  10   6 -12 6116.74 378.873   1
  10   6 -12 6118.53 359.802   1
 -10   6  12 5078.31 328.465   1
 -10  -6  12 6314.18 367.262   1
   5   8  -7 5391.56 384.270   1
   5   8  -7 5408.79 344.358   1
  -5  -8   7 5082.39 354.738   1
   5  -8  -7 6127.40 362.408   1
  -5   8   7 6056.00 322.359   1
  -5   8   7 5845.65 336.708   1
   7   5  10 2526.07 179.909   1
  -7   5 -10 3573.08 256.057   1
   7  -5  10 3626.80 286.810   1
   7  -5  10 3209.87 276.977   1
   4  -8   4 92.0644 113.955   1
   4  -8   4 214.276 153.438   1
   4   8   4 48.9529 119.504   1
   4   8   4 105.645 143.730   1
  -4   8  -4 194.475 144.948   1
  -4   8  -4 259.090 140.872   1
  -4  -8  -4 241.915 126.938   1
  -7  -4  18 8517.12 438.859   1
  -7  -4  18 9063.96 413.909   1
   7   4 -18 8692.68 443.257   1
  10   2 -19 842.143 212.276   1
 -10  -2  19 1280.62 183.662   1
 -10   2  19 1110.90 165.597   1
 -10   2  19 1393.76 190.945   1
 -10  -2  19 1412.71 193.342   1
  10  -2 -19 1216.94 174.464   1
   3   8  -8 2166.06 248.310   1
   3   8  -8 2169.08 237.644   1
  -3  -8   8 2323.56 265.763   1
  -3   8   8 2404.42 226.669   1
  -3   8   8 2746.34 229.104   1
   3  -8  -8 2856.57 240.700   1
 -15  -3   3 6528.08 385.612   1
  15   3  -3 6795.13 340.782   1
  15  -3  -3 5540.28 367.927   1
 -15   3   3 5103.58 345.460   1
  15  -3  -3 5068.46 332.187   1
   6   8   0 10822.7 498.750   1
  -6  -8   0 10106.7 495.805   1
   6  -8   0 9831.73 508.201   1
   6  -8   0 10607.1 469.183   1
   6   8   0 10050.8 512.258   1
  -6   8   0 9900.91 488.235   1
  -5  -7  12 3981.65 292.072   1
   5   7 -12 4662.35 315.243   1
   5   7 -12 4077.63 307.826   1
   5  -7 -12 3566.03 229.095   1
  -5   7  12 3565.02 222.702   1
  -5   7  12 3444.88 270.836   1
 -12  -4  -4 11662.1 478.605   1
  12   4   4 11533.2 503.522   1
  12   4   4 12245.5 495.939   1
  12  -4   4 10762.4 551.258   1
 -12   4  -4 11093.1 513.164   1
  12  -4   4 11139.4 518.084   1
  11   5 -14 1367.81 173.626   1
 -11   5  14 1662.24 195.065   1
  11  -5 -14 1864.49 184.412   1
 -11  -5  14 798.432 195.789   1
 -11  -5  14 1039.55 214.362   1
  11   5 -14 894.511 224.705   1
 -10  -5  15 1077.50 200.535   1
 -10  -5  15 1925.29 212.326   1
 -10   5  15 1193.47 180.518   1
  10  -5 -15 1028.06 180.085   1
  10   5 -15 1082.59 221.930   1
  10   5 -15 1173.76 171.680   1
  11   0   9 297.532 105.821   1
  11   0   9 301.928 143.790   1
 -11   0  -9 306.561 129.098   1
 -11   1  19 196.230 133.230   1
 -11  -1  19 205.860 138.147   1
  11   1 -19 39.3283 153.534   1
 -11   1  19 200.674 133.503   1
 -11  -1  19 221.716 132.966   1
  11  -1 -19 154.690 137.420   1
   4  -5  13 1889.12 231.347   1
  -4   5 -13 1935.54 237.066   1
   2   7 -12 5182.13 345.023   1
  -2   7  12 6030.88 344.645   1
  -2  -7  12 5005.51 331.444   1
   2   7 -12 5396.57 352.022   1
   0   0  19 44.3988 90.6315   1
 -15   3  11 18421.3 768.319   1
 -15  -3  11 17969.7 758.288   1
  15  -3 -11 19012.1 792.826   1
 -15   3  11 17134.3 704.799   1
 -15  -3  11 18558.6 796.142   1
  15   3 -11 17585.5 759.713   1
 -16   1  11 105.189 144.560   1
 -16  -1  11 113.195 151.893   1
 -16   1  11 159.178 140.016   1
  16  -1 -11 151.418 153.059   1
 -16  -1  11 227.268 148.379   1
  16   1 -11 182.292 143.999   1
   1   8   7 362.066 151.311   1
   1   8   7 316.320 137.888   1
   1  -8   7 283.425 159.446   1
  -1  -8  -7 313.106 126.918   1
  -1   8  -7 84.1768 156.348   1
  -1   8  -7 277.307 186.826   1
  11   4   6 1391.23 170.247   1
  11   4   6 1994.92 161.260   1
  11  -4   6 1629.40 230.417   1
 -11   4  -6 1716.54 233.281   1
  11  -4   6 1360.67 193.923   1
   1  -2  18 165.514 119.694   1
   1  -2  18 184.628 103.902   1
  -1   2 -18 210.662 108.936   1
   1   2  18 200.768 103.528   1
 -13  -5  10 2975.75 257.141   1
  13  -5 -10 3274.25 309.628   1
 -13   5  10 3111.25 247.864   1
  13   5 -10 2848.72 251.643   1
  14  -3   1 319.591 132.025   1
  14   3   1 45.8041 129.404   1
  14  -3   1 197.725 160.732   1
 -14  -3  -1 117.786 137.540   1
 -14   3  -1 137.922 141.110   1
  14   3   1 144.656 146.813   1
 -13  -5   2 -3.4325 129.631   1
  13   5  -2 153.362 129.273   1
 -13   5   2 -47.510 125.312   1
  13  -5  -2 164.295 129.029   1
  13  -5  -2 59.2435 124.234   1
  -1  -5  16 90.5649 104.196   1
   1   5 -16 -12.500 112.032   1
  -1   5  16 66.4641 93.4775   1
  -1  -8   8 736.443 185.597   1
   1   8  -8 831.861 223.988   1
  -1   8   8 498.889 142.136   1
  -1   8   8 716.672 157.770   1
   1   8  -8 820.298 185.797   1
   1  -8  -8 513.379 146.486   1
  14  -3 -14 2256.25 227.438   1
 -14   3  14 2053.98 213.214   1
 -14   3  14 2399.33 264.795   1
  14   3 -14 2488.50 255.814   1
 -14  -3  14 3093.91 244.993   1
 -14  -3  14 2376.39 255.367   1
   3  -6  12 2357.65 218.718   1
  -3   6 -12 2418.18 268.559   1
   3   6  12 2622.56 261.228   1
 -10   3  -9 91.8892 131.668   1
  10   3   9 100.564 124.673   1
  10  -3   9 132.414 129.036   1
  10  -3   9 128.820 141.981   1
 -16  -2   7 728.351 191.453   1
  16  -2  -7 1236.37 184.749   1
  16   2  -7 603.880 175.609   1
 -16   2   7 895.979 187.651   1
 -16   2   7 710.701 148.640   1
 -16  -2   7 698.675 176.415   1
 -16   0   3 56.3223 107.749   1
  16   0  -3 32.3726 91.2357   1
  16   0  -3 -59.549 85.0201   1
 -16  -2   8 192.823 174.597   1
 -16  -2   8 419.169 175.838   1
  16  -2  -8 428.982 165.857   1
  16   2  -8 470.690 160.290   1
 -16   2   8 441.757 146.335   1
 -16   2   8 501.025 172.911   1
   7   0  14 -76.800 121.553   1
  -6   8   6 464.732 143.628   1
  -6   8   6 543.856 155.710   1
  -6  -8   6 269.629 161.911   1
   6  -8  -6 383.754 145.780   1
   6   8  -6 228.747 160.991   1
   6   8  -6 168.618 157.563   1
  -8  -3  19 2560.68 237.237   1
   8   3 -19 2389.47 270.895   1
   8  -3 -19 3185.85 213.236   1
  -8  -3  19 2599.73 249.302   1
  -8   3  19 3371.71 207.578   1
   7  -6   8 548.889 198.862   1
   7  -6   8 368.932 183.369   1
  -7   6  -8 592.173 168.173   1
  -8   6  14 1834.83 176.572   1
  -8   6  14 1644.44 172.197   1
   8   6 -14 1767.24 240.849   1
   8   6 -14 1587.93 195.385   1
  -8  -6  14 1901.35 221.724   1
   8  -6 -14 1882.51 188.893   1
  10   6   3 146.101 130.581   1
 -10   6  -3 284.219 148.213   1
 -10  -6  -3 118.318 110.901   1
  10  -6   3 179.175 142.836   1
  10  -6   3 58.0348 163.704   1
  -3   1  20 2154.09 212.549   1
  -3  -1  20 2688.63 225.201   1
  -3  -1  20 2168.75 173.294   1
 -10  -4  17 221.616 147.091   1
 -10  -4  17 220.377 156.856   1
 -10   4  17 390.830 133.045   1
  10   4 -17 288.589 162.396   1
  10  -4 -17 553.851 136.717   1
   4  -8  -8 178.077 143.797   1
   4   8  -8 210.258 147.797   1
  -4   8   8 188.570 138.404   1
  -4   8   8 209.919 137.524   1
  -4  -8   8 -13.016 153.027   1
   4   8  -8 364.810 147.108   1
  -8   7  -3 538.272 187.177   1
   8  -7   3 536.891 179.542   1
  -8  -7  -3 474.879 142.318   1
   8   7   3 463.038 150.886   1
   8  -7   3 640.101 175.500   1
   2   0  18 1051.99 132.792   1
  11   5   4 188.067 104.961   1
  11   5   4 157.254 110.966   1
  11  -5   4 377.748 177.263   1
 -11  -5  -4 238.510 112.109   1
 -11   5  -4 457.688 153.869   1
  11  -5   4 380.545 194.192   1
   9  -6   5 404.986 145.214   1
   9  -6   5 230.227 164.983   1
  -9  -6  -5 29.2562 106.994   1
  -9   6  -5 257.992 182.786   1
   9   6   5 72.4075 111.378   1
  -1   2  19 4414.28 270.611   1
  -1  -2  19 4563.44 260.085   1
  -1  -2  19 4335.79 270.324   1
   1   2 -19 4534.91 264.972   1
   6   2 -20 192.630 129.986   1
  -6   2  20 108.869 113.046   1
  -6  -2  20 -52.167 109.766   1
  -6  -2  20 106.263 113.169   1
  -3  -4  18 321.517 148.164   1
   3   4 -18 295.405 151.773   1
  -3  -4  18 248.843 143.834   1
 -16  -2   6 3180.01 236.213   1
  16  -2  -6 2477.71 271.348   1
 -16   2   6 3030.68 229.612   1
 -16   2   6 3054.65 269.522   1
 -16  -2   6 3356.98 312.312   1
  16   2  -6 2724.51 246.072   1
  16  -2  -6 2738.58 250.836   1
  -9   1  20 1333.70 160.262   1
  -9  -1  20 1085.15 184.823   1
   9  -1 -20 1071.94 169.378   1
   9   1 -20 1588.00 208.072   1
  -9  -1  20 1657.88 189.716   1
  -9   1  20 1242.21 186.694   1
 -12   6   6 3284.23 249.152   1
  12   6  -6 3543.76 294.944   1
  12  -6  -6 3429.66 282.069   1
  12  -6  -6 2898.88 274.776   1
 -12  -6   6 3084.64 257.341   1
 -12   6   5 3971.51 289.118   1
  12   6  -5 4498.26 282.324   1
 -12  -6   5 4432.61 328.876   1
  12  -6  -5 3730.72 309.110   1
  12  -6  -5 3939.29 304.677   1
  16   0 -12 223.107 145.703   1
 -16   0  12 162.348 159.576   1
 -16   0  12 209.687 138.158   1
   8   0  13 156.904 129.375   1
  15   0   1 3647.90 281.033   1
  15   0   1 3780.04 270.350   1
 -15   0  -1 3077.36 279.608   1
   9   7  -9 171.207 133.629   1
   9   7  -9 83.7902 124.285   1
   9  -7  -9 81.4018 114.137   1
  -9   7   9 120.220 129.850   1
  -9  -7   9 -47.407 132.824   1
 -16   2   9 15779.1 673.050   1
  16   2  -9 17108.8 727.319   1
 -16   2   9 14507.4 664.649   1
  16  -2  -9 16656.4 724.632   1
 -16  -2   9 16805.5 727.906   1
 -16  -2   9 17212.5 735.558   1
   0   4 -17 1827.00 207.083   1
   0  -4  17 1780.48 200.719   1
   0   4  17 1414.94 179.570   1
  -3  -3  19 279.761 145.427   1
   3   3 -19 147.309 148.454   1
  -3  -3  19 515.867 144.385   1
  11   1   9 1535.69 151.806   1
  11  -1   9 1333.35 168.794   1
  11  -1   9 1236.25 204.571   1
  11   1   9 1830.76 193.860   1
 -11   1  -9 1351.07 169.524   1
  -5   2  20 541.407 137.002   1
  -5  -2  20 310.528 132.978   1
  -5  -2  20 443.194 159.120   1
   5   2 -20 278.831 149.373   1
   4   6 -15 6448.72 391.459   1
  -4  -6  15 7233.32 382.861   1
  -4   6  15 8019.98 374.615   1
   1   7  11 45.0959 119.379   1
  -1   7 -11 70.4126 141.918   1
   1  -7  11 197.298 134.885   1
   5   6 -15 106.122 128.167   1
  -5  -6  15 72.8241 122.504   1
   5   6 -15 66.6650 107.992   1
  -5   6  15 -25.278 101.404   1
  10   5   6 1385.85 153.149   1
 -10   5  -6 1352.07 199.038   1
  10  -5   6 1132.25 208.098   1
   0  -1  19 -20.831 78.0670   1
   0   1  19 4.86553 77.9491   1
  -7  -2  20 3577.59 288.285   1
  -7   2  20 3830.09 270.670   1
   7   2 -20 3546.93 277.618   1
  -7  -2  20 3393.96 257.445   1
  -5  -8  -3 599.040 158.828   1
  -5   8  -3 530.613 170.100   1
   5  -8   3 591.843 185.285   1
   5   8   3 488.045 143.139   1
   5  -8   3 372.518 139.319   1
   8  -5   9 585.097 184.696   1
   8  -5   9 457.131 151.241   1
  -8   5  -9 784.006 167.027   1
   8   5   9 342.693 110.402   1
   6  -7 -12 360.401 128.432   1
  -6  -7  12 375.302 154.622   1
  -6   7  12 337.520 148.905   1
  -6   7  12 194.639 118.349   1
   6   7 -12 112.368 155.741   1
  12  -6  -7 78.6236 139.998   1
 -12   6   7 68.8548 124.980   1
 -12  -6   7 115.420 131.561   1
  12   6  -7 115.141 131.736   1
   7  -7   5 44.5311 145.578   1
   7   7   5 122.804 100.654   1
  -7  -7  -5 51.2611 114.983   1
   7  -7   5 111.494 135.311   1
  -7   7  -5 275.337 145.164   1
   8  -4 -18 809.113 144.571   1
   8   4 -18 774.959 183.975   1
  -8  -4  18 609.677 182.206   1
  -8  -4  18 1240.48 164.913   1
  -8   4  18 714.444 136.206   1
  13   2 -17 75.2212 126.396   1
  13  -2 -17 165.998 113.466   1
 -13  -2  17 31.4778 114.504   1
 -13  -2  17 -4.7435 130.522   1
 -13   2  17 54.0624 101.346   1
 -13   2  17 -64.586 128.462   1
 -13   4  14 -129.50 120.010   1
  13  -4 -14 12.7240 99.8601   1
  13   4 -14 -10.678 121.853   1
  13   4 -14 95.3007 104.607   1
 -13  -4  14 -92.950 112.823   1
 -12  -6   4 49.4451 118.179   1
  12  -6  -4 16.2555 110.631   1
  12   6  -4 -85.099 96.0129   1
 -12   6   4 8.17951 103.680   1
  12  -6  -4 97.0441 116.441   1
   6  -8   1 976.070 147.396   1
   6   8   1 762.432 204.935   1
   6  -8   1 791.842 203.576   1
  -6   8  -1 1179.08 186.719   1
  -6  -8  -1 715.244 183.633   1
   6   8   1 450.371 169.521   1
   0   3 -18 36.2027 101.509   1
   0  -3  18 75.1148 99.7153   1
   0  -3  18 41.2096 101.287   1
  13  -4   2 246.907 145.813   1
  13   4   2 114.073 131.691   1
  13   4   2 138.883 126.708   1
 -13  -4  -2 126.638 129.116   1
 -13   4  -2 249.192 172.233   1
  13  -4   2 100.108 163.099   1
  13  -2   5 980.104 191.669   1
  13  -2   5 1542.49 198.026   1
  13   2   5 1388.76 204.917   1
 -13   2  -5 843.806 200.207   1
  13   2   5 1167.33 152.348   1
 -15   0  15 1685.19 200.472   1
 -15   0  15 1351.09 200.701   1
  15   0 -15 1415.04 213.366   1
  10  -2  10 1295.17 178.620   1
  10  -2  10 1515.47 201.418   1
 -10   2 -10 1390.68 170.065   1
  10   2  10 1270.36 200.948   1
   0   6 -14 127.152 128.465   1
   0   6  14 -9.6613 123.020   1
   0  -6  14 149.871 123.673   1
  10  -7  -5 343.024 161.900   1
  10   7  -5 523.713 152.891   1
  10  -7  -5 398.474 158.103   1
  10   7  -5 493.543 213.706   1
 -10   7   5 406.543 165.031   1
 -10  -7   5 475.011 151.669   1
  12   3 -17 720.763 186.798   1
 -12  -3  17 882.058 192.844   1
 -12  -3  17 809.861 206.588   1
 -12   3  17 813.370 167.904   1
 -12   3  17 574.314 186.468   1
  12  -3 -17 666.256 179.014   1
 -12  -2  18 1523.76 219.558   1
 -12   2  18 1567.80 217.868   1
 -12  -2  18 1589.89 186.441   1
  12  -2 -18 1568.92 218.439   1
  12   2 -18 1484.64 209.074   1
  -1   7  12 127.350 122.192   1
  -1  -7  12 -100.61 113.766   1
   1   7 -12 74.0766 126.312   1
 -10  -7   4 267.904 138.708   1
  10  -7  -4 253.942 147.219   1
  10  -7  -4 433.572 157.112   1
  10   7  -4 68.3766 163.407   1
 -10   7   4 293.085 151.882   1
  10   7  -4 195.743 163.690   1
  16   1  -3 1710.09 208.282   1
  16  -1  -3 1528.09 215.103   1
  16  -1  -3 1385.71 201.051   1
  16   1  -3 1816.35 196.530   1
 -16   1   3 1119.14 205.695   1
 -16  -1   3 1489.59 203.309   1
  12  -5 -13 4092.95 291.053   1
 -12   5  13 4262.52 315.240   1
 -12  -5  13 4684.72 342.870   1
 -12  -5  13 4400.04 314.410   1
  12   5 -13 4284.70 286.182   1
   7   1  14 231.916 133.705   1
  -3   5 -14 5633.34 363.685   1
   3  -5  14 5517.86 296.701   1
  -9   5  16 443.706 124.546   1
   9   5 -16 494.349 179.653   1
  -9  -5  16 515.016 157.997   1
  -9  -5  16 307.414 157.261   1
   9  -5 -16 316.713 132.172   1
   2  -4  16 2604.15 219.757   1
  -2   4 -16 1894.36 222.458   1
  16  -2  -5 4901.49 317.992   1
  16   2  -5 5760.75 323.784   1
 -16   2   5 4745.83 339.716   1
 -16   2   5 4412.99 263.136   1
 -16  -2   5 5772.60 343.964   1
  16  -2  -5 4631.19 339.499   1
   9  -7   1 2893.60 264.119   1
   9   7   1 3054.42 250.064   1
  -9  -7  -1 2653.93 248.665   1
  -9   7  -1 3170.87 279.663   1
   9  -7   1 3185.80 270.228   1
   0  -8  -8 434.151 137.379   1
   0  -8   8 362.636 168.051   1
   0   8   8 509.199 131.851   1
   0   8  -8 360.545 176.142   1
   0   8  -8 410.546 201.058   1
   0   8   8 668.040 187.617   1
  -5   5  17 308.051 118.514   1
  -5  -5  17 241.024 138.117   1
  -5  -5  17 473.668 168.800   1
   2   1  18 12.2844 72.3913   1
   2  -1  18 44.2288 80.6608   1
  11  -6 -11 2809.09 240.808   1
  11   6 -11 3228.35 281.757   1
 -11  -6  11 3431.12 287.278   1
 -11   6  11 3029.50 242.881   1
  11   6 -11 3811.46 294.401   1
  -3  -6  15 203.469 115.707   1
   3   6 -15 2.09665 125.313   1
  -3   6  15 -25.026 102.782   1
  14  -4  -1 1523.66 232.137   1
  14  -4  -1 1460.75 212.054   1
  14   4  -1 1987.73 212.420   1
 -14   4   1 1484.65 227.822   1
 -14  -4   1 1509.71 219.293   1
  15   2   0 6595.25 353.678   1
  15  -2   0 6007.87 380.648   1
  15  -2   0 5113.40 331.533   1
  15   2   0 6468.86 376.300   1
 -15   2   0 5743.61 359.537   1
 -15   3   2 1087.43 226.104   1
  15   3  -2 1735.41 219.239   1
  15  -3  -2 1344.65 213.326   1
  15  -3  -2 1391.11 228.420   1
 -15  -3   2 1257.45 194.801   1
 -10  -7   6 590.868 172.636   1
 -10   7   6 546.411 167.990   1
  10  -7  -6 582.698 175.682   1
  10  -7  -6 515.440 165.122   1
  10   7  -6 383.001 183.044   1
  10   7  -6 1248.97 167.298   1
  12  -5   2 13.2201 138.059   1
 -12   5  -2 28.4278 135.570   1
  12  -5   2 166.295 138.022   1
 -12  -5  -2 188.228 120.666   1
  12   5   2 102.788 116.615   1
  -6   6  15 2641.30 191.907   1
  -6   6  15 2549.68 208.860   1
   6   6 -15 2826.28 282.030   1
   6   6 -15 3015.68 257.613   1
   6  -6 -15 2501.35 209.985   1
  -6  -6  15 2967.61 253.246   1
 -16   2  10 723.140 171.795   1
 -16  -2  10 474.140 159.551   1
 -16  -2  10 301.484 183.729   1
  16   2 -10 364.751 176.771   1
  16  -2 -10 625.895 186.900   1
 -16   2  10 539.201 175.939   1
   3   2  17 1922.43 145.617   1
   3  -2  17 1832.62 165.468   1
  12   3   6 191.462 111.840   1
 -12   3  -6 292.695 131.901   1
 -12  -3  -6 121.277 113.685   1
  12   3   6 71.8792 133.458   1
  12  -3   6 330.611 155.328   1
  12  -3   6 364.190 163.759   1
 -13  -3  16 240.940 137.822   1
  13   3 -16 294.067 158.671   1
  13  -3 -16 143.058 160.554   1
 -13   3  16 236.005 148.961   1
 -13  -3  16 215.846 161.557   1
 -13   3  16 309.015 155.906   1
  -2   0  20 1735.86 193.828   1
 -16  -1  12 2557.68 270.310   1
 -16   1  12 2609.89 234.977   1
  16  -1 -12 2633.62 256.784   1
 -16   1  12 2131.11 218.171   1
 -16  -1  12 2333.88 242.340   1
  16   1 -12 2477.35 256.498   1
   8  -1  13 -6.9518 71.8294   1
   8  -1  13 -69.880 108.846   1
   8   1  13 47.1434 114.391   1
  15   1   1 12694.7 559.751   1
  15  -1   1 13176.4 597.995   1
 -15   1  -1 13344.6 586.031   1
 -15  -1  -1 13727.8 611.343   1
  15  -1   1 13165.9 562.666   1
  15   1   1 13314.2 590.440   1
  -2   3 -17 74.0868 126.877   1
   2  -3  17 143.359 104.994   1
  10   4   8 5800.93 313.018   1
  10  -4   8 6038.47 375.128   1
  10  -4   8 6497.79 373.410   1
 -10   4  -8 6056.27 377.234   1
  14  -4 -12 317.695 195.470   1
  14   4 -12 302.259 155.964   1
 -14   4  12 295.548 154.419   1
 -14  -4  12 291.040 198.147   1
 -14  -4  12 422.988 167.502   1
   6   5 -17 1531.54 247.161   1
  -6  -5  17 1514.85 194.035   1
  -6   5  17 1046.85 138.658   1
  -6  -5  17 1444.89 200.663   1
  12  -2   7 3919.62 275.302   1
  12   2   7 4527.52 249.542   1
 -12   2  -7 4492.49 297.734   1
 -12  -2  -7 4570.66 262.573   1
  12   2   7 5217.80 320.619   1
  12  -2   7 3890.88 297.720   1
 -10   7   3 617.348 177.767   1
  10   7  -3 807.282 189.701   1
  10  -7  -3 681.565 179.151   1
 -10  -7   3 796.640 161.696   1
  10  -7  -3 706.437 182.173   1
  10   7  -3 662.689 200.823   1
 -13  -3  -4 3382.00 231.303   1
  13   3   4 3427.91 228.637   1
  13   3   4 3304.15 255.025   1
 -13   3  -4 3479.05 300.475   1
  13  -3   4 3386.55 250.792   1
  13  -3   4 3096.13 287.390   1
   9   0  12 268.244 142.315   1
  -4   5  17 968.473 143.193   1
   4   5 -17 802.665 185.484   1
  -4  -5  17 1457.29 205.281   1
  -7   8   3 -22.783 131.412   1
   7  -8  -3 84.2270 138.565   1
   7   8  -3 135.257 141.617   1
  -7  -8   3 23.9836 121.887   1
  -4  -2  20 520.475 136.102   1
   4   2 -20 924.532 145.610   1
  -4  -2  20 628.152 166.217   1
  -4   2  20 371.952 171.932   1
  -5   8   8 6420.76 353.335   1
   5   8  -8 6049.31 413.445   1
   5   8  -8 5980.05 366.973   1
   5  -8  -8 6537.24 377.433   1
  -5  -8   8 6572.48 390.153   1
  -5   8   8 6010.69 384.317   1
 -12  -6   8 4535.73 303.889   1
 -12   6   8 4031.88 291.899   1
  12   6  -8 4286.33 304.374   1
  12  -6  -8 3615.73 297.817   1
  15  -3 -12 7494.57 415.079   1
 -15  -3  12 6324.32 393.509   1
  15   3 -12 5036.04 362.972   1
 -15   3  12 6956.30 406.890   1
 -15   3  12 6822.69 381.872   1
 -15  -3  12 6059.68 381.499   1
  -6  -8   7 266.993 148.238   1
  -6   8   7 4.37209 121.201   1
   6   8  -7 152.784 168.937   1
   6   8  -7 110.791 139.101   1
   6  -8  -7 54.7950 124.582   1
  -6   8   7 95.0312 140.825   1
   2   6  13 94.9215 155.596   1
  -2   6 -13 285.562 144.341   1
   2  -6  13 435.045 142.815   1
  11  -6   1 653.240 175.161   1
  11  -6   1 650.686 167.586   1
  11   6   1 452.699 152.989   1
 -11  -6  -1 633.246 160.938   1
 -11   6  -1 643.036 178.757   1
 -13   5  11 177.243 137.290   1
  13  -5 -11 140.880 176.604   1
  13   5 -11 345.426 155.320   1
 -13  -5  11 218.192 151.253   1
  -7   8   4 1385.70 203.076   1
   7  -8  -4 1664.41 254.874   1
   7   8  -4 1392.04 222.712   1
  -7  -8   4 987.439 199.220   1
  -7   8   4 1365.94 203.299   1
 -13   0  18 7.09194 115.420   1
 -13   0  18 12.2219 93.9558   1
  13   0 -18 37.7443 125.603   1
 -13  -5   1 184.740 139.817   1
  13  -5  -1 213.754 146.250   1
  13  -5  -1 -14.685 144.663   1
  13   5  -1 211.856 140.246   1
 -13   5   1 266.871 144.203   1
 -10   0  20 528.820 175.716   1
 -10   0  20 1167.09 166.833   1
  10   0 -20 794.887 177.041   1
  -8  -2  20 1808.11 210.327   1
  -8  -2  20 2221.74 216.165   1
  -8   2  20 1961.81 217.226   1
   8  -2 -20 1752.89 189.258   1
   8   2 -20 2359.54 242.900   1
  -8   2  20 2350.38 187.105   1
  12   6  -3 211.858 123.893   1
  12  -6  -3 10.5830 112.276   1
 -12   6   3 -27.929 116.866   1
  12  -6  -3 -18.437 127.908   1
 -12  -6   3 13.1801 107.779   1
  15  -2 -14 6138.90 373.223   1
 -15   2  14 6078.57 352.354   1
 -15  -2  14 5972.77 363.249   1
 -15  -2  14 6204.61 360.126   1
  15   2 -14 5820.58 369.292   1
 -15   2  14 6316.82 354.715   1
  -3  -8  -6 268.363 126.454   1
  -3   8  -6 339.149 159.624   1
   3   8   6 404.840 156.940   1
   3  -8   6 236.339 154.706   1
   3  -8   6 237.126 137.294   1
  -3   8  -6 317.868 155.783   1
   3   8   6 127.986 115.170   1
  13   0   6 -31.419 97.0654   1
  13   0   6 49.3330 92.2962   1
 -13   0  -6 -32.273 89.6817   1
  -8   6  -7 149.534 149.044   1
   8  -6   7 194.211 142.036   1
   8  -6   7 234.333 144.137   1
   7  -8  -2 1401.78 180.563   1
   7  -8  -2 1387.18 219.589   1
   7   8  -2 973.434 219.967   1
  -7   8   2 1516.55 217.027   1
  -7  -8   2 1196.39 190.782   1
 -14   2  -3 4290.23 323.281   1
  14   2   3 4668.61 312.740   1
  14   2   3 4149.32 271.380   1
  14  -2   3 4340.34 310.460   1
  14  -2   3 4311.29 308.602   1
  15   1 -15 334.996 174.907   1
 -15  -1  15 388.096 168.934   1
 -15   1  15 536.860 163.814   1
 -15   1  15 509.570 156.399   1
 -15  -1  15 684.564 164.576   1
  15  -1 -15 437.609 172.019   1
   9   3 -19 469.199 200.390   1
   9  -3 -19 440.260 149.938   1
  -9  -3  19 583.565 183.172   1
  -9  -3  19 547.131 166.486   1
  -9   3  19 464.095 126.209   1
  11   3 -18 2999.26 318.292   1
 -11  -3  18 2924.05 276.703   1
 -11   3  18 4053.67 273.919   1
 -11  -3  18 3693.58 265.811   1
 -11   3  18 4182.12 310.592   1
  11  -3 -18 4247.79 281.567   1
   4   7   9 1071.29 196.951   1
  -4   7  -9 1467.31 207.493   1
   4  -7   9 1438.58 197.798   1
  -8   7  11 812.792 167.955   1
   8   7 -11 696.468 192.381   1
   8   7 -11 606.766 199.701   1
   8  -7 -11 874.107 178.522   1
  -8   7  11 859.999 175.750   1
  -8  -7  11 692.327 193.250   1
  -7   3 -13 231.119 125.543   1
   7  -3  13 236.321 133.116   1
   7   3  13 261.974 132.496   1
   2   8   7 306.902 141.386   1
   2  -8   7 542.715 164.282   1
  -2   8  -7 217.834 159.791   1
  -2  -8  -7 396.042 127.253   1
  -2   8  -7 459.541 168.391   1
   2   8   7 223.264 159.085   1
  -6   3 -14 2483.77 220.484   1
   6   3  14 2669.79 218.474   1
   6  -3  14 2654.90 209.043   1
  16   0  -2 147.123 134.747   1
  16   0  -2 46.0215 120.992   1
 -16   0   2 176.899 155.670   1
   4  -8   5 824.853 182.151   1
   4  -8   5 557.609 153.705   1
  -4  -8  -5 500.377 142.545   1
  -4   8  -5 461.354 173.736   1
   4   8   5 435.336 137.945   1
   4   8   5 276.242 176.418   1
 -14   0  -4 12997.4 563.618   1
  14   0   4 12518.3 617.290   1
  14   0   4 12390.1 538.473   1
  10  -7  -7 158.429 144.772   1
  10   7  -7 143.643 145.334   1
 -10   7   7 159.259 129.420   1
 -10  -7   7 215.653 146.103   1
  10   7  -7 270.806 148.012   1
   5  -7   8 3238.09 274.785   1
   5   7   8 3572.38 281.462   1
  -5   7  -8 3453.74 279.232   1
   5  -7   8 3098.99 252.143   1
 -14  -2  16 2043.98 224.869   1
  14   2 -16 2089.91 245.750   1
  14  -2 -16 2091.54 226.798   1
 -14   2  16 2234.54 207.332   1
 -14   2  16 2116.66 238.524   1
 -14  -2  16 2189.30 250.728   1
  -7  -8   5 1070.45 193.545   1
  -7   8   5 1299.93 190.453   1
  -7   8   5 966.709 180.077   1
   7   8  -5 962.795 206.584   1
   7  -8  -5 990.728 192.160   1
   2   4 -18 825.118 178.457   1
  -2  -4  18 849.460 166.891   1
  -2  -4  18 687.130 166.200   1
   6   4  13 8073.52 359.305   1
  -6   4 -13 8444.55 449.223   1
   6  -4  13 7863.31 414.784   1
  14   0 -17 165.643 107.810   1
 -14   0  17 -49.193 98.8743   1
 -14   0  17 -76.058 116.676   1
  10   7  -2 17.9929 139.402   1
 -10   7   2 23.5085 140.591   1
 -10  -7   2 144.055 112.565   1
  10  -7  -2 171.185 135.403   1
  16   2  -4 6017.43 335.700   1
  16  -2  -4 5772.23 382.529   1
 -16  -2   4 5433.44 343.585   1
 -16   2   4 6263.79 382.346   1
  16  -2  -4 5843.66 357.421   1
   7  -4  12 3344.52 262.695   1
   7   4  12 3083.33 233.144   1
   7  -4  12 3020.91 285.648   1
  -7   4 -12 2852.81 277.176   1
  -7   5  17 6052.26 278.617   1
  -7  -5  17 5111.78 315.673   1
  -7  -5  17 5830.79 348.680   1
   7   5 -17 5524.97 353.954   1
  -2   1  20 992.280 159.949   1
  -2  -1  20 746.519 157.030   1
  -3   8   9 1387.60 178.868   1
   3   8  -9 1610.44 202.571   1
   3   8  -9 677.544 193.805   1
   3  -8  -9 1335.32 183.044   1
  -3  -8   9 751.561 209.454   1
  -3   8   9 589.412 174.662   1
  12   0 -19 68.1722 135.910   1
 -12   0  19 154.788 124.155   1
 -12   0  19 -98.802 123.554   1
   9  -1  12 151.280 102.007   1
   9  -1  12 1.17599 143.821   1
   9   1  12 210.876 115.946   1
   3  -7  10 402.071 151.461   1
  -3   7 -10 213.814 154.072   1
   3   7  10 199.988 143.952   1
   2   6 -15 574.184 167.818   1
  -2   6  15 436.259 145.441   1
  -2  -6  15 447.285 188.745   1
   3   5 -17 124.676 145.414   1
  -3   5  17 61.4249 99.7720   1
  -3  -5  17 108.435 115.130   1
  -2  -8   9 665.993 191.583   1
  -2   8   9 645.860 151.599   1
  -2   8   9 628.244 162.487   1
   2   8  -9 642.766 187.861   1
   2  -8  -9 824.499 152.412   1
   2   8  -9 755.470 183.443   1
 -16   0  13 117.817 119.053   1
 -16   0  13 -63.353 138.131   1
  16   0 -13 46.3729 124.280   1
   7  -8  -1 1546.14 226.042   1
   7   8  -1 1090.59 224.065   1
   7  -8  -1 1293.68 187.723   1
  -7   8   1 1363.86 214.802   1
   7   8  -1 1000.84 208.024   1
  -7  -8   1 979.080 214.351   1
   0   5 -16 97.4692 147.232   1
   0  -5  16 89.7626 136.516   1
   0   5  16 109.486 105.654   1
   2   3 -19 3818.23 256.826   1
  -2  -3  19 3717.19 265.940   1
  -2  -3  19 3751.88 257.512   1
  11  -2 -19 2982.79 251.308   1
  11   2 -19 2298.47 234.205   1
 -11   2  19 2762.60 255.977   1
 -11  -2  19 3047.56 254.497   1
 -11  -2  19 2675.96 226.564   1
 -11   2  19 2795.81 228.766   1
   8  -3  12 1127.13 175.810   1
   8   3  12 814.835 177.382   1
   8  -3  12 974.447 216.942   1
  -8   3 -12 1602.52 179.258   1
  -6  -8  -2 1404.54 208.144   1
  -6   8  -2 1032.47 216.320   1
   6  -8   2 1556.96 233.767   1
   6   8   2 1872.44 189.758   1
   6   8   2 1486.25 225.011   1
   6  -8   2 1325.10 180.762   1
  -7   6  15 1184.90 153.298   1
  -7   6  15 1101.03 164.290   1
   7   6 -15 844.136 212.095   1
   7  -6 -15 1085.44 152.738   1
   7   6 -15 827.328 190.145   1
  -7  -6  15 1287.88 197.711   1
 -13   1  18 615.173 168.920   1
  13  -1 -18 477.696 155.541   1
 -13  -1  18 579.808 183.652   1
  13   1 -18 452.705 163.969   1
 -13  -1  18 434.879 172.736   1
 -13   1  18 400.135 171.034   1
   9   5   8 21.8105 87.9179   1
  -9   5  -8 27.3555 116.818   1
   9  -5   8 30.0262 132.194   1
   9  -5   8 123.483 114.042   1
  16   2 -11 9788.45 490.823   1
  16  -2 -11 9606.93 488.092   1
 -16   2  11 8775.61 462.845   1
 -16  -2  11 10328.2 524.966   1
 -16   2  11 10002.0 487.040   1
 -16  -2  11 10526.4 518.927   1
  -7   7  12 1038.65 153.381   1
   7  -7 -12 1176.37 160.875   1
   7   7 -12 479.478 190.224   1
   7   7 -12 460.035 200.382   1
  -7   7  12 695.850 169.435   1
  -7  -7  12 407.205 189.065   1
 -10   6  13 4041.43 278.733   1
  10   6 -13 3488.29 280.594   1
  10   6 -13 3933.57 315.325   1
  10  -6 -13 3551.59 284.528   1
 -10  -6  13 3580.73 294.089   1
 -10   1  20 -53.379 98.1541   1
 -10   1  20 28.6048 89.5580   1
 -10  -1  20 -178.33 96.1656   1
 -10  -1  20 87.2340 95.6627   1
  10   1 -20 -27.122 106.201   1
  10  -1 -20 104.727 97.3524   1
  -9  -7  10 101.145 131.437   1
  -9   7  10 10.7167 99.2210   1
   9   7 -10 119.724 133.800   1
   9   7 -10 -91.510 131.128   1
   9  -7 -10 99.3845 129.354   1
  13  -1   6 2287.94 233.013   1
 -13  -1  -6 2115.40 191.748   1
 -13   1  -6 2243.98 229.532   1
  13   1   6 2344.16 216.182   1
  13   1   6 2055.77 194.018   1
  13  -1   6 2613.90 228.045   1
   5   4  14 1294.73 157.448   1
  -5   4 -14 1309.00 208.516   1
   5  -4  14 1697.25 196.369   1
   5   3  15 89.0172 123.230   1
  -5   3 -15 199.708 115.440   1
   5  -3  15 76.0490 110.942   1
 -12   6   9 1806.05 208.054   1
 -12  -6   9 1618.40 232.959   1
  12   6  -9 2353.66 235.819   1
  12   6  -9 2297.71 261.981   1
  12  -6  -9 1568.44 215.937   1
 -11   3  -8 10078.9 485.380   1
  11  -3   8 9706.07 510.875   1
  11   3   8 9756.31 462.042   1
  11  -3   8 10183.4 482.960   1
   9   4 -18 2856.87 262.793   1
  -9  -4  18 2987.74 256.919   1
  -9   4  18 2504.88 214.317   1
  -9  -4  18 2934.17 276.305   1
   9  -4 -18 2451.64 201.204   1
  -9  -6  14 2512.10 250.515   1
  -9   6  14 3005.72 236.090   1
   9   6 -14 2494.93 226.678   1
   9   6 -14 2985.29 289.252   1
   9  -6 -14 2940.52 246.795   1
  12   0   8 1751.84 174.982   1
  12   0   8 2090.36 224.272   1
 -12   0  -8 1764.39 177.348   1
   6  -7   7 2029.98 258.266   1
   6   7   7 2298.82 245.156   1
  -6   7  -7 2133.08 249.509   1
   6  -7   7 2070.05 233.601   1
   4  -8  -9 597.761 195.463   1
  -4   8   9 1423.09 227.305   1
  -4   8   9 1404.09 185.472   1
  -4  -8   9 1715.54 229.872   1
   4   8  -9 1901.25 216.014   1
   4   8  -9 1253.38 240.081   1
  12  -6  -2 3931.24 324.789   1
  12   6  -2 3908.12 256.068   1
 -12   6   2 3800.25 297.754   1
 -12  -6   2 4098.55 302.154   1
  12  -6  -2 4221.46 305.006   1
   0   7 -12 165.178 153.711   1
   0   7  12 279.567 128.045   1
   0  -7  12 87.7112 154.296   1
   1   8   8 235.921 130.738   1
  -1  -8  -8 366.845 140.573   1
  -1   8  -8 214.656 161.210   1
  -1   8  -8 287.631 184.865   1
   1   8   8 313.437 143.603   1
   1  -8   8 161.502 155.097   1
  16  -1  -2 482.701 167.763   1
  16  -1  -2 819.141 182.710   1
  16   1  -2 599.583 163.612   1
 -16  -1   2 1237.83 170.222   1
 -16   1   2 515.658 209.421   1
  16   1  -2 701.406 176.493   1
 -14  -1  -4 219.652 122.179   1
 -14   1  -4 -28.525 142.322   1
  14   1   4 156.939 124.112   1
  14  -1   4 13.9863 139.684   1
  14  -1   4 127.705 136.064   1
  14   1   4 114.577 119.829   1
 -14   3  -2 5277.40 384.937   1
  14   3   2 4775.62 326.185   1
  14  -3   2 5160.69 358.698   1
  14   3   2 4929.62 302.745   1
  14  -3   2 5215.80 317.756   1
 -14  -3  -2 4590.79 308.371   1
   5  -8   4 357.673 151.621   1
   5  -8   4 606.285 187.892   1
  -5   8  -4 690.356 174.237   1
  -5  -8  -4 205.459 144.300   1
   5   8   4 467.667 175.464   1
   5   8   4 422.691 137.130   1
  -7   8   6 702.347 195.019   1
   7   8  -6 731.804 189.425   1
   7  -8  -6 754.484 182.914   1
  -7  -8   6 721.822 190.241   1
  -7   8   6 1265.45 178.120   1
  -3  -2  20 2860.44 239.167   1
  -3   2  20 3047.65 247.962   1
  -3  -2  20 3209.52 213.374   1
   3   2 -20 2684.04 211.712   1
   2   5  15 2037.65 211.513   1
  -2   5 -15 1518.99 231.031   1
   2  -5  15 1554.52 222.244   1
 -15   4   7 8914.99 454.000   1
 -15  -4   7 8131.03 433.812   1
  15   4  -7 8038.09 417.820   1
  15  -4  -7 8633.06 449.384   1
  15  -4  -7 8837.13 505.730   1
   8  -4  11 1511.05 231.551   1
   8   4  11 1200.48 161.438   1
   8  -4  11 1864.62 215.085   1
  -8   4 -11 1980.55 220.148   1
   8  -7   4 760.689 194.672   1
  -8   7  -4 716.929 207.370   1
  -8  -7  -4 1073.66 150.633   1
   8  -7   4 740.971 197.799   1
  10   0  11 89.5066 123.431   1
   1   8  -9 612.897 184.641   1
   1   8  -9 642.726 174.641   1
   1  -8  -9 413.130 135.301   1
  -1   8   9 452.141 140.888   1
  -1   8   9 696.307 154.307   1
  -1  -8   9 509.704 177.812   1
  10   7  -8 168.123 149.193   1
 -10  -7   8 227.320 154.783   1
  10  -7  -8 241.905 139.995   1
  10   7  -8 156.321 142.239   1
 -10   7   8 275.487 128.288   1
 -14  -3  15 596.223 187.099   1
 -14   3  15 640.982 151.760   1
  14   3 -15 623.955 181.760   1
  14  -3 -15 560.456 198.731   1
 -14  -3  15 382.182 170.103   1
 -14   3  15 520.026 170.856   1
  12   4 -16 135.803 147.621   1
  12  -4 -16 128.767 131.770   1
 -12  -4  16 187.740 130.105   1
 -12  -4  16 -2.3137 151.099   1
 -12   4  16 64.4975 132.182   1
 -14   1  17 1872.82 229.786   1
 -14  -1  17 1674.67 243.027   1
 -14  -1  17 1393.60 228.008   1
  14  -1 -17 1897.07 218.252   1
 -14   1  17 1878.70 231.517   1
  14   1 -17 1718.17 215.942   1
  -9   2  20 275.772 133.543   1
  -9  -2  20 221.287 129.941   1
   9  -2 -20 33.2007 108.470   1
   9   2 -20 80.2763 150.946   1
  -9  -2  20 143.885 132.210   1
  -9   2  20 46.0957 119.903   1
  15  -4  -6 277.616 145.799   1
  15  -4  -6 27.5188 183.599   1
  15   4  -6 88.6200 128.901   1
 -15  -4   6 134.443 141.009   1
 -15   4   6 67.4567 148.604   1
   4   7 -13 517.679 181.918   1
   4   7 -13 286.837 185.039   1
  -4  -7  13 540.121 178.886   1
  -4   7  13 660.672 165.561   1
  -4   7  13 874.250 126.157   1
  15   4  -8 95.0819 129.235   1
 -15  -4   8 143.718 140.436   1
 -15   4   8 118.710 133.718   1
  15  -4  -8 -11.248 143.902   1
 -12   1  19 352.060 144.171   1
  12  -1 -19 484.437 157.419   1
  12   1 -19 160.372 146.681   1
 -12  -1  19 228.942 126.961   1
 -12  -1  19 20.0214 150.811   1
 -12   1  19 223.970 156.800   1
   9  -7   2 3033.03 277.405   1
   9  -7   2 3255.11 280.099   1
   9   7   2 2921.44 244.776   1
  -9  -7  -2 3259.32 247.881   1
  -9   7  -2 2813.02 280.698   1
 -11  -5  15 6018.93 376.457   1
 -11   5  15 6604.89 349.531   1
  11   5 -15 5583.21 330.180   1
  11  -5 -15 5780.72 343.887   1
  11   5 -15 5843.90 384.187   1
 -11  -5  15 5826.54 357.170   1
 -10  -6  -4 65.0044 87.3832   1
 -10   6  -4 45.5966 122.468   1
  10   6   4 26.7529 87.7834   1
  10  -6   4 -57.700 116.324   1
  10  -6   4 12.3964 120.629   1
 -16  -1  13 868.950 173.015   1
  16  -1 -13 650.011 194.128   1
  16   1 -13 1089.78 198.965   1
 -16  -1  13 851.065 187.946   1
 -16   1  13 509.551 166.935   1
 -16   1  13 745.825 176.713   1
 -11   2  -9 359.631 142.053   1
  11   2   9 222.885 126.815   1
  11  -2   9 261.430 135.806   1
  11  -2   9 219.896 159.011   1
  15  -3  -1 10386.4 514.010   1
  15  -3  -1 11061.1 555.211   1
 -15  -3   1 11990.4 564.918   1
 -15   3   1 11129.3 549.624   1
  15   3  -1 11880.6 547.754   1
  15   3  -1 10901.2 494.966   1
  -6   8   8 345.450 136.132   1
  -6   8   8 332.706 147.807   1
  -6  -8   8 -35.566 156.082   1
   6  -8  -8 257.431 133.060   1
   6   8  -8 85.1393 152.388   1
   6   8  -8 199.922 149.535   1
   3   7 -13 6436.77 388.579   1
   3   7 -13 6230.48 386.168   1
  -3   7  13 6454.63 356.368   1
  -3  -7  13 5810.61 362.562   1
   0  -2  19 87.0613 107.383   1
   0   2  19 137.612 111.937   1
   0  -2  19 151.954 108.300   1
 -10   7   1 2020.73 235.656   1
 -10  -7   1 1797.35 212.536   1
  10   7  -1 1694.44 225.533   1
  10  -7  -1 1834.82 230.601   1
   1   0  19 1704.14 155.944   1
  -7  -8   0 3381.53 275.449   1
   7   8   0 3063.25 265.765   1
  -7   8   0 3021.36 287.303   1
   7  -8   0 2975.94 281.533   1
   7  -8   0 3337.40 237.692   1
   7   8   0 2963.84 299.462   1
 -11  -4  17 2365.75 234.715   1
  11   4 -17 2228.00 253.405   1
  11  -4 -17 2183.13 219.190   1
 -11  -4  17 2254.62 253.069   1
 -11   4  17 2495.56 213.288   1
 -12  -4  -5 1695.59 187.239   1
  12   4   5 1867.14 195.577   1
  12   4   5 1817.20 199.448   1
  12  -4   5 1804.44 249.609   1
  12  -4   5 2225.69 222.108   1
 -12   4  -5 1961.01 255.278   1
  -2   7 -11 2766.22 264.876   1
   2   7  11 3745.80 260.380   1
   2  -7  11 2564.89 245.492   1
  -6   0  21 42.4702 107.204   1
  -6   0  21 64.8186 96.8709   1
   5  -7 -13 277.997 112.195   1
   5   7 -13 109.976 161.533   1
   5   7 -13 285.058 155.885   1
  -5   7  13 192.581 140.778   1
  -5   7  13 165.458 119.676   1
  -5  -7  13 290.417 151.801   1
  14   4   0 5285.91 322.744   1
  14  -4   0 5227.53 360.674   1
  14  -4   0 5250.22 338.231   1
 -14   4   0 4862.34 337.508   1
 -14  -4   0 5158.26 327.465   1
  11   6 -12 293.849 171.386   1
  11  -6 -12 244.446 144.585   1
 -11   6  12 424.357 163.085   1
 -11  -6  12 414.772 177.457   1
  11   6 -12 336.541 171.942   1
  -9   3 -11 3474.65 271.217   1
   9   3  11 3500.12 257.753   1
   9  -3  11 3451.01 304.446   1
   9  -3  11 3868.98 268.718   1
  15  -3 -13 3005.70 269.102   1
  15   3 -13 3818.70 295.445   1
 -15   3  13 2651.33 295.025   1
 -15  -3  13 3480.95 293.992   1
 -15  -3  13 2969.81 283.614   1
 -15   3  13 2728.12 244.680   1
   7   0 -21 6256.80 354.372   1
  -7   0  21 6213.48 336.367   1
  -7   0  21 6646.59 357.369   1
  13   5 -12 1720.78 225.575   1
  13   5 -12 2013.01 227.877   1
  13  -5 -12 1491.20 214.042   1
 -13  -5  12 1309.27 221.781   1
 -13   5  12 1602.23 240.054   1
 -12  -1  -8 4832.67 278.686   1
 -12   1  -8 4352.94 291.715   1
  12   1   8 4952.44 338.258   1
  12  -1   8 4334.96 317.817   1
  12  -1   8 5033.35 296.794   1
  12   1   8 4938.00 277.040   1
   4   4  15 15.5250 87.3675   1
  -4   4 -15 42.1279 111.648   1
   4  -4  15 37.9930 109.740   1
 -15  -4   5 2868.33 307.401   1
  15  -4  -5 3581.65 299.628   1
  15   4  -5 3388.38 256.541   1
 -15   4   5 3368.25 286.854   1
  15  -4  -5 3975.10 291.696   1
  13   5   0 974.453 178.169   1
  13  -5   0 686.772 190.829   1
  13  -5   0 728.788 198.665   1
 -13  -5   0 1412.11 179.760   1
 -13   5   0 498.033 187.005   1
  15   0   2 143.437 143.562   1
  15   0   2 237.375 150.549   1
 -15   0  -2 155.998 156.364   1
 -14   4  13 1967.52 249.618   1
  14   4 -13 2004.95 254.619   1
  14  -4 -13 1902.73 228.616   1
 -14  -4  13 2333.72 234.946   1
 -14  -4  13 2070.22 245.649   1
  -1   6 -14 2354.48 263.401   1
   1   6  14 1951.29 232.817   1
   1  -6  14 1995.39 215.953   1
  -8  -5  17 1272.36 201.354   1
   8  -5 -17 1262.60 170.187   1
   8   5 -17 994.009 216.677   1
  -8   5  17 1269.44 159.898   1
  -8  -5  17 972.095 184.124   1
  16   2  -3 6616.53 353.968   1
  16  -2  -3 5814.62 360.794   1
  16  -2  -3 6215.73 385.369   1
 -16  -2   3 7049.50 426.956   1
 -16   2   3 6373.32 389.411   1
   5  -6  11 270.627 141.366   1
  -5   6 -11 156.281 173.810   1
   7   2  14 133.799 126.543   1
   7  -2  14 -7.0944 104.250   1
  -7   2 -14 90.4371 104.436   1
  14  -5  -6 207.264 150.109   1
  14  -5  -6 158.429 150.663   1
 -14  -5   6 158.253 142.321   1
 -14   5   6 149.555 148.457   1
  14   5  -6 215.126 137.094   1
 -14   5   7 44.4940 104.719   1
  14  -5  -7 24.5567 124.234   1
  14  -5  -7 -2.1325 106.335   1
 -14  -5   7 -19.441 103.526   1
  14   5  -7 -59.730 101.937   1
 -15   4   9 56.6853 139.728   1
 -15  -4   9 220.296 146.875   1
  15  -4  -9 176.559 159.374   1
  15   4  -9 230.509 144.652   1
   1  -4  17 311.876 143.661   1
  -1   4 -17 324.204 149.465   1
  -5   8   9 -13.358 101.248   1
   5   8  -9 124.290 119.466   1
   5   8  -9 -32.668 111.119   1
  -5   8   9 13.0272 101.305   1
  -5  -8   9 8.72092 121.511   1
  10   5 -16 83.7420 125.749   1
 -10   5  16 16.5436 100.092   1
 -10  -5  16 45.7644 117.415   1
  10  -5 -16 -42.403 101.574   1
 -10  -5  16 6.44062 110.531   1
   6  -6  10 -24.516 141.442   1
   6  -6  10 124.010 129.472   1
  -6   6 -10 34.5767 123.470   1
   2   2  18 129.912 94.5819   1
   2  -2  18 141.086 106.841   1
  -2  -5  17 200.477 116.843   1
  -2   5  17 122.414 113.674   1
   2   5 -17 94.4104 150.869   1
  11   5   5 111.709 104.558   1
  11  -5   5 182.199 163.046   1
 -11   5  -5 250.192 152.123   1
  11   5   5 160.783 102.624   1
  11  -5   5 400.391 143.963   1
  -4   3 -16 3101.52 224.545   1
   4  -3  16 2853.92 220.220   1
  -5   0  21 -11.702 112.171   1
   9  -6   6 1660.65 227.562   1
  -9   6  -6 1860.64 236.071   1
   9  -6   6 2098.43 232.460   1
  10   1  11 98.2529 137.160   1
  10  -1  11 0.72992 147.408   1
 -10   1 -11 55.0510 92.2383   1
  10  -1  11 38.1137 103.067   1
  -1   0  20 15.1566 92.0957   1
   6   2  15 -21.341 94.1986   1
 -12  -5  14 -35.075 138.372   1
  12  -5 -14 9.19375 145.901   1
  12   5 -14 133.681 109.207   1
 -12   5  14 162.257 111.240   1
  12   5 -14 -29.572 146.956   1
 -12  -5  14 57.4584 147.071   1
  11   6   2 1809.03 189.013   1
  11  -6   2 1723.34 220.501   1
 -11  -6  -2 1509.34 195.884   1
  11  -6   2 1937.23 219.946   1
 -11   6  -2 1787.81 233.539   1
  13  -4 -15 858.884 163.115   1
 -13  -4  15 593.085 203.958   1
 -13  -4  15 989.956 181.719   1
 -13   4  15 894.605 184.526   1
  13   4 -15 478.915 196.406   1
 -16  -2  12 1663.68 270.314   1
 -16   2  12 2479.83 240.815   1
  16   2 -12 1794.13 239.314   1
  16  -2 -12 2579.29 255.402   1
 -16   2  12 2054.00 212.136   1
 -16  -2  12 1848.21 244.562   1
  10  -3 -19 10638.4 465.104   1
 -10  -3  19 9317.44 475.777   1
 -10   3  19 10737.7 459.904   1
 -10  -3  19 9644.38 492.444   1
  10   3 -19 9100.30 468.914   1
 -10   3  19 10363.3 504.316   1
   8  -2  13 -47.273 109.111   1
   8  -2  13 52.3874 87.5964   1
   8   2  13 -7.9609 98.4965   1
  -8   2 -13 0.83618 75.1886   1
 -15   2  -1 4708.75 367.282   1
  15   2   1 4314.17 334.627   1
  15   2   1 4684.61 323.810   1
  15  -2   1 4686.81 336.058   1
  15  -2   1 5179.88 316.695   1
   1   6 -15 1145.47 245.315   1
  -1  -6  15 1811.60 194.074   1
  -1   6  15 1419.17 184.610   1
  14   5  -5 3807.16 320.059   1
  14  -5  -5 5048.73 336.886   1
  14  -5  -5 4862.81 364.783   1
 -14  -5   5 3823.47 284.552   1
 -14   5   5 4059.61 307.968   1
  13  -4   3 476.859 194.578   1
  13   4   3 285.976 146.631   1
 -13  -4  -3 294.275 141.605   1
 -13   4  -3 406.051 163.308   1
  13   4   3 296.687 136.583   1
  13  -4   3 438.121 177.601   1
  -7   7  -6 315.146 162.356   1
   7  -7   6 213.739 150.981   1
   7  -7   6 207.884 165.895   1
  14  -5  -8 -53.992 140.711   1
  14   5  -8 102.882 138.703   1
 -14   5   8 165.717 130.521   1
 -14  -5   8 237.064 143.297   1
 -15   0  16 28.9086 133.446   1
  15   0 -16 153.512 166.686   1
 -15   0  16 80.1092 128.019   1
  -7   8   7 93.0168 144.763   1
   7   8  -7 97.1120 139.395   1
  -7   8   7 151.560 123.329   1
   7  -8  -7 58.1168 126.479   1
  -7  -8   7 48.3131 144.912   1
 -12  -6  10 -157.19 115.791   1
  12   6 -10 152.147 124.463   1
  12  -6 -10 86.5928 105.020   1
 -12   6  10 25.2930 100.938   1
  12   6 -10 -58.606 115.532   1
   2   7 -13 3092.33 237.317   1
  -2  -7  13 2679.15 253.941   1
  -2   7  13 2203.44 238.158   1
   2   7 -13 2779.74 270.633   1
  16   0  -1 36.6545 126.856   1
 -16   0   1 115.314 123.584   1
  16   0  -1 45.0820 112.988   1
  -4   6 -12 242.547 145.239   1
   4  -6  12 215.366 162.269   1
  11   4   7 242.192 132.440   1
 -11   4  -7 251.628 169.058   1
  11  -4   7 303.940 135.770   1
  11  -4   7 300.125 170.698   1
  -8   6  15 2173.88 192.434   1
  -8   6  15 2362.38 198.422   1
  -8  -6  15 2227.55 234.359   1
   8  -6 -15 2194.59 206.203   1
   8   6 -15 2263.77 213.105   1
   8   6 -15 2510.56 269.649   1
 -11   0  20 3.18603 116.758   1
 -11   0  20 103.389 120.159   1
  11   0 -20 10.4222 126.229   1
 -12   6   1 64.8186 143.918   1
  12  -6  -1 0.65632 142.838   1
  12  -6  -1 288.799 132.462   1
  12   6  -1 26.8802 135.810   1
 -12  -6   1 160.701 135.959   1
   0  -9   0 121.223 153.373   1
   0   9   0 75.7902 116.541   1
   0   9   0 -35.063 138.544   1
   1   1  19 149.268 98.6436   1
   1  -1  19 172.162 97.8687   1
 -12   5  -3 271.168 149.861   1
 -12  -5  -3 253.002 115.730   1
  12  -5   3 89.1639 154.303   1
  12  -5   3 -40.417 150.440   1
  12   5   3 234.336 117.278   1
  -1  -4  18 145.587 104.188   1
   1   4 -18 177.105 138.760   1
  -1  -4  18 165.311 125.955   1
  -1   3 -18 108.281 107.173   1
   1  -3  18 56.4081 108.077   1
   1  -3  18 105.675 102.446   1
   0  -8  -9 -15.556 108.947   1
   0   8  -9 -9.2225 132.715   1
   0  -8   9 56.7285 129.056   1
   0   8   9 37.8018 90.3923   1
   0   8   9 121.339 113.824   1
   0   8  -9 37.4476 123.288   1
   9   4  10 3254.74 224.427   1
  -9   4 -10 3370.33 285.320   1
   9  -4  10 3213.43 299.355   1
   8   0 -21 123.771 142.151   1
  -8   0  21 71.4963 163.283   1
  -8   0  21 138.348 113.886   1
  -6  -1  21 251.475 149.809   1
  -6   1  21 144.952 149.630   1
   6   1 -21 45.6580 119.947   1
  -6  -1  21 131.231 104.452   1
   6  -5  12 431.701 173.234   1
  -6   5 -12 373.634 181.918   1
  -6   8  -3 -112.49 119.614   1
   6  -8   3 82.2496 122.396   1
  -6  -8  -3 84.6806 108.126   1
   6  -8   3 -21.903 103.048   1
   6   8   3 -7.1407 97.7474   1
   6   8   3 70.5801 124.733   1
  -6   7  13 52.8152 84.5660   1
   6  -7 -13 -6.3459 87.9173   1
   6   7 -13 53.9000 117.137   1
  -6   7  13 -1.6395 105.057   1
  -6  -7  13 -50.560 113.623   1
 -15  -2  15 162.082 144.323   1
 -15   2  15 124.390 123.715   1
 -15   2  15 40.3148 132.571   1
  15   2 -15 23.0519 142.274   1
  15  -2 -15 180.607 142.397   1
 -15  -2  15 39.3258 134.461   1
   0  -9   1 1061.27 249.260   1
   0   9  -1 1497.65 219.428   1
   0  -9  -1 1041.55 199.654   1
   0   9   1 1374.04 211.129   1
   0   9   1 873.339 209.184   1
   0   9  -1 1561.85 195.567   1
   7   1 -21 6700.69 364.137   1
  -7   1  21 6213.52 351.178   1
  -7  -1  21 6026.35 345.527   1
  -7  -1  21 6391.59 333.268   1
  10   7  -9 277.463 168.603   1
  10  -7  -9 310.494 154.860   1
  10   7  -9 477.701 184.469   1
 -10   7   9 326.020 135.768   1
 -10  -7   9 334.443 161.173   1
  16   3  -7 95.4188 143.459   1
 -16   3   7 323.833 160.747   1
 -16   3   7 130.177 118.590   1
 -16  -3   7 301.650 148.006   1
  16  -3  -7 27.9386 160.259   1
  16  -3  -7 117.558 155.154   1
  15  -1   2 1911.05 232.038   1
 -15  -1  -2 2411.07 234.707   1
 -15   1  -2 2257.85 263.674   1
  15  -1   2 2004.03 204.627   1
  15   1   2 2259.40 229.460   1
  15   1   2 2464.10 234.514   1
 -15   4   4 2508.94 256.384   1
 -15  -4   4 2717.17 244.034   1
  15   4  -4 2701.62 264.790   1
  15  -4  -4 2750.60 262.037   1
  15  -4  -4 2544.28 260.199   1
  -1   9   0 -24.969 147.637   1
  -1   9   0 128.542 123.124   1
   1   9   0 69.5782 139.984   1
   1   9   0 72.1133 121.463   1
   1  -9   0 198.590 139.502   1
  -1  -9   0 161.460 164.887   1
 -16   3   8 3501.37 290.000   1
 -16  -3   8 3595.59 291.008   1
 -16  -3   8 3915.39 302.800   1
 -16   3   8 3712.22 256.231   1
  16  -3  -8 3710.12 298.822   1
  16   3  -8 3664.67 334.239   1
  -7   6  -9 196.805 188.818   1
   7  -6   9 186.312 133.673   1
   7  -6   9 362.463 159.133   1
   1   9  -1 244.694 144.771   1
   1   9  -1 243.685 171.609   1
  -1   9   1 271.331 163.261   1
  -1  -9   1 422.797 190.498   1
  -1   9   1 291.203 171.090   1
   1  -9  -1 210.175 147.086   1
   3   8   7 51.5238 100.002   1
   3   8   7 29.3918 126.909   1
   3  -8   7 46.5390 113.616   1
   3  -8   7 -29.987 115.440   1
  -3  -8  -7 -28.072 106.911   1
  -3   8  -7 105.499 126.217   1
   5  -5  13 -31.587 113.394   1
  -5   5 -13 197.326 118.809   1
  16   0 -14 351.009 168.463   1
 -16   0  14 232.170 153.785   1
  -7   5 -11 -44.701 119.260   1
   7  -5  11 53.6470 107.926   1
   7  -5  11 -7.2534 113.522   1
  -4  -8  -6 229.860 145.038   1
   4   8   6 220.530 165.901   1
   4   8   6 273.337 121.147   1
   4  -8   6 313.362 164.352   1
   4  -8   6 348.508 155.056   1
  -4   8  -6 488.636 162.410   1
  15  -4 -10 1597.07 232.415   1
  15   4 -10 2072.95 225.972   1
 -15   4  10 1533.67 219.879   1
 -15  -4  10 1929.04 229.885   1
  17   0  -8 39.2711 122.771   1
 -17   0   8 -47.964 125.083   1
 -17   0   8 -98.967 115.750   1
  -8   7  12 113.846 118.734   1
   8   7 -12 0.72544 128.534   1
  -8   7  12 -5.6865 110.444   1
  -8  -7  12 118.584 136.416   1
   8   7 -12 0.20764 140.834   1
   8  -7 -12 109.322 123.021   1
  -5  -1  21 970.431 144.676   1
   5   1 -21 1272.63 164.816   1
  -5  -1  21 1486.49 168.499   1
  -5   1  21 1250.52 168.928   1
  -6  -4  19 758.166 161.059   1
  -6  -4  19 703.126 206.066   1
   6   4 -19 751.252 212.737   1
 -14   5   4 5556.72 357.706   1
  14  -5  -4 6010.75 361.439   1
  14   5  -4 5738.70 330.329   1
 -14  -5   4 5805.65 379.661   1
  14  -5  -4 5321.04 358.973   1
  -7   8  -1 7195.12 423.049   1
  -7  -8  -1 7568.30 399.728   1
   7   8   1 7423.63 398.608   1
   7   8   1 7480.69 444.223   1
   7  -8   1 7602.60 381.876   1
   7  -8   1 7264.72 429.200   1
  -1  -3  19 167.256 124.951   1
  -1  -3  19 162.163 113.498   1
   1   3 -19 139.833 122.868   1
   6   3 -20 578.486 203.510   1
  -6  -3  20 1195.95 169.803   1
  -6  -3  20 1205.16 185.846   1
  -1   1  20 55.1982 118.984   1
  -1  -1  20 226.169 112.631   1
  10  -5   7 4004.31 314.960   1
 -10   5  -7 4526.05 348.001   1
  10   5   7 3669.05 237.212   1
 -16  -3   6 2976.35 261.206   1
 -16   3   6 3722.07 291.334   1
 -16   3   6 3022.00 239.936   1
  16  -3  -6 2730.02 287.649   1
  16  -3  -6 3226.09 283.548   1
  16   3  -6 2472.40 238.448   1
  14  -5  -9 42.3345 108.159   1
  14   5  -9 -105.51 99.7079   1
 -14  -5   9 -65.175 107.983   1
 -14   5   9 109.815 98.5556   1
  -5  -4  19 -23.298 121.506   1
  -5  -4  19 255.297 135.987   1
  -9  -7  11 26.4886 135.054   1
  -9   7  11 66.5335 120.901   1
   9   7 -11 96.0044 140.827   1
   9   7 -11 123.216 143.497   1
   9  -7 -11 12.5695 130.440   1
  -4   0  21 97.2324 108.339   1
   2   2 -20 536.876 158.173   1
  -2  -2  20 606.202 152.128   1
  -2   2  20 1253.10 167.944   1
  -2  -2  20 785.761 161.853   1
 -10  -7   0 257.587 141.929   1
 -10   7   0 290.783 155.064   1
  10   7   0 202.345 158.250   1
  10  -7   0 159.551 159.230   1
  10  -7   0 349.485 167.979   1
 -17   0   7 1035.34 201.934   1
  17   0  -7 1233.23 193.837   1
 -17   0   7 821.099 180.663   1
  -1   9  -1 43.5837 138.694   1
  -1  -9  -1 238.773 139.717   1
  -1   9  -1 115.589 162.600   1
   1   9   1 242.174 154.786   1
   1   9   1 258.013 153.179   1
   1  -9   1 151.376 152.127   1
  -1   9   2 970.134 193.969   1
   1  -9  -2 760.050 217.595   1
   1   9  -2 1562.62 218.309   1
   1   9  -2 973.270 205.381   1
  -1  -9   2 862.966 197.652   1
  -1   9   2 577.243 164.292   1
 -16  -3   9 1662.00 219.828   1
  16  -3  -9 1479.62 233.896   1
 -16  -3   9 1571.65 233.590   1
 -16   3   9 1552.13 195.207   1
 -16   3   9 1566.49 217.717   1
  16   3  -9 881.888 206.699   1
  15   1 -16 61.7094 132.587   1
 -15  -1  16 52.6057 131.422   1
 -15  -1  16 -10.745 120.662   1
  15  -1 -16 51.4790 121.695   1
 -15   1  16 178.600 131.480   1
 -15   1  16 -29.258 115.773   1
   9   2  12 1921.47 230.182   1
  -9   2 -12 2019.01 182.739   1
   9  -2  12 2166.73 243.881   1
   9  -2  12 1915.26 182.303   1
   0   9  -2 2148.45 234.020   1
   0  -9  -2 1762.55 224.400   1
   0   9  -2 3073.03 276.750   1
   0   9   2 2337.32 207.308   1
   0   9   2 2009.21 243.322   1
   0  -9   2 2491.25 251.481   1
 -17   0   9 8624.62 442.275   1
 -17   0   9 8927.38 462.856   1
  17   0  -9 9008.99 453.877   1
  16   1  -1 1055.50 202.946   1
  16  -1  -1 700.486 176.264   1
 -16   1   1 563.060 218.816   1
 -16  -1   1 1126.75 206.113   1
  16  -1  -1 765.675 188.252   1
  16   1  -1 882.723 224.743   1
   2  -8   8 58.3073 156.531   1
   2   8   8 289.265 184.451   1
   2   8   8 287.242 106.252   1
  -2   8  -8 158.165 152.289   1
 -10   4  18 681.530 148.242   1
  10  -4 -18 712.535 160.671   1
 -10  -4  18 604.398 173.928   1
  10   4 -18 751.841 235.372   1
 -10  -4  18 700.479 191.001   1
  -5  -3  20 29.6948 103.540   1
  -5  -3  20 109.838 117.716   1
 -13   2  18 546.609 179.115   1
 -13  -2  18 417.746 186.155   1
  13   2 -18 792.318 182.859   1
 -13  -2  18 645.879 162.342   1
  13  -2 -18 554.681 190.191   1
   1   7  12 505.671 179.602   1
   1  -7  12 507.575 173.656   1
  -1   7 -12 454.235 180.467   1
 -11  -1  20 142.787 91.3313   1
 -11   1  20 -3.6302 101.633   1
 -11  -1  20 -27.712 110.328   1
  11  -1 -20 -26.260 110.779   1
 -11   1  20 -61.793 111.890   1
  11   1 -20 13.6743 124.478   1
  -7  -3  20 117.050 119.660   1
  -7   3  20 -6.4666 126.115   1
  -7  -3  20 151.445 128.610   1
   7   3 -20 99.4208 146.110   1
 -10   2  20 1929.23 214.036   1
 -10  -2  20 1646.08 218.105   1
 -10  -2  20 1595.34 215.015   1
  10   2 -20 1713.50 241.446   1
  10  -2 -20 1437.69 183.271   1
 -10   2  20 1540.55 180.987   1
  11   0  10 70.7023 122.260   1
  11   0  10 84.5722 98.5686   1
  13   2   6 111.663 127.900   1
  13  -2   6 249.905 140.467   1
  13   2   6 73.2145 106.632   1
  13  -2   6 261.836 147.240   1
 -13  -2  -6 99.1753 125.920   1
 -13   2  -6 242.642 144.935   1
  -8  -1  21 4910.11 293.538   1
  -8   1  21 4712.73 284.314   1
   8   1 -21 4372.55 309.026   1
   8  -1 -21 4668.08 300.133   1
  -8   1  21 5069.66 314.654   1
  -8  -1  21 4154.44 296.023   1
   8   8  -4 10499.3 516.073   1
   8  -8  -4 10045.2 514.033   1
  -8  -8   4 9765.43 491.928   1
   8   8  -4 11179.7 553.035   1
  -8   8   4 9427.27 488.122   1
   3  -6  13 324.240 178.952   1
  -3   6 -13 448.952 167.140   1
   3   6  13 755.277 189.802   1
   2  -9  -1 177.341 149.374   1
   2   9  -1 120.369 134.272   1
   2   9  -1 160.024 156.960   1
  -2  -9   1 185.552 170.635   1
  -2   9   1 304.787 158.067   1
  -2   9   1 25.4723 162.113   1
  13   3 -17 366.764 183.692   1
 -13  -3  17 484.044 166.663   1
 -13  -3  17 1585.95 201.769   1
 -13   3  17 401.930 165.633   1
 -13   3  17 413.989 180.638   1
  13  -3 -17 403.855 156.771   1
  -7  -4  19 153.072 141.125   1
   7   4 -19 180.389 143.261   1
  -7  -4  19 182.793 120.670   1
  -3  -8  10 354.163 152.478   1
  -3   8  10 343.208 129.600   1
  -3   8  10 78.1058 115.765   1
   3   8 -10 -41.977 155.416   1
   3  -8 -10 28.3810 118.765   1
   3   8 -10 98.8954 171.228   1
  -3   4 -16 357.052 146.570   1
   3  -4  16 306.939 144.230   1
   8  -8  -3 8606.18 469.972   1
   8  -8  -3 9033.06 420.410   1
  -8   8   3 8301.84 455.168   1
   8   8  -3 9499.44 468.977   1
   8   8  -3 8913.21 490.656   1
  -8  -8   3 9185.18 455.678   1
 -13   3  -5 246.858 174.367   1
 -13  -3  -5 451.143 127.863   1
  13  -3   5 362.254 173.561   1
  13   3   5 380.826 122.191   1
  13   3   5 394.674 158.814   1
  13  -3   5 461.069 140.674   1
  10   3  10 2627.32 230.438   1
  10  -3  10 3111.68 284.778   1
  10  -3  10 2568.99 239.471   1
 -10   3 -10 2913.84 247.539   1
  12   3 -18 2231.21 243.027   1
 -12  -3  18 2396.41 262.114   1
 -12   3  18 2842.75 264.035   1
 -12  -3  18 2213.52 224.049   1
  12  -3 -18 2507.34 239.392   1
 -12   3  18 2298.82 231.499   1
 -17   0   6 48.9180 118.872   1
  17   0  -6 -72.288 114.065   1
  -5   8  -5 300.722 128.889   1
   5   8   5 -16.518 98.6894   1
   5   8   5 -16.512 134.908   1
   5  -8   5 148.400 133.754   1
   5  -8   5 -36.876 112.500   1
  -5  -8  -5 -18.380 97.9577   1
  -2   9   0 141.725 130.550   1
   2   9   0 160.693 120.540   1
   2  -9   0 50.8040 136.886   1
   2   9   0 -29.801 145.672   1
  -2   9   0 123.055 143.784   1
  -2  -9   0 -42.583 151.776   1
  -1   5 -16 108.133 154.010   1
   1  -5  16 262.949 147.318   1
   1   5  16 158.958 130.161   1
   6   8  -9 189.813 162.912   1
  -6   8   9 397.864 168.265   1
  -6   8   9 281.072 151.333   1
  -6  -8   9 223.496 167.037   1
   6   8  -9 230.330 184.976   1
   1   7 -13 44.7190 138.289   1
  -1   7  13 55.5319 130.683   1
  -1  -7  13 38.9389 122.932   1
  -2   9   2 435.654 183.137   1
  -2   9   2 413.031 153.477   1
  -2  -9   2 566.645 182.364   1
   2   9  -2 539.808 189.102   1
   2  -9  -2 333.032 200.836   1
   2   9  -2 933.437 201.381   1
  16   2  -2 136.869 191.644   1
 -16   2   2 399.461 179.293   1
 -16  -2   2 345.661 153.494   1
  16   2  -2 117.450 172.433   1
  16  -2  -2 377.495 172.235   1
  16  -2  -2 403.931 176.499   1
   4  -5  14 201.777 141.721   1
  -4   5 -14 12.5196 142.748   1
  14   2   4 99.0786 110.630   1
 -14   2  -4 107.729 142.619   1
  14  -2   4 69.3051 131.406   1
  14  -2   4 46.9048 137.499   1
  14   2   4 27.5736 136.848   1
   8  -8  -5 100.780 125.762   1
   8   8  -5 179.614 154.873   1
   8   8  -5 77.5794 128.146   1
  -8   8   5 -183.02 113.540   1
  -8  -8   5 40.7208 121.211   1
   4   4 -19 7039.94 400.421   1
  -4  -4  19 7439.29 394.307   1
  -4  -4  19 6965.60 399.711   1
  16  -1 -14 386.755 172.665   1
 -16   1  14 506.651 195.830   1
 -16  -1  14 325.296 174.934   1
 -16   1  14 446.971 161.872   1
  16   1 -14 445.603 178.028   1
 -16  -1  14 531.851 166.731   1
 -16  -3   5 210.619 168.686   1
 -16   3   5 565.762 182.694   1
  16  -3  -5 352.060 178.774   1
  16   3  -5 602.642 160.576   1
  16  -3  -5 401.031 185.894   1
  -2  -8  10 958.963 197.545   1
  -2   8  10 806.808 200.847   1
  -2   8  10 581.619 165.795   1
   2   8 -10 1021.82 205.852   1
   2  -8 -10 646.056 172.471   1
   2   8 -10 874.285 224.659   1
  -5   6  16 69.3486 117.906   1
  -5  -6  16 302.149 147.973   1
   5   6 -16 321.924 188.350   1
  -4   8  10 1471.86 192.198   1
  -4   8  10 1755.88 205.207   1
  -4  -8  10 1831.28 247.893   1
   4   8 -10 1843.16 227.512   1
   4   8 -10 1993.97 243.572   1
 -17   0  10 71.5974 117.510   1
 -17   0  10 -49.953 114.482   1
  17   0 -10 -49.749 113.577   1
   8  -5  10 276.253 136.574   1
  -8   5 -10 157.190 147.137   1
   8  -5  10 325.361 170.214   1
  -9   0  21 3506.16 251.055   1
  -9   0  21 3434.72 275.294   1
   9   0 -21 3231.19 258.166   1
  -1  -9  -2 233.854 145.953   1
   1  -9   2 460.387 167.750   1
   1   9   2 291.739 157.638   1
  -1   9  -2 282.615 154.766   1
  -1   9  -2 236.746 172.303   1
   1   9   2 151.544 159.785   1
  -9  -5  17 553.865 161.505   1
  -9   5  17 201.902 124.446   1
  -9  -5  17 304.476 154.418   1
   9   5 -17 417.915 176.960   1
   9  -5 -17 289.795 142.725   1
 -17  -1   8 602.768 192.008   1
 -17  -1   8 934.299 192.335   1
  17  -1  -8 601.417 181.412   1
  17   1  -8 675.195 176.190   1
 -17   1   8 413.203 163.350   1
 -17   1   8 419.769 187.505   1
   7   8  -8 188.635 167.202   1
  -7   8   8 75.8207 125.130   1
  -7   8   8 102.865 142.299   1
  -7  -8   8 47.3780 144.716   1
 -15  -3   0 2733.66 259.189   1
  15   3   0 2501.11 250.617   1
  15   3   0 2550.00 227.623   1
 -15   3   0 2661.22 264.503   1
  15  -3   0 2413.84 285.294   1
  15  -3   0 2606.98 259.177   1
  -1  -9   3 248.457 167.438   1
   1   9  -3 216.264 167.649   1
  -1   9   3 181.965 128.694   1
   1   9  -3 288.972 152.103   1
  -1   9   3 282.345 157.311   1
   1  -9  -3 72.5225 142.663   1
  -9   7  -3 540.034 214.172   1
  -9  -7  -3 1181.76 169.873   1
   9  -7   3 800.315 205.301   1
   9  -7   3 853.088 173.376   1
   9   7   3 1264.67 185.285   1
 -14  -2  17 106.526 170.734   1
  14  -2 -17 156.651 146.220   1
  14   2 -17 258.340 163.787   1
 -14  -2  17 209.329 159.968   1
 -14   2  17 360.344 128.389   1
 -14   2  17 412.941 165.709   1
  -4   6  16 2255.70 196.350   1
   4   6 -16 2220.81 243.153   1
  -4  -6  16 1886.82 225.447   1
  -8   8   2 3121.52 289.271   1
  -8  -8   2 3509.11 268.234   1
   8  -8  -2 3328.98 308.965   1
   8   8  -2 3680.85 315.098   1
   8   8  -2 3629.42 276.980   1
   8  -8  -2 3123.89 266.043   1
  16  -3 -10 2131.08 259.127   1
  16   3 -10 3284.52 268.654   1
 -16  -3  10 2982.42 273.711   1
 -16   3  10 2257.00 238.475   1
 -16   3  10 2393.31 253.534   1
 -16  -3  10 3166.28 304.834   1
   3  -3  17 1329.63 166.788   1
  -3   3 -17 1171.34 167.093   1
  -4   1  21 2262.40 240.750   1
  -4  -1  21 3290.62 258.971   1
 -17   1   7 2998.50 278.135   1
  17   1  -7 3112.83 257.526   1
  17  -1  -7 3031.14 264.386   1
 -17  -1   7 2904.34 277.868   1
 -17   1   7 2574.19 235.203   1
 -17  -1   7 3528.13 262.721   1
 -10  -6  14 3218.83 281.924   1
  10   6 -14 3349.20 312.284   1
  10  -6 -14 3070.18 260.119   1
  10   6 -14 3056.47 251.490   1
 -10   6  14 3208.12 257.895   1
 -12  -2  19 52.1746 113.046   1
 -12   2  19 144.457 134.512   1
 -12   2  19 133.681 120.821   1
 -12  -2  19 -89.355 133.335   1
  12  -2 -19 12.7988 126.512   1
  12   2 -19 -13.340 131.548   1
 -15  -4   3 189.010 139.677   1
  15  -4  -3 -10.495 134.913   1
  15   4  -3 128.741 130.409   1
 -15   4   3 199.471 131.604   1
  15  -4  -3 -263.26 126.994   1
  12  -3   7 402.200 173.378   1
  12  -3   7 318.675 184.022   1
  12   3   7 498.227 163.118   1
 -12   3  -7 451.531 175.725   1
 -17  -1   9 103.520 169.164   1
 -17   1   9 416.713 173.497   1
 -17   1   9 345.024 155.518   1
  17   1  -9 336.560 158.758   1
  17  -1  -9 367.564 162.913   1
   1   5 -17 264.201 157.357   1
  -1   5  17 108.852 129.907   1
  -1  -5  17 211.533 121.621   1
  14  -5  -3 80.7098 135.548   1
  14   5  -3 -3.3744 141.168   1
  14  -5  -3 140.120 138.921   1
 -14  -5   3 90.5898 140.433   1
 -14   5   3 41.1516 139.686   1
   8  -6   8 126.892 163.441   1
  -8   6  -8 21.0590 145.035   1
   8  -6   8 175.768 141.385   1
   4   3 -20 1192.10 183.293   1
  -4  -3  20 881.746 165.724   1
  -4  -3  20 1362.98 190.665   1
 -16  -2  13 1433.56 226.720   1
 -16   2  13 1523.21 207.646   1
 -16   2  13 1300.39 198.684   1
  16   2 -13 1640.55 237.098   1
  16  -2 -13 1390.67 224.086   1
 -16  -2  13 1540.22 221.420   1
   0   9  -3 410.502 186.173   1
   0   9  -3 292.386 161.684   1
   0  -9  -3 358.831 148.126   1
   0   9   3 375.278 167.112   1
   0  -9   3 347.168 176.817   1
   0   9   3 241.316 164.649   1
  -7   7  13 13.3935 101.393   1
  -7  -7  13 28.5437 118.126   1
   7   7 -13 52.9661 137.436   1
   7  -7 -13 -21.303 99.5353   1
   7   7 -13 39.9385 119.503   1
  -7   7  13 3.92597 96.1398   1
  12   6 -11 1615.39 226.184   1
  12   6 -11 1604.02 231.116   1
  12  -6 -11 1516.94 247.978   1
 -12  -6  11 1520.17 225.551   1
 -12   6  11 1507.90 204.524   1
   2  -9   1 -21.973 147.429   1
   2   9   1 194.012 145.958   1
  -2   9  -1 122.510 167.941   1
  -2  -9  -1 83.8477 159.799   1
  -2   9  -1 283.323 153.579   1
   2   9   1 83.6213 141.609   1
 -14   5  10 61.1827 117.186   1
  14   5 -10 26.7722 121.686   1
  14  -5 -10 -77.439 122.919   1
 -14  -5  10 94.7198 125.237   1
   5  -7   9 652.333 210.698   1
   5   7   9 1361.15 200.108   1
  -5   7  -9 894.015 194.482   1
   5  -7   9 556.113 195.701   1
   8   7   5 1054.92 139.787   1
   8  -7   5 744.208 209.183   1
   8  -7   5 506.012 185.471   1
  -8   7  -5 830.020 212.846   1
  -6   6  16 10048.6 446.702   1
   6   6 -16 11139.7 518.854   1
  -6  -6  16 11351.4 528.805   1
  15  -4 -11 360.464 172.715   1
  15   4 -11 465.615 166.915   1
 -15  -4  11 424.872 169.237   1
 -15  -4  11 261.163 168.381   1
 -15   4  11 173.143 161.767   1
  13  -5 -13 6166.77 411.049   1
  13   5 -13 5192.86 370.798   1
  13   5 -13 5684.30 354.383   1
 -13   5  13 6179.26 340.790   1
 -13  -5  13 5616.39 370.238   1
  -8   3  20 1010.94 200.591   1
  -8  -3  20 1453.00 187.483   1
   8   3 -20 1118.79 222.779   1
  -8  -3  20 1406.71 202.339   1
 -14   0  -5 88.5662 115.964   1
  14   0   5 35.0042 120.869   1
  14   0   5 -28.414 110.105   1
  15  -3 -14 981.362 197.267   1
 -15  -3  14 1132.74 232.531   1
 -15   3  14 757.885 219.264   1
 -15  -3  14 776.384 205.685   1
 -15   3  14 1425.59 196.593   1
  15   3 -14 909.274 216.067   1
  13  -5   1 106.440 132.949   1
  13   5   1 -27.508 117.707   1
  13  -5   1 157.929 135.920   1
 -13   5  -1 63.0997 132.919   1
 -13  -5  -1 19.3256 118.677   1
  -2   9   3 466.291 131.713   1
  -2   9   3 113.550 156.974   1
  -2  -9   3 6.00522 184.553   1
   2  -9  -3 -0.4811 172.530   1
   2   9  -3 154.093 148.355   1
   2   9  -3 209.934 160.450   1
  11  -1  10 -18.339 117.329   1
  11  -1  10 -91.852 73.0237   1
  11   1  10 98.4094 87.0788   1
 -11   1 -10 35.5825 83.5021   1
  14   4   1 2178.20 211.655   1
 -14   4  -1 1808.15 227.707   1
 -14  -4  -1 1854.63 222.517   1
  14  -4   1 1197.69 252.868   1
  14  -4   1 2019.16 228.050   1
  14   4   1 1748.03 188.321   1
  -4   7 -10 899.937 189.194   1
   4  -7  10 825.950 216.720   1
   4   7  10 501.214 178.951   1
 -12  -6   0 121.774 129.723   1
  12   6   0 159.632 132.455   1
  12  -6   0 110.728 165.289   1
 -12   6   0 35.0171 146.836   1
  12  -6   0 126.733 147.324   1
   1   8   9 509.228 164.912   1
   1  -8   9 641.522 183.814   1
  -1   8  -9 559.420 212.811   1
  -1   8  -9 448.683 183.491   1
  11  -7  -5 638.054 180.002   1
  11  -7  -5 408.186 179.806   1
  11   7  -5 474.172 192.016   1
 -11  -7   5 503.248 169.683   1
 -11   7   5 581.835 173.283   1
  11   7  -5 408.031 199.479   1
  -8   8   6 1946.66 224.765   1
   8   8  -6 2364.13 305.346   1
   8   8  -6 2141.15 251.447   1
  -8  -8   6 2236.93 240.846   1
  14  -3   3 7669.43 448.725   1
  14  -3   3 7270.84 424.285   1
  14   3   3 6987.99 359.219   1
  14   3   3 7227.03 376.949   1
 -14  -3  -3 7460.91 377.677   1
 -14   3  -3 6759.76 405.322   1
 -13   0  19 1112.01 219.981   1
 -13   0  19 1621.33 178.745   1
  13   0 -19 1368.75 196.130   1
  14  -4 -14 1532.40 207.008   1
  14   4 -14 1540.23 247.006   1
 -14  -4  14 1735.70 220.048   1
 -14   4  14 1669.92 198.316   1
 -14  -4  14 1779.94 250.970   1
 -12   2  -8 78.9314 115.802   1
  12  -2   8 19.6523 132.739   1
  12  -2   8 -10.001 109.626   1
  12   2   8 82.5651 128.678   1
 -10   4  -9 203.189 137.634   1
  10   4   9 238.675 127.340   1
  10  -4   9 116.698 151.994   1
  10  -4   9 244.085 164.707   1
  17   0  -5 10324.4 522.558   1
  17   0  -5 10166.9 511.967   1
 -17   0   5 10611.9 517.667   1
 -17  -1   6 126.743 148.466   1
  17  -1  -6 200.120 146.485   1
  17  -1  -6 118.265 159.298   1
 -17  -1   6 279.139 135.255   1
 -17   1   6 -14.193 152.268   1
  17   1  -6 148.548 133.904   1
  14   0 -18 3907.91 296.106   1
 -14   0  18 4351.08 318.551   1
 -14   0  18 4311.53 328.023   1
  13   0   7 528.020 146.161   1
 -13   0  -7 416.364 149.090   1
  13   0   7 396.877 164.251   1
 -10   7  10 32.1108 98.0289   1
 -10  -7  10 -7.1640 128.547   1
  10   7 -10 -37.704 131.655   1
  10  -7 -10 122.572 130.084   1
  10   7 -10 45.0335 116.658   1
  11   7  -6 3076.88 301.915   1
  11   7  -6 3322.29 333.693   1
 -11  -7   6 2956.19 269.468   1
  11  -7  -6 3053.46 283.882   1
  11  -7  -6 2995.30 267.278   1
 -11   7   6 3017.19 266.977   1
  11   6 -13 7424.19 443.624   1
  11  -6 -13 7099.80 419.120   1
  11   6 -13 7449.88 404.210   1
 -11   6  13 7144.13 358.050   1
 -11  -6  13 7088.37 421.574   1
   8   4 -19 307.855 192.778   1
  -8  -4  19 113.081 159.818   1
  -8  -4  19 433.337 138.055   1
   0   6  15 1724.28 195.542   1
   0  -6  15 1914.04 210.433   1
   0   6 -15 1690.86 215.006   1
  11   7  -4 102.496 133.023   1
 -11  -7   4 38.8211 132.676   1
  11   7  -4 110.116 109.367   1
  11  -7  -4 -32.677 126.876   1
  11  -7  -4 -121.17 118.053   1
 -11   7   4 47.3649 119.161   1
  -1   8  10 -22.246 112.619   1
   1   8 -10 86.5243 154.247   1
  -1  -8  10 135.533 142.806   1
  -1   8  10 42.9158 118.953   1
   1   8 -10 190.231 146.707   1
  14  -3 -16 270.610 184.045   1
  14   3 -16 436.665 175.897   1
 -14   3  16 367.864 165.166   1
 -14   3  16 303.264 135.219   1
 -14  -3  16 222.985 188.486   1
 -14  -3  16 314.081 161.644   1
  -3   6  16 638.898 146.997   1
   3   6 -16 476.437 204.518   1
  -3  -6  16 488.859 165.011   1
  -5   8  10 3704.12 273.054   1
   5   8 -10 4383.10 323.688   1
   5  -8 -10 4426.70 296.862   1
   5   8 -10 4436.30 353.786   1
  -5   8  10 4231.46 275.518   1
  -5  -8  10 4399.35 329.308   1
  -3   0  21 5043.48 309.717   1
  17  -1 -10 538.059 190.791   1
 -17  -1  10 395.852 192.710   1
 -17   1  10 595.254 177.104   1
 -17   1  10 442.562 176.980   1
  17   1 -10 695.369 181.128   1
   9   1 -21 1787.73 226.877   1
   9  -1 -21 1423.97 192.866   1
  -9   1  21 1887.35 216.747   1
  -9  -1  21 1633.49 203.385   1
  -9  -1  21 1845.78 213.260   1
  -9   1  21 1553.05 175.108   1
  -3  -9   1 -117.72 120.212   1
   3   9  -1 20.6519 135.504   1
   3  -9  -1 89.2430 132.519   1
  -3   9   1 225.059 118.394   1
  -3   9   1 20.6955 132.766   1
   3   9  -1 15.5691 138.401   1
  10  -2  11 70.5949 105.986   1
  10   2  11 -0.8025 127.085   1
  10  -2  11 191.748 129.309   1
 -10   2 -11 -30.319 107.021   1
   6   7   8 665.161 193.693   1
   6  -7   8 757.869 181.790   1
   6  -7   8 577.335 205.234   1
  -6   7  -8 545.919 189.677   1
  -8   8   1 2149.89 252.330   1
  -8  -8   1 2027.37 249.324   1
   8  -8  -1 2001.30 209.496   1
   8  -8  -1 2271.54 264.854   1
   8   8  -1 1967.39 264.851   1
  -7  -8  -2 3339.62 268.487   1
   7  -8   2 3232.84 264.347   1
   7   8   2 3982.55 326.468   1
   7   8   2 3462.36 262.234   1
  -7   8  -2 3673.96 310.632   1
   7  -8   2 3500.65 303.833   1
   9   6 -15 3068.35 307.439   1
  -9   6  15 2905.93 237.891   1
  -9  -6  15 3182.44 265.423   1
   9  -6 -15 3050.98 252.057   1
   9   6 -15 2949.91 263.366   1
  -3  -9   2 109.657 128.307   1
   3  -9  -2 119.345 167.447   1
  -3   9   2 125.779 122.005   1
  -3   9   2 -37.248 135.748   1
   3   9  -2 23.2475 142.375   1
   3   9  -2 45.2590 147.408   1
 -17   0  11 450.033 166.660   1
  17   0 -11 215.301 170.068   1
 -17   0  11 345.820 182.602   1
  16  -3  -4 3700.44 297.064   1
 -16  -3   4 2941.37 302.613   1
 -16   3   4 3849.93 306.679   1
  16   3  -4 2643.86 253.532   1
  16  -3  -4 3916.54 319.661   1
 -13  -6   6 3875.70 290.654   1
  13   6  -6 3351.04 306.525   1
  13  -6  -6 3745.28 318.416   1
 -13   6   6 3534.15 282.876   1
  13  -6  -6 3524.57 301.328   1
 -10   6  -5 2310.08 243.033   1
  10  -6   5 2019.02 240.971   1
  10  -6   5 2093.91 280.573   1
  16   0   0 1894.49 245.032   1
 -16   0   0 2289.11 252.522   1
  16   0   0 1981.58 231.643   1
   1  -9   3 4.44976 130.048   1
   1   9   3 -64.065 121.441   1
  -1   9  -3 -31.227 129.297   1
   1   9   3 20.3962 116.237   1
  -1  -9  -3 25.5443 132.262   1
  -1   9  -3 -71.860 118.278   1
   6   8   4 1123.19 223.252   1
   6  -8   4 1294.69 194.513   1
   6  -8   4 1639.60 228.359   1
  -6  -8  -4 1466.12 186.451   1
  -6   8  -4 1129.15 222.675   1
   6   8   4 1386.49 176.800   1
   7   0  15 261.176 147.506   1
  -3   7 -11 692.184 187.460   1
   3   7  11 487.866 206.671   1
   3  -7  11 728.104 209.715   1
   3   4 -19 373.278 168.612   1
  -3  -4  19 701.710 177.226   1
  -3  -4  19 466.279 169.287   1
   5   5 -18 51.1507 138.377   1
  -5  -5  18 282.277 135.847   1
  -5  -5  18 129.778 153.045   1
  10  -7   1 149.421 154.375   1
  10  -7   1 -10.369 156.150   1
  10   7   1 7.00340 131.420   1
 -10   7  -1 57.4146 146.199   1
 -10  -7  -1 402.051 128.726   1
 -11   6  -3 3514.02 289.521   1
  11  -6   3 3201.55 273.321   1
  11  -6   3 3395.80 272.383   1
 -11  -6  -3 2947.17 225.894   1
  11   6   3 2943.96 232.030   1
 -13  -6   7 47.6927 166.059   1
  13   6  -7 232.926 129.669   1
  13  -6  -7 36.9105 128.976   1
 -13   6   7 153.853 136.316   1
  13  -6  -7 -39.698 143.858   1
  13   6  -5 1783.50 244.249   1
 -13  -6   5 1759.82 210.695   1
  13  -6  -5 1795.67 250.982   1
  13  -6  -5 1427.68 228.204   1
 -13   6   5 1480.96 216.259   1
  11   3 -19 406.297 222.910   1
 -11  -3  19 696.202 165.587   1
 -11  -3  19 691.565 189.781   1
 -11   3  19 475.683 189.063   1
  11  -3 -19 797.176 168.059   1
  -1  -9   4 778.423 199.528   1
   1  -9  -4 492.778 204.753   1
   1   9  -4 717.570 191.812   1
   1   9  -4 517.837 205.427   1
  -1   9   4 1446.49 193.174   1
  -1   9   4 637.069 184.949   1
  11   7  -7 1726.13 219.668   1
  11   7  -7 1834.13 228.143   1
 -11  -7   7 1427.51 223.012   1
  11  -7  -7 1544.88 219.692   1
 -11   7   7 1581.43 204.397   1
   2   9   2 70.3351 134.463   1
  -2  -9  -2 65.3617 146.499   1
   2  -9   2 -11.678 136.948   1
  -2   9  -2 152.057 146.697   1
   2   9   2 -53.066 138.485   1
  -2   9  -2 191.245 131.963   1
  -3   9   0 38.7366 151.581   1
  -3   9   0 99.2334 142.217   1
   3  -9   0 146.155 136.950   1
   3   9   0 -96.423 137.866   1
  -3  -9   0 152.628 119.324   1
   3   9   0 -43.535 140.075   1
   6   5 -18 1046.05 210.153   1
  -6  -5  18 1343.08 196.647   1
  -6  -5  18 1332.07 188.607   1
   8   0  14 -0.3879 104.003   1
 -16  -3  11 4884.57 333.866   1
 -16  -3  11 4935.94 338.739   1
  16  -3 -11 4519.87 335.051   1
 -16   3  11 4168.92 314.026   1
 -16   3  11 4452.62 328.512   1
  16   3 -11 4413.07 330.867   1
   1  -2  19 163.979 113.101   1
   1   2  19 223.861 106.688   1
  14  -1   5 7086.64 395.809   1
  14   1   5 7192.85 396.946   1
  14   1   5 7213.97 372.237   1
  14  -1   5 7290.52 403.901   1
 -14   1  -5 6599.46 387.011   1
 -14  -1  -5 7390.84 381.783   1
   2   6  14 749.578 184.285   1
  -2   6 -14 774.095 175.803   1
   2  -6  14 506.961 197.344   1
   3  -5  15 14.3651 131.949   1
  -3   5 -15 122.225 141.270   1
  11   7  -3 204.834 152.623   1
 -11  -7   3 134.338 125.900   1
  11  -7  -3 73.3838 145.097   1
 -11   7   3 137.434 143.592   1
  11  -7  -3 -13.374 144.266   1
  -3  -9   3 52.7534 162.549   1
   3  -9  -3 371.533 192.692   1
  -3   9   3 525.121 173.593   1
  -3   9   3 695.684 154.529   1
   3   9  -3 374.433 181.712   1
   3   9  -3 56.1596 152.221   1
  -6  -2  21 294.084 151.158   1
   6   2 -21 552.277 166.968   1
  -6   2  21 683.015 159.552   1
  -6  -2  21 563.009 150.971   1
   2   9  -4 4.14876 126.099   1
   2   9  -4 -63.328 140.226   1
  -2   9   4 39.9650 130.016   1
  -2  -9   4 156.903 133.337   1
  -2   9   4 74.0568 130.621   1
   2  -9  -4 37.8453 120.943   1
  -7   6  16 3735.01 242.054   1
  -7  -6  16 4430.23 318.058   1
   7   6 -16 4143.74 333.526   1
   0   0  20 219.307 112.762   1
   0   4  18 360.649 136.299   1
   0  -4  18 245.973 149.245   1
   0   4 -18 519.674 155.991   1
 -13   1  19 -3.8222 120.688   1
 -13   1  19 18.9798 130.556   1
  13  -1 -19 82.5335 131.200   1
 -13  -1  19 47.2756 133.761   1
  13   1 -19 -24.323 114.212   1
 -13  -1  19 46.3031 109.056   1
 -11   5  16 47.6319 122.058   1
  11   5 -16 -71.485 143.601   1
  11  -5 -16 62.6387 122.678   1
 -11  -5  16 33.5941 135.661   1
 -11  -5  16 228.971 149.343   1
  -7  -2  21 76.6517 116.500   1
   7   2 -21 27.4369 135.582   1
  -7  -2  21 66.9991 121.045   1
  -7   2  21 197.855 127.447   1
 -12  -4  17 73.5894 160.216   1
 -12  -4  17 87.9157 125.595   1
  12   4 -17 120.249 141.821   1
  12  -4 -17 49.4922 127.939   1
 -12   4  17 -9.3553 119.690   1
  15   0   3 1902.55 229.014   1
  15   0   3 2167.28 229.063   1
 -15   0  -3 1878.06 236.428   1
 -17  -1   5 683.318 176.841   1
  17  -1  -5 687.373 191.738   1
  17  -1  -5 846.779 187.774   1
 -17   1   5 773.137 196.584   1
  17   1  -5 662.942 177.447   1
  15  -2   2 355.435 180.181   1
  15   2   2 366.223 163.130   1
 -15   2  -2 233.866 157.798   1
  15   2   2 414.889 145.618   1
  15  -2   2 287.713 167.884   1
  14  -1 -18 1884.59 210.373   1
  14   1 -18 1742.48 226.965   1
 -14   1  18 2144.61 236.908   1
 -14   1  18 1537.71 231.326   1
 -14  -1  18 1065.51 241.569   1
 -14  -1  18 1524.07 208.910   1
   9  -5   9 3043.39 283.580   1
  -9   5  -9 2875.88 293.349   1
   9  -5   9 3366.45 295.843   1
  13   1   7 591.092 160.397   1
  13  -1   7 221.822 151.605   1
 -13  -1  -7 525.301 151.489   1
  13  -1   7 535.571 168.999   1
  13   1   7 423.135 131.767   1
 -13   1  -7 322.189 160.329   1
   8   8  -7 2429.86 271.961   1
   8   8  -7 2549.72 301.897   1
   8  -8  -7 2153.87 233.754   1
  -8  -8   7 2072.25 259.558   1
  -8   8   7 2502.75 269.511   1
   0   9   4 543.626 181.511   1
   0  -9   4 678.996 203.624   1
   0  -9  -4 471.670 190.096   1
   0   9  -4 1502.19 187.750   1
   0   9  -4 580.392 203.065   1
   0   9   4 212.424 181.840   1
  -4  -5  18 651.795 191.536   1
   4   5 -18 733.006 207.860   1
 -16   0  15 -42.520 124.993   1
  16   0 -15 0.73651 137.653   1
 -16   0  15 -104.90 166.782   1
 -12  -5  15 105.057 148.030   1
 -12   5  15 85.2610 128.056   1
  12  -5 -15 -45.112 132.222   1
 -12  -5  15 70.1188 127.907   1
  12   5 -15 15.7024 144.626   1
  -3  -3  20 804.758 177.203   1
   3   3 -20 410.194 167.015   1
  -3  -3  20 718.852 158.932   1
  -3  -1  21 1767.89 206.425   1
  -3   1  21 1821.29 179.967   1
 -14   5   2 41.1907 150.860   1
  14   5  -2 282.827 155.519   1
  14  -5  -2 72.6074 151.178   1
  14  -5  -2 139.112 150.098   1
 -14  -5   2 236.296 154.755   1
  13   6  -8 2151.12 239.620   1
 -13  -6   8 2315.88 255.771   1
 -13   6   8 2541.53 243.237   1
  13  -6  -8 2476.27 259.187   1
  13   6  -4 -29.762 154.605   1
 -13  -6   4 273.957 133.504   1
  13  -6  -4 162.827 137.708   1
 -13   6   4 104.413 150.721   1
  13  -6  -4 282.692 157.299   1
   0  -7  13 10252.0 507.261   1
   0   7  13 10305.7 474.130   1
   0   7 -13 9926.53 517.339   1
  -5  -2  21 1210.30 169.695   1
  -5  -2  21 1244.39 175.735   1
  -5   2  21 1205.62 175.368   1
  -4   7  14 1548.58 193.484   1
  -4  -7  14 802.766 199.136   1
   4   7 -14 1079.38 203.839   1
   4   7 -14 901.717 218.262   1
 -12   0  20 164.782 152.972   1
 -12   0  20 326.489 154.365   1
  12   0 -20 142.845 160.617   1
  15   4  -2 612.616 171.540   1
 -15   4   2 365.948 174.850   1
 -15  -4   2 429.046 182.649   1
  15  -4  -2 525.518 187.512   1
  15  -4  -2 37.4756 168.207   1
  -1   2  20 66.4103 114.147   1
  -1  -2  20 123.797 113.650   1
 -14  -5  11 300.190 149.596   1
 -14   5  11 165.138 137.842   1
  14  -5 -11 14.7472 144.226   1
  14   5 -11 4.11513 143.526   1
 -17  -1  11 183.192 165.397   1
 -17   1  11 79.8964 144.702   1
 -17   1  11 -31.278 141.696   1
 -17  -1  11 99.2925 141.052   1
  17   1 -11 141.598 137.693   1
  17  -1 -11 -3.3507 148.178   1
   9   3 -20 202.660 141.831   1
  -9  -3  20 51.2821 141.463   1
  -9  -3  20 173.457 121.751   1
  -9   3  20 106.930 115.018   1
  -9   3  20 69.3544 139.975   1
 -10   0  21 13.8889 108.951   1
 -10   0  21 56.7227 125.192   1
  10   0 -21 43.5557 124.852   1
 -17   0   4 -16.933 121.873   1
  17   0  -4 231.541 126.969   1
  17   0  -4 -105.01 123.050   1
  12  -4   6 -110.19 156.040   1
  12  -4   6 115.648 128.608   1
 -12   4  -6 156.910 126.313   1
  12   4   6 183.618 117.009   1
 -13  -4  16 1573.23 208.036   1
 -13  -4  16 1615.72 265.869   1
 -13   4  16 1601.07 182.246   1
  13  -4 -16 1348.50 222.381   1
  13   4 -16 1614.40 230.460   1
   7   5 -18 2592.27 305.967   1
  -7  -5  18 2286.17 230.882   1
  -7  -5  18 2467.89 246.023   1
   3  -9   1 74.4403 162.395   1
   3   9   1 263.509 130.345   1
  -3   9  -1 300.333 149.480   1
  -3  -9  -1 65.1640 162.224   1
  -3   9  -1 287.851 165.302   1
   3   9   1 134.320 159.844   1
  -2   4 -17 317.578 157.659   1
   2  -4  17 399.443 143.607   1
  16  -1   0 74.9723 104.958   1
 -16   1   0 19.5643 110.296   1
  16   1   0 -89.123 107.754   1
 -16  -1   0 -56.005 119.438   1
  16  -1   0 125.316 117.464   1
  16   1   0 -10.602 117.271   1
  13   4   4 13474.0 577.888   1
  13  -4   4 11402.5 589.847   1
 -13  -4  -4 12330.9 523.647   1
 -13   4  -4 13222.2 643.932   1
  13  -4   4 12272.3 566.749   1
  13   4   4 12404.6 541.908   1
   9   7 -12 124.529 157.136   1
   9  -7 -12 112.396 145.907   1
   9   7 -12 212.187 164.266   1
  -9   7  12 184.564 140.071   1
  -9  -7  12 166.824 158.145   1
 -15   2  16 174.779 180.209   1
  15  -2 -16 117.773 184.595   1
  15   2 -16 -23.030 165.652   1
 -15  -2  16 261.710 152.206   1
 -15  -2  16 238.702 173.142   1
 -15   2  16 215.994 137.299   1
   7   1  15 1602.75 240.726   1
  -5   7  14 870.176 174.560   1
   5   7 -14 827.559 210.354   1
  -5  -7  14 611.732 186.450   1
   5   7 -14 682.541 191.633   1
  12   5   4 1372.39 163.104   1
  12  -5   4 918.947 241.551   1
  12  -5   4 915.504 218.443   1
 -12  -5  -4 1290.43 165.986   1
 -12   5  -4 1574.11 206.979   1
  12   5   4 1262.00 162.381   1
  -7   8   9 249.353 157.760   1
  -7   8   9 109.577 171.199   1
   7  -8  -9 326.132 132.966   1
   7   8  -9 257.064 193.606   1
  -7  -8   9 452.589 176.365   1
   9   0  13 770.939 212.558   1
  15   0 -17 123.529 132.075   1
 -15   0  17 20.9818 119.386   1
 -15   0  17 16.1593 143.930   1
 -16  -2   1 21498.4 908.874   1
  16   2  -1 21081.1 877.370   1
 -16   2   1 18930.8 827.566   1
  16  -2  -1 18234.1 821.469   1
  16  -2  -1 18578.9 809.135   1
  16   2  -1 20833.8 859.440   1
   7  -7   7 32.7283 140.205   1
  -7   7  -7 155.292 147.052   1
   7  -7   7 106.251 127.359   1
  11   3   9 206.565 156.096   1
 -11   3  -9 476.940 156.755   1
  11  -3   9 294.105 176.815   1
  11  -3   9 369.406 158.844   1
 -15  -4  12 123.756 124.993   1
 -15  -4  12 24.2622 129.533   1
  15  -4 -12 131.746 120.969   1
  15   4 -12 -27.169 123.989   1
 -15   4  12 -138.28 110.923   1
  -8   8   0 140.639 153.013   1
   8   8   0 86.1771 165.360   1
   8  -8   0 79.8678 162.505   1
   8  -8   0 88.0444 136.650   1
  -8  -8   0 194.514 147.737   1
  11   7  -8 902.796 216.994   1
  11   7  -8 1147.26 246.031   1
 -11  -7   8 1109.42 266.373   1
 -11   7   8 1729.93 232.932   1
  11  -7  -8 1466.70 211.831   1
  -2   6  16 3982.24 258.637   1
   2   6 -16 4322.05 336.764   1
  -2  -6  16 4099.54 286.879   1
   3   9  -4 -95.900 121.495   1
   3  -9  -4 6.18241 130.966   1
   3   9  -4 -5.5969 110.540   1
  -3  -9   4 17.9070 144.046   1
  -3   9   4 -11.857 99.3338   1
  -3   9   4 182.794 123.322   1
   8  -1  14 145.214 144.785   1
   8   1  14 73.6210 150.706   1
   0  -3  19 77.1756 113.325   1
   0   3 -19 116.366 108.933   1
   0  -3  19 113.215 114.146   1
  11  -2 -20 524.029 157.902   1
  11   2 -20 349.964 197.311   1
 -11   2  20 695.988 152.602   1
 -11   2  20 663.986 177.498   1
 -11  -2  20 411.543 181.586   1
 -11  -2  20 370.129 175.238   1
   4  -8   7 -5.1579 132.164   1
   4  -8   7 167.188 139.693   1
   4   8   7 21.9832 145.882   1
  -4   8  -7 163.898 143.380   1
  11  -5   6 1832.54 214.745   1
  11  -5   6 1660.21 238.279   1
 -11   5  -6 1684.68 226.522   1
  11   5   6 1650.82 186.457   1
  -3   7  14 392.267 150.845   1
   3   7 -14 314.377 163.434   1
   3   7 -14 225.691 167.156   1
  -3  -7  14 319.249 170.297   1
   0  -8  10 2090.10 239.969   1
   0   8  10 1494.09 253.893   1
   0   8 -10 2132.98 254.539   1
   0   8 -10 2062.34 224.402   1
   9  -6   7 66.5917 132.394   1
   9  -6   7 40.4690 131.056   1
  -9   6  -7 104.030 166.926   1
   8   2 -21 1343.25 204.084   1
  -8  -2  21 1286.24 185.003   1
  -8  -2  21 1136.53 190.860   1
  -8   2  21 644.738 188.166   1
  -3   8  -8 30.7476 143.626   1
   3   8   8 -39.538 138.357   1
   3  -8   8 232.253 132.419   1
  11   7  -2 1189.14 215.288   1
 -11  -7   2 1556.35 219.600   1
 -11   7   2 842.174 215.822   1
  11  -7  -2 1086.44 212.091   1
  11  -7  -2 1561.59 219.909   1
   6   8 -10 543.916 176.045   1
  -6   8  10 918.130 179.106   1
  -6   8  10 637.891 194.198   1
  -6  -8  10 652.198 204.874   1
   6  -8 -10 957.591 174.053   1
   6   8 -10 635.072 198.049   1
  12   0   9 43.2883 116.256   1
  12   0   9 150.650 127.440   1
  17   0 -12 -75.715 140.931   1
 -17   0  12 71.5041 134.957   1
 -17   0  12 243.435 166.663   1
   0  -1  20 68.3011 102.590   1
   0   1  20 75.4071 99.7125   1
   9   4 -19 5128.74 351.702   1
  -9   4  19 5298.53 275.485   1
  -9  -4  19 5731.21 368.980   1
  -9  -4  19 5274.47 374.485   1
 -15  -1  -3 452.926 175.153   1
 -15   1  -3 738.887 196.693   1
  15  -1   3 827.499 185.083   1
  15   1   3 657.754 167.574   1
  15   1   3 458.404 173.181   1
  15  -1   3 744.253 189.137   1
 -11  -4  18 304.504 190.946   1
 -11   4  18 368.024 142.841   1
  11   4 -18 389.064 174.987   1
  11  -4 -18 514.876 157.756   1
 -11  -4  18 315.617 153.475   1
   8   7 -13 1882.86 245.786   1
  -8   7  13 1298.29 188.633   1
  -8   7  13 1203.05 179.917   1
  -8  -7  13 2025.15 229.641   1
   8  -7 -13 1402.37 203.727   1
   8   7 -13 1701.49 217.976   1
  -2   7 -12 832.322 209.879   1
   2  -7  12 1116.06 199.273   1
   2   7  12 1250.81 218.009   1
   7   4  13 473.435 138.398   1
  -7   4 -13 345.982 191.370   1
   7  -4  13 590.397 198.964   1
   7  -4  13 771.142 173.526   1
  16   3  -3 -28.079 134.827   1
 -16  -3   3 -138.82 116.209   1
 -16   3   3 172.349 134.231   1
  16  -3  -3 298.767 136.462   1
  16  -3  -3 -125.37 142.613   1
  -7   3 -14 173.043 122.302   1
   7   3  14 66.9688 128.026   1
   7  -3  14 177.521 121.294   1
   2   9   3 1674.41 213.357   1
   2  -9   3 1514.73 230.501   1
   2   9   3 1836.51 231.172   1
  -2  -9  -3 1864.30 237.419   1
  -2   9  -3 1145.16 243.073   1
  -2   9  -3 1791.84 225.976   1
   6   4  14 1164.53 148.362   1
  -6   4 -14 678.909 185.027   1
   6  -4  14 657.516 176.519   1
 -12  -6  12 325.849 171.845   1
 -12   6  12 117.045 138.721   1
  12   6 -12 277.552 167.492   1
  12   6 -12 251.219 164.256   1
  12  -6 -12 219.347 150.225   1
 -16  -1  15 959.875 207.557   1
  16   1 -15 1010.34 226.581   1
 -16  -1  15 1559.63 233.539   1
 -16   1  15 1425.83 206.122   1
 -16   1  15 2002.38 267.712   1
  16  -1 -15 1537.87 222.747   1
 -16  -2  14 14216.1 675.497   1
 -16   2  14 14032.9 613.738   1
 -16   2  14 13782.7 622.047   1
 -16  -2  14 13985.8 631.741   1
  16   2 -14 13105.1 635.594   1
  16  -2 -14 14172.7 656.578   1
  -1  -9  -4 657.524 183.139   1
  -1   9  -4 469.078 177.807   1
  -1   9  -4 329.939 204.089   1
   1   9   4 698.761 166.735   1
   1  -9   4 511.982 199.315   1
   1   9   4 605.688 186.581   1
 -10  -5  17 606.188 179.923   1
 -10   5  17 418.988 133.609   1
  10   5 -17 369.922 185.422   1
  10  -5 -17 340.719 149.359   1
 -10  -5  17 412.148 171.490   1
  -2   3 -18 88.6065 122.752   1
   2  -3  18 56.3577 104.913   1
   4   9  -2 545.708 154.972   1
  -4   9   2 308.659 168.723   1
   4  -9  -2 544.934 214.321   1
  -4  -9   2 724.190 209.241   1
  -4   9   2 255.352 180.594   1
   4   9  -2 435.522 193.796   1
 -17  -2   8 255.896 156.924   1
 -17  -2   8 58.4214 153.330   1
 -17   2   8 228.546 159.469   1
 -17   2   8 25.0398 132.265   1
  17  -2  -8 210.464 150.699   1
  17   2  -8 147.439 150.930   1
  13   6  -9 358.307 161.844   1
 -13  -6   9 129.971 162.763   1
 -13   6   9 301.629 155.054   1
  13  -6  -9 300.628 195.056   1
  -5   8  -6 121.370 136.400   1
   5  -8   6 -56.420 127.305   1
   5  -8   6 -31.102 142.175   1
   5   8   6 46.3536 97.1716   1
   5   8   6 208.981 145.155   1
 -13  -6   3 783.981 192.615   1
  13   6  -3 329.329 180.357   1
 -13   6   3 470.074 181.709   1
  13  -6  -3 522.977 204.146   1
  13  -6  -3 644.009 186.135   1
  -1   9   5 234.686 146.873   1
   1   9  -5 334.294 174.016   1
   1  -9  -5 265.538 162.074   1
  -1   9   5 174.023 151.364   1
   1   9  -5 -14.032 153.158   1
  -1  -9   5 172.697 164.231   1
  12  -1 -20 1859.94 224.849   1
 -12  -1  20 1225.22 222.383   1
 -12  -1  20 1490.21 185.424   1
 -12   1  20 1845.84 229.581   1
  12   1 -20 1138.99 239.970   1
 -12   1  20 1902.58 212.964   1
   2   9  -5 -37.400 139.580   1
  -2  -9   5 101.840 141.064   1
  -2   9   5 262.430 134.636   1
  -2   9   5 16.3625 136.230   1
   2  -9  -5 35.3616 124.317   1
   2   9  -5 67.7365 150.986   1
  -3  -5  18 1167.38 170.304   1
   3   5 -18 849.022 212.170   1
   6   3  15 1911.11 208.792   1
   6  -3  15 2121.19 208.176   1
  -6   3 -15 1960.29 200.941   1
 -12   6  -1 8.92441 138.118   1
  12   6   1 -29.434 119.398   1
  12  -6   1 102.615 160.340   1
  12  -6   1 175.687 135.414   1
 -12  -6  -1 43.1691 121.752   1
   4   9  -1 2919.04 283.945   1
  -4  -9   1 2640.66 296.054   1
  -4   9   1 2766.59 271.507   1
   4   9  -1 2681.89 271.342   1
  -4   9   1 2765.68 255.480   1
   4  -9  -1 2819.13 273.280   1
   2   1  19 180.105 94.6766   1
 -10  -1  21 123.024 127.076   1
 -10  -1  21 93.3409 134.224   1
 -10   1  21 49.5405 114.239   1
 -10   1  21 -14.008 134.487   1
  10   1 -21 135.675 140.650   1
  10  -1 -21 55.7879 126.182   1
  -6   7  14 334.141 139.859   1
  -6   7  14 294.441 148.564   1
   6   7 -14 325.207 171.139   1
   6   7 -14 534.409 186.765   1
  -6  -7  14 528.932 176.603   1
 -17  -1   4 2965.47 264.486   1
 -17   1   4 2670.51 271.557   1
  17   1  -4 3402.23 274.638   1
  17   1  -4 2928.36 254.555   1
  17  -1  -4 2510.08 269.979   1
  17  -1  -4 2912.99 253.675   1
   4   2 -21 348.638 141.026   1
  -4   2  21 625.363 139.658   1
  -4  -2  21 366.384 129.754   1
  -4  -2  21 347.357 165.828   1
  16  -3 -12 87.8601 167.455   1
 -16   3  12 232.573 158.985   1
  16   3 -12 258.759 172.251   1
 -16  -3  12 471.114 171.756   1
 -16  -3  12 444.746 182.860   1
 -16   3  12 50.7101 164.004   1
 -17  -2   7 4197.88 323.404   1
  17   2  -7 3837.62 342.364   1
  17  -2  -7 4731.83 327.655   1
 -17   2   7 4194.36 273.278   1
 -17   2   7 4023.38 325.697   1
 -17  -2   7 3573.20 292.585   1
  -8   3 -13 46.7954 101.911   1
   8   3  13 42.1874 103.119   1
   8  -3  13 -185.63 125.256   1
   8  -3  13 -18.912 96.8676   1
  15   3   1 8315.39 463.551   1
  15  -3   1 7507.49 430.030   1
  15  -3   1 7589.52 465.648   1
  15   3   1 8614.14 439.799   1
 -15   3  -1 7533.33 435.467   1
 -15  -3  -1 9308.16 466.633   1
 -10   7  11 15.2510 101.132   1
 -10  -7  11 21.3287 132.681   1
  10   7 -11 64.6818 135.007   1
  10   7 -11 49.8166 137.148   1
  10  -7 -11 31.1185 133.048   1
  -4  -9   3 1812.72 233.187   1
  -4   9   3 2421.65 261.862   1
   4   9  -3 1826.23 259.517   1
   4   9  -3 1871.28 222.374   1
   4  -9  -3 2337.08 244.871   1
  -4   9   3 2311.47 274.557   1
   0  -5  17 44.7309 118.933   1
   0   5  17 6.51770 94.2188   1
   0   5 -17 5.06978 123.667   1
   9   1  13 91.1212 145.967   1
   9  -1  13 1055.41 185.228   1
 -15   1  17 156.610 163.773   1
  15  -1 -17 89.6833 146.720   1
  15   1 -17 153.675 158.261   1
 -15  -1  17 234.016 146.445   1
 -15  -1  17 215.201 170.644   1
  17   2  -9 1.70287 131.787   1
  17  -2  -9 136.267 138.538   1
 -17   2   9 139.240 128.697   1
 -17   2   9 -22.948 140.058   1
 -17  -2   9 45.9902 146.549   1
 -17  -2   9 32.8086 139.480   1
   2   8   9 218.685 135.370   1
  -2   8  -9 50.2302 142.473   1
   2  -8   9 -40.534 139.103   1
   9  -7   4 484.754 189.481   1
   9   7   4 278.945 143.249   1
  -9   7  -4 446.306 194.179   1
  -9  -7  -4 287.600 135.124   1
   9  -7   4 657.356 176.415   1
  -2  -4  19 2168.55 237.417   1
  -2  -4  19 2906.30 246.508   1
   2   4 -19 2564.13 249.876   1
  -8   6  16 116.770 108.306   1
   8  -6 -16 94.6106 113.767   1
   8   6 -16 -2.2411 159.306   1
  -8  -6  16 203.707 142.853   1
  -8   4 -12 17.6396 91.5942   1
   8  -4  12 -121.15 107.380   1
   8  -4  12 68.5905 96.3329   1
   8   4  12 8.25011 78.1915   1
  -3   9  -2 121.400 133.862   1
  -3   9  -2 80.7438 124.101   1
  -3  -9  -2 -52.108 129.871   1
   3   9   2 41.5568 123.218   1
   3   9   2 86.1599 129.841   1
   3  -9   2 -102.45 135.076   1
  -2   0  21 18.9045 107.761   1
  -8   8   8 1974.80 238.611   1
   8  -8  -8 1801.80 208.808   1
   8   8  -8 2123.91 238.011   1
   8   8  -8 2011.51 268.814   1
  -8  -8   8 2034.61 247.349   1
  -8   8   8 1748.36 211.886   1
   3   8 -11 1804.10 239.933   1
   3  -8 -11 1574.47 182.268   1
   3   8 -11 1943.84 278.904   1
  -3  -8  11 2005.31 239.223   1
  -3   8  11 1842.65 180.484   1
  -3   8  11 1854.99 203.842   1
   7   8   3 350.759 200.997   1
   7   8   3 545.155 151.419   1
  -7   8  -3 771.142 200.394   1
  -7  -8  -3 688.016 165.968   1
   7  -8   3 428.411 173.224   1
   7  -8   3 842.213 199.393   1
  11   2  10 2060.16 232.484   1
  11  -2  10 1645.00 230.801   1
  11  -2  10 1824.28 190.087   1
 -11   2 -10 1599.41 202.741   1
   6  -6  11 34.8872 136.774   1
   6  -6  11 -12.466 121.799   1
  -6   6 -11 40.2719 117.042   1
  -2   7  14 46.9524 139.497   1
  -2  -7  14 216.506 141.824   1
   2   7 -14 101.625 148.617   1
  -8  -5  18 616.498 171.691   1
  -8  -5  18 748.228 190.319   1
   8   5 -18 596.845 200.252   1
   5   4  15 6041.38 320.583   1
  -5   4 -15 6327.89 355.198   1
   5  -4  15 5712.01 344.741   1
   4  -8 -11 3896.13 261.053   1
   4   8 -11 4123.19 318.800   1
  -4  -8  11 4304.30 315.433   1
  -4   8  11 3612.38 304.888   1
   4   8 -11 4159.39 344.468   1
  -4   8  11 4020.90 260.211   1
 -13  -5  14 1197.71 225.806   1
  13   5 -14 1535.04 202.575   1
 -13  -5  14 1760.63 254.823   1
 -13   5  14 1627.91 198.262   1
  13  -5 -14 1315.33 253.802   1
  13   5 -14 1621.17 247.048   1
   5  -6  12 2050.55 223.472   1
  -5   6 -12 2163.13 236.654   1
  12  -1   9 2746.32 268.545   1
 -12   1  -9 2837.46 233.409   1
  12  -1   9 2982.20 225.675   1
  12   1   9 2822.16 245.045   1
 -11   4  -8 11.4680 139.223   1
  11   4   8 84.7922 109.965   1
  11  -4   8 140.519 135.411   1
  11  -4   8 -50.157 145.381   1
 -17  -1  12 2552.62 280.618   1
 -17   1  12 3207.72 298.690   1
  17  -1 -12 2579.16 285.749   1
  17   1 -12 2748.27 279.101   1
 -17   1  12 3228.96 276.999   1
 -17  -1  12 3552.77 325.962   1
  13   5   2 2675.15 232.227   1
  13  -5   2 3068.95 286.037   1
  13  -5   2 3010.06 271.555   1
 -13   5  -2 2962.99 320.799   1
 -13  -5  -2 2677.40 236.555   1
  15  -3 -15 520.822 174.660   1
 -15  -3  15 442.237 177.465   1
 -15   3  15 544.950 175.842   1
 -15  -3  15 681.718 220.237   1
 -15   3  15 438.788 161.623   1
  15   3 -15 461.759 194.932   1
  -4  -9   0 2152.58 258.808   1
   4  -9   0 2104.90 261.022   1
   4   9   0 1828.64 202.688   1
  -4   9   0 1575.30 243.215   1
   4   9   0 2212.87 260.931   1
  -4   9   0 2362.67 237.354   1
   0   9  -5 540.035 174.756   1
   0   9  -5 598.766 189.699   1
   0  -9  -5 330.259 179.827   1
   0   9   5 278.957 172.874   1
   0  -9   5 504.776 195.086   1
   0   9   5 325.344 168.907   1
   3  -9  -5 22.4834 115.890   1
  -3   9   5 -66.070 110.755   1
  -3  -9   5 47.2713 113.607   1
  -3   9   5 -38.643 109.192   1
   3   9  -5 50.7543 104.944   1
   3   9  -5 7.19679 115.024   1
 -17   2   6 126.736 146.740   1
  17   2  -6 146.320 134.863   1
  17  -2  -6 36.3055 150.242   1
  17  -2  -6 -53.802 136.474   1
 -17  -2   6 102.778 140.039   1
  10   0  12 2138.41 224.703   1
  11   7  -9 789.035 202.503   1
  11   7  -9 924.144 184.913   1
 -11  -7   9 559.897 191.362   1
  11  -7  -9 655.662 221.804   1
 -11   7   9 619.264 166.667   1
   2   5  16 36.9109 108.917   1
   2  -5  16 -11.741 119.774   1
  -2   5 -16 55.7811 129.020   1
  14   4   2 2727.82 245.711   1
  14  -4   2 2272.20 235.785   1
  14  -4   2 1879.47 277.841   1
 -14  -4  -2 2845.68 241.216   1
 -14   4  -2 1998.03 243.764   1
  14   4   2 2615.79 231.138   1
 -10   7  -2 1869.30 246.645   1
  10  -7   2 2189.45 222.369   1
  10   7   2 2308.88 223.839   1
 -10  -7  -2 2271.52 221.206   1
  10  -7   2 1813.69 249.402   1
  -4  -9   4 402.861 181.342   1
  -4   9   4 386.836 191.895   1
   4   9  -4 437.190 162.991   1
   4   9  -4 452.213 194.764   1
   4  -9  -4 734.852 210.616   1
  -4   9   4 952.049 196.028   1
   2   8 -11 4830.22 363.807   1
   2   8 -11 4838.64 350.696   1
  -2   8  11 4656.59 300.097   1
  -2  -8  11 4448.55 332.957   1
 -17   0   3 165.189 179.815   1
  17   0  -3 276.699 147.593   1
  17   0  -3 128.126 157.596   1
 -17   2  10 1447.96 217.014   1
 -17  -2  10 2007.92 253.212   1
 -17  -2  10 1026.84 223.689   1
  17  -2 -10 1120.70 225.842   1
  17   2 -10 1344.79 213.558   1
 -17   2  10 1313.17 202.145   1
   9   2 -21 399.669 177.046   1
  -9  -2  21 468.959 160.295   1
  -9   2  21 227.593 138.019   1
  -9   2  21 271.281 160.212   1
  -9  -2  21 184.501 161.909   1
   1  -6  15 190.699 143.926   1
  -1   6 -15 287.955 177.972   1
   1   6  15 179.236 147.613   1
  14  -5  -1 133.731 164.482   1
 -14   5   1 334.924 167.102   1
 -14  -5   1 245.961 153.512   1
  14   5  -1 313.276 152.394   1
  14  -5  -1 149.402 167.105   1
  -5   3 -16 578.742 157.010   1
   5  -3  16 581.413 151.449   1
   5   3  16 702.776 167.448   1
  14  -4 -15 590.436 179.607   1
 -14   4  15 841.761 202.936   1
 -14  -4  15 932.318 231.167   1
  14   4 -15 755.281 204.932   1
 -14  -4  15 711.166 189.991   1
  11   7  -1 1294.49 196.059   1
 -11  -7   1 1163.47 198.010   1
  11  -7  -1 794.707 202.068   1
 -11   7   1 747.814 207.586   1
  11  -7  -1 695.762 203.977   1
   7  -6  10 979.807 183.952   1
   7  -6  10 1006.17 260.863   1
  -7   6 -10 1617.19 250.316   1
  -8   8  -1 6293.77 401.619   1
  -8  -8  -1 5861.74 364.931   1
   8  -8   1 5998.34 360.196   1
   8  -8   1 6056.12 405.706   1
   8   8   1 5973.08 359.121   1
   8   8   1 6059.11 418.779   1
  -2  -3  20 161.876 132.029   1
  -2   3  20 164.650 130.527   1
   2   3 -20 72.4385 122.290   1
  -2  -3  20 53.5716 116.625   1
 -10   5  -8 108.384 141.645   1
  10  -5   8 132.828 152.774   1
  14   5 -12 903.556 190.152   1
  14  -5 -12 498.440 194.463   1
 -14  -5  12 823.130 192.580   1
 -14   5  12 679.468 177.069   1
   9   3  12 851.556 178.866   1
  -9   3 -12 907.354 178.659   1
   9  -3  12 815.857 170.514   1
   9  -3  12 769.889 214.608   1
  -8   7  -6 1115.50 228.858   1
   8  -7   6 959.787 199.456   1
   8  -7   6 1467.01 216.106   1
   9   8  -4 4578.65 369.312   1
   9  -8  -4 4678.00 301.233   1
  -9  -8   4 4520.58 372.271   1
  -9   8   4 4602.02 328.791   1
   9   8  -4 4792.21 335.061   1
   6   8   5 163.511 119.378   1
   6   8   5 382.208 165.140   1
  -6  -8  -5 197.300 141.780   1
  -6   8  -5 192.383 165.796   1
   6  -8   5 266.651 161.211   1
   6  -8   5 2.31304 145.575   1
 -11   6  14 5140.75 323.659   1
 -11  -6  14 4445.82 328.348   1
  11   6 -14 4495.43 309.893   1
  11  -6 -14 4966.33 343.321   1
  11   6 -14 4885.68 361.900   1
  10  -6 -15 1257.81 199.805   1
  10   6 -15 1162.38 178.448   1
  10   6 -15 960.340 236.901   1
 -10   6  15 1190.95 184.988   1
 -10  -6  15 1406.01 212.000   1
  15   4  -1 246.666 149.638   1
 -15   4   1 217.632 155.581   1
  15  -4  -1 111.911 148.195   1
 -15  -4   1 83.9086 158.141   1
  15  -4  -1 86.2376 164.352   1
   4  -6  13 95.9341 113.564   1
  -4   6 -13 -36.624 116.939   1
   5   8 -11 190.148 159.078   1
   5  -8 -11 47.9527 131.910   1
   5   8 -11 135.552 178.621   1
  -5  -8  11 363.896 158.066   1
  -5   8  11 43.0637 127.297   1
  -5   8  11 124.637 122.144   1
  -2  -1  21 2929.72 239.728   1
  -2   1  21 2657.04 241.622   1
  13   3 -18 -0.0450 148.286   1
 -13  -3  18 115.915 141.070   1
 -13  -3  18 137.391 164.859   1
 -13   3  18 80.6779 154.219   1
 -13   3  18 181.113 139.332   1
  13  -3 -18 183.700 151.832   1
  10  -3 -20 4472.35 281.438   1
  10   3 -20 4227.83 356.966   1
 -10  -3  20 4342.04 330.966   1
 -10  -3  20 4061.75 317.695   1
 -10   3  20 4297.14 269.844   1
 -10   3  20 4810.30 318.360   1
  14  -2   5 399.136 151.051   1
  14   2   5 17.8640 117.024   1
  14  -2   5 180.112 146.321   1
  14   2   5 167.431 127.974   1
 -14   2  -5 242.857 158.560   1
 -14  -2  -5 40.9648 123.393   1
   9   8  -5 -34.187 121.014   1
   9   8  -5 5.41561 123.343   1
  -9   8   5 -15.249 116.984   1
  -9  -8   5 90.8137 117.887   1
  13   3   6 2372.31 239.026   1
 -13   3  -6 2259.48 222.044   1
  13  -3   6 2226.97 255.846   1
  13  -3   6 2288.40 247.254   1
  13   6 -10 103.415 165.872   1
  13   6 -10 141.471 151.514   1
 -13  -6  10 49.4676 150.235   1
 -13   6  10 115.089 134.474   1
  13  -6 -10 132.560 141.767   1
  13  -6  -2 -60.631 137.775   1
  13  -6  -2 -12.196 129.745   1
 -13  -6   2 73.6395 140.417   1
  13   6  -2 219.414 136.057   1
 -13   6   2 91.8395 139.180   1
  16   0   1 -6.9562 140.790   1
  16   0   1 165.458 136.269   1
 -16   0  -1 41.0188 125.046   1
  -1   6  16 183.021 126.598   1
   1   6 -16 208.705 146.442   1
  -1  -6  16 75.1041 132.986   1
 -17   0  13 206.885 141.752   1
 -17   0  13 -5.5355 146.168   1
  17   0 -13 176.680 152.285   1
   9   8  -3 808.251 224.956   1
   9  -8  -3 930.823 203.411   1
   9  -8  -3 1018.47 215.114   1
  -9  -8   3 1067.47 229.511   1
  -9   8   3 833.851 204.096   1
   9   8  -3 950.516 235.012   1
   7  -7 -14 3179.21 236.761   1
  -7   7  14 3059.67 236.413   1
  -7   7  14 3106.52 249.852   1
   7   7 -14 3520.84 317.617   1
   7   7 -14 3125.89 280.811   1
  -7  -7  14 3281.39 285.282   1
   4   9   1 78.4027 148.961   1
   4  -9   1 304.561 169.372   1
  -4  -9  -1 100.938 158.688   1
  -4   9  -1 194.644 151.331   1
  -4   9  -1 140.133 155.885   1
  -9   4 -11 278.966 157.771   1
   9   4  11 157.333 117.382   1
   9  -4  11 142.941 175.218   1
 -13  -2  19 2166.01 254.592   1
 -13   2  19 1576.27 185.344   1
 -13   2  19 1385.87 230.016   1
  13   2 -19 1572.58 235.669   1
  13  -2 -19 1995.53 242.937   1
 -13  -2  19 1711.77 207.761   1
  -2   9  -4 -43.425 149.378   1
  -2  -9  -4 15.0895 138.767   1
  -2   9  -4 119.053 141.035   1
   2   9   4 7.20731 131.334   1
   2  -9   4 64.4232 151.377   1
   2   9   4 244.319 138.649   1
 -15  -4  13 261.489 118.068   1
  15   4 -13 -69.005 120.902   1
 -15  -4  13 -167.32 125.596   1
 -15   4  13 48.9347 109.200   1
  15  -4 -13 -55.954 112.790   1
  17   2  -5 169.084 155.883   1
 -17  -2   5 189.508 169.187   1
  17  -2  -5 402.007 179.795   1
  17  -2  -5 334.759 163.851   1
 -17   2   5 411.827 178.206   1
 -14  -2  18 372.376 179.577   1
 -14   2  18 161.153 159.805   1
 -14   2  18 125.366 128.144   1
  14   2 -18 249.059 163.776   1
  14  -2 -18 205.540 134.874   1
 -14  -2  18 123.778 145.450   1
 -13   2  -7 2411.86 245.015   1
  13   2   7 2145.47 247.127   1
  13  -2   7 2099.53 228.065   1
  13  -2   7 2561.51 257.481   1
  -1   8 -10 873.268 202.715   1
   1  -8  10 420.469 191.559   1
   1   8  10 806.576 212.866   1
  10  -1  12 340.001 159.309   1
  10   1  12 226.119 143.870   1
 -16  -3   2 337.585 182.124   1
  16  -3  -2 339.774 176.951   1
  16  -3  -2 325.672 188.919   1
 -16   3   2 576.508 183.519   1
  16   3  -2 317.112 179.416   1
  14  -3   4 255.703 186.632   1
  14  -3   4 331.019 181.603   1
  14   3   4 604.269 165.050   1
 -14   3  -4 454.447 163.378   1
 -14  -3  -4 361.250 146.823   1
  14   3   4 456.370 140.304   1
   1  -7  13 2194.26 245.973   1
   1   7  13 2108.52 252.216   1
  -1   7 -13 2470.40 252.460   1
   7   8 -10 959.449 204.005   1
   7  -8 -10 1210.94 204.351   1
  -7  -8  10 1620.01 226.897   1
  -7   8  10 952.887 181.599   1
  -7   8  10 1338.79 199.965   1
 -11   0  21 245.919 153.352   1
 -11   0  21 258.222 153.523   1
  11   0 -21 204.534 161.381   1
   2   5 -18 643.296 199.692   1
  -2  -5  18 797.192 164.675   1
  -3  -2  21 420.663 160.760   1
  -3   2  21 489.690 136.725   1
 -11   6  -4 328.587 175.341   1
  11  -6   4 193.275 161.601   1
  11  -6   4 337.875 160.929   1
  11   6   4 272.029 129.208   1
   6  -5  13 220.154 157.568   1
  -6   5 -13 203.991 174.367   1
  17   1  -3 2199.10 238.640   1
  17  -1  -3 1418.42 231.719   1
  17   1  -3 1446.95 203.052   1
  17  -1  -3 2161.21 225.768   1
 -17   1   3 1760.19 229.095   1
 -17  -1   3 1735.58 220.046   1
  -2   9   6 27.6084 111.330   1
  -2   9   6 -104.67 110.805   1
   2  -9  -6 68.4992 119.334   1
  -2  -9   6 56.9404 123.062   1
   2   9  -6 5.23815 127.642   1
   2   9  -6 24.6034 115.741   1
  -1   9  -5 30.0218 136.087   1
  -1  -9  -5 -12.430 128.705   1
  -1   9  -5 -19.533 144.433   1
   1  -9   5 110.003 150.209   1
   1   9   5 192.470 128.823   1
   1   9   5 44.9818 140.325   1
   4  -4  16 2283.89 228.254   1
   4   4  16 2223.54 203.180   1
  -4   4 -16 2513.75 235.429   1
   9   8  -6 215.471 139.497   1
   9  -8  -6 -27.089 154.118   1
  -9  -8   6 -14.515 130.288   1
  -9   8   6 29.7773 124.756   1
   9   8  -6 -16.791 131.103   1
  -3   9  -3 209.461 166.324   1
  -3  -9  -3 27.6470 161.400   1
   3  -9   3 485.279 176.409   1
   3   9   3 303.384 163.564   1
   3   9   3 191.463 150.619   1
  -3   9  -3 242.307 170.253   1
   4   9  -5 147.895 135.574   1
  -4  -9   5 228.499 149.573   1
   4   9  -5 -87.033 156.609   1
  -4   9   5 16.5450 125.708   1
  -4   9   5 170.195 147.360   1
   4  -9  -5 132.679 128.410   1
  17  -2 -11 3063.70 294.756   1
  17   2 -11 3822.04 289.960   1
 -17   2  11 2885.03 274.415   1
 -17   2  11 3276.33 283.605   1
 -17  -2  11 3316.66 331.224   1
 -17  -2  11 3501.16 296.048   1
   1   8 -11 164.222 161.532   1
  -1  -8  11 17.9095 153.145   1
  -1   8  11 175.667 133.274   1
   1   8 -11 105.934 139.075   1
 -14  -3  17 -19.507 128.602   1
 -14  -3  17 -44.223 159.486   1
  14   3 -17 -117.46 150.940   1
  14  -3 -17 224.242 153.837   1
 -14   3  17 57.4379 146.056   1
 -14   3  17 238.639 116.664   1
   7  -5  12 147.034 140.141   1
   7  -5  12 4.79029 152.041   1
  -7   5 -12 34.5711 155.712   1
  -1   9   6 1485.04 214.680   1
   1   9  -6 1661.26 226.963   1
   1  -9  -6 1117.75 217.511   1
   1   9  -6 2063.46 249.799   1
  -1   9   6 1366.23 213.410   1
  -1  -9   6 1551.01 238.848   1
  10  -4 -19 636.220 145.703   1
 -10   4  19 486.537 142.987   1
 -10  -4  19 496.935 199.915   1
 -10  -4  19 379.263 200.334   1
  10   4 -19 310.013 186.766   1
 -12   3  19 139.427 159.848   1
 -12  -3  19 268.175 167.519   1
 -12   3  19 286.970 137.444   1
  12  -3 -19 255.303 145.754   1
  12   3 -19 118.251 155.512   1
 -12  -3  19 -7.7182 142.383   1
  16   2   0 5995.71 359.864   1
 -16   2   0 5587.85 386.394   1
  16  -2   0 5718.93 413.046   1
  16  -2   0 5475.11 380.035   1
 -16  -2   0 6686.40 404.931   1
  16   2   0 5724.88 372.457   1
   7   2  15 3688.13 285.456   1
   9  -8  -2 2336.30 267.220   1
   9  -8  -2 2131.64 229.745   1
   9   8  -2 2069.09 276.772   1
   9   8  -2 2057.24 269.780   1
  -9   8   2 2414.21 251.143   1
  -9  -8   2 1830.69 265.675   1
 -16   0  16 875.576 192.977   1
 -16   0  16 654.171 205.685   1
  16   0 -16 655.151 208.513   1
  -1   7  14 774.744 200.602   1
   1   7 -14 423.760 205.934   1
  -1  -7  14 1460.95 201.279   1
 -16   3  13 1178.65 244.267   1
 -16   3  13 2000.41 229.461   1
  16   3 -13 1755.22 246.922   1
  16  -3 -13 1743.24 243.358   1
 -16  -3  13 1712.03 239.065   1
 -16  -3  13 1926.25 256.123   1
  -7   0  22 32.3927 115.171   1
   5  -7  10 1612.19 225.827   1
   5  -7  10 813.210 207.648   1
   5   7  10 2136.30 230.547   1
  -5   7 -10 1596.19 227.219   1
 -10   6  -6 536.512 177.956   1
  10  -6   6 428.266 182.245   1
  10  -6   6 648.453 180.219   1
  -6   0  22 2166.42 219.765   1
   8   2  14 40.0282 126.291   1
   8  -2  14 24.9936 133.246   1
   8   8  -9 108.430 151.893   1
   8   8  -9 80.4020 132.137   1
   8  -8  -9 98.6863 143.609   1
  -8  -8   9 -19.675 140.790   1
  -8   8   9 12.5911 118.731   1
   8  -6   9 2692.81 251.099   1
   8  -6   9 2516.52 319.122   1
  -8   6  -9 2464.43 272.901   1
  -3  -9   6 -69.103 150.692   1
  -3   9   6 215.432 143.153   1
   3  -9  -6 295.862 148.464   1
   3   9  -6 107.716 143.609   1
  -3   9   6 75.0588 142.749   1
   3   9  -6 -69.055 152.582   1
   1   4  18 390.448 153.994   1
  -1   4 -18 533.099 158.301   1
   1  -4  18 343.779 156.481   1
  14   0   6 18021.9 741.219   1
  14   0   6 18441.8 790.859   1
 -14   0  -6 18727.7 771.393   1
   5  -5  14 3410.35 254.482   1
  -5   5 -14 3279.76 260.537   1
  -5  -9   2 1370.12 212.847   1
   5  -9  -2 1082.30 224.099   1
  -5   9   2 1398.05 214.496   1
  -5   9   2 1470.87 206.904   1
   5   9  -2 1079.90 243.987   1
   5   9  -2 1465.92 231.710   1
 -16   1  -1 988.025 227.076   1
  16  -1   1 987.566 220.916   1
  16  -1   1 834.484 201.761   1
  16   1   1 845.181 206.283   1
  16   1   1 1355.91 194.436   1
 -16  -1  -1 1099.39 207.814   1
 -17  -1  13 1378.29 234.111   1
  17   1 -13 2161.44 260.204   1
  17  -1 -13 1815.72 247.590   1
 -17  -1  13 1755.17 242.676   1
 -17   1  13 2070.40 239.715   1
 -17   1  13 1936.83 256.724   1
  -5  -9   3 430.139 188.829   1
   5  -9  -3 783.098 182.864   1
   5   9  -3 343.284 161.155   1
   5   9  -3 476.368 196.195   1
  -5   9   3 563.842 187.536   1
  -5   9   3 856.276 214.415   1
   9   5 -18 1571.77 239.269   1
  -9   5  18 1307.85 163.870   1
  -9  -5  18 1614.90 211.024   1
  -9  -5  18 1812.56 231.040   1
   0   2  20 162.461 115.737   1
   0  -2  20 117.551 117.782   1
  11   7 -10 259.854 164.174   1
  11   7 -10 172.280 141.318   1
 -11  -7  10 168.505 160.386   1
 -11   7  10 155.925 133.266   1
  11  -7 -10 83.8676 176.658   1
 -12   3  -8 581.486 183.308   1
  12  -3   8 544.786 189.290   1
  12  -3   8 573.063 179.238   1
  12   3   8 307.914 165.286   1
   4   7  11 1614.47 210.155   1
  -4   7 -11 1365.67 224.658   1
   4  -7  11 1504.62 212.654   1
  15  -2   3 3294.20 282.165   1
  15  -2   3 2525.73 246.338   1
  15   2   3 3458.40 261.739   1
  15   2   3 3437.91 255.389   1
 -15  -2  -3 3097.84 258.778   1
 -15   2  -3 2674.43 255.580   1
 -16  -4   7 2964.51 270.799   1
 -16   4   7 2050.36 250.618   1
  16  -4  -7 2357.85 273.509   1
  16  -4  -7 2209.13 272.164   1
  16   4  -7 2475.53 249.402   1
 -16   4   7 1853.04 206.864   1
   4  -3  17 144.026 134.726   1
  -9  -7  13 1678.56 229.654   1
  -9   7  13 1716.94 208.292   1
   9   7 -13 1677.31 255.556   1
   9  -7 -13 1810.60 213.016   1
   9   7 -13 855.050 221.081   1
  16  -4  -8 310.685 187.561   1
 -16  -4   8 459.509 183.419   1
  16   4  -8 338.152 167.403   1
 -16   4   8 381.939 150.651   1
 -16   4   8 464.446 172.014   1
   6  -7   9 82.8728 145.897   1
   6  -7   9 83.4509 146.171   1
   6   7   9 240.447 153.369   1
  -6   7  -9 250.730 159.265   1
   6   2  16 363.806 135.508   1
 -12  -6  13 4.44809 122.552   1
  12   6 -13 -17.091 110.689   1
  12  -6 -13 17.4136 105.744   1
 -12   6  13 -47.540 118.992   1
  12   6 -13 1.83429 121.110   1
 -14   0  19 -38.231 101.519   1
 -14   0  19 -66.437 120.513   1
  14   0 -19 116.501 107.485   1
   3  -6  14 1494.00 187.747   1
  -3   6 -14 875.128 198.789   1
   3   6  14 1539.07 222.144   1
  -9   6  16 929.476 178.399   1
   9  -6 -16 1635.19 195.718   1
  -9  -6  16 1806.50 220.283   1
   9   6 -16 1145.74 248.444   1
  -6   8  11 1778.49 203.112   1
   6   8 -11 2271.33 276.214   1
  -6   8  11 1873.30 244.585   1
  -6  -8  11 2053.41 249.831   1
   6  -8 -11 1821.48 213.412   1
   6   8 -11 1681.31 250.883   1
   1   0  20 -11.899 81.0800   1
  -5   9   1 2979.03 290.904   1
  -5   9   1 3046.23 286.068   1
   5  -9  -1 3113.15 306.262   1
   5   9  -1 3840.51 312.686   1
   5   9  -1 3907.01 326.854   1
  -5  -9   1 3920.63 288.185   1
 -16   2  15 568.278 167.039   1
  16  -2 -15 431.594 178.003   1
 -16   2  15 411.084 166.336   1
 -16  -2  15 322.975 163.013   1
 -16  -2  15 67.5230 237.349   1
  16   2 -15 292.335 186.197   1
  -5   6  17 1717.34 205.211   1
   5   6 -17 1423.15 232.858   1
  -5  -6  17 1866.39 216.810   1
  11  -1 -21 1264.71 193.953   1
 -11   1  21 848.162 200.368   1
 -11  -1  21 970.741 205.547   1
 -11  -1  21 1635.07 200.700   1
  11   1 -21 863.310 222.741   1
 -11   1  21 998.904 186.193   1
 -15  -5   7 4418.81 319.162   1
  15   5  -7 4704.72 319.937   1
  15  -5  -7 3969.65 323.300   1
 -15   5   7 5050.54 328.010   1
  15  -5  -7 3587.21 321.537   1
   8  -5  11 20.4199 113.820   1
   8  -5  11 10.2141 118.822   1
  -8   5 -11 -36.691 102.248   1
   9   8  -7 38.5882 139.212   1
  -9  -8   7 56.8220 141.946   1
  -9   8   7 61.9982 152.298   1
   9   8  -7 78.0034 143.003   1
   9  -8  -7 35.2973 127.235   1
  -8   0  22 109.539 120.891   1
  -8   0  22 -9.4050 125.865   1
   0  -9   6 203.821 181.951   1
   0   9   6 345.762 173.849   1
   0   9   6 446.503 147.493   1
   0   9  -6 184.786 176.939   1
   0   9  -6 388.239 188.408   1
   0  -9  -6 367.474 170.529   1
  10  -3  11 817.602 167.566   1
  10  -3  11 553.851 188.519   1
  10   3  11 486.452 178.577   1
 -10   3 -11 638.128 172.309   1
  11   7   0 519.456 169.252   1
 -11  -7   0 857.096 167.347   1
  11  -7   0 189.977 175.817   1
  11  -7   0 300.941 161.163   1
 -11   7   0 222.501 184.718   1
  11   0  11 222.569 151.876   1
  -1  -4  19 1208.71 175.955   1
   1   4 -19 682.834 187.611   1
  12  -2 -20 2180.69 240.915   1
 -12  -2  20 2386.51 220.101   1
 -12  -2  20 1669.50 252.863   1
 -12   2  20 2181.83 223.039   1
 -12   2  20 2033.81 256.317   1
  12   2 -20 2033.41 279.139   1
  12  -6   2 79.7386 140.511   1
  12  -6   2 44.2317 140.298   1
 -12  -6  -2 141.949 123.292   1
 -12   6  -2 -37.025 143.249   1
  12   6   2 91.0486 121.534   1
  -6  -4  20 3415.28 253.838   1
  -6  -4  20 3331.57 268.862   1
   6   4 -20 3233.68 274.244   1
   4   9   2 47.4232 139.007   1
   4  -9   2 199.067 161.933   1
  -4  -9  -2 27.2856 142.187   1
  -4   9  -2 350.589 149.661   1
  -4   9  -2 1.86168 141.098   1
   4   9   2 -52.868 139.875   1
 -12   5  16 207.237 143.108   1
 -12  -5  16 50.2996 150.284   1
  12   5 -16 90.8469 171.119   1
 -12  -5  16 176.854 166.376   1
  12  -5 -16 139.524 146.982   1
  -5   0  22 40.7481 135.124   1
   5   9  -4 1841.98 221.049   1
   5  -9  -4 1964.87 230.411   1
   5   9  -4 2083.73 262.257   1
  -5   9   4 1824.90 237.099   1
  -5   9   4 1557.19 217.545   1
  -5  -9   4 2031.77 289.325   1
  15   0   4 -264.22 132.786   1
  15   0   4 -18.191 133.571   1
 -15   0  -4 36.2579 144.717   1
  16   4  -6 2141.83 222.766   1
  16  -4  -6 1683.32 243.325   1
  16  -4  -6 1576.29 235.764   1
 -16   4   6 1665.65 243.790   1
 -16   4   6 1530.37 184.607   1
 -16  -4   6 1599.34 275.726   1
   2   2  19 1069.36 140.382   1
 -10  -7  12 364.297 188.284   1
  10   7 -12 281.514 193.852   1
  10  -7 -12 708.027 192.008   1
 -10   7  12 546.714 143.269   1
  10   7 -12 591.619 198.922   1
  15   5  -6 3150.01 323.501   1
 -15  -5   6 3021.10 275.695   1
  15  -5  -6 3524.94 301.137   1
 -15   5   6 2966.30 280.475   1
  15  -5  -6 3122.61 296.916   1
 -10  -2  21 416.771 156.317   1
  10  -2 -21 88.3996 138.817   1
  10   2 -21 254.015 184.235   1
 -10   2  21 275.380 135.757   1
 -10   2  21 157.323 161.280   1
 -10  -2  21 618.646 165.012   1
 -17  -2   4 680.853 214.805   1
 -17   2   4 664.121 195.467   1
  17  -2  -4 499.463 195.213   1
  17  -2  -4 91.1543 175.977   1
  17   2  -4 503.501 167.062   1
 -15  -5   8 2065.41 247.710   1
  15   5  -8 2179.12 249.611   1
  15  -5  -8 2011.52 269.834   1
 -15   5   8 2728.92 255.689   1
  -6  -6  17 1562.34 221.181   1
  17   0  -2 103.168 111.459   1
  17   0  -2 -62.395 117.103   1
 -17   0   2 -3.8392 110.934   1
  16  -4  -9 -68.277 150.890   1
 -16   4   9 -12.816 130.158   1
 -16   4   9 132.481 142.839   1
 -16  -4   9 155.391 149.165   1
  16   4  -9 226.730 142.035   1
   9   2  13 1011.35 172.702   1
   9  -2  13 1462.94 187.847   1
   9  -2  13 1581.95 224.620   1
  -4   6  17 845.462 152.088   1
  -4  -6  17 555.362 175.792   1
   4   6 -17 467.326 225.008   1
  15  -2 -17 51.6342 146.983   1
 -15  -2  17 23.5177 154.491   1
 -15  -2  17 193.229 176.801   1
 -15   2  17 170.790 134.217   1
  15   2 -17 427.410 163.330   1
 -15   2  17 130.428 154.574   1
 -16  -1  16 116.021 137.444   1
 -16  -1  16 92.0136 149.368   1
 -16   1  16 45.4103 129.504   1
 -16   1  16 90.5554 171.097   1
  16   1 -16 10.0953 146.166   1
  16  -1 -16 38.7239 141.729   1
   7   8   4 -27.165 101.103   1
   7  -8   4 -105.43 126.564   1
  -7  -8  -4 114.422 108.694   1
   7   8   4 159.452 136.805   1
  -7   8  -4 -47.560 135.747   1
   7  -8   4 55.2042 119.378   1
   8   8   2 2216.21 236.714   1
   8   8   2 2558.12 293.542   1
   8  -8   2 2186.96 286.358   1
   8  -8   2 3056.22 255.286   1
  -8  -8  -2 2460.62 235.512   1
  -8   8  -2 2808.94 290.507   1
 -13   0  20 -70.552 137.097   1
  13   0 -20 114.698 120.986   1
 -13   0  20 52.6286 133.574   1
  -5  -4  20 2994.78 297.144   1
   5   4 -20 2577.65 283.081   1
  -5  -4  20 3475.96 276.016   1
   4  -8   8 441.696 165.877   1
  -4   8  -8 42.6877 169.994   1
   4  -8   8 292.144 170.056   1
   4   8   8 323.434 173.665   1
 -13  -6  11 3979.61 330.449   1
  13   6 -11 3995.34 346.053   1
  13   6 -11 4425.94 331.799   1
  13  -6 -11 4272.58 319.798   1
 -13   6  11 4659.78 309.293   1
   7   1 -22 4746.38 342.618   1
  -7  -1  22 4842.33 320.686   1
  -7   1  22 4748.07 359.386   1
  -7  -1  22 4475.20 278.938   1
   9   8  -1 319.234 208.680   1
   9   8  -1 697.626 196.575   1
  -9  -8   1 839.757 192.687   1
   9  -8  -1 385.473 174.709   1
   9  -8  -1 441.404 192.200   1
  -9   8   1 193.614 184.218   1
  -6   1  22 426.802 150.301   1
  -6  -1  22 278.980 150.703   1
 -13  -6   1 -2.3883 132.715   1
  13   6  -1 131.688 127.643   1
  13  -6  -1 58.4654 132.728   1
 -13   6   1 66.9582 132.926   1
  13  -6  -1 -3.0520 132.115   1
   7   4 -20 1858.67 225.296   1
  -7  -4  20 2111.08 232.755   1
  -7  -4  20 2177.05 209.310   1
  13   0   8 -66.683 124.444   1
  13   0   8 2.36759 105.771   1
 -13   0  -8 -48.628 106.972   1
   1  -3  19 2593.32 210.004   1
   1  -3  19 2661.97 236.188   1
   1   3  19 2627.55 207.632   1
  11  -5 -17 1590.20 213.739   1
 -11  -5  17 2874.62 270.472   1
  11   5 -17 1865.03 262.533   1
 -11  -5  17 1822.47 242.604   1
 -11   5  17 1720.22 211.476   1
  14  -1   6 233.937 163.361   1
  14   1   6 414.677 201.178   1
  14  -1   6 258.283 166.426   1
  14   1   6 496.125 140.885   1
 -14  -1  -6 531.167 148.568   1
 -14   1  -6 318.308 171.729   1
  12   5   5 85.3220 97.5756   1
  12  -5   5 13.4070 119.764   1
  12  -5   5 -35.928 132.886   1
 -12   5  -5 -15.850 124.734   1
  -1   0  21 179.202 121.870   1
   6   3 -21 2510.44 266.812   1
  -6  -3  21 2157.70 220.324   1
  -6   3  21 3092.41 286.456   1
  -6  -3  21 2425.76 241.277   1
 -14  -5   0 174.447 163.658   1
 -14   5   0 333.095 173.419   1
  14   5   0 296.269 164.366   1
  14  -5   0 460.439 178.542   1
  14  -5   0 507.588 180.258   1
  13  -4 -17 2761.84 272.025   1
  13   4 -17 3006.28 284.189   1
 -13   4  17 2609.13 253.633   1
 -13  -4  17 3001.26 267.960   1
 -13  -4  17 2740.12 310.180   1
  -4   9   6 -12.223 111.425   1
   4   9  -6 18.6636 140.692   1
  -4   9   6 118.140 132.351   1
   4   9  -6 50.3837 124.344   1
   4  -9  -6 48.3403 144.062   1
  -4  -9   6 32.1024 137.692   1
  12   2   9 400.840 138.668   1
 -12   2  -9 244.587 145.195   1
  12  -2   9 448.260 167.736   1
  12  -2   9 105.810 138.985   1
  -5  -9   0 277.969 159.218   1
  -5   9   0 85.3380 148.952   1
   5   9   0 167.886 147.207   1
  -5   9   0 166.114 151.873   1
   5   9   0 -18.471 157.286   1
   5  -9   0 -18.178 161.912   1
 -17   2  12 854.081 205.453   1
 -17   2  12 892.889 195.939   1
  17  -2 -12 753.100 209.765   1
  17   2 -12 846.468 202.240   1
 -17  -2  12 1111.66 208.561   1
 -17  -2  12 693.563 239.056   1
  13  -4   5 700.229 210.825   1
  13  -4   5 1441.77 182.831   1
  13   4   5 447.350 172.789   1
 -13   4  -5 681.843 218.813   1
 -10   4 -10 124.411 147.072   1
  10  -4  10 110.530 136.706   1
  10  -4  10 -101.86 149.493   1
  10   4  10 108.833 110.214   1
   3  -8   9 226.322 151.992   1
  -3   8  -9 207.408 164.657   1
   3   8   9 100.714 190.934   1
   3   7  12 1761.63 245.061   1
  -3   7 -12 929.362 215.828   1
   3  -7  12 1474.64 198.327   1
   7   3 -21 274.132 164.486   1
  -7  -3  21 93.4065 130.715   1
  -7   3  21 84.7562 134.688   1
  -7  -3  21 82.4986 137.031   1
   4  -5  15 290.751 155.543   1
  -4   5 -15 -6.0930 153.265   1
  15   0 -18 74.4789 110.746   1
 -15   0  18 10.5711 120.051   1
 -15   0  18 -75.480 112.413   1
  15   5  -5 221.915 162.048   1
 -15  -5   5 351.455 198.269   1
  15  -5  -5 330.272 179.102   1
 -15   5   5 692.298 185.060   1
  15  -5  -5 224.936 181.023   1
 -12   4  18 4478.59 299.951   1
 -12  -4  18 4473.72 368.825   1
  12  -4 -18 4198.28 314.563   1
  12   4 -18 4926.68 354.217   1
 -12  -4  18 4380.34 317.082   1
  15   3   2 23055.1 927.918   1
  15  -3   2 22263.3 984.986   1
  15  -3   2 21631.9 913.841   1
  15   3   2 22679.4 954.880   1
 -15   3  -2 23160.5 1013.98   1
 -15  -3  -2 21853.6 914.588   1
 -14   5  13 3754.39 325.633   1
  14   5 -13 3680.79 303.113   1
  14   5 -13 3304.23 297.522   1
  14  -5 -13 3618.85 311.087   1
 -14  -5  13 3654.80 321.914   1
  -5   8  -7 1029.22 222.197   1
   5   8   7 938.433 225.253   1
   5  -8   7 1888.95 231.734   1
   5  -8   7 1482.19 220.477   1
 -14   1  19 2305.61 248.143   1
 -14   1  19 1737.28 253.858   1
 -14  -1  19 1547.64 262.538   1
  14   1 -19 2025.78 239.925   1
  14  -1 -19 2068.62 232.061   1
 -14  -1  19 2074.44 229.333   1
   7  -7   8 1.93691 172.987   1
   7  -7   8 169.604 142.796   1
  -7   7  -8 102.257 157.657   1
  15   5  -9 -20.960 144.474   1
 -15  -5   9 104.928 149.043   1
  15  -5  -9 272.097 154.491   1
 -15   5   9 35.3765 141.603   1
   8  -7 -14 39.9793 124.931   1
  -8   7  14 37.3523 114.092   1
  -8   7  14 21.3715 120.545   1
  -8  -7  14 191.310 148.939   1
   8   7 -14 82.6089 136.512   1
   8   7 -14 192.346 158.425   1
   1  -1  20 14.3673 101.956   1
   1   1  20 174.135 100.764   1
  10  -7   3 151.747 148.708   1
  10  -7   3 47.5711 160.724   1
 -10  -7  -3 185.734 125.639   1
 -10   7  -3 114.236 152.862   1
  10   7   3 -21.240 127.293   1
 -16  -4   5 171.446 145.590   1
  16  -4  -5 123.523 146.217   1
 -16   4   5 42.3760 154.833   1
  16   4  -5 80.7317 166.531   1
  16  -4  -5 115.345 163.946   1
  -1   5 -17 1658.57 197.576   1
   1  -5  17 1731.38 229.278   1
   1   5  17 1738.38 194.905   1
   0   8  11 1821.24 263.586   1
   0  -8  11 1961.50 245.778   1
   0   8 -11 1499.41 250.855   1
 -17   0  14 123.644 169.634   1
  17   0 -14 62.4304 157.683   1
  -2   9  -5 1844.91 237.519   1
   2  -9   5 1812.78 263.371   1
  -2   9  -5 1801.80 248.426   1
  -2  -9  -5 2247.09 236.889   1
   2   9   5 2138.86 249.213   1
   2   9   5 1951.23 220.293   1
  -9   7  -5 545.402 216.866   1
   9  -7   5 541.392 218.473   1
   9  -7   5 797.606 197.526   1
  -8   1  22 429.353 183.735   1
  -8  -1  22 607.624 181.673   1
   8   1 -22 847.623 185.892   1
  -8  -1  22 838.766 166.080   1
  -5   3  21 825.877 214.609   1
   5   3 -21 850.643 191.965   1
  -5  -3  21 1457.28 176.655   1
  -5  -3  21 698.724 183.176   1
  -5  -9   5 1412.03 222.607   1
  -5   9   5 1000.26 240.327   1
   5   9  -5 999.620 236.570   1
   5   9  -5 1681.94 249.637   1
   5  -9  -5 996.471 204.247   1
  -5   9   5 1566.58 219.092   1
  11  -1  11 3310.93 286.213   1
  11   1  11 3685.51 277.631   1
 -15  -4   0 1451.44 222.149   1
  15  -4   0 1305.96 209.898   1
 -15   4   0 1234.31 231.828   1
  15   4   0 1653.81 208.379   1
  15  -4   0 1134.46 240.311   1
  -1   3  20 2740.60 232.839   1
  -1  -3  20 2254.81 216.076   1
   1   3 -20 2353.71 221.220   1
  -1  -3  20 2570.42 226.606   1
  -3  -9  -4 1641.69 237.796   1
  -3   9  -4 2342.74 253.409   1
   3   9   4 2086.29 229.480   1
   3   9   4 2193.88 248.411   1
   3  -9   4 1857.46 265.587   1
  -3   9  -4 2154.88 256.732   1
  -5  -1  22 2796.35 265.664   1
  -5   1  22 2860.95 276.393   1
 -15  -1  -4 57.0657 130.848   1
  15   1   4 235.480 163.937   1
  15  -1   4 126.111 150.808   1
  15  -1   4 126.959 112.776   1
  15   1   4 -50.451 128.269   1
 -15   1  -4 136.436 150.143   1
 -16   4  10 1469.96 221.681   1
 -16   4  10 1853.74 236.300   1
 -16  -4  10 1837.91 247.163   1
  16   4 -10 2035.89 234.120   1
  16  -4 -10 1486.72 248.528   1
 -12  -7   6 614.988 227.252   1
  12   7  -6 541.005 178.314   1
  12   7  -6 561.946 195.543   1
 -12   7   6 652.712 179.257   1
  12  -7  -6 430.754 188.472   1
  12  -7  -6 623.586 191.112   1
   3  -4  17 1135.24 166.590   1
  -3   4 -17 181.285 164.893   1
 -12  -7   5 52.2122 133.751   1
  12   7  -5 63.3209 130.824   1
  12  -7  -5 105.306 151.073   1
  12  -7  -5 72.9684 147.068   1
 -12   7   5 113.209 137.658   1
   7   6 -17 6729.10 429.484   1
  -7  -6  17 6344.49 437.238   1
 -13  -5  15 472.257 181.865   1
 -13   5  15 467.886 144.176   1
 -13  -5  15 564.308 202.932   1
  13  -5 -15 526.177 189.724   1
  13   5 -15 240.722 193.254   1
 -12   4  -7 1992.41 261.788   1
  12   4   7 1952.63 204.428   1
  12  -4   7 1779.51 256.889   1
  12  -4   7 2048.39 262.328   1
  13   5   3 252.506 135.708   1
  13  -5   3 383.210 172.698   1
  13  -5   3 323.173 187.263   1
 -13   5  -3 322.555 173.204   1
 -13  -5  -3 286.515 140.270   1
 -17  -1   2 176.205 164.785   1
  17  -1  -2 39.3178 138.014   1
  17  -1  -2 -28.492 144.226   1
  17   1  -2 65.0016 145.274   1
 -17   1   2 297.009 150.205   1
  17   1  -2 187.874 159.731   1
 -15   3  16 57.3625 171.442   1
 -15   3  16 113.722 145.864   1
 -15  -3  16 3.61893 157.592   1
 -15  -3  16 131.645 139.800   1
  15  -3 -16 114.473 135.542   1
  15   3 -16 -70.659 150.718   1
  -3   6  17 688.557 150.960   1
   3   6 -17 510.763 183.617   1
  -3  -6  17 596.754 212.104   1
  -9   0  22 191.773 146.842   1
   9   0 -22 112.614 139.084   1
  -9   0  22 108.540 125.262   1
  16  -3  -1 535.068 172.765   1
  16  -3  -1 326.620 183.025   1
 -16  -3   1 154.546 181.305   1
 -16   3   1 390.503 177.653   1
  16   3  -1 182.414 168.004   1
   4   4 -20 6512.59 407.777   1
  -4  -4  20 7150.51 409.817   1
  -4  -4  20 7342.23 407.389   1
 -11   5  -7 360.584 164.098   1
  11  -5   7 279.867 176.076   1
  11  -5   7 184.950 185.002   1
   0   6  16 -5.1775 102.065   1
   0  -6  16 71.9987 132.105   1
   0   6 -16 -3.2047 114.653   1
   2   9  -7 306.685 177.741   1
   2  -9  -7 152.806 151.475   1
  -2   9   7 185.565 164.557   1
  -2   9   7 246.756 155.237   1
  -2  -9   7 136.474 169.523   1
   2   9  -7 360.025 163.526   1
 -13  -1  20 220.658 160.733   1
 -13   1  20 194.690 146.624   1
 -13   1  20 214.772 163.613   1
  13   1 -20 25.5623 149.214   1
  13  -1 -20 103.502 160.899   1
 -13  -1  20 194.100 138.376   1
  -4   7  15 411.864 156.178   1
   4   7 -15 189.106 170.871   1
   4   7 -15 298.356 186.667   1
  -4  -7  15 424.784 178.127   1
  -5   7  15 2887.09 254.937   1
   5   7 -15 2084.71 279.210   1
   5   7 -15 2894.10 257.862   1
  -5  -7  15 3019.69 275.477   1
  -2   2  21 4727.92 300.042   1
  -2  -2  21 4130.59 284.729   1
  -9   8   8 2297.68 234.085   1
   9   8  -8 2637.42 270.320   1
  -9  -8   8 2461.07 278.033   1
   9  -8  -8 2406.89 300.139   1
   9   8  -8 3055.55 289.188   1
  -9   6  -8 1469.80 226.206   1
   9  -6   8 1477.19 215.908   1
   9  -6   8 911.273 267.191   1
 -11  -3  20 188.859 132.436   1
 -11  -3  20 87.7393 147.789   1
 -11   3  20 68.8882 141.007   1
  11   3 -20 168.368 152.566   1
  11  -3 -20 33.8515 134.614   1
 -11   3  20 91.3148 120.843   1
  -4   0  22 598.819 149.483   1
  13  -1   8 2466.76 249.814   1
 -13   1  -8 1910.65 222.734   1
  13   1   8 2217.03 230.699   1
  13  -1   8 2105.95 215.541   1
  -8  -4  20 428.687 172.372   1
  -8  -4  20 318.649 153.800   1
   8   4 -20 422.248 210.323   1
 -15  -4  14 9973.88 582.596   1
  15  -4 -14 10424.3 514.427   1
 -15  -4  14 8522.06 474.441   1
 -15   4  14 10450.4 496.079   1
  15   4 -14 9035.83 522.401   1
   1   5 -18 30.6244 124.216   1
  -1  -5  18 153.546 137.806   1
  -9   5 -10 131.761 171.904   1
   9  -5  10 230.361 176.834   1
   9  -5  10 361.318 174.990   1
  -1  -1  21 1477.26 183.370   1
  -1   1  21 1638.11 187.894   1
  -1   9  -6 4117.20 346.748   1
  -1   9  -6 4500.81 337.238   1
  -1  -9  -6 4767.31 318.893   1
   1   9   6 4991.56 305.787   1
   1   9   6 4498.08 339.371   1
   1  -9   6 4525.47 358.091   1
   8   3 -21 697.504 232.801   1
  -8  -3  21 1437.23 193.593   1
  -8  -3  21 1391.96 199.824   1
  -8   3  21 1045.99 198.325   1
  12   7  -7 312.915 152.669   1
 -12  -7   7 147.296 153.899   1
  12   7  -7 62.2373 158.848   1
  12  -7  -7 198.131 158.484   1
 -12   7   7 10.8067 142.705   1
 -12  -7   4 975.896 186.347   1
  12   7  -4 1006.00 223.948   1
  12  -7  -4 766.697 209.164   1
  12  -7  -4 702.386 215.385   1
 -12   7   4 876.720 195.025   1
  -3   9   7 382.291 171.621   1
  -3  -9   7 763.086 204.322   1
   3   9  -7 629.013 196.107   1
   3   9  -7 455.041 182.067   1
   3  -9  -7 303.451 184.584   1
  -3   9   7 478.088 176.497   1
  14  -4   3 204.389 134.593   1
  14   4   3 116.616 129.981   1
  14  -4   3 89.7914 154.374   1
  14   4   3 23.0404 114.204   1
 -14  -4  -3 28.1519 120.705   1
 -14   4  -3 -61.612 136.215   1
  -4   8  12 -14.028 124.133   1
  -4   8  12 6.83448 103.879   1
   4   8 -12 72.5483 131.345   1
  -4  -8  12 23.1599 124.658   1
   4   8 -12 -2.7261 119.120   1
   2  -8  10 363.984 175.191   1
   2   8  10 496.904 167.061   1
  -2   8 -10 250.180 183.226   1
  -3   8  12 1418.46 220.980   1
   3   8 -12 1564.78 241.319   1
   3   8 -12 794.404 221.092   1
  -3  -8  12 985.541 217.680   1
   0   7  14 1918.61 231.822   1
   0  -7  14 1912.98 228.606   1
   0   7 -14 1764.18 241.455   1
   1   9  -7 2040.47 263.133   1
   1   9  -7 2125.76 334.938   1
  -1  -9   7 2651.66 284.090   1
  -1   9   7 2647.57 246.646   1
  -1   9   7 3119.15 267.339   1
   1  -9  -7 2758.58 254.821   1
 -15  -1  18 -36.429 152.036   1
  15  -1 -18 69.7066 167.349   1
 -15   1  18 145.616 146.390   1
 -15  -1  18 180.784 129.473   1
  15   1 -18 57.0769 141.096   1
 -15   1  18 -31.542 126.061   1
 -15   5   4 371.458 176.033   1
  15  -5  -4 235.726 209.953   1
  15   5  -4 459.932 154.409   1
  15  -5  -4 30.1441 175.958   1
 -15  -5   4 264.797 185.743   1
  -6   8  -6 444.196 182.335   1
   6   8   6 341.602 185.803   1
   6  -8   6 292.455 171.917   1
   6  -8   6 218.856 168.237   1
   5   9   1 149.671 143.328   1
   5  -9   1 121.529 158.526   1
   5   9   1 17.6231 155.126   1
  -5   9  -1 -69.960 151.347   1
  -5   9  -1 234.119 148.701   1
  -5  -9  -1 169.801 154.881   1
  10  -2  12 154.563 171.069   1
  10  -2  12 434.871 131.823   1
  10   2  12 211.393 164.090   1
   8   8 -10 10.9595 163.250   1
  -8  -8  10 19.2382 148.647   1
  -8   8  10 107.233 130.044   1
  -8   8  10 12.6671 118.168   1
   8   8 -10 27.5024 155.961   1
   8  -8 -10 195.165 144.551   1
 -14  -4  16 1049.54 243.172   1
 -14  -4  16 907.901 200.371   1
 -14   4  16 1536.01 220.616   1
  14  -4 -16 874.463 193.670   1
  14   4 -16 828.697 220.717   1
  16  -3 -14 2909.62 278.776   1
 -16  -3  14 2659.89 293.816   1
 -16  -3  14 2539.34 278.706   1
 -16   3  14 2712.02 253.682   1
 -16   3  14 2497.55 251.457   1
  16   3 -14 2605.95 280.796   1
  -4   9  -3 -71.653 135.507   1
   4   9   3 63.2747 137.300   1
   4  -9   3 -98.757 151.072   1
  -4  -9  -3 130.235 133.662   1
   4   9   3 163.221 126.153   1
  -4   9  -3 22.5130 136.543   1
  15   5 -10 2431.13 256.996   1
 -15  -5  10 2241.46 258.057   1
 -15   5  10 2223.19 238.200   1
  15  -5 -10 2062.38 257.116   1
   2  -6  15 1458.05 238.283   1
  -2   6 -15 1158.44 247.977   1
   2   6  15 1807.58 227.853   1
  -9   8   0 3069.05 289.954   1
   9   8   0 3499.26 325.403   1
   9  -8   0 3042.44 302.209   1
   9  -8   0 2836.06 272.846   1
   9   8   0 3168.89 295.067   1
  -9  -8   0 3585.91 298.816   1
 -17  -1  14 1127.57 211.976   1
 -17  -1  14 1054.24 214.066   1
  17  -1 -14 1777.27 234.588   1
  17   1 -14 1497.80 239.214   1
 -17   1  14 1082.49 212.327   1
 -17   1  14 1022.74 238.228   1
  11   7 -11 261.775 190.248   1
  11   7 -11 81.9027 183.696   1
 -11  -7  11 760.417 186.364   1
 -11   7  11 480.517 186.567   1
  11  -7 -11 454.383 162.826   1
  -7   8  11 114.534 157.475   1
   7   8 -11 120.986 177.465   1
   7  -8 -11 160.374 151.235   1
  -7   8  11 182.627 141.164   1
  -7  -8  11 213.794 166.614   1
  17  -2  -3 760.593 218.603   1
  17   2  -3 795.109 209.499   1
 -17   2   3 336.869 198.805   1
 -17  -2   3 882.634 195.274   1
  17  -2  -3 164.161 182.871   1
  -3   7  15 31.1829 139.275   1
  -3  -7  15 250.636 147.598   1
   3   7 -15 118.354 155.546   1
  17  -3  -8 686.661 198.655   1
 -17   3   8 552.751 202.024   1
 -17  -3   8 807.122 235.479   1
  17   3  -8 823.334 188.495   1
 -17   3   8 344.609 158.233   1
  -6  -5  19 406.806 202.540   1
  -6  -5  19 513.786 171.046   1
  -6   7  15 3292.61 265.244   1
   6   7 -15 2923.73 281.708   1
   6   7 -15 3536.57 308.383   1
  -6  -7  15 3311.47 293.756   1
  16  -4  -4 159.209 165.849   1
  16  -4  -4 152.682 153.005   1
  16   4  -4 128.391 138.102   1
 -16   4   4 117.714 157.347   1
 -16  -4   4 73.3850 174.644   1
  -5  -5  19 419.210 148.147   1
  -5  -5  19 195.730 150.930   1
   5   5 -19 254.093 192.501   1
   4   3 -21 1284.34 194.263   1
  -4   3  21 1632.93 227.843   1
  -4  -3  21 1263.16 181.712   1
  -4  -3  21 1038.43 212.509   1
  17   3  -7 2475.35 263.152   1
  17  -3  -7 2988.92 309.521   1
  17  -3  -7 3106.07 276.896   1
 -17   3   7 2646.93 288.288   1
 -17  -3   7 2354.37 265.512   1
  -5   8  12 1436.79 189.939   1
  -5   8  12 1859.34 241.380   1
   5  -8 -12 1755.63 201.703   1
   5   8 -12 1667.34 268.974   1
   5   8 -12 1830.87 254.048   1
  -5  -8  12 1880.01 245.158   1
 -16   0  -2 8701.95 481.730   1
  16   0   2 8827.46 464.580   1
  16   0   2 8763.62 467.576   1
  17  -3  -9 2639.87 274.532   1
  17   3  -9 2753.65 263.008   1
 -17   3   9 1865.68 261.034   1
 -17  -3   9 2629.23 276.931   1
 -17  -3   9 2655.98 267.572   1
 -17   3   9 2014.16 231.907   1
  11  -6 -15 115.990 153.752   1
 -11  -6  15 146.674 149.691   1
 -11   6  15 128.751 139.857   1
  11   6 -15 45.5160 166.778   1
  -9   1  22 2344.09 250.940   1
   9   1 -22 2145.79 255.262   1
  -9  -1  22 2332.76 235.930   1
  -9  -1  22 2672.86 253.181   1
 -10  -5  18 422.807 180.118   1
 -10   5  18 434.436 143.914   1
 -10  -5  18 603.657 172.761   1
  10   5 -18 387.723 201.594   1
  10  -5 -18 528.136 154.700   1
 -12  -7   8 757.460 192.607   1
  12   7  -8 471.904 229.325   1
  12   7  -8 522.791 188.298   1
 -12   7   8 554.290 181.134   1
  12  -7  -8 871.293 191.311   1
 -12   0  21 76.9809 128.840   1
 -12   0  21 54.9737 128.966   1
  12   0 -21 9.26271 144.396   1
 -11  -4  19 84.2566 132.547   1
 -11  -4  19 7.88769 123.977   1
  11  -4 -19 12.2520 117.222   1
 -11   4  19 6.88377 106.087   1
  11   4 -19 67.4818 142.815   1
  -5   9   6 171.393 145.434   1
  -5  -9   6 293.477 168.608   1
  -5   9   6 173.000 186.604   1
   5   9  -6 171.196 154.417   1
   5   9  -6 116.818 169.382   1
   5  -9  -6 224.555 153.959   1
   2  -7  13 43.0777 110.407   1
   2   7  13 35.1539 102.392   1
  -2   7 -13 -71.923 123.602   1
 -11  -7  -1 232.557 129.429   1
  11   7   1 43.4488 133.143   1
  11  -7   1 88.6065 160.467   1
 -11   7  -1 59.5247 156.545   1
  11  -7   1 33.6613 144.205   1
  -2  -8  12 2808.57 270.983   1
   2   8 -12 2748.66 295.217   1
   2   8 -12 2229.46 274.346   1
  -2   8  12 1777.29 262.102   1
  -4   1  22 249.225 128.404   1
  -4  -1  22 192.611 151.292   1
 -16  -4  11 120.857 162.049   1
 -16   4  11 580.801 160.933   1
 -16   4  11 159.954 160.861   1
 -16  -4  11 30.7914 166.755   1
  16   4 -11 217.499 164.823   1
  16  -4 -11 237.214 170.782   1
 -12  -7   3 20.8260 100.954   1
  12   7  -3 -12.689 95.8771   1
 -12   7   3 -61.819 106.032   1
  12  -7  -3 12.4402 118.175   1
  12  -7  -3 85.7282 117.781   1
  11   3  10 3552.97 277.164   1
 -11   3 -10 3406.30 272.271   1
  11  -3  10 2845.97 291.222   1
  11  -3  10 3256.46 269.821   1
  16  -2   1 -59.143 142.465   1
  16  -2   1 3.53840 129.667   1
  16   2   1 201.052 130.312   1
  16   2   1 -9.9847 127.317   1
 -16  -2  -1 162.131 146.841   1
 -16   2  -1 -19.490 168.975   1
   4   9  -7 16.8562 127.892   1
  -4   9   7 -94.608 131.824   1
  -4  -9   7 11.2233 141.317   1
   4  -9  -7 74.8857 140.696   1
   4   9  -7 81.3871 175.149   1
  -4   9   7 140.642 127.149   1
 -17  -2  13 48.9661 156.276   1
 -17  -2  13 255.691 170.981   1
 -17   2  13 -31.743 138.583   1
 -17   2  13 137.557 153.058   1
  17   2 -13 72.3000 158.501   1
  17  -2 -13 53.3663 158.895   1
  -7  -5  19 1496.78 219.646   1
  -7  -5  19 1714.83 223.460   1
   7   5 -19 1683.38 239.878   1
  -8   7  -7 33.0172 141.879   1
   8  -7   7 127.549 132.387   1
   8  -7   7 -58.206 126.932   1
   3  -5  16 49.1024 127.726   1
  -3   5 -16 14.4863 132.886   1
  -6  -9   3 84.0855 183.040   1
   6   9  -3 127.783 139.864   1
  -6   9   3 156.843 149.876   1
  -6   9   3 118.634 152.375   1
   6  -9  -3 221.464 194.853   1
  13   6 -12 242.014 183.948   1
 -13  -6  12 382.395 195.781   1
  13   6 -12 427.821 189.961   1
 -13   6  12 579.397 165.295   1
  13  -6 -12 560.234 182.823   1
   6   9  -2 479.865 190.374   1
  -6  -9   2 360.225 166.274   1
  -6   9   2 252.604 174.278   1
   6   9  -2 216.103 192.529   1
   6  -9  -2 448.124 186.633   1
  -6   9   2 266.869 175.261   1
  17  -3  -6 -98.264 158.079   1
  17   3  -6 103.460 136.034   1
 -17  -3   6 161.512 142.438   1
 -17   3   6 65.9224 151.085   1
  17  -3  -6 66.3996 141.813   1
  13   6   0 142.567 144.166   1
 -13  -6   0 138.019 146.307   1
  13  -6   0 9.87298 151.752   1
  13  -6   0 114.851 155.564   1
 -13   6   0 333.887 150.082   1
  -8  -6  17 616.674 215.511   1
   8   6 -17 343.155 201.547   1
   0  -9  -7 3990.88 300.031   1
   0  -9   7 4373.74 355.212   1
   0   9   7 4280.01 320.865   1
   0   9   7 4473.97 299.598   1
   0   9  -7 4198.98 343.107   1
   0   9  -7 4606.02 342.161   1
  14   6  -6 94.0551 169.756   1
 -14  -6   6 131.229 146.943   1
  14  -6  -6 87.1400 148.120   1
  14  -6  -6 17.7669 172.103   1
 -14   6   6 111.099 142.632   1
 -14  -6   7 -115.88 126.354   1
  14   6  -7 57.7173 118.672   1
 -14   6   7 85.3323 124.662   1
  14  -6  -7 73.7079 131.275   1
  14  -6  -7 -6.3653 121.335   1
  -4  -5  19 164.321 125.621   1
   4   5 -19 51.5172 165.766   1
  17   0  -1 119.822 147.215   1
 -17   0   1 144.987 143.605   1
  17   0  -1 197.944 169.487   1
  -3  -4  20 793.795 185.845   1
  -3  -4  20 719.004 187.896   1
   3   4 -20 623.292 194.608   1
  18   0  -8 437.003 173.303   1
 -18   0   8 362.271 183.569   1
  11   2 -21 -93.654 143.462   1
 -11   2  21 31.5272 121.611   1
  11  -2 -21 47.0212 111.138   1
 -11  -2  21 76.0651 118.660   1
 -11   2  21 13.0464 102.324   1
 -11  -2  21 -6.0996 122.162   1
  10  -6 -16 -67.261 107.437   1
 -10   6  16 68.5911 101.732   1
 -10  -6  16 7.17687 111.946   1
  10   6 -16 16.9246 128.839   1
  -6   9   4 1969.53 239.861   1
   6   9  -4 1618.04 256.057   1
   6  -9  -4 1483.88 233.436   1
   6   9  -4 1554.22 224.005   1
  -6   9   4 1861.64 232.603   1
  -6  -9   4 1259.90 278.804   1
   8  -8   3 210.162 162.993   1
   8   8   3 111.611 181.228   1
  -8   8  -3 651.504 187.802   1
  -8  -8  -3 265.019 146.799   1
   8   8   3 225.204 137.793   1
   8  -8   3 125.285 179.858   1
  12   0  10 58.0680 132.670   1
  -2   6  17 1848.34 193.048   1
  -2  -6  17 1505.04 250.358   1
   2   6 -17 1460.15 224.335   1
 -17  -3  10 195.053 179.728   1
 -17  -3  10 264.642 186.954   1
 -17   3  10 501.986 174.623   1
 -17   3  10 316.568 160.228   1
  17  -3 -10 389.339 178.384   1
  17   3 -10 230.684 167.544   1
 -18   0   9 30.4305 134.506   1
 -18   0   9 174.007 146.729   1
  18   0  -9 53.8698 142.364   1
  11  -6   5 1369.65 285.704   1
 -11   6  -5 1320.42 236.316   1
  11  -6   5 1758.90 218.894   1
   9   3 -21 888.091 231.192   1
  -9  -3  21 972.043 206.644   1
  -9  -3  21 754.199 188.577   1
  -9   3  21 1100.20 200.200   1
   8   0  15 37.8082 125.733   1
 -16   0  17 21.2479 136.035   1
 -16   0  17 72.8735 147.929   1
  16   0 -17 140.047 151.183   1
  -9  -4  20 474.845 188.189   1
  -9  -4  20 516.103 169.572   1
   9   4 -20 533.819 184.269   1
  12   6 -14 58.8132 122.789   1
 -12   6  14 -36.866 123.655   1
 -12  -6  14 82.9701 130.442   1
  12  -6 -14 -111.74 134.112   1
  12   6 -14 103.478 145.122   1
   7   0  16 74.7887 138.454   1
 -15  -5   3 14.6781 148.272   1
  15   5  -3 136.508 124.973   1
 -15   5   3 158.955 143.159   1
  15  -5  -3 -51.638 140.275   1
  15  -5  -3 15.9541 144.644   1
  14   6  -5 346.766 168.312   1
 -14  -6   5 242.052 206.320   1
 -14   6   5 658.248 183.591   1
  14  -6  -5 555.899 194.552   1
  14  -6  -5 635.889 220.839   1
 -10   0  22 5103.41 337.117   1
  10   0 -22 5739.41 353.683   1
 -10   0  22 5422.77 333.230   1
   9   8  -9 151.114 136.123   1
  -9  -8   9 -38.209 149.823   1
   9  -8  -9 -104.81 152.971   1
  -9   8   9 29.9217 138.401   1
   9   8  -9 186.966 150.310   1
 -18   0   7 47.8039 146.676   1
  18   0  -7 129.147 143.083   1
  14   6  -8 474.486 175.858   1
 -14  -6   8 525.290 184.048   1
  14  -6  -8 264.277 179.273   1
 -14   6   8 438.789 175.132   1
  -6   9   1 432.417 186.097   1
  -6   9   1 612.343 192.543   1
   6   9  -1 753.844 198.214   1
   6  -9  -1 387.423 201.513   1
   6   9  -1 185.419 203.156   1
  -6  -9   1 687.935 181.842   1
  16  -1   2 848.456 200.914   1
  16   1   2 565.664 184.120   1
 -16  -1  -2 722.495 191.091   1
 -16   1  -2 747.870 212.730   1
  16   1   2 476.022 179.594   1
  16  -1   2 713.709 189.723   1
  -2  -7  15 5387.39 349.945   1
  -2   7  15 5070.30 342.845   1
   2   7 -15 6070.93 387.839   1
 -16  -2  16 -41.012 143.314   1
 -16   2  16 133.331 160.403   1
  16  -2 -16 160.694 146.288   1
  16   2 -16 211.452 155.380   1
 -16   2  16 -11.109 143.144   1
 -16  -2  16 35.4859 156.373   1
 -11   4  -9 943.723 219.954   1
  11  -4   9 1020.47 217.096   1
  11   4   9 1765.98 188.934   1
  11  -4   9 899.787 233.205   1
 -12  -1  21 266.169 163.104   1
  12  -1 -21 230.672 174.690   1
  12   1 -21 318.407 190.254   1
 -12   1  21 267.422 162.524   1
 -12   1  21 310.164 171.376   1
 -12  -1  21 316.492 171.083   1
  -1   8 -11 691.214 197.954   1
   1   8  11 674.689 175.086   1
   1  -8  11 245.053 187.753   1
   7   2 -22 350.600 152.946   1
  -7  -2  22 37.4893 164.364   1
  -7  -2  22 231.612 130.890   1
  -7   2  22 2.69040 168.475   1
   7   7 -15 131.461 149.920   1
  -7   7  15 106.223 130.312   1
  -7  -7  15 128.459 156.204   1
  -5   9  -2 102.705 152.508   1
  -5   9  -2 117.008 145.229   1
  -5  -9  -2 45.4951 145.780   1
   5   9   2 -10.821 148.785   1
   5  -9   2 152.267 155.304   1
   5   9   2 45.4672 130.496   1
  -6   2  22 -101.51 107.511   1
   6   2 -22 109.980 93.6278   1
  -6  -2  22 7.00225 81.3807   1
  -6  -2  22 -35.888 83.8707   1
  -3   0  22 33.7386 116.299   1
   0  -4  19 66.8990 122.547   1
   0   4 -19 18.2760 124.400   1
 -15  -5  11 1449.56 214.865   1
  15   5 -11 749.490 201.959   1
  15  -5 -11 718.096 210.718   1
 -15   5  11 621.017 193.191   1
 -10  -7  13 -20.266 145.282   1
  10   7 -13 150.429 159.907   1
  10   7 -13 105.304 141.590   1
  10  -7 -13 33.4546 135.749   1
 -10   7  13 24.2368 130.195   1
 -14   3  -5 308.363 182.278   1
  14   3   5 131.847 124.439   1
  14  -3   5 277.636 173.352   1
  14   3   5 233.001 148.536   1
  14  -3   5 177.081 166.395   1
  12   6   3 2091.39 215.065   1
 -12   6  -3 2510.37 259.439   1
 -12  -6  -3 2033.86 217.594   1
  12  -6   3 2187.78 259.337   1
  12  -6   3 2008.66 246.690   1
  18   0 -10 223.903 152.403   1
 -18   0  10 36.2787 153.135   1
 -18   0  10 168.509 147.264   1
 -14   2  -6 79.2414 132.510   1
  14   2   6 130.182 138.078   1
  14  -2   6 5.04720 122.847   1
  14  -2   6 -55.381 129.640   1
 -14  -5  -1 128.818 131.523   1
  14   5   1 15.4142 135.552   1
  14  -5   1 79.8503 164.948   1
  14  -5   1 119.633 153.949   1
 -14   5  -1 259.133 155.140   1
   6  -8 -12 149.187 139.818   1
  -6   8  12 233.808 136.381   1
  -6   8  12 181.830 128.498   1
   6   8 -12 70.5418 171.801   1
   6   8 -12 244.298 177.643   1
  -6  -8  12 87.2516 160.517   1
  -6   6 -12 1157.12 252.387   1
   6  -6  12 1153.34 233.634   1
   6  -6  12 1671.00 249.902   1
   7  -8   5 92.6445 158.048   1
   7  -8   5 141.908 162.901   1
   7   8   5 97.1580 164.362   1
  -7   8  -5 379.181 172.094   1
   3   9   5 2842.11 250.949   1
   3   9   5 3418.61 290.152   1
   3  -9   5 2896.27 308.505   1
  -3  -9  -5 3053.24 272.652   1
  -3   9  -5 2700.49 285.601   1
  -3   9  -5 2945.19 286.944   1
 -12  -7   9 352.646 181.535   1
  12   7  -9 416.673 179.233   1
  12   7  -9 405.765 177.670   1
  12  -7  -9 396.821 180.321   1
 -12   7   9 323.549 158.098   1
  -6  -9   5 1996.20 262.553   1
  -6   9   5 1383.77 226.272   1
   6   9  -5 2312.98 239.887   1
   6   9  -5 1876.33 260.000   1
   6  -9  -5 2026.66 284.659   1
  -6   9   5 1744.77 234.361   1
   2   9   6 1506.34 198.079   1
   2  -9   6 841.954 247.330   1
  -2   9  -6 1605.29 229.147   1
  -2  -9  -6 1532.60 209.594   1
   2   9   6 1040.16 225.615   1
  -2   9  -6 1347.84 240.422   1
 -13  -3  19 2394.94 280.277   1
 -13  -3  19 2346.13 246.996   1
 -13   3  19 3347.99 263.166   1
 -13   3  19 2904.65 291.873   1
  13  -3 -19 3384.56 288.165   1
  13   3 -19 2672.08 281.458   1
   9  -7 -14 102.414 119.839   1
  -9   7  14 70.8023 111.374   1
  -9  -7  14 -95.593 124.688   1
   9   7 -14 -29.969 143.352   1
   9   7 -14 48.6013 122.298   1
 -10  -8   5 4254.74 322.674   1
  10   8  -5 4517.71 334.041   1
  10   8  -5 4158.72 355.860   1
  10  -8  -5 3405.82 317.622   1
 -10   8   5 4228.93 366.438   1
  14   5 -14 3133.21 316.042   1
 -14   5  14 2689.52 257.491   1
 -14  -5  14 3100.04 311.128   1
 -14  -5  14 3667.47 312.964   1
  14  -5 -14 3039.40 329.714   1
  14   5 -14 3080.53 280.752   1
   9   0  14 -1.4834 100.196   1
 -10   5  -9 -27.762 139.189   1
  10  -5   9 50.1185 126.171   1
 -17  -3   5 259.715 197.231   1
 -17   3   5 192.405 176.859   1
  17   3  -5 -36.340 162.524   1
  17  -3  -5 331.806 171.128   1
  17  -3  -5 409.775 183.543   1
  12   7  -2 16.5649 116.637   1
 -12  -7   2 5.92925 99.8157   1
 -12   7   2 16.3044 113.879   1
  12  -7  -2 102.003 103.469   1
  12  -7  -2 -148.59 123.357   1
  -1   8  12 200.855 168.433   1
  -1  -8  12 134.681 153.717   1
   1   8 -12 47.0627 171.434   1
   1   8 -12 184.289 148.445   1
  14  -3 -18 1069.91 207.703   1
 -14   3  18 1567.66 233.371   1
 -14   3  18 1425.96 220.210   1
 -14  -3  18 1369.22 211.181   1
 -14  -3  18 1477.72 239.573   1
  14   3 -18 1511.04 243.925   1
 -10  -8   4 232.298 201.395   1
  10   8  -4 404.692 195.820   1
  10   8  -4 203.559 202.932   1
  10  -8  -4 312.156 162.211   1
 -10   8   4 220.156 174.991   1
  10  -8  -4 407.352 177.703   1
  17   0 -15 5149.38 374.985   1
 -17   0  15 4720.03 388.639   1
 -17   0  15 4753.00 341.611   1
  13  -3   7 796.943 235.814   1
  13  -3   7 1469.66 205.529   1
  13   3   7 982.147 198.185   1
 -13   3  -7 895.876 215.314   1
 -16   4   3 467.579 178.049   1
  16   4  -3 211.279 147.358   1
  16  -4  -3 272.972 169.843   1
 -16  -4   3 145.710 192.371   1
  16  -4  -3 218.617 183.398   1
   7  -4  14 2536.72 249.406   1
   7   4  14 2059.99 208.465   1
  -7   4 -14 2892.76 262.704   1
   8   5 -19 667.489 203.505   1
  -8  -5  19 801.726 180.771   1
  -8  -5  19 521.714 182.864   1
  14   2 -19 513.452 191.807   1
  14  -2 -19 390.163 201.186   1
 -14  -2  19 442.544 171.813   1
 -14  -2  19 159.563 189.791   1
 -14   2  19 599.406 154.081   1
 -14   2  19 698.292 187.342   1
  -5   6 -13 413.962 205.667   1
   5  -6  13 424.938 197.526   1
   1   2  20 233.889 119.350   1
  17   1  -1 3814.47 332.454   1
 -17   1   1 4190.60 372.005   1
 -17  -1   1 4119.76 295.989   1
  17  -1  -1 4252.75 308.824   1
  17  -1  -1 3927.58 311.596   1
  17   1  -1 4014.55 303.567   1
   9  -8   1 148.519 149.222   1
   9  -8   1 78.8082 130.465   1
   9   8   1 -48.962 160.390   1
  -9   8  -1 -96.997 143.270   1
  -9  -8  -1 73.3398 132.909   1
  18   1  -8 -50.889 133.377   1
  18  -1  -8 84.0426 142.794   1
 -18  -1   8 58.3347 134.598   1
 -18   1   8 193.305 147.475   1
  -7   6 -11 253.962 207.848   1
   7  -6  11 430.021 186.444   1
   7  -6  11 361.206 191.740   1
   2  -4  18 1620.83 213.241   1
  -2   4 -18 1919.86 218.589   1
  12  -1  10 -14.009 89.1160   1
  12   1  10 30.3499 105.150   1
  12  -1  10 -34.392 111.954   1
  -3  -3  21 16.5980 125.028   1
  -3   3  21 95.1526 128.101   1
  -3  -3  21 76.8292 106.887   1
   3   3 -21 -27.756 116.394   1
  18   1  -9 2357.44 249.213   1
 -18   1   9 1431.94 246.183   1
 -18   1   9 1956.23 229.030   1
 -18  -1   9 2140.48 245.226   1
  18  -1  -9 2092.16 254.994   1
  -8  -2  22 308.962 161.126   1
  -8   2  22 233.757 159.496   1
   8   2 -22 384.591 172.682   1
  -8  -2  22 391.529 187.260   1
  18   0  -6 1919.36 236.678   1
 -18   0   6 1917.75 248.762   1
  11  -2  11 3531.25 288.800   1
  11  -2  11 3385.57 245.847   1
  11   2  11 3114.91 289.876   1
 -11   2 -11 3078.94 254.713   1
  14   6  -4 1214.83 234.440   1
 -14  -6   4 1094.13 204.510   1
 -14   6   4 1221.29 214.623   1
  14  -6  -4 1018.95 251.935   1
  14  -6  -4 1274.37 237.607   1
 -10  -8   6 5.23886 150.782   1
  10   8  -6 274.800 159.449   1
  10   8  -6 -105.35 147.115   1
 -10   8   6 247.311 141.886   1
  10  -8  -6 27.2687 181.050   1
   8  -1  15 2646.54 266.590   1
   8   1  15 2172.57 240.194   1
   6  -4  15 125.947 149.846   1
  -6   4 -15 212.391 150.329   1
   6   4  15 126.372 118.577   1
 -17   3  11 242.703 157.030   1
 -17   3  11 88.9258 158.171   1
  17   3 -11 377.610 160.445   1
 -17  -3  11 208.935 181.372   1
  17  -3 -11 104.405 166.362   1
 -17  -3  11 285.903 169.732   1
  10  -6   7 235.311 212.292   1
 -10   6  -7 143.154 163.995   1
  10  -6   7 328.499 158.166   1
  -5   2  22 -43.299 97.6377   1
  -5  -2  22 -8.9501 85.7201   1
  -5  -2  22 34.4738 87.9436   1
  15   2   4 1188.10 235.319   1
  15  -2   4 1584.59 214.500   1
 -15   2  -4 1107.98 202.562   1
 -15  -2  -4 1355.95 206.896   1
  15  -2   4 1450.28 234.574   1
  15   2   4 1277.15 193.663   1
  -2   9   8 2129.64 247.022   1
   2   9  -8 1922.26 278.842   1
  -2   9   8 2204.40 235.361   1
   2  -9  -8 2502.10 254.474   1
   2   9  -8 2420.34 271.128   1
  -2  -9   8 2370.97 279.688   1
 -14  -6   9 791.219 213.982   1
  14   6  -9 1616.78 210.627   1
 -14   6   9 850.022 203.135   1
  14  -6  -9 810.019 255.580   1
  16  -1 -17 475.088 192.691   1
 -16   1  17 343.120 186.584   1
 -16  -1  17 500.920 190.552   1
 -16  -1  17 492.856 177.412   1
  16   1 -17 270.335 191.285   1
   5   9  -7 312.171 183.731   1
   5  -9  -7 145.157 185.129   1
   5   9  -7 270.361 166.144   1
  -5   9   7 314.559 168.277   1
  -5   9   7 493.733 174.399   1
  -5  -9   7 156.806 183.152   1
   7   1  16 696.894 222.071   1
   4   9   4 76.5241 141.336   1
   4   9   4 35.8258 125.221   1
  -4   9  -4 43.1802 144.658   1
   4  -9   4 152.986 148.937   1
  -4  -9  -4 7.36456 134.142   1
  -4   9  -4 -15.870 137.848   1
 -16  -4  12 1032.10 236.401   1
  16  -4 -12 1716.03 233.005   1
 -16   4  12 1543.62 234.109   1
 -16   4  12 1558.18 220.077   1
  16   4 -12 1589.52 234.559   1
 -16  -4  12 876.971 264.825   1
   8  -4  13 1081.96 214.472   1
   8   4  13 1510.60 180.928   1
   8  -4  13 783.044 250.093   1
  -8   4 -13 1136.28 205.842   1
 -15  -4  -1 480.773 189.593   1
  15  -4   1 545.931 209.927   1
 -15   4  -1 482.992 199.381   1
  15   4   1 788.339 174.177   1
  15  -4   1 475.525 180.864   1
   3   9  -8 173.923 168.341   1
   3   9  -8 96.6367 147.640   1
  -3   9   8 47.8994 143.124   1
   3  -9  -8 110.306 149.207   1
  -3   9   8 229.417 144.497   1
  -3  -9   8 15.7520 163.978   1
 -16  -3   0 55.0756 157.749   1
 -16   3   0 39.7256 161.979   1
  16  -3   0 126.077 177.997   1
  16   3   0 173.259 140.066   1
  16   3   0 110.806 150.413   1
  16  -3   0 297.187 165.388   1
 -10  -8   3 2130.51 286.789   1
  10   8  -3 2328.36 289.909   1
  10   8  -3 2012.33 284.560   1
 -10   8   3 2346.38 260.095   1
  10  -8  -3 2501.93 243.393   1
   6   9   0 996.020 239.965   1
   6   9   0 1349.82 214.311   1
  -6   9   0 1560.33 223.797   1
   6  -9   0 618.002 231.074   1
  -6  -9   0 1174.68 230.804   1
  17   2  -2 17849.8 794.629   1
  17  -2  -2 20596.7 852.355   1
  17  -2  -2 19304.3 862.252   1
  17   2  -2 18019.7 772.052   1
 -17  -2   2 18123.7 853.780   1
 -17   2   2 19990.5 868.931   1
 -10   1  22 2679.81 230.119   1
  10   1 -22 2247.79 279.145   1
  10  -1 -22 2443.52 253.416   1
 -10  -1  22 2306.07 254.664   1
 -10   1  22 2919.68 270.418   1
 -10  -1  22 2284.38 250.571   1
 -18   1   7 313.655 193.085   1
  18   1  -7 389.139 170.503   1
  18  -1  -7 588.667 179.762   1
 -18  -1   7 366.416 186.995   1
   7   3  15 753.801 186.454   1
   0   0  21 16.4457 90.4016   1
  -3  -5  19 502.206 178.410   1
   3   5 -19 219.511 181.521   1
  10  -7   4 200.390 170.713   1
  10  -7   4 241.306 163.669   1
 -10   7  -4 354.942 181.223   1
 -13  -2  20 214.609 171.469   1
  13  -2 -20 112.221 159.456   1
 -13  -2  20 56.2840 160.156   1
  13   2 -20 104.359 192.343   1
 -13   2  20 142.882 144.742   1
 -13   2  20 307.002 161.272   1
 -18   0  11 115.524 137.874   1
 -18   0  11 38.6393 144.794   1
  18   0 -11 -12.549 143.005   1
  -3  -1  22 1875.49 210.562   1
  -3   1  22 1616.06 181.882   1
  -8   3 -14 4619.71 312.656   1
   8  -3  14 5389.67 310.127   1
   8  -3  14 5136.99 365.266   1
   8   3  14 4878.78 318.088   1
  13  -2   8 104.540 144.526   1
  13   2   8 256.442 140.057   1
 -13   2  -8 165.787 153.506   1
  13  -2   8 324.467 165.420   1
   1   9   7 228.336 130.344   1
  -1  -9  -7 111.056 151.704   1
  -1   9  -7 142.558 163.588   1
  -1   9  -7 112.419 166.972   1
   1   9   7 235.233 197.771   1
   1  -9   7 148.215 180.595   1
 -18   1  10 1072.36 195.590   1
 -18  -1  10 401.251 217.917   1
  18   1 -10 719.920 203.131   1
 -18   1  10 1018.92 219.717   1
 -18  -1  10 760.202 204.108   1
  18  -1 -10 1709.95 228.832   1
  -1   2  21 128.429 129.944   1
  -1  -2  21 140.681 127.483   1
   0  -3  20 35.6086 102.962   1
   0   3  20 72.7215 113.625   1
   0  -5  18 280.112 163.207   1
   0   5 -18 338.026 177.028   1
 -15  -4  15 2498.79 286.023   1
  15   4 -15 2254.11 286.636   1
 -15   4  15 2191.51 238.166   1
  15  -4 -15 2338.05 292.327   1
 -15  -4  15 1832.12 251.141   1
  11   7 -12 143.788 168.100   1
 -11   7  12 104.260 164.447   1
 -11  -7  12 67.5950 162.628   1
  11   7 -12 202.780 165.559   1
  11  -7 -12 257.777 173.703   1
  -1  -9   8 527.483 208.647   1
  -1   9   8 571.639 181.968   1
  -1   9   8 259.296 160.765   1
   1   9  -8 475.826 193.953   1
   1   9  -8 500.058 203.021   1
   1  -9  -8 663.543 177.035   1
 -12  -5  17 890.349 209.520   1
 -12  -5  17 915.963 226.237   1
  12   5 -17 1026.06 227.004   1
  12  -5 -17 694.585 196.675   1
 -12   5  17 1336.72 199.811   1
 -15   3  -3 3.08965 121.126   1
  15  -3   3 120.247 145.013   1
  15  -3   3 80.9491 146.410   1
  15   3   3 -35.013 102.151   1
  15   3   3 35.9547 107.026   1
 -15  -3  -3 -28.204 112.477   1
   9   1  14 1324.25 203.591   1
   9  -1  14 1644.59 223.856   1
   4   8   9 117.227 159.755   1
   4  -8   9 311.912 164.530   1
   4  -8   9 44.0378 153.035   1
  -4   8  -9 104.262 166.399   1
   8   8 -11 246.240 229.229   1
   8   8 -11 617.831 229.278   1
   8  -8 -11 822.905 210.773   1
  -8   8  11 971.735 184.367   1
  -8  -8  11 352.639 215.191   1
  -8   8  11 1669.98 181.445   1
  15  -2 -18 -28.657 147.827   1
 -15  -2  18 281.310 173.150   1
 -15   2  18 179.362 169.915   1
 -15  -2  18 310.383 155.289   1
 -15   2  18 123.269 164.550   1
  15   2 -18 240.316 164.369   1
   1   7  14 278.023 180.034   1
  -1   7 -14 367.942 213.912   1
   1  -7  14 578.955 170.126   1
  17  -1 -15 287.188 158.147   1
 -17  -1  15 210.371 150.209   1
 -17   1  15 35.1711 144.557   1
 -17  -1  15 123.170 188.061   1
  17   1 -15 -96.561 166.022   1
 -17   1  15 148.685 141.387   1
   1   6  16 254.175 141.881   1
  -1   6 -16 122.747 141.221   1
   1  -6  16 39.1903 142.957   1
   6   3  16 -23.104 112.126   1
   5  -7  11 -36.701 119.788   1
   5   7  11 9.16162 122.309   1
  -5   7 -11 70.0602 126.426   1
   6  -9  -6 -80.470 134.337   1
   6   9  -6 81.8320 150.352   1
  -6   9   6 -6.9497 160.356   1
   6   9  -6 196.396 138.724   1
  -6  -9   6 106.095 147.840   1
  -6   9   6 35.6354 136.591   1
   4  -6  14 -74.341 133.014   1
   4   6  14 166.991 126.945   1
  -4   6 -14 160.461 162.779   1
 -10  -8   7 1651.67 238.725   1
  10   8  -7 1589.92 233.336   1
  10   8  -7 2205.17 300.643   1
 -10   8   7 880.181 249.075   1
  10  -8  -7 1456.25 233.115   1
 -16  -3  15 34.6105 145.610   1
 -16  -3  15 -13.926 166.217   1
  16   3 -15 156.922 156.424   1
  16  -3 -15 38.3246 145.865   1
 -16   3  15 113.531 130.288   1
 -16   3  15 73.5589 140.162   1
   5  -8   8 112.880 164.228   1
   5  -8   8 114.449 160.441   1
   5   8   8 251.111 197.197   1
  -5   8  -8 136.601 162.418   1
  15   0   5 575.625 185.764   1
 -15   0  -5 1363.08 199.989   1
  15   0   5 887.893 206.307   1
   4   9  -8 -46.308 122.531   1
   4  -9  -8 -6.9888 125.969   1
  -4  -9   8 -30.903 132.478   1
  -4   9   8 -80.807 119.807   1
  -4   9   8 79.1815 122.614   1
   4   9  -8 -6.1317 134.850   1
   6  -7  10 499.009 185.030   1
   6   7  10 395.857 182.379   1
   6  -7  10 533.448 179.651   1
  -6   7 -10 446.378 229.320   1
 -14   0  -7 253.389 145.242   1
  14   0   7 265.897 133.907   1
  14   0   7 5.91223 155.611   1
 -17  -2  14 1496.68 235.075   1
 -17  -2  14 1244.66 283.971   1
 -17   2  14 1791.18 226.040   1
  17   2 -14 1814.59 260.048   1
  17  -2 -14 1965.17 256.567   1
 -17   2  14 1958.02 229.986   1
   8  -6  10 124.929 167.079   1
   8  -6  10 79.6586 149.920   1
  -8   6 -10 328.816 194.591   1
  -9   6  17 747.989 150.571   1
  -9  -6  17 179.373 181.549   1
   9   6 -17 643.787 212.203   1
  18   1  -6 5225.27 382.587   1
 -18   1   6 4924.35 358.519   1
 -18  -1   6 4675.45 344.700   1
  18  -1  -6 5401.12 354.168   1
  10   0  13 -99.500 135.537   1
   9  -7   6 998.845 217.333   1
   9  -7   6 1058.88 204.044   1
  -9   7  -6 1008.84 233.605   1
 -12  -3  20 341.117 174.160   1
 -12   3  20 335.867 186.131   1
 -12   3  20 380.017 154.554   1
 -12  -3  20 237.013 155.644   1
  12  -3 -20 222.913 164.363   1
  12   3 -20 359.747 183.311   1
 -15  -5   2 113.138 120.994   1
  15   5  -2 -63.170 147.079   1
  15  -5  -2 201.876 180.035   1
 -15   5   2 -46.867 147.974   1
  15  -5  -2 149.021 145.355   1
   5  -4  16 585.046 178.627   1
   5   4  16 1049.63 157.430   1
  -5   4 -16 531.582 188.153   1
  10   8  -2 2311.16 289.514   1
 -10  -8   2 2701.17 295.856   1
  10   8  -2 2240.95 298.000   1
  10  -8  -2 2729.57 259.282   1
 -10   8   2 2853.07 276.840   1
   2   3  19 160.153 115.090   1
 -10  -3  21 -37.859 122.767   1
  10   3 -21 105.844 135.447   1
 -10  -3  21 5.74322 129.985   1
 -10   3  21 109.507 127.655   1
  17  -3  -4 6550.58 415.099   1
  17  -3  -4 6103.90 428.506   1
 -17  -3   4 6243.86 382.872   1
 -17   3   4 6789.12 420.414   1
  17   3  -4 6005.07 425.226   1
 -12   5  -6 494.186 174.962   1
  12  -5   6 160.993 188.152   1
  12  -5   6 420.646 207.703   1
 -11  -7  -2 669.850 157.380   1
  11   7   2 97.0305 159.017   1
 -11   7  -2 104.981 187.568   1
  11  -7   2 490.513 205.100   1
  13   5 -16 4407.33 354.747   1
 -13  -5  16 3852.98 347.059   1
 -13   5  16 4476.76 324.114   1
 -13  -5  16 4481.21 325.740   1
  13  -5 -16 4786.35 347.282   1
   2   4 -20 2441.55 256.219   1
  -2  -4  20 2346.85 239.524   1
  -2  -4  20 2037.69 234.892   1
   2   5  17 4006.42 299.757   1
  -2   5 -17 4087.54 330.541   1
   2  -5  17 4324.27 314.337   1
 -18   0   5 82.7011 167.972   1
  18   0  -5 24.2644 141.286   1
  -1   7  15 764.549 182.445   1
  -1  -7  15 547.400 214.530   1
   1   7 -15 156.073 193.905   1
  13   5   4 48.3215 120.045   1
  13  -5   4 35.6291 159.786   1
  13  -5   4 210.243 148.767   1
 -13   5  -4 142.118 151.872   1
  12   7 -10 -31.844 175.325   1
 -12  -7  10 132.859 152.805   1
  12   7 -10 133.476 156.895   1
 -12   7  10 162.170 135.751   1
  12  -7 -10 55.0882 176.851   1
   9   4  12 65.8113 109.479   1
   9  -4  12 86.1386 135.973   1
  -9   4 -12 135.376 141.407   1
   9  -4  12 -53.229 157.625   1
   0   1  21 1742.06 183.782   1
   0  -1  21 1962.43 188.708   1
   3  -8  10 829.889 205.691   1
  -3   8 -10 947.331 222.670   1
   3   8  10 1245.33 216.223   1
   9   3  13 267.257 145.418   1
  -9   3 -13 129.148 145.831   1
   9  -3  13 189.095 165.960   1
   9  -3  13 141.470 134.266   1
  15  -3 -17 60.4357 167.842   1
 -15   3  17 -36.338 147.820   1
 -15   3  17 142.820 129.558   1
 -15  -3  17 20.4772 152.735   1
 -15  -3  17 176.101 143.972   1
  15   3 -17 16.5615 151.448   1
  -1   6  17 40.9084 103.396   1
  -1  -6  17 -2.5491 141.244   1
   1   6 -17 18.0210 150.616   1
  14   0 -20 4014.67 305.264   1
 -14   0  20 3497.58 278.150   1
 -14   0  20 3784.28 324.170   1
  14   6  -3 383.763 189.984   1
  14  -6  -3 635.111 185.296   1
  14  -6  -3 247.229 189.759   1
 -14   6   3 733.885 189.195   1
 -14  -6   3 345.495 199.647   1
   9   2 -22 2429.12 285.319   1
  -9   2  22 2254.83 239.271   1
  -9  -2  22 2769.65 244.320   1
  -9  -2  22 2332.52 250.871   1
  -4   7 -12 71.8497 123.716   1
   4  -7  12 -102.34 139.072   1
   4   7  12 41.2164 117.177   1
  15   5 -12 385.672 164.924   1
 -15  -5  12 324.433 175.938   1
  15  -5 -12 229.636 212.532   1
 -15   5  12 19.1144 161.598   1
 -14  -6  10 514.495 196.467   1
  14   6 -10 778.530 193.905   1
 -14   6  10 663.632 183.989   1
  14  -6 -10 398.353 192.039   1
  -8   7  15 473.695 140.041   1
   8  -7 -15 449.073 156.647   1
  -8   7  15 253.843 149.967   1
   8   7 -15 269.136 198.196   1
   8   7 -15 453.738 183.611   1
  -8  -7  15 273.360 178.022   1
 -18   1  11 109.090 154.174   1
  18   1 -11 155.750 150.042   1
  18  -1 -11 185.610 165.908   1
 -18   1  11 100.106 154.506   1
 -18  -1  11 -49.059 163.857   1
 -18  -1  11 116.542 160.511   1
 -13  -4  18 695.276 187.428   1
 -13  -4  18 -4.7534 215.521   1
  13  -4 -18 733.040 202.024   1
 -13   4  18 717.124 175.027   1
  13   4 -18 397.383 209.688   1
  -4  -2  22 908.511 210.448   1
  -4   2  22 1546.46 186.525   1
  13   6 -13 2431.19 270.906   1
  13   6 -13 2380.26 273.070   1
 -13  -6  13 2615.79 282.770   1
  13  -6 -13 2336.52 296.528   1
 -13   6  13 2139.58 237.948   1
 -12  -7   1 11.8713 136.770   1
  12   7  -1 56.9297 129.784   1
 -12   7   1 -96.930 136.661   1
  12  -7  -1 231.606 141.472   1
  12  -7  -1 0.71654 154.849   1
   5   9   3 201.919 148.511   1
   5   9   3 311.797 174.865   1
  -5   9  -3 97.5351 165.391   1
  -5  -9  -3 302.248 158.131   1
   5  -9   3 126.660 179.148   1
   7  -8 -12 157.054 151.757   1
  -7   8  12 257.184 141.368   1
  -7   8  12 199.751 164.914   1
   7   8 -12 268.281 180.298   1
   7   8 -12 293.352 187.276   1
  -7  -8  12 151.082 178.770   1
 -10  -4  20 799.926 204.451   1
 -10  -4  20 484.750 188.041   1
  10   4 -20 591.155 205.558   1
  13  -6   1 219.012 177.890   1
  13   6   1 317.095 161.521   1
 -13   6  -1 406.899 174.457   1
 -13  -6  -1 387.935 157.328   1
  13  -6   1 198.060 170.629   1
  -9  -8  10 155.806 150.397   1
  -9   8  10 68.5270 135.408   1
   9  -8 -10 -35.146 152.208   1
   9   8 -10 125.132 138.104   1
   9   8 -10 -100.22 153.898   1
 -13   4  -6 539.857 169.163   1
  13   4   6 537.947 166.522   1
  13  -4   6 320.552 168.609   1
  13  -4   6 470.078 194.892   1
  -6   9  -1 64.8334 129.424   1
  -6  -9  -1 -8.8032 131.565   1
   6   9   1 20.3365 140.575   1
   6  -9   1 96.6227 139.553   1
   6   9   1 -62.544 115.425   1
  15   0 -19 227.393 199.337   1
 -15   0  19 136.971 147.497   1
 -15   0  19 279.507 170.658   1
 -12   3  -9 6405.78 389.887   1
  12   3   9 6890.34 389.974   1
  12  -3   9 5863.74 400.476   1
  12  -3   9 6488.51 387.512   1
 -17  -3  12 516.375 228.663   1
 -17  -3  12 597.180 203.080   1
 -17   3  12 731.761 190.310   1
 -17   3  12 242.360 185.524   1
  17  -3 -12 381.185 190.238   1
  17   3 -12 497.513 191.741   1
  -9  -5  19 1390.45 197.333   1
   9   5 -19 659.245 229.799   1
  -9  -5  19 852.743 203.978   1
   6  -8   7 161.650 172.778   1
  -6   8  -7 131.212 175.997   1
   6  -8   7 196.628 168.433   1
   6   8   7 290.872 171.433   1
 -11   5  18 443.866 155.012   1
 -11  -5  18 308.806 183.972   1
  11  -5 -18 482.570 166.356   1
  11   5 -18 429.356 202.666   1
 -11  -5  18 472.402 176.328   1
 -18   0  12 1875.49 250.263   1
  18   0 -12 1859.01 262.797   1
 -18   0  12 2111.58 266.342   1
  -7   5 -13 350.094 205.175   1
   7  -5  13 638.611 211.909   1
   7  -5  13 523.938 194.824   1
   0   8  12 3262.64 318.099   1
   0   8 -12 3368.81 303.780   1
   0  -8  12 3218.74 302.498   1
   7  -7   9 512.314 169.423   1
   7  -7   9 202.772 177.030   1
  -7   7  -9 187.273 182.771   1
   6  -5  14 6552.87 388.971   1
  -6   5 -14 6855.62 431.381   1
 -16  -4   2 8724.27 507.895   1
  16   4  -2 8741.93 487.354   1
  16  -4  -2 7820.24 447.592   1
  16  -4  -2 8353.63 480.865   1
 -16   4   2 7925.11 459.345   1
  11   0 -22 148.915 167.885   1
 -11   0  22 251.309 161.621   1
 -11   0  22 113.822 148.664   1
 -14   4  -4 3667.37 304.852   1
  14   4   4 3424.01 282.796   1
  14  -4   4 3605.85 331.082   1
  14  -4   4 3115.81 317.883   1
  14   4   4 3412.65 256.093   1
  15   1   5 637.063 175.744   1
  15   1   5 398.590 181.093   1
 -15   1  -5 725.294 203.246   1
 -15  -1  -5 745.793 177.439   1
  15  -1   5 1330.97 191.170   1
  15  -1   5 545.192 199.592   1
   0   9   8 1321.68 189.804   1
   0   9   8 1481.18 217.815   1
   0  -9   8 1679.93 249.563   1
   0   9  -8 1571.71 242.347   1
   0   9  -8 305.834 235.064   1
  14   1   7 390.139 154.028   1
 -14   1  -7 230.441 157.101   1
  14  -1   7 39.7817 153.841   1
  14  -1   7 119.965 145.259   1
   8   8   4 2238.93 271.809   1
   8   8   4 2174.56 208.044   1
   8  -8   4 2036.51 260.191   1
   8  -8   4 1706.21 255.948   1
  -8   8  -4 1411.80 265.594   1
   5   3  17 416.427 168.750   1
 -17   0   0 23.3280 117.959   1
  17   0   0 -69.767 121.289   1
  17   0   0 99.3066 114.433   1
  10  -1  13 344.768 170.288   1
  10   1  13 232.358 154.653   1
  -2   0  22 398.163 150.778   1
  10   8  -8 1549.79 253.525   1
  10   8  -8 1799.27 256.526   1
 -10  -8   8 2522.61 266.565   1
  10  -8  -8 2425.90 257.596   1
 -10   8   8 2273.49 236.848   1
  14  -4 -17 -102.43 145.067   1
  14   4 -17 -1.6217 141.406   1
 -14   4  17 120.472 129.251   1
 -14  -4  17 176.669 125.860   1
 -14  -4  17 -175.29 151.886   1
  -4   8  13 924.060 217.290   1
  -4  -8  13 1670.66 234.335   1
   4   8 -13 1299.55 243.119   1
   4   8 -13 1128.81 232.842   1
 -12  -4  19 184.825 181.003   1
 -12  -4  19 319.922 156.625   1
  12  -4 -19 291.794 160.076   1
  12   4 -19 137.132 183.346   1
 -12   4  19 168.182 148.623   1
  18  -1  -5 -54.102 103.238   1
  18   1  -5 -14.436 94.5996   1
  18  -1  -5 62.9626 109.736   1
 -18  -1   5 -67.760 104.966   1
 -18   1   5 90.0200 105.309   1
  16   2   2 5155.32 350.083   1
  16  -2   2 5883.62 382.644   1
  16  -2   2 6345.23 425.545   1
 -16  -2  -2 5628.62 368.635   1
 -16   2  -2 6991.52 441.949   1
  16   2   2 5319.47 347.735   1
   7  -9  -3 440.708 185.818   1
   7   9  -3 75.1596 184.688   1
   7   9  -3 293.598 197.889   1
  -7   9   3 381.657 175.377   1
  -7  -9   3 176.915 165.269   1
   9  -8   2 147.117 170.573   1
   9   8   2 91.9474 177.643   1
  -9   8  -2 153.200 176.400   1
  -9  -8  -2 84.9951 144.603   1
   9  -8   2 71.4148 154.653   1
  14   1 -20 2181.52 297.770   1
  14  -1 -20 2219.12 276.746   1
 -14   1  20 1911.56 265.721   1
 -14   1  20 2174.13 255.208   1
 -14  -1  20 1660.80 255.698   1
 -14  -1  20 1872.54 277.794   1
   5   6 -18 2741.59 289.014   1
  -5  -6  18 3125.51 314.390   1
   5  -9  -8 81.7748 161.745   1
   5   9  -8 6.33511 195.562   1
   5   9  -8 -33.314 151.963   1
  -5  -9   8 3.76311 163.565   1
  -5   9   8 243.755 147.357   1
  -5   9   8 203.676 143.873   1
 -16  -4  13 3344.47 361.267   1
 -16  -4  13 3767.39 314.589   1
 -16   4  13 2843.11 274.268   1
 -16   4  13 2960.41 270.055   1
  16  -4 -13 2935.63 289.024   1
  16   4 -13 3375.88 303.470   1
   2   5 -19 26.7253 136.919   1
  -2  -5  19 35.7359 130.828   1
  12  -2 -21 40.3615 139.169   1
 -12   2  21 43.7147 145.241   1
 -12   2  21 27.2143 130.201   1
 -12  -2  21 169.280 152.148   1
 -12  -2  21 12.1220 136.077   1
  12   2 -21 179.979 173.246   1
   6  -9  -7 38.3429 121.960   1
   6   9  -7 11.5091 135.209   1
  -6   9   7 -1.8440 149.265   1
  -6   9   7 133.271 134.643   1
  -6  -9   7 -96.818 132.044   1
   6   9  -7 25.1655 127.565   1
  -8   5 -12 199.924 184.060   1
   8  -5  12 244.827 170.463   1
   8  -5  12 71.2857 183.838   1
   3   8 -13 1424.77 247.977   1
   3   8 -13 1564.92 216.766   1
  -3   8  13 2133.25 212.354   1
  -3  -8  13 1932.45 249.379   1
   7   9  -4 451.475 169.864   1
   7  -9  -4 198.723 177.738   1
   7   9  -4 684.019 188.421   1
  -7   9   4 -115.30 166.239   1
  -7   9   4 102.349 172.534   1
  -7  -9   4 457.344 173.750   1
  -2  -3  21 57.2096 121.556   1
  -2  -3  21 143.058 141.511   1
  -2   3  21 226.993 138.119   1
  -6  -6  18 1754.31 225.711   1
   6   6 -18 1060.75 240.962   1
  10   8  -1 361.640 208.437   1
  10   8  -1 425.211 185.197   1
 -10   8   1 281.744 180.801   1
  10  -8  -1 411.812 178.724   1
  10  -8  -1 289.726 190.211   1
 -10  -8   1 281.708 184.121   1
 -16   0  -3 -2.7802 147.347   1
  16   0   3 11.6521 139.374   1
  16   0   3 148.327 135.403   1
 -13   0  21 459.154 192.496   1
 -13   0  21 391.054 187.816   1
  13   0 -21 538.906 201.365   1
  -3   9  -6 46.7714 138.874   1
  -3   9  -6 -36.877 138.992   1
   3  -9   6 41.0034 145.795   1
   3   9   6 2.53071 109.021   1
   3   9   6 86.4079 131.816   1
   3  -6  15 287.150 144.147   1
  -3   6 -15 132.754 151.803   1
   3   6  15 164.112 160.848   1
   2  -8  11 40.3248 138.130   1
  -2   8 -11 -11.722 142.639   1
   2   8  11 103.600 159.622   1
   3  -7  13 28.6320 148.746   1
  -3   7 -13 180.677 202.313   1
   3   7  13 374.121 150.255   1
  13   0   9 4243.17 312.520   1
  -5   8  13 96.9028 135.316   1
  -5  -8  13 40.4966 145.528   1
   5   8 -13 -32.163 144.559   1
   5   8 -13 30.6690 153.803   1
  -5   5 -15 -0.2736 139.530   1
   5  -5  15 70.8994 132.414   1
   7   9  -2 4723.55 319.198   1
   7  -9  -2 4126.04 349.186   1
   7   9  -2 3965.64 362.221   1
  -7   9   2 4226.60 335.201   1
  -7  -9   2 4383.98 374.086   1
 -15  -1  19 318.303 200.908   1
 -15  -1  19 209.962 191.970   1
 -15   1  19 428.802 185.451   1
 -15   1  19 359.269 198.472   1
  15   1 -19 379.789 188.659   1
  15  -1 -19 507.252 178.904   1
 -11   5  -8 1625.74 260.104   1
  11  -5   8 863.129 236.491   1
  11  -5   8 1521.84 215.943   1
 -11   6  16 316.523 174.810   1
  11  -6 -16 395.364 179.604   1
 -11  -6  16 426.071 180.610   1
  11   6 -16 523.702 209.492   1
  12  -4   8 3223.30 310.276   1
 -12   4  -8 3490.13 279.929   1
  12  -4   8 3343.97 266.799   1
  12   4   8 3067.14 252.505   1
   4  -4  17 33.4438 131.152   1
   4   4  17 107.305 114.752   1
  -4   4 -17 101.512 139.889   1
 -18   1  12 1452.54 223.369   1
  18  -1 -12 1554.91 237.824   1
 -18  -1  12 1513.77 239.159   1
  18   1 -12 860.687 229.477   1
 -18  -1  12 950.475 244.808   1
 -18   1  12 1442.62 230.399   1
   9  -6   9 185.140 153.710   1
  -9   6  -9 172.571 195.352   1
   9  -6   9 133.934 202.325   1
  -2   9  -7 419.395 171.467   1
  -2   9  -7 79.4466 170.182   1
   2   9   7 192.696 130.822   1
   2   9   7 222.084 163.378   1
   2  -9   7 -46.293 184.724   1
 -18   0   4 146.714 183.827   1
  18   0  -4 90.7166 151.478   1
  18   0  -4 134.385 158.320   1
 -10   3 -12 2087.79 228.451   1
  10   3  12 1537.41 223.087   1
  10  -3  12 2130.10 227.269   1
  10  -3  12 1970.97 258.723   1
  11   1 -22 3131.40 296.161   1
 -11   1  22 2760.19 252.241   1
  11  -1 -22 2680.87 277.300   1
 -11  -1  22 2744.67 268.801   1
 -11   1  22 3058.64 280.650   1
 -11  -1  22 3019.06 274.665   1
  -4   9  -5 247.536 189.027   1
  -4  -9  -5 537.046 177.490   1
   4  -9   5 436.815 208.269   1
   4   9   5 574.757 156.301   1
   4   9   5 411.669 197.424   1
  14   5   2 4142.25 293.332   1
  14  -5   2 3520.49 299.285   1
 -14  -5  -2 3760.59 282.262   1
 -14   5  -2 3668.15 314.056   1
  14  -5   2 3486.37 333.799   1
  -4  -6  18 170.067 142.058   1
   4   6 -18 -16.614 180.778   1
  12   6 -15 -176.46 161.919   1
 -12  -6  15 -57.736 149.438   1
  12  -6 -15 20.6093 154.030   1
 -12   6  15 -76.153 143.452   1
  17   2  -1 -3.4325 127.171   1
  17   2  -1 78.2462 137.405   1
 -17  -2   1 104.839 170.023   1
  17  -2  -1 90.5436 135.360   1
  17  -2  -1 35.9542 144.976   1
 -17   2   1 14.5851 146.898   1
  18   2  -8 331.550 180.351   1
 -18  -2   8 217.013 194.291   1
  18  -2  -8 527.034 184.172   1
 -18   2   8 685.558 195.788   1
 -18  -2   8 491.216 182.898   1
   7   9  -5 2269.12 272.514   1
  -7  -9   5 1772.82 250.585   1
  -7   9   5 1503.55 228.895   1
  -7   9   5 1588.45 231.880   1
   7   9  -5 2373.89 293.466   1
   7  -9  -5 1307.37 237.976   1
  -5   7  16 266.655 141.692   1
   5   7 -16 142.610 178.847   1
  -5  -7  16 104.545 161.274   1
  12   2  10 3113.42 300.389   1
  12  -2  10 3589.39 301.470   1
  12  -2  10 3115.04 263.932   1
 -12   2 -10 3412.78 274.979   1
  14   6  -2 150.197 138.650   1
 -14  -6   2 -69.676 139.981   1
  14  -6  -2 -78.203 135.829   1
 -14   6   2 163.694 135.900   1
  14  -6  -2 62.3586 168.292   1
 -17   0  16 174.616 157.582   1
  17   0 -16 238.190 167.288   1
 -17   0  16 -115.02 155.396   1
 -17  -3   3 281.150 197.758   1
 -17   3   3 208.977 193.053   1
  17  -3  -3 331.935 189.365   1
  17  -3  -3 27.7124 175.690   1
  17   3  -3 378.672 197.876   1
 -18  -2   9 83.8574 143.355   1
  18  -2  -9 239.078 144.051   1
  18   2  -9 115.633 138.989   1
 -18   2   9 -41.585 124.280   1
 -18  -2   9 14.9349 143.784   1
 -18   2   9 -37.279 148.384   1
  17  -1   0 1899.81 264.468   1
  17   1   0 1532.11 221.628   1
  17   1   0 1447.11 208.648   1
  17  -1   0 1817.99 229.794   1
 -17  -1   0 1669.57 216.480   1
 -17   1   0 1727.39 230.194   1
  11   0  12 -74.761 137.008   1
  10  -4  11 4047.77 333.939   1
 -10   4 -11 3575.63 308.005   1
  10   4  11 3689.86 262.591   1
  10  -4  11 3149.64 295.007   1
  -2  -1  22 8628.38 430.362   1
  -2   1  22 8367.83 424.564   1
  14  -5 -15 3891.65 303.589   1
  14   5 -15 4905.03 368.579   1
 -14   5  15 3915.16 341.931   1
 -14  -5  15 4366.54 357.968   1
 -14  -5  15 4515.49 334.892   1
  14   6 -11 187.075 162.755   1
  14   6 -11 247.039 179.765   1
  14  -6 -11 272.134 201.150   1
 -14   6  11 89.6060 148.918   1
 -14  -6  11 81.5199 168.246   1
   8   2  15 165.765 131.543   1
   8  -2  15 80.3475 166.613   1
  -4   7  16 1800.90 222.707   1
   4   7 -16 1917.21 268.636   1
  -4  -7  16 2605.61 256.495   1
 -16   2  17 73.7738 191.216   1
  16  -2 -17 28.3183 152.816   1
 -16  -2  17 397.299 168.724   1
  16   2 -17 -0.9632 165.873   1
 -16   2  17 170.201 138.675   1
 -16  -2  17 208.874 154.500   1
   7   2  16 286.248 143.628   1
  -7  -6  18 1626.63 224.836   1
   7   6 -18 1346.47 260.408   1
  10  -7 -14 39.9131 120.032   1
 -10   7  14 -58.555 106.925   1
  10   7 -14 -15.345 122.114   1
  10   7 -14 -62.783 139.613   1
 -10  -7  14 50.6340 124.661   1
  -3   9   9 -130.71 120.301   1
   3   9  -9 102.984 129.191   1
  -3  -9   9 -95.225 139.316   1
   3  -9  -9 30.3838 120.338   1
   3   9  -9 57.0682 134.454   1
  -3   9   9 119.484 119.701   1
   7   8   6 1777.41 246.603   1
   7  -8   6 1554.35 233.395   1
  -7   8  -6 1458.83 246.683   1
   7  -8   6 808.131 241.541   1
 -10  -2  22 2.64789 123.470   1
  10   2 -22 64.3103 147.894   1
 -10  -2  22 50.1729 128.668   1
 -10   2  22 22.5017 131.840   1
  18   2  -7 2987.69 323.044   1
  18  -2  -7 3427.67 290.234   1
 -18  -2   7 3494.04 314.618   1
 -18   2   7 3354.51 313.733   1
 -12   6  -4 309.678 177.764   1
  12  -6   4 294.572 167.677   1
  12  -6   4 290.843 217.747   1
  -2   8  13 2766.81 255.738   1
   2   8 -13 2802.03 295.760   1
   2   8 -13 2946.94 307.668   1
  -2  -8  13 3073.06 283.216   1
  -2   9   9 110.868 186.664   1
  -2  -9   9 372.218 176.639   1
   2   9  -9 -44.009 171.824   1
   2  -9  -9 -21.687 150.114   1
   2   9  -9 399.007 174.188   1
  -2   9   9 186.258 141.135   1
   8  -7   8 7045.77 422.471   1
  -8   7  -8 7432.90 450.851   1
   8  -7   8 6969.94 419.433   1
   7   9  -1 8609.36 487.110   1
  -7  -9   1 9098.17 533.485   1
   7  -9  -1 8283.34 499.515   1
  -7   9   1 7978.80 476.939   1
   7   9  -1 8897.04 516.437   1
 -12  -7  11 964.980 225.059   1
  12   7 -11 1242.12 222.330   1
  12   7 -11 846.194 190.013   1
 -12   7  11 800.618 192.291   1
  12  -7 -11 713.196 244.616   1
  15   5  -1 3272.05 288.482   1
 -15  -5   1 3166.81 294.178   1
  15  -5  -1 3041.22 282.900   1
  15  -5  -1 2973.77 301.156   1
 -15   5   1 2875.40 289.746   1
 -16   0  18 712.652 188.886   1
  16   0 -18 558.150 205.751   1
 -16   0  18 808.460 208.845   1
  -6   9  -2 1010.98 217.118   1
  -6  -9  -2 1042.63 212.786   1
   6   9   2 1037.29 232.669   1
   6   9   2 719.017 202.747   1
   6  -9   2 628.555 230.031   1
  -3  -2  22 192.533 146.139   1
  -3   2  22 251.246 156.951   1
  -6   7  16 4947.64 307.375   1
  -6  -7  16 4327.26 338.286   1
   6   7 -16 4500.24 353.846   1
 -16  -1  -3 2690.05 266.314   1
  16  -1   3 2929.48 271.541   1
  16   1   3 2590.67 261.298   1
 -16   1  -3 2793.38 294.168   1
  16  -1   3 2719.05 277.044   1
  16   1   3 2368.98 255.844   1
   1  -4  19 80.1050 130.976   1
  -1   4 -19 86.0510 136.966   1
 -11   6  -6 14.3580 151.717   1
  11  -6   6 145.201 136.857   1
  11  -6   6 47.3146 191.768   1
 -13   1  21 32.6057 113.558   1
 -13   1  21 -29.165 101.338   1
 -13  -1  21 -3.4537 93.0494   1
 -13  -1  21 9.25078 111.092   1
  13  -1 -21 -61.440 111.848   1
  13   1 -21 41.9895 105.469   1
 -18  -2  10 295.701 182.765   1
 -18  -2  10 534.437 191.268   1
 -18   2  10 303.147 183.326   1
 -18   2  10 337.700 164.958   1
  18   2 -10 273.620 175.357   1
  18  -2 -10 228.118 188.272   1
  -7   0  23 5079.39 328.291   1
  18   0 -13 53.5258 145.696   1
 -18   0  13 -120.48 149.138   1
  16   3   1 2640.22 256.168   1
  16  -3   1 2378.15 261.571   1
 -16   3  -1 2203.38 315.478   1
 -16  -3  -1 2702.17 280.680   1
  16  -3   1 2365.98 288.210   1
  16   3   1 2702.11 268.570   1
  -6  -4  21 607.091 200.825   1
  -6  -4  21 877.969 189.975   1
  13  -1   9 397.776 179.432   1
  13  -1   9 316.404 148.207   1
  13   1   9 469.090 163.904   1
 -12  -7   0 959.201 185.529   1
  12   7   0 384.600 183.781   1
 -12   7   0 599.050 204.363   1
  12  -7   0 577.714 189.386   1
  12  -7   0 418.344 186.585   1
 -17  -3  13 94.3601 202.673   1
 -17   3  13 170.799 146.981   1
 -17  -3  13 205.644 169.145   1
 -17   3  13 50.6689 171.162   1
  17   3 -13 165.857 157.751   1
  17  -3 -13 113.340 160.624   1
  -6  -8  13 351.819 170.849   1
   6   8 -13 126.854 191.060   1
   6   8 -13 270.897 183.390   1
  -6   8  13 240.263 133.995   1
  -6   8  13 280.584 174.509   1
   9  -5  11 65.2784 164.602   1
   9  -5  11 58.6457 155.282   1
  -9   5 -11 111.749 159.820   1
 -15  -5  13 107.468 177.379   1
  15   5 -13 299.244 167.019   1
 -15   5  13 278.659 158.582   1
  15  -5 -13 272.229 214.999   1
  -7  -4  21 177.774 179.935   1
  -7  -4  21 290.425 160.124   1
   7   4 -21 263.642 199.605   1
  10   8  -9 87.6707 185.023   1
  10   8  -9 187.643 156.760   1
 -10  -8   9 -26.182 156.433   1
  10  -8  -9 140.591 146.337   1
 -10   8   9 79.4797 159.099   1
   9   2  14 132.801 123.318   1
   9  -2  14 35.8928 151.367   1
  -6   0  23 131.562 139.264   1
   4  -9  -9 690.150 211.987   1
   4   9  -9 1474.09 211.867   1
  -4  -9   9 834.282 231.648   1
  -4   9   9 831.696 242.660   1
  -4   9   9 667.067 193.906   1
   4   9  -9 1010.03 233.199   1
 -15   4  -2 62.2811 146.128   1
  15  -4   2 -72.801 159.891   1
  15  -4   2 134.406 133.128   1
  15   4   2 18.5872 126.681   1
 -15  -4  -2 147.280 136.659   1
  15   4   2 0.87916 136.893   1
  17  -2 -15 437.325 188.818   1
 -17  -2  15 218.646 181.615   1
 -17   2  15 308.812 167.570   1
 -17   2  15 405.737 171.434   1
 -17  -2  15 418.885 171.556   1
  17   2 -15 143.889 185.466   1
  11   7 -13 126.972 171.196   1
  11   7 -13 153.254 175.623   1
 -11  -7  13 240.469 170.344   1
  11  -7 -13 75.7444 168.859   1
 -11   7  13 185.224 161.609   1
  -1   9  -8 335.548 189.439   1
   1   9   8 133.783 158.695   1
   1  -9   8 290.433 179.620   1
  -1   9  -8 87.8005 172.659   1
   0   7  15 487.072 175.890   1
   0  -7  15 382.866 176.475   1
   0   7 -15 273.619 223.551   1
 -18  -1   4 3474.12 296.592   1
  18   1  -4 3513.27 327.802   1
  18  -1  -4 3596.75 302.587   1
  18  -1  -4 3431.45 321.693   1
 -18   1   4 3640.04 315.646   1
  -5  -9  -4 616.073 189.639   1
  -5   9  -4 236.744 202.272   1
   5   9   4 578.583 180.697   1
   5   9   4 1492.44 212.660   1
   5  -9   4 48.2010 217.916   1
  -7  -9   6 978.644 236.966   1
   7   9  -6 1038.41 224.120   1
  -7   9   6 1882.31 221.758   1
  -7   9   6 1730.50 255.364   1
   7  -9  -6 1370.73 230.349   1
   7   9  -6 515.317 239.914   1
   6   2  17 4725.56 346.301   1
 -11  -3  21 2891.78 257.925   1
 -11   3  21 2404.50 228.307   1
 -11   3  21 2706.04 262.985   1
 -11  -3  21 2341.46 290.705   1
  11   3 -21 2305.95 275.566   1
 -10   6  17 1762.52 194.940   1
  10  -6 -17 1510.19 202.541   1
  10   6 -17 688.905 255.614   1
 -10  -6  17 1437.59 218.377   1
  -8   0  23 188.651 177.520   1
  -3   7  16 812.301 196.934   1
   3   7 -16 754.685 264.510   1
  -3  -7  16 1519.61 209.982   1
  17  -1 -16 615.715 203.715   1
 -17  -1  16 854.738 203.515   1
  17   1 -16 847.211 217.374   1
 -17   1  16 600.247 234.254   1
 -17   1  16 536.344 187.971   1
 -17  -1  16 797.750 251.713   1
  -4   5 -16 276.706 161.961   1
   4  -5  16 4.42915 157.350   1
   8  -8 -12 971.746 195.048   1
  -8   8  12 892.190 201.438   1
  -8   8  12 881.359 182.077   1
   8   8 -12 215.015 226.587   1
  -8  -8  12 285.828 220.702   1
   8   8 -12 688.003 223.810   1
   5   4 -21 433.652 185.577   1
  -5  -4  21 300.332 165.070   1
  -5  -4  21 305.855 158.244   1
  11   1  12 402.411 190.554   1
  11  -1  12 221.419 167.820   1
  18   2  -6 2339.52 258.545   1
  18  -2  -6 3025.01 277.779   1
 -18   2   6 2949.92 296.143   1
 -18  -2   6 3231.60 303.607   1
  18  -2  -6 2660.00 304.719   1
  -9   7  15 1877.50 213.119   1
   9  -7 -15 1756.59 223.228   1
  -9  -7  15 2109.23 245.948   1
   9   7 -15 1438.68 267.532   1
   9   7 -15 1517.94 241.584   1
  -1  -9   9 814.171 226.954   1
   1   9  -9 747.643 219.164   1
  -1   9   9 706.279 233.890   1
   1   9  -9 604.384 216.574   1
   1   4 -20 3392.97 275.537   1
  -1  -4  20 2761.93 261.482   1
  -3  -6  18 2258.93 289.802   1
   3   6 -18 2600.40 258.701   1
  13   7  -6 894.094 203.686   1
 -13  -7   6 583.146 211.066   1
 -13   7   6 1342.34 208.386   1
  13  -7  -6 698.150 219.171   1
  13  -7  -6 1491.06 230.463   1
  10  -7   5 2758.14 283.769   1
  10  -7   5 2656.88 324.294   1
 -10   7  -5 2088.08 276.782   1
   9   8 -11 97.2122 180.809   1
   9   8 -11 142.919 163.746   1
   9  -8 -11 -22.468 158.413   1
  -9  -8  11 169.306 158.715   1
  -9   8  11 97.5976 146.557   1
  10   8   0 390.458 210.576   1
  10  -8   0 339.830 187.027   1
 -10   8   0 218.654 172.103   1
 -10  -8   0 357.529 177.445   1
  10  -8   0 123.768 188.655   1
  10   8   0 362.325 180.023   1
 -10  -5  19 395.690 186.393   1
  10   5 -19 974.286 213.131   1
 -10  -5  19 475.199 182.396   1
 -15   4  16 -50.976 160.866   1
  15   4 -16 153.925 173.044   1
  15  -4 -16 212.936 153.017   1
 -15  -4  16 154.784 182.545   1
 -15   4  16 72.7781 169.811   1
 -15  -4  16 222.465 156.228   1
   0   2  21 2691.72 217.921   1
   0  -2  21 2190.50 213.462   1
   0   6  17 330.225 174.507   1
   0  -6  17 1444.23 193.222   1
   0   6 -17 1022.51 195.746   1
 -16  -3  16 501.448 184.745   1
 -16  -3  16 406.950 214.549   1
 -16   3  16 592.133 173.884   1
 -16   3  16 253.294 185.596   1
  16  -3 -16 611.689 193.439   1
  16   3 -16 528.468 205.331   1
  16  -4  -1 922.409 217.398   1
  16  -4  -1 505.201 202.831   1
  16   4  -1 738.493 214.580   1
 -16   4   1 860.748 209.187   1
 -16  -4   1 782.301 221.568   1
  11   7   3 2358.28 240.064   1
 -11   7  -3 2678.12 288.620   1
  11  -7   3 2677.35 322.882   1
  13   7  -7 273.925 185.014   1
 -13  -7   7 331.878 183.902   1
  13   7  -7 500.756 174.302   1
  13  -7  -7 329.394 182.861   1
 -13   7   7 170.100 165.129   1
   6  -9  -8 132.056 160.261   1
   6   9  -8 219.812 185.634   1
   6   9  -8 440.213 181.932   1
  -6   9   8 312.121 164.392   1
  -6   9   8 362.744 175.899   1
  -6  -9   8 317.994 186.684   1
  13  -7  -5 177.602 161.675   1
 -13  -7   5 45.6097 155.288   1
 -13   7   5 249.312 152.649   1
  13   7  -5 77.3124 181.487   1
  13  -7  -5 74.1442 170.538   1
 -16   1  18 559.542 181.947   1
 -16  -1  18 575.282 202.671   1
 -16  -1  18 582.668 184.499   1
  16   1 -18 420.754 199.866   1
  16  -1 -18 534.315 236.137   1
 -16   1  18 631.436 206.502   1
  -7  -3  22 391.624 171.256   1
   7   3 -22 280.800 196.598   1
  -7   3  22 568.423 168.374   1
  -7  -3  22 376.547 158.477   1
 -18  -2  11 242.439 190.265   1
 -18   2  11 227.745 165.047   1
 -18   2  11 189.176 165.756   1
 -18  -2  11 129.137 180.509   1
  18   2 -11 362.579 166.451   1
  18  -2 -11 378.583 186.552   1
   1   8  12 1965.80 271.328   1
  -1   8 -12 1636.91 253.126   1
   1  -8  12 1612.52 245.417   1
  -6   3  22 1065.36 239.363   1
  -6  -3  22 1337.73 195.838   1
  -6  -3  22 1291.32 206.390   1
 -11   4  20 6069.56 342.013   1
 -11  -4  20 5799.28 383.359   1
 -11  -4  20 5926.91 375.874   1
  11   4 -20 5606.66 465.724   1
   2   7  14 887.310 228.724   1
  -2   7 -14 990.879 220.090   1
   2  -7  14 1451.06 214.467   1
  -1   5 -18 1147.87 231.259   1
   1   5  18 1254.80 192.102   1
   1  -5  18 1571.73 223.350   1
   7   9   0 626.571 205.021   1
   7  -9   0 276.453 196.781   1
   7   9   0 221.492 176.766   1
  -7   9   0 323.947 184.318   1
  -7  -9   0 39.2245 187.462   1
  14  -3   6 208.870 159.446   1
  14  -3   6 126.047 125.872   1
  14   3   6 5.59865 141.931   1
 -14   3  -6 39.2351 162.228   1
  -7   1  23 151.131 177.795   1
  -7  -1  23 142.659 143.081   1
  18   1 -13 1059.51 223.195   1
  18  -1 -13 728.232 222.207   1
 -18   1  13 752.031 223.261   1
 -18  -1  13 697.834 234.154   1
 -18   1  13 936.776 201.952   1
 -18  -1  13 455.796 218.602   1
  -8  -4  21 6779.73 406.153   1
  -8  -4  21 6936.16 388.793   1
   8   4 -21 7541.46 436.804   1
  -8  -6  18 271.256 173.437   1
   8   6 -18 293.753 194.048   1
  -7   7  16 33.2226 125.345   1
  -7  -7  16 333.354 159.892   1
 -13   6  14 21.3584 140.322   1
  13   6 -14 300.873 158.029   1
  13   6 -14 249.339 181.863   1
 -13  -6  14 225.751 174.284   1
  13  -6 -14 96.0034 189.663   1
  -5   0  23 6922.65 417.563   1
 -13  -6  -2 193.384 167.255   1
  13   6   2 311.108 166.517   1
  13  -6   2 453.873 189.993   1
  13  -6   2 321.591 191.899   1
 -13   6  -2 804.929 189.207   1
  -6   1  23 97.4020 137.893   1
  -6  -1  23 134.213 135.712   1
  16   5  -7 2991.55 287.555   1
 -16  -5   7 3044.91 286.770   1
  16  -5  -7 2985.44 360.798   1
  16  -5  -7 2609.55 296.313   1
 -16   5   7 2935.97 285.695   1
 -16  -5   8 3276.28 303.505   1
 -16   5   8 2879.01 289.020   1
  16   5  -8 3502.04 304.837   1
  16  -5  -8 3189.06 314.977   1
 -14   3  19 2862.71 239.681   1
 -14  -3  19 2160.75 254.215   1
 -14  -3  19 2872.26 291.710   1
  14  -3 -19 2745.01 292.696   1
  14   3 -19 2107.08 286.965   1
 -14   3  19 2803.08 293.234   1
  -1   8  13 34.9161 160.598   1
   1   8 -13 107.771 162.884   1
  -1  -8  13 113.797 156.272   1
  18   0  -3 141.944 142.115   1
 -18   0   3 73.4859 176.189   1
  18   0  -3 8.21122 152.180   1
   1   3  20 833.772 165.958   1
   2   6  16 118.924 147.941   1
   2  -6  16 242.045 176.517   1
  -2   6 -16 126.796 178.459   1
  16  -4 -14 306.643 167.793   1
  16   4 -14 275.963 180.665   1
 -16  -4  14 169.088 163.051   1
 -16   4  14 167.160 154.370   1
 -16   4  14 -34.979 155.362   1
 -16  -4  14 136.413 173.001   1
  15  -2   5 246.957 178.218   1
  15  -2   5 409.726 187.294   1
  15   2   5 267.554 160.888   1
  15   2   5 388.573 149.037   1
 -15   2  -5 396.192 194.044   1
   5   9  -9 1479.55 233.569   1
  -5   9   9 1693.96 239.898   1
  -5  -9   9 1688.12 259.900   1
  -5   9   9 1797.41 228.786   1
   5  -9  -9 1537.49 210.803   1
   5   9  -9 1695.61 257.301   1
  -8   1  23 2474.65 234.230   1
  -8  -1  23 1633.89 205.353   1
  -8  -1  23 1370.45 214.102   1
  14  -2   7 39.4034 135.987   1
  14  -2   7 161.900 128.631   1
  14   2   7 -50.250 153.068   1
 -14   2  -7 -1.5878 142.429   1
 -13  -7   8 947.201 234.546   1
  13   7  -8 895.097 218.158   1
  13   7  -8 1139.11 279.683   1
 -13   7   8 1697.06 217.628   1
  13  -7  -8 1266.38 230.167   1
  13   7  -4 -50.355 153.138   1
 -13  -7   4 -316.14 152.270   1
 -13   7   4 237.650 138.836   1
  13  -7  -4 30.4360 120.190   1
  13  -7  -4 163.393 141.914   1
 -17   4   8 103.091 149.139   1
  17   4  -8 330.862 156.726   1
 -17  -4   8 406.398 180.349   1
 -17   4   8 22.2169 170.719   1
  17  -4  -8 298.964 187.025   1
  -8   3  22 -48.830 131.636   1
  -8  -3  22 150.205 131.681   1
   8   3 -22 47.7174 158.469   1
  -8  -3  22 67.8223 123.183   1
  -9   0  23 802.001 195.808   1
  10  -2  13 158.026 163.318   1
  10   2  13 151.219 132.995   1
  11  -3  11 1533.54 206.605   1
  11   3  11 710.401 203.536   1
 -11   3 -11 1503.36 209.624   1
  11  -3  11 1429.73 225.691   1
   1   5 -19 775.720 213.051   1
  -1  -5  19 591.388 201.226   1
  14   6  -1 62.5215 150.658   1
 -14  -6   1 157.510 161.305   1
  14  -6  -1 94.0274 154.698   1
 -14   6   1 258.239 161.521   1
  14  -6  -1 188.604 193.648   1
   6   5 -20 704.410 247.844   1
  -6  -5  20 1543.59 196.255   1
  -6  -5  20 585.539 189.256   1
 -12   0  22 138.415 152.990   1
  12   0 -22 88.8941 169.199   1
 -12   0  22 197.561 150.928   1
   3  -4  18 564.102 189.166   1
  -3   4 -18 716.253 183.832   1
  -9   8  -3 489.838 212.660   1
   9   8   3 264.333 207.304   1
   9  -8   3 691.156 193.932   1
   9  -8   3 424.168 200.239   1
   9   8   3 352.476 159.941   1
   5   3 -22 409.953 173.431   1
  -5  -3  22 365.471 160.799   1
  -5   3  22 627.139 201.312   1
  -5  -3  22 315.429 187.534   1
  15  -3   4 353.401 196.463   1
 -15   3  -4 398.651 163.474   1
  15  -3   4 257.423 187.417   1
  15   3   4 307.972 177.908   1
  15   3   4 129.222 141.867   1
  16   5  -6 1524.98 278.067   1
 -16  -5   6 1839.60 236.003   1
  16  -5  -6 999.351 243.951   1
  16  -5  -6 1690.02 251.672   1
 -16   5   6 753.090 233.538   1
   4   4 -21 87.8243 136.665   1
  -4  -4  21 -10.531 115.465   1
  -4  -4  21 55.8410 128.216   1
  17   4  -7 1448.73 221.425   1
  17  -4  -7 1805.97 256.071   1
 -17   4   7 1001.04 250.727   1
 -17  -4   7 1118.03 241.542   1
  17  -4  -7 1391.16 260.651   1
 -10   6  -8 881.053 254.201   1
  10  -6   8 1012.98 208.867   1
  10  -6   8 927.910 230.454   1
  14   6 -12 84.0257 169.708   1
  14   6 -12 104.890 159.521   1
 -14  -6  12 152.081 161.470   1
  14  -6 -12 82.1137 157.769   1
 -14   6  12 173.005 145.083   1
  18  -2  -5 785.196 197.157   1
  18   2  -5 739.267 233.514   1
  18  -2  -5 463.165 224.631   1
 -18   2   5 404.133 211.563   1
 -18  -2   5 1015.73 214.237   1
  17   3  -2 16605.6 768.507   1
  17  -3  -2 14097.7 680.365   1
  17  -3  -2 14214.7 709.499   1
 -17   3   2 13671.4 688.052   1
 -17  -3   2 15995.9 755.834   1
 -16  -5   9 -50.047 131.718   1
  16   5  -9 -57.014 128.298   1
 -16   5   9 7.87899 119.580   1
  16  -5  -9 160.048 134.267   1
   7   9  -7 328.345 196.735   1
   7  -9  -7 432.167 181.545   1
   7   9  -7 282.746 183.462   1
  -7   9   7 442.328 167.650   1
  -7   9   7 365.220 166.738   1
  -7  -9   7 260.676 193.411   1
  17  -4  -9 229.130 171.219   1
 -17   4   9 208.898 160.258   1
 -17   4   9 175.002 146.847   1
  17   4  -9 30.6214 153.564   1
 -17  -4   9 15.5356 163.418   1
 -14  -2  20 -34.297 153.648   1
  14  -2 -20 36.9690 165.251   1
  14   2 -20 12.0155 163.537   1
 -14  -2  20 -47.219 137.075   1
 -14   2  20 373.635 154.625   1
 -14   2  20 196.666 156.521   1
  -7   8  13 613.987 193.883   1
  -7   8  13 1172.97 172.865   1
   7  -8 -13 423.700 185.943   1
   7   8 -13 520.902 220.237   1
  -7  -8  13 487.247 207.059   1
   7   8 -13 563.637 221.767   1
 -13  -3  20 105.509 119.705   1
  13  -3 -20 -24.457 131.665   1
  13   3 -20 -21.271 132.461   1
 -13   3  20 20.3730 138.712   1
 -13  -3  20 -23.141 135.896   1
  -5  -5  20 139.938 150.064   1
   5   5 -20 94.7086 164.156   1
  -5  -5  20 -23.492 126.120   1
  -1   0  22 76.4502 118.983   1
  -2   7  16 10199.5 499.364   1
  -2  -7  16 9038.99 482.767   1
   2   7 -16 9583.69 523.173   1
   5   8   9 578.150 214.434   1
   5  -8   9 645.251 212.982   1
   5  -8   9 1029.95 226.363   1
  -5   8  -9 742.586 211.750   1
   8   8   5 509.357 234.248   1
   8  -8   5 983.956 222.170   1
   8  -8   5 579.637 221.497   1
  -8   8  -5 1253.40 236.007   1
   7   5 -20 -103.35 209.159   1
  -7  -5  20 307.745 142.121   1
  -7  -5  20 101.794 151.826   1
  13  -3   8 1789.50 260.723   1
  13   3   8 1798.95 236.796   1
 -13   3  -8 1466.06 242.043   1
  13  -3   8 1741.05 235.491   1
  11   4  10 152.749 133.157   1
  11  -4  10 7.49268 172.225   1
 -11   4 -10 61.5000 156.789   1
  11  -4  10 166.572 157.325   1
   0   9   9 40.2858 126.027   1
   0  -9   9 -36.699 138.079   1
   0   9  -9 -24.870 140.540   1
   0   9  -9 98.0760 134.378   1
  -1   3  21 991.745 186.313   1
  -1  -3  21 677.986 182.159   1
   4  -8  10 125.456 140.860   1
   4  -8  10 3.84506 154.376   1
  -4   8 -10 63.3071 147.847   1
   4   8  10 0.21535 139.128   1
   9  -7   7 15.2653 137.156   1
  -9   7  -7 -46.403 151.962   1
   9  -7   7 150.261 144.436   1
 -17   0  -1 257.419 166.436   1
  17   0   1 487.320 169.176   1
  17   0   1 369.069 161.499   1
  13   5 -17 1742.89 277.200   1
  13  -5 -17 1524.19 251.393   1
 -13  -5  17 1808.83 251.491   1
 -13   5  17 2055.54 247.442   1
 -13  -5  17 2118.53 274.365   1
  -5  -1  23 949.851 181.945   1
  -5   1  23 803.481 218.539   1
  11  -8  -5 11866.8 602.714   1
  11   8  -5 11288.3 632.202   1
 -11   8   5 11591.8 567.090   1
  11   8  -5 11804.5 631.863   1
 -11  -8   5 11899.0 582.829   1
 -15   2  19 70.2332 149.303   1
 -15  -2  19 80.8076 140.409   1
  15   2 -19 87.7665 157.306   1
  15  -2 -19 190.642 175.770   1
 -15  -2  19 -53.849 155.284   1
  -6   9  -3 274.286 183.616   1
   6   9   3 142.909 157.633   1
   6   9   3 466.045 193.062   1
   6  -9   3 428.190 196.679   1
  -6  -9  -3 300.928 171.152   1
 -13   5  -5 4019.64 325.459   1
  13  -5   5 3890.02 312.387   1
  13  -5   5 3860.01 338.737   1
  10  -5  10 2774.72 309.443   1
  10  -5  10 3699.79 282.669   1
 -10   5 -10 3665.52 336.417   1
  18   0 -14 1156.07 237.628   1
 -18   0  14 652.939 205.013   1
  12   0  11 64.5790 170.709   1
 -15   3  18 35.0144 128.168   1
 -15   3  18 75.0508 182.767   1
 -15  -3  18 55.9033 158.624   1
 -15  -3  18 124.784 139.788   1
  15   3 -18 -65.585 164.323   1
  15  -3 -18 171.397 171.359   1
  12  -5 -18 852.532 207.449   1
  12   5 -18 893.350 243.128   1
 -12  -5  18 1446.00 223.954   1
 -12   5  18 759.827 190.320   1
 -12  -5  18 1169.75 234.149   1
  17  -4  -6 1135.30 255.529   1
  17  -4  -6 1487.87 238.609   1
 -17   4   6 1687.99 256.279   1
  17   4  -6 1399.66 222.472   1
 -17  -4   6 1603.59 243.354   1
 -18   2  12 182.858 178.301   1
  18   2 -12 297.408 172.600   1
  18  -2 -12 384.400 188.626   1
 -18  -2  12 299.159 202.815   1
 -18   2  12 214.590 165.926   1
 -18  -2  12 186.247 183.317   1
  10   8 -10 278.588 168.102   1
  10   8 -10 133.162 178.309   1
 -10  -8  10 218.196 174.809   1
  10  -8 -10 308.735 162.943   1
 -10   8  10 254.305 152.008   1
  11   8  -6 -132.49 230.954   1
  11   8  -6 242.699 169.751   1
 -11  -8   6 246.208 174.053   1
  11  -8  -6 208.374 216.137   1
 -11   8   6 284.517 160.399   1
  -3   9  -7 196.085 195.994   1
   3   9   7 345.087 184.915   1
   3  -9   7 588.589 194.760   1
 -11  -2  22 529.217 203.869   1
 -11  -2  22 1334.69 189.155   1
  11   2 -22 614.646 228.596   1
 -11   2  22 239.981 190.289   1
 -11   2  22 455.237 167.056   1
  11   8  -4 299.705 178.259   1
  11   8  -4 329.998 207.188   1
 -11  -8   4 601.132 176.769   1
 -11   8   4 146.776 180.339   1
  11  -8  -4 339.326 192.585   1
  11  -8  -4 325.810 174.199   1
 -18   1   3 192.839 177.863   1
  18  -1  -3 72.6076 174.896   1
  18   1  -3 229.092 176.226   1
 -18  -1   3 119.077 201.659   1
  18   1  -3 503.534 160.709   1
  18  -1  -3 418.560 167.208   1
  12   7 -12 2793.67 306.127   1
  12   7 -12 3073.23 307.301   1
  12  -7 -12 2509.19 272.322   1
 -12  -7  12 3396.15 305.986   1
 -12   7  12 2742.29 312.333   1
 -16   5   5 191.114 191.277   1
 -16  -5   5 581.672 210.932   1
  16  -5  -5 467.316 189.889   1
  16   5  -5 289.477 174.535   1
  16  -5  -5 139.532 186.422   1
   4   9   6 483.745 206.539   1
  -4   9  -6 604.233 197.098   1
   4  -9   6 444.610 210.722   1
   2   6 -18 124.382 157.288   1
  -2  -6  18 255.333 183.222   1
 -17  -3  14 1569.02 260.608   1
  17  -3 -14 1842.86 261.478   1
  17   3 -14 1838.26 272.941   1
 -17   3  14 2033.41 240.627   1
 -17   3  14 1892.43 279.084   1
 -17  -3  14 2139.47 274.593   1
  -6   6 -13 160.657 152.441   1
   6  -6  13 160.095 150.247   1
 -17   4  10 847.468 201.005   1
 -17   4  10 543.702 193.467   1
  17   4 -10 850.587 201.843   1
  17  -4 -10 703.069 220.214   1
 -17  -4  10 871.902 207.269   1
  -9  -4  21 510.411 188.382   1
  -9  -4  21 362.689 205.304   1
   9   4 -21 510.276 200.441   1
  17   2   0 8.37516 126.787   1
  17   2   0 73.4228 137.073   1
  17  -2   0 -39.986 121.258   1
  17  -2   0 102.337 132.812   1
 -17  -2   0 -47.361 149.310   1
 -17   2   0 51.0360 136.107   1
  -9  -1  23 133.346 153.087   1
   9   1 -23 118.812 163.710   1
  -9  -1  23 226.752 148.595   1
  -9   1  23 219.578 157.991   1
 -13  -7   9 -62.101 122.158   1
  13   7  -9 -36.904 120.551   1
  13   7  -9 -57.053 150.999   1
  13  -7  -9 14.7502 117.910   1
 -13   7   9 78.2170 113.085   1
  -6   8  -8 160.805 179.049   1
   6  -8   8 189.302 180.607   1
   6  -8   8 59.9165 167.218   1
   6   8   8 277.975 172.681   1
 -13  -7   3 155.464 164.301   1
  13   7  -3 437.092 198.541   1
 -13   7   3 187.431 174.603   1
  13  -7  -3 551.898 190.598   1
  13  -7  -3 443.828 205.585   1
   7  -9   1 2282.50 286.856   1
   7   9   1 2070.07 247.364   1
  -7  -9  -1 2581.40 275.187   1
  -7   9  -1 1978.98 275.239   1
   7   9   1 2271.70 305.622   1
 -15  -5   0 151.506 149.798   1
  15   5   0 -17.964 147.311   1
  15  -5   0 63.2616 143.372   1
  15  -5   0 64.9475 162.256   1
 -15   5   0 113.389 151.276   1
  -2   2  22 1997.25 221.700   1
  -2  -2  22 1661.12 212.934   1
 -12   1  22 69.2304 144.651   1
  12  -1 -22 55.6577 152.277   1
  12   1 -22 20.2878 167.071   1
 -12   1  22 193.201 149.808   1
 -12  -1  22 117.574 147.262   1
 -12  -1  22 58.6720 152.055   1
  12   7   1 102.722 132.127   1
 -12  -7  -1 157.973 134.822   1
  12  -7   1 -115.79 144.417   1
  12  -7   1 29.1503 144.997   1
 -12   7  -1 124.544 152.515   1
  -4   0  23 -30.373 129.816   1
   7  -6  12 87.3678 144.888   1
   7  -6  12 224.084 176.589   1
  -7   6 -12 88.8129 156.396   1
  16   5 -10 912.189 220.253   1
 -16  -5  10 540.841 223.073   1
  16  -5 -10 916.009 232.725   1
 -16   5  10 1596.58 212.913   1
   3  -5  17 160.257 164.291   1
  -3   5 -17 294.076 172.745   1
  15   0   6 191.728 153.622   1
 -15   0  -6 136.789 152.251   1
  15   0   6 72.1301 144.389   1
 -12   5  -7 276.735 181.784   1
  12  -5   7 -38.891 144.911   1
  12  -5   7 151.475 164.309   1
   3   8  11 3730.74 309.074   1
   3  -8  11 3009.20 285.267   1
  -3   8 -11 2923.33 311.450   1
   9   3 -22 649.178 236.252   1
  -9   3  22 685.292 192.665   1
  -9  -3  22 758.467 201.149   1
  -9  -3  22 685.016 186.709   1
   4   5 -20 130.088 174.255   1
  -4  -5  20 146.870 166.761   1
 -10  -8  -1 3972.29 333.296   1
  10   8   1 4519.39 348.318   1
  10   8   1 4201.30 382.822   1
 -10   8  -1 4221.64 354.211   1
  10  -8   1 4636.37 350.929   1
  10  -8   1 4630.08 371.869   1
   2  -9   8 491.388 180.835   1
   2  -9   8 472.564 203.238   1
   2   9   8 635.929 203.101   1
  -2   9  -8 676.683 211.807   1
  -1   1  22 458.584 155.510   1
  -1  -1  22 610.084 162.195   1
  -8   7  16 112.150 129.273   1
   8   7 -16 140.893 178.790   1
  -8  -7  16 157.814 158.188   1
  11   8  -7 3373.73 320.575   1
 -11  -8   7 3898.19 373.516   1
  11   8  -7 3814.71 337.157   1
 -11   8   7 3704.09 296.658   1
  11  -8  -7 3831.58 376.486   1
  -4  -3  22 379.756 165.061   1
  -4  -3  22 395.817 188.159   1
  -4   3  22 428.678 191.551   1
  16   2   3 136.328 139.977   1
 -16  -2  -3 -14.267 147.817   1
 -16   2  -3 -57.329 181.320   1
  16  -2   3 130.474 174.683   1
  16  -2   3 182.695 150.063   1
  16   2   3 203.661 169.629   1
  -8  -5  20 91.9569 128.320   1
  -8  -5  20 -100.76 125.229   1
   8   5 -20 122.717 145.428   1
  14  -4   5 180.578 162.402   1
 -14   4  -5 78.6583 178.271   1
  14   4   5 72.8520 140.679   1
  14  -4   5 91.4295 168.613   1
 -13   2  21 263.837 167.157   1
  13   2 -21 214.660 180.631   1
 -13   2  21 460.695 186.710   1
 -13  -2  21 439.220 165.623   1
  13  -2 -21 418.362 185.404   1
 -13  -2  21 336.511 185.750   1
 -15  -5  14 1764.94 269.200   1
 -15   5  14 2271.00 239.013   1
  15   5 -14 1607.89 262.627   1
  15  -5 -14 2107.59 305.407   1
   5  -6  14 2429.61 295.626   1
  -5   6 -14 2468.36 309.328   1
  11   8  -3 115.191 141.921   1
 -11  -8   3 79.4395 169.993   1
 -11   8   3 7.52737 153.375   1
  11  -8  -3 73.0791 151.763   1
  11   8  -3 180.868 210.056   1
  11  -8  -3 62.6525 153.955   1
  17   1   1 3600.98 312.073   1
  17   1   1 2907.55 285.349   1
 -17   1  -1 4156.99 313.595   1
  17  -1   1 3617.12 304.771   1
  17  -1   1 3867.57 291.338   1
 -17  -1  -1 3714.35 315.361   1
  -8  -9   4 -53.946 123.456   1
  -8   9   4 -73.377 120.997   1
   8  -9  -4 90.2611 137.286   1
   8   9  -4 -13.381 117.432   1
   8   9  -4 56.1318 164.675   1
  -6   7 -11 -99.894 179.548   1
   6  -7  11 68.7783 180.897   1
   6  -7  11 122.744 139.974   1
   6   7  11 62.8970 169.913   1
  13  -2   9 231.514 145.733   1
  13   2   9 341.185 186.052   1
 -13   2  -9 128.971 160.938   1
  13  -2   9 166.056 171.647   1
   3   9 -10 141.166 163.805   1
   3   9 -10 149.488 173.235   1
  -3   9  10 1.88060 128.526   1
  -3  -9  10 198.321 169.769   1
  -3   9  10 119.986 147.310   1
   5  -7  12 544.130 171.490   1
   5   7  12 172.821 177.870   1
  -5   7 -12 306.314 178.198   1
   8   9  -3 1810.34 259.092   1
  -8   9   3 859.527 232.195   1
  -8  -9   3 1922.16 276.657   1
   8  -9  -3 527.409 248.832   1
   8   9  -3 1612.71 226.795   1
  17   0 -17 28351.9 1203.11   1
 -17   0  17 27794.7 1248.58   1
 -17   0  17 27235.1 1143.31   1
  -9  -6  18 5418.43 363.959   1
   9   6 -18 5263.44 407.495   1
 -14   5  -3 1020.37 227.131   1
  14  -5   3 1615.46 220.473   1
  14  -5   3 1099.56 250.348   1
 -13  -4  19 5978.81 420.845   1
 -13  -4  19 5523.46 375.095   1
 -13   4  19 5819.64 372.479   1
  13  -4 -19 6566.13 404.523   1
  13   4 -19 6296.65 424.134   1
 -13   4  19 6107.42 406.855   1
  18   1 -14 3961.17 341.278   1
 -18  -1  14 3800.89 318.920   1
  18  -1 -14 3374.14 325.618   1
 -18   1  14 3187.91 339.423   1
 -18   1  14 3519.23 299.663   1
 -18  -1  14 3671.22 365.717   1
  12   1  11 540.144 193.523   1
  12  -1  11 883.402 205.586   1
 -17   4   5 238.005 179.601   1
  17  -4  -5 412.674 170.679   1
  17  -4  -5 81.4608 188.887   1
  17   4  -5 106.776 197.215   1
 -17  -4   5 279.596 175.450   1
 -14  -4  18 286.530 211.373   1
 -14   4  18 494.469 198.730   1
  14  -4 -18 419.589 172.861   1
 -14   4  18 545.134 194.066   1
  14   4 -18 305.074 201.458   1
 -14  -4  18 467.008 187.171   1
   5  -9   5 184.634 182.628   1
   5   9   5 152.658 174.947   1
  -5   9  -5 167.863 174.144   1
 -13   4  -7 2075.70 284.439   1
  13   4   7 1844.09 231.990   1
  13  -4   7 2402.87 287.602   1
  13  -4   7 1764.91 277.110   1
 -10   0  23 39.8057 137.638   1
 -10   0  23 57.4623 125.194   1
  -6   9   9 1463.55 221.420   1
  -6  -9   9 1423.49 256.725   1
   6   9  -9 811.178 241.358   1
   6   9  -9 1886.81 256.375   1
  -6   9   9 1895.77 244.007   1
  18   2  -4 60.7783 147.513   1
  18  -2  -4 183.201 176.183   1
 -18  -2   4 44.2117 162.408   1
  18  -2  -4 125.441 158.047   1
 -18   2   4 200.631 159.919   1
  14   0   8 84.5020 141.008   1
  -8   9   5 2163.15 287.065   1
  -8  -9   5 1978.92 305.508   1
   8  -9  -5 1629.49 260.785   1
   8   9  -5 1058.77 272.205   1
   8   9  -5 1910.70 238.595   1
  14  -5 -16 1728.62 281.071   1
  14   5 -16 2016.38 285.990   1
 -14  -5  16 2364.80 262.926   1
 -14  -5  16 2015.60 279.882   1
 -14   5  16 1740.44 270.735   1
  15   0 -20 83.9840 154.849   1
 -15   0  20 16.4025 137.841   1
 -15   0  20 -48.939 142.000   1
  -2   9  10 93.1728 175.964   1
   2   9 -10 117.135 169.739   1
  -2  -9  10 -8.7188 166.260   1
   2   9 -10 186.139 165.164   1
   4   9 -10 403.290 181.988   1
  -4  -9  10 205.995 198.360   1
  -4   9  10 274.724 156.941   1
  -4   9  10 37.0232 204.590   1
   4   9 -10 404.061 194.436   1
 -15  -6   7 91.5539 154.740   1
  15   6  -7 222.208 144.707   1
 -15   6   7 47.1177 154.075   1
  15  -6  -7 42.9775 152.865   1
  15  -6  -7 25.1206 158.843   1
  -3  -4  21 1422.38 233.839   1
  -3  -4  21 1521.25 218.006   1
   3   4 -21 1650.69 229.864   1
   8  -6  11 213.046 195.085   1
  -8   6 -11 232.698 223.875   1
   8  -6  11 446.334 171.752   1
 -17  -2  16 -15.644 139.978   1
 -17   2  16 72.4466 132.941   1
 -17   2  16 -111.92 142.616   1
  17   2 -16 10.3011 156.538   1
  17  -2 -16 382.588 184.367   1
 -17  -2  16 113.815 157.778   1
   0  -8  13 2523.51 268.043   1
   0   8 -13 2737.20 290.627   1
   0   8  13 2801.95 302.834   1
  11   2  12 536.484 195.791   1
  11  -2  12 300.134 181.534   1
  16   0   4 -112.12 125.737   1
  16   0   4 77.2525 126.780   1
 -16   0  -4 -22.174 130.171   1
  -4   8  14 4354.47 333.141   1
   4   8 -14 4431.27 359.778   1
  -4  -8  14 4252.64 346.141   1
   4   8 -14 4184.95 354.910   1
   1   7  15 1981.83 249.496   1
   1  -7  15 1984.77 241.678   1
  -1   7 -15 1815.83 300.841   1
   7   9  -8 547.305 223.778   1
   7   9  -8 668.161 221.180   1
  -7   9   8 1369.25 204.440   1
  -7   9   8 1401.51 208.010   1
  -7  -9   8 603.326 231.261   1
  12  -6 -16 756.211 226.801   1
 -12   6  16 581.580 211.332   1
  12   6 -16 1626.07 250.947   1
 -12  -6  16 1669.32 224.315   1
  17   4 -11 147.102 196.491   1
 -17   4  11 513.409 190.842   1
 -17   4  11 233.243 181.376   1
  17  -4 -11 818.843 201.048   1
 -17  -4  11 748.908 198.699   1
   8   9  -2 389.852 227.651   1
   8   9  -2 663.468 231.876   1
  -8   9   2 262.712 209.612   1
  -8  -9   2 698.283 187.282   1
   8  -9  -2 841.536 220.766   1
 -16  -5   4 1953.87 270.652   1
  16   5  -4 1644.74 226.048   1
  16  -5  -4 1617.15 237.121   1
  16  -5  -4 1311.81 310.397   1
 -16   5   4 1032.87 246.149   1
  -4   1  23 624.473 197.307   1
  -4  -1  23 738.874 200.371   1
  15   6  -6 1648.93 241.836   1
  15  -6  -6 723.134 268.754   1
  15  -6  -6 916.907 220.093   1
 -15  -6   6 776.345 213.571   1
 -15   6   6 501.716 207.120   1
  -7   7 -10 430.527 213.924   1
   7  -7  10 517.381 197.970   1
   7  -7  10 527.214 222.993   1
  15  -1   6 83.5896 125.148   1
  15   1   6 -6.6399 158.812   1
  15   1   6 -6.1710 117.242   1
  15  -1   6 92.0329 140.040   1
 -15   1  -6 41.7236 141.297   1
   8   0  16 29.5444 129.854   1
  15   6  -8 2518.90 261.187   1
 -15  -6   8 2245.95 278.158   1
  15  -6  -8 2407.52 278.591   1
 -15   6   8 1883.11 263.832   1
 -14   0  21 130.562 139.666   1
 -14   0  21 125.994 166.323   1
  14   0 -21 120.697 150.540   1
 -16  -4   0 18.4197 154.630   1
  16   4   0 0.11098 143.781   1
  16  -4   0 113.968 142.377   1
  16  -4   0 98.0887 156.654   1
 -16   4   0 55.8467 186.450   1
  -9   8  12 175.619 158.404   1
   9   8 -12 200.083 188.462   1
   9  -8 -12 153.745 176.758   1
   9   8 -12 187.230 188.440   1
  -9  -8  12 315.772 186.330   1
  -7   4 -15 278.623 170.433   1
   7  -4  15 348.010 166.933   1
  -5   8  14 137.959 159.079   1
  -5  -8  14 169.542 166.314   1
   5   8 -14 131.546 170.680   1
   5   8 -14 93.5410 170.085   1
  16  -3   2 6575.25 446.055   1
  16  -3   2 6716.92 446.146   1
 -16  -3  -2 7126.13 424.832   1
 -16   3  -2 6761.24 420.740   1
  16   3   2 6708.60 393.587   1
  16   3   2 6314.05 385.923   1
 -18   0   2 1020.17 211.307   1
  18   0  -2 1289.37 255.053   1
  18   0  -2 846.921 213.226   1
   7  -8   7 62.9849 154.094   1
   7  -8   7 -41.477 169.941   1
   7   8   7 88.4732 161.890   1
  -7   8  -7 297.239 167.416   1
  11  -7 -14 249.204 173.985   1
  11   7 -14 100.777 185.221   1
  11   7 -14 83.7604 172.069   1
 -11  -7  14 198.240 171.843   1
 -11   7  14 168.450 156.346   1
 -10   7  15 21.1724 132.676   1
  10  -7 -15 6.95845 141.330   1
  10   7 -15 305.588 173.189   1
 -10  -7  15 89.4317 143.633   1
 -12  -3  21 4578.89 334.238   1
 -12   3  21 4281.23 315.525   1
 -12   3  21 4260.72 344.389   1
 -12  -3  21 4237.90 363.461   1
  12   3 -21 4728.29 355.060   1
  12  -3 -21 4578.51 334.348   1
 -11   5  19 -2.3457 132.244   1
  11   5 -19 448.249 177.122   1
 -11  -5  19 82.2070 158.417   1
 -11  -5  19 136.744 149.295   1
  -4   7 -13 382.749 208.366   1
   4   7  13 100.319 196.046   1
   4  -7  13 199.784 156.187   1
 -16  -2  18 147.712 158.210   1
 -16   2  18 160.717 166.632   1
  16   2 -18 272.127 169.149   1
 -16  -2  18 31.5019 171.809   1
 -16   2  18 81.5207 140.056   1
  16  -2 -18 102.173 189.643   1
  11   8  -8 85.7649 119.759   1
  11   8  -8 53.0131 122.895   1
  11  -8  -8 156.005 120.044   1
 -11   8   8 188.688 129.726   1
   8  -4  14 7.07156 164.007   1
  -8   4 -14 82.0021 137.332   1
  16   5 -11 203.786 177.642   1
 -16  -5  11 277.253 183.302   1
  16  -5 -11 231.575 186.498   1
 -16   5  11 308.500 172.972   1
   0 -10   0 164.351 208.171   1
   0  10   0 220.005 179.433   1
   0  10   0 117.255 150.341   1
   7   0  17 4224.23 321.348   1
  -3   8  14 1776.12 252.505   1
  -3  -8  14 1459.91 236.918   1
   3   8 -14 1642.11 265.063   1
   3   8 -14 1668.32 257.927   1
 -11   6  17 261.420 141.667   1
  11  -6 -17 190.941 150.936   1
  11   6 -17 26.6883 184.498   1
 -11  -6  17 47.4265 161.244   1
  12  -6   5 626.239 231.495   1
 -12   6  -5 265.336 201.251   1
  12  -6   5 687.763 199.082   1
  13   7 -10 1276.07 264.368   1
  13   7 -10 953.878 229.732   1
 -13  -7  10 1535.49 243.497   1
  13  -7 -10 877.326 231.199   1
 -13   7  10 1394.97 213.489   1
  -7  -2  23 -49.928 98.1387   1
  -7  -2  23 74.8700 98.7772   1
  -7   2  23 -17.296 98.8243   1
  18   2 -13 1843.41 263.337   1
 -18  -2  13 1574.10 314.496   1
 -18   2  13 2208.83 245.063   1
 -18   2  13 2135.57 275.420   1
 -18  -2  13 2260.36 279.764   1
  18  -2 -13 1844.34 273.469   1
  13   7  -2 68.0391 140.910   1
 -13  -7   2 48.7171 140.879   1
  13  -7  -2 -20.488 141.422   1
  13  -7  -2 34.4259 150.861   1
 -13   7   2 -14.522 136.291   1
  -1   7  16 1829.94 242.193   1
   1   7 -16 1803.49 260.954   1
  -1  -7  16 1778.97 281.099   1
   9   0  15 158.670 159.471   1
   1   9   9 219.517 210.775   1
   1  -9   9 58.8670 185.694   1
  -1   9  -9 546.240 182.476   1
  -1   9  -9 307.887 182.081   1
  14   6   0 -39.902 137.758   1
 -14  -6   0 99.2322 142.755   1
  14  -6   0 9.80094 154.741   1
  14  -6   0 11.9438 140.852   1
 -14   6   0 257.380 150.468   1
  11   8  -2 1595.04 255.947   1
  11   8  -2 1349.41 269.669   1
 -11  -8   2 1359.48 252.659   1
  11  -8  -2 1494.21 239.076   1
  11  -8  -2 997.709 231.649   1
 -11   8   2 1025.14 228.538   1
  17   1 -17 1640.77 250.667   1
  17  -1 -17 1009.46 252.342   1
 -17  -1  17 935.238 261.941   1
 -17   1  17 870.178 242.470   1
 -17  -1  17 1626.05 227.771   1
   8   9  -6 3437.31 339.583   1
  -8   9   6 3818.42 340.242   1
  -8  -9   6 3268.64 327.562   1
   8   9  -6 3236.32 358.592   1
   0   4 -20 161.910 152.382   1
   0  -4  20 187.829 156.183   1
   0  10   1 41.9725 163.464   1
   0  10   1 14.9291 175.661   1
   0  10  -1 51.3890 143.341   1
   0  10  -1 148.400 170.971   1
   0 -10  -1 172.389 152.799   1
   0 -10   1 142.551 205.027   1
   4  -6  15 129.331 179.524   1
   4   6  15 100.115 139.031   1
  -4   6 -15 167.585 172.515   1
 -15   4  -3 8574.33 545.411   1
  15   4   3 9338.13 476.301   1
  15   4   3 8753.12 475.967   1
  15  -4   3 7958.57 453.924   1
  15  -4   3 8388.41 507.271   1
  -6   2  23 122.920 126.539   1
  -6  -2  23 23.4335 122.486   1
  -8   8  13 1645.88 209.284   1
  -8   8  13 1481.44 223.116   1
   8  -8 -13 1443.29 225.592   1
  -8  -8  13 1152.87 249.454   1
   8   8 -13 770.493 262.189   1
   2   8  12 403.295 212.690   1
   2  -8  12 294.745 181.827   1
  -2   8 -12 264.730 225.367   1
  15   6  -5 4443.20 382.128   1
 -15  -6   5 4824.47 343.505   1
  15  -6  -5 4696.89 410.884   1
  15  -6  -5 4991.59 373.006   1
 -15   6   5 4555.84 350.034   1
  14   6 -13 1556.20 248.902   1
  14   6 -13 1593.32 261.100   1
 -14  -6  13 1832.27 263.284   1
  14  -6 -13 1162.04 286.596   1
 -14   6  13 1823.27 229.586   1
  10   1 -23 439.060 214.885   1
 -10   1  23 827.251 189.351   1
 -10  -1  23 470.271 181.242   1
 -10  -1  23 552.111 191.138   1
  -1 -10   0 175.547 168.518   1
   1  10   0 315.342 185.664   1
   1 -10   0 32.1727 176.866   1
  -1  10   0 80.3871 177.558   1
   1  10   0 181.439 154.342   1
  -1  10   0 230.706 192.313   1
  -6   4 -16 126.973 152.992   1
   6  -4  16 56.5031 146.133   1
  -1  10   1 31.8772 170.048   1
   1  10  -1 76.4006 156.270   1
   1  10  -1 -22.764 135.798   1
   1 -10  -1 71.1407 151.855   1
  -1  10   1 153.283 157.958   1
  -1 -10   1 52.5081 155.832   1
  14   1   8 66.7694 172.822   1
  14  -1   8 53.5939 133.374   1
 -14   1  -8 116.633 139.322   1
  14  -1   8 90.2581 145.555   1
  15   6  -9 89.2509 154.998   1
 -15  -6   9 84.6825 163.944   1
 -15   6   9 165.155 156.123   1
  15  -6  -9 95.0114 163.409   1
  -1  -9  10 2036.23 281.634   1
  -1   9  10 2242.89 300.962   1
   1   9 -10 2647.31 277.513   1
   1   9 -10 2115.89 284.996   1
 -16  -4  15 267.352 223.460   1
 -16  -4  15 308.572 197.799   1
 -16   4  15 793.363 187.822   1
 -16   4  15 624.277 193.897   1
  16   4 -15 474.937 227.422   1
  16  -4 -15 683.923 205.824   1
  15   1 -20 101.881 200.713   1
  15  -1 -20 143.554 155.653   1
 -15   1  20 51.7872 172.273   1
 -15  -1  20 158.109 155.117   1
 -15  -1  20 62.8899 169.515   1
 -15   1  20 246.094 170.440   1
 -17  -3   1 3095.19 326.119   1
  17  -3  -1 2960.74 312.989   1
  17  -3  -1 2969.01 292.920   1
 -17   3   1 3112.40 321.637   1
  17   3  -1 2855.01 315.379   1
  -1   6 -17 7.99953 158.143   1
   1  -6  17 44.4996 157.206   1
   1   6  17 81.5103 130.952   1
  -3  -5  20 67.8272 145.973   1
   3   5 -20 21.0940 151.620   1
 -18  -3   8 1910.75 264.134   1
  18   3  -8 1945.80 258.622   1
  18  -3  -8 2191.92 259.471   1
 -18   3   8 2403.64 282.163   1
  -8   2  23 2117.91 240.914   1
  -8  -2  23 1823.03 222.083   1
   8   2 -23 2225.02 270.695   1
  -8  -2  23 1783.73 237.800   1
  -5   9  10 2025.82 253.732   1
  -5   9  10 2466.74 253.215   1
  -5  -9  10 2094.25 285.178   1
   5   9 -10 1794.40 263.697   1
   5   9 -10 2501.14 286.058   1
  12  -3  10 356.778 187.558   1
  12   3  10 244.494 178.995   1
  12  -3  10 387.129 170.429   1
 -12   3 -10 594.054 179.803   1
 -11   7  -4 -64.656 126.389   1
  11  -7   4 89.3356 141.475   1
  18  -3  -9 216.570 172.965   1
 -18   3   9 97.7836 164.544   1
  18   3  -9 62.3296 155.559   1
 -18  -3   9 171.456 164.858   1
  16  -1   4 1596.03 200.855   1
 -16   1  -4 1068.72 256.823   1
 -16  -1  -4 1754.98 229.829   1
  16  -1   4 1478.27 236.947   1
  16   1   4 1926.48 272.603   1
  16   1   4 1829.32 225.311   1
   8   9  -1 669.251 227.014   1
   8   9  -1 472.295 214.429   1
  -8   9   1 486.998 208.802   1
  -8  -9   1 449.031 225.734   1
   8  -9  -1 576.720 220.674   1
   7   9   2 2200.74 297.039   1
  -7  -9  -2 2145.07 261.655   1
  -7   9  -2 2362.04 289.139   1
   7   9   2 2010.13 237.283   1
   7  -9   2 2272.16 282.546   1
  16   0 -19 16.8807 136.651   1
 -16   0  19 15.7809 136.177   1
 -16   0  19 3.57550 120.541   1
  12   4 -20 755.136 248.138   1
 -12   4  20 815.232 190.752   1
 -12   4  20 923.369 234.945   1
  12  -4 -20 1537.49 219.117   1
 -12  -4  20 959.667 231.785   1
 -12  -4  20 1404.17 216.488   1
   8  -3  15 26.9075 167.427   1
   8   3  15 173.830 138.973   1
 -16  -3  17 172.194 196.291   1
 -16   3  17 299.303 172.563   1
 -16  -3  17 137.049 165.024   1
  16   3 -17 238.253 183.381   1
  16  -3 -17 -26.339 171.198   1
 -16   3  17 430.275 182.154   1
   9   5 -20 251.512 185.366   1
  -9  -5  20 179.424 163.167   1
  -9  -5  20 234.083 158.042   1
   2  -4  19 8021.07 435.074   1
 -10  -4  21 1312.70 214.445   1
 -10  -4  21 1099.43 224.303   1
  10   4 -21 1002.83 236.679   1
  -6   8  14 84.4404 156.570   1
   6   8 -14 185.004 174.801   1
  -6  -8  14 87.8667 159.154   1
   6   8 -14 45.0185 168.455   1
  17   4  -4 2070.10 302.514   1
 -17   4   4 2696.99 290.261   1
 -17  -4   4 2521.91 325.201   1
  17  -4  -4 2619.45 273.834   1
  17  -4  -4 2288.21 303.455   1
   7   3  16 53.8745 132.626   1
 -13   6  15 859.342 180.554   1
 -13  -6  15 507.234 209.469   1
  13   6 -15 697.488 230.332   1
  13  -6 -15 683.834 234.260   1
   8   1  16 -39.253 131.372   1
   8  -1  16 155.124 146.379   1
   1 -10   1 420.208 204.594   1
   1  10   1 504.406 176.532   1
   1  10   1 435.335 204.007   1
  -1 -10  -1 638.056 238.751   1
  -1  10  -1 334.954 201.362   1
  -1  10  -1 402.146 186.630   1
  14  -1 -21 183.811 145.569   1
 -14   1  21 196.310 166.157   1
 -14  -1  21 99.3382 144.183   1
 -14   1  21 -66.954 161.205   1
 -14  -1  21 17.6179 169.514   1
  14   1 -21 246.064 159.923   1
  13  -6   3 2473.02 364.249   1
  13  -6   3 2643.11 283.045   1
 -13   6  -3 2907.29 292.918   1
  -1  10   2 7577.62 428.584   1
  -1 -10   2 6988.27 526.453   1
   1 -10  -2 8238.65 529.051   1
   1  10  -2 6990.27 423.120   1
  -1  10   2 7861.25 463.699   1
   1  10  -2 7518.04 469.891   1
  10   8 -11 131.933 187.514   1
  10   8 -11 131.027 175.044   1
 -10  -8  11 170.909 173.171   1
 -10   8  11 220.147 169.105   1
  10  -8 -11 125.534 181.712   1
 -10  -3  22 29.7837 132.283   1
 -10   3  22 -47.216 118.428   1
  10   3 -22 66.4227 144.281   1
 -10  -3  22 13.6971 116.642   1
  18  -3  -7 4402.95 347.450   1
  18   3  -7 4982.91 341.353   1
 -18   3   7 4669.38 357.222   1
 -18  -3   7 4538.55 358.331   1
   6   9   4 543.906 221.814   1
   6  -9   4 876.398 222.986   1
  -6   9  -4 548.938 209.376   1
   6   9   4 222.622 177.051   1
  -9   4 -13 2538.82 270.080   1
   9  -4  13 2368.55 248.586   1
   9  -4  13 2337.47 307.359   1
  15   4 -17 1725.99 271.020   1
 -15  -4  17 2013.47 254.787   1
 -15  -4  17 2163.78 304.940   1
  15  -4 -17 2450.44 266.607   1
 -15   4  17 2326.90 276.063   1
 -15   4  17 1857.88 277.973   1
   0  10   2 461.252 181.641   1
   0  10   2 591.442 198.479   1
   0  10  -2 380.292 210.812   1
   0 -10   2 244.343 216.128   1
   0 -10  -2 310.933 234.432   1
   0  10  -2 626.625 187.146   1
 -18   0  15 -36.436 135.222   1
 -18   0  15 8.26581 139.111   1
  18   0 -15 98.8960 149.024   1
  18  -1  -2 384.095 176.072   1
  18  -1  -2 62.6930 153.521   1
 -18   1   2 -110.74 155.024   1
  18   1  -2 144.780 152.407   1
 -18  -1   2 129.983 140.585   1
  18   1  -2 36.3669 136.164   1
  -3   0  23 230.180 153.731   1
  -9   8  -4 536.345 222.152   1
   9  -8   4 725.698 209.933   1
   9  -8   4 162.245 174.838   1
   9   8   4 716.022 215.398   1
 -11   6  -7 170.243 175.670   1
  11  -6   7 177.882 159.560   1
  11  -6   7 335.466 180.686   1
 -11   5  -9 165.814 177.947   1
  11  -5   9 -146.62 171.135   1
  11  -5   9 306.035 172.731   1
  10  -7   6 4774.23 364.126   1
  10  -7   6 4802.87 359.621   1
 -10   7  -6 5048.97 372.541   1
  -3   3  22 60.7636 139.658   1
  -3  -3  22 29.9814 135.536   1
   0   5 -19 108.288 165.625   1
   0  -5  19 157.041 158.159   1
   8  -7   9 1815.53 267.978   1
   8  -7   9 1936.01 253.677   1
  -8   7  -9 1934.26 286.193   1
   7   1  17 3343.51 346.945   1
  -1  -6  18 75.1920 169.622   1
   1   6 -18 97.4510 147.333   1
 -18  -3  10 384.205 189.748   1
 -18   3  10 322.009 186.530   1
 -18   3  10 381.882 173.531   1
  18   3 -10 460.290 180.049   1
  18  -3 -10 455.189 197.290   1
 -18  -3  10 102.918 202.924   1
   9  -6  10 425.337 216.008   1
  -9   6 -10 354.612 227.839   1
   9  -6  10 556.537 205.360   1
  -2   8  14 847.322 198.398   1
  -2  -8  14 1423.04 220.951   1
   2   8 -14 1081.22 241.599   1
   9   1  15 -59.246 175.157   1
   9  -1  15 283.832 159.819   1
  -2 -10   1 126.760 157.501   1
  -2  10   1 -12.529 138.094   1
   2 -10  -1 118.953 189.031   1
  -2  10   1 53.8815 151.625   1
   2  10  -1 14.8062 170.536   1
   2  10  -1 114.907 162.425   1
  -5  -2  23 283.867 153.990   1
  -5   2  23 402.168 155.324   1
  12   4   9 78.6337 147.339   1
 -12   4  -9 145.227 175.673   1
  12  -4   9 195.025 174.609   1
  12  -4   9 224.118 143.012   1
 -17  -4  12 551.073 202.262   1
 -17  -4  12 358.889 197.827   1
  17   4 -12 363.213 196.713   1
  17  -4 -12 578.286 197.531   1
 -17   4  12 535.354 187.940   1
 -17   4  12 621.704 204.940   1
  10   0  14 2611.50 262.598   1
   9  -3  14 952.634 226.244   1
   9   3  14 742.958 198.850   1
  -2  10   0 521.880 188.201   1
   2  10   0 97.6636 194.722   1
   2 -10   0 291.902 185.039   1
   2  10   0 222.709 188.784   1
  -2  10   0 111.300 172.171   1
  -2 -10   0 171.114 174.788   1
  17  -3 -15 805.917 218.505   1
 -17  -3  15 772.422 216.907   1
 -17  -3  15 503.889 243.896   1
 -17   3  15 365.902 230.629   1
 -17   3  15 853.615 197.157   1
  17   3 -15 661.102 226.104   1
  15   6  -4 1622.81 242.851   1
 -15  -6   4 1402.31 213.692   1
 -15   6   4 418.241 236.108   1
  15  -6  -4 933.012 226.925   1
  15  -6  -4 969.988 238.718   1
 -16  -5   3 525.573 205.897   1
  16   5  -3 507.783 214.787   1
 -16   5   3 157.525 196.493   1
  16  -5  -3 724.344 208.737   1
  16  -5  -3 347.651 193.202   1
 -12  -7  13 2564.43 293.236   1
  12   7 -13 2425.47 295.425   1
  12   7 -13 2784.69 294.116   1
 -12   7  13 2878.91 256.627   1
  12  -7 -13 2912.41 322.565   1
  -7   5 -14 1301.41 273.928   1
   7  -5  14 2198.35 264.154   1
   7  -5  14 1876.85 282.280   1
  -8  -9   7 109.641 170.410   1
   8   9  -7 37.5229 143.260   1
  -8   9   7 -43.928 120.991   1
   8   9  -7 -0.1102 127.646   1
   3   7  14 558.736 206.681   1
   3  -7  14 335.484 209.425   1
  -3   7 -14 422.588 193.171   1
   9   7 -16 508.689 220.874   1
  -9  -7  16 544.305 197.492   1
  -2  10   2 82.9901 159.874   1
  -2 -10   2 167.509 160.062   1
   2 -10  -2 12.3258 155.089   1
   2  10  -2 112.209 142.394   1
  -2  10   2 -180.91 155.945   1
   2  10  -2 120.907 162.940   1
  11   8  -9 50.8922 161.762   1
  11   8  -9 82.4439 161.151   1
 -11  -8   9 168.639 159.838   1
  11  -8  -9 298.442 155.885   1
 -11   8   9 -13.140 142.639   1
  18  -2  -3 417.709 215.865   1
 -18   2   3 405.862 198.644   1
  18   2  -3 350.621 212.437   1
  18  -2  -3 652.682 185.091   1
 -18  -2   3 577.276 233.112   1
   6   3  17 1365.42 206.827   1
  10   8   2 9258.34 551.053   1
 -10  -8  -2 8904.07 492.072   1
  10  -8   2 8427.68 512.352   1
  10  -8   2 9522.93 541.442   1
 -10   8  -2 9103.30 534.220   1
   5   7 -17 1689.34 265.399   1
  -5  -7  17 1673.61 243.416   1
 -15  -6  10 605.031 195.773   1
  15  -6 -10 177.261 200.943   1
  15   6 -10 295.549 186.543   1
 -15   6  10 504.078 179.800   1
   2   5  18 3039.71 281.015   1
   2  -5  18 3576.41 299.693   1
  -2   5 -18 3403.21 312.651   1
 -13   0  22 -74.909 142.105   1
 -13   0  22 -45.401 143.120   1
  13   0 -22 33.5699 154.428   1
   5  -4  17 129.279 144.772   1
   1  10   2 1691.22 246.404   1
   1  10   2 1544.44 253.179   1
  -1  10  -2 1803.82 241.873   1
   1 -10   2 1371.99 262.721   1
  -1  10  -2 1374.79 264.798   1
  -1 -10  -2 1234.19 279.054   1
   9   2 -23 288.006 189.516   1
  -9   2  23 264.111 158.330   1
  -9  -2  23 110.706 157.365   1
  -9  -2  23 298.108 158.180   1
 -18  -3   6 -101.14 154.468   1
  18   3  -6 187.459 146.670   1
  18  -3  -6 102.873 156.699   1
  18  -3  -6 59.8574 171.097   1
 -18   3   6 173.305 164.730   1
   6   6 -19 2363.50 267.134   1
  -6  -6  19 2341.78 306.596   1
 -16   1  19 2604.76 290.912   1
 -16   1  19 2179.65 301.080   1
 -16  -1  19 2342.87 260.986   1
 -16  -1  19 1887.72 280.893   1
  16   1 -19 2367.36 295.617   1
  16  -1 -19 2327.65 278.607   1
  12   7   2 2315.07 247.780   1
  12  -7   2 1519.09 298.121   1
  12  -7   2 1620.04 249.527   1
 -12   7  -2 1678.78 266.321   1
 -12   2  22 188.762 157.573   1
 -12  -2  22 358.206 192.030   1
 -12   2  22 226.344 173.806   1
 -12  -2  22 320.795 169.106   1
  12   2 -22 411.398 213.460   1
  12  -2 -22 127.763 169.249   1
  13   0  10 206.986 164.029   1
   1 -10  -3 2.92070 185.061   1
   1  10  -3 171.606 174.066   1
  -1  10   3 165.199 138.882   1
  -1  10   3 -113.34 161.161   1
  -1 -10   3 208.497 176.923   1
   1  10  -3 68.0820 153.975   1
  -6   5 -15 2358.43 291.957   1
   6  -5  15 2246.19 259.282   1
 -11  -8   1 4791.45 376.572   1
  11   8  -1 4939.99 373.132   1
  11   8  -1 4862.57 405.577   1
 -11   8   1 5161.74 371.453   1
  11  -8  -1 5050.14 370.233   1
  11  -8  -1 4530.24 366.460   1
  -5  -6  19 117.603 166.182   1
   5   6 -19 14.8773 149.809   1
 -11   0  23 5999.35 370.402   1
  11   0 -23 5427.06 402.140   1
 -11   0  23 6224.24 390.625   1
 -16   5  12 513.151 201.701   1
  16  -5 -12 807.077 276.835   1
  16   5 -12 909.779 210.058   1
 -16  -5  12 656.180 218.462   1
  -8   5 -13 580.497 212.742   1
   8  -5  13 408.512 221.792   1
   8  -5  13 595.623 208.929   1
 -15  -5  -1 -18.714 137.551   1
  15   5   1 83.4518 131.059   1
 -15   5  -1 132.013 149.254   1
  15  -5   1 37.2591 134.810   1
  15  -5   1 2.92948 156.690   1
   6   7 -17 -48.655 133.311   1
  -6  -7  17 48.1919 118.782   1
   0   3  21 2187.55 228.576   1
  -7  -9   9 657.073 227.372   1
   7  -9  -9 428.973 224.925   1
   7   9  -9 882.006 219.870   1
   7   9  -9 628.701 269.485   1
  -7   9   9 894.323 220.060   1
  -7   9   9 887.837 237.039   1
  -4  -7  17 943.218 271.648   1
   4   7 -17 1563.49 246.417   1
 -18   1  15 368.905 187.263   1
  18   1 -15 518.282 208.449   1
  18  -1 -15 457.921 206.232   1
 -18  -1  15 513.804 256.781   1
 -18   1  15 453.238 234.133   1
 -18  -1  15 478.970 196.076   1
  -8   8  -6 430.805 195.559   1
   8   8   6 286.491 189.516   1
   8  -8   6 179.983 191.870   1
   8  -8   6 129.679 183.648   1
  -3   1  23 1793.10 236.089   1
  -3  -1  23 2302.48 244.856   1
   0  10  -3 224.562 163.205   1
   0  10   3 136.799 187.209   1
   0 -10  -3 126.458 190.807   1
   0  10  -3 188.793 180.036   1
   0 -10   3 240.974 189.261   1
   0  10   3 113.668 173.039   1
  10   6 -18 1755.04 282.794   1
 -10  -6  18 1896.79 245.238   1
 -19   0   9 1650.08 246.215   1
  19   0  -9 1770.59 234.548   1
   2  10   1 635.459 175.284   1
   2 -10   1 920.151 262.787   1
   2  10   1 372.448 214.095   1
  -2  10  -1 572.923 221.496   1
  -2 -10  -1 375.488 235.627   1
  -2  10  -1 409.583 195.283   1
  -1   2  22 516.255 170.631   1
  -1  -2  22 587.638 166.684   1
   8   9   0 6442.57 447.974   1
   8   9   0 5943.99 410.619   1
   8  -9   0 7090.91 466.706   1
  -8   9   0 7327.75 454.345   1
  -8  -9   0 6103.75 435.338   1
  13   7 -11 100.058 145.691   1
  13   7 -11 86.4432 137.527   1
 -13  -7  11 21.3643 149.754   1
  13  -7 -11 69.9736 141.901   1
 -13   7  11 -75.977 136.409   1
  -2  -4  21 87.2011 141.526   1
  -2  -4  21 98.5854 149.477   1
   2   4 -21 183.582 153.708   1
 -18   3  11 37.3203 151.688   1
 -18  -3  11 11.5901 179.970   1
 -18  -3  11 165.232 155.397   1
  18  -3 -11 100.930 152.973   1
  18   3 -11 71.4913 147.623   1
 -18   3  11 25.9269 146.454   1
  13   7  -1 106.707 172.369   1
 -13  -7   1 457.142 171.063   1
  13  -7  -1 227.772 163.280   1
 -13   7   1 40.2118 178.224   1
  13  -7  -1 123.449 177.393   1
  -4   9  -7 905.688 226.445   1
   4   9   7 886.805 225.424   1
   4  -9   7 716.585 222.459   1
   4  -9   7 633.028 201.833   1
  17   0   2 22.5640 174.259   1
 -17   0  -2 133.841 176.895   1
  17   0   2 220.309 152.332   1
 -19   0   8 -27.976 140.475   1
  19   0  -8 72.1996 130.528   1
  -2 -10   3 72.4154 171.388   1
   2  10  -3 68.2149 170.740   1
   2 -10  -3 154.348 161.421   1
  -2  10   3 80.8082 164.668   1
  -2  10   3 70.4747 143.449   1
   2  10  -3 138.362 185.942   1
   0   9  10 351.881 203.718   1
   0  -9  10 602.258 213.989   1
   0   9 -10 491.456 220.005   1
   0   9 -10 1435.96 216.152   1
  17   2   1 630.266 167.325   1
  17   2   1 167.593 177.490   1
 -17   2  -1 284.695 206.373   1
  17  -2   1 94.8430 177.832   1
 -17  -2  -1 128.321 192.357   1
  17  -2   1 397.585 157.384   1
  -3   9  -8 1031.59 257.876   1
   3   9   8 1599.54 240.471   1
   3  -9   8 1066.64 233.389   1
   3  -9   8 2008.64 246.804   1
  -7  -6  19 2057.14 247.605   1
   6  -9 -10 8.73150 143.826   1
  -6  -9  10 85.3875 156.803   1
   6   9 -10 -15.311 180.328   1
  -6   9  10 57.4908 133.959   1
   6   9 -10 122.821 147.659   1
  -6   9  10 -34.912 130.887   1
   3   6  16 296.173 193.426   1
  -3   6 -16 678.370 217.273   1
   3  -6  16 534.507 208.785   1
  19   0 -10 175.733 148.889   1
 -19   0  10 9.65480 156.134   1
 -15  -5  15 94.5856 142.556   1
  15   5 -15 -26.180 150.198   1
  15  -5 -15 -45.386 130.111   1
 -15   5  15 170.740 151.457   1
 -15  -5  15 -74.747 152.937   1
  10   1  14 46.8261 123.764   1
  10  -1  14 5.92351 134.273   1
   7   8 -14 -7.7897 170.995   1
  -7  -8  14 205.036 168.763   1
   7   8 -14 253.894 179.996   1
  -7   8  14 65.3526 156.063   1
 -18  -2  14 -8.3331 199.028   1
 -18  -2  14 124.111 151.284   1
  18  -2 -14 -65.802 156.602   1
  18   2 -14 4.20807 162.263   1
 -18   2  14 139.479 169.819   1
 -18   2  14 124.842 143.472   1
  12   2  11 307.601 164.465   1
  12  -2  11 -45.671 158.706   1
  10   4  12 1720.81 215.495   1
 -10   4 -12 1730.62 256.132   1
  10  -4  12 1782.87 246.857   1
  10  -4  12 1826.57 278.341   1
   1   8  13 171.491 164.590   1
  -1   8 -13 25.5139 155.804   1
   1  -8  13 -5.7850 149.163   1
  -4  -6  19 1416.45 220.192   1
   4   6 -19 1225.75 273.204   1
  15  -3   5 337.467 212.606   1
 -15   3  -5 536.580 207.458   1
  15  -3   5 530.521 209.647   1
  15   3   5 469.313 194.674   1
 -14   3  -7 662.651 219.663   1
  14  -3   7 656.197 216.092   1
  14  -3   7 821.519 207.080   1
  14   3   7 650.581 210.187   1
 -13  -1  22 -14.669 131.317   1
  13  -1 -22 44.8477 161.411   1
  13   1 -22 69.8451 147.567   1
 -13   1  22 324.734 158.982   1
 -13   1  22 -3.1854 148.108   1
 -13  -1  22 70.6701 153.339   1
  17   4  -3 349.987 209.640   1
 -17   4   3 362.872 199.207   1
  17  -4  -3 383.411 181.561   1
 -17  -4   3 511.070 220.393   1
  17  -4  -3 270.578 203.900   1
 -19   0   7 63.6950 136.522   1
  19   0  -7 -10.227 132.660   1
   3  10  -1 487.218 216.912   1
   3 -10  -1 423.232 207.884   1
  -3 -10   1 372.617 192.503   1
  -3  10   1 405.272 211.011   1
  -3  10   1 290.428 222.003   1
   3  10  -1 474.011 207.608   1
  10  -3  13 10506.6 550.207   1
  10  -3  13 9472.49 495.916   1
  10   3  13 9538.63 501.161   1
   5   9   6 1555.60 211.724   1
   5  -9   6 157.298 205.982   1
   5  -9   6 279.877 181.707   1
  -5   9  -6 176.146 209.586   1
  -3 -10   2 -29.594 158.867   1
   3 -10  -2 320.317 158.412   1
   3  10  -2 15.8392 164.094   1
   3  10  -2 58.2547 146.190   1
  -3  10   2 32.2936 146.793   1
  -3  10   2 60.6444 165.553   1
  -5   5 -16 1876.38 269.478   1
   5  -5  16 1652.86 252.935   1
  13  -1  10 697.827 202.662   1
  13   1  10 435.065 182.115   1
  -4  -2  23 60.4394 144.324   1
  -4   2  23 60.9778 121.313   1
 -15   2  -6 527.292 203.072   1
  15   2   6 357.599 169.538   1
  15  -2   6 185.879 193.131   1
  15  -2   6 739.843 197.183   1
   7   7 -17 717.338 228.643   1
  -7  -7  17 699.971 207.699   1
 -11   1  23 328.028 176.589   1
 -11  -1  23 296.532 172.036   1
  11   1 -23 227.293 205.453   1
 -11  -1  23 162.420 174.792   1
  18   0  -1 325.555 155.176   1
 -18   0   1 69.9315 195.676   1
  18   0  -1 160.061 167.694   1
  -2  -5  20 169.583 159.476   1
   2   5 -20 34.1333 171.419   1
  15   6  -3 365.458 154.919   1
 -15  -6   3 176.627 186.093   1
 -15   6   3 246.678 179.252   1
  15  -6  -3 217.506 176.118   1
  15  -6  -3 14.2719 176.457   1
  18   3  -5 169.131 178.401   1
  18  -3  -5 524.482 182.236   1
 -18  -3   5 243.911 227.832   1
 -18   3   5 515.420 199.850   1
  18  -3  -5 331.958 208.920   1
  -1  10  -3 37.7090 159.514   1
   1  10   3 17.2999 145.536   1
   1 -10   3 26.8270 154.115   1
   1  10   3 -52.222 144.059   1
  -1  10  -3 135.662 137.097   1
  -1 -10  -3 1.98178 157.464   1
   9  -5  12 2225.14 294.003   1
   9  -5  12 2085.59 239.808   1
  -9   5 -12 2057.25 282.398   1
  -3   7  17 312.995 165.918   1
  -3  -7  17 447.057 226.465   1
   3   7 -17 524.577 197.812   1
 -14  -3  20 1436.09 218.389   1
 -14  -3  20 597.285 242.145   1
 -14   3  20 1076.92 248.669   1
  14   3 -20 649.140 247.441   1
  14  -3 -20 1831.70 249.054   1
  -1   8  14 3306.37 326.877   1
   1   8 -14 3668.92 340.931   1
  -1  -8  14 3420.59 314.089   1
  -2   9  -9 188.806 179.600   1
   2  -9   9 128.139 173.736   1
   2   9   9 243.159 204.582   1
   5   3  18 1912.37 229.358   1
   0   7  16 124.885 151.729   1
   0   7 -16 165.803 172.807   1
 -19  -1   9 1933.79 269.370   1
 -19   1   9 1562.38 255.576   1
  19   1  -9 1792.04 245.400   1
  19  -1  -9 1993.50 262.850   1
   1 -10  -4 1770.40 252.361   1
   1  10  -4 1526.08 246.494   1
   1  10  -4 1786.52 280.384   1
  -1  10   4 1742.33 253.160   1
  -1 -10   4 2230.27 287.287   1
  -1  10   4 1634.71 261.579   1
 -19   0  11 437.902 199.083   1
  19   0 -11 669.265 203.099   1
 -19   0  11 608.979 222.070   1
  -2  10  -2 615.655 179.939   1
   2  10   2 50.7549 173.014   1
  -2  10  -2 141.896 165.699   1
   2  10   2 129.857 176.104   1
   2 -10   2 -29.500 180.133   1
  -2 -10  -2 -2.5744 188.374   1
   3  10   0 -58.323 165.431   1
  -3 -10   0 86.6492 159.035   1
  -3  10   0 319.917 169.452   1
  -3  10   0 92.0822 184.189   1
   3 -10   0 137.726 178.927   1
   3  10   0 -14.839 174.486   1
   5  -8  10 3196.88 339.468   1
  -5   8 -10 3197.13 311.827   1
   5   8  10 3286.99 307.720   1
   5  -8  10 2609.75 299.459   1
   8   9  -8 41.7356 159.982   1
  -8  -9   8 -37.981 161.578   1
  -8   9   8 129.248 164.868   1
  -8   9   8 -24.023 137.578   1
   8  -9  -8 164.185 141.918   1
   8   9  -8 93.1741 149.838   1
  13  -5 -18 1876.91 268.751   1
  13   5 -18 1851.09 279.497   1
 -13  -5  18 2238.68 282.354   1
 -13  -5  18 1700.70 257.438   1
 -13   5  18 1882.53 243.495   1
  11   0  13 508.507 193.758   1
  -9   7  -8 1727.46 284.526   1
   9  -7   8 1969.86 307.192   1
   9  -7   8 1730.41 248.222   1
 -15  -6  11 134.932 170.417   1
  15   6 -11 162.218 163.795   1
 -15   6  11 175.478 155.088   1
  15  -6 -11 96.2200 175.958   1
  -3   9  11 3808.19 305.394   1
   3   9 -11 3579.35 349.369   1
   3   9 -11 3695.80 337.851   1
  -3  -9  11 3499.72 332.619   1
 -10  -5  20 778.457 241.992   1
 -10  -5  20 1382.91 210.590   1
  10   5 -20 699.244 250.567   1
   7  -9   3 199.385 181.143   1
  -7  -9  -3 70.8987 161.270   1
   7   9   3 177.553 177.761   1
   7   9   3 23.8542 145.765   1
  -7   9  -3 272.501 173.500   1
  17   1   2 1705.68 232.595   1
  17   1   2 1496.53 243.464   1
  17  -1   2 1674.88 221.793   1
  17  -1   2 2015.71 244.545   1
 -17   1  -2 889.311 228.428   1
 -17  -1  -2 2005.44 256.763   1
  19   1  -8 141.034 169.112   1
 -19   1   8 88.2211 167.254   1
  19  -1  -8 299.288 173.567   1
  13  -5   6 922.202 228.135   1
  13  -5   6 618.996 245.398   1
 -13   5  -6 600.195 206.063   1
 -14  -6  -1 68.9526 154.071   1
  14   6   1 -20.216 144.055   1
 -14   6  -1 263.319 169.761   1
  14  -6   1 -57.953 180.550   1
  14  -6   1 407.611 159.874   1
 -16   4  -1 488.695 198.994   1
  16  -4   1 557.100 209.975   1
  16  -4   1 280.733 222.039   1
  16   4   1 407.431 178.247   1
 -16  -4  -1 466.077 200.710   1
   3  10  -3 99.1032 136.898   1
   3 -10  -3 -19.834 140.797   1
  -3  10   3 107.818 158.224   1
  -3  10   3 -89.378 145.850   1
  -3 -10   3 37.3138 151.404   1
   3  10  -3 41.1709 152.324   1
   2 -10  -4 30.5500 148.541   1
   2  10  -4 186.053 174.927   1
   2  10  -4 209.696 153.157   1
  -2  10   4 -9.2201 164.812   1
  -2 -10   4 -80.220 173.611   1
  -2  10   4 234.840 176.833   1
 -17   4  13 351.031 175.640   1
 -17  -4  13 345.261 206.238   1
 -17  -4  13 577.400 199.356   1
  17  -4 -13 358.562 198.846   1
  17   4 -13 466.455 196.990   1
 -17   4  13 339.785 210.949   1
  -4   9  11 1281.76 294.498   1
  -4  -9  11 1774.11 281.021   1
   4   9 -11 1958.02 271.729   1
   4   9 -11 1922.29 271.711   1
 -15  -3  19 822.966 212.598   1
  15   3 -19 879.782 253.289   1
  15  -3 -19 954.378 206.845   1
 -15  -3  19 1064.79 253.376   1
 -15   3  19 958.367 237.248   1
 -15   3  19 1038.70 233.319   1
 -17   2  17 670.296 180.866   1
 -17   2  17 562.786 239.216   1
  17  -2 -17 416.666 245.005   1
  17   2 -17 377.888 203.411   1
 -17  -2  17 696.084 229.721   1
 -17  -2  17 192.831 191.290   1
 -19   1  10 483.089 220.862   1
 -19  -1  10 827.244 234.760   1
  19  -1 -10 899.336 216.842   1
  19   1 -10 815.808 214.401   1
 -19  -1  10 709.806 225.761   1
 -17   0  18 140.025 218.517   1
 -17   0  18 193.783 159.466   1
  17   0 -18 18.3278 177.451   1
 -11  -8  10 145.751 172.636   1
  11   8 -10 -45.154 176.033   1
  11   8 -10 206.000 205.047   1
 -11   8  10 116.087 147.454   1
  11  -8 -10 462.698 164.153   1
  14   6 -14 2049.62 270.670   1
 -14  -6  14 2130.75 269.677   1
 -14   6  14 1941.17 279.991   1
  14  -6 -14 1506.97 253.710   1
   4  -8  11 88.5061 153.216   1
   4   8  11 227.240 196.407   1
  -4   8 -11 108.519 172.086   1
  10  -6   9 93.1865 172.401   1
  10  -6   9 85.9509 145.154   1
 -10   6  -9 81.8860 156.862   1
  18   3 -12 129.606 162.307   1
 -18  -3  12 76.3082 159.378   1
 -18  -3  12 90.0859 169.177   1
 -18   3  12 119.494 158.699   1
 -18   3  12 22.5240 155.853   1
  18  -3 -12 175.755 161.486   1
  -9   8  13 501.818 185.949   1
   9  -8 -13 532.125 197.965   1
  -9  -8  13 588.453 217.817   1
   9   8 -13 329.069 226.398   1
   9   8 -13 424.984 215.459   1
 -10   2  23 67.6969 143.049   1
 -10  -2  23 140.490 141.607   1
  10   2 -23 -25.391 169.446   1
 -10  -2  23 110.581 153.251   1
  -6   8  -9 202.314 188.631   1
   6   8   9 393.573 189.209   1
   6  -8   9 302.947 179.760   1
   6  -8   9 123.042 201.815   1
  -8  -6  19 1669.25 230.534   1
   8   6 -19 967.561 267.330   1
   0  10  -4 130.113 157.457   1
   0 -10  -4 97.9004 176.625   1
   0  10   4 84.9452 165.564   1
   0  10  -4 222.769 177.295   1
   0  10   4 40.3397 163.801   1
   0 -10   4 67.1323 211.451   1
 -16  -5   2 329.980 191.352   1
  16   5  -2 354.570 199.711   1
  16  -5  -2 401.781 196.905   1
 -16   5   2 282.932 190.172   1
  16  -5  -2 275.238 176.875   1
 -11  -3  22 2669.72 262.172   1
 -11   3  22 2094.03 258.800   1
  11   3 -22 1701.96 311.644   1
 -11  -3  22 2070.86 245.887   1
  14  -2   8 1547.30 217.683   1
  14   2   8 738.536 215.382   1
  14  -2   8 1554.66 233.828   1
 -14   2  -8 1806.73 242.491   1
  14  -5   4 4448.01 373.128   1
 -14   5  -4 4502.45 353.527   1
  14  -5   4 4469.56 345.519   1
 -15  -2  20 489.866 200.715   1
 -15   2  20 1110.13 216.213   1
 -15  -2  20 635.808 223.891   1
  15   2 -20 501.106 226.804   1
  15  -2 -20 636.107 237.688   1
 -15   2  20 434.462 181.922   1
 -11   4  21 249.675 165.757   1
 -11  -4  21 108.367 177.921   1
 -11  -4  21 83.5793 159.295   1
  11   4 -21 492.350 228.220   1
  -2   9  11 118.893 152.416   1
   2   9 -11 84.0949 178.056   1
   2   9 -11 181.069 168.642   1
  -2  -9  11 188.027 172.122   1
   2   7  15 -1.4791 124.728   1
   2  -7  15 33.6181 137.808   1
  -2   7 -15 -33.779 119.216   1
 -19   0   6 384.540 169.623   1
  19   0  -6 -15.768 159.228   1
 -19   1   7 489.438 226.771   1
  19   1  -7 829.998 212.378   1
  19  -1  -7 1696.49 233.838   1
  17  -3   0 -38.775 152.747   1
 -17  -3   0 125.706 153.938   1
 -17   3   0 143.144 156.378   1
  17   3   0 9.79501 153.039   1
  17  -3   0 52.7201 170.828   1
  17   3   0 -53.190 163.748   1
 -16   2  -4 162.470 179.237   1
  16  -2   4 52.2772 172.680   1
  16  -2   4 -5.7305 161.201   1
  16   2   4 152.182 139.611   1
  16   2   4 144.419 167.377   1
  11   8   0 27.8816 133.547   1
 -11  -8   0 -22.938 127.073   1
  11   8   0 -22.653 120.356   1
  11  -8   0 -10.357 127.023   1
 -11   8   0 43.4993 119.473   1
  -2  -3  22 3067.95 288.322   1
  -2   3  22 3086.15 286.067   1
 -14  -5  17 2884.05 323.249   1
 -14  -5  17 2902.02 279.281   1
 -14   5  17 2220.11 290.496   1
  14   5 -17 2578.11 305.370   1
  14  -5 -17 2519.24 302.051   1
 -10   8  12 138.261 133.388   1
 -10  -8  12 14.5958 168.861   1
  10   8 -12 214.690 183.690   1
  10   8 -12 42.9660 170.995   1
  10  -8 -12 183.213 175.233   1
  -2   0  23 -15.928 114.123   1
   8  -9   1 849.364 235.680   1
  -8  -9  -1 599.903 215.382   1
  -8   9  -1 553.916 231.763   1
   8   9   1 537.904 209.787   1
   8   9   1 616.720 234.677   1
  18  -1  -1 382.477 161.390   1
  18  -1  -1 147.011 165.188   1
  18   1  -1 39.7646 148.598   1
 -18  -1   1 128.173 161.995   1
 -18   1   1 -22.585 213.877   1
  18   1  -1 661.245 169.876   1
   8  -2  16 45.2835 152.038   1
   8   2  16 34.7663 149.919   1
   3 -10   1 575.175 195.828   1
  -3 -10  -1 151.499 202.756   1
  -3  10  -1 256.331 183.021   1
  -3  10  -1 193.235 160.054   1
   3  10   1 18.2171 155.763   1
   3  10   1 25.2996 181.707   1
 -12   5  19 1783.67 233.053   1
  12  -5 -19 2019.70 258.738   1
 -12  -5  19 2510.15 268.549   1
 -12  -5  19 2748.22 290.431   1
  12   5 -19 2806.52 311.110   1
 -14   2  21 382.920 182.380   1
 -14   2  21 63.9981 172.534   1
 -14  -2  21 309.216 186.387   1
  14  -2 -21 176.944 185.321   1
  14   2 -21 215.534 186.953   1
 -14  -2  21 143.685 161.267   1
   3   6 -19 40.6892 107.564   1
  -3  -6  19 -50.890 124.380   1
 -16  -4  16 302.284 158.592   1
 -16  -4  16 17.3109 190.637   1
 -16   4  16 98.6618 142.727   1
  16   4 -16 13.9276 175.629   1
 -16   4  16 62.7977 162.580   1
  16  -4 -16 -18.722 197.764   1
  18  -2  -2 917.633 226.059   1
  18  -2  -2 1245.58 212.131   1
  18   2  -2 1072.55 223.348   1
 -18   2   2 1138.76 285.005   1
 -18  -2   2 520.355 257.749   1
  18   2  -2 648.243 202.281   1
  11  -7 -15 458.223 197.616   1
  11   7 -15 248.559 217.934   1
 -11   7  15 562.391 181.599   1
 -11  -7  15 289.142 186.453   1
  -9   9   4 655.725 196.159   1
  -9  -9   4 231.891 212.438   1
   9  -9  -4 266.337 221.218   1
   9   9  -4 509.485 192.628   1
   9   9  -4 687.490 219.393   1
  18   0 -16 3160.93 342.076   1
 -18   0  16 3459.79 330.640   1
 -18   0  16 3323.22 314.268   1
 -16  -5  13 2863.66 306.862   1
 -16   5  13 2313.58 263.047   1
  16  -5 -13 2614.21 311.480   1
  16   5 -13 3211.26 295.491   1
   6   9   5 -19.930 167.441   1
   6  -9   5 47.5912 169.342   1
  -6   9  -5 219.572 167.591   1
  19  -1 -11 747.873 237.931   1
 -19  -1  11 997.896 245.360   1
 -19  -1  11 1695.28 253.446   1
 -19   1  11 543.212 227.674   1
  19   1 -11 1776.50 232.018   1
 -19   1  11 979.882 236.400   1
  -7  -4  22 60.0813 174.427   1
  -7  -4  22 1.76486 157.695   1
   7   4 -22 107.972 147.559   1
  -5   9  11 650.855 190.858   1
  -5   9  11 534.839 246.719   1
  -5  -9  11 676.916 239.161   1
   5   9 -11 1145.41 280.329   1
   5   9 -11 938.747 229.462   1
  -6  -4  22 1048.15 271.723   1
  -6  -4  22 1938.42 254.247   1
   6   4 -22 1882.41 269.761   1
   3  10  -4 2785.58 284.945   1
  -3  10   4 2493.22 280.011   1
  -3  10   4 1910.28 302.545   1
  -3 -10   4 2776.80 370.833   1
   3  10  -4 2608.56 314.593   1
   3 -10  -4 2153.16 279.908   1
  11  -1  13 26.9954 139.439   1
  11   1  13 53.7465 159.119   1
  16  -3   3 209.980 188.321   1
 -16   3  -3 115.058 166.290   1
  16   3   3 159.412 148.347   1
  16  -3   3 182.555 183.971   1
  16   3   3 180.640 177.788   1
 -13   3  21 113.354 151.470   1
 -13   3  21 195.883 176.227   1
 -13  -3  21 57.2917 174.653   1
 -13  -3  21 29.4595 156.822   1
  13  -3 -21 343.755 171.211   1
  13   3 -21 51.2719 179.806   1
   7   2  17 4887.42 336.049   1
   9   9  -5 440.770 216.937   1
  -9  -9   5 445.540 201.014   1
  -9   9   5 451.168 237.827   1
  14  -4   6 350.912 192.379   1
  14  -4   6 161.555 152.526   1
  14   4   6 185.984 155.017   1
 -14   4  -6 233.738 194.433   1
  19   0 -12 23.2511 138.599   1
 -19   0  12 48.8690 152.630   1
 -19   0  12 -8.1337 139.535   1
  13   3   9 423.512 186.827   1
  13  -3   9 200.370 185.958   1
  13  -3   9 284.401 174.508   1
 -13   3  -9 174.935 185.865   1
   9   2  15 618.670 214.359   1
   9  -2  15 828.074 220.806   1
  -9  -9   3 3606.96 373.602   1
   9   9  -3 3472.84 304.211   1
   9   9  -3 3921.60 370.527   1
  -9   9   3 3642.72 317.372   1
   9  -9  -3 3313.75 339.640   1
   0   6 -18 276.389 206.424   1
   0  -6  18 447.488 209.039   1
 -17  -1  18 12893.0 679.472   1
  17  -1 -18 12616.8 672.042   1
  17   1 -18 12393.6 651.440   1
 -17  -1  18 12894.2 682.969   1
 -17   1  18 13291.7 685.428   1
 -17   1  18 12702.0 650.179   1
   3   8  12 -66.466 140.820   1
  -3   8 -12 -5.3799 151.586   1
   3  -8  12 169.515 139.622   1
  13   7 -12 565.545 215.206   1
  13   7 -12 465.148 196.232   1
 -13  -7  12 290.443 201.993   1
  13  -7 -12 324.484 186.598   1
 -13   7  12 340.614 171.594   1
  12  -6 -17 321.809 188.316   1
 -12   6  17 349.740 178.418   1
 -12  -6  17 473.989 188.120   1
  12   6 -17 415.712 218.294   1
 -12   5  -8 1669.85 263.539   1
  12  -5   8 2937.73 311.491   1
  12  -5   8 2817.79 305.697   1
  -4   5 -17 3972.75 347.548   1
   4  -5  17 3965.65 326.095   1
  13   7   0 918.794 218.214   1
 -13  -7   0 996.214 219.512   1
  13  -7   0 767.098 227.700   1
  13  -7   0 1603.40 234.884   1
 -13   7   0 1159.05 236.423   1
  -8  -7  17 159.143 152.218   1
   8   7 -17 -66.795 168.154   1
  -1   9 -10 115.805 117.550   1
   1   9  10 -175.27 111.001   1
   1  -9  10 73.8955 116.446   1
  15   0   7 6127.33 384.886   1
  14   7  -6 4666.36 335.145   1
 -14  -7   6 4483.24 404.196   1
 -14   7   6 4061.82 332.509   1
  14  -7  -6 4385.28 380.357   1
  14  -7  -6 4173.75 367.111   1
 -14   4  19 11.1423 134.283   1
 -14  -4  19 150.644 158.609   1
 -14  -4  19 77.3389 134.520   1
 -14   4  19 -80.522 147.097   1
  14  -4 -19 41.4455 148.399   1
  14   4 -19 -69.272 156.987   1
   2  10   3 172.809 175.956   1
  -2 -10  -3 140.440 198.989   1
  -2  10  -3 334.935 178.475   1
  -2  10  -3 471.716 191.448   1
   2 -10   3 148.938 192.978   1
   2  10   3 84.6269 177.533   1
  18   3  -4 386.246 202.189   1
 -18   3   4 398.122 192.773   1
 -18  -3   4 119.175 177.425   1
  18  -3  -4 169.660 199.552   1
  18  -3  -4 248.372 179.253   1
 -14  -7   7 159.009 192.130   1
  14   7  -7 313.123 178.649   1
  14  -7  -7 308.177 191.919   1
 -14   7   7 480.493 178.669   1
  -7   8  -8 542.096 191.735   1
   7  -8   8 172.368 199.128   1
   7  -8   8 225.488 172.492   1
   7   8   8 6.40938 184.707   1
  -8   8  14 493.079 192.756   1
  -8   8  14 351.651 167.886   1
   8   8 -14 575.469 220.468   1
  -8  -8  14 567.668 205.783   1
  10   8   3 3682.42 363.490   1
  10  -8   3 4630.77 377.537   1
 -10   8  -3 4838.77 386.566   1
  10  -8   3 4343.06 382.764   1
  -7  -9  10 982.445 234.360   1
  -7   9  10 647.237 213.483   1
   7   9 -10 727.015 265.464   1
   7   9 -10 1084.85 222.023   1
   7  -9 -10 535.083 219.909   1
  -7   9  10 466.238 231.796   1
  -1  10  -4 412.073 172.414   1
   1  10   4 43.3817 158.778   1
   1 -10   4 103.172 175.695   1
  -1 -10  -4 35.9429 175.412   1
  -1  10  -4 -42.976 150.648   1
   1  10   4 99.3943 167.666   1
 -10   7  16 39.4640 133.006   1
 -10  -7  16 15.4446 148.314   1
  10   7 -16 246.414 172.490   1
 -19   1   6 379.633 207.016   1
  19  -1  -6 762.972 205.265   1
  19   1  -6 884.538 232.156   1
   9  -8   5 1558.46 236.174   1
   9  -8   5 363.754 216.390   1
   9   8   5 796.095 240.829   1
  -9   8  -5 1118.33 258.441   1
  -4 -10   2 87.4453 168.941   1
  -4  10   2 -51.610 165.014   1
  -4  10   2 68.5881 157.970   1
   4 -10  -2 172.504 213.372   1
   4  10  -2 184.278 156.367   1
   4  10  -2 234.598 177.930   1
  -2   7  17 407.099 156.974   1
  -2  -7  17 154.996 204.322   1
   2   7 -17 189.670 183.937   1
 -17  -3  16 191.614 186.339   1
  17   3 -16 -45.838 167.532   1
 -17  -3  16 -42.583 146.580   1
 -17   3  16 438.928 177.149   1
 -17   3  16 4.17231 137.558   1
  17  -3 -16 -37.998 163.698   1
 -11   7  -5 128.824 201.104   1
  11  -7   5 571.935 189.573   1
  -8  -4  22 548.513 230.066   1
  -8  -4  22 904.097 205.550   1
   8   4 -22 418.566 250.406   1
  -9  -9   6 136.065 179.283   1
   9   9  -6 186.950 187.346   1
   9  -9  -6 2.47393 216.119   1
  -9   9   6 262.023 198.407   1
  11  -3  12 119.241 166.026   1
  11  -3  12 165.614 148.717   1
  11   3  12 106.511 157.026   1
 -16   0  -5 84.3187 146.200   1
  16   0   5 30.3462 175.452   1
  16   0   5 82.7843 144.974   1
 -10   5 -11 1747.68 266.584   1
  10  -5  11 1485.71 213.599   1
  10  -5  11 895.819 260.882   1
  -7   0  24 144.049 149.981   1
  11  -4  11 2435.53 284.980   1
  11   4  11 1731.23 234.424   1
  11  -4  11 2434.83 298.517   1
 -11   4 -11 2524.00 277.951   1
  16   2 -19 115.522 172.168   1
  16  -2 -19 39.9954 190.151   1
 -16   2  19 329.548 205.516   1
 -16  -2  19 -10.452 148.629   1
 -16  -2  19 77.2987 175.533   1
  -1  10   5 565.233 205.269   1
  -1  10   5 456.346 193.700   1
   1  10  -5 633.547 211.826   1
   1  10  -5 -35.866 194.775   1
   1 -10  -5 484.061 216.375   1
  -1 -10   5 453.573 208.977   1
 -15  -6   2 241.542 198.358   1
  15   6  -2 364.901 198.685   1
  15  -6  -2 219.649 185.944   1
  15  -6  -2 652.973 198.101   1
 -15   6   2 509.846 193.294   1
  -2 -10   5 1649.60 274.765   1
   2 -10  -5 2010.94 297.278   1
  -2  10   5 1924.71 269.491   1
  -2  10   5 2302.44 285.557   1
   2  10  -5 1685.18 288.742   1
   2  10  -5 2217.42 256.791   1
   5   4 -22 513.887 211.026   1
  -5  -4  22 450.252 173.084   1
  -5  -4  22 540.398 194.989   1
  -1   9  11 348.034 210.859   1
  -1  -9  11 729.652 217.623   1
   1   9 -11 1016.76 229.841   1
   1   9 -11 859.293 213.187   1
 -15   4  -4 225.323 195.260   1
  15  -4   4 27.2575 148.127   1
  15  -4   4 140.985 170.437   1
  15   4   4 75.1645 153.423   1
   4 -10  -1 4471.79 382.379   1
   4  10  -1 5010.94 386.479   1
  -4 -10   1 4596.32 357.140   1
  -4  10   1 4403.82 350.716   1
  -4  10   1 4213.52 349.337   1
   4  10  -1 4522.15 382.008   1
  12   8  -6 2617.68 376.493   1
 -12  -8   6 1961.65 321.982   1
  12   8  -6 2120.71 277.491   1
 -12   8   6 2516.68 269.247   1
  12  -8  -6 2253.35 291.310   1
  12   7 -14 916.033 237.607   1
  12   7 -14 1012.34 246.747   1
  12  -7 -14 765.864 252.119   1
 -12  -7  14 1127.14 249.457   1
 -12   7  14 1616.64 210.377   1
  12  -6   6 813.989 261.755   1
 -12   6  -6 443.241 238.651   1
  12  -6   6 1757.18 298.477   1
  -2   1  23 2567.71 250.277   1
  -2  -1  23 2668.98 257.638   1
  12   8  -5 3383.00 315.480   1
  12   8  -5 3730.63 360.201   1
 -12  -8   5 3072.55 305.614   1
  12  -8  -5 3634.76 333.779   1
 -12   8   5 3700.44 316.402   1
  12  -8  -5 4009.23 344.965   1
 -13   6  16 229.620 183.852   1
  13  -6 -16 128.310 162.243   1
 -13  -6  16 341.345 182.353   1
  13   6 -16 378.204 200.649   1
   2   6  17 187.959 159.086   1
  -2   6 -17 304.505 166.606   1
   2  -6  17 273.237 190.203   1
  12   0 -23 -49.144 165.579   1
 -12   0  23 40.7692 154.063   1
 -12   0  23 134.114 145.885   1
  14   7  -5 216.880 178.082   1
 -14  -7   5 380.304 234.833   1
 -14   7   5 430.278 189.033   1
  14  -7  -5 488.079 222.732   1
  14  -7  -5 406.530 206.096   1
  13  -6   4 2636.19 309.918   1
 -13   6  -4 2276.76 288.657   1
  13  -6   4 2626.05 283.958   1
  17  -4  -2 357.355 197.504   1
  17  -4  -2 364.915 173.407   1
  17   4  -2 248.323 204.018   1
 -17  -4   2 191.434 172.741   1
 -17   4   2 196.583 185.198   1
   4  10  -3 12.4112 144.265   1
   4  10  -3 110.771 164.726   1
   4 -10  -3 208.212 157.774   1
  -4 -10   3 69.9979 155.393   1
  -4  10   3 -32.982 175.567   1
  -4  10   3 -31.620 149.642   1
  14   7  -8 -3.6504 138.865   1
 -14  -7   8 124.175 191.729   1
 -14   7   8 119.429 139.943   1
  14   7  -8 50.0407 150.633   1
  14  -7  -8 -61.092 145.601   1
  -8   0  24 11393.1 566.239   1
  -9  -9   2 4223.01 327.176   1
   9   9  -2 3859.44 358.379   1
   9   9  -2 3891.27 365.657   1
  -9   9   2 3072.18 310.360   1
   9  -9  -2 3574.52 349.534   1
  18   2 -15 2100.41 292.593   1
 -18   2  15 2079.42 265.113   1
 -18   2  15 2629.70 262.963   1
 -18  -2  15 2145.02 345.955   1
 -18  -2  15 2199.10 262.031   1
  18  -2 -15 2315.29 287.673   1
  -3   2  23 3110.99 289.464   1
  -3  -2  23 3018.85 278.906   1
 -18  -1  16 123.763 172.310   1
  18  -1 -16 106.268 179.244   1
 -18   1  16 61.8450 173.188   1
 -18   1  16 84.1329 164.505   1
 -18  -1  16 745.840 194.934   1
  18   1 -16 112.424 186.052   1
  19   0  -5 531.362 185.192   1
 -19   0   5 522.718 201.636   1
 -13   4  20 7402.79 415.139   1
 -13   4  20 8195.80 482.647   1
  13   4 -20 8125.49 576.638   1
  13  -4 -20 7306.01 452.694   1
 -13  -4  20 8121.26 507.370   1
 -13  -4  20 7136.41 435.470   1
  15   6 -12 2830.89 326.634   1
 -15  -6  12 2991.48 316.588   1
  15  -6 -12 3033.26 366.227   1
  15   6 -12 2468.48 294.734   1
 -15   6  12 3064.53 280.766   1
  -4   8  15 805.280 221.798   1
   4   8 -15 960.900 234.105   1
  -4  -8  15 1026.89 227.990   1
   4   8 -15 916.043 246.839   1
 -16  -3  18 423.583 191.653   1
 -16  -3  18 600.623 237.626   1
  16   3 -18 273.443 222.212   1
 -16   3  18 534.330 210.116   1
  16  -3 -18 936.040 202.500   1
 -16   3  18 750.793 184.429   1
  -5   8  15 2462.94 285.150   1
   5   8 -15 2848.58 297.852   1
   5   8 -15 2722.41 311.148   1
  -5  -8  15 2705.31 288.294   1
   3  10   2 827.786 236.628   1
   3  10   2 1944.89 247.284   1
   3 -10   2 879.303 261.797   1
  -3  10  -2 816.545 246.463   1
  -3  10  -2 1516.00 228.294   1
  -3 -10  -2 1244.65 262.814   1
   8   9  -9 3900.34 403.368   1
   8   9  -9 3594.38 330.528   1
  -8  -9   9 4289.89 352.329   1
  -8   9   9 3804.20 349.776   1
  -8   9   9 3913.16 359.844   1
   8  -9  -9 3905.06 317.824   1
   6   2  18 1898.39 282.766   1
  13   4   8 90.5033 130.720   1
  13  -4   8 104.557 169.880   1
 -13   4  -8 -29.360 168.095   1
  13  -4   8 75.9265 167.598   1
  -6   0  24 5503.35 344.887   1
   1  -5  19 642.059 201.565   1
  -1   5 -19 523.976 207.241   1
  12  -7   3 17.8091 189.849   1
  12  -7   3 38.1418 151.867   1
 -12   7  -3 129.031 165.503   1
   7   3 -23 19.4047 161.233   1
  -7  -3  23 -4.9554 141.839   1
  -7  -3  23 110.803 159.435   1
  -7   3  23 105.725 167.671   1
 -18  -3  13 2845.57 296.425   1
 -18   3  13 2149.25 261.853   1
  18  -3 -13 2269.41 291.095   1
  18   3 -13 2378.58 282.733   1
 -18   3  13 2153.09 283.692   1
 -18  -3  13 2242.61 349.166   1
  -1  -4  21 56.4482 134.728   1
 -19  -1  12 57.2206 175.175   1
 -19   1  12 293.005 163.429   1
  19  -1 -12 88.3516 179.493   1
 -19   1  12 42.9865 177.180   1
  19   1 -12 77.5460 164.367   1
  12   8  -7 783.329 218.179   1
 -12  -8   7 635.660 219.739   1
  12   8  -7 1041.52 233.848   1
 -12   8   7 352.881 202.920   1
  12  -8  -7 866.599 223.106   1
  -6  -5  21 553.933 173.469   1
   6   5 -21 329.860 224.366   1
  -6  -5  21 346.236 211.615   1
   6  -7  12 5025.51 367.256   1
   6  -7  12 5833.16 472.422   1
  -6   7 -12 4953.58 384.094   1
   6   7  12 5254.76 385.199   1
 -12  -8   4 265.655 213.811   1
  12   8  -4 345.122 210.232   1
  12   8  -4 218.408 179.781   1
 -12   8   4 192.459 175.675   1
  12  -8  -4 350.661 189.511   1
  12  -8  -4 128.617 194.110   1
 -15   0  21 449.401 211.530   1
 -15   0  21 436.552 207.048   1
  15   0 -21 346.029 196.070   1
  10   2  14 1944.01 270.085   1
  10  -2  14 2057.96 264.815   1
   9   6 -19 83.4887 174.362   1
  -9  -6  19 33.8251 176.424   1
  -4  10   0 425.541 212.559   1
  -4 -10   0 364.012 238.770   1
   4  10   0 745.794 231.829   1
   4  10   0 582.213 227.295   1
   4 -10   0 713.534 228.493   1
  -4  10   0 595.266 205.809   1
   0   8 -14 483.415 225.342   1
   0  -8  14 742.458 207.420   1
   0   8  14 784.290 229.792   1
  -7  -5  21 708.932 241.074   1
  -7  -5  21 879.563 199.840   1
   0 -10  -5 27.1215 193.013   1
   0 -10   5 72.1539 183.148   1
   0  10   5 194.688 168.307   1
   0  10   5 244.161 166.570   1
   0  10  -5 65.8889 162.277   1
   0  10  -5 269.842 185.127   1
 -11   6  18 6.89476 142.043   1
 -11  -6  18 230.450 155.402   1
  11   6 -18 182.173 185.236   1
  -6  -3  23 816.420 245.594   1
  -6   3  23 1199.95 251.005   1
  -6  -3  23 1308.80 205.905   1
  -3  10   5 164.111 159.929   1
   3  10  -5 31.9323 161.616   1
   3  10  -5 16.8112 148.170   1
   3 -10  -5 32.7452 176.223   1
  -3  10   5 47.3023 144.553   1
  -3 -10   5 0.98583 162.580   1
  15  -4 -18 1071.63 219.138   1
 -15   4  18 1314.37 283.210   1
 -15   4  18 940.229 229.841   1
 -15  -4  18 606.397 262.029   1
 -15  -4  18 490.239 207.854   1
  15   4 -18 822.011 242.823   1
  15   5   2 142.558 141.830   1
 -15   5  -2 152.639 168.368   1
  15  -5   2 82.9610 153.181   1
  15  -5   2 62.6916 179.514   1
   7  -6  13 64.8097 170.122   1
  -7   6 -13 143.291 187.942   1
   7  -6  13 31.1471 181.345   1
 -15   1  -7 -12.327 156.467   1
  15  -1   7 184.323 151.824   1
  15  -1   7 50.6614 136.992   1
  15   1   7 110.081 153.427   1
   6  -6  14 104.631 144.629   1
  -6   6 -14 50.0167 179.155   1
  -5   7 -13 21.7763 182.301   1
   5   7  13 77.4570 175.341   1
   5  -7  13 856.609 211.398   1
   6   9 -11 2269.32 292.668   1
  -6   9  11 2417.07 262.681   1
  -6   9  11 2943.95 272.444   1
  -6  -9  11 2629.89 308.819   1
   6  -9 -11 2845.60 292.887   1
   6   9 -11 2476.78 292.174   1
  12   0  12 1982.89 257.390   1
   7  -7  11 146.542 223.565   1
   7  -7  11 336.435 196.329   1
  -7   7 -11 86.1524 190.090   1
   8   3 -23 2316.53 303.957   1
  -8  -3  23 2083.21 249.369   1
  -8   3  23 1858.77 253.036   1
  -8  -3  23 2193.09 261.246   1
   4 -10  -4 585.144 209.088   1
   4  10  -4 672.212 216.074   1
   4  10  -4 203.073 198.128   1
  -4  10   4 433.717 234.445   1
  -4  10   4 674.485 207.527   1
  -4 -10   4 424.463 258.945   1
 -17  -4  14 2835.08 294.413   1
 -17  -4  14 2504.26 357.868   1
 -17   4  14 2223.17 272.187   1
 -17   4  14 2103.76 307.451   1
  17   4 -14 1398.20 277.059   1
  17  -4 -14 1928.36 276.899   1
  11   8 -11 281.981 212.041   1
 -11  -8  11 566.195 187.729   1
  11   8 -11 357.199 194.527   1
  11  -8 -11 97.7575 206.655   1
 -11   8  11 0.74954 154.322   1
 -13   2  22 306.325 172.909   1
 -13  -2  22 207.536 168.258   1
 -13  -2  22 29.2168 182.938   1
  13   2 -22 137.958 207.031   1
 -13   2  22 19.8460 153.418   1
  13  -2 -22 275.009 177.505   1
  -3  -8  15 156.237 164.536   1
  -3   8  15 308.382 169.937   1
   3   8 -15 -75.400 176.106   1
  -9  -9   7 337.623 196.217   1
   9   9  -7 192.149 197.875   1
  -9   9   7 161.706 200.300   1
   9  -9  -7 210.844 173.584   1
  -5  -5  21 113.170 188.259   1
   5   5 -21 -19.182 165.037   1
  -5  -5  21 548.077 156.279   1
  16   1   5 566.844 177.610   1
 -16   1  -5 893.604 224.252   1
  16   1   5 480.458 232.666   1
  16  -1   5 877.603 212.470   1
  16  -1   5 469.028 209.854   1
  -7   1  24 2335.21 246.660   1
  -7  -1  24 1384.20 276.842   1
  14   7  -4 7919.95 483.962   1
 -14  -7   4 7447.65 444.867   1
 -14   7   4 6875.75 423.606   1
  14  -7  -4 7251.52 509.758   1
  14  -7  -4 7262.96 464.514   1
  -1  -5  20 398.455 206.626   1
   1   5 -20 409.519 214.670   1
  -6   8  15 2569.93 278.891   1
   6   8 -15 2524.51 302.005   1
  -6  -8  15 2336.61 289.390   1
   6   8 -15 2910.13 312.986   1
  13  -2  10 233.495 161.799   1
  13   2  10 723.272 214.181   1
  13  -2  10 541.305 194.871   1
  19   0 -13 331.186 200.136   1
 -19   0  13 180.258 213.021   1
 -10   7  -7 -4.1351 139.939   1
  10  -7   7 39.3495 133.902   1
  10  -7   7 -109.99 165.636   1
 -14  -7   9 261.762 195.874   1
  14   7  -9 374.393 181.190   1
  14   7  -9 217.337 190.603   1
 -14   7   9 366.307 174.432   1
  14  -7  -9 131.417 187.683   1
  14   0   9 -29.801 131.610   1
 -16   0  20 11951.9 622.367   1
 -16   0  20 12260.4 634.112   1
  16   0 -20 11756.2 672.830   1
 -11  -2  23 144.287 143.155   1
 -11  -2  23 73.8729 153.213   1
  11   2 -23 34.6855 172.829   1
 -11   2  23 -54.653 143.127   1
  -9   0  24 180.173 177.529   1
 -12  -1  23 13691.7 671.745   1
 -12  -1  23 14180.1 686.522   1
 -12   1  23 13290.2 622.184   1
 -12   1  23 13351.6 655.419   1
  12   1 -23 13870.6 708.028   1
  15   5 -16 293.248 212.281   1
 -15  -5  16 221.417 192.583   1
 -15   5  16 335.630 176.166   1
  15  -5 -16 590.567 229.737   1
 -15  -5  16 609.823 218.736   1
  -8  -1  24 3256.57 292.453   1
  -8   1  24 2870.73 284.721   1
   7   9   4 338.285 214.806   1
  -7   9  -4 926.309 222.019   1
   7  -9   4 381.496 225.424   1
  -9  -4  22 3967.66 338.418   1
  -9   4  22 3914.65 323.677   1
  -9  -4  22 4605.88 358.579   1
   9   4 -22 3903.60 407.462   1
 -16  -5   1 105.322 171.511   1
  16   5  -1 139.384 177.958   1
  16  -5  -1 119.805 161.770   1
  16  -5  -1 142.578 178.246   1
 -16   5   1 264.642 176.740   1
  -8   9  -2 759.683 228.715   1
   8   9   2 959.845 246.928   1
  -8  -9  -2 847.424 219.403   1
   8  -9   2 682.927 234.968   1
   8   9   2 614.898 203.234   1
  19  -1  -5 238.159 200.796   1
  19   1  -5 655.748 218.920   1
 -19   1   5 333.877 208.972   1
 -19  -1   5 728.539 204.627   1
  19  -1  -5 590.805 196.243   1
   2   6 -19 153.777 176.058   1
  -2  -6  19 433.801 200.331   1
 -19  -2   9 128.527 161.272   1
 -19   2   9 49.2338 166.546   1
  19   2  -9 -18.022 150.857   1
  19  -2  -9 237.140 160.149   1
 -12  -8   8 104.122 178.289   1
 -12   8   8 171.137 164.376   1
  12   8  -8 616.832 226.226   1
  12   8  -8 60.5310 177.559   1
  12  -8  -8 106.821 179.583   1
   8  -6  12 353.650 205.820   1
  -8   6 -12 291.444 191.637   1
   8  -6  12 190.992 171.804   1
   4  -9   8 1958.15 271.045   1
   4  -9   8 1681.28 258.035   1
   4   9   8 1944.50 270.115   1
  -4   9  -8 1744.56 269.270   1
   2   8  13 1087.71 241.200   1
   2  -8  13 477.050 214.158   1
  -2   8 -13 595.841 228.988   1
  11   8   1 2302.23 280.207   1
  11   8   1 2510.54 330.673   1
 -11  -8  -1 2509.41 289.437   1
  11  -8   1 2689.17 322.923   1
 -11   8  -1 2747.83 328.357   1
  -9  -9   1 -11.380 145.024   1
   9   9  -1 -39.270 145.884   1
   9   9  -1 -22.181 143.989   1
  -9   9   1 129.259 130.844   1
   9  -9  -1 -36.955 146.451   1
 -11  -5  20 83.3970 174.744   1
 -11  -5  20 237.166 185.772   1
  11   5 -20 576.051 210.417   1
  -4  -4  22 43.8199 136.546   1
   4   4 -22 15.7615 142.162   1
  -4  -4  22 51.0459 145.535   1
  -6  -1  24 568.282 184.740   1
  -6   1  24 1025.27 227.984   1
  12   8  -3 168.148 197.060   1
  12   8  -3 211.864 190.772   1
 -12  -8   3 235.922 186.991   1
  12  -8  -3 99.7384 175.677   1
  12  -8  -3 15.8647 177.568   1
 -12   8   3 114.050 160.612   1
  18   0   0 356.858 190.014   1
  18   0   0 115.626 154.429   1
 -18   0   0 73.3819 200.846   1
  17   2   2 24.3294 157.770   1
 -17  -2  -2 16.3514 173.178   1
  17   2   2 -20.373 181.551   1
  17  -2   2 519.478 180.394   1
  17  -2   2 -31.740 158.198   1
 -17   2  -2 366.474 198.418   1
  19   2  -8 310.513 183.246   1
 -19   2   8 526.433 202.349   1
  19  -2  -8 403.629 187.197   1
 -19  -2   8 401.060 207.650   1
  -5   0  24 162.726 175.781   1
   8   5 -21 142.916 250.989   1
  -8  -5  21 206.651 187.393   1
  -8  -5  21 864.581 184.386   1
 -14   0  22 2575.59 310.332   1
 -14   0  22 2566.42 299.171   1
  14   0 -22 2539.98 330.167   1
   5  -6  15 81.0219 174.678   1
  -5   6 -15 78.7670 181.401   1
   8  -8   7 1905.29 303.063   1
   8   8   7 1933.65 278.383   1
  -8   8  -7 1524.06 282.824   1
   8  -8   7 1730.92 264.484   1
  -5   3  23 -27.935 122.714   1
  -5  -3  23 78.1888 124.185   1
 -15   1  21 3490.98 337.509   1
 -15   1  21 3198.43 325.531   1
 -15  -1  21 3882.47 347.817   1
 -15  -1  21 3152.09 290.920   1
  15  -1 -21 3174.71 370.072   1
  15   1 -21 4291.77 347.363   1
  11  -6   8 858.374 208.149   1
  11  -6   8 804.593 234.884   1
 -11   6  -8 803.781 223.537   1
 -19  -2  10 24.1156 199.544   1
 -19  -2  10 317.758 208.614   1
 -19   2  10 604.260 200.886   1
  19  -2 -10 584.566 195.521   1
  19   2 -10 206.808 183.174   1
  -4 -10  -1 2099.62 305.868   1
   4  10   1 1885.00 291.175   1
   4  10   1 2033.29 243.441   1
  -4  10  -1 2326.04 274.174   1
  -4  10  -1 2239.61 281.526   1
   4 -10   1 2174.68 292.168   1
   2  10   4 26.0755 129.705   1
   2 -10   4 67.7442 145.626   1
   2  10   4 55.2912 129.342   1
  -2 -10  -4 47.7297 138.856   1
  -2  10  -4 -49.679 133.061   1
  -2  10  -4 -72.694 142.506   1
   3  -9   9 35.1346 169.493   1
  -3   9  -9 9.05991 171.815   1
   3   9   9 207.134 158.655   1
   3  -9   9 138.485 164.378   1
   5   9   7 46.5020 145.174   1
   5  -9   7 -33.552 141.293   1
   5  -9   7 -2.5528 135.297   1
  -5   9  -7 80.0112 150.730   1
   1   7  16 26.2734 155.703   1
   1  -7  16 161.468 153.281   1
  -1   7 -16 74.8740 194.750   1
  17   0   3 12648.9 642.407   1
  17   0   3 12312.2 624.782   1
 -17   0  -3 13098.9 653.209   1
   4   7  14 -22.368 197.248   1
  -4   7 -14 463.657 175.403   1
   4  -7  14 57.2652 197.673   1
  18  -3  -3 197.220 172.935   1
 -18  -3   3 114.634 166.191   1
  18  -3  -3 183.466 189.939   1
  18   3  -3 60.0370 191.335   1
 -18   3   3 77.2448 179.985   1
  14  -6   2 164.083 195.152   1
 -14   6  -2 272.202 177.164   1
  14  -6   2 165.413 169.280   1
  12   1  12 -132.25 118.597   1
  12  -1  12 154.352 122.135   1
 -16  -5  14 3472.91 335.458   1
  16  -5 -14 4019.20 345.956   1
  16   5 -14 3632.20 330.214   1
 -16   5  14 4143.14 370.845   1
   0  -9  11 126.910 169.681   1
   0   9 -11 84.7657 185.075   1
   0   9  11 196.523 194.747   1
   8  -7  10 330.700 188.165   1
   8  -7  10 425.166 203.013   1
  -8   7 -10 228.549 210.069   1
  -2 -10   6 48.1193 158.960   1
   2  10  -6 140.006 150.758   1
   2 -10  -6 -32.675 165.802   1
  -2  10   6 82.1796 152.785   1
   2  10  -6 -107.35 169.562   1
  -2  10   6 105.913 147.841   1
 -19   2   7 177.594 182.496   1
 -19  -2   7 74.8264 180.673   1
  19   2  -7 263.589 165.837   1
  19  -2  -7 189.577 165.603   1
  -1 -10  -5 29.5159 163.018   1
   1 -10   5 149.635 181.143   1
   1  10   5 -95.329 156.668   1
   1  10   5 92.1471 151.047   1
  -1  10  -5 -53.454 154.445   1
  -1  10  -5 488.120 172.569   1
  -9  -7  17 638.763 220.379   1
   9   7 -17 1223.21 252.002   1
 -17  -5   8 13.2729 164.903   1
  17   5  -8 87.9807 163.361   1
 -17   5   8 65.2328 155.390   1
  17  -5  -8 142.375 168.456   1
  -9  -3  23 2136.00 267.748   1
   9   3 -23 2271.24 301.131   1
  -9   3  23 1723.42 248.137   1
  -9  -3  23 2181.48 252.028   1
  -3  10  -3 449.038 227.517   1
   3 -10   3 610.687 230.763   1
  -3 -10  -3 869.068 237.180   1
   3  10   3 443.078 213.983   1
  -3  10  -3 832.890 210.226   1
   3  10   3 819.101 218.006   1
   4  10  -5 83.6738 147.341   1
   4  10  -5 -60.680 177.945   1
  -4 -10   5 -48.996 200.939   1
   4 -10  -5 82.0081 183.965   1
  -4  10   5 41.3252 175.364   1
  -4  10   5 220.261 159.364   1
 -12  -3  22 41.0952 143.617   1
 -12   3  22 -114.88 127.321   1
  12   3 -22 -23.290 171.341   1
 -12  -3  22 61.8146 129.932   1
  14  -6 -15 53.1212 198.198   1
  14   6 -15 87.3237 183.184   1
 -14   6  15 191.578 148.950   1
 -14  -6  15 192.389 180.445   1
  19  -1 -13 52.4477 157.526   1
 -19  -1  13 34.2005 152.126   1
 -19   1  13 15.9482 160.562   1
  19   1 -13 89.5525 152.468   1
 -19   1  13 -33.470 138.058   1
 -19  -1  13 75.2384 170.679   1
  -3   5 -18 109.482 164.148   1
   3  -5  18 112.077 162.675   1
  14  -1   9 21.7046 141.017   1
  14   1   9 43.4442 135.996   1
 -19   0   4 284.851 222.902   1
  19   0  -4 149.731 182.629   1
  19   0  -4 382.662 165.808   1
 -16   1  20 604.682 227.534   1
 -16   1  20 534.153 197.286   1
  16  -1 -20 711.274 271.083   1
 -16  -1  20 1189.15 255.588   1
  16   1 -20 1010.12 238.637   1
 -16  -1  20 1099.06 243.245   1
   4   5 -21 9.10987 149.219   1
  -4  -5  21 34.5495 152.058   1
  18   2  -1 330.108 180.870   1
 -18   2   1 699.665 210.772   1
 -18  -2   1 391.498 235.565   1
  18   2  -1 586.149 196.787   1
  18  -2  -1 229.072 206.682   1
  18  -2  -1 1107.91 192.345   1
  -9  -1  24 1729.63 244.496   1
  -9   1  24 2156.46 250.520   1
 -17  -5   7 549.737 249.112   1
  17   5  -7 699.410 210.313   1
 -17   5   7 342.128 198.469   1
  17  -5  -7 237.303 211.449   1
  17  -5  -7 765.232 229.622   1
  -1  10   6 1803.23 247.048   1
  -1 -10   6 767.972 258.699   1
   1 -10  -6 1748.96 255.897   1
   1  10  -6 683.067 238.966   1
   1  10  -6 1105.38 275.336   1
  -1  10   6 1673.11 249.081   1
  16  -4   2 376.686 219.776   1
  16  -4   2 231.726 191.151   1
  16   4   2 537.322 202.284   1
 -16   4  -2 397.043 242.866   1
  16   4   2 482.571 184.791   1
  -2   8  15 661.249 221.860   1
  -2  -8  15 682.523 207.737   1
   2   8 -15 724.308 228.603   1
  17  -5  -9 84.1613 184.119   1
 -17   5   9 212.436 165.191   1
 -17  -5   9 70.3406 173.172   1
  17   5  -9 208.837 174.811   1
  -1   7  17 305.053 155.876   1
   1   7 -17 151.354 208.818   1
  -1  -7  17 13.9502 167.872   1
 -14  -7   3 3779.78 319.029   1
  14   7  -3 4087.63 367.627   1
 -14   7   3 3796.91 328.668   1
  14  -7  -3 3883.13 392.949   1
  14  -7  -3 3442.92 338.583   1
  15   6  -1 324.541 197.618   1
 -15  -6   1 479.291 202.937   1
  15  -6  -1 248.277 248.121   1
 -15   6   1 633.790 205.641   1
  15  -6  -1 502.462 201.538   1
 -12  -4  21 3154.63 318.703   1
  12   4 -21 3483.46 398.269   1
 -12   4  21 3245.69 326.128   1
 -12  -4  21 3604.02 311.321   1
  -1   3  22 97.7337 128.627   1
  -1  -3  22 -41.345 121.691   1
 -19  -2  11 836.761 290.243   1
 -19  -2  11 1667.84 260.856   1
  19   2 -11 1521.55 244.215   1
  19  -2 -11 2165.16 271.139   1
 -19   2  11 1738.12 250.219   1
 -19   2  11 943.012 242.661   1
 -14  -7  10 273.769 197.625   1
  14   7 -10 228.163 190.422   1
  14   7 -10 299.774 222.614   1
  14  -7 -10 158.807 191.313   1
 -14   7  10 397.241 179.281   1
  -7   8  15 1495.81 213.689   1
   7   8 -15 956.752 267.484   1
   7   8 -15 922.011 252.399   1
  -7  -8  15 757.797 232.597   1
   9   9  -8 149.236 205.910   1
  -9  -9   8 406.620 200.953   1
  -9   9   8 237.779 170.473   1
   9  -9  -8 328.873 223.260   1
  11   2  13 75.0638 165.343   1
  11  -2  13 51.1734 147.223   1
  13  -7 -13 2032.29 313.027   1
  13   7 -13 1951.03 277.305   1
  13   7 -13 2008.06 291.279   1
 -13   7  13 1928.52 244.421   1
 -13  -7  13 1974.10 281.221   1
  10  -8 -13 19.8531 147.058   1
 -10  -8  13 -100.98 155.888   1
 -10   8  13 32.3737 143.566   1
  10   8 -13 162.812 160.081   1
  10   8 -13 37.3486 150.082   1
 -18  -1   0 -2.2704 160.094   1
 -18   1   0 162.170 213.789   1
  18   1   0 436.251 165.360   1
  18   1   0 -65.826 153.110   1
  18  -1   0 674.474 193.638   1
  18  -1   0 148.153 173.523   1
  -3  10   6 383.959 219.987   1
  -3  10   6 915.326 240.206   1
   3  10  -6 611.101 213.067   1
  -3 -10   6 731.568 226.684   1
   3 -10  -6 854.485 240.696   1
   3  10  -6 960.808 294.402   1
  13   7   1 70.5427 148.305   1
 -13   7  -1 173.670 169.354   1
  13  -7   1 39.5856 200.032   1
  13  -7   1 49.9084 162.236   1
  11  -5  10 171.775 187.498   1
  11  -5  10 198.723 179.736   1
 -11   5 -10 93.0974 191.605   1
  -5   1  24 136.891 168.179   1
  -5  -1  24 180.548 170.303   1
  17   3   1 486.956 223.983   1
  17  -3   1 596.729 208.899   1
  17  -3   1 400.053 191.631   1
 -17   3  -1 535.296 211.924   1
  17   3   1 630.794 203.273   1
 -17  -3  -1 560.802 208.144   1
   5  10  -2 41.4834 196.928   1
  -5 -10   2 167.702 218.390   1
   5  10  -2 188.948 162.538   1
  -5  10   2 255.057 212.896   1
   5 -10  -2 241.423 197.693   1
  -5  10   2 327.286 180.474   1
  14  -1 -22 213.444 168.629   1
 -14  -1  22 79.8130 128.022   1
 -14  -1  22 -70.451 158.407   1
  14   1 -22 -55.703 152.351   1
 -14   1  22 25.8426 154.339   1
 -14   1  22 67.5509 162.212   1
 -12  -8   9 1654.70 263.985   1
 -12   8   9 1570.78 227.931   1
  12   8  -9 1847.22 265.936   1
  12  -8  -9 1270.89 305.870   1
  12   8  -9 1714.57 318.268   1
   5  10  -3 505.939 263.908   1
   5  10  -3 1342.58 265.604   1
  -5  10   3 1576.52 234.095   1
  -5 -10   3 1648.76 251.216   1
   5 -10  -3 1071.37 246.312   1
  -5  10   3 839.258 235.482   1
  -1   0  23 258.478 148.885   1
  -4   9  12 3211.51 299.057   1
  -4  -9  12 3417.57 326.208   1
   4   9 -12 3089.78 382.915   1
   4   9 -12 3664.00 341.603   1
 -17  -2  18 42.2225 160.549   1
 -17   2  18 -78.468 143.847   1
 -17   2  18 223.507 165.856   1
  17   2 -18 -64.400 199.626   1
  17  -2 -18 349.069 165.144   1
 -17  -2  18 32.3878 184.002   1
   9  -6  11 2169.72 302.277   1
  -9   6 -11 2643.32 332.229   1
   9  -6  11 2340.68 320.869   1
 -18  -3  14 103.056 153.494   1
 -18  -3  14 -45.934 158.431   1
 -18   3  14 15.8297 136.305   1
 -18   3  14 88.8255 128.890   1
  18  -3 -14 -15.021 150.310   1
  18   3 -14 3.79423 146.787   1
  -9   8  14 -54.760 143.063   1
   9  -8 -14 100.617 147.072   1
  -9  -8  14 -98.279 161.500   1
   9   8 -14 -35.563 179.835   1
   9   8 -14 -443.69 183.363   1
  -2   9 -10 55.6518 143.333   1
   2   9  10 -54.565 134.973   1
   2  -9  10 57.8535 137.286   1
  -3   9  12 231.633 196.599   1
   3   9 -12 155.002 213.309   1
  -3  -9  12 156.983 174.337   1
   3   9 -12 193.434 188.524   1
  15  -6 -13 6792.92 457.426   1
  15   6 -13 7134.93 483.927   1
 -15  -6  13 7779.18 478.291   1
 -15   6  13 6636.60 407.099   1
  15   6 -13 7300.93 457.774   1
  12   3  11 26.8253 204.747   1
  12  -3  11 563.614 199.001   1
 -12   3 -11 765.105 191.825   1
  12  -3  11 666.011 183.192   1
 -10   0  24 8252.93 480.309   1
  12   8  -2 493.635 233.322   1
  12  -8  -2 697.938 221.614   1
  12   8  -2 705.222 232.806   1
 -12  -8   2 657.946 183.325   1
  12  -8  -2 249.770 219.803   1
 -12   8   2 347.798 202.648   1
 -17  -5   6 438.557 202.122   1
  17   5  -6 403.119 200.223   1
  17  -5  -6 1321.01 281.055   1
  17  -5  -6 425.324 208.316   1
 -17   5   6 257.387 212.946   1
  18   0 -17 115.423 176.217   1
 -18   0  17 239.045 220.475   1
 -18   0  17 -34.337 199.864   1
   6  -9   6 87.5341 170.417   1
  -6   9  -6 43.8306 178.768   1
   6  -9   6 181.244 174.113   1
   6   9   6 241.302 175.075   1
 -17   1  -3 539.227 218.225   1
  17   1   3 331.098 182.469   1
  17  -1   3 389.523 190.784   1
  17   1   3 323.825 217.097   1
 -17  -1  -3 544.975 193.758   1
  17  -1   3 366.655 206.010   1
  -5  10   1 2.07185 154.031   1
   5  10  -1 38.2530 168.151   1
   5 -10  -1 141.593 167.233   1
  -5  10   1 80.7584 147.293   1
  -5 -10   1 204.244 183.532   1
   5  10  -1 -53.944 167.787   1
   8  -9 -10 153.915 182.357   1
   8   9 -10 30.0316 167.202   1
  -8  -9  10 62.3985 175.393   1
  -8   9  10 168.941 177.687   1
  -8   9  10 211.613 171.393   1
   8   9 -10 26.9485 212.401   1
 -17  -4   1 473.154 221.167   1
  17   4  -1 627.945 178.687   1
  17  -4  -1 487.585 216.025   1
  17  -4  -1 178.122 187.351   1
 -17   4   1 383.799 203.245   1
  18  -4  -8 2530.21 323.663   1
  18   4  -8 3505.81 302.105   1
 -18   4   8 3412.52 329.895   1
 -18  -4   8 3371.82 340.043   1
   9   9   0 171.328 162.651   1
  -9  -9   0 -81.545 165.744   1
  -9   9   0 2.90785 151.550   1
   9  -9   0 138.899 168.585   1
   9   9   0 17.9280 177.961   1
  12   4  10 103.174 133.922   1
  12  -4  10 -41.314 159.663   1
  12  -4  10 23.8010 162.721   1
 -12   4 -10 108.381 157.790   1
 -19   2   6 3447.34 332.237   1
 -19  -2   6 3389.92 330.264   1
  19   2  -6 3211.98 301.546   1
  19  -2  -6 3682.18 305.309   1
  19  -2  -6 3200.19 347.699   1
  -7   9  11 679.243 193.655   1
  -7   9  11 424.076 185.669   1
   7  -9 -11 564.340 217.570   1
  -7  -9  11 565.709 223.115   1
   7   9 -11 462.398 260.608   1
   7   9 -11 482.626 211.451   1
  17  -5 -10 4545.23 389.841   1
  17   5 -10 4478.64 363.846   1
 -17   5  10 4789.94 359.895   1
 -17  -5  10 4033.02 362.922   1
  18  -4  -9 468.572 207.865   1
 -18  -4   9 554.063 209.097   1
  18   4  -9 299.754 188.990   1
 -18   4   9 236.480 186.836   1
   9   5 -21 173.552 216.368   1
  -9  -5  21 125.769 185.039   1
  -9  -5  21 76.3903 160.734   1
   4   6  16 715.400 218.540   1
   4  -6  16 445.421 192.160   1
  -4   6 -16 382.098 188.037   1
   0  10  -6 138.264 188.432   1
   0  10  -6 669.981 224.683   1
   0 -10  -6 421.249 204.432   1
   0  10   6 444.155 188.585   1
   0 -10   6 259.632 211.869   1
   0  10   6 394.925 191.064   1
  19   0 -14 -172.00 177.799   1
 -19   0  14 26.9095 158.905   1
 -19   0  14 -134.48 158.930   1
   4 -10   2 621.152 237.121   1
  -4  10  -2 449.472 219.671   1
  -4 -10  -2 872.320 241.672   1
   4  10   2 1115.91 194.001   1
  -4  10  -2 593.298 221.660   1
   4  10   2 662.296 217.639   1
   8  -4  15 -4.0115 142.159   1
  -5  10   4 878.170 276.814   1
  -5  10   4 1506.04 231.230   1
   5  10  -4 1431.13 221.222   1
   5  10  -4 821.815 248.607   1
   5 -10  -4 846.489 254.480   1
  -5 -10   4 567.497 247.291   1
  16   4 -17 1002.71 265.432   1
 -16  -4  17 874.379 348.136   1
 -16  -4  17 1098.47 249.069   1
  16  -4 -17 1938.49 250.098   1
 -16   4  17 622.570 259.268   1
 -16   4  17 2092.95 276.131   1
  -4   3  23 3881.97 333.764   1
  -4  -3  23 3699.19 341.523   1
  19  -1  -4 201.656 172.319   1
  19  -1  -4 92.2231 186.129   1
 -19   1   4 168.462 195.820   1
  19   1  -4 692.631 170.891   1
 -19  -1   4 214.994 183.160   1
 -15   3  -6 242.959 198.728   1
  15  -3   6 327.993 189.712   1
  15  -3   6 220.185 190.129   1
  15   3   6 304.466 188.711   1
  -2  -2  23 2447.07 243.961   1
  -2   2  23 2084.37 252.979   1
  17   0 -19 69.4108 185.383   1
 -17   0  19 206.986 162.129   1
 -17   0  19 124.607 178.046   1
 -10  -6  19 5350.23 365.897   1
  10   6 -19 5082.49 418.209   1
 -10   4  22 163.075 167.444   1
 -10  -4  22 24.0103 171.640   1
 -10  -4  22 166.801 187.659   1
  10   4 -22 445.646 187.046   1
  -4   0  24 390.455 190.962   1
 -18   4   7 3528.69 356.437   1
 -18  -4   7 3802.35 353.789   1
  18  -4  -7 3388.16 333.555   1
  18   4  -7 3607.63 317.347   1
  -5  -9  12 -55.973 164.545   1
   5   9 -12 118.657 155.783   1
   5   9 -12 21.2546 160.705   1
  -5   9  12 67.9681 169.208   1
   5   7 -18 2598.88 307.755   1
  -5  -7  18 2488.18 280.411   1
 -18  -2  16 158.647 222.366   1
 -18   2  16 -20.592 159.922   1
 -18   2  16 129.737 153.167   1
  18   2 -16 47.5541 171.330   1
  18  -2 -16 120.595 173.161   1
 -18  -2  16 110.329 155.925   1
  10   8   4 305.318 184.538   1
  10  -8   4 119.338 179.749   1
 -10   8  -4 21.4997 183.051   1
  10  -8   4 159.600 198.294   1
  -2   9  12 405.552 239.644   1
  -2  -9  12 633.080 212.731   1
   2   9 -12 884.788 248.459   1
   2   9 -12 591.272 228.309   1
   6   7 -18 625.152 251.872   1
  -6  -7  18 212.741 187.968   1
  -3  -4  22 380.766 175.188   1
  -3  -4  22 284.375 152.549   1
  14  -5   5 227.247 183.488   1
 -14   5  -5 163.945 206.350   1
  14  -5   5 61.6016 161.019   1
  -1   6 -18 1213.32 275.623   1
   1  -6  18 1237.91 265.513   1
  18   4 -10 160.751 168.041   1
  18  -4 -10 201.250 179.028   1
 -18   4  10 134.904 158.144   1
 -18   4  10 101.790 166.442   1
 -18  -4  10 154.161 176.075   1
   3   7  15 108.604 211.598   1
   3  -7  15 372.183 208.819   1
  -3   7 -15 445.675 192.003   1
 -19  -2  12 17.7374 185.537   1
 -19  -2  12 -0.4244 161.474   1
 -19   2  12 84.2937 146.504   1
 -19   2  12 74.9071 158.161   1
  19  -2 -12 132.236 166.498   1
  19   2 -12 50.3755 154.500   1
  -4  10   6 -17.206 159.078   1
  -4  10   6 67.9658 173.622   1
   4  10  -6 73.3467 150.767   1
   4  10  -6 186.202 175.576   1
   4 -10  -6 106.340 183.254   1
  -4 -10   6 -19.292 170.599   1
 -17  -3  17 59.6802 163.353   1
 -17  -3  17 -47.496 251.585   1
 -17   3  17 270.571 184.992   1
 -17   3  17 457.398 200.311   1
  17   3 -17 14.0608 182.543   1
  17  -3 -17 42.8838 173.368   1
  -5 -10   0 164.526 197.010   1
  -5  10   0 148.639 164.338   1
   5  10   0 182.124 182.367   1
  -5  10   0 175.493 167.992   1
   5  10   0 38.7009 153.892   1
   5 -10   0 46.2231 185.202   1
  -1   1  23 3680.08 281.391   1
  11  -8 -12 231.324 167.659   1
  11   8 -12 336.163 208.312   1
 -11   8  12 160.038 189.723   1
 -11  -8  12 178.089 192.682   1
  11   8 -12 311.723 189.178   1
   8   0  17 11.7965 152.670   1
  13  -5 -19 33.9388 168.367   1
 -13   5  19 119.442 153.550   1
  13   5 -19 109.036 186.398   1
 -13  -5  19 125.461 165.276   1
 -13  -5  19 229.511 187.131   1
  11  -7 -16 476.890 203.741   1
 -11   7  16 475.889 183.583   1
  11   7 -16 364.944 224.821   1
 -11  -7  16 251.861 190.899   1
   9  -4  14 184.839 211.835   1
   9  -4  14 378.454 177.725   1
 -10  -1  24 231.427 172.533   1
 -10   1  24 315.438 183.173   1
 -10  -1  24 262.683 175.075   1
 -17  -5   5 132.430 169.904   1
  17   5  -5 292.108 202.098   1
  17  -5  -5 114.237 168.373   1
 -17   5   5 156.305 179.906   1
  17  -5  -5 157.209 240.487   1
 -16  -6   7 -7.9527 124.144   1
  16   6  -7 -76.913 135.598   1
  16  -6  -7 -91.001 129.931   1
  16  -6  -7 247.163 130.514   1
 -16   6   7 -70.612 116.725   1
 -14  -5  18 296.750 160.314   1
 -14  -5  18 73.8413 187.845   1
 -14   5  18 87.7592 168.533   1
  14   5 -18 8.45918 186.287   1
  14  -5 -18 -7.3946 180.019   1
   1   8  14 393.628 169.326   1
  -1   8 -14 227.543 195.246   1
   1  -8  14 227.718 187.116   1
  -9   7  -9 2176.35 290.925   1
   9  -7   9 1611.04 258.379   1
   9  -7   9 1344.38 326.440   1
 -17   4  15 91.4550 173.946   1
 -17   4  15 137.850 169.275   1
 -17  -4  15 48.1272 200.348   1
 -17  -4  15 295.428 182.331   1
  17  -4 -15 244.022 187.741   1
  17   4 -15 265.765 200.166   1
  13  -5   7 291.775 177.769   1
 -13   5  -7 352.955 229.250   1
  13  -5   7 356.452 205.941   1
 -18   1  17 2601.07 310.853   1
 -18  -1  17 3453.10 343.871   1
 -18  -1  17 3019.83 307.285   1
  18   1 -17 3017.92 328.750   1
  18  -1 -17 2919.48 334.781   1
 -10   3  23 47.0354 156.913   1
 -10  -3  23 127.749 154.855   1
  10   3 -23 195.045 199.580   1
 -10  -3  23 120.100 178.134   1
  16  -6  -8 4253.53 374.530   1
  16   6  -8 4031.21 332.442   1
 -16   6   8 4272.88 348.787   1
 -16  -6   8 3879.55 354.493   1
   5   8  11 19.2699 173.940   1
  -5   8 -11 368.087 188.208   1
   5  -8  11 353.656 210.114   1
   5  -8  11 156.809 216.293   1
 -15   2  -7 41.8270 124.778   1
  15  -2   7 -61.357 119.983   1
  15  -2   7 -32.140 116.102   1
  15   2   7 52.7538 129.855   1
 -14   3  -8 543.725 205.789   1
  14  -3   8 487.551 201.263   1
  14  -3   8 359.124 201.627   1
  14   3   8 330.218 203.368   1
   9   0  16 -54.192 148.126   1
  -4  -7  18 131.471 155.205   1
   4   7 -18 23.8607 199.138   1
 -15  -3  20 719.342 222.555   1
 -15  -3  20 1018.24 258.682   1
  15  -3 -20 1891.37 270.680   1
  15   3 -20 627.629 252.453   1
 -15   3  20 1168.38 246.141   1
 -15   3  20 1016.11 203.986   1
  12  -7 -15 64.3511 160.347   1
 -12   7  15 133.109 148.850   1
  12   7 -15 -0.2529 167.527   1
 -12  -7  15 -42.447 148.373   1
  13   0 -23 8150.40 533.083   1
 -13   0  23 8724.72 490.282   1
 -13   0  23 8379.66 488.253   1
  -6   8 -10 218.770 203.639   1
   6  -8  10 400.177 184.336   1
   6  -8  10 101.132 187.707   1
   6   8  10 407.082 232.512   1
   8   9   3 140.543 178.655   1
   8  -9   3 154.871 186.162   1
  -8   9  -3 89.3468 185.501   1
   3   5 -21 214.526 190.812   1
  -3  -5  21 214.522 187.989   1
  -2  10  -5 606.253 217.880   1
   2  10   5 678.778 203.139   1
   2 -10   5 346.796 237.648   1
   2  10   5 374.867 216.671   1
  -2  10  -5 781.910 219.811   1
  -2 -10  -5 631.897 219.901   1
  14   7  -2 73.4544 194.498   1
 -14  -7   2 31.3203 193.794   1
  14  -7  -2 172.257 182.442   1
  14  -7  -2 555.116 216.243   1
 -14   7   2 394.837 187.972   1
  18   4  -6 918.489 206.500   1
  18  -4  -6 555.656 219.411   1
  18  -4  -6 441.286 246.323   1
 -18  -4   6 899.562 281.525   1
 -18   4   6 687.312 237.318   1
  16  -3   4 3830.86 357.231   1
  16   3   4 4142.86 356.069   1
 -16   3  -4 4054.30 331.607   1
  16  -3   4 4018.75 359.418   1
  -5 -10   5 186.745 203.481   1
   5  10  -5 198.419 214.582   1
  -5  10   5 264.246 224.038   1
   5 -10  -5 276.166 233.125   1
  -5  10   5 369.774 188.968   1
   5  10  -5 332.097 218.408   1
  13   0  11 145.643 199.653   1
   9   8   6 3014.32 311.416   1
   9  -8   6 2097.44 290.918   1
   9  -8   6 2083.52 319.776   1
  -9   8  -6 2327.16 315.386   1
  16  -2   5 484.681 181.562   1
  16  -2   5 280.403 201.319   1
 -16   2  -5 186.945 208.304   1
  16   2   5 246.366 167.702   1
  -7   2  24 -96.085 159.144   1
  -7  -2  24 -5.3063 126.913   1
   1   6 -19 136.512 192.987   1
  -1  -6  19 119.291 185.366   1
 -19  -1  14 61.0526 178.136   1
 -19  -1  14 165.541 217.976   1
 -19   1  14 272.061 170.498   1
  19  -1 -14 220.550 186.121   1
 -19   1  14 299.935 198.583   1
  19   1 -14 55.8735 193.125   1
   6   6 -20 135.507 160.331   1
  -6  -6  20 -6.3955 141.006   1
  14   7 -11 878.030 223.501   1
 -14   7  11 405.439 242.987   1
  14  -7 -11 407.507 222.008   1
  14   7 -11 1049.08 255.779   1
 -14  -7  11 693.055 232.958   1
   3 -10   4 53.9935 180.272   1
   3  10   4 130.124 158.176   1
   3  10   4 222.346 164.235   1
  -3  10  -4 149.590 164.915   1
  -3  10  -4 -54.355 171.962   1
  -3 -10  -4 120.711 177.751   1
 -17   5  11 7763.25 471.693   1
  17   5 -11 8386.73 500.140   1
  17  -5 -11 7212.34 498.408   1
 -17  -5  11 8894.47 513.553   1
 -16   6   6 3206.01 312.986   1
  16   6  -6 3257.24 298.982   1
  16  -6  -6 3203.73 396.987   1
  16  -6  -6 3074.36 328.544   1
 -16  -6   6 3344.63 375.690   1
  17  -1 -19 2427.49 292.353   1
 -17   1  19 1399.59 338.323   1
 -17   1  19 1895.62 258.266   1
 -17  -1  19 1839.15 290.636   1
 -17  -1  19 1945.26 255.120   1
  17   1 -19 949.992 282.335   1
 -11   8  -2 1857.62 298.718   1
  11  -8   2 1922.52 305.127   1
  -7  -7  18 252.900 181.660   1
   7   7 -18 155.570 235.454   1
   8  -3  16 981.934 252.434   1
   8   3  16 1504.65 222.854   1
   7   0  18 -10.849 129.337   1
 -14  -3  21 689.061 237.727   1
 -14  -3  21 506.149 216.288   1
 -14   3  21 1375.10 237.891   1
  14   3 -21 735.733 242.344   1
  14  -3 -21 637.720 243.110   1
 -14   3  21 715.460 217.681   1
 -16  -5   0 1307.88 258.761   1
  16   5   0 1888.98 256.026   1
 -16   5   0 782.932 250.756   1
  16  -5   0 1617.61 236.178   1
  16  -5   0 1884.12 274.348   1
  -1   8  15 144.761 189.489   1
   1   8 -15 299.459 200.109   1
  -1  -8  15 197.564 218.469   1
 -12  -2  23 157.222 165.648   1
  12   2 -23 202.275 206.143   1
 -12  -2  23 145.887 178.442   1
 -12   2  23 64.6959 159.268   1
  -9  -9   9 127.755 180.898   1
   9   9  -9 57.2796 175.380   1
  -9   9   9 9.87813 148.653   1
   9  -9  -9 398.242 199.352   1
  -4  -1  24 211.801 165.536   1
  -4   1  24 33.0067 158.774   1
 -16  -6   9 2625.13 304.076   1
  16   6  -9 2288.74 336.522   1
  16  -6  -9 2216.95 300.368   1
 -16   6   9 2351.70 275.082   1
   7  -5  15 -15.443 142.042   1
   7  -5  15 89.0834 148.345   1
  -7   5 -15 -24.248 150.218   1
  12   8 -10 149.227 142.121   1
  12   8 -10 6.70125 144.131   1
 -12  -8  10 -57.958 146.899   1
  12  -8 -10 90.6885 143.110   1
 -12   8  10 -73.477 130.898   1
  12  -7   4 1668.10 234.030   1
 -12   7  -4 1396.38 255.864   1
  12  -7   4 373.665 246.646   1
  -8   2  24 -141.77 165.932   1
  -8  -2  24 10.2509 136.048   1
 -18   3   2 3386.03 345.874   1
  18  -3  -2 3089.13 318.184   1
 -18  -3   2 3174.59 302.648   1
  18  -3  -2 3344.66 348.993   1
  18   3  -2 2820.37 339.340   1
   4   8  12 -73.121 216.561   1
  -4   8 -12 137.534 189.825   1
   4  -8  12 638.463 177.679   1
  19   2  -5 2319.27 262.843   1
 -19   2   5 1591.82 267.446   1
  19  -2  -5 1781.80 291.260   1
  19  -2  -5 1460.03 244.342   1
 -19  -2   5 2168.38 331.955   1
  -2  10   7 410.103 189.596   1
  -2 -10   7 -107.94 202.982   1
   2  10  -7 249.140 182.324   1
   2  10  -7 433.223 209.842   1
  -2  10   7 192.682 187.208   1
   2 -10  -7 320.312 191.223   1
  -5  -6  20 142.519 193.944   1
   5   6 -20 154.303 176.202   1
 -19   0   3 4463.26 357.454   1
  19   0  -3 4302.05 332.536   1
  19   0  -3 4354.74 352.068   1
   1   9  11 84.2668 125.278   1
   1  -9  11 -51.726 128.786   1
  -1   9 -11 -16.496 138.068   1
  -8   8  15 203.126 161.293   1
  -8  -8  15 242.720 178.141   1
 -18  -4  11 497.883 215.016   1
 -18   4  11 493.052 201.675   1
 -18   4  11 558.835 211.175   1
  18  -4 -11 488.018 219.065   1
  18   4 -11 502.731 214.647   1
   8  -5  14 236.735 218.861   1
   8  -5  14 567.538 203.047   1
  -8   5 -14 164.968 200.250   1
   7   6 -20 4527.47 431.954   1
  -7  -6  20 4334.48 339.053   1
  12   8  -1 54.4475 182.458   1
 -12  -8   1 -32.528 178.496   1
  12   8  -1 394.929 197.541   1
  12  -8  -1 40.1445 184.503   1
 -12   8   1 212.140 170.381   1
  12  -8  -1 153.596 180.185   1
  -6  -2  24 1393.26 213.288   1
  -6   2  24 1905.57 226.800   1
  11  -7   6 324.403 188.858   1
 -11   7  -6 3.60781 181.977   1
   7   3  17 5130.74 360.052   1
  -1  10  -6 962.549 223.136   1
  -1  10  -6 579.074 230.832   1
   1  10   6 597.689 215.048   1
   1  10   6 655.137 204.528   1
   1 -10   6 491.597 254.970   1
  -6   9  12 425.349 183.135   1
   6   9 -12 6.51259 213.316   1
   6   9 -12 -21.776 175.928   1
  -6  -9  12 -19.655 184.322   1
   7  -9   5 535.743 230.590   1
   7  -9   5 647.292 221.986   1
   7   9   5 754.510 230.297   1
  -7   9  -5 1497.72 247.254   1
   9  -3  15 714.225 231.703   1
   9   3  15 697.964 210.373   1
 -13   6  17 193.525 199.461   1
 -13  -6  17 769.242 198.959   1
  13  -6 -17 405.256 204.664   1
  13   6 -17 357.969 231.355   1
 -15   2  21 3161.97 319.981   1
 -15  -2  21 2292.66 275.659   1
 -15   2  21 3118.50 321.285   1
 -15  -2  21 2413.26 319.888   1
  15  -2 -21 2642.84 287.844   1
  15   2 -21 2912.36 332.065   1
  -3  10   7 214.113 196.399   1
  -3  10   7 230.858 187.828   1
   3  10  -7 254.899 208.771   1
   3 -10  -7 238.207 203.928   1
   3  10  -7 104.527 178.239   1
  -3 -10   7 261.970 194.164   1
   0   5 -20 475.771 208.143   1
   0  -5  20 518.445 208.515   1
  13  -6   5 2320.18 283.243   1
  13  -6   5 2399.72 307.856   1
 -13   6  -5 2472.98 295.933   1
  10  -6  10 100.567 172.838   1
  10  -6  10 116.806 148.446   1
 -10   6 -10 -2.3691 159.923   1
   8  -1  17 378.179 198.436   1
   8   1  17 328.297 180.707   1
 -10  -9   5 630.130 242.491   1
  10   9  -5 792.650 205.973   1
  10   9  -5 303.571 254.564   1
 -10   9   5 6.27899 181.918   1
  10  -9  -5 98.1792 192.252   1
  10   0  15 78.7987 144.269   1
  15  -5   3 3055.34 340.768   1
 -15   5  -3 2674.06 367.962   1
  15  -5   3 3527.51 299.752   1
   1  10  -7 1003.57 243.314   1
   1 -10  -7 598.222 221.056   1
  -1 -10   7 604.649 235.419   1
  -1  10   7 397.164 202.604   1
  -1  10   7 671.605 214.948   1
   1  10  -7 301.480 217.348   1
  12  -6 -18 -50.420 130.027   1
 -12   6  18 32.6225 120.356   1
  12   6 -18 -39.863 146.693   1
 -12  -6  18 90.8257 129.994   1
  -1   9  12 81.6785 223.301   1
  -1  -9  12 383.473 195.667   1
   1   9 -12 546.635 207.207   1
  10   9  -4 331.657 243.676   1
 -10  -9   4 113.688 215.992   1
 -10   9   4 277.970 169.655   1
  10  -9  -4 -12.796 183.263   1
  -6   5 -16 274.992 190.461   1
   6  -5  16 73.0000 174.426   1
  -7   8  -9 78.9786 228.929   1
   7   8   9 41.4151 179.761   1
   7  -8   9 620.304 214.945   1
   7  -8   9 79.0763 170.382   1
  -5  10  -1 12.1132 142.413   1
   5  10   1 64.7926 156.637   1
  -5 -10  -1 -21.597 167.112   1
   5  10   1 -133.68 160.087   1
   5 -10   1 -76.717 160.282   1
  -5  10  -1 -26.240 153.997   1
   9  -1  16 401.124 194.417   1
   9   1  16 261.043 179.729   1
 -16  -5  15 47.4207 170.483   1
 -16   5  15 130.972 178.287   1
  16   5 -15 41.0631 173.295   1
  16  -5 -15 134.812 164.842   1
  12   2  12 497.585 164.711   1
  12  -2  12 171.065 199.806   1
  16   6  -5 2433.96 253.522   1
 -16  -6   5 1051.87 324.032   1
  16  -6  -5 2073.50 293.663   1
 -16   6   5 1704.83 274.297   1
  16  -6  -5 1983.86 283.502   1
   9  -9   1 2278.57 308.385   1
  -9   9  -1 1700.07 280.531   1
  -9  -9  -1 2357.47 284.595   1
   9   9   1 2259.27 311.550   1
   9   9   1 1744.49 271.573   1
  -4  10  -3 2232.00 312.073   1
   4  10   3 2771.02 294.160   1
  -4  10  -3 2999.74 298.694   1
   4  10   3 2821.93 299.789   1
  -4 -10  -3 2941.26 325.995   1
   4 -10   3 2137.22 321.853   1
 -11   0  24 12.9940 134.558   1
  15  -4   5 1.75532 156.147   1
  15   4   5 323.079 167.549   1
 -15   4  -5 157.078 204.075   1
  15  -4   5 124.130 188.104   1
 -13  -1  23 514.658 206.993   1
 -13  -1  23 327.475 189.321   1
  13  -1 -23 393.507 221.028   1
 -13   1  23 176.102 194.632   1
 -13   1  23 439.134 192.868   1
  13   1 -23 231.455 228.930   1
 -10  -7  17 307.957 195.344   1
  10   7 -17 485.947 218.905   1
  14  -4   7 5053.51 405.798   1
  14  -4   7 5318.86 401.058   1
  14   4   7 4399.83 346.970   1
 -14   4  -7 6099.07 430.025   1
 -10   4 -13 347.359 186.451   1
  10  -4  13 197.987 173.032   1
  10  -4  13 122.382 207.139   1
  13  -1  11 387.775 196.553   1
  13   1  11 307.512 176.399   1
 -16  -3  19 916.228 255.407   1
 -16   3  19 661.475 235.621   1
  16  -3 -19 690.472 264.784   1
 -16   3  19 875.786 201.112   1
 -16  -3  19 1447.58 217.973   1
  15   6   0 86.2249 172.510   1
 -15  -6   0 216.663 181.293   1
  15  -6   0 184.251 189.384   1
 -15   6   0 361.565 186.914   1
  15  -6   0 270.418 187.201   1
  12   5 -20 4190.66 379.939   1
 -12  -5  20 4125.23 343.934   1
 -12  -5  20 4049.43 337.949   1
  10   9  -6 520.392 220.407   1
  10   9  -6 250.412 213.767   1
 -10  -9   6 612.351 206.280   1
  10  -9  -6 276.317 255.219   1
 -10   9   6 347.665 186.248   1
  -3  -7  18 1482.36 229.715   1
   3   7 -18 743.397 242.912   1
  19  -2 -13 618.751 237.428   1
  19   2 -13 609.879 212.476   1
 -19   2  13 594.235 206.576   1
 -19  -2  13 608.893 225.064   1
 -19   2  13 557.589 218.351   1
 -19  -2  13 495.230 216.420   1
   2  -5  19 692.347 215.358   1
  -2   5 -19 879.277 239.114   1
  16   6 -10 2154.16 282.348   1
  16  -6 -10 2568.16 307.754   1
 -16   6  10 2909.49 282.338   1
 -16  -6  10 2668.11 307.205   1
 -10  -5  21 2161.00 263.346   1
  10   5 -21 1930.58 358.031   1
 -10  -5  21 2020.37 257.580   1
  14   2   9 15.8823 180.461   1
  14  -2   9 254.449 167.646   1
  14  -2   9 72.8659 149.843   1
   3   6  17 -9.0646 142.167   1
   3  -6  17 74.2623 158.482   1
  -3   6 -17 42.8221 164.573   1
 -17  -5   4 22.2852 155.904   1
  17  -5  -4 370.085 185.853   1
  17  -5  -4 -16.198 159.381   1
 -17   5   4 2.83349 167.516   1
  17   5  -4 167.014 186.241   1
 -16   2  20 439.453 203.835   1
  16   2 -20 746.484 220.702   1
 -16  -2  20 183.652 183.286   1
 -16  -2  20 423.720 218.448   1
 -16   2  20 380.146 178.199   1
  16  -2 -20 414.365 243.485   1
  -9  -2  24 4696.58 340.122   1
  -9   2  24 4759.41 346.300   1
  -9  -2  24 4030.13 327.401   1
  18   0   1 283.542 194.144   1
  18   0   1 47.3776 171.101   1
 -18   0  -1 263.413 201.325   1
   7  -1  18 4272.36 353.367   1
   7   1  18 4096.38 342.700   1
  18  -4  -5 1931.77 300.204   1
  18   4  -5 1532.77 251.312   1
 -18  -4   5 890.521 274.610   1
  18  -4  -5 2107.65 283.232   1
 -18   4   5 2647.71 310.975   1
  12  -6   7 2207.84 258.291   1
 -12   6  -7 1574.45 320.979   1
  12  -6   7 1749.70 293.527   1
  10   9  -3 113.564 191.304   1
 -10  -9   3 307.735 204.645   1
 -10   9   3 31.7897 171.243   1
   0   7  17 21.2993 137.007   1
   0  -7  17 78.8465 171.888   1
   0   7 -17 23.1471 150.897   1
   9  -5  13 2302.85 326.917   1
  -9   5 -13 1984.92 295.199   1
  15   5 -17 27.5496 188.448   1
  15  -5 -17 251.225 193.972   1
 -15  -5  17 91.8725 189.892   1
 -15   5  17 183.615 150.028   1
 -15  -5  17 -15.601 166.019   1
  18   3 -15 2408.79 295.333   1
  18  -3 -15 1746.77 289.927   1
 -18   3  15 1891.39 252.298   1
 -18  -3  15 1694.39 280.882   1
 -18  -3  15 2181.94 314.054   1
 -18   3  15 2310.11 257.834   1
 -14  -4  20 241.894 219.234   1
  14  -4 -20 247.850 202.936   1
  14   4 -20 267.423 211.572   1
 -14   4  20 258.384 193.210   1
 -14   4  20 380.208 198.475   1
 -14  -4  20 322.010 190.085   1
   4   6 -20 465.452 226.690   1
  -4  -6  20 292.401 183.111   1
  -3  -3  23 2298.45 276.573   1
  -3   3  23 2233.04 238.223   1
  -5  10   6 369.298 207.105   1
  -5  10   6 529.638 206.171   1
   5  10  -6 915.453 291.523   1
   5  10  -6 406.045 211.374   1
   5 -10  -6 1385.51 263.211   1
  -5 -10   6 216.720 229.565   1
 -19  -1   3 1325.10 254.702   1
 -19   1   3 1325.97 317.304   1
  19   1  -3 1594.25 257.074   1
  19  -1  -3 1789.83 245.264   1
  19  -1  -3 1628.11 263.693   1
  19   1  -3 1822.54 234.849   1
   6   3  18 2135.57 266.462   1
   8   6 -20 1013.62 261.720   1
  -8  -6  20 857.051 222.820   1
 -18   2   0 1995.33 326.190   1
  18   2   0 2129.97 310.589   1
  18   2   0 1804.02 283.489   1
  18  -2   0 1854.36 252.130   1
  18  -2   0 1923.78 262.858   1
 -18  -2   0 2149.81 259.234   1
  16   0   6 510.748 208.473   1
  16   0   6 693.013 196.162   1
 -15   6  14 51.8248 160.699   1
 -15  -6  14 188.961 180.421   1
  15   6 -14 137.807 181.398   1
  15  -6 -14 177.941 219.348   1
 -19   0  15 9958.60 538.809   1
 -19   0  15 8793.16 580.398   1
  19   0 -15 9207.60 559.083   1
  -5   2  24 62.0916 166.242   1
  -5  -2  24 827.931 197.979   1
 -14   2  22 3487.59 322.024   1
  14  -2 -22 3424.84 347.491   1
 -14   2  22 3923.93 361.112   1
 -14  -2  22 3930.73 364.510   1
 -14  -2  22 4026.80 370.249   1
  14   2 -22 4089.59 410.501   1
   4 -10  -7 290.285 229.903   1
  -4 -10   7 217.980 261.337   1
  -4  10   7 618.249 225.895   1
  -4  10   7 398.632 202.354   1
   4  10  -7 660.612 229.195   1
   4  10  -7 446.064 197.602   1
   3   8  13 2817.45 293.545   1
  -3   8 -13 2214.62 309.320   1
   3  -8  13 2848.86 334.155   1
  -8  -7  18 2574.52 289.553   1
 -13   7  14 2755.13 312.965   1
  13  -7 -14 2937.64 343.634   1
 -13  -7  14 2036.94 308.418   1
  13   7 -14 2521.69 316.399   1
  15  -4 -19 473.987 224.953   1
 -15   4  19 409.628 203.873   1
  15   4 -19 195.160 207.705   1
 -15  -4  19 446.668 187.327   1
 -15  -4  19 115.469 228.711   1
 -15   4  19 359.663 207.478   1
   6 -10  -3 467.889 250.505   1
  -6  10   3 105.641 197.640   1
  -6 -10   3 251.173 242.646   1
  -6  10   3 413.537 187.165   1
   6  10  -3 223.579 182.422   1
   6  10  -3 303.655 207.177   1
 -12   5  -9 413.539 166.547   1
  12  -5   9 64.1618 163.204   1
  12  -5   9 24.4230 189.159   1
  -3   0  24 69.6420 151.237   1
 -17  -5  12 196.586 190.566   1
 -17   5  12 171.779 164.862   1
  17   5 -12 186.455 179.592   1
  17  -5 -12 -20.871 221.459   1
 -14   6  -3 1289.11 269.783   1
  14  -6   3 2243.96 322.111   1
  14  -6   3 1488.64 242.063   1
 -13   7  -2 405.396 201.153   1
  13  -7   2 137.492 198.257   1
  13  -7   2 228.785 189.690   1
  10  -3  14 624.335 216.310   1
  10   3  14 404.877 200.153   1
  10   1  15 484.580 236.127   1
  10  -1  15 878.067 252.917   1
  -6 -10   2 88.0559 208.962   1
  -6  10   2 540.167 209.640   1
  -6  10   2 642.077 212.387   1
   6 -10  -2 802.271 235.789   1
   6  10  -2 256.875 223.977   1
   6  10  -2 437.433 224.874   1
   4   9   9 3005.35 304.974   1
   4  -9   9 2677.65 302.675   1
   4  -9   9 2732.58 312.563   1
  -4   9  -9 2779.70 317.543   1
   8  -9 -11 69.6253 181.413   1
  -8   9  11 46.4892 174.661   1
  -8  -9  11 48.1083 184.075   1
  -8   9  11 22.8324 181.215   1
   8   9 -11 698.196 213.448   1
   8   9 -11 7.14009 182.990   1
  18  -4 -12 -65.781 177.824   1
  18   4 -12 89.2239 172.457   1
 -18   4  12 330.431 162.423   1
 -18  -4  12 60.9262 180.924   1
 -18   4  12 158.826 180.057   1
   0  10  -7 -72.126 153.229   1
   0  10  -7 30.8003 198.327   1
   0  10   7 93.4448 146.580   1
   0 -10   7 101.892 164.532   1
  17   2   3 154.104 170.428   1
 -17   2  -3 877.986 224.399   1
  17   2   3 163.856 175.469   1
  17  -2   3 315.229 170.587   1
  17  -2   3 291.478 187.897   1
 -11   4  22 2988.68 295.381   1
  11   4 -22 3372.06 396.167   1
 -11  -4  22 2855.73 338.736   1
 -11  -4  22 3371.35 313.141   1
  10   9  -7 11996.6 653.803   1
  10   9  -7 11430.1 632.751   1
 -10  -9   7 11581.1 683.974   1
 -10   9   7 11083.0 580.528   1
  10  -9  -7 12399.9 707.479   1
   2   7  16 -33.976 151.888   1
   2  -7  16 25.6258 162.238   1
  -2   7 -16 -64.177 147.138   1
  -5   9  -8 686.633 229.286   1
   5   9   8 644.791 221.057   1
   5  -9   8 503.512 227.382   1
   5  -9   8 129.146 216.376   1
  15   0   8 0.85834 132.498   1
 -14   6  16 530.628 183.457   1
  14  -6 -16 674.058 232.668   1
 -14  -6  16 460.220 206.301   1
  14   6 -16 543.461 229.995   1
 -11   1  24 3146.12 305.672   1
 -11  -1  24 2551.39 287.715   1
 -11  -1  24 2909.35 302.671   1
  11   1 -24 2974.02 350.554   1
   6  10  -4 -163.77 153.047   1
  -6 -10   4 3.69088 144.722   1
  -6  10   4 4.47077 139.077   1
  -6  10   4 68.1218 172.458   1
   6  10  -4 67.9593 130.574   1
   6 -10  -4 106.799 151.032   1
  -5   8  16 1742.37 239.635   1
  -5  -8  16 966.544 246.043   1
   5   8 -16 1059.91 254.013   1
 -13   3  22 5162.05 349.632   1
  13   3 -22 4443.47 390.748   1
 -13   3  22 5044.48 405.546   1
 -13  -3  22 4964.99 365.480   1
 -13  -3  22 4911.23 358.411   1
   5  -5  17 583.633 203.065   1
  -5   5 -17 548.984 220.414   1
  17  -4   0 243.536 160.008   1
  17  -4   0 91.8336 186.813   1
  17   4   0 65.8474 167.259   1
 -17   4   0 37.4381 173.033   1
 -17  -4   0 83.0860 177.314   1
 -14  -7   1 -4.5294 178.684   1
  14   7  -1 31.1257 180.600   1
  14  -7  -1 228.173 210.602   1
  14  -7  -1 -1.3699 166.170   1
 -14   7   1 562.727 183.410   1
  -2   4  22 1381.19 196.919   1
  -2  -4  22 635.817 216.175   1
  13  -3  10 491.587 207.166   1
  13  -3  10 365.541 181.538   1
  13   3  10 387.342 202.681   1
 -13   3 -10 407.523 202.084   1
  -4   8  16 66.8183 145.270   1
   4   8 -16 114.973 152.595   1
  -4  -8  16 -67.863 147.161   1
  10   9  -2 945.319 275.235   1
 -10  -9   2 1027.86 277.306   1
 -10   9   2 1617.67 256.722   1
 -16  -6   4 364.125 161.716   1
  16   6  -4 60.6273 189.371   1
  16  -6  -4 94.5802 185.519   1
 -16   6   4 -45.000 182.373   1
  16  -6  -4 88.8838 171.056   1
  19   2  -4 129.876 212.298   1
  19  -2  -4 338.545 172.728   1
  19  -2  -4 157.158 201.853   1
 -19  -2   4 48.3946 189.253   1
 -19   2   4 283.459 192.297   1
  11   3 -23 831.840 278.221   1
 -11  -3  23 866.516 243.548   1
 -11  -3  23 2165.11 239.046   1
 -11   3  23 211.667 226.440   1
  18  -1   1 6647.64 461.628   1
 -18  -1  -1 7503.32 475.916   1
  18  -1   1 6465.86 419.263   1
  18   1   1 6616.38 472.095   1
 -18   1  -1 6111.86 472.117   1
  18   1   1 6810.72 444.426   1
  10   8 -14 1238.11 236.274   1
 -10   8  14 141.445 195.422   1
  10   8 -14 508.010 230.228   1
  10  -8 -14 469.876 207.023   1
 -10  -8  14 202.946 223.461   1
 -10   7  -8 70.9824 188.496   1
  10  -7   8 235.283 176.671   1
  10  -7   8 257.675 188.229   1
  14   7 -12 2602.62 326.035   1
 -14   7  12 1897.32 256.125   1
 -14  -7  12 2007.22 303.610   1
  14  -7 -12 2693.42 352.956   1
  14   7 -12 2511.94 304.724   1
  11   0  14 -20.618 134.478   1
   6  10  -1 1716.08 275.153   1
  -6  10   1 565.962 244.747   1
  -6 -10   1 1869.37 247.486   1
  -6  10   1 608.659 248.954   1
   6 -10  -1 1116.02 276.186   1
   6  10  -1 1823.60 282.214   1
  -3   9 -10 2532.66 312.709   1
   3   9  10 2479.81 335.568   1
   3  -9  10 2152.95 288.441   1
   3  -9  10 1911.93 293.108   1
   8  -8   8 538.116 226.514   1
   8   8   8 661.943 239.605   1
  -8   8  -8 959.933 246.632   1
   8  -8   8 953.037 262.154   1
  19  -3  -9 507.079 194.347   1
  19   3  -9 235.048 185.377   1
 -19   3   9 277.646 204.224   1
 -19  -3   9 273.959 197.003   1
  12   8 -11 783.786 222.340   1
  12   8 -11 535.910 249.219   1
 -12  -8  11 647.905 219.450   1
 -12   8  11 405.783 236.192   1
  12  -8 -11 349.037 204.845   1
 -11  -6  19 7104.86 425.665   1
  11   6 -19 6285.91 483.837   1
  -2  -5  21 1554.68 248.053   1
   2   5 -21 1044.12 266.990   1
  -5  10  -2 182.867 203.080   1
  -5 -10  -2 174.143 209.674   1
   5  10   2 535.920 215.507   1
   5 -10   2 309.224 220.707   1
   5  10   2 480.205 204.398   1
  -6   8  16 1846.91 269.920   1
   6   8 -16 1744.74 292.901   1
  -6  -8  16 1891.52 269.439   1
  16  -6 -11 4410.56 370.500   1
  16   6 -11 4193.44 406.421   1
 -16   6  11 3822.41 332.358   1
 -16  -6  11 3710.48 358.114   1
  16  -4   3 499.879 197.863   1
  16  -4   3 518.741 238.997   1
  16   4   3 411.721 202.971   1
 -16   4  -3 549.720 250.527   1
  -7   9  12 2325.39 260.764   1
  -7   9  12 2162.05 301.835   1
   7   9 -12 2038.27 286.387   1
   7   9 -12 2133.38 295.959   1
  -7  -9  12 1928.23 300.169   1
  13   4 -21 72.7947 204.188   1
 -13  -4  21 338.477 216.907   1
 -13  -4  21 205.011 201.181   1
 -13   4  21 284.619 192.871   1
 -16   1  -6 61.6138 169.316   1
  16  -1   6 -2.7317 162.818   1
  16   1   6 175.438 153.077   1
  16  -1   6 74.8348 156.508   1
 -17   3  -2 395.270 242.423   1
  17   3   2 130.341 184.923   1
  17   3   2 540.030 210.460   1
  17  -3   2 177.323 187.175   1
  17  -3   2 493.219 206.632   1
 -19   3   8 3861.99 343.409   1
 -19  -3   8 3413.74 388.151   1
  19  -3  -8 2878.20 318.303   1
  19   3  -8 3226.22 307.194   1
 -19   1  15 1698.60 308.908   1
 -19   1  15 1825.87 265.703   1
 -19  -1  15 2017.82 325.395   1
  19   1 -15 1368.68 290.327   1
  19  -1 -15 1922.73 300.333   1
 -19  -1  15 1732.33 272.296   1
   9   9 -10 91.5297 195.115   1
  -9  -9  10 65.7679 202.237   1
  -9   9  10 473.594 158.749   1
   9  -9 -10 194.632 206.829   1
 -13   4  -9 3580.40 361.530   1
  13  -4   9 3723.42 353.880   1
  13  -4   9 4080.54 371.258   1
  12   8   0 145.527 205.700   1
 -12  -8   0 331.348 209.594   1
  12  -8   0 790.011 229.007   1
  12  -8   0 301.319 211.945   1
 -12   8   0 518.859 221.726   1
   3 -10   5 71.9531 197.024   1
  -3  10  -5 125.813 186.880   1
  -3  10  -5 79.5502 175.950   1
   3  10   5 388.830 181.442   1
 -17   0  -4 -46.056 151.084   1
  17   0   4 15.5325 169.270   1
  17   0   4 138.910 153.690   1
  -3  -1  24 361.783 189.846   1
  -3   1  24 695.780 195.957   1
  18   0 -18 333.857 205.969   1
 -18   0  18 280.488 183.981   1
 -18   0  18 177.928 208.667   1
  -1   2  23 366.063 172.302   1
  19  -3 -10 131.674 168.575   1
 -19   3  10 121.505 168.961   1
 -19  -3  10 119.356 172.072   1
  19   3 -10 38.2778 161.674   1
   6  10  -5 3541.51 363.535   1
   6  10  -5 4286.14 332.369   1
   6 -10  -5 4196.67 362.556   1
  -6 -10   5 3799.10 372.372   1
  -6  10   5 3596.06 334.765   1
  -6  10   5 3306.56 381.471   1
 -16   0  21 -120.19 160.800   1
  16   0 -21 -48.738 154.165   1
 -16   0  21 43.1122 138.776   1
  -2  10  -6 2358.40 286.564   1
  -2  10  -6 2443.66 292.654   1
   2 -10   6 1124.79 302.027   1
   2  10   6 1987.80 276.935   1
  -6   9  -7 1002.96 243.919   1
   6  -9   7 1168.93 246.206   1
   6  -9   7 531.549 239.352   1
   6   9   7 545.628 241.927   1
  10   2 -24 119.141 201.254   1
 -10   2  24 107.032 159.935   1
 -10  -2  24 187.944 163.201   1
 -10  -2  24 83.2410 169.813   1
 -15   0  22 144.658 186.270   1
 -15   0  22 -34.511 195.887   1
  15   0 -22 338.802 211.394   1
   0   9  12 3772.21 321.242   1
   0  -9  12 3217.60 336.629   1
   0   9 -12 3567.22 351.210   1
 -18   2  17 242.293 223.912   1
 -18  -2  17 883.022 228.149   1
 -18  -2  17 1204.02 306.870   1
  18  -2 -17 928.435 235.638   1
  18   2 -17 538.037 253.459   1
 -18   2  17 971.065 211.328   1
  11   8 -13 532.575 233.018   1
  11   8 -13 149.746 208.641   1
 -11   8  13 395.452 211.997   1
 -11  -8  13 361.453 218.186   1
  11  -8 -13 476.994 220.247   1
   0   8  15 2005.52 276.292   1
   0  -8  15 1570.63 249.472   1
   0   8 -15 408.892 266.081   1
 -18   4   4 12461.2 678.133   1
 -18  -4   4 11185.7 615.606   1
  18   4  -4 11140.1 646.854   1
  18  -4  -4 13590.1 695.106   1
  18  -4  -4 12200.6 636.988   1
  10  -5  12 241.803 191.134   1
  10  -5  12 131.434 201.890   1
 -10   5 -12 268.082 203.867   1
  15  -1   8 49.3040 167.698   1
  15   1   8 271.168 200.954   1
  -3  -6  20 879.931 231.421   1
   3   6 -20 417.748 251.882   1
   3   8 -16 658.627 242.130   1
  -3  -8  16 683.424 226.190   1
  -3   8  16 996.021 221.937   1
  -2  -7  18 297.612 187.624   1
   2   7 -18 438.787 249.492   1
  -6   7 -13 1011.91 267.972   1
   6  -7  13 2211.08 301.938   1
   6  -7  13 1120.82 347.337   1
   6   7  13 2191.98 312.274   1
  17   4 -16 4599.90 408.783   1
  17  -4 -16 4728.35 378.599   1
 -17  -4  16 4144.70 357.391   1
 -17   4  16 4435.47 395.190   1
 -17  -4  16 4389.47 407.749   1
 -17   4  16 5036.76 372.743   1
  17   5  -3 1252.58 213.935   1
 -17  -5   3 907.480 251.239   1
 -17   5   3 223.551 237.951   1
  17  -5  -3 985.405 245.457   1
  17  -5  -3 629.206 228.868   1
   8   9   4 153.255 196.219   1
   8  -9   4 34.1157 200.943   1
  -8   9  -4 539.128 209.322   1
  19   3  -7 356.647 193.775   1
 -19  -3   7 -96.393 213.359   1
 -19   3   7 90.5370 181.018   1
  19  -3  -7 111.146 171.119   1
  19   0  -2 189.365 192.471   1
  19   0  -2 10.4984 175.778   1
 -19   0   2 250.833 205.174   1
  11  -4  12 2044.05 301.249   1
  11  -4  12 2238.97 282.903   1
 -11   4 -12 2167.23 285.799   1
  -9  -8  15 37.3918 184.232   1
   9   8 -15 322.108 208.128   1
  19  -2 -14 3594.43 371.272   1
  19   2 -14 4141.23 366.686   1
 -19   2  14 4110.27 343.824   1
 -19  -2  14 3988.00 421.840   1
 -19   2  14 4339.92 373.759   1
 -19  -2  14 3916.81 356.410   1
  10   9  -8 735.005 231.620   1
  10   9  -8 376.884 228.559   1
 -10  -9   8 624.893 270.887   1
  10  -9  -8 631.516 222.540   1
 -10   9   8 323.587 235.472   1
   5   3  19 -0.9965 114.357   1
   2  10  -8 592.077 234.326   1
   2  10  -8 379.460 206.881   1
  -2  10   8 394.792 200.087   1
  -2 -10   8 322.682 228.689   1
  -2  10   8 345.041 237.200   1
  -9  -6  20 75.0707 200.926   1
   9   6 -20 138.321 189.911   1
   7  -7  12 77.5445 168.853   1
  -7   7 -12 254.759 233.967   1
   7  -7  12 309.388 239.701   1
  -5  10   7 1837.62 255.578   1
  -5  10   7 1731.12 288.450   1
   5  10  -7 1675.70 250.392   1
   5  10  -7 1613.20 297.972   1
   5 -10  -7 865.323 309.802   1
  -5 -10   7 1079.55 267.906   1
  -4   9  13 802.383 217.627   1
   4   9 -13 151.391 204.360   1
  -4  -9  13 97.3840 191.722   1
   4   9 -13 36.0376 228.528   1
  13   8  -6 442.844 260.681   1
  13   8  -6 453.061 224.062   1
 -13  -8   6 864.078 273.599   1
  13  -8  -6 476.604 238.822   1
 -13   8   6 1592.70 225.941   1
 -17   2  19 756.090 254.388   1
 -17  -2  19 1133.98 243.287   1
 -17  -2  19 1594.25 278.591   1
  17  -2 -19 862.851 263.512   1
  17   2 -19 1767.68 277.289   1
 -10   8  -5 142.407 205.373   1
  10  -8   5 315.123 217.942   1
  10  -8   5 369.617 201.216   1
  -4  10  -4 321.170 211.011   1
   4 -10   4 554.482 246.390   1
   4  10   4 482.215 198.046   1
   4  10   4 619.539 224.537   1
  18  -3  -1 2847.15 319.546   1
  18  -3  -1 2654.93 289.408   1
  18   3  -1 2310.13 312.958   1
 -18  -3   1 2335.75 325.138   1
 -18   3   1 2616.41 379.706   1
   3  10  -8 102.318 176.067   1
  -3 -10   8 42.9810 186.808   1
  -3  10   8 56.1132 160.765   1
  -3  10   8 -27.601 167.431   1
   3  10  -8 471.144 229.690   1
   3 -10  -8 72.5730 177.328   1
  -6  10   0 366.902 217.845   1
   6 -10   0 235.563 229.037   1
   6  10   0 1206.29 235.827   1
  -6 -10   0 661.002 250.859   1
   6  10   0 591.543 246.636   1
  -4   2  24 888.537 207.352   1
  -4  -2  24 321.264 167.734   1
  11   1  14 -180.81 162.019   1
  11  -1  14 88.1386 137.712   1
   9   9   2 174.576 190.072   1
   9  -9   2 252.343 191.483   1
  -9   9  -2 -131.44 181.269   1
  11  -6   9 438.271 208.531   1
  11  -6   9 214.705 184.460   1
 -11   6  -9 251.174 230.668   1
  11  -8   3 714.868 254.735   1
 -11   8  -3 365.969 232.999   1
  13   8  -7 6.87670 177.658   1
 -13  -8   7 135.242 217.863   1
  13   8  -7 152.664 202.736   1
 -13   8   7 255.215 168.468   1
  13  -8  -7 316.660 183.554   1
  13   8  -5 81.7103 190.920   1
 -13  -8   5 51.2430 158.966   1
  13   8  -5 73.9055 190.668   1
 -13   8   5 136.275 163.836   1
  13  -8  -5 106.087 172.832   1
  13  -8  -5 15.2336 174.398   1
  19  -3 -11 213.604 200.079   1
  19   3 -11 205.673 185.885   1
 -19   3  11 296.079 186.707   1
 -19  -3  11 175.631 213.916   1
 -19  -3  11 404.534 200.512   1
  -3   9  13 2059.95 312.490   1
   3   9 -13 2270.22 302.402   1
   3   9 -13 1777.02 322.588   1
  -3  -9  13 2299.86 284.374   1
  16   4 -18 9836.36 577.966   1
  16  -4 -18 9873.52 606.963   1
 -16   4  18 8775.81 551.984   1
 -16   4  18 9997.47 507.771   1
 -16  -4  18 9970.82 594.086   1
 -16  -4  18 10039.5 544.820   1
  11  -3  13 333.937 192.929   1
  11   3  13 301.017 187.942   1
   0   6 -19 498.887 240.056   1
   0  -6  19 915.219 237.658   1
 -10  -9   1 59.1078 199.825   1
  10   9  -1 187.575 199.347   1
  10   9  -1 329.202 219.716   1
 -10   9   1 253.078 187.125   1
  10  -9  -1 188.517 209.445   1
  -1  10  -7 542.857 207.531   1
   1 -10   7 198.559 224.587   1
  -1  10  -7 173.826 194.628   1
   1  10   7 127.683 184.943   1
   2   8  14 4511.29 355.122   1
  -2   8 -14 4836.30 401.292   1
   2  -8  14 4971.42 372.315   1
   5   7  14 7.51275 204.455   1
   5  -7  14 325.761 161.589   1
  -5   7 -14 1.47950 171.410   1
  -7   4  23 274.966 199.890   1
  -7  -4  23 184.120 213.052   1
  -7  -4  23 278.284 196.366   1
   2   9  11 367.942 272.248   1
   2  -9  11 2062.98 253.393   1
  -2   9 -11 706.634 260.991   1
  18  -4 -13 2385.45 305.891   1
 -18  -4  13 2637.55 306.782   1
 -18  -4  13 2696.12 315.833   1
 -18   4  13 2208.39 284.042   1
 -18   4  13 2088.01 311.773   1
  18   4 -13 2845.75 305.809   1
  16   5   1 197.445 181.732   1
  16  -5   1 103.956 244.480   1
 -16   5  -1 362.842 193.208   1
  16  -5   1 247.759 172.263   1
  -5   9  13 1795.86 272.921   1
   5   9 -13 851.705 259.858   1
  -5  -9  13 1029.21 251.025   1
   5   9 -13 973.112 303.875   1
   7   8 -16 115.470 202.239   1
  -7  -8  16 191.791 179.596   1
  17  -5 -13 315.787 202.272   1
  17   5 -13 403.176 204.918   1
 -17  -5  13 306.046 214.391   1
 -17   5  13 377.282 181.908   1
  17   1   4 23.1512 170.015   1
  17   1   4 36.0346 133.926   1
  17  -1   4 67.5377 127.050   1
  17  -1   4 25.1286 149.612   1
 -17   1  -4 0.52226 160.510   1
 -18  -1  18 7441.84 571.840   1
 -18   1  18 6801.26 468.523   1
 -18   1  18 7283.23 442.394   1
  18  -1 -18 7233.66 497.838   1
  18   1 -18 7353.40 488.636   1
 -18  -1  18 7197.56 458.338   1
   9   7 -18 1510.83 296.118   1
  -9  -7  18 1507.91 259.891   1
 -16  -1  21 46.9625 130.963   1
 -16   1  21 -0.1827 125.583   1
  16   1 -21 -52.051 154.493   1
  16  -1 -21 19.1451 151.858   1
 -16  -1  21 -30.351 113.938   1
 -16   1  21 28.6721 133.784   1
   8   2  17 11656.7 645.114   1
   8  -2  17 11912.0 648.892   1
 -17  -3  18 2552.20 293.797   1
 -17   3  18 2246.51 311.322   1
 -17  -3  18 2543.93 405.608   1
 -17   3  18 2492.91 291.921   1
  17  -3 -18 2299.90 300.741   1
  17   3 -18 2416.12 320.487   1
   1  10  -8 2317.71 288.460   1
   1  10  -8 2202.08 313.056   1
  -1  10   8 1613.85 263.416   1
  -1 -10   8 1887.39 310.969   1
  -6  -4  23 381.540 183.000   1
   6   4 -23 22.0322 189.548   1
  -6  -4  23 35.2841 167.468   1
  -6   4  23 111.752 151.769   1
  15   1 -22 777.465 316.102   1
  15  -1 -22 1876.20 293.151   1
 -15  -1  22 1827.33 277.530   1
 -15   1  22 1005.28 264.997   1
 -15   1  22 1613.25 220.124   1
 -15  -1  22 1155.73 271.788   1
 -16  -6   3 680.475 231.833   1
  16   6  -3 629.002 182.297   1
  16  -6  -3 455.235 217.150   1
 -16   6   3 225.240 214.338   1
  16  -6  -3 425.520 197.389   1
 -12   0  24 6814.76 453.224   1
 -12   0  24 6587.41 423.608   1
   7  -6  14 41.4653 221.361   1
  -7   6 -14 411.153 226.816   1
   7  -6  14 436.737 216.952   1
  -6  10   6 31.7556 198.011   1
   6  10  -6 172.300 158.828   1
  -6 -10   6 99.8047 225.215   1
   6 -10  -6 33.1313 211.179   1
  -6  10   6 96.7610 164.514   1
   6  10  -6 134.055 192.633   1
   9   2  16 466.684 190.621   1
   9  -2  16 -7.1608 196.739   1
  14   0  10 5490.93 380.668   1
   4  -5  18 466.527 194.966   1
  -4   5 -18 459.310 224.343   1
 -13   2  23 854.171 253.563   1
 -13  -2  23 1924.59 277.702   1
 -13  -2  23 1089.68 242.436   1
  13   2 -23 1302.92 300.978   1
  11   5 -21 1034.93 338.621   1
 -11  -5  21 1805.69 262.352   1
 -11  -5  21 1497.22 234.876   1
  -4 -10   8 170.546 190.325   1
   4 -10  -8 79.9400 183.839   1
  -4  10   8 151.067 176.575   1
   4  10  -8 35.6688 170.881   1
  -4  10   8 69.1011 162.827   1
  -8  -4  23 605.950 198.179   1
   8   4 -23 512.143 249.262   1
  -8  -4  23 690.401 233.224   1
  -8   4  23 202.545 185.076   1
 -15  -7   7 161.389 192.344   1
  15   7  -7 147.074 171.280   1
 -15   7   7 277.516 183.856   1
  15  -7  -7 195.920 194.965   1
  -2   6 -18 3448.27 357.694   1
   2  -6  18 3109.32 335.873   1
 -19  -3   6 353.894 192.692   1
  19  -3  -6 227.764 222.340   1
  19  -3  -6 295.970 188.369   1
  19   3  -6 157.356 177.876   1
 -19   3   6 116.829 199.830   1
  -8   7 -11 2135.34 317.538   1
   8  -7  11 2225.67 360.367   1
   8  -7  11 2088.44 279.195   1
  13   8  -8 569.856 208.628   1
  13   8  -8 789.391 272.137   1
 -13  -8   8 679.568 266.112   1
  13  -8  -8 497.781 260.650   1
 -13   8   8 249.174 187.059   1
 -13  -8   4 2096.51 267.226   1
  13   8  -4 2059.93 269.391   1
  13   8  -4 1529.11 372.883   1
  13  -8  -4 1992.01 297.959   1
  13  -8  -4 2199.67 302.008   1
 -13   8   4 1716.04 269.444   1
 -19  -1   2 157.085 179.430   1
 -19   1   2 112.171 188.299   1
  19   1  -2 63.7440 175.550   1
  19   1  -2 439.304 161.863   1
  19  -1  -2 155.179 183.946   1
  19  -1  -2 281.395 202.484   1
  13   2  11 611.323 215.720   1
  13  -2  11 353.384 214.268   1
  17   0 -20 -66.670 173.054   1
 -17   0  20 3.88648 150.039   1
 -17   0  20 -135.02 168.842   1
   6  -6  15 506.191 212.198   1
  -6   6 -15 245.036 233.567   1
  12  -7 -16 470.285 233.449   1
 -12   7  16 797.932 215.670   1
 -12  -7  16 467.370 209.511   1
  12   7 -16 574.416 249.842   1
 -15   7   6 879.416 234.361   1
 -15  -7   6 991.112 299.717   1
  15  -7  -6 1162.74 294.311   1
  15  -7  -6 894.443 259.623   1
  15   7  -6 1198.24 231.121   1
  -2  -3  23 42.0304 141.336   1
  -2   3  23 51.7708 145.138   1
  16   6 -12 1683.11 277.692   1
  16   6 -12 1275.83 302.231   1
  16  -6 -12 2130.57 295.645   1
 -16  -6  12 1796.80 296.263   1
 -16   6  12 2568.73 310.152   1
   7   2  18 6681.56 463.210   1
   8  -6  13 2926.48 351.467   1
  -8   6 -13 3043.50 381.405   1
   8  -6  13 3631.77 367.024   1
 -15  -7   8 524.728 268.992   1
  15   7  -8 201.511 199.223   1
 -15   7   8 499.444 213.509   1
  15  -7  -8 690.061 219.957   1
  15  -6   1 339.624 287.661   1
 -15   6  -1 881.980 224.768   1
  15  -6   1 410.977 218.902   1
   7   9   6 2253.84 306.558   1
   7  -9   6 2886.68 305.236   1
   7  -9   6 2112.84 307.674   1
  -7   9  -6 2684.39 323.952   1
  -2   9  13 27.8276 217.113   1
   2   9 -13 762.796 188.066   1
  -2  -9  13 121.763 212.883   1
  14   0 -23 165.100 165.150   1
 -14   0  23 -41.903 152.411   1
 -14   0  23 -38.696 158.312   1
 -16  -5  16 170.459 181.295   1
 -16   5  16 -13.922 150.150   1
  16  -5 -16 -35.886 162.136   1
  16   5 -16 87.2622 176.740   1
 -16  -5  16 199.747 166.175   1
  19   0 -16 144.380 199.547   1
 -19   0  16 -27.738 210.811   1
 -19   0  16 103.994 171.397   1
 -18   3  16 -21.277 149.917   1
 -18  -3  16 89.3357 160.374   1
 -18  -3  16 -57.812 179.101   1
  18   3 -16 -40.524 170.837   1
  18  -3 -16 -104.00 168.873   1
 -18   3  16 507.264 185.155   1
  20   0  -9 -44.614 140.483   1
 -20   0   9 18.8152 149.743   1
  19  -2  -3 2284.47 297.932   1
  19  -2  -3 2639.51 274.927   1
 -19  -2   3 1123.04 339.663   1
  19   2  -3 2139.01 311.423   1
 -19   2   3 2514.26 352.466   1
  -7  -5  22 704.596 226.021   1
   7   5 -22 329.412 198.593   1
  -7  -5  22 340.189 217.871   1
  -2  -8  16 3912.92 347.714   1
   2   8 -16 4392.23 385.047   1
  -2   8  16 4007.71 355.653   1
   6   5 -22 320.501 220.484   1
  -6  -5  22 119.858 163.753   1
  -6  -5  22 545.628 202.362   1
  -5 -10  -3 4342.27 383.654   1
   5  10   3 3316.82 331.594   1
   5  10   3 4437.43 373.917   1
  -5  10  -3 4612.82 380.523   1
   5 -10   3 3697.45 392.878   1
  20   0 -10 796.423 227.349   1
 -20   0  10 758.644 250.832   1
  12   0  13 5.83599 124.215   1
  11   7 -17 3494.57 400.862   1
 -11  -7  17 5014.75 368.629   1
  14  -5   6 984.874 255.989   1
 -14   5  -6 951.674 267.953   1
  14  -5   6 657.611 218.831   1
  12  -7   5 3108.56 382.896   1
  12  -7   5 3088.14 310.641   1
 -12   7  -5 2947.97 336.467   1
   9   8   7 996.787 291.103   1
   9  -8   7 1825.45 276.774   1
   9  -8   7 1846.28 318.109   1
  -9   8  -7 1790.72 296.942   1
 -19   3  12 -59.520 142.308   1
 -19   3  12 14.4399 142.672   1
  19   3 -12 -51.448 146.760   1
  19  -3 -12 131.449 153.163   1
 -19  -3  12 29.8633 161.823   1
 -19  -3  12 58.4316 137.590   1
  14   7   0 31.7953 161.812   1
 -14  -7   0 145.266 171.719   1
  14  -7   0 -33.019 172.140   1
  14  -7   0 184.131 172.443   1
 -14   7   0 172.516 175.188   1
  -5  -4  23 1795.54 283.685   1
  -5  -4  23 1720.13 265.253   1
  -5   4  23 2028.65 247.915   1
   6 -10   1 2729.35 326.633   1
   6  10   1 2070.05 309.433   1
   6  10   1 1746.55 290.010   1
  -6  10  -1 2237.24 293.543   1
  -6 -10  -1 1966.12 311.959   1
  -6   9  13 543.329 205.172   1
   6   9 -13 120.291 231.182   1
   6   9 -13 216.071 206.344   1
  -6  -9  13 160.638 207.303   1
  15  -6 -15 8035.43 561.561   1
  15   6 -15 7966.99 522.320   1
 -15  -6  15 7900.66 496.857   1
 -15   6  15 7500.65 451.003   1
  -2   0  24 6687.71 398.675   1
 -20   0   8 1029.61 267.327   1
  20   0  -8 1842.27 251.271   1
  10  -2  15 928.458 245.383   1
  10   2  15 1182.62 254.776   1
 -10  -9   9 492.187 224.801   1
  10   9  -9 575.843 228.158   1
  10   9  -9 348.947 231.689   1
 -10   9   9 385.183 188.351   1
  10  -9  -9 677.642 257.858   1
   4   7  15 468.509 221.646   1
  -4   7 -15 256.809 194.269   1
   4  -7  15 350.604 188.366   1
  15   7  -5 31.9707 155.938   1
 -15  -7   5 -24.206 206.512   1
  15  -7  -5 143.450 180.988   1
 -15   7   5 65.7161 171.101   1
  15  -7  -5 274.769 208.134   1
  14   7 -13 534.243 238.473   1
  14   7 -13 260.977 228.196   1
 -14   7  13 767.620 193.861   1
 -14  -7  13 173.774 235.795   1
  14  -7 -13 751.754 262.430   1
 -12  -1  24 6549.62 430.300   1
 -12   1  24 5008.67 413.169   1
 -12  -1  24 6604.01 429.411   1
  12   1 -24 6199.54 473.333   1
  15  -3   7 139.393 188.183   1
 -15   3  -7 142.297 160.233   1
  15  -3   7 335.774 189.577   1
  15   3   7 247.335 188.452   1
 -14   5  19 738.425 241.803   1
  14  -5 -19 922.380 266.819   1
 -14  -5  19 1920.26 255.038   1
 -14  -5  19 1319.20 277.455   1
  14   5 -19 1107.31 285.384   1
  18   4  -3 4947.02 432.957   1
 -18  -4   3 4933.30 447.301   1
  18  -4  -3 4338.34 423.683   1
  18  -4  -3 4965.86 395.527   1
 -18   4   3 5179.40 417.113   1
  15   7  -9 265.876 185.269   1
 -15   7   9 173.003 185.121   1
  15   7  -9 433.167 247.243   1
  15  -7  -9 250.702 197.320   1
 -15  -7   9 184.376 204.986   1
   1  -5  20 178.618 169.322   1
  14   1  10 404.523 243.559   1
  14  -1  10 729.498 212.654   1
  12  -8 -12 314.695 202.507   1
 -12   8  12 19.8756 197.606   1
  12   8 -12 173.379 203.399   1
  12   8 -12 190.499 195.327   1
 -12  -8  12 142.184 194.007   1
   1   7  17 67.2511 143.770   1
  -1   7 -17 -60.464 183.535   1
   1  -7  17 51.0003 144.963   1
 -11  -2  24 1202.81 281.321   1
 -11  -2  24 984.238 247.718   1
 -11   2  24 885.397 241.057   1
  11   2 -24 1072.11 283.584   1
   0  10  -8 201.839 192.355   1
   0  10  -8 568.199 209.477   1
   0 -10   8 122.780 213.411   1
   0  10   8 120.657 187.153   1
  -7   0  25 411.172 212.312   1
  20   0 -11 23.5439 144.186   1
 -20   0  11 25.5597 155.804   1
  -8   9  12 2340.73 275.401   1
   8  -9 -12 1964.97 301.289   1
  -8   9  12 2108.77 296.944   1
  -8  -9  12 1528.92 304.546   1
   8   9 -12 2332.64 298.891   1
   8   9 -12 2322.82 348.245   1
   8   5 -22 416.718 205.899   1
  -8  -5  22 425.387 174.235   1
  -8  -5  22 84.8374 217.057   1
  -9   4  23 35.7105 169.105   1
  -9  -4  23 443.043 191.008   1
  -9  -4  23 33.4274 173.649   1
   9   4 -23 343.424 222.468   1
  -8   0  25 -17.583 131.046   1
 -13  -8   9 2210.71 296.998   1
  13   8  -9 2162.61 362.292   1
  13   8  -9 2349.03 294.781   1
  13  -8  -9 2183.35 312.201   1
 -13   8   9 2362.13 319.368   1
  16   3   5 468.993 203.526   1
  16  -3   5 278.578 205.246   1
 -16   3  -5 208.979 221.546   1
  16  -3   5 310.229 171.033   1
  -7   3  24 -121.01 155.893   1
  -7  -3  24 111.490 126.585   1
 -11   5 -11 235.640 217.948   1
  11  -5  11 128.547 223.248   1
  11  -5  11 645.411 174.632   1
 -13  -8   3 113.293 164.880   1
  13   8  -3 450.604 206.226   1
  13   8  -3 -32.691 208.988   1
  13  -8  -3 18.8657 194.580   1
  13  -8  -3 155.127 192.661   1
 -13   8   3 226.866 171.940   1
  17  -1 -20 17.7979 175.975   1
  17   1 -20 -20.654 185.769   1
 -17   1  20 -48.551 139.394   1
 -17  -1  20 40.1365 131.968   1
 -17   1  20 -57.751 125.235   1
 -17  -1  20 17.3924 150.465   1
  -5   6 -16 531.760 242.097   1
   5  -6  16 668.705 231.793   1
 -12  -4  22 3009.37 317.275   1
 -12  -4  22 2984.70 300.994   1
 -12   4  22 3041.47 312.580   1
  12   4 -22 3073.51 403.072   1
  -5  -5  22 602.167 202.809   1
   5   5 -22 -42.002 209.652   1
  15  -5   4 1473.00 233.268   1
 -15   5  -4 1177.77 297.702   1
  15  -5   4 781.229 271.014   1
 -12   8  -1 108.091 199.916   1
  12  -8   1 412.842 216.093   1
  12  -8   1 168.094 193.718   1
   9  -9 -11 461.093 213.107   1
   9   9 -11 214.830 242.597   1
  -9   9  11 477.013 200.600   1
  -9  -9  11 15.6942 217.241   1
  -2  -6  20 415.926 213.418   1
   2   6 -20 282.917 228.520   1
  10   9   0 8289.80 552.775   1
  10   9   0 8073.25 496.651   1
 -10  -9   0 8362.42 524.478   1
  10  -9   0 8208.92 536.631   1
 -10   9   0 7771.18 488.592   1
 -13   7  15 451.548 195.407   1
  13  -7 -15 307.879 217.296   1
  13   7 -15 128.410 221.268   1
 -13  -7  15 139.395 202.333   1
  18  -2   1 2316.75 309.893   1
  18   2   1 1953.37 290.376   1
 -18   2  -1 1821.42 329.278   1
 -18  -2  -1 1904.03 306.517   1
  18   2   1 1925.55 262.670   1
  18  -2   1 2473.55 283.180   1
 -12  -3  23 1952.12 266.258   1
 -12  -3  23 1966.16 272.356   1
 -12   3  23 1914.01 268.434   1
  12   3 -23 2092.82 288.016   1
  13  -7   3 318.241 204.287   1
 -13   7  -3 350.495 218.459   1
  13  -7   3 431.762 262.275   1
  17   5  -2 192.530 226.387   1
 -17  -5   2 877.816 222.099   1
  17  -5  -2 461.607 226.207   1
  17  -5  -2 356.771 208.558   1
 -17   5   2 197.162 218.874   1
   9  -6  12 383.002 218.114   1
   9  -6  12 700.754 249.207   1
  -9   6 -12 1231.79 219.451   1
  -8   3  24 275.396 174.392   1
  -8  -3  24 79.8775 191.991   1
  -8  -3  24 319.310 202.857   1
 -14  -1  23 2689.14 284.836   1
 -14  -1  23 3095.32 318.654   1
 -14   1  23 3172.06 332.251   1
 -14   1  23 2723.73 317.230   1
  14  -1 -23 2900.60 340.311   1
  14   1 -23 2844.58 318.012   1
   7  10  -3 691.363 254.791   1
   7 -10  -3 227.986 294.591   1
  -7 -10   3 376.066 224.410   1
  -7  10   3 865.749 223.227   1
   7  10  -3 378.641 241.019   1
 -18   0  -2 488.450 217.251   1
  18   0   2 42.3218 186.093   1
  18   0   2 711.470 217.659   1
  19  -1 -16 1060.05 300.425   1
  19   1 -16 2458.32 306.866   1
 -19  -1  16 2075.09 284.595   1
 -19   1  16 1467.67 316.701   1
 -19  -1  16 2107.75 294.674   1
  -5 -10   8 -30.571 160.456   1
  -5  10   8 -17.141 143.480   1
  -5  10   8 88.5569 157.347   1
   5  10  -8 344.446 196.058   1
   5  10  -8 -100.93 144.802   1
   5 -10  -8 -16.019 162.120   1
  11  -7   7 3421.81 406.844   1
 -11   7  -7 3423.47 355.195   1
 -19  -3   5 619.330 290.571   1
 -19   3   5 1082.24 267.878   1
  19   3  -5 1692.69 234.476   1
  19  -3  -5 763.760 239.364   1
  19  -3  -5 846.572 275.333   1
 -13  -5  20 102.818 178.599   1
 -13  -5  20 59.0547 160.652   1
  13   5 -20 39.6783 187.401   1
 -20  -1   9 172.277 253.679   1
  20  -1  -9 326.785 192.313   1
  20   1  -9 334.823 193.446   1
 -20   1   9 155.512 201.445   1
  -1   4  22 808.942 216.217   1
   6  10  -7 -11.661 206.371   1
   6  10  -7 120.973 173.762   1
  -6 -10   7 81.6127 194.569   1
  -6  10   7 72.3808 177.848   1
   6 -10  -7 201.207 181.932   1
  -6  10   7 657.374 203.101   1
   8   8 -16 144.377 197.402   1
  -8  -8  16 87.5007 183.453   1
   6   2  19 1242.93 275.114   1
   7  10  -4 619.303 245.493   1
   7  10  -4 388.902 243.611   1
  -7  10   4 732.209 223.098   1
  -7  10   4 561.645 214.834   1
  -7 -10   4 383.385 224.877   1
   7 -10  -4 239.897 235.762   1
  20   0  -7 20.6417 151.883   1
 -20   0   7 90.9423 162.215   1
  13  -6 -18 1702.33 272.414   1
 -13   6  18 769.902 261.619   1
  13   6 -18 1058.38 301.801   1
 -13  -6  18 2290.47 272.288   1
   1   9  12 263.147 165.099   1
  -1   9 -12 126.041 190.854   1
   1  -9  12 -39.475 182.582   1
  13  -5   8 276.500 228.880   1
  13  -5   8 377.776 234.183   1
 -13   5  -8 566.670 195.695   1
  -6   3  24 672.966 277.814   1
  -6  -3  24 2105.50 237.400   1
 -10  -6  20 3217.85 313.863   1
  10   6 -20 3314.19 369.097   1
  16  -2   6 190.341 169.580   1
 -16   2  -6 206.128 186.402   1
  16   2   6 -26.023 184.529   1
  16  -2   6 90.6995 173.930   1
 -20  -1  10 90.5074 185.380   1
 -20   1  10 59.5271 176.493   1
  20  -1 -10 125.518 170.461   1
  20   1 -10 102.723 175.041   1
  -1  -7  18 40.1840 148.864   1
   1   7 -18 70.1625 162.116   1
  -3  10  -6 26.2986 168.803   1
   3 -10   6 116.833 181.601   1
   3  10   6 72.7582 167.814   1
 -19   2  15 1834.28 260.771   1
  19  -2 -15 1842.53 301.375   1
 -19  -2  15 1737.43 282.403   1
 -19  -2  15 1228.98 278.194   1
  19   2 -15 2158.28 293.944   1
 -19   2  15 1599.78 260.257   1
  12   1  13 4442.91 389.767   1
  12  -1  13 3689.73 335.401   1
 -13   6  -6 1747.88 262.341   1
  13  -6   6 1099.93 280.634   1
  13  -6   6 1128.00 249.583   1
   9  -7  10 1003.49 289.937   1
   9  -7  10 768.022 274.597   1
  -9   7 -10 609.022 244.663   1
  -1  -5  21 3192.16 311.501   1
   1   5 -21 3097.05 333.889   1
  17  -4   1 3129.90 346.009   1
  17  -4   1 2221.93 283.903   1
 -17   4  -1 2513.52 378.883   1
  17   4   1 3015.88 306.438   1
  -6   8 -11 168.639 178.402   1
   6   8  11 -30.796 213.379   1
   6  -8  11 -43.093 207.893   1
   6  -8  11 278.467 209.638   1
  -6   0  25 79.2527 140.443   1
  -7 -10   2 4924.75 428.885   1
  -7  10   2 4296.27 381.849   1
   7 -10  -2 3950.25 391.944   1
   7  10  -2 4943.48 403.713   1
   7  10  -2 4655.16 422.151   1
   5   8  12 258.807 241.084   1
   5  -8  12 1315.78 285.573   1
   5  -8  12 1407.42 306.138   1
  -5   8 -12 1551.02 263.213   1
 -15  -3  21 710.785 213.125   1
  15  -3 -21 921.594 264.965   1
 -15  -3  21 772.722 254.189   1
 -15   3  21 782.701 240.896   1
 -15   3  21 1014.00 250.254   1
  15   3 -21 627.325 307.237   1
  -3   2  24 117.429 175.957   1
  -3  -2  24 265.546 169.845   1
  -2  -1  24 501.295 180.775   1
  -2   1  24 564.147 181.811   1
 -20  -1   8 153.239 205.096   1
 -20   1   8 209.006 208.149   1
  20  -1  -8 368.584 199.870   1
  20   1  -8 320.434 196.231   1
  18  -4 -14 1067.82 252.236   1
  18   4 -14 1824.56 264.445   1
 -18   4  14 1010.67 232.151   1
 -18   4  14 794.693 242.753   1
 -18  -4  14 1116.50 329.003   1
 -18  -4  14 1951.82 279.979   1
  12  -4  11 1935.55 308.197   1
  12  -4  11 2120.45 287.732   1
 -12   4 -11 1992.87 296.299   1
  -9   0  25 4944.55 363.388   1
 -15  -5  18 6575.40 444.449   1
 -15  -5  18 6933.77 502.808   1
 -15   5  18 6442.41 400.855   1
  15   5 -18 6495.16 491.125   1
  15  -5 -18 6508.66 485.505   1
 -15  -7   4 673.639 238.426   1
  15   7  -4 671.074 232.649   1
  15  -7  -4 126.563 214.214   1
  15  -7  -4 401.372 210.772   1
 -15   7   4 170.273 206.966   1
  -2  10  -7 512.426 232.871   1
  -2  10  -7 857.869 243.694   1
   2 -10   7 383.582 242.334   1
   2  10   7 700.397 278.294   1
  -1   9  13 654.411 251.688   1
  -1  -9  13 452.535 225.390   1
   1   9 -13 641.679 236.322   1
  16  -6  -2 196.037 194.601   1
  16   6  -2 391.567 196.622   1
 -16   6   2 132.610 196.226   1
  16  -6  -2 507.870 200.777   1
 -16  -6   2 109.879 197.567   1
   4  10   5 176.072 215.049   1
   4 -10   5 447.324 231.495   1
  -4  10  -5 403.451 207.915   1
  14  -6   4 2503.61 343.991   1
  14  -6   4 2958.79 308.489   1
 -14   6  -4 3675.30 348.822   1
  15  -2   8 47.7590 167.086   1
  15   2   8 313.338 159.535   1
  15  -2   8 22.9269 181.518   1
  12   3  12 220.199 183.871   1
  12  -3  12 218.793 200.298   1
   7  10  -5 51.1573 176.055   1
   7  10  -5 37.8224 172.410   1
   7 -10  -5 20.6245 168.034   1
  -7 -10   5 -8.2967 168.258   1
  -7  10   5 197.643 182.042   1
  -7  10   5 -19.236 154.679   1
 -15   7  10 1573.73 231.648   1
  15  -7 -10 537.029 250.305   1
  15   7 -10 1096.84 293.527   1
  15   7 -10 771.816 234.094   1
 -15  -7  10 638.359 302.418   1
  20   0 -12 3077.76 320.460   1
  17  -5 -14 245.874 170.993   1
  17   5 -14 -13.249 162.177   1
 -17  -5  14 64.1847 166.938   1
 -17   5  14 -10.152 149.776   1
  -7   1  25 1585.66 223.827   1
  -7  -1  25 882.551 218.070   1
 -20   1  11 8990.54 528.849   1
 -20  -1  11 9009.50 561.287   1
  20   1 -11 8859.45 526.832   1
  20  -1 -11 9976.92 560.101   1
  -8   1  25 972.200 260.038   1
  -8  -1  25 921.000 214.600   1
   6   7 -19 16.0300 187.151   1
  -6  -7  19 170.277 165.224   1
   1   8  15 3579.19 346.081   1
  -1   8 -15 2923.12 340.924   1
   1  -8  15 2971.77 314.203   1
 -19   0   1 3105.98 325.470   1
  19   0  -1 3535.24 327.069   1
  19   0  -1 3893.94 367.471   1
 -19  -3  13 2356.01 320.885   1
  19  -3 -13 2839.26 338.543   1
 -19   3  13 2472.27 311.014   1
  19   3 -13 2654.57 307.931   1
 -19   3  13 2727.65 308.170   1
 -19  -3  13 2084.08 350.712   1
   9   9   3 2386.15 324.269   1
  -9   9  -3 2570.56 337.345   1
   9  -9   3 2454.14 324.923   1
  14  -6 -17 710.425 212.407   1
 -14   6  17 367.710 203.109   1
 -14  -6  17 60.8351 198.851   1
  14   6 -17 131.021 223.888   1
  -4  -4  23 198.069 174.312   1
  -4   4  23 95.7345 152.711   1
   5   7 -19 843.716 291.015   1
  -5  -7  19 890.370 229.309   1
 -14   3  -9 580.945 229.894   1
  14  -3   9 727.188 221.533   1
  14  -3   9 750.958 236.090   1
  14   3   9 709.724 228.643   1
   7  -8  10 2310.06 297.527   1
   7   8  10 3177.05 326.330   1
  -7   8 -10 2281.83 326.969   1
   7  -8  10 2781.12 368.746   1
  16   3 -20 707.023 273.791   1
  16  -3 -20 999.289 280.560   1
 -16  -3  20 1628.01 236.299   1
 -16  -3  20 1156.22 283.126   1
 -16   3  20 994.756 251.277   1
 -16   3  20 885.722 218.328   1
  15   4   6 166.726 191.044   1
  15  -4   6 411.384 221.099   1
  15  -4   6 420.196 221.510   1
 -15   4  -6 502.597 239.582   1
   9   3 -24 2718.00 341.720   1
  -9   3  24 2192.31 275.242   1
  -9  -3  24 2467.34 321.703   1
  -9  -3  24 2945.46 297.991   1
  -3  10   9 325.894 217.616   1
   3  10  -9 378.703 232.246   1
   3  10  -9 702.624 248.026   1
  -3 -10   9 653.549 250.605   1
 -12  -6  19 87.4417 165.702   1
  12   6 -19 39.0498 196.292   1
  11  -2  14 1697.86 245.031   1
  11   2  14 1145.52 263.017   1
  18  -1   2 556.428 218.486   1
  18  -1   2 1141.28 237.265   1
  18   1   2 205.740 215.228   1
  18   1   2 366.614 205.892   1
 -18   1  -2 941.876 245.433   1
 -18  -1  -2 331.974 230.783   1
   2  10  -9 421.392 203.693   1
   2  10  -9 139.301 187.473   1
  -2  10   9 -67.598 220.546   1
  -2 -10   9 129.248 206.733   1
  -9  -5  22 92.9162 207.391   1
  -9  -5  22 253.785 205.486   1
   9   5 -22 173.500 198.172   1
  16   6 -13 80.9815 170.512   1
  16  -6 -13 -5.5493 180.503   1
 -16   6  13 47.6213 157.513   1
 -16  -6  13 153.859 183.329   1
  -7 -10   1 1953.53 332.370   1
  -7  10   1 1894.77 296.836   1
   7  10  -1 1851.25 258.474   1
   7 -10  -1 2136.20 312.226   1
   7  10  -1 2047.51 313.225   1
 -11   8  14 63.7984 159.663   1
  11  -8 -14 -59.721 169.437   1
 -11  -8  14 -21.376 169.507   1
  11   8 -14 -211.00 174.383   1
 -10   8  15 301.283 195.039   1
  10   8 -15 930.545 241.779   1
 -10  -8  15 512.587 223.357   1
 -10  -7  18 601.515 235.290   1
  10   7 -18 1182.85 278.609   1
  -7   9  13 4497.41 339.005   1
  -7  -9  13 4321.90 400.294   1
   7   9 -13 4440.96 400.436   1
   7   9 -13 4739.71 428.223   1
   4   8  13 81.9899 182.724   1
   4  -8  13 179.822 225.137   1
  -4   8 -13 467.032 201.362   1
   6  10   2 423.599 214.046   1
  -6 -10  -2 76.2638 218.451   1
   6 -10   2 217.101 223.430   1
   6  10   2 403.712 194.429   1
  -6  10  -2 109.018 206.334   1
  20   1  -7 374.911 193.438   1
  20  -1  -7 207.777 203.065   1
 -20   1   7 235.348 206.566   1
  -5   9  -9 72.0437 152.410   1
   5   9   9 -33.154 141.626   1
   5  -9   9 44.5961 146.747   1
   5  -9   9 -38.593 143.611   1
  -8   9  -5 242.886 192.888   1
   8  -9   5 63.1501 187.932   1
   8  -9   5 18.0856 181.573   1
   8   9   5 183.985 187.239   1
   4   5 -22 1432.42 279.414   1
  -4  -5  22 1836.59 272.615   1
  18  -3   0 375.042 214.728   1
  18  -3   0 94.1610 239.684   1
  18   3   0 901.042 214.564   1
 -18   3   0 129.574 215.765   1
 -18  -3   0 308.746 218.578   1
   3  -5  19 134.625 170.591   1
  13  -8 -10 499.503 214.923   1
 -13   8  10 365.137 195.673   1
 -13  -8  10 233.435 211.903   1
  13   8 -10 589.646 258.996   1
  -4   9 -10 -80.508 140.445   1
   4  -9  10 -19.639 139.113   1
   4  -9  10 27.1977 130.287   1
   4   9  10 100.470 156.543   1
  -5   3  24 635.774 253.283   1
  -5  -3  24 1385.35 257.412   1
 -13  -8   2 1335.83 256.300   1
  13   8  -2 1213.45 303.588   1
  13   8  -2 1324.49 273.638   1
 -13   8   2 867.825 241.953   1
  13  -8  -2 1006.35 264.725   1
  13  -8  -2 786.961 257.978   1
 -14  -3  22 68.8911 164.963   1
  14   3 -22 -63.909 191.053   1
 -14  -3  22 5.63187 183.507   1
 -14   3  22 109.791 165.183   1
 -14   3  22 398.295 181.934   1
  -1   8  16 1814.85 264.535   1
  -1  -8  16 1035.51 252.124   1
   1   8 -16 663.875 272.189   1
  20   0  -6 873.623 204.806   1
 -20   0   6 333.525 224.866   1
   7   7 -19 2403.87 326.958   1
  -7  -7  19 2332.24 285.739   1
  -6  -1  25 1763.65 280.657   1
  -6   1  25 1873.38 239.233   1
  11   9  -5 3283.33 386.546   1
  11   9  -5 3569.36 417.246   1
 -11  -9   5 3054.78 319.893   1
  11  -9  -5 2395.08 317.895   1
 -11   9   5 2135.50 295.788   1
  17  -2   4 597.669 206.823   1
  17  -2   4 133.698 186.908   1
  17   2   4 121.778 178.225   1
 -17   2  -4 301.077 217.854   1
   3   7  16 1304.77 262.804   1
  -3   7 -16 973.533 239.672   1
   3  -7  16 938.742 261.066   1
  17   4 -17 440.787 249.941   1
 -17  -4  17 520.407 219.874   1
  17  -4 -17 171.097 227.432   1
 -17   4  17 546.012 224.047   1
 -17   4  17 572.970 243.361   1
 -17  -4  17 563.970 249.953   1
 -18   2  18 404.939 209.763   1
 -18  -2  18 63.6530 211.910   1
 -18  -2  18 165.450 189.563   1
 -18   2  18 29.5447 193.009   1
  18   2 -18 366.862 212.846   1
  18  -2 -18 190.655 200.320   1
 -16  -2  21 936.535 271.925   1
 -16  -2  21 629.798 269.601   1
 -16   2  21 1431.71 224.775   1
 -16   2  21 920.910 261.845   1
  16   2 -21 657.798 264.101   1
  16  -2 -21 1111.37 283.789   1
  12  -6   8 -20.598 182.601   1
  12  -6   8 159.324 172.254   1
 -12   6  -8 1.00982 157.693   1
   4  10  -9 2695.94 339.159   1
  -4 -10   9 2661.94 343.507   1
   4  10  -9 2724.98 320.330   1
  -4  10   9 2416.68 304.900   1
  -4  10   9 2888.95 295.136   1
  -9  -1  25 199.881 191.050   1
  -9   1  25 741.384 198.838   1
   4   6  17 279.214 228.833   1
   4  -6  17 794.884 232.896   1
  -4   6 -17 831.942 241.890   1
 -15  -2  22 291.273 230.144   1
 -15   2  22 1156.48 228.869   1
 -15   2  22 1032.24 238.424   1
  15  -2 -22 636.725 231.027   1
 -15  -2  22 215.689 211.870   1
  15   2 -22 354.281 233.029   1
 -10  -9  10 208.957 232.466   1
  10   9 -10 100.546 237.912   1
  10   9 -10 762.725 258.947   1
  10  -9 -10 1001.79 243.890   1
 -10   9  10 162.605 186.010   1
 -10   4  23 283.556 199.564   1
 -10  -4  23 951.012 228.994   1
  10   4 -23 483.296 267.342   1
 -10  -4  23 354.148 203.393   1
  11   9  -6 127.856 190.113   1
 -11  -9   6 508.864 223.918   1
  11   9  -6 14.1128 236.449   1
 -11   9   6 130.215 168.532   1
  11  -9  -6 8.51423 191.346   1
  -1  10  -8 7557.96 505.387   1
  -1  10  -8 8001.41 521.412   1
   1 -10   8 8494.28 545.108   1
   1  10   8 8156.20 495.412   1
  17   3   3 800.991 221.999   1
 -17   3  -3 202.053 246.676   1
  17  -3   3 242.211 190.100   1
  17  -3   3 305.272 215.515   1
 -14   4  -8 127.339 210.407   1
  14  -4   8 405.504 196.283   1
  14  -4   8 138.899 200.227   1
  11   9  -4 346.286 217.143   1
  11   9  -4 344.525 245.878   1
 -11  -9   4 382.326 196.867   1
  11  -9  -4 176.785 212.191   1
 -11   9   4 198.259 200.006   1
  -5   0  25 10979.2 593.360   1
   4   7 -19 61.6745 176.045   1
  -4  -7  19 150.467 199.651   1
   5 -10   4 -10.111 161.369   1
  -5  10  -4 61.5092 153.539   1
   5  10   4 2.46316 153.099   1
   7  10  -6 402.480 231.304   1
   7  10  -6 144.567 199.952   1
  -7  10   6 910.530 205.523   1
  -7  10   6 641.611 239.594   1
  -7 -10   6 308.678 224.239   1
   7 -10  -6 78.2291 217.453   1
  15  -4 -20 4097.77 376.684   1
 -15  -4  20 4320.44 421.863   1
 -15   4  20 4086.64 372.602   1
 -15   4  20 4115.48 396.103   1
  15   4 -20 4302.22 403.709   1
 -15  -4  20 4212.93 373.578   1
 -18   0  19 52.7870 165.660   1
 -18   0  19 59.2361 145.421   1
  18   0 -19 -24.330 163.905   1
 -20  -1  12 2545.95 325.980   1
 -20   1  12 2400.71 304.873   1
  20  -1 -12 2478.86 321.421   1
  20   1 -12 2257.71 298.373   1
  11  -8   4 558.534 222.422   1
 -11   8  -4 -37.124 212.382   1
  19  -2  -2 105.449 178.504   1
 -19   2   2 30.9813 188.846   1
 -19  -2   2 420.296 227.285   1
  19   2  -2 619.887 213.567   1
  19  -2  -2 58.8848 198.228   1
  16  -4   4 265.776 196.479   1
  16  -4   4 478.844 229.414   1
  16   4   4 452.161 212.734   1
 -16   4  -4 832.728 255.176   1
  10  -6  11 70.6328 199.207   1
 -10   6 -11 356.086 223.758   1
  -6   9  -8 313.271 204.734   1
   6   9   8 88.0615 192.056   1
   6  -9   8 208.516 197.444   1
   6  -9   8 90.1733 193.255   1
  -1  10   9 337.625 201.591   1
   1  10  -9 431.355 268.164   1
  -1 -10   9 440.593 229.144   1
   1  10  -9 259.486 212.585   1
 -19  -1   1 2242.89 326.720   1
  19   1  -1 2324.44 267.527   1
  19   1  -1 2880.58 348.107   1
  19  -1  -1 2251.53 273.316   1
  19  -1  -1 2368.58 296.502   1
 -19   1   1 2132.21 347.559   1
 -10   0  25 281.216 191.663   1
 -19  -3   4 -80.126 151.049   1
 -19   3   4 299.960 170.095   1
  19   3  -4 5.18393 141.998   1
  19  -3  -4 -102.66 152.012   1
  19  -3  -4 99.6986 170.313   1
   8  -4  16 2966.72 353.351   1
  14  -4 -21 388.266 216.450   1
  14   4 -21 410.568 243.325   1
 -14   4  21 357.624 225.148   1
 -14  -4  21 476.144 196.868   1
 -14  -4  21 397.153 235.154   1
 -14   4  21 187.773 196.827   1
  15   7  -3 1613.86 295.677   1
 -15  -7   3 1919.81 315.678   1
 -15   7   3 1357.80 283.666   1
  15  -7  -3 1944.83 327.476   1
  15  -7  -3 2321.15 306.718   1
  16  -5   2 295.323 205.216   1
  16  -5   2 46.7814 170.140   1
 -16   5  -2 150.128 186.958   1
   3   9  11 3074.83 336.875   1
   3  -9  11 3512.93 358.399   1
   3  -9  11 3738.75 344.018   1
  -3   9 -11 3768.82 383.064   1
 -13   0  24 -44.524 167.160   1
 -13   0  24 -38.022 164.411   1
  13   0 -24 -157.38 200.687   1
 -18   4   2 539.598 244.843   1
 -18  -4   2 776.049 265.951   1
  18   4  -2 851.281 242.201   1
  18  -4  -2 700.763 230.222   1
  18  -4  -2 723.964 257.965   1
  16   0   7 -38.408 151.992   1
 -20   0  13 -86.809 195.932   1
  20   0 -13 -92.337 195.188   1
  10   9   1 5573.57 467.456   1
  10   9   1 5029.81 402.773   1
  10  -9   1 6010.62 450.148   1
 -10   9  -1 5704.04 421.162   1
   6  10  -8 142.741 189.776   1
  -6 -10   8 123.132 214.512   1
  -6  10   8 0.33506 180.855   1
   6  10  -8 139.072 215.989   1
  -6  10   8 585.107 199.206   1
 -12  -5  21 71.4706 184.023   1
 -12  -5  21 298.803 177.407   1
  12   5 -21 227.051 214.363   1
  11   9  -7 637.640 247.583   1
 -11  -9   7 583.508 238.782   1
  11   9  -7 1017.65 250.420   1
 -11   9   7 585.792 214.154   1
  11  -9  -7 703.840 250.519   1
 -10   8  -6 -94.191 188.077   1
  10  -8   6 346.388 181.698   1
  10  -8   6 93.5017 185.229   1
  15   7 -11 1080.03 244.394   1
 -15  -7  11 929.833 267.403   1
 -15   7  11 717.718 219.044   1
  15   7 -11 854.974 246.554   1
  15  -7 -11 650.126 257.872   1
  -8   8  -9 -62.707 274.070   1
   8   8   9 444.078 220.325   1
   8  -8   9 113.601 210.257   1
   8  -8   9 762.684 204.090   1
  -1   6 -19 3935.45 381.211   1
   1  -6  19 3674.76 365.710   1
   7  -4  17 326.859 220.172   1
   7  10   0 8226.26 532.296   1
   7  10   0 7792.17 497.538   1
  -7  10   0 7963.37 520.675   1
  -7 -10   0 7546.70 509.757   1
   7 -10   0 7882.81 543.686   1
  14  -7   1 358.342 213.627   1
  14  -7   1 146.089 220.045   1
 -14   7  -1 785.607 224.848   1
  11  -9  -3 6065.06 450.893   1
  11   9  -3 6266.69 492.735   1
  11   9  -3 5580.40 466.180   1
 -11   9   3 6016.24 428.389   1
 -11  -9   3 5560.22 466.768   1
   6   6 -21 1137.55 328.120   1
  -6  -6  21 1776.14 249.991   1
 -20   1   6 2616.24 315.539   1
  20  -1  -6 2520.93 307.532   1
  20   1  -6 2138.26 295.052   1
 -19   0  17 15997.1 879.247   1
  19   0 -17 16675.3 829.366   1
 -19   0  17 15757.0 783.358   1
  -1   3  23 191.679 159.434   1
  14  -7 -14 2194.72 285.181   1
 -14   7  14 2335.35 309.919   1
  14   7 -14 1891.13 303.324   1
 -14  -7  14 2260.22 304.395   1
   7   6 -21 323.175 223.672   1
  -7  -6  21 643.290 250.232   1
 -10   3  24 3314.97 317.679   1
 -10  -3  24 3192.71 312.527   1
  10   3 -24 3225.94 394.362   1
 -10  -3  24 3279.59 330.597   1
 -18   3  17 1122.13 241.103   1
 -18   3  17 1043.73 276.304   1
 -18  -3  17 627.579 335.295   1
 -18  -3  17 864.912 240.930   1
  18   3 -17 1001.49 267.114   1
  18  -3 -17 1268.13 263.172   1
 -12   2  24 114.839 189.777   1
  12   2 -24 573.369 217.946   1
 -12  -2  24 528.547 209.453   1
 -12  -2  24 -85.095 187.171   1
 -12   8  13 301.108 193.060   1
  12  -8 -13 381.578 199.331   1
 -12  -8  13 54.4304 180.048   1
  12   8 -13 -66.044 198.839   1
  12   8 -13 -33.696 191.202   1
  -8  -7  19 1771.95 276.657   1
  -9  -8  16 114.527 180.899   1
  18   1 -19 237.752 192.393   1
  18  -1 -19 92.6698 189.761   1
 -18   1  19 106.435 185.204   1
 -18  -1  19 -31.962 200.962   1
 -18  -1  19 85.8666 174.247   1
  -5  -8  17 2412.73 299.680   1
   5   8 -17 2481.18 320.154   1
  -5 -10   9 143.707 221.159   1
   5  10  -9 135.699 199.062   1
  -5  10   9 292.544 194.607   1
   5  10  -9 375.253 224.891   1
  -5  10   9 247.824 202.314   1
;
_shelx_hkl_checksum              49572
loop_
_space_group_symop_operation_xyz
'x, y, z'
'-x+1/2, y+1/2, -z+1/2'
'-x, -y, -z'
'x-1/2, -y-1/2, z-1/2'
loop_
_atom_site_label
_atom_site_type_symbol
_atom_site_fract_x
_atom_site_fract_y
_atom_site_fract_z
_atom_site_U_iso_or_equiv
_atom_site_adp_type
_atom_site_occupancy
_atom_site_site_symmetry_order
_atom_site_calc_flag
_atom_site_refinement_flags_posn
_atom_site_refinement_flags_adp
_atom_site_refinement_flags_occupancy
_atom_site_disorder_assembly
_atom_site_disorder_group
C1 C 0.25237(12) 0.6169(2) 0.49782(10) 0.0225(3) Uani 0.9 1 d D . P A 1
H1 H 0.3031 0.6891 0.4968 0.027 Uiso 0.9 1 calc R U P A 1
C2 C 0.17246(19) 0.1416(3) 0.38358(11) 0.0211(4) Uani 0.9 1 d D . P A 1
H2 H 0.1243 0.0595 0.3803 0.025 Uiso 0.9 1 calc R U P A 1
C3 C 0.12833(14) 0.3089(2) 0.36411(10) 0.0193(4) Uani 0.9 1 d D . P A 1
H3 H 0.0855 0.3234 0.3116 0.023 Uiso 0.9 1 calc R U P A 1
C4 C 0.22804(15) 0.1838(2) 0.46471(11) 0.0218(4) Uani 0.9 1 d D . P A 1
H4 H 0.2674 0.0953 0.4952 0.026 Uiso 0.9 1 calc R U P A 1
C5 C 0.08539(12) 0.3373(2) 0.42252(10) 0.0192(4) Uani 0.9 1 d D . P A 1
H5 H 0.0207 0.2967 0.4072 0.023 Uiso 0.9 1 calc R U P A 1
C6 C 0.21030(11) 0.4274(2) 0.39162(9) 0.0207(4) Uani 0.9 1 d D . P A 1
H6 H 0.2372 0.4528 0.3537 0.025 Uiso 0.9 1 calc R U P A 1
C7 C 0.27951(12) 0.3409(2) 0.46183(10) 0.0217(4) Uani 0.9 1 d D . P A 1
H7 H 0.3416 0.3223 0.4596 0.026 Uiso 0.9 1 calc R U P A 1
C8 C 0.15460(13) 0.2509(2) 0.49259(10) 0.0202(4) Uani 0.9 1 d D . P A 1
H8 H 0.1250 0.1661 0.5127 0.024 Uiso 0.9 1 calc R U P A 1
C9 C 0.09525(11) 0.5166(2) 0.44247(9) 0.0192(3) Uani 0.9 1 d D . P A 1
H9 H 0.0372 0.5792 0.4176 0.023 Uiso 0.9 1 calc R U P A 1
C10 C 0.17829(12) 0.5769(2) 0.42202(10) 0.0216(3) Uani 0.9 1 d D . P A 1
H10 H 0.1621 0.6699 0.3870 0.026 Uiso 0.9 1 calc R U P A 1
C11 C 0.28238(10) 0.4456(2) 0.52756(9) 0.0206(3) Uani 0.9 1 d D . P A 1
H11 H 0.3431 0.4423 0.5700 0.025 Uiso 0.9 1 calc R U P A 1
C12 C 0.19963(10) 0.3861(2) 0.54817(9) 0.0179(3) Uani 0.9 1 d D . P A 1
H12 H 0.2183 0.3522 0.6010 0.021 Uiso 0.9 1 calc R U P A 1
C13 C 0.13324(11) 0.5312(2) 0.52733(9) 0.0177(3) Uani 0.9 1 d D . P A 1
H13 H 0.0858 0.5329 0.5504 0.021 Uiso 0.9 1 calc R U P A 1
C14 C 0.19645(11) 0.6798(2) 0.54261(9) 0.0212(3) Uani 0.9 1 d D . P A 1
H14 H 0.1599 0.7765 0.5178 0.025 Uiso 0.9 1 calc R U P A 1
C15 C 0.25265(11) 0.7171(2) 0.62376(10) 0.0230(4) Uani 0.9 1 d . . P A 1
H15A H 0.2857 0.6186 0.6482 0.028 Uiso 0.9 1 calc R U P A 1
H15B H 0.2995 0.7997 0.6265 0.028 Uiso 0.9 1 calc R U P A 1
C16 C 0.19421(11) 0.7768(2) 0.66528(9) 0.0190(3) Uani 0.9 1 d D . P A 1
C17 C 0.17448(11) 0.6778(2) 0.71493(10) 0.0201(4) Uani 0.9 1 d D . P A 1
H17 H 0.1981 0.5713 0.7230 0.024 Uiso 0.9 1 calc R U P A 1
C18 C 0.12023(17) 0.7330(3) 0.75324(13) 0.0205(4) Uani 0.9 1 d D . P A 1
C19 C 0.08523(15) 0.8886(2) 0.74062(11) 0.0200(4) Uani 0.9 1 d D . P A 1
H19 H 0.0482 0.9265 0.7664 0.024 Uiso 0.9 1 calc R U P A 1
C20 C 0.10356(12) 0.9900(2) 0.69072(11) 0.0219(4) Uani 0.9 1 d D . P A 1
C21 C 0.15837(12) 0.9320(2) 0.65374(10) 0.0221(4) Uani 0.9 1 d D . P A 1
H21 H 0.1716 1.0002 0.6198 0.026 Uiso 0.9 1 calc R U P A 1
C22 C 0.06644(15) 1.1591(2) 0.67796(13) 0.0338(5) Uani 0.9 1 d D . P A 1
H22A H 0.0165 1.1697 0.6966 0.051 Uiso 0.9 1 calc R U P A 1
H22B H 0.0427 1.1828 0.6249 0.051 Uiso 0.9 1 calc R U P A 1
H22C H 0.1160 1.2349 0.7040 0.051 Uiso 0.9 1 calc R U P A 1
C23 C 0.1003(2) 0.6244(4) 0.8075(2) 0.0316(6) Uani 0.9 1 d D . P A 1
H23A H 0.1542 0.6214 0.8539 0.047 Uiso 0.9 1 calc R U P A 1
H23B H 0.0870 0.5156 0.7869 0.047 Uiso 0.9 1 calc R U P A 1
H23C H 0.0469 0.6657 0.8168 0.047 Uiso 0.9 1 calc R U P A 1
C24 C 0.22810(11) 0.0888(2) 0.33678(9) 0.0277(4) Uani 1 1 d . . . . .
H24A H 0.2725 0.1746 0.3378 0.033 Uiso 1 1 calc R U . A 1
H24B H 0.2638 -0.0091 0.3588 0.033 Uiso 1 1 calc R U . A 1
C25 C 0.16682(10) 0.05465(19) 0.25768(9) 0.0235(3) Uani 1 1 d . . . . .
C26 C 0.12939(10) -0.09844(19) 0.23694(9) 0.0243(3) Uani 1 1 d . . . . .
H26 H 0.1470 -0.1829 0.2723 0.029 Uiso 1 1 calc R U . . .
C27 C 0.06708(10) -0.13049(19) 0.16596(9) 0.0236(3) Uani 1 1 d . . . . .
C28 C 0.04253(10) -0.00563(18) 0.11457(9) 0.0218(3) Uani 1 1 d . . . . .
H28 H -0.0003 -0.0259 0.0659 0.026 Uiso 1 1 calc R U . . .
C29 C 0.07934(10) 0.14826(18) 0.13290(8) 0.0214(3) Uani 1 1 d . . . . .
C30 C 0.14176(10) 0.17618(19) 0.20468(9) 0.0227(3) Uani 1 1 d . . . . .
H30 H 0.1677 0.2803 0.2177 0.027 Uiso 1 1 calc R U . . .
C31 C 0.05117(11) 0.28070(19) 0.07615(9) 0.0274(3) Uani 1 1 d . . . . .
H31A H 0.0932 0.3722 0.0940 0.041 Uiso 1 1 calc R U . . .
H31B H -0.0119 0.3149 0.0679 0.041 Uiso 1 1 calc R U . . .
H31C H 0.0539 0.2412 0.0296 0.041 Uiso 1 1 calc R U . . .
C32 C 0.02634(12) -0.2957(2) 0.14475(11) 0.0330(4) Uani 1 1 d . . . . .
H32A H -0.0405 -0.2909 0.1321 0.049 Uiso 1 1 calc R U . . .
H32B H 0.0540 -0.3695 0.1864 0.049 Uiso 1 1 calc R U . . .
H32C H 0.0390 -0.3343 0.1020 0.049 Uiso 1 1 calc R U . . .
C1A C 0.2830(7) 0.5600(14) 0.5333(6) 0.021 Uiso 0.1 1 d D U P A 2
H1A H 0.3385 0.6263 0.5385 0.025 Uiso 0.1 1 calc R U P A 2
C2A C 0.1680(17) 0.157(2) 0.3738(10) 0.021 Uiso 0.1 1 d D U P A 2
H2A H 0.1136 0.0849 0.3643 0.025 Uiso 0.1 1 calc R U P A 2
C3A C 0.1369(12) 0.332(2) 0.3735(7) 0.021 Uiso 0.1 1 d D U P A 2
H3A H 0.0951 0.3746 0.3244 0.025 Uiso 0.1 1 calc R U P A 2
C4A C 0.2267(13) 0.1555(16) 0.4567(10) 0.021 Uiso 0.1 1 d D U P A 2
H4A H 0.2594 0.0522 0.4763 0.025 Uiso 0.1 1 calc R U P A 2
C5A C 0.0973(10) 0.3359(17) 0.4350(8) 0.021 Uiso 0.1 1 d D U P A 2
H5A H 0.0303 0.3078 0.4170 0.025 Uiso 0.1 1 calc R U P A 2
C6A C 0.2269(11) 0.4278(17) 0.4114(7) 0.021 Uiso 0.1 1 d D U P A 2
H6A H 0.2551 0.4671 0.3761 0.025 Uiso 0.1 1 calc R U P A 2
C7A C 0.2891(10) 0.3056(17) 0.4691(8) 0.021 Uiso 0.1 1 d D U P A 2
H7A H 0.3490 0.2836 0.4634 0.025 Uiso 0.1 1 calc R U P A 2
C8A C 0.1601(11) 0.2142(15) 0.4932(8) 0.021 Uiso 0.1 1 d D U P A 2
H8A H 0.1248 0.1251 0.5049 0.025 Uiso 0.1 1 calc R U P A 2
C9A C 0.1193(7) 0.5020(15) 0.4724(7) 0.021 Uiso 0.1 1 d D U P A 2
H9A H 0.0659 0.5782 0.4561 0.025 Uiso 0.1 1 calc R U P A 2
C10A C 0.2063(8) 0.5640(14) 0.4567(6) 0.021 Uiso 0.1 1 d D U P A 2
H10A H 0.1973 0.6717 0.4322 0.025 Uiso 0.1 1 calc R U P A 2
C11A C 0.3009(7) 0.3781(14) 0.5447(6) 0.021 Uiso 0.1 1 d D U P A 2
H11A H 0.3613 0.3512 0.5847 0.025 Uiso 0.1 1 calc R U P A 2
C12A C 0.2148(8) 0.3171(13) 0.5607(6) 0.021 Uiso 0.1 1 d D U P A 2
H12A H 0.2311 0.2594 0.6090 0.025 Uiso 0.1 1 calc R U P A 2
C13A C 0.1600(8) 0.4731(14) 0.5559(6) 0.021 Uiso 0.1 1 d D U P A 2
H13A H 0.1137 0.4682 0.5800 0.025 Uiso 0.1 1 calc R U P A 2
C14A C 0.2348(8) 0.6046(13) 0.5868(6) 0.021 Uiso 0.1 1 d D U P A 2
H14A H 0.2760 0.5744 0.6382 0.025 Uiso 0.1 1 calc R U P A 2
C15A C 0.2025(11) 0.7725(18) 0.5872(9) 0.021 Uiso 0.1 1 d . U P A 2
H15C H 0.1547 0.7950 0.5379 0.025 Uiso 0.1 1 calc R U P A 2
H15D H 0.2550 0.8454 0.5936 0.025 Uiso 0.1 1 calc R U P A 2
C16A C 0.1627(9) 0.8166(17) 0.6457(8) 0.021 Uiso 0.1 1 d D U P A 2
C17A C 0.1564(10) 0.7048(17) 0.6968(8) 0.021 Uiso 0.1 1 d D U P A 2
H17A H 0.1772 0.5976 0.6960 0.025 Uiso 0.1 1 calc R U P A 2
C18A C 0.1197(13) 0.750(2) 0.7495(10) 0.021 Uiso 0.1 1 d D U P A 2
C19A C 0.0894(13) 0.907(2) 0.7504(10) 0.021 Uiso 0.1 1 d D U P A 2
H19A H 0.0645 0.9370 0.7862 0.025 Uiso 0.1 1 calc R U P A 2
C20A C 0.0949(9) 1.0214(16) 0.6995(8) 0.021 Uiso 0.1 1 d D U P A 2
C21A C 0.1316(9) 0.9716(16) 0.6484(8) 0.021 Uiso 0.1 1 d D U P A 2
H21A H 0.1357 1.0477 0.6134 0.025 Uiso 0.1 1 calc R U P A 2
C22A C 0.0620(12) 1.1907(16) 0.7019(9) 0.021 Uiso 0.1 1 d D U P A 2
H22D H 0.0387 1.2003 0.7420 0.032 Uiso 0.1 1 calc R U P A 2
H22E H 0.1134 1.2656 0.7107 0.032 Uiso 0.1 1 calc R U P A 2
H22F H 0.0125 1.2164 0.6547 0.032 Uiso 0.1 1 calc R U P A 2
C23A C 0.112(2) 0.630(3) 0.8051(14) 0.021 Uiso 0.1 1 d D U P A 2
H23D H 0.1366 0.5260 0.7970 0.032 Uiso 0.1 1 calc R U P A 2
H23E H 0.1485 0.6684 0.8551 0.032 Uiso 0.1 1 calc R U P A 2
H23F H 0.0477 0.6183 0.7992 0.032 Uiso 0.1 1 calc R U P A 2
loop_
_atom_site_aniso_label
_atom_site_aniso_U_11
_atom_site_aniso_U_22
_atom_site_aniso_U_33
_atom_site_aniso_U_23
_atom_site_aniso_U_13
_atom_site_aniso_U_12
C1 0.0208(8) 0.0268(8) 0.0232(9) -0.0023(7) 0.0122(7) -0.0061(7)
C2 0.0189(8) 0.0275(10) 0.0174(10) 0.0001(8) 0.0074(8) 0.0014(7)
C3 0.0159(8) 0.0266(10) 0.0156(8) -0.0015(7) 0.0061(7) 0.0004(7)
C4 0.0212(8) 0.0268(10) 0.0175(9) 0.0005(7) 0.0072(7) 0.0057(8)
C5 0.0124(8) 0.0283(8) 0.0171(9) -0.0008(7) 0.0058(7) -0.0004(6)
C6 0.0176(9) 0.0288(9) 0.0177(9) -0.0002(8) 0.0090(7) -0.0015(7)
C7 0.0135(8) 0.0333(11) 0.0196(9) -0.0032(8) 0.0076(7) 0.0006(7)
C8 0.0210(8) 0.0233(9) 0.0191(8) 0.0012(7) 0.0108(7) -0.0006(7)
C9 0.0146(7) 0.0266(8) 0.0159(8) 0.0011(7) 0.0051(6) 0.0033(6)
C10 0.0235(8) 0.0243(8) 0.0193(8) 0.0032(7) 0.0107(7) -0.0012(7)
C11 0.0118(7) 0.0300(9) 0.0202(8) -0.0023(7) 0.0061(6) 0.0001(6)
C12 0.0157(7) 0.0236(8) 0.0149(8) 0.0017(6) 0.0064(6) 0.0013(6)
C13 0.0148(7) 0.0227(8) 0.0173(8) 0.0012(6) 0.0080(6) 0.0004(6)
C14 0.0216(8) 0.0218(8) 0.0228(9) 0.0014(7) 0.0112(7) -0.0012(6)
C15 0.0186(7) 0.0261(8) 0.0260(9) -0.0059(7) 0.0101(7) -0.0045(7)
C16 0.0135(7) 0.0219(8) 0.0203(9) -0.0032(7) 0.0047(6) -0.0030(6)
C17 0.0163(8) 0.0187(8) 0.0234(10) 0.0003(7) 0.0051(7) 0.0006(6)
C18 0.0169(7) 0.0230(9) 0.0206(9) 0.0019(7) 0.0058(6) -0.0011(7)
C19 0.0162(7) 0.0236(9) 0.0192(10) -0.0035(7) 0.0054(7) -0.0009(7)
C20 0.0201(8) 0.0170(9) 0.0274(10) 0.0003(7) 0.0076(7) -0.0003(6)
C21 0.0222(8) 0.0219(10) 0.0237(9) 0.0034(7) 0.0104(7) -0.0009(6)
C22 0.0383(11) 0.0214(10) 0.0465(13) 0.0063(9) 0.0213(10) 0.0072(8)
C23 0.0311(16) 0.0324(10) 0.0366(11) 0.0124(9) 0.0187(10) 0.0050(9)
C24 0.0207(7) 0.0373(9) 0.0258(8) -0.0064(7) 0.0096(6) 0.0035(7)
C25 0.0184(7) 0.0298(8) 0.0259(8) -0.0069(6) 0.0125(6) 0.0003(6)
C26 0.0233(7) 0.0265(8) 0.0290(8) -0.0001(6) 0.0164(6) 0.0028(6)
C27 0.0212(7) 0.0228(7) 0.0329(9) -0.0056(6) 0.0172(7) -0.0021(6)
C28 0.0179(7) 0.0248(8) 0.0246(8) -0.0074(6) 0.0103(6) -0.0029(6)
C29 0.0207(7) 0.0228(7) 0.0250(8) -0.0065(6) 0.0133(6) -0.0015(6)
C30 0.0212(7) 0.0233(7) 0.0270(8) -0.0095(6) 0.0128(6) -0.0032(6)
C31 0.0310(8) 0.0244(8) 0.0290(9) -0.0047(7) 0.0138(7) -0.0034(6)
C32 0.0300(8) 0.0261(8) 0.0439(10) -0.0045(8) 0.0152(8) -0.0064(7)
loop_
_atom_type_symbol
_atom_type_description
_atom_type_scat_dispersion_real
_atom_type_scat_dispersion_imag
_atom_type_scat_source
C C 0.0181 0.0091 'International Tables Vol C Tables 4.2.6.8 and 6.1.1.4'
H H 0.0000 0.0000 'International Tables Vol C Tables 4.2.6.8 and 6.1.1.4'
loop_
_geom_angle_atom_site_label_1
_geom_angle_atom_site_label_2
_geom_angle_atom_site_label_3
_geom_angle
C10 C1 C14 103.65(13)
C10 C1 C11 100.13(13)
C14 C1 C11 104.94(13)
C10 C1 H1 115.4
C14 C1 H1 115.4
C11 C1 H1 115.4
C4 C2 C3 94.44(13)
C4 C2 C24 116.63(17)
C3 C2 C24 114.35(16)
C4 C2 H2 110.2
C3 C2 H2 110.2
C24 C2 H2 110.2
C2 C3 C5 103.60(14)
C2 C3 C6 104.72(14)
C5 C3 C6 100.31(13)
C2 C3 H3 115.4
C5 C3 H3 115.4
C6 C3 H3 115.4
C2 C4 C7 104.94(14)
C2 C4 C8 103.65(14)
C7 C4 C8 99.90(13)
C2 C4 H4 115.5
C7 C4 H4 115.5
C8 C4 H4 115.5
C9 C5 C3 107.82(14)
C9 C5 C8 104.68(13)
C3 C5 C8 103.02(13)
C9 C5 H5 113.5
C3 C5 H5 113.5
C8 C5 H5 113.5
C10 C6 C3 107.61(13)
C10 C6 C7 104.60(13)
C3 C6 C7 102.90(13)
C10 C6 H6 113.6
C3 C6 H6 113.6
C7 C6 H6 113.6
C11 C7 C4 107.62(13)
C11 C7 C6 105.32(14)
C4 C7 C6 102.75(13)
C11 C7 H7 113.4
C4 C7 H7 113.4
C6 C7 H7 113.4
C12 C8 C4 107.90(13)
C12 C8 C5 105.38(13)
C4 C8 C5 102.75(13)
C12 C8 H8 113.3
C4 C8 H8 113.3
C5 C8 H8 113.3
C5 C9 C13 108.12(14)
C5 C9 C10 105.06(13)
C13 C9 C10 102.88(13)
C5 C9 H9 113.3
C13 C9 H9 113.3
C10 C9 H9 113.3
C1 C10 C6 108.00(14)
C1 C10 C9 102.82(13)
C6 C10 C9 104.88(13)
C1 C10 H10 113.4
C6 C10 H10 113.4
C9 C10 H10 113.4
C7 C11 C1 107.44(14)
C7 C11 C12 105.30(13)
C1 C11 C12 102.91(13)
C7 C11 H11 113.4
C1 C11 H11 113.4
C12 C11 H11 113.4
C8 C12 C13 107.47(13)
C8 C12 C11 104.73(13)
C13 C12 C11 102.87(13)
C8 C12 H12 113.6
C13 C12 H12 113.6
C11 C12 H12 113.6
C14 C13 C9 103.51(13)
C14 C13 C12 104.89(12)
C9 C13 C12 99.96(12)
C14 C13 H13 115.5
C9 C13 H13 115.5
C12 C13 H13 115.5
C15 C14 C1 115.33(14)
C15 C14 C13 116.27(14)
C1 C14 C13 94.37(12)
C15 C14 H14 110.0
C1 C14 H14 110.0
C13 C14 H14 110.0
C16 C15 C14 113.10(14)
C16 C15 H15A 109.0
C14 C15 H15A 109.0
C16 C15 H15B 109.0
C14 C15 H15B 109.0
H15A C15 H15B 107.8
C17 C16 C21 118.79(15)
C17 C16 C15 120.89(16)
C21 C16 C15 120.32(15)
C16 C17 C18 120.89(16)
C16 C17 H17 119.6
C18 C17 H17 119.6
C19 C18 C17 119.14(17)
C19 C18 C23 120.71(18)
C17 C18 C23 120.15(18)
C18 C19 C20 121.08(16)
C18 C19 H19 119.5
C20 C19 H19 119.5
C21 C20 C19 118.45(16)
C21 C20 C22 120.68(16)
C19 C20 C22 120.87(16)
C16 C21 C20 121.65(15)
C16 C21 H21 119.2
C20 C21 H21 119.2
C20 C22 H22A 109.5
C20 C22 H22B 109.5
H22A C22 H22B 109.5
C20 C22 H22C 109.5
H22A C22 H22C 109.5
H22B C22 H22C 109.5
C18 C23 H23A 109.5
C18 C23 H23B 109.5
H23A C23 H23B 109.5
C18 C23 H23C 109.5
H23A C23 H23C 109.5
H23B C23 H23C 109.5
C2A C24 C25 107.0(8)
C25 C24 C2 112.09(14)
C25 C24 H24A 109.2
C2 C24 H24A 109.2
C25 C24 H24B 109.2
C2 C24 H24B 109.2
H24A C24 H24B 107.9
C30 C25 C26 118.37(14)
C30 C25 C24 121.16(14)
C26 C25 C24 120.36(15)
C27 C26 C25 121.72(15)
C27 C26 H26 119.1
C25 C26 H26 119.1
C26 C27 C28 118.42(14)
C26 C27 C32 121.07(15)
C28 C27 C32 120.51(15)
C27 C28 C29 121.55(14)
C27 C28 H28 119.2
C29 C28 H28 119.2
C28 C29 C30 118.50(14)
C28 C29 C31 120.24(14)
C30 C29 C31 121.25(14)
C25 C30 C29 121.43(14)
C25 C30 H30 119.3
C29 C30 H30 119.3
C29 C31 H31A 109.5
C29 C31 H31B 109.5
H31A C31 H31B 109.5
C29 C31 H31C 109.5
H31A C31 H31C 109.5
H31B C31 H31C 109.5
C27 C32 H32A 109.5
C27 C32 H32B 109.5
H32A C32 H32B 109.5
C27 C32 H32C 109.5
H32A C32 H32C 109.5
H32B C32 H32C 109.5
C10A C1A C11A 101.3(7)
C10A C1A C14A 104.7(8)
C11A C1A C14A 104.3(8)
C10A C1A H1A 115.0
C11A C1A H1A 115.0
C14A C1A H1A 115.0
C24 C2A C4A 105.6(13)
C24 C2A C3A 127.9(15)
C4A C2A C3A 94.4(7)
C24 C2A H2A 108.9
C4A C2A H2A 108.9
C3A C2A H2A 108.9
C2A C3A C5A 103.5(9)
C2A C3A C6A 104.8(9)
C5A C3A C6A 100.1(8)
C2A C3A H3A 115.5
C5A C3A H3A 115.5
C6A C3A H3A 115.5
C2A C4A C8A 104.0(9)
C2A C4A C7A 104.7(9)
C8A C4A C7A 99.6(8)
C2A C4A H4A 115.6
C8A C4A H4A 115.6
C7A C4A H4A 115.6
C9A C5A C3A 107.7(8)
C9A C5A C8A 105.5(8)
C3A C5A C8A 103.1(7)
C9A C5A H5A 113.3
C3A C5A H5A 113.3
C8A C5A H5A 113.3
C3A C6A C10A 107.7(8)
C3A C6A C7A 102.8(7)
C10A C6A C7A 105.8(8)
C3A C6A H6A 113.2
C10A C6A H6A 113.2
C7A C6A H6A 113.2
C11A C7A C4A 108.1(8)
C11A C7A C6A 104.8(8)
C4A C7A C6A 103.1(7)
C11A C7A H7A 113.3
C4A C7A H7A 113.3
C6A C7A H7A 113.3
C12A C8A C4A 108.4(8)
C12A C8A C5A 105.1(8)
C4A C8A C5A 102.6(7)
C12A C8A H8A 113.3
C4A C8A H8A 113.3
C5A C8A H8A 113.3
C13A C9A C5A 107.1(8)
C13A C9A C10A 102.1(7)
C5A C9A C10A 104.8(7)
C13A C9A H9A 113.9
C5A C9A H9A 113.9
C10A C9A H9A 113.9
C1A C10A C6A 106.8(8)
C1A C10A C9A 102.8(7)
C6A C10A C9A 104.4(7)
C1A C10A H10A 113.9
C6A C10A H10A 113.9
C9A C10A H10A 113.9
C7A C11A C1A 107.2(8)
C7A C11A C12A 105.0(7)
C1A C11A C12A 102.9(7)
C7A C11A H11A 113.6
C1A C11A H11A 113.6
C12A C11A H11A 113.6
C8A C12A C13A 107.4(8)
C8A C12A C11A 104.6(7)
C13A C12A C11A 102.3(7)
C8A C12A H12A 113.8
C13A C12A H12A 113.8
C11A C12A H12A 113.8
C9A C13A C12A 101.5(7)
C9A C13A C14A 105.0(8)
C12A C13A C14A 104.5(8)
C9A C13A H13A 114.8
C12A C13A H13A 114.8
C14A C13A H13A 114.8
C15A C14A C1A 118.8(10)
C15A C14A C13A 117.2(10)
C1A C14A C13A 93.1(6)
C15A C14A H14A 108.9
C1A C14A H14A 108.9
C13A C14A H14A 108.9
C14A C15A C16A 117.5(12)
C14A C15A H15C 107.9
C16A C15A H15C 107.9
C14A C15A H15D 107.9
C16A C15A H15D 107.9
H15C C15A H15D 107.2
C21A C16A C17A 118.4(10)
C21A C16A C15A 119.7(11)
C17A C16A C15A 121.9(12)
C16A C17A C18A 120.1(10)
C16A C17A H17A 119.9
C18A C17A H17A 119.9
C19A C18A C17A 119.7(10)
C19A C18A C23A 119.6(12)
C17A C18A C23A 120.7(12)
C18A C19A C20A 121.2(11)
C18A C19A H19A 119.4
C20A C19A H19A 119.4
C21A C20A C19A 117.2(10)
C21A C20A C22A 122.7(11)
C19A C20A C22A 120.1(11)
C20A C21A C16A 123.4(10)
C20A C21A H21A 118.3
C16A C21A H21A 118.3
C20A C22A H22D 109.5
C20A C22A H22E 109.5
H22D C22A H22E 109.5
C20A C22A H22F 109.5
H22D C22A H22F 109.5
H22E C22A H22F 109.5
C18A C23A H23D 109.5
C18A C23A H23E 109.5
H23D C23A H23E 109.5
C18A C23A H23F 109.5
H23D C23A H23F 109.5
H23E C23A H23F 109.5
loop_
_geom_bond_atom_site_label_1
_geom_bond_atom_site_label_2
_geom_bond_distance
C1 C10 1.535(2)
C1 C14 1.539(2)
C1 C11 1.543(3)
C1 H1 1.0000
C2 C4 1.534(2)
C2 C3 1.536(2)
C2 C24 1.540(3)
C2 H2 1.0000
C3 C5 1.540(2)
C3 C6 1.545(2)
C3 H3 1.0000
C4 C7 1.546(2)
C4 C8 1.545(2)
C4 H4 1.0000
C5 C9 1.534(2)
C5 C8 1.565(2)
C5 H5 1.0000
C6 C10 1.539(2)
C6 C7 1.567(2)
C6 H6 1.0000
C7 C11 1.536(2)
C7 H7 1.0000
C8 C12 1.537(2)
C8 H8 1.0000
C9 C13 1.540(2)
C9 C10 1.574(2)
C9 H9 1.0000
C10 H10 1.0000
C11 C12 1.570(2)
C11 H11 1.0000
C12 C13 1.544(2)
C12 H12 1.0000
C13 C14 1.540(2)
C13 H13 1.0000
C14 C15 1.527(2)
C14 H14 1.0000
C15 C16 1.512(2)
C15 H15A 0.9900
C15 H15B 0.9900
C16 C17 1.390(2)
C16 C21 1.391(2)
C17 C18 1.399(2)
C17 H17 0.9500
C18 C19 1.390(2)
C18 C23 1.508(2)
C19 C20 1.395(2)
C19 H19 0.9500
C20 C21 1.395(2)
C20 C22 1.506(2)
C21 H21 0.9500
C22 H22A 0.9800
C22 H22B 0.9800
C22 H22C 0.9800
C23 H23A 0.9800
C23 H23B 0.9800
C23 H23C 0.9800
C24 C2A 1.49(2)
C24 C25 1.508(2)
C24 H24A 0.9900
C24 H24B 0.9900
C25 C30 1.393(2)
C25 C26 1.396(2)
C26 C27 1.389(2)
C26 H26 0.9500
C27 C28 1.393(2)
C27 C32 1.506(2)
C28 C29 1.394(2)
C28 H28 0.9500
C29 C30 1.395(2)
C29 C31 1.506(2)
C30 H30 0.9500
C31 H31A 0.9800
C31 H31B 0.9800
C31 H31C 0.9800
C32 H32A 0.9800
C32 H32B 0.9800
C32 H32C 0.9800
C1A C10A 1.526(9)
C1A C11A 1.539(9)
C1A C14A 1.542(9)
C1A H1A 1.0000
C2A C4A 1.532(9)
C2A C3A 1.534(9)
C2A H2A 1.0000
C3A C5A 1.540(9)
C3A C6A 1.543(9)
C3A H3A 1.0000
C4A C8A 1.544(9)
C4A C7A 1.546(9)
C4A H4A 1.0000
C5A C9A 1.540(9)
C5A C8A 1.563(9)
C5A H5A 1.0000
C6A C10A 1.542(9)
C6A C7A 1.558(9)
C6A H6A 1.0000
C7A C11A 1.537(9)
C7A H7A 1.0000
C8A C12A 1.535(9)
C8A H8A 1.0000
C9A C13A 1.528(9)
C9A C10A 1.586(9)
C9A H9A 1.0000
C10A H10A 1.0000
C11A C12A 1.574(9)
C11A H11A 1.0000
C12A C13A 1.537(9)
C12A H12A 1.0000
C13A C14A 1.549(9)
C13A H13A 1.0000
C14A C15A 1.486(19)
C14A H14A 1.0000
C15A C16A 1.533(19)
C15A H15C 0.9900
C15A H15D 0.9900
C16A C21A 1.385(9)
C16A C17A 1.392(9)
C17A C18A 1.402(9)
C17A H17A 0.9500
C18A C19A 1.390(9)
C18A C23A 1.507(9)
C19A C20A 1.400(9)
C19A H19A 0.9500
C20A C21A 1.386(9)
C20A C22A 1.505(9)
C21A H21A 0.9500
C22A H22D 0.9800
C22A H22E 0.9800
C22A H22F 0.9800
C23A H23D 0.9800
C23A H23E 0.9800
C23A H23F 0.9800
loop_
_geom_torsion_atom_site_label_1
_geom_torsion_atom_site_label_2
_geom_torsion_atom_site_label_3
_geom_torsion_atom_site_label_4
_geom_torsion
C4 C2 C3 C5 -53.22(16)
C24 C2 C3 C5 -175.14(16)
C4 C2 C3 C6 51.48(16)
C24 C2 C3 C6 -70.43(19)
C3 C2 C4 C7 -51.29(16)
C24 C2 C4 C7 68.82(19)
C3 C2 C4 C8 53.07(16)
C24 C2 C4 C8 173.17(17)
C2 C3 C5 C9 144.38(14)
C6 C3 C5 C9 36.34(16)
C2 C3 C5 C8 34.04(16)
C6 C3 C5 C8 -74.00(15)
C2 C3 C6 C10 -143.40(14)
C5 C3 C6 C10 -36.25(17)
C2 C3 C6 C7 -33.28(15)
C5 C3 C6 C7 73.87(15)
C2 C4 C7 C11 143.53(14)
C8 C4 C7 C11 36.40(16)
C2 C4 C7 C6 32.67(16)
C8 C4 C7 C6 -74.45(14)
C10 C6 C7 C11 0.19(16)
C3 C6 C7 C11 -112.17(14)
C10 C6 C7 C4 112.76(14)
C3 C6 C7 C4 0.40(15)
C2 C4 C8 C12 -144.76(14)
C7 C4 C8 C12 -36.60(16)
C2 C4 C8 C5 -33.73(17)
C7 C4 C8 C5 74.43(15)
C9 C5 C8 C12 0.02(16)
C3 C5 C8 C12 112.68(14)
C9 C5 C8 C4 -112.87(14)
C3 C5 C8 C4 -0.21(16)
C3 C5 C9 C13 -132.52(13)
C8 C5 C9 C13 -23.32(16)
C3 C5 C9 C10 -23.20(17)
C8 C5 C9 C10 86.00(15)
C14 C1 C10 C6 -144.78(14)
C11 C1 C10 C6 -36.54(15)
C14 C1 C10 C9 -34.24(16)
C11 C1 C10 C9 74.00(14)
C3 C6 C10 C1 132.17(14)
C7 C6 C10 C1 23.23(16)
C3 C6 C10 C9 23.04(17)
C7 C6 C10 C9 -85.91(15)
C5 C9 C10 C1 -112.82(15)
C13 C9 C10 C1 0.25(16)
C5 C9 C10 C6 0.04(17)
C13 C9 C10 C6 113.11(14)
C4 C7 C11 C1 -132.43(14)
C6 C7 C11 C1 -23.34(16)
C4 C7 C11 C12 -23.24(17)
C6 C7 C11 C12 85.85(16)
C10 C1 C11 C7 36.47(15)
C14 C1 C11 C7 143.67(13)
C10 C1 C11 C12 -74.37(14)
C14 C1 C11 C12 32.83(16)
C4 C8 C12 C13 132.37(14)
C5 C8 C12 C13 23.13(16)
C4 C8 C12 C11 23.45(18)
C5 C8 C12 C11 -85.78(15)
C7 C11 C12 C8 -0.10(17)
C1 C11 C12 C8 112.33(14)
C7 C11 C12 C13 -112.33(15)
C1 C11 C12 C13 0.09(15)
C5 C9 C13 C14 144.55(13)
C10 C9 C13 C14 33.75(15)
C5 C9 C13 C12 36.47(15)
C10 C9 C13 C12 -74.34(14)
C8 C12 C13 C14 -143.16(13)
C11 C12 C13 C14 -32.96(15)
C8 C12 C13 C9 -36.17(15)
C11 C12 C13 C9 74.03(13)
C10 C1 C14 C15 175.30(14)
C11 C1 C14 C15 70.69(17)
C10 C1 C14 C13 53.47(15)
C11 C1 C14 C13 -51.13(15)
C9 C13 C14 C15 -174.25(13)
C12 C13 C14 C15 -69.90(16)
C9 C13 C14 C1 -53.17(15)
C12 C13 C14 C1 51.18(14)
C1 C14 C15 C16 -179.40(14)
C13 C14 C15 C16 -70.27(19)
C14 C15 C16 C17 105.30(18)
C14 C15 C16 C21 -74.0(2)
C21 C16 C17 C18 -0.5(3)
C15 C16 C17 C18 -179.86(17)
C16 C17 C18 C19 0.6(3)
C16 C17 C18 C23 -179.38(17)
C17 C18 C19 C20 -0.2(3)
C23 C18 C19 C20 179.78(17)
C18 C19 C20 C21 -0.3(3)
C18 C19 C20 C22 -179.25(17)
C17 C16 C21 C20 0.1(3)
C15 C16 C21 C20 179.42(16)
C19 C20 C21 C16 0.3(3)
C22 C20 C21 C16 179.30(17)
C4 C2 C24 C25 -178.50(15)
C3 C2 C24 C25 -69.7(2)
C2A C24 C25 C30 81.4(9)
C2 C24 C25 C30 88.06(19)
C2A C24 C25 C26 -94.8(9)
C2 C24 C25 C26 -88.10(19)
C30 C25 C26 C27 -1.4(2)
C24 C25 C26 C27 174.91(13)
C25 C26 C27 C28 0.5(2)
C25 C26 C27 C32 -179.16(14)
C26 C27 C28 C29 0.3(2)
C32 C27 C28 C29 -179.98(13)
C27 C28 C29 C30 -0.3(2)
C27 C28 C29 C31 -179.82(13)
C26 C25 C30 C29 1.4(2)
C24 C25 C30 C29 -174.85(13)
C28 C29 C30 C25 -0.6(2)
C31 C29 C30 C25 178.92(13)
C25 C24 C2A C4A 167.8(7)
C25 C24 C2A C3A -83.6(14)
C24 C2A C3A C5A -166.8(14)
C4A C2A C3A C5A -53.1(11)
C24 C2A C3A C6A -62.2(16)
C4A C2A C3A C6A 51.4(11)
C24 C2A C4A C8A -175.7(12)
C3A C2A C4A C8A 52.9(11)
C24 C2A C4A C7A 80.3(12)
C3A C2A C4A C7A -51.2(11)
C2A C3A C5A C9A 145.5(9)
C6A C3A C5A C9A 37.4(10)
C2A C3A C5A C8A 34.3(10)
C6A C3A C5A C8A -73.8(9)
C2A C3A C6A C10A -144.5(9)
C5A C3A C6A C10A -37.5(10)
C2A C3A C6A C7A -33.1(10)
C5A C3A C6A C7A 74.0(9)
C2A C4A C7A C11A 143.4(9)
C8A C4A C7A C11A 36.1(10)
C2A C4A C7A C6A 32.8(10)
C8A C4A C7A C6A -74.5(9)
C3A C6A C7A C11A -112.8(8)
C10A C6A C7A C11A 0.0(10)
C3A C6A C7A C4A 0.2(9)
C10A C6A C7A C4A 113.0(8)
C2A C4A C8A C12A -144.1(9)
C7A C4A C8A C12A -36.3(10)
C2A C4A C8A C5A -33.3(10)
C7A C4A C8A C5A 74.5(9)
C9A C5A C8A C12A -0.1(10)
C3A C5A C8A C12A 112.7(8)
C9A C5A C8A C4A -113.5(8)
C3A C5A C8A C4A -0.6(9)
C3A C5A C9A C13A -131.8(9)
C8A C5A C9A C13A -22.2(10)
C3A C5A C9A C10A -23.8(10)
C8A C5A C9A C10A 85.8(9)
C11A C1A C10A C6A -35.9(9)
C14A C1A C10A C6A -144.1(8)
C11A C1A C10A C9A 73.7(8)
C14A C1A C10A C9A -34.5(9)
C3A C6A C10A C1A 132.2(8)
C7A C6A C10A C1A 22.8(10)
C3A C6A C10A C9A 23.8(10)
C7A C6A C10A C9A -85.6(9)
C13A C9A C10A C1A 0.3(9)
C5A C9A C10A C1A -111.3(8)
C13A C9A C10A C6A 111.6(8)
C5A C9A C10A C6A 0.0(10)
C4A C7A C11A C1A -132.1(8)
C6A C7A C11A C1A -22.7(10)
C4A C7A C11A C12A -23.2(10)
C6A C7A C11A C12A 86.2(9)
C10A C1A C11A C7A 36.2(9)
C14A C1A C11A C7A 144.7(8)
C10A C1A C11A C12A -74.2(8)
C14A C1A C11A C12A 34.3(9)
C4A C8A C12A C13A 131.5(8)
C5A C8A C12A C13A 22.3(10)
C4A C8A C12A C11A 23.3(10)
C5A C8A C12A C11A -85.9(9)
C7A C11A C12A C8A 0.0(10)
C1A C11A C12A C8A 112.0(8)
C7A C11A C12A C13A -111.9(8)
C1A C11A C12A C13A 0.2(9)
C5A C9A C13A C12A 35.2(9)
C10A C9A C13A C12A -74.7(8)
C5A C9A C13A C14A 143.7(8)
C10A C9A C13A C14A 33.8(9)
C8A C12A C13A C9A -35.4(9)
C11A C12A C13A C9A 74.4(8)
C8A C12A C13A C14A -144.3(8)
C11A C12A C13A C14A -34.5(9)
C10A C1A C14A C15A -70.6(12)
C11A C1A C14A C15A -176.6(11)
C10A C1A C14A C13A 52.9(9)
C11A C1A C14A C13A -53.1(9)
C9A C13A C14A C15A 71.9(12)
C12A C13A C14A C15A 178.3(10)
C9A C13A C14A C1A -52.9(9)
C12A C13A C14A C1A 53.5(9)
C1A C14A C15A C16A -174.7(11)
C13A C14A C15A C16A 74.7(15)
C14A C15A C16A C21A 179.9(9)
C14A C15A C16A C17A -0.1(18)
C21A C16A C17A C18A -0.1(3)
C15A C16A C17A C18A 179.9(13)
C16A C17A C18A C19A 0.0(3)
C16A C17A C18A C23A 180.0(3)
C17A C18A C19A C20A 0.0(7)
C23A C18A C19A C20A -179.9(5)
C18A C19A C20A C21A 0.0(8)
C18A C19A C20A C22A -179.7(5)
C19A C20A C21A C16A -0.1(9)
C22A C20A C21A C16A 179.6(5)
C17A C16A C21A C20A 0.2(7)
C15A C16A C21A C20A -179.9(13)
