#------------------------------------------------------------------------------
#$Date: 2017-05-25 01:30:49 +0300 (Thu, 25 May 2017) $
#$Revision: 196948 $
#$URL: file:///home/coder/svn-repositories/cod/cif/4/12/60/4126069.cif $
#------------------------------------------------------------------------------
#
# This file is available in the Crystallography Open Database (COD),
# http://www.crystallography.net/
#
# All data on this site have been placed in the public domain by the
# contributors.
#
data_4126069
loop_
_publ_author_name
'Liu, Junzhi'
'Ma, Ji'
'Zhang, Ke'
'Ravat, Prince'
'Machata, Peter'
'Avdoshenko, Stanislav M.'
'Hennersdorf, Felix'
'Komber, Hartmut'
'Pisula, Wojciech'
'Weigand, Jan J.'
'Popov, Alexey A.'
'Berger, Reinhard'
'M\"ullen, Klaus'
'Feng, Xinliang'
_publ_section_title
;
 \p-Extended and Curved Anti-Aromatic Polycyclic Hydrocarbons.
;
_journal_name_full               'Journal of the American Chemical Society'
_journal_paper_doi               10.1021/jacs.7b01619
_journal_year                    2017
_chemical_formula_moiety         'C62 H56'
_chemical_formula_sum            'C62 H56'
_chemical_formula_weight         801.06
_space_group_crystal_system      monoclinic
_space_group_IT_number           14
_space_group_name_Hall           '-P 2ybc'
_space_group_name_H-M_alt        'P 1 21/c 1'
_symmetry_space_group_name_Hall  '-P 2ybc'
_symmetry_space_group_name_H-M   'P 1 21/c 1'
_atom_sites_solution_hydrogens   geom
_audit_creation_date             2016-08-08
_audit_creation_method
;
Olex2 1.2
(compiled 2015.09.30 svn.r3233 for OlexSys, GUI svn.r5103)
;
_cell_angle_alpha                90
_cell_angle_beta                 98.939(10)
_cell_angle_gamma                90
_cell_formula_units_Z            2
_cell_length_a                   15.4981(17)
_cell_length_b                   9.1422(7)
_cell_length_c                   15.9220(12)
_cell_measurement_reflns_used    2447
_cell_measurement_temperature    100.0(2)
_cell_measurement_theta_max      67.1150
_cell_measurement_theta_min      5.5170
_cell_volume                     2228.5(3)
_computing_cell_refinement       'CrysAlisPro 1.171.38.43 (Rigaku OD, 2015)'
_computing_data_collection       'CrysAlisPro 1.171.38.43 (Rigaku OD, 2015)'
_computing_data_reduction        'CrysAlisPro 1.171.38.43 (Rigaku OD, 2015)'
_computing_molecular_graphics    'Olex2 (Dolomanov et al., 2009)'
_computing_publication_material  'Olex2 (Dolomanov et al., 2009)'
_computing_structure_refinement  'ShelXL (Sheldrick, 2015)'
_computing_structure_solution    'ShelXT (Sheldrick, 2015)'
_diffrn_ambient_environment      N~2~
_diffrn_ambient_temperature      100.0(2)
_diffrn_detector                 'CCD plate'
_diffrn_detector_area_resol_mean 5.2850
_diffrn_detector_type            AtlasS2
_diffrn_measured_fraction_theta_full 0.992
_diffrn_measured_fraction_theta_max 0.987
_diffrn_measurement_details
;
List of Runs (angles in degrees, time in seconds):

  # Type    Start    End  Width  t~exp~   \w     \q     \k     \f   Frames
--------------------------------------------------------------------------
  1  \w   -107.00 -17.00   0.50   15.00    --  -38.50 -57.00 -30.00  180
  2  \w    -75.00  40.00   0.50   15.00    --  -38.50  19.00 -30.00  230
  3  \w     75.00 106.00   0.50   15.00    --   42.25  38.00-150.00   62
  4  \w     50.00  87.00   0.50   15.00    --   42.25-137.00 -26.00   74
  5  \w     49.00  99.00   0.50   60.00    --  111.00 -94.00-120.00  100
  6  \w     70.00 109.00   0.50   60.00    --  111.00 -94.00 -90.00   78
  7  \w     40.00  73.00   0.50   60.00    --  111.00 -45.00 -30.00   66
  8  \w     38.00 133.00   0.50   60.00    --  111.00 -30.00  60.00  190
  9  \w     47.00 134.00   0.50   60.00    --  111.00 -61.00  30.00  174
 10  \w     87.00 121.00   0.50   60.00    --  111.00-125.00-120.00   68
 11  \w    117.00 178.00   0.50   60.00    --  111.00  45.00 150.00  122
 12  \w     43.00 107.00   0.50   60.00    --  111.00 -61.00 -60.00  128
 13  \w     34.00  86.00   0.50   60.00    --  111.00 -94.00  60.00  104
 14  \w     66.00 173.00   0.50   60.00    --  111.00  15.00  90.00  214
 15  \w    100.00 135.00   0.50   60.00    --  111.00 -45.00 -30.00   70
 16  \w     49.00 104.00   0.50   60.00    --  111.00 -61.00-120.00  110
;
_diffrn_measurement_device       'four-circle diffractometer'
_diffrn_measurement_device_type  'SuperNova, Dual, Cu at zero, AtlasS2'
_diffrn_measurement_method       '\w scans'
_diffrn_orient_matrix_type
'CrysAlisPro convention (1999,Acta A55,543-557)'
_diffrn_orient_matrix_UB_11      -0.0062052000
_diffrn_orient_matrix_UB_12      -0.0007123000
_diffrn_orient_matrix_UB_13      -0.0975548000
_diffrn_orient_matrix_UB_21      -0.0981664000
_diffrn_orient_matrix_UB_22      -0.0370663000
_diffrn_orient_matrix_UB_23      -0.0089724000
_diffrn_orient_matrix_UB_31      -0.0218783000
_diffrn_orient_matrix_UB_32      0.1640683000
_diffrn_orient_matrix_UB_33      -0.0025287000
_diffrn_radiation_monochromator  mirror
_diffrn_radiation_probe          x-ray
_diffrn_radiation_type           CuK\a
_diffrn_radiation_wavelength     1.54184
_diffrn_reflns_av_R_equivalents  0.0618
_diffrn_reflns_av_unetI/netI     0.0604
_diffrn_reflns_Laue_measured_fraction_full 0.992
_diffrn_reflns_Laue_measured_fraction_max 0.987
_diffrn_reflns_limit_h_max       18
_diffrn_reflns_limit_h_min       -18
_diffrn_reflns_limit_k_max       10
_diffrn_reflns_limit_k_min       -6
_diffrn_reflns_limit_l_max       19
_diffrn_reflns_limit_l_min       -19
_diffrn_reflns_number            10392
_diffrn_reflns_point_group_measured_fraction_full 0.992
_diffrn_reflns_point_group_measured_fraction_max 0.987
_diffrn_reflns_theta_full        67.000
_diffrn_reflns_theta_max         67.391
_diffrn_reflns_theta_min         2.886
_diffrn_source                   'micro-focus sealed X-ray tube'
_diffrn_source_type              'SuperNova (Cu) X-ray Source'
_exptl_absorpt_coefficient_mu    0.504
_exptl_absorpt_correction_T_max  0.995
_exptl_absorpt_correction_T_min  0.908
_exptl_absorpt_correction_type   gaussian
_exptl_absorpt_process_details
;
CrysAlisPro 1.171.38.43 (Rigaku Oxford Diffraction, 2015)
Numerical absorption correction based on gaussian integration over
            a multifaceted crystal model
Empirical absorption correction using spherical harmonics,
 implemented in SCALE3 ABSPACK scaling algorithm.
;
_exptl_crystal_colour            'clear red'
_exptl_crystal_colour_lustre     clear
_exptl_crystal_colour_primary    red
_exptl_crystal_density_diffrn    1.194
_exptl_crystal_description       plate
_exptl_crystal_F_000             856
_exptl_crystal_size_max          0.285
_exptl_crystal_size_mid          0.198
_exptl_crystal_size_min          0.009
_refine_diff_density_max         0.428
_refine_diff_density_min         -0.262
_refine_diff_density_rms         0.066
_refine_ls_extinction_method     none
_refine_ls_goodness_of_fit_ref   1.063
_refine_ls_hydrogen_treatment    constr
_refine_ls_matrix_type           full
_refine_ls_number_parameters     286
_refine_ls_number_reflns         3950
_refine_ls_number_restraints     0
_refine_ls_restrained_S_all      1.063
_refine_ls_R_factor_all          0.0960
_refine_ls_R_factor_gt           0.0767
_refine_ls_shift/su_max          0.000
_refine_ls_shift/su_mean         0.000
_refine_ls_structure_factor_coef Fsqd
_refine_ls_weighting_details
'w=1/[\s^2^(Fo^2^)+(0.0843P)^2^+2.9113P] where P=(Fo^2^+2Fc^2^)/3'
_refine_ls_weighting_scheme      calc
_refine_ls_wR_factor_gt          0.1939
_refine_ls_wR_factor_ref         0.2068
_reflns_Friedel_coverage         0.000
_reflns_number_gt                3046
_reflns_number_total             3950
_reflns_threshold_expression     'I > 2\s(I)'
_cod_data_source_file            ja7b01619_si_002.cif
_cod_data_source_block           feng004
_cod_original_cell_volume        2228.5(4)
_cod_database_code               4126069
_chemical_oxdiff_formula         'C124 H112 '
_shelx_space_group_comment
;
The symmetry employed for this shelxl refinement is uniquely defined
by the following loop, which should always be used as a source of
symmetry information in preference to the above space-group names.
They are only intended as comments.
;
_reflns_odcompleteness_completeness 99.06
_reflns_odcompleteness_iscentric 1
_reflns_odcompleteness_theta     66.97
_olex2_refinement_description
;
1. Fixed Uiso
 At 1.2 times of:
  All C(H) groups
 At 1.5 times of:
  All C(H,H,H) groups
2.a Aromatic/amide H refined with riding coordinates:
 C4(H4), C27(H27), C25(H25), C18(H18), C9(H9), C7(H7), C8(H8), C14(H14),
 C17(H17), C15(H15)
2.b Idealised Me refined as rotating group:
 C31(H31A,H31B,H31C), C29(H29A,H29B,H29C), C30(H30A,H30B,H30C), C20(H20A,H20B,
 H20C), C22(H22A,H22B,H22C), C21(H21A,H21B,H21C)
;
_shelx_res_file
;
    feng004.res created by SHELXL-2014/7

TITL feng004_a.res in P2(1)/c
REM Old TITL feng004 in P21/c #14
REM SHELXT solution in P2(1)/c
REM R1 0.172, Rweak 0.285, Alpha 0.038, Orientation as input
REM Formula found by SHELXT: C31
CELL 1.54184 15.498111 9.142238 15.921999 90 98.9391 90
ZERR 2 0.001741 0.000715 0.001177 0 0.0101 0
LATT 1
SYMM -X,0.5+Y,0.5-Z
SFAC C H
UNIT 124 112

L.S. 10
PLAN  40
BOND $H
LIST 6
MORE -1
CONF
fmap 2
acta 134
REM <olex2.extras>
REM <HklSrc "%.\\FENG004.hkl">
REM </olex2.extras>

WGHT    0.084300    2.911300
FVAR       4.60077
C13   1    0.798456    0.309620    0.659996    11.00000    0.03383    0.02067 =
         0.02034    0.00104    0.00223   -0.00147
C10   1    0.578041    0.220055    0.397038    11.00000    0.03274    0.02556 =
         0.01637   -0.00067    0.00390   -0.00174
C3    1    0.581943    0.486567    0.563992    11.00000    0.03071    0.02033 =
         0.01734    0.00109    0.00559   -0.00158
C5    1    0.717991    0.341219    0.599221    11.00000    0.03073    0.02382 =
         0.01915    0.00248    0.00545   -0.00029
C1    1    0.616515    0.290836    0.472809    11.00000    0.02980    0.01804 =
         0.02155   -0.00229    0.00596   -0.00126
C6    1    0.694778    0.255615    0.522717    11.00000    0.03175    0.02080 =
         0.01949    0.00222    0.00582   -0.00084
C4    1    0.662200    0.452864    0.617236    11.00000    0.03304    0.02390 =
         0.01738   -0.00055    0.00365   -0.00141
AFIX  43
H4    2    0.678143    0.507897    0.666318    11.00000   -1.20000
AFIX   0
C23   1    0.430282    0.243576    0.293506    11.00000    0.03209    0.01951 =
         0.01603   -0.00396    0.00076    0.00249
C28   1    0.449964    0.259924    0.210938    11.00000    0.03392    0.01951 =
         0.01743   -0.00108    0.00184    0.00238
C12   1    0.483363    0.402836    0.425430    11.00000    0.03263    0.02028 =
         0.01690    0.00122    0.00386   -0.00012
C2    1    0.560593    0.402264    0.491742    11.00000    0.02875    0.02095 =
         0.01979    0.00153    0.00383   -0.00022
C24   1    0.353223    0.172547    0.306912    11.00000    0.03401    0.02229 =
         0.01780   -0.00269    0.00204    0.00420
C11   1    0.493727    0.292508    0.368453    11.00000    0.03268    0.02487 =
         0.01444   -0.00096    0.00351   -0.00235
C27   1    0.389753    0.208774    0.142323    11.00000    0.03822    0.03048 =
         0.01418   -0.00389    0.00409    0.00340
AFIX  43
H27   2    0.402115    0.219934    0.087365    11.00000   -1.20000
AFIX   0
C25   1    0.295756    0.123502    0.236731    11.00000    0.02931    0.02487 =
         0.02442   -0.00147    0.00385   -0.00007
AFIX  43
H25   2    0.244539    0.076752    0.245286    11.00000   -1.20000
AFIX   0
C16   1    0.950128    0.256713    0.780994    11.00000    0.03550    0.01989 =
         0.03056    0.00237   -0.00317   -0.00221
C18   1    0.879440    0.290843    0.635135    11.00000    0.03526    0.02612 =
         0.02129    0.00020    0.00436   -0.00093
AFIX  43
H18   2    0.884193    0.295680    0.577689    11.00000   -1.20000
AFIX   0
C9    1    0.622993    0.103310    0.369964    11.00000    0.03665    0.02184 =
         0.02069   -0.00478    0.00563   -0.00252
AFIX  43
H9    2    0.600874    0.052184    0.320819    11.00000   -1.20000
AFIX   0
C31   1    0.532998    0.333709    0.195270    11.00000    0.03425    0.02989 =
         0.02151   -0.00017    0.00500    0.00119
AFIX 137
H31A  2    0.542827    0.419625    0.230109    11.00000   -1.50000
H31B  2    0.527835    0.360908    0.136465    11.00000   -1.50000
H31C  2    0.581205    0.267577    0.209259    11.00000   -1.50000
AFIX   0
C26   1    0.312577    0.142259    0.154237    11.00000    0.03689    0.02607 =
         0.02104   -0.00713   -0.00041    0.00361
C7    1    0.739705    0.134919    0.492549    11.00000    0.02899    0.02390 =
         0.02408    0.00328    0.00298    0.00323
AFIX  43
H7    2    0.793085    0.104558    0.522376    11.00000   -1.20000
AFIX   0
C8    1    0.703860    0.063400    0.419130    11.00000    0.03711    0.02078 =
         0.02610   -0.00131    0.00829    0.00231
AFIX  43
H8    2    0.734300   -0.015127    0.400888    11.00000   -1.20000
AFIX   0
C14   1    0.794340    0.299305    0.746630    11.00000    0.03068    0.03551 =
         0.02252    0.00132    0.00501    0.00126
AFIX  43
H14   2    0.740745    0.308655    0.765488    11.00000   -1.20000
AFIX   0
C17   1    0.954134    0.264798    0.694442    11.00000    0.02920    0.02575 =
         0.03183   -0.00202    0.00597    0.00062
AFIX  43
H17   2    1.007611    0.252617    0.675723    11.00000   -1.20000
AFIX   0
C15   1    0.869052    0.275311    0.804958    11.00000    0.03464    0.03718 =
         0.02421    0.00416    0.00324   -0.00035
AFIX  43
H15   2    0.864391    0.271595    0.862451    11.00000   -1.20000
AFIX   0
C29   1    0.332217    0.145974    0.394903    11.00000    0.03620    0.03805 =
         0.02316    0.00188    0.00568   -0.00064
AFIX 137
H29A  2    0.380540    0.097512    0.428707    11.00000   -1.50000
H29B  2    0.281063    0.085680    0.391332    11.00000   -1.50000
H29C  2    0.321663    0.237796    0.420740    11.00000   -1.50000
AFIX   0
C19   1    1.031946    0.232376    0.847686    11.00000    0.03638    0.02994 =
         0.03486    0.00061   -0.00791   -0.00069
C30   1    0.245798    0.093083    0.079480    11.00000    0.04405    0.04351 =
         0.02480   -0.00791    0.00038   -0.00134
AFIX 137
H30A  2    0.206231    0.171977    0.061842    11.00000   -1.50000
H30B  2    0.213720    0.011035    0.096180    11.00000   -1.50000
H30C  2    0.275237    0.065157    0.033169    11.00000   -1.50000
AFIX   0
C20   1    1.011036    0.125079    0.915551    11.00000    0.04549    0.04600 =
         0.02608    0.00677   -0.00158    0.01079
AFIX 137
H20A  2    0.968315    0.167612    0.945851    11.00000   -1.50000
H20B  2    1.063305    0.104344    0.954563    11.00000   -1.50000
H20C  2    0.988376    0.035995    0.888795    11.00000   -1.50000
AFIX   0
C22   1    1.107981    0.171669    0.808265    11.00000    0.03145    0.04055 =
         0.04790    0.01397   -0.00197    0.00041
AFIX 137
H22A  2    1.091413    0.079861    0.781210    11.00000   -1.50000
H22B  2    1.157438    0.157360    0.851889    11.00000   -1.50000
H22C  2    1.123011    0.239528    0.766854    11.00000   -1.50000
AFIX   0
C21   1    1.058616    0.380556    0.890176    11.00000    0.05741    0.03516 =
         0.07395   -0.00904   -0.03115    0.00261
AFIX 137
H21A  2    1.074841    0.446884    0.848568    11.00000   -1.50000
H21B  2    1.107301    0.366580    0.934680    11.00000   -1.50000
H21C  2    1.010313    0.420473    0.913737    11.00000   -1.50000
AFIX   0
HKLF 4

REM  feng004_a.res in P2(1)/c
REM R1 =  0.0767 for    3046 Fo > 4sig(Fo)  and  0.0960 for all    3950 data
REM    286 parameters refined using      0 restraints

END

WGHT      0.0866      2.8857

REM Highest difference peak  0.428,  deepest hole -0.262,  1-sigma level  0.066
Q1    1   0.1810  0.0904  0.0794  11.00000  0.05    0.43
Q2    1   0.4977  0.3982  0.4766  11.00000  0.05    0.39
Q3    1   0.6754  0.2945  0.4808  11.00000  0.05    0.37
Q4    1   0.4623  0.3325  0.1830  11.00000  0.05    0.36
Q5    1   0.5191  0.2528  0.2201  11.00000  0.05    0.35
Q6    1   0.8027  0.1308  0.5091  11.00000  0.05    0.35
Q7    1   0.6450  0.4890  0.5758  11.00000  0.05    0.33
Q8    1   0.6169  0.3936  0.5002  11.00000  0.05    0.33
Q9    1   0.5991  0.4470  0.6055  11.00000  0.05    0.32
Q10   1   0.4175  0.1632  0.3144  11.00000  0.05    0.32
Q11   1   0.7807  0.3312  0.6150  11.00000  0.05    0.32
Q12   1   0.4342  0.4260  0.4175  11.00000  0.05    0.32
Q13   1   0.5209  0.4886  0.5571  11.00000  0.05    0.32
Q14   1   0.3896  0.2653  0.1840  11.00000  0.05    0.30
Q15   1   0.8811  0.2763  0.6759  11.00000  0.05    0.30
Q16   1   0.3672  0.2495  0.2835  11.00000  0.05    0.30
Q17   1   1.1017  0.2259  0.8584  11.00000  0.05    0.29
Q18   1   0.6346  0.2541  0.5148  11.00000  0.05    0.29
Q19   1   0.4545  0.2030  0.1646  11.00000  0.05    0.28
Q20   1   0.5179  0.2167  0.3818  11.00000  0.05    0.28
Q21   1   0.5573  0.2863  0.3760  11.00000  0.05    0.28
Q22   1   0.7632  0.2630  0.5385  11.00000  0.05    0.28
Q23   1   0.2326  0.1251  0.2285  11.00000  0.05    0.27
Q24   1   1.0213  0.2572  0.7052  11.00000  0.05    0.27
Q25   1   1.0746  0.2668  0.6722  11.00000  0.05    0.27
Q26   1   0.6420  0.0625  0.4126  11.00000  0.05    0.26
Q27   1   0.5432  0.4099  0.4402  11.00000  0.05    0.26
Q28   1   0.4821  0.2466  0.3144  11.00000  0.05    0.26
Q29   1   0.9396  0.3007  0.6468  11.00000  0.05    0.26
Q30   1   0.9946  0.2533  0.8159  11.00000  0.05    0.25
Q31   1   0.3262  0.2144  0.1299  11.00000  0.05    0.25
Q32   1   0.6031  0.3397  0.2110  11.00000  0.05    0.25
Q33   1   0.3576  0.1276  0.2499  11.00000  0.05    0.25
Q34   1   0.7685  0.0720  0.4314  11.00000  0.05    0.25
Q35   1   1.1780  0.1694  0.8229  11.00000  0.05    0.25
Q36   1   0.2658  0.1642  0.2992  11.00000  0.05    0.25
Q37   1   0.3935  0.1484  0.4069  11.00000  0.05    0.25
Q38   1   0.6895  0.1081  0.3814  11.00000  0.05    0.24
Q39   1   1.0132  0.2634  0.8005  11.00000  0.05    0.23
Q40   1   0.7404  0.3054  0.6437  11.00000  0.05    0.23
;
_shelx_res_checksum              21400
_shelx_hkl_file
;
   0   0   1 79.4895 93.6070   2
   0   0   2 49743.9 1313.73   1
   0   0   3 49.9769 186.755   1
   0   0   4 149373. 3367.88   1
   0   0   5-108.599 280.327   1
   0   0   6 6606.31 853.756   1
   0   0   7-17.9952 262.955   1
   0   0   8 3808.42 754.126   1
   0   0   9-70.6936 261.738   1
   0   0  10 44523.1 2913.11   1
   0   0  11-208.280 359.158   1
   0   0 -11 159.650 221.141   3
   0   0 -12-76.7093 359.280   3
   0   0 -12-69.4922 233.437  11
   0   0  12 104.280 214.474   8
   0   0  13 99.7079 241.371   8
   0   0 -13 398.874 288.517  11
   0   0 -13 545.625 526.576   3
   0   0 -14 11320.6 1010.57  11
   0   0  14 12316.3 863.148   8
   0   0  15-200.798 198.190   8
   0   0 -15-185.971 176.470  11
   0   0  16 588.503 200.843   8
   0   0 -16 658.322 282.510  11
   0   0  17-38.4250 135.112   8
   0   0 -17-13.5635 144.120  11
   0   0 -18 15918.7 842.890  11
   0   0  18 14607.9 643.889   8
   0   1   0-1.46838 73.6221   2
   0   1   2 65116.6 1371.48   4
   0   1   2 69205.1 955.372   1
   0   1   2 63213.9 1720.93   2
   0  -1   2 70792.1 1971.34   1
   0   1  -2 71460.1 1521.53   4
   0   1   3 951.544 423.776   2
   0   1   3 865.846 283.729   1
   0   1   3 718.805 211.352   4
   0  -1   3 877.074 331.774   1
   0   1  -3 761.087 183.083   4
   0   1   4 18911.3 1230.36   2
   0   1   4 17987.1 950.688   1
   0  -1   4 20702.3 1376.74   1
   0   1   5 5439.10 635.280   1
   0  -1   5 6995.55 924.401   1
   0  -1   6 3758.65 670.893   1
   0   1   6 2459.01 509.870   1
   0   1   7 1330.23 380.985   1
   0  -1   7 1523.82 522.233   1
   0  -1   8 23353.4 2041.80   1
   0   1   8 24315.3 1634.96   1
   0   1  -9 7872.51 1196.31   3
   0   1   9 7427.71 982.909   1
   0  -1   9 7344.86 1262.95   1
   0  -1  10 1275.03 565.333   1
   0   1  10 1194.82 488.849   1
   0   1 -10 1268.88 514.392   3
   0   1 -11 1180.23 523.470   3
   0  -1  11 444.913 388.009   1
   0  -1 -12 12454.2 1892.24   3
   0  -1 -12 13039.8 1050.75  11
   0  -1  12 14118.7 853.698   8
   0   1 -12 13550.3 1065.51  11
   0   1 -12 13321.4 1834.69   3
   0  -1  12 10951.6 1603.73   1
   0   1  12 11966.4 852.519   8
   0  -1 -13 12448.6 1032.42  11
   0  -1  13 13944.5 882.791   8
   0  -1  13 10500.4 1644.20   1
   0   1  13 12772.9 901.353   8
   0  -1 -13 12896.0 2039.74   3
   0   1 -13 13742.9 1080.85  11
   0   1 -13 13792.9 1982.20   3
   0   1  14 2753.67 444.056   8
   0   1 -14 2215.66 485.795  11
   0  -1 -14 2493.76 471.492  11
   0  -1  14 2484.62 377.057   8
   0   1 -15-46.7368 183.729  11
   0  -1  15-34.1197 134.421   8
   0   1  15 105.317 177.870   8
   0  -1 -15-123.564 214.772  11
   0  -1 -16 650.597 259.967  11
   0   1  16 809.153 234.807   8
   0  -1  16 791.809 220.014   8
   0   1 -16 659.662 288.453  11
   0   1  17 319.566 161.653   8
   0   1 -17 107.304 165.281  11
   0  -1 -17 141.031 141.713  11
   0  -1  17 309.538 152.084   8
   0  -1 -18 305.070 123.292  11
   0   1 -18 364.865 167.538  11
   0   1  18 499.123 174.247   8
   0   2   0 999999. 4545.99   2
   0   2  -1 306470. 2287.83   2
   0   2   1 293238. 3609.22   2
   0  -2   2 400709. 5633.79   1
   0   2  -2 408711. 5071.65   4
   0   2  -3 68175.2 2054.82   4
   0  -2   3 72118.6 2578.02   1
   0   2   3 60226.7 1876.38   4
   0   2   3 62755.0 2210.91   2
   0   2   4 10124.8 493.398   1
   0   2  -4 9452.94 650.699   3
   0  -2   4 8688.73 996.998   1
   0   2   4 6810.95 619.985   4
   0   2  -4 7780.45 699.657   4
   0   2   4 7071.56 803.520   2
   0   2  -5 20135.7 1128.54   3
   0  -2   5 20246.3 1635.50   1
   0   2   5 21048.2 811.614   1
   0   2   5 15768.9 1267.95   2
   0   2   5 16522.5 906.498   4
   0   2  -5 18348.6 1012.18   4
   0   2  -6 115913. 3117.61   3
   0  -2   6 115211. 4319.58   1
   0   2   6 116275. 2322.91   1
   0   2   7 81564.4 2233.79   1
   0   2  -7 83732.7 2967.49   3
   0  -2   7 77171.5 3746.33   1
   0  -2   8 556.218 429.577   1
   0   2  -8 96.0780 286.548   3
   0   2  -9 5169.44 903.086   3
   0  -2   9 4738.23 992.557   1
   0  -2  10 5528.80 1118.63   1
   0   2 -10 6670.19 1088.57   3
   0   2 -11 443.193 205.208  11
   0   2  11 787.166 290.696   8
   0  -2  11 781.493 593.931   1
   0   2 -11 267.959 205.091   3
   0  -2  12 18448.9 2263.74   1
   0  -2 -12 19357.0 1253.62  11
   0  -2 -12 17045.2 2305.27   3
   0   2  12 19542.0 1114.00   8
   0   2 -12 20808.7 1277.00  11
   0  -2 -13 2097.89 850.997   3
   0   2  13 3099.65 479.405   8
   0  -2 -13 2561.93 447.814  11
   0  -2  13 3271.09 1071.48   1
   0   2 -13 2999.32 504.022  11
   0   2 -14-98.7861 169.304  11
   0   2  14 74.3592 231.622   8
   0  -2 -14-13.0323 209.096  11
   0  -2 -15 942.365 265.333  11
   0   2 -15 1048.93 297.538  11
   0   2  15 1393.80 351.288   8
   0   2 -16 4659.23 544.064  11
   0  -2 -16 4329.39 501.487  11
   0   2  16 4681.28 500.590   8
   0   2  17 1644.76 284.759   8
   0   2 -17 1644.14 326.102  11
   0  -2 -17 1256.44 262.461  11
   0   2  18 9889.87 549.561   8
   0   2 -18 9912.09 648.431  11
   0   3   0-9.72786 172.090   2
   0   3   0-100.371 272.717   4
   0  -3   0-289.407 204.864   1
   0  -3  -1 8940.31 643.203   1
   0   3   1 12070.0 1095.49   4
   0  -3   1 10412.4 946.989   1
   0   3  -1 11980.0 1114.35   4
   0   3   2 12871.7 1068.74   4
   0   3  -2 13713.7 1131.62   4
   0  -3   2 14309.8 1187.28   1
   0   3   2 11694.3 932.328   2
   0   3  -2 12834.3 621.750   2
   0   3  -3 9714.77 965.766   4
   0   3   3 9088.22 917.209   4
   0   3   3 9010.76 903.007   2
   0   3  -3 7377.71 652.732   2
   0   3  -4 26771.4 1618.66   4
   0   3   4 23709.8 1458.55   4
   0   3   4 22761.7 1561.62   2
   0   3  -5 2839.66 556.339   4
   0  -3   5 3700.29 776.132   1
   0   3   5 2802.13 538.511   4
   0   3   5 2594.92 644.985   2
   0  -3   6 1933.67 671.089   1
   0  -3   7 23885.3 2189.97   1
   0  -3   8 3990.36 980.849   1
   0  -3   9 13496.6 1823.82   1
   0  -3  10 846.308 408.859   1
   0   3 -11 6013.28 602.157  12
   0   3  11 6728.17 655.947   8
   0  -3  11 6078.72 1304.66   1
   0   3 -11 7357.93 790.905  16
   0   3 -11 6819.67 685.386  11
   0   3  12-107.863 190.187   8
   0  -3  12-65.5929 327.146   1
   0   3 -12 487.556 233.973  12
   0  -3 -12 145.320 302.410   3
   0   3 -12 208.236 207.013  11
   0   3 -13 21651.6 1281.52  11
   0   3 -13 19400.0 1081.30  12
   0   3 -14 846.049 295.213  11
   0   3  14 1324.14 405.113   8
   0   3 -14 790.082 243.148  12
   0   3  15 5414.26 567.490   8
   0   3 -15 4755.99 578.536  11
   0   3 -16 7094.22 674.850  11
   0   3  16 8987.44 646.194   8
   0   3  17 6122.44 483.440   8
   0   3 -17 5483.23 522.894  11
   0   3 -18 2491.95 300.310  11
   0   3  18 2707.60 278.782   8
   0   4   0 2903.84 621.572   4
   0  -4   0 2105.96 413.729   1
   0  -4   1 13368.3 1156.07   1
   0   4  -1 13633.4 1300.80   4
   0   4   1 14021.7 1336.09   4
   0  -4  -1 10276.4 804.411   1
   0   4   1 10437.6 883.815   2
   0   4   2 61967.2 2736.09   4
   0   4  -2 57954.7 1391.96   2
   0  -4   2 66940.7 2880.25   1
   0   4  -2 67814.8 2897.40   4
   0   4   3 6651.59 897.104   4
   0   4  -3 7670.14 1003.36   4
   0   4   3 4982.99 708.069   2
   0  -4   3 7342.03 983.378   1
   0   4   4 6128.95 854.334   4
   0   4  -4 7379.99 996.293   4
   0   4   4 5279.70 821.308   2
   0  -4   5 1819.33 577.503   1
   0   4  -5 1814.50 512.075   4
   0   4   5 1727.22 477.037   4
   0  -4   6 15280.5 1773.16   1
   0   4  -6 11961.9 1337.72   4
   0  -4   7 672.366 531.124   1
   0  -4   8 10356.6 1602.73   1
   0  -4   9 562.169 491.521   1
   0   4 -10 1391.51 320.057  11
   0   4 -10 1092.72 256.466   6
   0   4 -10 1169.38 289.153  12
   0   4  10 1583.75 393.417   9
   0   4  10 1332.41 319.840   8
   0   4 -10 1120.12 356.219  16
   0  -4  10 939.175 599.329   1
   0  -4 -11 1313.59 788.298   3
   0   4 -11 2100.42 457.260  16
   0   4  11 2325.69 365.291   8
   0  -4  11 1983.77 802.738   1
   0   4 -11 2231.80 388.880  12
   0   4 -11 2326.66 435.331  11
   0   4 -12 28258.7 1338.84  12
   0   4 -12 31496.9 1466.85  11
   0   4  13 3854.46 536.595   8
   0   4 -13 2659.25 440.871  12
   0   4 -13 2981.77 451.699  11
   0   4 -14 805.417 298.556  11
   0   4 -14 675.751 215.219  12
   0   4  14 846.464 284.712   8
   0   4  15 239.161 204.628   8
   0   4 -15 136.608 184.330  12
   0   4 -15 404.536 206.545  11
   0   4 -16 979.931 211.111  12
   0   4 -16 971.628 248.664  11
   0   4  16 1106.25 243.976   8
   0   4  17 898.202 189.716   8
   0   4 -17 799.909 175.279  11
   0   5   0-94.7648 601.576   4
   0  -5   1 26521.8 1782.82   1
   0   5   1 24422.8 2053.27   4
   0   5  -1 25236.2 2070.04   4
   0  -5   2 288.225 224.328   1
   0   5   2 375.906 306.190   4
   0   5  -2 721.315 346.225   4
   0   5   3 14179.0 1510.31   4
   0   5  -3 15086.2 1602.83   4
   0  -5   3 15701.5 1590.75   1
   0   5   4 9022.69 1174.32   4
   0  -5   4 9288.26 1277.20   1
   0   5  -4 9618.01 1303.96   4
   0   5  -5 9617.01 1337.24   4
   0  -5   5 9456.86 1426.04   1
   0   5   5 9142.95 1217.35   4
   0  -5   6-336.157 423.137   1
   0  -5   7 58674.9 3898.00   1
   0   5  -8 19.7475 162.237   6
   0   5  -8 274.161 270.767  16
   0  -5   8 288.205 507.472   1
   0   5   9 3246.49 410.172   8
   0  -5  -9 2795.51 845.131   3
   0  -5   9 3279.29 937.651   1
   0   5  -9 3071.43 432.267   6
   0   5  -9 3463.22 505.255  12
   0   5  -9 3636.35 593.633  16
   0  -5  10 1572.02 664.949   1
   0   5 -10 1881.36 452.711  16
   0   5 -10 1955.81 369.159   6
   0   5 -10 2436.65 433.947  12
   0   5  10 2432.99 438.415   8
   0  -5 -10 1740.40 801.435   3
   0   5 -11 24078.9 1228.92  11
   0   5  11 26867.3 1282.49   8
   0   5 -11 23934.2 1520.07  16
   0   5 -11 22842.0 1219.39  12
   0   5  12 8867.81 712.467   8
   0   5 -12 8338.93 691.609  11
   0   5 -12 9073.63 763.399  12
   0   5  13 116.606 163.250   8
   0   5 -13 182.021 196.852  12
   0   5 -13-42.1643 161.025  11
   0   5  14 4054.75 444.016   8
   0   5 -14 4145.09 458.309  12
   0   5 -14 3934.51 451.357  11
   0   5 -15 511.001 177.758  12
   0   5 -15 185.956 172.546  11
   0   5  15 66.0576 142.737   8
   0   5 -16 139.596 108.897  12
   0   5  16 315.395 138.438   8
   0   5 -16 96.5141 103.324  11
   0   6   0 31774.8 2558.67   4
   0   6  -1 8581.21 1519.03   4
   0   6   1 7370.02 1212.67   4
   0   6  -2 560.442 582.844   4
   0   6   2 1835.75 1447.57   4
   0   6  -3 1322.13 604.422   4
   0   6   3 1751.22 686.078   4
   0   6   4 6816.99 1168.84   4
   0  -6   4 6709.53 1208.08   1
   0   6  -4 6865.40 1257.46   4
   0  -6   5 278.670 506.977   1
   0   6  -5 457.391 274.625   5
   0   6  -6 1679.22 443.296  16
   0   6  -6 1759.27 360.723  10
   0   6  -6 1921.04 387.189   6
   0   6  -6 1705.73 369.053   5
   0  -6   6 2024.51 801.119   1
   0   6  -7 426.876 227.839  12
   0   6  -7 263.154 262.686  16
   0   6  -7 324.877 219.476   6
   0  -6   7 437.156 479.069   1
   0   6  -8 1793.21 504.088  12
   0   6  -8 1666.90 472.802  16
   0   6  -8 1687.64 402.425   6
   0  -6   8 2441.58 986.657   1
   0   6  -9 8729.14 934.538  16
   0   6  -9 9207.91 804.815  12
   0   6  -9 8179.32 751.756   6
   0   6 -10 2688.58 456.569  12
   0   6 -10 2167.27 477.015  16
   0   6 -10 2117.25 408.041   6
   0   6 -11 1769.56 394.703  12
   0   6  11 1378.31 285.229   8
   0   6 -11 1540.09 388.816  16
   0   6  12 1560.68 288.220   8
   0   6 -12 1649.67 335.486  12
   0   6 -13 472.804 225.246  12
   0   6  13 246.969 146.199   8
   0   6 -14 9060.33 591.704  12
   0   6  14 9193.30 560.121   8
   0   6  15 51.9721 113.216   8
   0   6 -15 152.550 131.075  12
   0   7   0 365.115 405.478   4
   0   7   0 638.257 346.188   5
   0   7   1 10242.0 1681.72   4
   0   7  -1 10522.7 877.155   5
   0   7  -1 14478.8 988.813  10
   0   7   1 8526.25 824.040   5
   0   7  -1 11578.0 1937.35   4
   0   7  -2 24484.4 2494.54   4
   0   7  -2 21241.6 1076.13   5
   0   7   2 22249.4 2358.37   4
   0   7  -2 25504.7 1168.12  10
   0   7   2 18647.7 1111.08   5
   0   7  -3 387.226 221.799   5
   0   7   3 802.326 434.095   5
   0   7  -3 234.264 214.022  16
   0   7  -4 1865.63 357.561   5
   0   7  -4 1723.66 389.280  12
   0   7  -4 1904.26 424.168  16
   0   7   4 1033.15 324.093   5
   0   7  -4 2063.77 398.941   6
   0   7  -5 1374.89 323.636  12
   0   7  -5 1634.54 369.849  10
   0   7  -5 1322.20 322.971   6
   0   7  -5 1201.78 418.778  16
   0   7  -6 14790.5 974.709  10
   0   7  -6 12998.8 925.178  12
   0   7  -6 11633.0 1071.72  16
   0   7  -6 12326.4 958.098   6
   0   7  -6 11279.2 895.677   5
   0   7  -7 33621.2 1778.62  16
   0   7  -7 35345.4 1451.90  12
   0   7  -7 34207.7 1557.62   6
   0   7  -8 593.574 249.180  12
   0   7  -8 651.136 285.571   6
   0   7  -8 530.268 216.870  16
   0   7  -9 443.120 230.653  16
   0   7  -9 664.943 277.225  12
   0   7  -9 373.200 236.523   6
   0   7 -10 382.663 275.693  16
   0   7 -10 548.711 261.669   6
   0   7 -10 581.325 268.606  12
   0   7 -11 1302.81 352.017  16
   0   7 -11 2009.75 340.994  12
   0   7 -12 2037.17 329.658  12
   0   7 -13 389.845 165.585   7
   0   7 -13 500.023 177.287  12
   0   7 -14 175.555 122.277  12
   0   7 -14 255.490 137.560   7
   0   8   0 13260.5 893.465   5
   0   8   0 13904.4 922.073  10
   0   8  -1 2049.07 413.591   5
   0   8  -1 2188.17 420.274  10
   0   8   2 269.639 299.651   5
   0   8  -2 660.385 299.523   5
   0   8  -2 59.0054 217.788   6
   0   8  -3 7813.19 677.404   5
   0   8   3 6075.84 665.690   5
   0   8  -4 10823.4 957.028  16
   0   8  -4 12310.7 964.392   6
   0   8  -4 12134.6 885.871   5
   0   8  -5 4213.33 630.538  16
   0   8  -5 8189.47 768.562  10
   0   8   5 1940.36 585.947   5
   0   8  -5 4552.71 615.780   6
   0   8  -5 4030.32 576.221   5
   0   8  -5 7735.62 635.546  12
   0   8  -6 792.666 350.118   6
   0   8  -6 251.297 208.432  16
   0   8  -6 630.482 221.977  12
   0   8   6 456.636 296.245   5
   0   8  -7 652.762 279.725  16
   0   8  -7 843.397 333.363   6
   0   8  -7 1200.13 352.589  12
   0   8  -8-292.785 177.971  12
   0   8  -8 23.3592 197.192   6
   0   8   8 68.6561 200.685   5
   0   8  -8 189.768 175.309  16
   0   8  -9 980.148 325.139  16
   0   8  -9 696.471 220.437   6
   0   8  -9 1207.14 282.917  12
   0   8   9 508.006 273.981   5
   0   8 -10 3588.39 407.121  12
   0   8 -10 2815.59 444.621  16
   0   8 -10 3185.32 404.966   6
   0   8 -11 316.416 186.273  12
   0   8  11 227.832 223.797   5
   0   8 -12 861.043 198.754  12
   0   9   0 542.848 238.897   5
   0   9   0 807.786 257.076  10
   0   9   0 421.831 330.977   6
   0   9  -1 5427.97 572.228  10
   0   9   1 5458.41 562.439  10
   0   9  -1 4292.50 474.385   5
   0   9  -1 4978.57 619.902   6
   0   9   1 4225.15 476.131   5
   0   9  -2 1488.52 358.300   6
   0   9  -2 1619.91 331.930   5
   0   9  -3 1325.01 346.593   6
   0   9   3 2565.50 448.558   5
   0   9   3 3131.65 468.638  10
   0   9  -3 1526.20 327.756  10
   0   9  -3 1280.54 298.073   5
   0   9  -4 2180.93 386.356  10
   0   9   4 3004.60 464.172   5
   0   9  -4 1834.21 344.596   5
   0   9  -4 2003.58 386.765   6
   0   9   5 5004.27 569.382   5
   0   9  -5 2075.00 397.004   6
   0   9  -6 1482.56 327.796  16
   0   9   6 1487.70 327.213   5
   0   9  -6 1686.67 364.412   6
   0   9  -7 695.380 188.491  12
   0   9  -7 451.727 220.879   6
   0   9   7 1085.79 364.365   5
   0   9  -7 359.517 186.237  16
   0   9  -8 586.218 214.285   6
   0   9  -8 622.259 167.420  12
   0   9  -8 274.411 135.958  16
   0   9  -9 6383.02 430.201  12
   0   9  -9 5704.03 479.027   6
   0   9 -10 638.314 166.322  12
   0  10   0 598.963 210.234   5
   0  10   0 374.516 146.607   6
   0  10  -1 3455.05 409.820   5
   0  10   1 3828.80 414.920  10
   0  10   1 3217.46 375.975   6
   0  10   1 3389.13 392.877   5
   0  10  -1 3282.02 399.455   6
   0  10  -1 3916.12 422.621  10
   0  10  -2 3615.70 405.546   5
   0  10  -2 5280.19 493.911  10
   0  10   2 5123.33 452.546   6
   0  10  -2 4197.97 452.960   6
   0  10   2 6108.21 499.280   5
   0  10  -3 631.947 192.340  10
   0  10   3 2432.70 314.042   5
   0  10  -3 674.098 178.415   6
   0  10   3 1750.38 281.018   6
   0  10  -4 2235.55 340.185   6
   0  10   4 1944.30 317.420  10
   0  10   4 1544.85 248.137   5
   0  10  -5 284.342 150.912   6
   0  10   5 732.117 210.531  10
   0  10  -6-49.6059 132.131   6
   0  10   6 226.609 168.756  10
   0  10   7 767.043 187.335   5
   0  10  -7 322.132 144.970   6
   1   0 -18 1944.98 388.076  11
  -1   0  18 1644.00 268.932   8
  -1   0  17-24.3856 127.142   8
   1   0 -17 21.0086 140.930  11
  -1   0  16 913.338 210.535   8
   1   0 -16 890.899 240.694  11
  -1   0  15-269.646 217.836   8
   1   0 -15 112.590 218.851  11
  -1   0  14 977.131 413.850   8
   1   0 -14 926.842 435.033  11
   1   0 -13 394.463 261.776  11
  -1   0  13-7.74628 186.595   8
   1   0 -12 1315.10 599.545   3
   1   0 -12 2057.55 497.041  11
  -1   0  12 1481.84 322.994   8
  -1   0  12 1971.22 660.729   1
  -1   0  11-160.921 359.952   1
  -1   0  10 6749.07 1239.68   1
  -1   0   9 47.8529 344.849   1
  -1   0   8 5731.64 897.199   1
  -1   0   7 150.435 207.189   1
  -1   0   6 7208.93 814.142   1
  -1   0   5 142.107 255.641   1
  -1   0   4 11008.5 991.934   1
  -1   0   3-41.1588 155.647   1
  -1   0   2 203091. 2625.64   1
  -1   0   1-84.2456 76.5092   1
   1   0   0 199021. 1434.07   2
   1   0   1 39.8979 92.3458   2
   1   0   2 11728.8 733.450   2
   1   0   3-13.7288 288.851   2
   1   0   4 11091.4 1128.04   1
   1   0   4 16354.3 1182.48   2
   1   0   5 29.8491 216.593   1
   1   0   7 62.8456 326.490   1
   1   0   8 6651.70 1131.07   1
   1   0   9-38.3841 206.107   1
  -1   0  -9 60.3812 277.355   3
  -1   0 -10 7322.38 1276.78   3
   1   0  10 5950.78 1134.80   1
   1   0  11-207.430 227.857   1
  -1   0 -11-199.292 380.966   3
   1   0  12 33979.3 1440.68   8
  -1   0 -12 30774.4 2990.93   3
  -1   0 -12 29862.4 1587.50  11
   1   0  13-54.5669 221.191   8
  -1   0 -13 191.497 259.833  11
  -1   0 -13-304.500 365.581   3
   1   0  14 18835.3 1016.32   8
  -1   0 -14 17491.6 1205.38  11
  -1   0 -15 43.7147 163.604  11
   1   0  15-144.951 188.061   8
   1   0  16 10028.4 683.441   8
  -1   0 -16 10673.3 872.526  11
  -1   0 -17-48.0685 131.758  11
   1   0  17 3.20664 140.841   8
  -1   0 -18 256.057 147.036  11
   1   1 -18 1419.73 267.451  11
  -1   1  18 1570.14 233.130   8
   1  -1 -18 1554.66 266.561  11
   1   1 -17 4394.86 496.506  11
   1  -1 -17 4011.75 481.353  11
  -1   1  17 4609.37 425.356   8
  -1  -1  17 4280.08 366.967   8
  -1  -1  16 201.911 217.052   8
   1  -1 -16 397.752 253.546  11
   1   1 -16 110.004 186.679  11
  -1   1  16 217.359 175.504   8
  -1   1  15 463.288 262.400   8
   1   1 -15 746.288 350.718  11
  -1  -1  15 370.760 247.359   8
   1  -1 -15 67.6052 187.731  11
   1  -1 -14 7314.91 827.663  11
   1   1 -14 8024.66 853.309  11
  -1   1  14 7124.46 711.512   8
  -1  -1  14 9386.77 747.091   8
   1  -1 -13 1190.49 445.573  11
   1  -1 -13 1440.98 773.656   3
  -1  -1  13 1528.89 406.454   8
  -1  -1  13 321.244 258.245   1
   1   1 -13 1570.56 496.017  11
  -1   1  13 1027.43 377.066   8
   1   1 -13 1102.35 568.730   3
   1   1 -12 8808.21 1456.87   3
  -1  -1  12 7928.45 661.933   8
   1  -1 -12 8171.24 886.765  11
  -1  -1  12 7796.81 1391.38   1
  -1   1  12 8183.13 729.348   8
   1   1 -12 8826.46 908.352  11
  -1  -1  11 157.338 321.664   1
   1   1 -11-79.3451 271.385   3
  -1  -1  10 3747.95 864.853   1
  -1   1  10 4052.39 771.874   1
  -1   1   9 1520.50 471.381   1
  -1  -1   9 1461.41 602.842   1
  -1   1   8 41137.9 2102.15   1
  -1  -1   8 43518.7 2688.41   1
  -1  -1   7 289.572 335.782   1
  -1   1   7 569.523 274.808   1
  -1   1   6 1309.65 350.753   1
  -1  -1   6 1169.92 400.081   1
  -1   1   5 15432.8 965.621   1
  -1  -1   5 15448.5 1285.04   1
  -1   1   4 137360. 2512.53   1
  -1  -1   4 140925. 3593.30   1
  -1   1   3 121037. 1995.51   1
  -1  -1   3 120770. 2951.33   1
  -1   1   2 50938.7 1122.90   1
  -1  -1   2 44402.9 1551.19   1
   1   1  -1 35128.7 913.007   2
  -1  -1   1 38319.8 1147.87   1
  -1  -1   0 70345.8 1084.64   1
   1   1   0 68908.6 1201.36   2
  -1  -1   0 69223.8 1034.35   3
   1   1   1 7337.96 454.216   2
   1   1   2 79299.3 2067.97   2
  -1   1  -2 86326.3 1771.10   3
   1   1   3 5224.55 947.381   2
   1   1   3 3451.08 555.168   1
  -1   1  -3 4476.75 509.237   3
   1   1   4 3317.64 537.939   2
  -1   1  -4 3022.46 475.086   3
   1   1   4 1728.75 396.720   1
   1   1   5-44.8437 75.4163   4
   1  -1   5-200.891 370.138   1
  -1   1  -5 259.277 215.817   3
   1   1   5-95.8510 179.325   1
   1   1   5-106.054 286.148   2
   1  -1   6 39852.5 2407.21   1
   1   1   6 40907.3 2185.96   2
  -1   1  -6 46130.4 2207.28   3
   1   1   7 6290.69 825.885   1
  -1   1  -7 7877.32 1032.54   3
   1   1   8 8050.81 1023.89   1
   1  -1   8 9112.25 1430.14   1
  -1   1  -8 9303.07 1219.47   3
   1  -1   9-212.297 365.786   1
   1   1   9 124.507 212.499   1
  -1   1  -9 115.839 197.490   3
   1  -1  10-250.454 457.750   1
  -1  -1 -10-26.5708 253.387   3
  -1   1 -10-47.3788 328.794   3
   1  -1  11 1486.52 615.549   1
  -1   1 -11 1829.12 697.352   3
  -1  -1 -11 1823.91 718.203   3
   1  -1  12 1528.69 627.005   1
  -1  -1 -12 1898.90 779.677   3
  -1  -1 -12 2221.67 456.241  11
   1  -1  12 2499.11 379.915   8
  -1   1 -12 2339.15 848.165   3
  -1   1 -12 2014.75 433.707  11
   1   1  12 2770.89 483.589   8
   1  -1  13 5283.35 530.487   8
  -1  -1 -13 5012.69 663.124  11
  -1   1 -13 5336.48 685.505  11
  -1  -1 -13 5431.37 1364.51   3
   1   1  13 6448.54 670.892   8
  -1   1 -13 4886.63 1201.66   3
  -1   1 -14 403.834 246.751  11
  -1  -1 -14-92.4087 220.171  11
   1  -1  14 205.729 178.373   8
   1   1  14 97.4676 217.299   8
  -1  -1 -15 1336.62 344.990  11
  -1   1 -15 1437.00 312.336  11
   1   1  15 1418.97 291.091   8
   1  -1  15 1552.06 301.010   8
   1  -1  16-17.8558 124.859   8
   1   1  16 213.143 186.935   8
  -1  -1 -16 346.014 212.236  11
  -1   1 -16 213.943 229.422  11
   1   1  17 945.214 235.618   8
   1  -1  17 583.940 197.871   8
  -1  -1 -17 658.476 229.482  11
  -1   1 -17 514.392 203.571  11
  -1  -1 -18 2978.53 350.875  11
   1   1  18 3624.09 331.694   8
  -1   1 -18 3750.88 415.700  11
   1  -2 -18 845.751 210.685  11
   1   2 -18 985.672 254.258  11
  -1   2  18 1042.49 251.712   8
   1   2 -17 3504.88 457.506  11
  -1   2  17 4149.97 455.592   8
   1  -2 -17 2934.67 389.062  11
   1   2 -16 1175.80 344.826  11
   1  -2 -16 1281.11 321.554  11
  -1   2  16 1211.58 308.942   8
  -1   2  15 3213.85 495.383   8
   1   2 -15 2316.17 420.394  11
   1  -2 -15 2692.65 467.279  11
   1   2 -14 504.675 258.144  11
  -1   2  14 697.868 288.600   8
   1  -2 -14 214.075 172.055  11
  -1  -2  13 16458.9 2163.09   1
   1  -2 -13 15970.1 2279.13   3
   1  -2 -13 17408.9 1249.31  11
  -1   2  13 19581.2 1097.54   8
   1   2 -13 20435.2 1305.37  11
   1  -2 -12 3373.47 623.113  11
   1   2 -12 3890.50 626.037  11
  -1  -2  12 3315.58 1050.60   1
  -1   2  12 3527.15 565.952   8
  -1  -2  11 2541.29 748.819   1
   1   2 -10 1511.36 512.128   3
  -1  -2  10 2045.19 762.647   1
   1   2  -9 4780.69 807.824   3
  -1  -2   9 4854.95 1015.85   1
  -1  -2   8 7804.82 1231.72   1
  -1   2   8 7954.56 751.965   1
  -1   2   7 9919.61 809.058   1
  -1  -2   7 8767.51 1172.56   1
  -1  -2   6 641.491 543.434   1
   1   2  -6 423.355 219.051   4
  -1   2   6 774.293 281.991   1
  -1   2   5 5255.00 447.412   1
  -1  -2   5 4550.70 773.998   1
   1   2  -5 4024.03 528.151   4
  -1  -2   4 200.896 251.923   1
  -1   2   3 5779.51 613.178   4
  -1  -2   3 7767.51 879.168   1
  -1   2   2 35453.8 1436.91   4
   1   2  -2 36274.7 1173.58   2
  -1  -2   1 18543.1 1014.56   1
   1   2  -1 17240.4 725.128   2
  -1  -2   0 9779.92 592.919   1
   1   2   0 8478.83 603.904   2
  -1  -2   0 8462.87 413.281   3
  -1  -2  -1 279.508 71.6914   1
  -1   2  -1 384.467 240.804   4
   1   2   1 459.601 225.485   2
  -1   2  -2 2440.94 443.864   4
   1   2   2 2216.59 359.311   2
   1   2   3 1160.83 292.437   2
  -1   2  -3 1122.22 291.036   4
   1   2   4-97.1205 398.709   2
   1   2   4 41.6216 37.9454   1
   1  -2   4 89.2477 347.707   1
  -1   2  -4 162.045 174.827   3
  -1   2  -5 32850.5 1635.34   3
   1   2   5 27087.0 1763.44   2
   1  -2   5 29026.0 1989.84   1
   1   2   5 21687.9 1173.02   4
   1   2   5 20593.4 845.410   1
   1  -2   6 1061.79 481.618   1
   1   2   6 2326.91 624.843   2
   1   2   6 1085.00 250.771   4
   1   2   6 1335.74 294.585   1
  -1   2  -6 1748.39 482.073   3
  -1   2  -7 1979.53 557.220   3
   1  -2   7 1553.10 673.235   1
  -1   2  -8 6873.51 1068.66   3
   1  -2   8 7126.65 1332.83   1
   1  -2   9-73.7219 414.182   1
  -1   2  -9 112.946 263.456   3
  -1   2 -10 18831.0 1905.90   3
   1  -2  10 14920.8 1963.23   1
  -1  -2 -10 15096.6 2014.21   3
   1  -2  11-455.828 493.142   1
  -1   2 -11-279.275 324.688   3
   1   2  11 199.595 262.066   8
  -1  -2 -11 16.8392 415.926   3
  -1   2 -11 5.22382 191.187  11
   1  -2  12 9498.87 1614.58   1
   1   2  12 13570.9 937.855   8
  -1   2 -12 11652.9 953.105  11
  -1  -2 -12 10638.6 1909.70   3
  -1  -2 -12 11518.7 937.060  11
   1   2  13 13321.6 940.373   8
  -1   2 -13 11877.4 976.249  11
  -1  -2 -13 11279.2 922.787  11
  -1  -2 -13 10200.4 1933.82   3
   1   2  14 6308.29 624.615   8
  -1  -2 -14 5641.52 645.599  11
  -1   2 -14 5762.27 676.918  11
   1   2  15 5062.15 557.845   8
  -1   2 -15 4568.98 590.296  11
  -1  -2 -15 4082.27 527.532  11
   1   2  16 9195.56 679.636   8
  -1  -2 -16 7722.65 683.645  11
  -1   2 -16 8901.13 782.409  11
  -1   2 -17 1226.70 305.667  11
   1   2  17 1123.90 240.609   8
  -1  -2 -17 881.013 249.238  11
   1   2  18 918.492 192.554   8
  -1   2 -18 843.697 203.479  11
  -1   2 -18 1236.97 220.791   7
  -1   3  18 2562.79 267.390   8
   1   3 -18 2576.54 304.650  11
  -1   3  17 734.528 258.528   8
   1   3 -17 684.468 258.511  11
  -1   3  16 12129.3 787.910   8
   1   3 -16 10070.1 804.942  11
   1   3 -15 2535.01 458.575  11
  -1   3  15 3403.92 537.261   8
   1   3 -14 14504.8 858.353  12
  -1   3  14 16748.4 1031.53   8
   1   3 -14 14298.7 1015.32  11
   1   3 -13 7672.48 747.215  12
  -1   3  13 8461.29 821.481   8
   1   3 -13 8931.10 849.585  11
   1   3 -12 11313.5 830.558  12
  -1   3  12 13171.9 884.214   8
  -1  -3  12 13776.7 1972.93   1
   1   3 -12 14360.8 1016.71  11
  -1   3  11 4589.01 587.811   8
  -1  -3  11 5039.27 1239.62   1
   1   3 -11 5017.46 617.138  11
  -1   3  11 4188.68 522.139   9
   1   3 -11 5351.80 671.109  16
  -1  -3  10 1589.41 599.643   1
  -1  -3   9 3314.54 902.757   1
  -1  -3   8 2396.01 764.093   1
  -1  -3   7 15508.8 1672.56   1
   1   3  -7 13066.4 1041.79   4
   1   3  -6 22711.5 1429.82   4
  -1  -3   6 28062.8 2192.60   1
  -1  -3   5 7905.66 1098.06   1
   1   3  -5 6137.27 794.728   4
   1   3  -4 22243.5 1581.18   4
  -1   3   4 19556.9 1403.00   4
   1   3  -3 5877.88 595.615   2
  -1   3   3 6278.98 786.497   4
   1   3  -2-43.3667 194.198   2
  -1  -3   2 506.989 312.527   1
  -1   3   2 214.060 191.057   4
  -1   3   1 17910.9 1276.79   4
   1   3  -1 18707.0 830.964   2
  -1  -3   1 18691.8 1182.75   1
  -1  -3   0 48755.8 1571.93   1
  -1   3   0 51373.7 2125.35   4
  -1   3  -1 9831.51 1007.06   4
   1   3   1 9303.72 731.253   2
  -1   3  -2 24379.7 1548.28   4
   1   3   2 24209.1 1422.93   2
   1   3   3 67415.8 2623.36   2
  -1   3  -3 65731.4 2712.37   4
   1   3   3 62366.1 2700.57   4
   1   3   4 702.114 294.275   4
  -1   3  -4 740.748 334.076   4
   1  -3   4 850.381 408.067   1
   1   3   4 631.154 446.027   2
   1   3   5-105.597 389.469   2
   1   3   5 104.380 201.472   4
   1  -3   6 697.503 350.936   1
   1   3   6 509.183 217.571   4
   1   3   6 980.383 469.074   2
   1  -3   8 109.086 426.112   1
   1  -3   9-97.3283 352.458   1
  -1  -3 -10 2853.42 973.360   3
   1  -3  10 3473.35 1037.53   1
  -1   3 -10 2946.91 498.667  16
  -1   3 -11 2872.78 452.591  12
   1  -3  11 2074.65 910.407   1
   1   3  11 3660.91 500.615   8
  -1  -3 -11 2524.82 913.679   3
  -1   3 -11 2776.75 426.845  11
  -1   3 -12 1199.77 298.645  11
   1   3  12 1715.64 389.420   8
  -1  -3 -12 1330.04 755.709   3
  -1   3 -12 1207.16 294.043  12
   1  -3  12 474.602 355.640   1
   1   3  13 171.497 214.797   8
  -1   3 -13-74.2739 171.575  12
  -1   3 -13 29.5200 159.750  11
  -1   3 -14 316.510 152.657  12
  -1   3 -14 452.229 205.228  11
   1   3  14 471.481 237.691   8
   1   3  15 1558.19 313.697   8
  -1   3 -15 1464.38 330.754  11
   1   3  16 207.208 172.916   8
  -1   3 -16 409.405 210.177  11
  -1   3 -17 98.9491 129.809  11
   1   3  17 101.861 151.521   8
  -1   4  17 578.992 194.240   8
   1   4 -17 254.356 129.268  11
   1   4 -16 71.2390 106.817  11
  -1   4  16-15.6797 125.603   8
   1   4 -15 5610.52 562.231  11
   1   4 -15 4450.12 481.683  12
   1   4 -14 1521.75 341.215  11
   1   4 -14 1585.76 312.016  12
  -1   4  14 1845.02 361.383   8
  -1   4  13 901.539 374.424   8
   1   4 -13 950.945 331.814  12
   1   4 -13 560.483 261.442  11
   1  -4 -12 15028.3 2341.96   3
   1   4 -12 17205.3 1101.69  12
   1   4 -12 18920.8 1132.12  11
   1   4 -12 19354.4 1363.31  16
  -1   4  12 18048.8 1142.45   8
  -1   4  11 7878.31 682.333   8
   1   4 -11 7188.48 670.572  12
   1   4 -11 7919.11 717.319  11
   1   4 -11 7452.11 812.622  16
  -1   4  11 6287.16 616.463   9
  -1  -4  11 7202.68 1444.71   1
  -1   4  10 4081.21 527.209   9
  -1   4  10 4672.48 535.190   8
   1   4 -10 4370.58 621.117  16
   1   4 -10 4597.39 524.521  11
  -1  -4  10 3683.39 1102.74   1
  -1  -4   9 1317.84 670.488   1
  -1  -4   8 8975.99 1440.14   1
  -1  -4   7 5293.45 1028.22   1
   1   4  -7 4323.37 739.544   4
   1   4  -6 8189.21 917.370   2
  -1  -4   6 9441.56 1328.89   1
   1   4  -6 7879.95 999.446   4
   1   4  -5 3224.69 542.143   2
  -1  -4   5 4625.37 947.640   1
   1   4  -5 3750.59 669.411   4
   1   4  -4 282.494 179.775   2
  -1  -4   4 647.724 406.592   1
   1   4  -4 623.325 389.907   4
  -1   4   4 660.792 453.810   4
  -1   4   3 313.459 295.162   4
  -1  -4   3 498.377 342.198   1
   1   4  -3 275.701 137.656   2
   1   4  -3 399.831 383.006   4
  -1  -4   2 26717.2 1742.23   1
  -1   4   2 24637.1 1785.30   4
   1   4  -2 23626.4 1110.64   2
   1   4  -2 27241.7 1918.87   4
  -1  -4   1 38761.3 1872.16   1
  -1   4   1 37127.7 2129.00   4
   1   4  -1 40706.4 2390.66   4
   1   4   0 548.394 199.227   2
  -1  -4   0 362.233 170.615   1
  -1   4   0 539.453 317.828   4
   1   4   0 383.902 238.034   4
   1   4   1 2403.76 496.738   2
  -1   4  -1 2898.32 682.167   4
   1   4   1 2843.03 740.442   4
  -1  -4  -1 2339.19 352.949   3
   1  -4   1 2696.36 604.860   1
   1  -4   2 16972.6 1533.27   1
   1   4   2 14899.8 1447.77   4
  -1   4  -2 15680.5 1488.49   4
   1   4   2 13730.6 1222.15   2
   1   4   3 220.350 281.724   2
  -1   4  -3 622.337 364.805   4
   1  -4   3 795.217 493.323   1
   1   4   4 900.088 382.191   2
  -1   4  -4 975.668 426.557   4
   1   4   4 1127.11 450.981   4
   1   4   5 1598.18 436.387   4
   1   4   5 1732.01 553.288   2
   1  -4   5 2259.22 683.774   1
   1   4   6 25210.4 2062.75   2
   1   4   6 25173.3 1748.71   4
   1  -4   7 6787.16 1318.66   1
   1  -4   8 21173.6 2387.19   1
  -1  -4  -8 18703.4 2133.64   3
   1  -4   9 5832.98 1268.98   1
  -1   4  -9 5335.32 700.561  16
  -1   4  -9 5597.10 590.803  12
  -1  -4  -9 4385.88 1106.44   3
  -1   4 -10 210.190 235.015  11
   1  -4  10-81.5962 405.752   1
  -1   4 -10-147.969 202.212  12
  -1  -4 -10 79.9066 294.845   3
  -1   4 -10 35.0615 181.318  16
   1   4  10 48.4872 187.089   8
  -1  -4 -11 357.420 517.125   3
  -1   4 -11 430.495 258.938  11
  -1   4 -11 215.329 210.760  12
   1  -4  11-591.778 768.657   1
   1   4  11 507.031 280.725   8
  -1   4 -12 2133.91 385.573  12
   1   4  12 2312.91 406.068   8
  -1   4 -12 1909.36 393.745  11
  -1   4 -13 5567.94 568.813  12
   1   4  13 6890.17 634.108   8
  -1   4 -13 5983.69 658.000  11
   1   4  14 3489.02 457.066   8
  -1   4 -14 2670.19 382.205  12
  -1   4 -14 3168.93 490.727  11
  -1   4 -15 82.6185 180.177  12
   1   4  15 83.4332 229.309   8
  -1   4 -15 35.2278 126.300  11
  -1   4 -16 5727.81 534.128  11
  -1   4 -16 4732.60 442.646  12
   1   4  16 6333.55 519.328   8
  -1   4 -17 5672.63 470.800  11
   1   4  17 6266.38 436.202   8
  -1   4 -17 4864.62 343.098   7
   1   5 -16 992.872 197.905  11
   1   5 -16 667.250 187.166  12
  -1   5  15 33.8994 144.574   8
   1   5 -15 165.848 99.4724  11
  -1   5  14 4743.42 521.870   8
   1   5 -14 4057.73 479.321  11
   1   5 -14 4622.60 503.000  12
   1   5 -13 1901.64 344.161  12
   1   5 -13 2196.46 358.901  11
  -1   5  13 2037.84 316.948   8
   1   5 -12 3029.30 453.445  11
   1   5 -12 2041.43 507.843  16
  -1   5  12 2456.34 516.008   8
   1   5 -12 3118.27 542.023  12
   1   5 -11 30764.4 1449.33  12
  -1   5  11 27752.6 1275.96   9
  -1   5  11 30282.5 1379.89   8
   1   5 -11 31507.2 1367.49   6
   1   5 -11 31403.7 1704.20  16
  -1  -5  10 4083.69 1166.22   1
  -1   5  10 3947.43 480.563   8
   1   5 -10 4492.26 492.967   6
   1   5 -10 4985.14 783.920  16
   1   5  -9 1711.57 353.173   6
   1   5  -9 1598.75 426.501  16
  -1  -5   9 1375.38 678.686   1
  -1   5   9 1548.98 326.777   8
  -1  -5   8 2787.50 782.671   1
   1   5  -8 3036.22 537.198  16
  -1  -5   7 1091.52 631.302   1
   1   5  -7 2446.03 918.304   4
  -1  -5   6 242.139 382.523   1
   1   5  -6-237.248 311.993   4
   1   5  -5 2314.84 683.872   4
  -1  -5   5 2564.49 778.326   1
   1   5  -4 1057.32 577.019   4
  -1   5   4 1328.49 601.620   4
  -1  -5   4 966.009 495.376   1
  -1  -5   3 1367.91 534.718   1
   1   5  -3 1609.56 599.115   4
  -1   5   3 2349.28 914.229   4
  -1  -5   2 351.036 321.571   1
  -1   5   2 405.713 383.642   4
   1   5  -2 223.386 347.014   4
  -1   5   1 25974.4 2166.29   4
   1   5  -1 25633.2 2111.17   4
  -1  -5   1 26416.1 1655.57   1
  -1   5   0 42069.4 2686.89   4
   1   5   0 39916.1 2624.41   4
   1  -5   0 36240.1 2037.34   1
   1  -5   1 44156.4 2470.74   1
  -1   5  -1 46628.5 2864.07   4
   1   5   1 43397.6 2715.49   4
  -1   5  -2 5248.96 1007.42   4
   1  -5   2 6259.94 958.502   1
   1   5   2 4904.94 894.134   4
   1   5   3 3145.39 726.061   4
   1  -5   3 4414.57 896.189   1
  -1   5  -3 4234.22 919.620   4
   1   5   4 3480.96 736.325   2
   1   5   4 4008.38 842.286   4
   1  -5   4 4481.78 1006.05   1
  -1  -5  -5 11763.3 1344.78   3
   1  -5   5 14070.2 1840.56   1
   1   5   5 10624.5 1258.32   2
   1   5   5 11574.2 1409.54   4
  -1  -5  -6 1210.13 1101.75   3
   1   5   6 446.816 190.864   4
   1  -5   6 520.702 458.366   1
   1  -5   7 10429.9 1701.63   1
  -1  -5  -7 8788.22 1414.54   3
   1  -5   8 205.960 425.717   1
  -1   5  -8 263.364 207.009   6
  -1   5  -8 284.405 204.487  12
  -1   5  -8 115.571 249.867  16
  -1  -5  -8 210.423 291.614   3
  -1   5  -9 904.823 302.229  12
  -1  -5  -9 1035.07 625.445   3
  -1   5  -9 520.111 236.295   6
  -1   5  -9 547.489 290.325  16
   1  -5   9 446.174 403.049   1
   1   5   9 1064.47 306.475   8
  -1   5 -10 4918.85 712.788  16
  -1  -5 -10 3002.53 1000.06   3
   1   5  10 4739.88 558.019   8
  -1   5 -10 4125.74 549.818   6
  -1   5 -10 4205.22 540.310  11
  -1   5 -10 4758.12 569.388  12
   1   5  11 64.9112 169.563   8
  -1   5 -11 133.613 133.635  11
  -1   5 -11 184.376 193.371  12
  -1   5 -11 148.816 186.535  16
  -1   5 -12 6307.89 640.741  12
   1   5  12 6231.26 621.052   8
  -1   5 -12 6133.02 617.920  11
  -1   5 -13 2400.60 392.706  11
   1   5  13 3084.36 410.265   8
  -1   5 -13 2650.87 388.890  12
  -1   5 -14 737.925 226.982  11
   1   5  14 608.112 238.157   8
  -1   5 -14 1055.01 311.509  12
  -1   5 -15 541.120 182.995  12
   1   5  15 485.557 155.576   8
   1   5  16 217.218 131.708   8
  -1   5 -16 62.9890 133.155   7
  -1   5 -16 115.225 91.0206  12
  -1   6  15 330.601 133.381   8
   1   6 -15 319.011 141.360  12
  -1   6  14 3215.04 414.628   8
   1   6 -14 3095.38 400.553  12
  -1   6  13 1170.63 266.306   8
   1   6 -13 1375.63 315.560  12
   1   6 -12 58.9703 193.704  16
   1   6 -12 368.886 209.880  12
  -1   6  12 509.438 222.886   8
  -1   6  11 2357.32 370.643   8
   1   6 -11 1672.79 403.757  16
   1   6 -11 2067.87 385.498   6
   1   6 -11 2535.85 452.273  12
   1   6 -10 8153.70 734.422  12
   1   6 -10 9145.47 920.978  16
   1   6 -10 7958.52 702.484   6
   1   6  -9 2374.38 480.774  16
   1   6  -9 2853.41 488.546   6
   1   6  -9 2928.82 477.145  12
   1   6  -8 28351.6 1611.40  16
  -1  -6   8 24526.7 2703.46   1
   1   6  -8 26343.0 1289.67   6
   1   6  -7 9010.90 768.774   6
   1   6  -7 9698.36 949.533  16
  -1  -6   7 8844.05 1505.08   1
   1   6  -6 1435.92 369.725   5
   1   6  -6 1545.44 385.813  10
   1   6  -6 1225.82 337.553   6
   1   6  -6 2078.31 764.202   4
  -1  -6   6 1126.06 596.902   1
   1   6  -6 1163.63 369.388  16
  -1  -6   5 6143.35 1194.79   1
   1   6  -5 5301.73 1034.62   4
   1   6  -4 1573.37 735.810   4
  -1  -6   4 1489.70 592.472   1
   1   6  -3 4416.86 989.919   4
   1   6  -2 4271.20 1089.32   4
  -1   6   2 4458.05 994.683   4
   1   6  -1 19683.0 2008.64   4
  -1   6   1 21134.3 2141.87   4
  -1   6   0 1203.07 1062.40   4
   1   6   0-124.238 382.164   4
  -1   6  -1 1000.34 595.992   4
   1   6   1 689.067 297.454   4
   1   6   2 52107.2 3303.33   4
  -1   6  -2 56490.5 3588.62   4
   1   6   3 4653.96 990.821   4
   1  -6   3 4304.47 953.673   1
   1  -6   4 1641.72 575.045   1
   1   6   4 1230.66 524.373   4
  -1   6  -5 5966.76 585.523  10
  -1   6  -5 7078.42 686.093   6
   1  -6   5 5747.88 1282.66   1
  -1   6  -5 5137.18 555.694   5
   1   6   5 5309.08 1042.23   4
   1  -6   6 825.695 549.515   1
  -1   6  -6 860.526 245.214  10
  -1   6  -6 825.136 257.837   6
  -1   6  -6 787.743 260.393  12
  -1   6  -6 764.885 289.538  16
   1  -6   7 1588.91 603.408   1
  -1   6  -7 1740.87 486.636  16
  -1   6  -7 1938.22 432.873   6
  -1   6  -7 1758.99 370.417  12
  -1   6  -8 2727.24 459.646  12
   1  -6   8 2447.76 845.821   1
  -1   6  -8 2016.13 448.393   6
  -1   6  -8 2421.31 516.355  16
  -1   6  -9 1220.54 370.084  16
  -1   6  -9 1045.80 326.329   6
  -1   6  -9 1372.87 356.769  12
  -1   6 -10 1795.29 367.756  12
  -1   6 -10 1676.93 416.814  16
  -1   6 -10 1468.68 364.579   6
  -1   6 -11 7113.94 687.890  12
   1   6  11 6685.12 564.840   8
  -1   6 -12 1303.19 317.992  12
   1   6  12 781.491 228.868   8
  -1   6 -13 3923.78 450.631  12
   1   6  13 2808.78 364.769   8
  -1   6 -14 313.779 146.408  12
   1   6  14 669.934 173.818   8
  -1   6 -15 316.791 135.619   7
   1   6  15-69.0018 90.5085   8
  -1   6 -15 155.215 116.315  12
   1   7 -14 3102.17 313.488  12
   1   7 -14 2723.00 250.233   7
   1   7 -13 860.286 226.637  12
   1   7 -12 405.953 213.601  12
   1   7 -11 1157.67 299.414  12
   1   7 -11 1119.21 371.927  16
   1   7 -10 735.172 312.510  16
   1   7 -10 1055.37 279.771  12
   1   7 -10 371.920 200.080   6
   1   7  -9 2318.41 417.663  12
   1   7  -9 1237.40 312.046   6
   1   7  -9 1292.17 397.743  16
   1   7  -8 484.841 272.257   6
   1   7  -8 578.402 260.491  12
   1   7  -8 353.119 205.246  16
   1   7  -7 3120.42 489.490  12
   1   7  -7 2979.86 570.244   6
   1   7  -6 19189.6 1107.65  12
   1   7  -6 20551.2 1124.03   5
   1   7  -6 22429.0 1151.12  10
   1   7  -6 20797.1 1219.49   6
   1   7  -6 18232.1 1324.99  16
   1   7  -5 591.549 332.118   6
   1   7  -5 211.977 201.168   5
   1   7  -5 482.686 256.732  10
   1   7  -5 183.028 229.323  16
  -1   7   5 443.168 220.485   5
   1   7  -4 6052.61 764.716  16
  -1   7   4 5068.41 615.000   5
   1   7  -4 6274.79 579.210   5
   1   7  -4 6061.86 1187.38   4
   1   7  -3 789.271 654.106   4
  -1   7   3 176.855 287.525   5
   1   7  -2 7040.57 745.747  10
   1   7  -2 4739.92 1292.65   4
   1   7  -2 3876.33 628.603  16
  -1   7   2 7891.14 762.846   5
   1   7  -1 20230.6 1106.73   5
   1   7  -1 23489.6 2449.13   4
  -1   7   1 19847.5 1072.51   5
   1   7  -1 23590.7 1117.22  10
  -1   7   0 2235.05 402.456   5
   1   7   0 2770.25 454.554   5
   1   7   0 3094.03 917.099   4
  -1   7  -1 12338.4 842.587  10
   1   7   1 10495.3 1624.10   4
   1   7   1 10681.2 895.782   5
  -1   7  -2 3187.30 627.593  10
   1   7   2 504.128 536.246   4
  -1   7  -3 4088.25 572.291   6
   1   7   3 2985.95 575.484   5
   1   7   3 2910.62 836.398   4
  -1   7  -3 3570.30 490.551  10
  -1   7  -3 2997.16 421.519   5
  -1   7  -4 1149.75 323.755   6
  -1   7  -4 1058.35 301.041  12
   1   7   4 993.889 415.165   4
  -1   7  -4 852.646 314.253   5
  -1   7  -5 4793.62 583.209   5
  -1   7  -5 4510.28 611.664  16
  -1   7  -5 5111.58 547.505  12
  -1   7  -5 5047.52 584.575  10
  -1   7  -5 5769.11 669.639   6
  -1   7  -6 11568.7 842.238  12
  -1   7  -6 9914.70 966.905  16
  -1   7  -6 10547.4 924.485   6
  -1   7  -6 10905.9 850.292  10
  -1   7  -7 5466.34 681.216   6
  -1   7  -7 5362.18 754.151  16
  -1   7  -7 6696.66 680.026  12
  -1   7  -8 18.0460 176.899   6
  -1   7  -8 68.3346 184.899  12
  -1   7  -8 122.642 244.325  16
  -1   7  -9 70.4627 223.937  16
  -1   7  -9 137.152 179.970   6
  -1   7  -9 278.063 200.022  12
  -1   7 -10 5556.56 595.614   6
  -1   7 -10 7271.55 641.145  12
  -1   7 -10 5664.39 748.843  16
  -1   7 -11 814.110 264.614  12
  -1   7 -12 6490.91 543.364  12
  -1   7 -12 5307.94 391.390   7
  -1   7 -13 513.042 144.723   7
  -1   7 -13 994.779 226.876  12
  -1   7 -14 3795.03 258.471   7
  -1   7 -14 3848.45 331.945  12
   1   8 -12 1237.65 211.633  12
   1   8 -11 907.620 239.859  12
   1   8 -10 2575.00 350.660  12
   1   8 -10 2123.56 426.117  16
   1   8 -10 2298.69 360.297   6
  -1   8   9 1535.16 320.103   5
   1   8  -9 2535.67 384.866   6
   1   8  -9 2530.27 340.495  12
   1   8  -9 2291.90 438.416  16
   1   8  -8 537.563 211.098  12
  -1   8   8-80.8071 210.390   5
   1   8  -8 483.478 265.248   6
   1   8  -8 201.160 180.107  16
   1   8  -7 7348.75 685.336   6
   1   8  -7 6085.02 725.174  16
   1   8  -7 6627.96 622.187  12
   1   8  -6 415.812 269.386  16
   1   8  -6 445.285 197.026  12
   1   8  -6 317.132 169.401   6
  -1   8   6 215.023 266.707   5
   1   8  -5 34526.4 1340.38  12
   1   8  -5 33451.1 1574.40   6
   1   8  -5 33503.5 1458.96   5
   1   8  -5 34724.0 1441.55  10
   1   8  -4 25870.8 1228.41  10
   1   8  -4 21596.5 1365.05  16
  -1   8   4 20811.1 1197.07   5
   1   8  -4 24052.8 1180.52   5
  -1   8   3 8263.55 722.298   5
   1   8  -3 10229.0 827.703   5
   1   8  -3 7279.82 814.854  16
   1   8  -3 11312.8 873.859  10
   1   8  -2 555.875 241.049  16
  -1   8   2 743.427 321.141   5
  -1   8   1 624.532 218.085   5
  -1   8   1 1319.27 351.246  10
   1   8  -1 1195.37 344.711  10
  -1   8   0 2274.16 397.715   5
   1   8   0 2256.48 540.629  10
   1   8   0 1971.80 544.740   5
  -1   8  -1 11656.1 885.224  10
  -1   8  -1 10034.3 781.610   5
  -1   8  -1 12386.7 995.765   6
   1   8   1 10781.9 870.242   5
  -1   8  -2 872.492 242.557   5
  -1   8  -2 1024.51 294.848  10
  -1   8  -2 1676.16 423.967   6
   1   8   2 1740.77 482.298   5
  -1   8  -3 1731.34 378.090   6
  -1   8  -3 1303.33 335.969   5
  -1   8  -4 3213.21 516.697   6
   1   8   4 3381.55 588.938   5
  -1   8  -4 3949.34 561.015  10
  -1   8  -4 2677.60 421.640   5
  -1   8  -5 4187.33 544.089  10
  -1   8  -5 3626.45 565.271  16
  -1   8  -5 4221.97 607.573   6
  -1   8  -5 4610.24 478.895  12
  -1   8  -6 84.7338 149.080  16
  -1   8  -6-38.6211 162.967  12
  -1   8  -6 115.521 204.303   6
   1   8   6 644.193 539.791   5
  -1   8  -7 765.338 251.220  12
   1   8   7 582.479 244.157   5
  -1   8  -7 687.959 262.037   6
  -1   8  -7 671.408 271.647  16
  -1   8  -8 93.9400 211.109   6
  -1   8  -8 257.952 175.478  12
   1   8   8 205.218 315.883   5
  -1   8  -8 104.013 218.826  16
  -1   8  -9 226.278 166.628   6
   1   8   9-54.7929 232.166   5
  -1   8  -9-97.4556 161.933  16
   1   8  10 418.349 188.961   5
  -1   8 -10 225.254 167.078  12
   1   8  11 1405.77 241.563   5
  -1   8 -11 2539.21 313.603  12
  -1   8 -12 739.902 173.165  12
   1   8  12 524.221 203.584   5
   1   9 -10 918.931 186.001  12
   1   9  -9 3859.90 376.749  12
   1   9  -9 2624.60 362.478   6
   1   9  -8 692.341 318.941  16
  -1   9   8 477.768 211.209   5
   1   9  -8 674.287 217.816   6
   1   9  -8 985.231 212.221  12
   1   9  -7 479.373 248.730  16
   1   9  -7 655.695 238.499   6
   1   9  -7 1181.63 241.727  12
   1   9  -6 65.2807 156.885  16
   1   9  -6 205.664 188.618   6
  -1   9   5 1435.76 297.622   5
   1   9  -5 1228.09 321.884   6
   1   9  -5 743.606 228.324  16
   1   9  -4 404.339 235.843  16
   1   9  -4 1289.50 322.578  10
   1   9  -4 981.031 330.016   5
  -1   9   4 808.892 276.439   5
   1   9  -4 953.467 370.363   6
  -1   9   3 966.652 281.015  10
   1   9  -3 257.441 189.165  10
   1   9  -3 541.871 308.417   6
   1   9  -3 108.100 221.562   5
  -1   9   3 370.694 243.425   6
  -1   9   2 742.909 277.094   5
  -1   9   2 525.283 266.846   6
   1   9  -2 676.441 281.549   5
   1   9  -1 2808.31 447.278  10
  -1   9   1 4050.13 516.746  10
  -1   9   1 2696.24 417.543   5
   1   9  -1 2234.15 376.999   5
  -1   9   1 2466.45 463.825   6
  -1   9   0 1444.91 348.525   6
  -1   9   0 1253.57 287.364  10
   1   9   0 1463.71 340.681  10
   1   9   0 1520.09 332.478   5
  -1   9   0 1285.74 325.943   5
  -1   9  -1 2411.60 454.300   6
  -1   9  -1 3286.72 476.049  10
  -1   9  -1 1653.72 354.748   5
   1   9   1 2068.74 395.891  10
  -1   9  -2 25392.4 1251.55  10
  -1   9  -2 27574.4 1318.94   6
   1   9   2 25034.2 1202.59   5
   1   9   2 25114.3 1217.91  10
  -1   9  -2 22451.0 1123.54   5
   1   9   3 3858.21 477.065  10
  -1   9  -3 3471.03 476.150   5
   1   9   3 3331.04 473.219   5
  -1   9  -3 4008.81 515.388   6
  -1   9  -3 4067.59 494.570  10
   1   9   4 4897.82 589.538   5
  -1   9  -4 3855.30 521.991   5
  -1   9  -4 4810.91 559.605   6
  -1   9  -4 4561.28 539.628  10
   1   9   5 5830.37 600.546   5
  -1   9  -5 7728.77 670.756   6
  -1   9  -6 216.970 222.099   6
   1   9   6 210.356 191.585   5
   1   9   7 3605.85 462.290   5
  -1   9  -7 5014.31 409.423  12
  -1   9  -7 4312.25 494.340   6
  -1   9  -8 250.777 124.437  12
  -1   9  -8 346.691 166.336   6
   1   9   8 417.567 292.897   5
  -1   9  -9 664.203 185.268  12
   1   9   9 118.385 166.090   5
  -1   9 -10 7318.27 437.310  12
   1   9  10 4198.91 327.639   5
   1  10  -7 297.107 136.354   6
  -1  10   6 361.027 165.641  10
  -1  10   6 22.6273 129.058   5
   1  10  -6 464.811 177.369   6
   1  10  -5 1229.81 231.216   6
  -1  10   5 843.181 176.284   5
  -1  10   5 1516.39 259.400  10
  -1  10   4 1923.63 304.084  10
   1  10  -4 1911.31 323.002   6
  -1  10   4 1213.18 233.263   5
  -1  10   3 466.240 215.970  10
   1  10  -3-39.9665 195.951  10
   1  10  -3 440.852 211.226   6
  -1  10   2 1136.29 217.288   6
   1  10  -2 859.842 273.764   6
   1  10  -2 1134.57 269.679   5
  -1  10   2 848.994 234.132   5
   1  10  -2 1282.19 280.505  10
  -1  10   1 749.248 218.439   6
  -1  10   1 810.370 212.482   5
   1  10  -1 293.415 195.614   6
   1  10  -1 399.004 203.049   5
   1  10  -1 600.112 221.481  10
   1  10   0 2327.87 327.890   5
  -1  10   0 1904.80 320.179  10
  -1  10   0 1745.23 291.585   6
   1  10   0 1868.39 348.899   6
  -1  10   0 1126.30 244.636   5
   1  10   0 2473.97 355.376  10
  -1  10  -1 367.437 193.013   5
  -1  10  -1 861.455 212.327   6
  -1  10  -1 1301.33 307.562  10
   1  10   1 511.782 205.257   5
   1  10   1 625.662 209.178  10
   1  10   1 63.8399 167.595   6
   1  10   2 13327.3 991.475   5
   1  10   2 13736.4 961.979   6
  -1  10  -2 9106.71 678.332  10
   1  10   2 16411.8 966.746  10
  -1  10  -3 5050.93 447.943  10
   1  10   3 5284.34 476.376   5
   1  10   3 3813.48 392.877   6
  -1  10  -3 5167.29 494.195   6
   1  10   4 1690.42 288.629  10
   1  10   4 1911.07 295.526   5
  -1  10  -4 1006.13 225.400   6
   1  10   5 795.740 193.576  10
   1  10   5 1017.67 243.921   5
  -1  10  -5 993.023 232.247   6
  -1  10  -6 49.6512 143.702   6
   1  10   6 116.866 125.004   5
   1  10   6 156.400 144.968  10
   1  10   7 2023.62 268.597  10
   1  10   7 1497.50 216.982   5
   2   0 -18 472.277 177.168  11
  -2   0  18 782.069 233.338   8
  -2   0  17 221.264 170.674   8
   2   0 -17 46.4884 210.689  11
  -2   0  16 3403.18 606.292   8
   2   0 -16 2342.99 392.826  11
   2   0 -15 157.969 230.949  11
  -2   0  15 29.7871 169.890   8
  -2   0  14 760.048 248.685   8
   2   0 -14 691.603 301.273  11
   2   0 -14 467.473 359.381   3
   2   0 -13 249.151 246.150  11
  -2   0  13-129.896 162.336   8
  -2   0  12 7557.66 673.170   8
  -2   0  12 8483.27 1342.87   1
   2   0 -12 7722.36 872.450  11
  -2   0  11-187.245 238.159   1
  -2   0  10 463.622 413.597   1
  -2   0   9 148.685 272.679   1
  -2   0   8 203893. 5299.48   1
  -2   0   7 145.402 261.724   1
  -2   0   6 103269. 3204.87   1
  -2   0   5 81.8313 233.225   1
  -2   0   4 2153.12 390.138   1
  -2   0   3 72.9197 220.169   1
  -2   0   2 247833. 3213.65   1
  -2   0   1 256.886 127.146   1
   2   0   0 31952.7 830.623   2
   2   0   1 105.686 126.600   2
   2   0   2 6606.44 582.931   2
   2   0   3 123.651 314.912   2
  -2   0  -4 39770.0 1873.45   3
   2   0   4 36518.4 1811.25   2
  -2   0  -5-53.9902 192.455   3
   2   0   5-281.130 290.834   2
  -2   0  -6 17999.1 1533.64   3
   2   0   6 17005.6 1367.84   2
   2   0   7 190.749 262.238   1
  -2   0  -7 175.144 259.431   3
  -2   0  -8 1167.18 496.248   3
   2   0   8 378.895 431.546   1
   2   0   9 227.845 365.404   1
  -2   0  -9-47.1155 235.924   3
   2   0  10 21600.1 2254.13   1
  -2   0 -10 31163.8 2804.36   3
  -2   0 -11 417.121 532.861   3
  -2   0 -12 67870.0 4582.55   3
   2   0  12 69846.9 1984.63   8
  -2   0 -12 69646.1 2361.59  11
  -2   0 -13 142.496 170.568  11
   2   0  13 180.710 157.224   8
  -2   0 -13-78.6388 307.445   3
  -2   0 -14 48546.5 1955.97  11
   2   0  14 46658.4 1627.86   8
  -2   0 -15-82.2638 185.418  11
   2   0  15 12.4605 184.011   8
   2   0  16 3644.74 448.767   8
  -2   0 -16 4101.41 585.190  11
  -2   0 -17 103.496 171.624  11
   2   0  17 129.582 117.103   8
  -2   0 -18 474.755 174.597  11
   2  -1 -18 1336.25 263.674  11
  -2   1  18 1636.06 279.369   8
   2   1 -18 1485.80 274.275  11
  -2   1  17 1571.35 417.906   8
   2   1 -17 918.007 293.896  11
   2  -1 -17 1414.04 421.260  11
   2  -1 -16 1122.67 373.113  11
   2   1 -16 787.306 238.811  11
  -2   1  16 1328.37 321.782   8
  -2  -1  16 797.472 275.752   8
  -2  -1  15 2865.10 394.557   8
  -2   1  15 2595.19 426.379   8
   2  -1 -15 2274.37 475.792  11
   2   1 -15 2861.17 512.995  11
   2  -1 -14 1538.12 480.368  11
  -2   1  14 1458.30 461.087   8
  -2  -1  14 1766.72 471.864   8
   2   1 -14 1927.40 518.197  11
  -2  -1  13 325.238 329.954   1
   2  -1 -13 271.063 313.469  11
   2   1 -13 817.332 369.651  11
  -2  -1  13 80.9886 250.040   8
   2   1 -13 205.998 289.843   3
  -2   1  13 274.142 220.690   8
   2   1 -12 1356.28 417.693  11
  -2  -1  12 1457.63 725.400   1
  -2   1  12 1682.42 438.065   8
   2   1 -12 2239.40 763.294   3
  -2  -1  12 903.123 334.788   8
  -2   1  11 3014.17 664.712   1
  -2  -1  11 2493.46 769.928   1
  -2  -1  10 11841.2 1515.49   1
  -2   1  10 11289.8 1252.04   1
  -2   1   9 1630.08 470.382   1
  -2  -1   9 1771.90 610.286   1
  -2  -1   8 14679.1 1522.26   1
  -2   1   8 15619.1 1302.52   1
  -2  -1   7 23802.5 1832.46   1
  -2   1   7 24108.8 1519.87   1
  -2   1   6 26496.9 1464.81   1
  -2  -1   6 26969.9 1807.88   1
  -2  -1   5 278.629 219.045   1
  -2   1   5 251.837 179.054   1
  -2   1   4 64167.1 1872.36   1
  -2  -1   4 63046.7 2426.69   1
  -2  -1   3 339417. 5007.02   1
  -2   1   3 342786. 4018.99   1
  -2  -1   2 943680. 7215.77   1
  -2  -1   1 6353.40 515.613   1
   2   1  -1 6331.92 476.088   2
  -2  -1   0 48107.0 1151.91   1
   2   1   0 44904.2 1235.93   2
   2   1   1 45405.5 1299.11   2
  -2  -1  -1 43279.0 1394.94   3
   2  -1   1 44877.4 1059.94   2
   2   1   2 8014.18 747.501   2
  -2  -1  -2 6648.34 711.163   3
   2   1   3 3125.20 647.951   2
   2  -1   3 1505.09 277.344   2
  -2   1  -3 2457.68 521.170   3
   2  -1   4 21518.3 1180.83   2
   2   1   4 24290.2 1501.77   2
  -2  -1  -4 19561.9 1347.49   3
  -2   1  -4 26005.6 1459.84   3
  -2  -1  -5 409.694 340.775   3
   2   1   5 776.625 457.679   2
  -2   1  -5 410.498 274.866   3
   2   1   6 9964.66 1169.96   2
  -2  -1  -6 9838.11 1195.49   3
  -2   1  -6 11859.3 1218.53   3
   2  -1   7 7414.69 1265.65   1
  -2  -1  -7 9525.25 1259.49   3
   2   1   7 10098.1 1213.97   2
   2   1   7 7266.58 1023.95   1
  -2   1  -7 10688.1 1319.34   3
   2   1   8 2453.88 630.131   1
  -2   1  -8 3057.36 754.322   3
  -2  -1  -8 3014.07 771.673   3
   2  -1   8 2130.16 803.916   1
   2  -1   9 399.798 391.413   1
  -2  -1  -9 437.846 326.676   3
  -2   1  -9 851.281 473.740   3
  -2  -1 -10-359.590 532.358   3
   2  -1  10-497.216 449.916   1
  -2   1 -10 214.326 354.709   3
   2   1  11 4706.13 527.471   8
  -2   1 -11 4090.32 576.330  11
   2  -1  11 2407.10 797.071   1
  -2   1 -11 4264.93 1066.53   3
  -2  -1 -11 3756.88 1085.48   3
  -2  -1 -12 11181.6 920.339  11
   2  -1  12 11543.7 783.362   8
   2   1  12 12249.0 889.135   8
  -2   1 -12 11788.6 1846.08   3
  -2   1 -12 11668.8 958.260  11
   2  -1  12 9238.84 1632.60   1
  -2  -1 -12 11510.8 2011.03   3
  -2  -1 -13 6906.71 1567.84   3
  -2   1 -13 7947.23 1599.48   3
   2  -1  13 8459.56 651.341   8
  -2  -1 -13 7969.79 786.440  11
  -2   1 -13 7846.28 816.449  11
   2   1  13 8602.51 726.318   8
  -2  -1 -14 45810.8 1838.83  11
   2  -1  14 44056.7 1489.70   8
   2   1  14 45654.2 1637.65   8
  -2   1 -14 46145.9 1912.34  11
   2  -1  15 9204.92 646.363   8
  -2  -1 -15 9684.28 812.725  11
   2   1  15 9642.42 711.046   8
  -2   1 -15 9972.35 859.886  11
  -2   1 -16 251.940 210.250  11
   2  -1  16 219.315 162.836   8
   2   1  16 157.528 163.265   8
  -2  -1 -16 23.8710 158.426  11
  -2   1 -17-62.3248 136.812   7
  -2   1 -17 150.720 159.743  11
   2   1  17 57.9869 122.629   8
  -2  -1 -17-14.2805 119.840  11
  -2  -1 -18 987.035 203.196  11
   2   1  18 1382.60 180.376  14
  -2   1 -18 1211.50 248.417  11
  -2   2  18 665.523 200.092   8
   2  -2 -18 664.974 174.814  11
   2   2 -18 634.927 194.046  11
   2  -2 -17 6613.52 577.600  11
   2   2 -17 7135.11 627.630  11
  -2   2  17 8323.90 601.720   8
  -2   2  16 1303.96 415.637   8
   2   2 -16 1301.45 343.896  11
   2  -2 -16 658.115 252.273  11
   2   2 -15 4817.78 614.968  11
  -2   2  15 4594.36 587.987   8
   2  -2 -15 4799.31 640.764  11
  -2   2  14 2629.79 451.040   8
   2  -2 -14 2307.02 498.416  11
   2   2 -14 3409.51 545.161  11
   2   2 -13 3010.35 587.499  11
   2  -2 -13 2600.57 641.305  11
  -2   2  13 2603.52 611.686   8
  -2  -2  13 1955.81 823.339   1
  -2  -2  12 2684.04 907.277   1
  -2   2  12 2796.59 458.733   8
   2   2 -12 3203.51 536.191  11
  -2   2  12 2725.77 455.218   9
  -2  -2  11 3437.71 924.430   1
  -2  -2  10 9796.25 1466.19   1
  -2  -2   9 43.1630 284.122   1
  -2  -2   8 28887.6 2337.33   1
  -2   2   8 31820.4 1660.98   1
  -2   2   7 40945.6 1762.26   1
  -2  -2   7 38505.1 2570.83   1
  -2   2   6 47687.8 1829.58   1
  -2  -2   6 43476.9 2564.92   1
  -2  -2   5 96250.6 3540.87   1
  -2   2   5 106883. 2638.14   1
  -2  -2   4 68913.6 2759.38   1
  -2  -2   3 163627. 3913.44   1
   2   2  -2 289500. 3584.28   2
  -2  -2   2 293959. 4612.51   1
   2   2  -1 307730. 3480.01   2
  -2  -2   1 308421. 3948.75   1
  -2  -2   0 100059. 1839.89   1
   2   2   0 99980.7 2098.28   2
   2   2   1 237026. 3434.21   2
  -2  -2  -1 229715. 3429.25   3
   2   2   2 239.689 205.249   2
  -2  -2  -2 300.279 229.385   3
  -2  -2  -3 2053.90 450.917   3
   2   2   3 2155.03 523.091   2
   2   2   4 2130.53 571.076   2
   2   2   4 516.692 130.676   1
   2   2   5 61.9982 114.397   1
   2   2   5 400.488 438.896   2
  -2   2  -5 42.0202 205.027   3
  -2   2  -6 24071.8 1805.77   3
   2   2   6 23786.5 1856.11   2
  -2  -2  -6 22379.2 1860.68   3
   2  -2   6 19979.9 1978.76   1
  -2  -2  -7 1610.19 628.034   3
   2   2   7 1398.57 510.267   2
  -2   2  -7 1281.73 480.857   3
  -2  -2  -8 1489.71 593.053   3
   2  -2   8 1693.11 751.947   1
  -2   2  -8 1706.07 592.445   3
  -2  -2  -9 8547.55 1476.73   3
  -2   2  -9 9980.39 1374.06   3
   2  -2   9 8991.97 1563.82   1
  -2   2 -10 13831.2 1756.67   3
  -2  -2 -10 11293.5 1848.94   3
   2  -2  10 10895.0 1738.97   1
   2  -2  11 23950.5 2629.57   1
  -2   2 -11 25509.1 1149.99  12
   2   2  11 32299.9 1436.65   8
  -2   2 -11 28732.5 1481.90  11
  -2   2 -11 31275.8 2741.48   3
  -2  -2 -11 25223.7 2851.78   3
   2   2  12 36852.1 1522.47   8
  -2   2 -12 30724.1 1262.01  12
  -2  -2 -12 33013.6 1526.53  11
   2  -2  12 28799.7 2975.08   1
  -2  -2 -12 29530.0 3223.26   3
  -2   2 -12 32908.7 1601.59  11
  -2  -2 -13 27937.3 1390.84  11
  -2   2 -13 26456.5 1446.70  11
   2   2  13 26389.9 1311.89   8
  -2   2 -14 4947.80 639.667  11
   2   2  14 5458.69 593.373   8
  -2  -2 -14 4393.20 577.584  11
  -2  -2 -15 5274.48 622.746  11
  -2   2 -15 6166.06 672.174  11
   2   2  15 6603.93 604.213   8
  -2  -2 -16 1253.80 285.880  11
  -2   2 -16 1318.02 325.769  11
   2   2  16 1608.82 324.794   8
   2   2  17 2373.99 318.972   8
  -2   2 -17 2100.24 260.119   7
   2   2  17 2593.02 254.015  14
  -2   2 -17 2589.11 385.494  11
  -2   2 -18 104.266 115.189  11
  -2   3  18 439.640 173.903   8
   2   3 -18 432.075 163.484  11
   2   3 -17 2815.59 373.860  11
  -2   3  17 3500.42 386.528   8
   2   3 -16 11539.2 820.965  11
  -2   3  16 13675.0 869.752   8
   2  -3 -15 5446.31 585.791  11
   2   3 -15 5120.07 594.843  11
  -2   3  15 5603.15 607.964   8
   2   3 -14 13706.9 879.911  12
   2  -3 -14 12724.9 998.074  11
  -2   3  14 13542.6 1008.25   8
   2   3 -14 14654.2 1044.29  11
   2   3 -13 1743.21 461.317  11
   2   3 -13 1642.07 408.146  12
   2  -3 -13 984.683 370.113  11
  -2   3  13 1071.74 413.391   8
  -2   3  12 8331.82 780.980   9
   2   3 -12 10515.0 892.698  11
  -2  -3  12 9981.03 1726.48   1
  -2   3  12 9558.47 821.892   8
   2   3 -12 10077.4 943.261  16
  -2  -3  11 829.139 587.174   1
  -2   3  11 980.082 366.156   9
   2   3 -11 831.456 323.896  16
  -2   3  11 1119.02 397.359   8
   2   3 -11 1064.85 337.439  11
  -2  -3  10 396.109 361.882   1
  -2  -3   9 912.756 552.743   1
  -2  -3   8 13929.2 1715.02   1
   2   3  -7 639.077 252.641   4
  -2  -3   7 1068.83 501.112   1
   2   3  -6 4488.16 691.155   4
  -2  -3   6 6482.25 1062.81   1
  -2  -3   5 12333.6 1385.53   1
   2   3  -4 876.170 325.757   2
  -2  -3   4 761.946 380.614   1
   2   3  -3 14959.2 1013.34   2
  -2  -3   3 19538.7 1466.18   1
   2   3  -2 17138.2 977.061   2
  -2  -3   2 20302.4 1370.61   1
  -2   3   1 207676. 4523.65   4
   2   3  -1 213732. 3410.41   2
  -2  -3   1 212833. 3832.68   1
   2   3   0 176189. 3189.16   2
  -2  -3   0 177856. 2792.55   1
  -2   3   0 180118. 4274.19   4
  -2  -3  -1 180532. 3084.08   3
   2   3   1 179425. 3407.25   2
  -2  -3  -2 70106.2 2309.76   3
   2   3   2 74985.6 2564.12   2
   2   3   3 17566.2 1412.29   2
  -2  -3  -3 13572.9 1162.52   3
  -2  -3  -4 31876.0 1968.96   3
   2   3   4 36549.4 2219.82   2
   2   3   5 1175.53 408.236   2
   2  -3   5 1117.84 526.849   1
   2   3   5 1004.14 370.522   4
  -2  -3  -5 810.322 383.418   3
   2   3   6 195.871 325.042   2
   2  -3   6 361.692 362.466   1
   2   3   6 502.316 285.686   4
  -2  -3  -6 818.613 487.440   3
   2   3   7 42713.1 2833.79   2
   2  -3   7 43615.4 3189.84   1
  -2  -3  -7 40703.2 2874.22   3
  -2  -3  -8 11608.9 1634.15   3
   2  -3   8 13103.5 1835.26   1
   2  -3   9 1703.42 775.043   1
  -2  -3  -9 1004.08 505.279   3
  -2   3 -10 23431.1 1267.56  11
   2  -3  10 20308.7 2498.73   1
  -2   3 -10 20238.9 1088.29  12
  -2  -3 -10 21359.0 2565.12   3
  -2   3 -11 223.686 200.726  12
  -2  -3 -11-274.511 511.129   3
  -2   3 -11-74.6571 208.357  11
   2  -3  11-524.965 429.104   1
   2   3  11-58.8563 168.352   8
  -2   3 -12 8585.74 811.840  11
  -2  -3 -12 6903.09 1581.64   3
   2   3  12 9586.82 780.916   8
  -2   3 -12 7936.34 683.337  12
  -2   3 -13 613.696 260.567  11
   2   3  13 750.780 273.830   8
  -2   3 -13 576.133 216.906  12
  -2   3 -14 11731.6 959.684  11
  -2   3 -14 11407.0 755.304  12
   2   3  14 10321.0 858.764   8
  -2   3 -15 2539.69 480.937  11
   2   3  15 2687.23 404.111   8
   2   3  16 3117.64 408.402   8
  -2   3 -16 2691.92 452.690  11
   2   3  17 5138.18 443.704   8
  -2   3 -17 4608.88 490.559  11
  -2   3 -17 4535.93 338.321   7
   2   4 -17 2527.67 310.235  11
  -2   4  17 2423.92 283.180   8
   2   4 -16 67.1169 128.895  11
  -2   4  16-112.604 160.701   8
  -2   4  15 3147.12 535.586   8
   2   4 -15 2807.43 404.035  11
   2   4 -15 2882.02 402.344  12
   2   4 -14 2481.55 416.871  11
  -2   4  14 2133.26 448.287   8
   2   4 -14 2531.11 409.657  12
   2   4 -13 5618.76 618.092  11
  -2   4  13 5271.40 593.262   8
   2   4 -13 5066.82 580.528  12
  -2   4  12 6632.25 720.283   9
   2   4 -12 7634.88 726.514  12
   2   4 -12 8258.04 755.908  11
  -2   4  12 8482.45 835.927   8
   2   4 -12 7986.29 877.210  16
  -2  -4  11 5639.10 1293.87   1
  -2   4  11 7360.65 692.771   8
   2   4 -11 6942.90 807.934  16
  -2   4  11 6312.85 664.649   9
   2   4 -11 6461.51 648.096  11
  -2   4  10 3541.70 488.822   9
   2   4 -10 3201.82 429.884  11
  -2   4  10 3701.14 505.945   8
   2   4 -10 3623.83 567.446  16
  -2  -4  10 3426.92 1055.03   1
  -2  -4   9 5919.03 1260.90   1
   2   4  -8 827.794 456.844   2
  -2  -4   8 1081.76 564.377   1
   2   4  -7 5588.24 856.983   2
   2   4  -7 5252.45 819.904   4
  -2  -4   7 7549.13 1266.17   1
   2   4  -6 15126.0 1280.00   2
  -2  -4   6 17152.7 1827.80   1
   2   4  -6 12558.3 1319.88   4
   2   4  -5-119.476 248.780   2
  -2  -4   5 186.343 294.552   1
   2   4  -5 67.7163 197.508   4
  -2  -4   4 644.614 395.504   1
   2   4  -4 578.144 201.976   2
   2   4  -4 420.854 251.458   4
  -2  -4   3 6543.04 941.703   1
   2   4  -3 5461.40 661.878   2
   2   4  -2 24934.5 1329.92   2
  -2  -4   2 27971.3 1737.53   1
  -2  -4   1 16011.5 1140.96   1
   2   4  -1 14692.0 1033.68   2
  -2   4   1 16042.8 1504.39   4
  -2   4   0 74459.7 3245.98   4
  -2  -4   0 73200.3 1973.41   1
   2   4   1 20477.6 1362.85   2
   2   4   2 62383.8 2738.35   2
  -2  -4  -2 59309.8 2192.96   3
   2   4   3 10694.3 1460.18   4
   2   4   3 13360.9 1368.74   2
  -2  -4  -3 12385.7 1151.75   3
   2   4   4 643.832 283.706   4
   2  -4   4 970.480 499.788   1
   2   4   4 774.302 465.564   2
  -2  -4  -4 661.049 313.310   3
   2  -4   5 48211.0 3170.31   1
   2   4   5 38860.4 2339.45   4
   2   4   5 49784.2 2972.06   2
  -2  -4  -5 44218.7 2646.62   3
   2  -4   6 2355.61 768.765   1
   2   4   6 1778.66 554.120   4
  -2  -4  -6 2175.36 672.714   3
   2   4   6 2328.05 718.727   2
   2  -4   7 31816.2 2883.87   1
   2   4   7 27424.2 2409.77   2
  -2  -4  -7 28250.7 2501.51   3
  -2  -4  -8 107.462 413.209   3
   2  -4   8-330.980 383.651   1
  -2   4  -9 6258.81 648.382   6
  -2  -4  -9 6809.28 1385.45   3
   2  -4   9 6583.09 1452.50   1
   2   4   9 9786.24 759.093   8
  -2   4  -9 7389.76 873.718  16
  -2   4  -9 7793.48 698.404  12
  -2   4  -9 7475.11 723.797  11
  -2   4 -10 618.383 254.698  12
  -2   4 -10 478.936 259.975  11
   2  -4  10 244.058 450.200   1
   2   4  10 330.420 231.356   8
  -2  -4 -10 931.523 670.114   3
  -2   4 -11 3953.53 510.821  12
  -2   4 -11 3482.62 555.980  11
   2   4  11 4392.94 556.656   8
  -2  -4 -11 3779.08 1203.36   3
  -2   4 -12-41.5671 152.921  12
  -2   4 -12-111.879 153.674  11
   2   4  12 119.067 160.657   8
  -2   4 -13 2946.21 484.987  11
  -2   4 -13 3428.99 457.749  12
   2   4  13 3756.79 489.984   8
  -2   4 -14 3491.20 449.778  12
  -2   4 -14 4587.16 582.595  11
   2   4  14 3690.86 472.126   8
  -2   4 -15 485.540 215.661  11
   2   4  15 507.897 173.374   8
  -2   4 -15 409.150 175.375  12
  -2   4 -16 1872.19 275.650  12
  -2   4 -16 2326.17 375.465  11
   2   4  16 2840.76 336.987   8
   2   4  17 433.878 155.735   8
  -2   5  16 1011.99 266.226   8
   2   5 -16 421.277 200.719  12
   2   5 -16 662.403 194.914  11
   2   5 -15 476.885 170.377  11
  -2   5  15 553.460 202.084   8
   2   5 -15 757.576 207.852  12
   2   5 -14 11752.7 745.390  11
   2   5 -14 11953.0 789.659  12
  -2   5  14 13275.7 878.404   8
  -2   5  13 735.499 288.308   8
   2   5 -13 586.412 241.367  12
   2   5 -13 626.489 323.539  16
   2   5 -13 219.938 158.240  11
  -2   5  12 13206.4 871.032   9
   2   5 -12 16382.4 1218.51  16
   2   5 -12 15242.1 1014.22  12
  -2   5  12 15499.9 946.490   8
  -2   5  11 20010.6 1121.93   8
  -2   5  11 18088.1 1045.12   9
   2   5 -11 18418.2 1313.12  16
  -2   5  10 1221.77 303.173   9
  -2   5  10 1558.01 381.977   8
   2   5 -10 1663.52 327.189   6
   2   5 -10 1768.02 495.066  16
  -2  -5  10 1515.94 818.735   1
   2   5  -9 7486.65 657.540   6
   2   5  -9 7273.26 825.962  16
  -2   5   9 7064.68 603.027   8
  -2  -5   9 6002.22 1323.71   1
   2   5  -8 18532.4 1263.70  16
  -2  -5   8 16836.2 2095.64   1
  -2  -5   7 1376.78 604.225   1
   2   5  -7 1059.72 458.757   4
  -2  -5   6-3.91317 314.411   1
   2   5  -6 67.6588 231.177   4
  -2  -5   5 7166.11 1198.40   1
   2   5  -5 6061.37 1050.89   4
   2   5  -4 12256.1 1489.10   4
  -2  -5   4 14234.9 1564.63   1
   2   5  -3 7394.07 1217.95   4
  -2  -5   3 7576.18 1085.78   1
  -2  -5   2 12644.7 1301.52   1
   2   5  -2 13642.9 1664.01   4
   2   5  -1 65934.3 3635.81   4
   2   5   0 668.042 453.300   4
   2  -5   1 20758.9 1895.00   1
   2   5   1 21619.0 1654.79   2
   2   5   1 19690.3 2045.79   4
   2   5   2 21344.2 1716.45   2
   2   5   2 21006.9 2062.11   4
   2  -5   2 22036.1 1996.38   1
   2  -5   3 5446.64 1071.57   1
   2   5   3 5459.66 928.887   2
   2   5   4 764.165 380.692   4
   2   5   4 729.445 388.101   2
   2   5   5 26095.0 2271.97   2
  -2  -5  -5 29836.0 2245.15   3
   2  -5   5 29154.5 2723.09   1
   2   5   5 25650.1 2112.74   4
   2   5   6 1060.77 461.550   4
   2   5   6 453.299 336.413   2
   2  -5   6 1074.09 537.481   1
  -2  -5  -6 965.514 484.938   3
   2  -5   7 7407.81 1586.35   1
  -2  -5  -7 6811.61 1300.15   3
  -2   5  -7 6930.66 727.306   6
  -2   5  -7 7008.01 652.114  12
  -2   5  -8 324.127 199.532   6
   2  -5   8 358.078 392.165   1
  -2  -5  -8 401.950 432.102   3
  -2   5  -8 418.340 255.705  16
  -2   5  -8 762.061 316.583  12
  -2   5  -9 590.316 233.851  11
  -2   5  -9 303.267 209.471   6
  -2   5  -9 731.966 279.501  12
   2  -5   9 669.935 479.553   1
   2   5   9 825.543 254.028   8
  -2   5  -9 286.991 210.696  16
  -2  -5  -9 374.949 430.199   3
  -2   5 -10 20347.8 1485.14  16
  -2   5 -10 21434.7 1205.04  12
  -2   5 -10 18763.3 1191.67  11
  -2  -5 -10 18516.5 2531.73   3
   2   5  10 19426.7 1087.10   8
   2   5  11 2309.80 426.600   8
  -2   5 -11 2315.18 442.170  12
  -2   5 -11 2044.65 415.564  11
  -2   5 -12 566.834 218.967  11
  -2   5 -12 603.166 216.505  12
   2   5  12 691.448 231.936   8
  -2   5 -13 3932.45 485.625  12
  -2   5 -13 3350.07 465.059  11
   2   5  13 3859.72 464.331   8
  -2   5 -14 2170.93 370.579  12
  -2   5 -14 1300.62 288.289  11
   2   5  14 1501.72 279.530   8
  -2   5 -15 325.177 170.228  11
  -2   5 -15 582.207 193.876   7
   2   5  15 354.779 163.083   8
  -2   5 -15 250.608 123.490  12
  -2   5 -16 556.060 136.862   7
  -2   5 -16 500.829 157.354  12
  -2   6  15 1531.66 213.031   8
  -2   6  14 5733.92 461.258   8
   2   6 -14 5124.21 472.685  12
   2   6 -13 8591.91 698.877  12
  -2   6  13 9013.34 617.488   8
   2   6 -12 524.442 210.308  16
  -2   6  12 448.737 237.423   8
   2   6 -12 532.837 237.954  12
  -2   6  11 1458.24 352.761   8
   2   6 -11 849.865 226.932   6
   2   6 -11 784.831 323.747  16
   2   6 -11 1441.70 343.140  12
   2   6 -10 3422.22 604.438  16
   2   6 -10 4391.35 521.917   6
   2   6  -9 6113.49 800.414  16
   2   6  -9 5762.98 598.456   6
  -2  -6   8 5964.29 1296.67   1
   2   6  -8 5094.03 684.180  16
   2   6  -8 7249.16 714.704   6
  -2  -6   7 2103.62 720.173   1
   2   6  -7 3194.78 498.497   5
   2   6  -7 2428.63 541.587  16
   2   6  -7 2808.00 508.682   6
   2   6  -6 5946.14 603.347   5
  -2  -6   6 6233.90 1185.27   1
   2   6  -6 5784.18 729.644  16
   2   6  -6 4618.43 961.640   4
   2   6  -6 6045.18 657.717   6
   2   6  -6 6132.10 579.391  10
   2   6  -5 369.756 256.274   5
   2   6  -5-172.824 361.019   4
  -2  -6   5 207.447 242.156   1
   2   6  -4 4074.21 956.643   4
   2   6  -3 101.698 242.984   4
   2   6  -2 30044.6 2623.67   4
   2   6  -1 370.135 332.674   4
   2   6   0 30611.0 2678.00   4
   2   6   1 245.093 323.772   4
   2   6   2 869.398 529.574   4
   2   6   3 1940.93 690.294   4
   2  -6   3 1187.79 638.071   1
   2  -6   4 1168.79 493.612   1
   2   6   4 1610.09 607.286   4
  -2   6  -5 23398.4 1264.42   6
  -2   6  -5 21460.2 1138.46  12
  -2   6  -5 16389.0 1110.84   5
   2  -6   5 19278.9 2412.05   1
   2   6   5 19385.0 2033.44   4
  -2   6  -5 20426.9 1108.31  10
  -2   6  -6 183.639 178.601   6
  -2   6  -6 122.399 209.815  12
  -2   6  -6 246.147 157.794  10
   2  -6   6 228.100 419.339   1
   2   6   6 36.9678 331.859   4
  -2   6  -6-27.2470 228.519  16
  -2   6  -7 994.563 309.291   6
   2  -6   7 1616.65 811.146   1
  -2   6  -7 1007.99 312.843  12
  -2   6  -7 874.021 341.676  16
  -2   6  -8 119.764 255.533   6
  -2   6  -8 271.593 201.532  12
   2  -6   8 1088.13 776.228   1
  -2   6  -8 324.347 311.562  16
  -2   6  -9 3606.48 482.246  12
  -2   6  -9 3002.08 513.006   6
  -2   6  -9 3246.12 581.242  16
  -2   6 -10 926.171 289.662  12
  -2   6 -11 121.837 159.527  12
   2   6  11 188.589 193.540   8
  -2   6 -12 99.4682 142.012  11
   2   6  12 540.836 202.784   8
  -2   6 -12 392.609 213.525  12
  -2   6 -13 216.020 177.044  12
   2   6  13 102.411 140.776   8
  -2   6 -14 1.64774 116.766  12
  -2   6 -14 72.9410 134.239   7
   2   6  14 8.78905 113.278   8
  -2   6 -15 1286.45 197.267  12
  -2   6 -15 1378.60 206.827   7
   2   7 -13 4470.10 452.328  12
   2   7 -12 2160.30 381.057  12
   2   7 -12 1892.98 416.796  16
   2   7 -11 1327.75 335.858  12
   2   7 -11 548.958 336.050  16
   2   7 -11 725.552 224.301   6
   2   7 -10 5412.71 557.756  12
   2   7 -10 4667.76 639.985  16
   2   7 -10 4528.15 491.741   6
   2   7  -9 8716.57 745.804   6
   2   7  -9 9753.04 798.459  12
   2   7  -9 8926.76 910.036  16
   2   7  -8 2877.72 468.393   6
   2   7  -8 2877.61 571.988  16
   2   7  -8 3404.84 512.384  12
   2   7  -7 1512.63 364.914   6
   2   7  -7 1363.01 389.237  16
   2   7  -6 21206.4 1117.43  10
   2   7  -6 21918.4 1311.88   6
   2   7  -6 19890.5 1411.15  16
   2   7  -6 22323.0 1193.82   5
   2   7  -6 17380.9 2066.23   4
   2   7  -5 727.819 286.711  10
   2   7  -5 794.816 354.421  16
   2   7  -5 950.110 384.381   5
   2   7  -5 19.1255 434.243   4
   2   7  -4 228.975 273.421   4
   2   7  -4 371.501 266.383   5
  -2   7   4 1021.92 455.397   5
   2   7  -3 6540.97 619.336  10
   2   7  -3 6685.86 629.570   5
  -2   7   3 4558.58 569.256   5
   2   7  -3 6162.68 836.413  16
   2   7  -3 6182.73 1323.54   4
   2   7  -2 19901.4 1078.68   5
   2   7  -2 20275.7 1048.33  10
   2   7  -2 17140.7 1248.28  16
   2   7  -2 17958.4 2170.02   4
   2   7  -1 60.4165 230.001   5
   2   7  -1 53.5024 181.682  10
   2   7  -1 182.655 325.692   4
  -2   7   1 402.075 209.010   5
  -2   7   1 693.139 331.197  13
  -2   7   0 432.356 199.101  13
   2   7   0 613.943 319.450   5
   2   7   0 496.540 324.669   4
  -2   7  -1 2101.55 395.398   5
   2   7   1 1965.79 769.682   4
   2   7   1 2554.24 481.326   5
   2   7   2 468.225 378.497   4
  -2   7  -2 193.803 154.214  10
   2   7   2 315.496 267.593   5
  -2   7  -2 347.599 287.664   5
  -2   7  -2 266.187 242.742   6
  -2   7  -3 7829.85 777.941   6
   2   7   3 6418.91 1319.83   4
  -2   7  -3 5805.02 597.603  10
  -2   7  -3 5019.39 581.873   5
  -2   7  -4 11233.7 903.951   6
  -2   7  -4 8021.11 796.219   5
  -2   7  -4 10416.0 789.262  12
   2   7   4 10194.9 1669.21   4
  -2   7  -4 9111.09 805.200  10
  -2   7  -5 328.563 212.589  12
  -2   7  -5 433.318 275.856   6
  -2   7  -5 532.780 251.894  10
   2   7   5 308.199 390.082   4
  -2   7  -6-628.664 344.308  10
  -2   7  -6 111.199 238.883  16
  -2   7  -6-119.130 148.072  12
  -2   7  -6-115.938 286.437   6
  -2   7  -7 7274.49 799.190   6
  -2   7  -7 9648.86 775.306  12
  -2   7  -7 8091.95 893.650  16
  -2   7  -8 13775.0 1181.27  16
  -2   7  -8 13145.0 1058.82   6
  -2   7  -8 16343.9 1015.48  12
  -2   7  -9 528.666 255.515  16
  -2   7  -9 469.800 252.146   6
  -2   7  -9 425.413 176.048  12
  -2   7 -10 820.861 187.814   7
  -2   7 -11 1354.38 232.125   7
  -2   7 -11 1602.73 309.986  12
  -2   7 -12 3373.94 313.088   7
  -2   7 -12 3196.79 395.675  12
  -2   7 -13 807.387 196.209  12
  -2   7 -13 796.002 173.008   7
  -2   7 -14 1955.45 201.982   7
   2   8 -12 1171.75 244.984  12
   2   8 -11 3725.65 382.066  12
   2   8 -11 3504.29 465.119  16
   2   8 -10 1102.27 270.656  12
   2   8 -10 508.281 242.986  16
   2   8 -10 917.490 255.347   6
   2   8  -9 1281.63 305.995  12
   2   8  -9 659.094 253.940  16
   2   8  -9 819.041 234.726   6
   2   8  -8 1824.58 464.440  16
   2   8  -8 2423.00 377.425  12
   2   8  -8 2315.47 418.864   6
   2   8  -7 429.004 283.157  12
   2   8  -7 116.630 176.443  16
   2   8  -6 1052.24 363.730   5
  -2   8   6 330.087 198.745   5
   2   8  -6 568.396 298.610  16
   2   8  -6 1063.66 356.710   6
   2   8  -6 1092.47 283.191  12
   2   8  -5 36351.3 1708.18   6
  -2   8   5 29958.9 1374.93   5
   2   8  -5 33463.9 1360.96  12
   2   8  -5 30814.8 1706.05  16
   2   8  -5 38656.1 1532.02   5
   2   8  -5 34784.9 1427.03  10
   2   8  -4 685.243 315.709   6
   2   8  -4 611.344 268.386  10
   2   8  -4-77.6872 255.731  16
   2   8  -3 14221.0 927.944   5
   2   8  -3 14116.0 936.162  10
   2   8  -3 12089.3 1061.95  16
  -2   8   2 1245.92 282.901   5
  -2   8   2 2223.15 440.279   6
   2   8  -2 1482.02 333.550  16
   2   8  -2 2256.91 444.397   5
  -2   8   1 4502.94 553.481  10
  -2   8   1 3399.63 493.282   5
   2   8  -1 4415.15 524.205  10
   2   8  -1 4512.02 596.639   5
   2   8  -1 3915.28 611.740  16
   2   8   0 9408.17 871.090   5
  -2   8   0 7702.14 689.626   5
  -2   8   0 10827.4 877.730   6
   2   8   0 9910.84 780.413  10
  -2   8   0 9171.48 755.254  10
  -2   8  -1 1148.04 234.935   5
  -2   8  -1 1572.27 375.626   6
  -2   8  -1 1838.05 430.122  10
   2   8   1 1824.71 451.615   5
   2   8   2 5335.62 701.488   5
  -2   8  -2 5293.39 591.264  10
  -2   8  -2 5756.63 638.129   6
  -2   8  -2 4214.95 527.837   5
   2   8   3 5766.54 722.877   5
  -2   8  -3 6073.87 670.959   6
  -2   8  -3 4356.98 544.392   5
  -2   8  -4 3686.34 534.784   5
  -2   8  -4 5060.52 631.586   6
  -2   8  -4 4482.20 557.215  10
   2   8   4 4472.94 630.667   5
  -2   8  -5 7162.43 760.404   6
  -2   8  -5 6941.48 589.140  12
  -2   8  -5 6477.11 668.060  10
   2   8   5 5887.55 703.497   5
  -2   8  -6 11156.8 951.038   6
  -2   8  -6 12461.4 792.699  12
   2   8   6 10328.3 912.843   5
  -2   8  -7 213.021 224.508  16
  -2   8  -7 29.8147 190.207   6
   2   8   7 199.283 328.406   5
  -2   8  -7-73.3651 148.450  12
  -2   8  -8 7892.08 615.346  12
  -2   8  -8 7151.81 676.890   6
  -2   8  -9 4975.87 477.505  12
   2   8  10 831.471 207.833   5
  -2   8 -10 1150.40 238.198  12
  -2   8 -11 8274.84 569.117  12
   2   8  11 6401.30 545.626   5
  -2   8 -12 493.458 149.616  12
   2   9 -10 1269.29 267.696  16
   2   9 -10 2542.97 288.202  12
   2   9  -9 4967.39 510.074  16
   2   9  -9 6156.75 426.920  12
   2   9  -9 5777.07 464.593   6
   2   9  -8 180.281 157.462   6
   2   9  -8-48.5949 152.148  16
   2   9  -8 210.767 158.292  12
   2   9  -7 2774.94 313.033  12
   2   9  -7 2978.80 408.336   6
   2   9  -7 2486.55 403.198  16
   2   9  -6-113.647 178.111   6
   2   9  -6 88.4662 149.821  16
   2   9  -5 317.582 288.497   6
   2   9  -5 73.9854 188.925  16
   2   9  -4 4038.48 462.492  10
   2   9  -4 3758.86 510.615   5
   2   9  -4 3272.89 491.343  16
  -2   9   4 2608.79 375.066   5
   2   9  -4 3892.86 557.172   6
  -2   9   3 65.9713 157.892  10
   2   9  -3 243.002 225.576  10
   2   9  -3 317.610 271.820   5
   2   9  -3-121.564 205.698  16
  -2   9   2 727.105 263.256   6
   2   9  -2 439.257 205.894  16
   2   9  -2 655.052 273.765  10
   2   9  -2 744.663 328.726   6
   2   9  -2 869.466 347.258   5
  -2   9   2 457.363 212.969   5
  -2   9   2 819.542 280.623  10
   2   9  -1 2278.31 504.139   5
  -2   9   1 2332.37 408.121  10
  -2   9   1 2178.13 391.784   6
  -2   9   1 1688.88 323.216   5
   2   9  -1 2102.58 405.744  10
  -2   9   0 365.623 171.110   6
  -2   9   0 256.825 215.644   5
   2   9   0 401.424 215.342  10
   2   9   0 476.347 288.396   5
   2   9   1 2862.43 474.523   5
   2   9   1 2529.57 401.966  10
  -2   9  -1 2474.26 400.352   5
  -2   9  -1 2655.26 437.613  10
  -2   9  -1 3009.31 447.446   6
   2   9   2 1962.00 444.445   5
  -2   9  -2 2566.97 521.909  10
  -2   9  -2 1844.68 411.283   6
  -2   9  -2 1244.74 272.363   5
  -2   9  -3 554.209 205.417  10
   2   9   3 1023.25 267.011  10
  -2   9  -3 790.592 371.788   6
   2   9   3 470.692 219.157   5
  -2   9  -4 955.571 276.912  10
  -2   9  -4 974.856 279.929   6
   2   9   4 928.160 265.029   5
  -2   9  -5 242.345 180.630   6
   2   9   5-67.6804 275.525   5
  -2   9  -6 117.278 190.214   6
   2   9   6-307.810 263.275   5
  -2   9  -7 1707.61 316.364   6
   2   9   7 1642.40 308.437   5
  -2   9  -7 1938.41 261.797  12
   2   9   8 613.021 166.693   5
  -2   9  -8 696.490 177.210  12
  -2   9  -9 649.525 172.379  12
   2   9   9 216.605 161.955   5
   2   9  10 3040.04 268.657   5
  -2   9 -10 5325.20 375.800  12
  -2  10   7 835.794 196.067  10
   2  10  -7 574.505 139.496  16
   2  10  -7 1071.24 201.270   6
   2  10  -6 1096.54 213.233  16
   2  10  -6 1257.82 209.113   6
  -2  10   6 1221.47 223.048  10
   2  10  -5 607.693 226.284   6
  -2  10   5 1139.78 261.537  10
   2  10  -5 458.918 222.249  16
   2  10  -4 2355.05 340.723   6
  -2  10   4 2748.99 359.642  10
  -2  10   4 1808.45 245.208   5
   2  10  -3 343.550 224.601   6
   2  10  -3 467.619 226.818   5
  -2  10   3 378.472 212.543   5
  -2  10   3 572.419 209.919  10
   2  10  -2 2162.37 366.728   6
  -2  10   2 1530.24 356.466   5
   2  10  -2 2351.12 342.228   5
  -2  10   2 2143.95 351.814  10
   2  10  -2 2154.88 292.121  10
  -2  10   1 780.051 213.809   6
   2  10  -1 598.780 247.966   6
  -2  10   1 880.928 259.266  10
  -2  10   1 818.691 284.430   5
   2  10  -1 732.124 218.928   5
   2  10  -1 1078.22 243.039  10
  -2  10   0 1912.93 329.203   6
  -2  10   0 1535.98 310.831   5
  -2  10   0 2068.58 344.969  10
   2  10   0 1696.61 466.032   6
   2  10   0 2509.69 381.843  10
  -2  10  -1 242.586 151.136   6
   2  10   1 607.744 196.554  10
  -2  10  -1 679.407 309.133   5
   2  10   1 342.034 167.948   6
  -2  10  -1 549.749 199.981  10
   2  10   1 766.908 230.845   5
  -2  10  -2 35046.7 1244.24   6
   2  10   2 32803.6 1197.18   5
  -2  10  -2 37093.2 1276.28  10
   2  10   2 35363.4 1166.87  10
   2  10   3 3726.33 414.503   5
   2  10   3 3579.46 372.082  10
  -2  10  -3 3384.52 404.185  10
  -2  10  -3 3526.18 415.966   6
  -2  10  -4 2856.95 370.888   6
   2  10   4 2932.66 337.897  10
   2  10   4 2973.91 354.335   5
  -2  10  -5 299.988 161.668   6
   2  10   5 441.917 167.021  10
   2  10   6 1309.97 215.494  10
   3   0 -19-24.0568 101.301  11
  -3   0  19 119.849 105.644   8
   3   0 -18 2706.04 356.567  11
  -3   0  18 2874.65 307.633   8
   3   0 -17-8.55911 178.335  11
  -3   0  17 59.4589 145.552   8
   3   0 -16 24276.5 1370.23  11
  -3   0  16 26932.8 1164.77   8
   3   0 -15 183.059 235.517  11
  -3   0  15-4.90136 206.247   8
   3   0 -14 130.716 230.987  11
  -3   0  14 149.667 234.041   8
   3   0 -14-423.872 461.457   3
   3   0 -13-170.106 264.713  11
  -3   0  13-121.732 193.358   8
  -3   0  12 11539.6 1607.22   1
  -3   0  12 11892.0 894.815   8
  -3   0  11-121.920 356.146   1
  -3   0  10 65332.7 3479.46   1
  -3   0   9 349.979 450.107   1
  -3   0   8 42992.4 2562.29   1
  -3   0   7 144.109 299.809   1
  -3   0   6 56016.6 2456.69   1
  -3   0   5-3.02618 256.968   1
  -3   0   4 48380.7 1982.45   1
  -3   0   3 90.9673 174.286   1
  -3   0   2 9.42887 167.590   1
   3   0  -1-73.7892 176.091   2
   3   0   0 170208. 2328.57   2
   3   0   1-334.187 261.319   2
   3   0   2 164463. 2900.65   2
   3   0   3-7.92076 346.452   2
   3   0   4 39741.8 1959.50   2
  -3   0  -4 39804.6 2040.59   3
  -3   0  -5 536.598 362.937   3
   3   0   5-338.994 359.061   2
  -3   0  -6 5235.81 946.239   3
   3   0   6 4995.08 868.960   2
   3   0   7 86.7810 263.787   2
  -3   0  -7-241.745 367.897   3
   3   0   8 134.888 282.045   1
  -3   0  -8 123.126 290.231   3
   3   0   9-147.033 261.864   1
  -3   0  -9 209.417 328.369   3
   3   0  10 8884.97 1485.19   1
  -3   0 -10 12038.0 1824.29   3
  -3   0 -11-310.756 381.948   3
   3   0  11-382.523 226.379   8
  -3   0 -11 8.08371 149.689  11
  -3   0 -12 2685.08 486.091  11
  -3   0 -12 2651.47 971.863   3
   3   0  12 2831.12 434.127   8
  -3   0 -13-204.493 262.221  11
  -3   0 -13 272.231 576.381   3
   3   0  13-70.3816 185.693   8
   3   0  14 15910.9 965.154   8
  -3   0 -14 16774.6 1151.24  11
  -3   0 -15 307.719 209.437  11
   3   0  15 77.7239 144.361   8
  -3   0 -16 759.717 240.266  11
   3   0  16 744.001 230.090   8
  -3   0 -17 1.20964 157.228  11
  -3   0 -18 2689.91 352.516  11
   3   0  18 3316.31 271.689  14
   3   1 -18 2359.80 339.249  11
   3  -1 -18 2329.82 334.265  11
  -3   1  18 2490.32 329.122   8
   3  -1 -17 1547.41 397.823  11
  -3   1  17 1857.24 407.600   8
  -3   1  16 2686.52 441.329   8
   3   1 -16 2565.57 462.002  11
  -3  -1  16 2369.47 430.999   8
   3  -1 -16 2357.59 445.196  11
   3  -1 -15 1509.12 429.786  11
   3   1 -15 1381.76 461.030  11
  -3   1  15 993.417 362.629   8
  -3  -1  15 1115.74 313.210   8
   3   1 -14 3731.48 619.781  11
  -3  -1  14 3309.01 467.191   8
   3  -1 -14 3065.04 587.323  11
  -3   1  14 3058.86 498.250   8
  -3  -1  13 2263.85 834.635   1
  -3   1  13 1891.55 388.596   8
  -3  -1  13 1812.69 364.825   8
   3   1 -13 3036.86 716.182  11
   3   1 -13 2046.11 631.516   3
  -3   1  12 1854.06 358.538   8
  -3   1  12 1903.90 368.738   9
  -3  -1  12 1800.63 753.942   1
  -3  -1  12 1438.05 310.788   8
  -3   1  11 1315.75 471.805   1
  -3  -1  11 1482.55 509.305   1
  -3   1  10 1515.00 466.399   1
  -3  -1  10 1932.20 663.707   1
  -3  -1   9 2656.19 747.979   1
  -3   1   9 1901.25 465.632   1
  -3   1   8 4853.12 770.714   1
  -3  -1   8 4857.87 950.607   1
  -3   1   7 2206.71 486.096   1
  -3  -1   7 2598.53 659.122   1
  -3  -1   6 4672.24 809.423   1
  -3   1   6 4518.72 648.360   1
  -3  -1   5-69.0508 220.735   1
  -3   1   5 97.2861 186.828   1
  -3  -1   4 849.941 380.897   1
  -3   1   4 497.755 216.997   1
  -3  -1   3 7052.48 824.664   1
  -3   1   3 9236.74 954.835   1
   3   1  -2 739.497 217.324   2
  -3  -1   2 918.897 253.656   1
   3  -1  -1 32610.0 986.620   2
   3   1  -1 34471.8 1235.97   2
   3   1   0 10543.7 727.632   2
   3   1   1 34.2816 186.715   2
   3  -1   2 29142.3 1258.66   2
   3   1   2 27057.0 1283.55   2
  -3  -1  -2 27537.3 1488.11   3
  -3  -1  -3 367.121 286.124   3
   3  -1   3-340.547 456.610   2
   3   1   3-74.3803 283.401   2
   3  -1   4 562.550 274.764   2
  -3   1  -4 337.927 231.464   3
   3   1   4 198.200 297.628   2
  -3  -1  -4 761.632 336.105   3
   3   1   5 15810.2 1424.88   2
   3  -1   5 14617.1 1179.06   2
  -3  -1  -5 14268.6 1382.86   3
  -3   1  -5 16592.6 1428.84   3
   3   1   6-217.195 301.423   1
  -3   1  -6 725.365 406.654   3
  -3  -1  -6 241.353 249.088   3
   3   1   6 285.504 333.783   2
  -3  -1  -7 264.846 258.360   3
   3   1   7 317.167 250.205   1
   3   1   7 503.588 357.619   2
   3  -1   7-156.280 378.138   1
  -3   1  -7 549.666 415.182   3
  -3   1  -8 3154.47 815.376   3
   3  -1   8 1962.57 817.907   1
   3   1   8 1472.14 551.566   1
   3   1   8 3165.79 838.645   2
  -3  -1  -8 3090.74 832.094   3
   3  -1   9 530.188 495.774   1
  -3  -1  -9 623.143 454.389   3
  -3   1  -9 616.166 398.193   3
  -3   1 -10-109.553 256.878   3
   3  -1  10-100.069 277.760   1
  -3  -1 -10-432.778 497.398   3
  -3  -1 -11 10887.7 885.595  11
  -3  -1 -11 9951.72 1815.75   3
   3  -1  11 11202.5 773.409   8
  -3   1 -11 11248.2 927.030  11
  -3   1 -11 10212.9 1707.77   3
   3  -1  11 8983.23 1550.54   1
   3   1  11 12353.8 843.796   8
  -3   1 -12 3000.32 498.692  11
   3  -1  12 2415.63 350.859   8
  -3  -1 -12 1911.53 737.742   3
  -3  -1 -12 2648.05 443.662  11
   3   1  12 3069.48 445.315   8
  -3   1 -12 1891.45 834.522   3
  -3  -1 -13 8438.79 794.764  11
  -3   1 -13 8725.29 850.473  11
   3   1  13 8927.67 728.128   8
   3  -1  13 8736.76 674.475   8
  -3  -1 -14 225.768 226.974  11
  -3   1 -14-169.205 208.041  11
   3  -1  14 90.3648 159.384   8
   3   1  14 145.481 195.649   8
   3  -1  15 3294.27 404.217   8
  -3  -1 -15 3774.68 515.955  11
   3   1  15 4178.97 498.372   8
  -3   1 -15 4237.28 577.805  11
  -3   1 -16 137.169 169.280   7
   3   1  16-26.4268 162.854   8
  -3   1 -16 224.026 201.240  11
  -3  -1 -16 215.337 184.400  11
  -3   1 -17 57.5696 132.097  11
  -3  -1 -17 136.312 138.678  11
   3   1  17 226.952 110.112  14
   3  -1  18 1459.70 186.743  14
   3   2 -18 994.954 245.390  11
   3  -2 -18 639.414 151.086  11
  -3   2  18 887.696 271.772   8
  -3   2  17 7324.12 616.800   8
   3   2 -17 6553.37 608.147  11
   3  -2 -17 6495.29 614.697  11
   3  -2 -16 7357.79 704.477  11
  -3   2  16 8286.46 658.210   8
   3   2 -16 8254.05 733.419  11
   3   2 -15 1144.48 357.297  11
  -3   2  15 163.498 320.489   8
   3  -2 -15 1002.12 366.295  11
   3   2 -14 8688.08 851.513  11
  -3   2  14 6788.17 727.810   8
   3  -2 -14 6942.64 855.304  11
  -3   2  13 5105.55 599.092   9
  -3  -2  13 7372.26 1628.75   1
  -3   2  13 5224.39 601.811   8
   3   2 -13 5688.71 710.807  11
   3   2 -12 1249.55 333.725  16
  -3   2  12 872.250 307.560   9
  -3  -2  12 1667.47 787.361   1
   3   2 -12 835.292 319.963  11
  -3   2  12 694.570 312.342   8
  -3   2  11 12623.2 823.966   9
  -3   2  11 13047.0 929.846   8
  -3  -2  11 13183.9 1816.12   1
  -3  -2  10-149.151 417.349   1
  -3   2   9-148.850 204.998   1
  -3  -2   9-120.000 304.653   1
  -3   2   8 16553.0 1415.53   1
  -3  -2   8 14938.6 1694.00   1
  -3  -2   7 2561.40 696.432   1
  -3   2   7 2654.10 586.122   1
  -3  -2   6 13772.7 1447.70   1
  -3   2   6 15038.0 1214.98   1
  -3  -2   5 54.6662 331.125   1
  -3  -2   4 209846. 4823.27   1
  -3  -2   3 197910. 4298.69   1
   3   2  -3 201919. 3569.56   2
  -3  -2   2 143003. 3269.29   1
   3   2  -2 145080. 2760.43   2
   3   2  -1 318347. 4035.31   2
  -3  -2   1 316357. 4276.66   1
  -3  -2   0 11526.8 732.314   1
   3   2   0 11700.6 849.617   2
   3   2   1 34741.6 1513.79   2
  -3  -2  -2 226.173 198.871   3
   3   2   2 94.5454 223.865   2
   3   2   3 19281.2 1387.27   2
  -3  -2  -3 17815.6 1341.49   3
   3   2   4 4951.96 582.069   1
  -3  -2  -4 11998.6 1225.89   3
   3   2   5 25943.6 1996.23   2
  -3  -2  -5 22466.7 1832.89   3
  -3  -2  -6 1658.86 583.028   3
   3   2   6 1862.33 645.370   2
   3  -2   7 6523.83 1344.84   1
   3   2   7 10033.1 1356.14   2
  -3  -2  -7 8978.59 1376.27   3
  -3  -2  -8 617.897 408.598   3
   3   2   8 451.731 485.972   2
   3  -2   8-253.375 341.699   1
   3  -2   9 4451.07 1264.76   1
  -3  -2  -9 5320.65 1222.16   3
  -3   2 -10 330.769 140.496  11
   3   2  10 578.549 277.658   8
   3  -2  10 1107.60 617.138   1
  -3  -2 -10 392.846 462.495   3
  -3   2 -11 2268.74 429.189  11
   3   2  11 2636.29 451.987   8
  -3   2 -11 2345.51 402.746  12
   3  -2  11 1656.79 759.890   1
  -3  -2 -11 3280.88 1139.66   3
  -3   2 -12 3847.08 471.943  12
  -3   2 -12 3769.49 563.147  11
  -3  -2 -12 2572.29 1018.81   3
   3   2  12 4005.64 513.632   8
   3  -2  12 3504.75 1094.87   1
  -3   2 -13 8402.42 827.209  11
   3   2  13 8590.40 728.599   8
   3   2  14 6141.51 612.852   8
  -3   2 -14 5888.29 699.764  11
  -3   2 -15 874.028 288.730  11
   3   2  15 1167.21 305.739   8
  -3   2 -16 2302.16 414.878  11
   3   2  16 1826.04 344.380   8
   3   2  16 2322.82 258.121  14
  -3   2 -16 2120.85 302.931   7
  -3   2 -17 0.40313 118.387   7
   3   2  17 0.17555 97.1602  14
  -3   2 -17-197.299 130.814  11
   3   2  17 38.8493 110.136   8
   3   3 -18 421.559 163.590  11
  -3   3  18 226.336 130.224   8
   3   3 -17 3724.29 411.948  11
  -3   3  17 4608.59 457.968   8
   3   3 -16 4043.48 501.715  11
   3  -3 -16 3765.51 493.026  11
  -3   3  16 4572.07 664.180   8
   3   3 -15 2064.56 410.425  11
  -3   3  15 1230.58 420.923   8
   3  -3 -15 1879.51 379.412  11
  -3   3  14 15865.5 1033.17   8
   3   3 -14 14891.4 1055.56  11
   3  -3 -14 14336.1 1098.75  11
   3   3 -14 13766.7 875.186  12
  -3   3  13 8669.04 754.963   8
   3   3 -13 8779.33 826.370  11
  -3   3  13 7781.50 735.480   9
   3  -3 -13 7422.10 796.666  11
   3   3 -12 6427.52 733.535  11
  -3   3  12 6213.83 688.004   9
  -3  -3  12 6351.37 1387.24   1
   3   3 -12 7005.70 780.215  16
  -3   3  12 6024.28 657.460   8
  -3   3  11 217.368 230.403   8
  -3  -3  11 203.050 448.864   1
  -3   3  11 533.705 303.914   9
   3   3 -11 362.093 242.207  16
   3   3 -11 236.929 202.507  11
  -3  -3  10 5076.60 1157.76   1
  -3  -3   9 109.347 332.171   1
  -3  -3   8 7766.32 1285.14   1
  -3  -3   7 2443.66 686.044   1
  -3  -3   6 8873.96 1233.31   1
  -3  -3   5 27339.3 2026.07   1
   3   3  -5 27221.9 1578.98   2
  -3  -3   4 146.292 284.550   1
   3   3  -4-203.027 244.903   2
   3   3  -3 22886.5 1295.15   2
  -3  -3   3 25595.3 1666.96   1
   3   3  -2 31245.7 1480.20   2
  -3  -3   2 32060.2 1713.95   1
  -3  -3   1-88.1342 195.895   1
   3   3  -1 295.619 260.182   2
  -3  -3   0 8286.58 650.932   1
   3   3   0 8336.65 822.695   2
  -3  -3  -2 798.285 321.695   3
   3   3   2 776.617 413.599   2
   3   3   3-2.19053 260.769   2
  -3  -3  -3 88.0608 210.030   3
   3   3   4 13449.1 1387.27   2
  -3  -3  -4 11293.1 1232.81   3
   3   3   5 503.832 487.223   2
  -3  -3  -5 219.596 235.930   3
   3  -3   6 1118.10 563.420   1
   3   3   6 1027.65 557.099   2
  -3  -3  -6 537.432 369.034   3
  -3  -3  -7 10211.7 1518.81   3
   3  -3   7 9570.79 1546.68   1
   3   3   7 10583.5 1441.59   2
   3  -3   8 660.244 346.164   1
   3   3   8 966.916 569.809   2
  -3  -3  -8 874.900 542.197   3
  -3  -3  -9 4850.60 1261.59   3
  -3   3 -10 8288.85 821.615  11
   3  -3  10 7575.82 1595.32   1
   3   3  10 9777.13 761.941   8
  -3   3 -10 8365.77 699.915  12
  -3  -3 -10 7535.39 1593.54   3
  -3  -3 -11 535.339 570.884   3
   3   3  11 387.265 244.908   8
   3  -3  11 527.597 535.383   1
  -3   3 -11 378.857 244.996  11
  -3   3 -12 9930.39 766.135  12
   3   3  12 11794.7 842.249   8
  -3   3 -12 11119.3 931.937  11
  -3   3 -13 694.379 245.513  12
   3   3  13 403.972 206.698   8
  -3   3 -13 305.772 239.810  11
   3   3  14 83.2990 185.243   8
  -3   3 -14 123.330 178.301  12
  -3   3 -14 418.658 216.942  11
   3   3  15 1219.17 298.786   8
  -3   3 -15 931.145 314.640  11
  -3   3 -16 1693.97 244.723   7
   3   3  16 1741.88 296.250   8
  -3   3 -16 1493.39 346.839  11
  -3   3 -17 3087.01 402.062  11
  -3   3 -17 2859.15 268.712   7
   3   4 -17 1089.57 211.750  11
  -3   4  17 1046.56 275.209   8
   3   4 -16 168.103 137.411  11
  -3   4  16-170.328 169.111   8
   3   4 -15 446.970 187.194  11
   3   4 -15 705.690 224.078  12
  -3   4  15 682.159 321.306   8
   3   4 -14 8565.04 722.422  11
   3   4 -14 8512.15 675.533  12
  -3   4  14 8929.66 719.923   8
  -3   4  13 6955.28 721.981   9
   3   4 -13 7118.94 684.467  11
  -3   4  13 6752.24 721.485   8
   3   4 -13 7966.31 843.328  16
   3   4 -13 6178.69 639.125  12
  -3   4  12 1731.03 434.707   9
  -3   4  12 1751.57 470.949   8
   3   4 -12 1333.67 405.479  16
   3   4 -12 1372.18 333.991  11
   3   4 -11 43.2833 201.453  11
  -3   4  11 369.097 308.424   9
  -3  -4  11 670.634 683.600   1
   3   4 -11 32.9865 190.849  16
  -3   4  11 339.124 268.585   8
   3   4 -10 718.633 273.898  16
  -3   4  10 861.398 310.827   9
  -3  -4  10 778.105 556.670   1
  -3   4  10 821.104 304.462   8
   3   4  -9 4316.54 839.916   2
  -3  -4   9 3759.97 871.663   1
   3   4  -8 13143.4 1422.49   2
  -3  -4   8 14206.1 1874.64   1
   3   4  -7 6771.16 973.227   2
  -3  -4   7 7951.83 1306.73   1
   3   4  -6 32085.0 1922.86   2
  -3  -4   6 36971.0 2675.13   1
  -3  -4   5 138.369 252.044   1
   3   4  -5 8.15489 183.351   2
  -3  -4   4 15745.9 1531.29   1
   3   4  -4 13685.6 1107.35   2
  -3  -4   3-168.232 263.451   1
   3   4  -2 31335.3 1646.26   2
  -3  -4   2 32136.8 1854.49   1
  -3  -4   1 21918.8 1378.46   1
   3   4  -1 21566.0 1368.51   2
  -3  -4   0 9388.19 689.700   1
   3   4   0 8335.15 843.586   2
   3   4   1 15146.5 1225.61   2
   3   4   2 212.545 256.544   2
  -3  -4  -2 504.950 288.169   3
   3   4   3 35740.1 2345.52   2
  -3  -4  -3 30431.6 1897.73   3
   3   4   4 12097.9 1460.78   2
  -3  -4  -4 11011.4 1287.35   3
   3  -4   5 17540.0 2088.14   1
   3   4   5 18754.0 1898.13   2
   3   4   5 13624.0 1490.17   4
  -3  -4  -5 16994.5 1728.78   3
   3   4   6 1622.87 749.130   2
   3  -4   6 938.617 497.661   1
  -3  -4  -6 809.581 386.023   3
   3   4   6 635.146 324.067   4
   3   4   7-351.681 471.912   2
   3  -4   7 253.490 367.265   1
  -3  -4  -7 237.094 350.680   3
   3  -4   8 125.999 364.284   1
   3   4   8 35.4268 384.322   2
  -3  -4  -8 76.2803 390.511   3
  -3   4  -9 4385.71 550.367  12
  -3   4  -9 3651.85 550.290  11
   3  -4   9 3169.27 1077.35   1
  -3  -4  -9 4149.19 1256.29   3
   3   4   9 4425.03 530.131   8
  -3   4 -10 2898.92 528.071  11
  -3   4 -10 3166.64 464.743  12
   3   4  10 3012.35 475.607   8
   3  -4  10 3328.44 1174.29   1
  -3  -4 -10 3210.03 1142.70   3
  -3   4 -11 18334.7 1077.03  12
  -3  -4 -11 15829.0 2437.45   3
  -3   4 -11 15582.0 1191.33  11
   3   4  11 17849.8 1077.01   8
  -3   4 -12 411.176 218.488  12
  -3   4 -12 867.570 340.303  11
   3   4  12 242.644 248.724   8
   3   4  13 201.398 202.743   8
  -3   4 -13 60.0046 167.562  11
  -3   4 -13 267.035 169.617  12
  -3   4 -14 2153.06 436.034  11
   3   4  14 2762.60 415.042   8
  -3   4 -14 2334.98 381.531  12
  -3   4 -15 903.995 230.948   7
  -3   4 -15 611.171 268.971  11
   3   4  15 1026.88 257.115   8
  -3   4 -15 525.187 172.395  12
  -3   4 -16 292.440 155.666   7
   3   4  16-43.6415 148.275   8
   3   5 -16 1762.97 232.540  11
  -3   5  16 2704.83 316.579   8
   3   5 -15 2622.77 311.201  11
   3   5 -15 2098.93 300.838  12
  -3   5  15 2766.76 352.445   8
   3   5 -14 19544.3 924.515  11
   3   5 -14 19789.0 997.289  12
  -3   5  13-95.8715 162.145   8
   3   5 -13-82.9786 151.667  12
   3   5 -13 78.4963 197.238  16
   3   5 -12 28472.8 1589.98  16
  -3   5  12 28671.5 1300.78   8
  -3   5  12 26132.6 1241.52   9
  -3   5  11 1439.95 459.842   9
   3   5 -11 871.025 409.366  16
  -3   5  11 1772.50 581.242   8
   3   5 -10 11666.0 1040.35  16
  -3   5  10 10827.7 764.988   9
  -3   5  10 12086.8 814.167   8
  -3  -5  10 9267.03 1633.45   1
  -3   5   9 7015.50 660.703   9
  -3  -5   9 7038.63 1444.67   1
   3   5  -9 7758.62 851.396  16
  -3   5   9 7600.94 633.432   8
   3   5  -8-137.500 209.059  16
  -3  -5   8-147.932 346.273   1
  -3  -5   7 2063.15 705.591   1
   3   5  -7 1719.89 566.635   4
   3   5  -6-251.474 305.922   4
  -3  -5   6 333.990 413.433   1
  -3  -5   5 1157.50 503.889   1
   3   5  -5 536.480 277.830   4
   3   5  -4 157.282 262.863   4
  -3  -5   4 537.816 376.840   1
  -3  -5   3-38.1505 220.429   1
   3   5  -3 682.064 497.276   4
   3   5  -2 15774.4 1241.65   2
   3   5  -1 11477.8 1075.99   2
   3   5   0 8179.34 946.075   2
   3   5   1 1955.92 518.468   2
   3   5   2-7.36646 330.116   4
   3   5   2-18.2705 247.508   2
   3  -5   3 10382.9 1673.70   1
   3   5   3 10528.5 1372.22   2
   3   5   3 9768.67 1471.33   4
   3   5   4 293.737 353.059   2
   3  -5   4 1232.78 693.783   1
   3   5   4 828.877 448.509   4
   3   5   5 513.556 342.373   2
   3   5   5 369.028 297.295   4
   3  -5   5 434.830 517.564   1
   3  -5   6 805.286 585.759   1
   3   5   6 972.787 597.727   2
   3   5   6 1259.87 480.450   4
  -3  -5  -6 1153.36 525.612   3
  -3   5  -7 183.112 251.889  16
   3   5   7 181.170 342.378   2
  -3   5  -7 282.808 187.123   6
   3  -5   7-149.150 280.171   1
  -3  -5  -7 498.246 370.588   3
  -3   5  -7 195.164 148.958  12
  -3   5  -8 709.110 265.452  12
  -3   5  -8 841.341 360.053   6
  -3   5  -8 703.310 284.257  11
   3  -5   8 261.356 482.949   1
  -3  -5  -8 741.651 600.587   3
  -3   5  -8 459.985 283.437  16
  -3   5  -9 2392.59 438.255  12
   3  -5   9 1588.08 760.555   1
   3   5   9 2057.27 365.689   8
  -3   5  -9 1986.64 415.224  11
  -3  -5  -9 2319.86 971.190   3
  -3   5 -10 3801.49 531.662  12
  -3   5 -10 3030.27 522.167  11
   3   5  10 3746.49 476.118   8
  -3  -5 -10 3021.39 1037.37   3
   3   5  11 7757.71 699.698   8
  -3   5 -11 8687.81 751.227  12
  -3   5 -11 7056.76 757.607  11
  -3   5 -12 9342.29 744.943  12
  -3   5 -12 8292.96 787.088  11
   3   5  12 8021.62 698.168   8
  -3   5 -13 787.235 250.724  11
  -3   5 -13 1365.80 310.271  12
   3   5  13 1148.40 266.372   8
  -3   5 -14 717.610 206.026   7
  -3   5 -14 831.555 217.693  12
   3   5  14 761.549 264.514   8
  -3   5 -15 235.555 153.225   7
  -3   5 -15 257.999 156.872  12
   3   6 -15 1304.38 232.058  12
  -3   6  15 1493.86 213.409   8
   3   6 -14 3946.19 430.934  12
  -3   6  14 4477.08 437.165   8
   3   6 -13 13597.1 853.667  12
  -3   6  13 16720.8 842.840   8
   3   6 -13 14250.7 1020.43  16
  -3   6  12 142.063 200.389   8
   3   6 -12 240.569 271.414  16
   3   6 -12 96.9964 193.044  12
  -3   6  11-74.0109 224.315   9
  -3   6  11 231.813 233.555   8
   3   6 -11 120.016 254.638  16
   3   6 -10 368.224 227.568   6
   3   6 -10 495.106 265.636  16
   3   6  -9 11577.6 848.626   6
   3   6  -9 12503.3 1108.01  16
  -3  -6   8 1231.41 494.434   1
   3   6  -8 1690.02 356.259   6
   3   6  -7 6489.90 802.713  16
   3   6  -7 5818.73 628.736   6
   3   6  -7 6216.54 588.203   5
  -3  -6   7 5724.00 1243.25   1
   3   6  -6 12019.0 809.216  10
   3   6  -6 13521.0 864.351   5
   3   6  -6 12691.5 1111.73  16
  -3  -6   6 13329.0 1766.44   1
   3   6  -6 9687.26 1426.66   4
   3   6  -5 809.508 318.643  16
   3   6  -5 718.231 240.310   5
   3   6  -5 511.616 344.824   4
   3   6  -4 153.716 228.202   4
   3   6  -3 4097.88 1049.23   4
   3   6  -1 12359.8 1850.76   4
   3   6   0 688.287 547.675   4
   3   6   2 142.481 402.027   4
   3  -6   3 21.8679 267.664   1
   3   6   3 335.139 351.401   4
  -3   6  -4 1489.40 477.200   5
   3  -6   4 1376.50 708.001   1
  -3   6  -4 1945.88 400.151   6
   3   6   4 1261.17 525.111   4
  -3   6  -4 2073.45 394.584  10
   3  -6   5 519.031 430.349   1
  -3   6  -5 699.195 302.223   6
  -3   6  -5 219.550 172.255  10
   3   6   5 604.146 460.979   4
  -3   6  -5 742.218 248.911  12
  -3   6  -5 660.012 234.957  13
   3  -6   6 888.039 716.893   1
  -3   6  -6 102.320 260.260  10
  -3   6  -6 753.250 252.269  12
  -3   6  -6 322.473 195.629  16
  -3   6  -6 412.201 192.057   6
  -3   6  -7 1833.25 473.371  16
  -3   6  -7 1875.98 422.511   6
   3  -6   7 2096.88 859.838   1
  -3   6  -7 2167.24 441.429  12
  -3   6  -8-182.612 272.648   6
  -3   6  -8 119.952 203.826  12
  -3   6  -8 46.6747 239.078  16
  -3   6  -9 984.141 291.495  12
  -3   6 -11 4550.59 531.802  12
   3   6  11 3597.81 470.185   8
  -3   6 -12 496.266 173.405   7
   3   6  12 618.140 198.170   8
  -3   6 -12 676.035 231.602  12
  -3   6 -13 284.002 188.878   7
  -3   6 -13-37.1625 130.622  12
  -3   6 -14 721.853 191.553   7
  -3   6 -14 327.168 148.731  12
   3   7 -14 367.966 169.522  12
   3   7 -13 10801.2 651.031  12
   3   7 -12 9248.97 683.102  12
   3   7 -12 8752.13 816.815  16
   3   7 -11 4152.69 502.302  12
   3   7 -11 3330.86 400.809   6
   3   7 -11 3512.46 553.068  16
   3   7 -10 3711.90 535.528  12
   3   7 -10 3395.60 426.096   6
   3   7 -10 3316.74 570.999  16
   3   7  -9 8142.92 710.519   6
   3   7  -9 8253.76 900.966  16
   3   7  -8 3567.25 490.615   6
   3   7  -8 3758.31 635.668  16
   3   7  -7 2192.78 482.901   6
   3   7  -7 1973.20 462.144  16
   3   7  -6 10761.1 773.086  10
   3   7  -6 9360.17 1567.04   4
   3   7  -6 12163.7 1099.07  16
   3   7  -5 12517.7 865.248  10
   3   7  -5 13014.1 1139.77  16
   3   7  -5 14820.4 935.716   5
   3   7  -4 1353.64 296.518  10
   3   7  -4 1774.59 459.139  16
   3   7  -4 2268.24 383.662   5
   3   7  -4 2278.84 792.300   4
   3   7  -3-39.9970 267.050   4
   3   7  -3 331.552 299.005  16
   3   7  -3 59.1397 167.623  10
   3   7  -2 2801.26 429.107  10
   3   7  -2 2771.40 948.112   4
  -3   7   2 2681.79 354.929  13
   3   7  -2 2901.43 568.378  16
   3   7  -2 2709.65 405.960   5
   3   7  -1 2016.58 893.823   4
   3   7  -1 2242.73 351.547  10
   3   7  -1 3121.62 515.820   5
  -3   7   1 2386.27 338.084  13
  -3   7   0 3084.07 552.226   6
  -3   7   0 2454.81 412.700  13
  -3   7   0 2173.59 369.176  10
   3   7   0 2369.04 919.657   4
   3   7   1-64.1816 225.523   5
  -3   7  -1 388.958 235.419   6
  -3   7  -1 1415.22 329.967  13
  -3   7  -1 1163.46 357.740   5
  -3   7  -1 79.7736 203.206  10
   3   7   1 218.000 323.101   4
  -3   7  -2 1064.56 316.354   5
  -3   7  -2 2148.72 432.981   6
  -3   7  -2 1212.70 293.917  10
   3   7   2 1185.99 392.512   5
   3   7   2 1563.98 675.567   4
  -3   7  -2 1526.40 292.344  13
  -3   7  -3 2709.36 513.788   6
  -3   7  -3 2141.02 409.539  10
   3   7   3 2509.27 847.318   4
  -3   7  -3 1345.90 329.189   5
  -3   7  -3 2129.26 292.130  13
  -3   7  -4 309.780 202.909  12
  -3   7  -4 92.1732 150.043  13
  -3   7  -4 698.023 338.148   6
  -3   7  -4 583.997 271.344  10
   3   7   4 428.578 324.299   4
  -3   7  -5-72.4461 175.232  12
  -3   7  -5 164.307 214.600   6
  -3   7  -5 12.1706 187.580  10
  -3   7  -6 13365.5 903.800  12
  -3   7  -6 10694.8 1010.17   6
  -3   7  -7 1241.21 338.573   6
  -3   7  -7 1347.73 402.734  16
  -3   7  -8 29.5372 155.071  12
  -3   7  -8 211.778 226.958   6
  -3   7  -9 875.273 262.726  12
  -3   7 -10 2264.83 286.050   7
  -3   7 -10 2453.22 420.798  12
  -3   7 -11 8429.64 655.211  12
  -3   7 -11 8186.96 493.171   7
  -3   7 -12 119.270 120.119   7
  -3   7 -12 132.456 158.713  12
  -3   7 -13 4448.45 321.442   7
  -3   7 -13 4303.49 392.919  12
   3   8 -12 3859.04 356.374  12
   3   8 -11 643.007 222.886  12
   3   8 -11 262.411 178.204  16
   3   8 -10 1543.44 296.734   6
   3   8 -10 1283.62 303.864  16
   3   8 -10 1793.10 316.694  12
   3   8  -9 3638.91 487.153  12
   3   8  -9 2835.51 482.791  16
   3   8  -9 3060.60 430.894   6
   3   8  -8 555.285 257.730   6
   3   8  -8 294.791 183.025  12
   3   8  -8 161.769 179.203  16
   3   8  -7 1419.93 334.442  12
   3   8  -7 1774.68 377.742   6
   3   8  -7 1868.49 417.136  16
   3   8  -6 920.179 252.659  12
   3   8  -6 1668.92 359.290   5
   3   8  -6 1309.67 372.556   6
   3   8  -6 807.816 258.469  16
   3   8  -5 6539.32 616.563  12
   3   8  -5 6510.84 612.541  10
   3   8  -5 6186.98 817.494  16
   3   8  -4 370.820 210.218  10
   3   8  -4 437.864 243.202  16
   3   8  -3 1437.56 314.436  10
   3   8  -3 1653.80 361.593   5
   3   8  -3 1386.60 421.325  16
   3   8  -2 3613.97 469.129  10
   3   8  -2 4305.26 590.568   5
  -3   8   2 2227.31 344.225   5
   3   8  -2 3347.69 605.427  16
  -3   8   1 3034.60 477.955   6
   3   8  -1 2462.68 391.694  10
  -3   8   1 2318.94 400.796  10
  -3   8   1 1623.96 260.891   5
   3   8  -1 2764.01 490.194   5
   3   8  -1 2103.82 500.220  16
  -3   8   0 10917.0 874.101   6
   3   8   0 9967.36 761.678  10
  -3   8   0 7165.62 660.817   5
   3   8   0 9961.86 888.741   5
  -3   8   0 8698.67 764.696  10
   3   8   0 8323.76 948.162  16
  -3   8   0 7945.01 562.686  13
  -3   8  -1 3677.29 537.795   6
   3   8   1 3031.99 444.696  10
  -3   8  -1 2129.95 395.472   5
  -3   8  -1 2573.45 305.633  13
  -3   8  -1 3162.37 501.336  10
   3   8   1 3459.94 561.186   5
  -3   8  -2-121.468 172.391   6
  -3   8  -2 112.354 183.646  10
  -3   8  -2-367.815 244.098  13
  -3   8  -2 88.5351 244.069   5
  -3   8  -3 458.597 227.263  10
  -3   8  -3 467.556 210.185   6
  -3   8  -3 172.162 234.728   5
   3   8   3 369.875 235.022   5
  -3   8  -4 106.942 222.072  10
  -3   8  -4 61.0417 211.404   6
  -3   8  -5 33.9428 144.679  12
  -3   8  -5-349.630 293.357  10
  -3   8  -5-54.3057 203.692   6
   3   8   5 166.537 240.552   5
  -3   8  -6 458.712 191.690  12
   3   8   6-106.299 307.142   5
  -3   8  -6 184.061 181.404   6
  -3   8  -7 387.524 155.715  12
  -3   8  -7 368.209 219.104   6
  -3   8  -8 6104.55 544.670  12
  -3   8  -8 5234.40 617.691   6
  -3   8  -9 837.999 255.053  12
  -3   8 -10 3474.40 405.695  12
   3   8  11 3061.10 405.241   5
  -3   8 -11 3968.17 385.417  12
   3   9 -10 5551.01 406.463  12
   3   9 -10 4282.65 439.965  16
   3   9  -9 1657.65 253.027  12
   3   9  -9 1220.00 236.378   6
   3   9  -9 1050.55 253.727  16
   3   9  -8 345.811 152.110  12
   3   9  -8 189.014 157.857   6
   3   9  -8 189.621 181.190  16
   3   9  -7 824.573 257.791  12
   3   9  -7 496.653 272.371   6
   3   9  -7-92.4270 189.572  16
   3   9  -6 505.709 217.394   6
   3   9  -6-24.8414 146.701  16
   3   9  -5 5071.20 583.479   6
   3   9  -5 5514.54 557.531   5
   3   9  -5 4447.85 570.091  16
   3   9  -4 3270.02 465.345   5
   3   9  -4 2499.68 335.857  10
   3   9  -4 2867.68 461.970   6
  -3   9   4 2881.13 423.644  10
   3   9  -4 2511.17 458.647  16
  -3   9   3 1956.58 334.801  10
   3   9  -3 1727.99 397.092  16
   3   9  -3 2317.38 376.675   5
   3   9  -3 1743.23 330.527  10
   3   9  -2 3325.69 444.072  10
  -3   9   2 2169.12 340.635   5
  -3   9   2 3056.21 431.735  10
   3   9  -2 2919.02 496.053  16
   3   9  -1 5947.09 572.025  10
  -3   9   1 6515.95 646.042  10
  -3   9   1 4620.27 515.576   5
   3   9  -1 5316.18 665.039  16
  -3   9   1 6352.00 609.677   6
  -3   9   0 646.691 233.920   6
   3   9   0 1216.60 331.080   5
   3   9   0 792.442 291.817  16
  -3   9   0 1108.19 323.318  10
  -3   9   0 485.234 224.432   5
   3   9   1 4714.53 527.735  10
  -3   9  -1 5776.29 593.333   6
  -3   9  -1 5420.25 576.380  10
  -3   9  -1 3813.07 484.245   5
   3   9   1 6613.43 648.191   5
  -3   9  -2 6583.31 648.554   6
   3   9   2 5221.17 513.083  10
   3   9   2 6790.47 643.105   5
  -3   9  -2 6031.57 604.392  10
  -3   9  -3 1028.76 298.099   6
  -3   9  -3 914.557 281.601  10
   3   9   3 844.386 228.750  10
   3   9   3 660.743 263.202   5
   3   9   4-158.426 170.184  10
  -3   9  -4-269.962 235.404  10
  -3   9  -4-217.701 172.336   6
   3   9   4 19.6742 244.284   5
  -3   9  -5 4624.18 588.192   6
   3   9   5 4944.85 611.042   5
  -3   9  -6 1643.36 344.651   6
   3   9   6 1642.73 332.697   5
  -3   9  -7 6651.55 473.139  12
   3   9   7 5659.92 576.869   5
   3   9   8 6177.73 572.427   5
  -3   9  -8 7541.44 506.397  12
   3   9   9 6855.59 548.864   5
  -3   9  -9 7975.19 497.410  12
  -3  10   7 1557.25 243.344  10
   3  10  -7 1642.17 242.117   6
   3  10  -7 1352.14 202.600  16
   3  10  -6-16.5774 122.249   6
  -3  10   6 125.413 154.285  10
  -3  10   5 1659.62 287.487  10
   3  10  -5 1739.64 286.893   6
   3  10  -5 1567.07 271.955  16
   3  10  -4-81.9567 164.784   6
  -3  10   4-25.9370 135.636  10
   3  10  -4 123.769 184.359   5
   3  10  -4-75.4273 121.325  16
   3  10  -3 158.432 171.485   6
   3  10  -3 268.711 119.039  16
   3  10  -3 593.153 255.890   5
   3  10  -2-253.428 180.356   6
   3  10  -2 28.5723 139.414  10
  -3  10   2 232.393 185.741  10
   3  10  -2 129.101 166.652   5
   3  10  -1 152.126 114.117  10
   3  10  -1-29.1599 204.299   6
   3  10  -1 190.737 179.029   5
  -3  10   0 13367.0 781.631  10
   3  10   0 14772.8 775.521   5
  -3  10   0 12970.1 717.591   6
   3  10   1 730.839 192.113  10
  -3  10  -1 1005.98 256.807  10
   3  10   1 1027.19 237.761   5
  -3  10  -1 959.477 228.849   6
  -3  10  -2 1361.03 270.102   6
  -3  10  -2 1230.14 284.411  10
   3  10   2 1084.02 249.880  10
   3  10   3 256.514 129.618  10
   3  10   3 221.150 163.375   5
  -3  10  -3 105.444 135.209   6
   3  10   4 6948.76 522.719   5
  -3  10  -4 6332.01 562.467   6
   3  10   5 1857.36 246.365  10
   3  10   6 10.0901 110.520  10
   4   0 -18 1965.04 327.999  11
  -4   0  18 1905.44 288.238   8
   4   0 -17-38.7247 185.175  11
  -4   0  17-17.5338 146.159   8
   4   0 -16 4744.92 778.672  11
  -4   0  16 2383.19 647.545   8
  -4   0  15-30.8102 189.759   8
   4   0 -15 108.739 202.232  11
   4   0 -14 6492.38 844.553  11
  -4   0  14 6358.99 631.177   8
  -4   0  13-142.753 171.691   8
  -4   0  13-317.862 366.607   1
  -4   0  12 2622.90 733.868   1
  -4   0  12 3892.61 516.753   9
  -4   0  12 3303.23 535.238   8
  -4   0  11 80.1192 238.868   1
  -4   0  10 8464.44 1299.02   1
  -4   0   9-30.4005 361.779   1
  -4   0   8 759.109 554.674   1
  -4   0   7 75.4822 257.912   1
  -4   0   6 2390.91 612.541   1
  -4   0   5-36.6232 219.792   1
  -4   0   4 31.0577 184.259   1
  -4   0   3-109.508 193.476   1
  -4   0   2 9506.69 1024.57   1
   4   0  -2 8495.32 702.873   2
   4   0  -1-240.441 262.224   2
   4   0   0 8885.94 655.782   2
   4   0   1 2544.49 693.688   2
   4   0   2 106741. 2580.47   2
   4   0   3 0.20661 272.526   2
   4   0   4 54892.0 2426.52   2
  -4   0  -4 53247.6 2551.91   3
   4   0   5 218.684 290.008   2
  -4   0  -5-173.109 211.516   3
   4   0   6 137640. 4508.51   2
  -4   0  -6 139075. 4885.71   3
   4   0   7-537.679 386.881   2
  -4   0  -7-20.8904 308.574   3
   4   0   7 67.8915 198.641   1
   4   0   8 728.386 505.734   1
  -4   0  -8 1408.70 628.553   3
   4   0   9-191.145 218.944   1
  -4   0  -9 34.1140 365.342   3
  -4   0 -10 11879.4 1904.02   3
  -4   0 -11 105.848 221.812  11
  -4   0 -11-378.718 472.820   3
   4   0  11-15.0727 197.049   8
  -4   0 -12 171206. 3658.72  11
   4   0  12 169336. 3154.66   8
  -4   0 -13-118.881 162.624  11
   4   0  13-53.2542 198.088   8
  -4   0 -14 776.010 291.926  11
   4   0  14 677.947 245.597   8
  -4   0 -15-47.0016 174.953  11
   4   0  15-64.6252 137.500   8
  -4   0 -16 1913.46 421.111  11
  -4   0 -17-24.0494 117.233  11
   4   0  17 29.5253 109.871  14
   4   1 -18 3353.78 409.165  11
   4  -1 -18 3181.98 389.424  11
  -4   1  18 3267.37 351.228   8
   4   1 -17 3375.96 468.052  11
  -4   1  17 4097.05 492.529   8
   4  -1 -17 2831.91 416.105  11
   4  -1 -16 4801.80 620.947  11
   4   1 -16 4649.52 612.454  11
  -4  -1  16 6172.87 566.299   8
  -4   1  16 4431.55 501.238   8
   4   1 -15 1873.62 457.324  11
   4  -1 -15 1766.33 430.674  11
  -4   1  15 1457.69 370.824   8
  -4  -1  15 1644.19 322.410   8
  -4  -1  14 4669.08 549.604   8
   4  -1 -14 3818.56 651.481  11
  -4   1  14 3986.62 576.535   8
   4   1 -14 4214.38 668.979  11
  -4  -1  13 164.915 384.397   1
  -4   1  13 173.764 262.451   8
  -4   1  13-89.0939 200.260   9
  -4  -1  13-70.9631 160.373   8
  -4   1  12 4119.47 474.655   9
  -4   1  12 3954.96 547.009   8
  -4  -1  12 3728.51 499.485   8
  -4  -1  12 3732.65 969.280   1
  -4  -1  11 5324.92 1117.24   1
  -4   1  11 4039.79 897.148   1
  -4  -1  10 5579.74 1107.50   1
  -4   1  10 5704.96 994.812   1
  -4   1   9 486.754 317.759   1
  -4  -1   9 963.624 478.438   1
  -4  -1   8 39620.8 2771.01   1
  -4   1   8 39872.0 2413.16   1
  -4   1   7 11246.1 1222.82   1
  -4  -1   7 11029.8 1399.91   1
  -4  -1   6 65597.6 3182.76   1
  -4   1   6 63358.8 2757.70   1
  -4  -1   5 25413.9 1838.49   1
  -4   1   5 25634.7 1672.63   1
  -4   1   4 610.378 284.668   1
  -4  -1   4 689.852 336.399   1
   4   1  -3 11682.7 899.204   2
  -4  -1   3 10393.7 1005.30   1
   4   1  -2 13287.1 839.493   2
   4  -1  -2 12535.1 765.947   2
  -4  -1   2 11887.3 1006.45   1
   4   1  -1 27134.1 1259.24   2
  -4  -1   1 28907.7 1600.78   1
   4   1   0 29697.1 1298.84   2
   4  -1   0 26967.9 1039.31   2
   4   1   1-553.009 365.590   2
   4   1   2 107.598 204.970   2
   4  -1   2 117.216 241.486   2
   4  -1   3 2377.82 423.401   2
   4   1   3 2440.95 476.698   2
  -4  -1  -3 2197.27 513.429   3
   4   1   4 108271. 3649.10   2
   4  -1   4 100503. 3161.89   2
  -4  -1  -4 102183. 3660.40   3
   4   1   5 18673.4 1649.74   2
   4  -1   5 16610.6 1377.44   2
  -4  -1  -5 15891.6 1590.71   3
   4  -1   6 91436.8 3355.18   2
  -4  -1  -6 93060.0 4070.67   3
   4   1   6 99215.0 4076.98   2
   4  -1   7 2568.91 973.368   1
   4   1   7 3769.63 843.227   2
  -4  -1  -7 3573.03 857.257   3
  -4   1  -7 3845.39 869.345   3
   4  -1   8 98.2745 324.315   1
   4   1   8 140.485 317.604   2
  -4   1  -8 257.946 350.474   3
  -4  -1  -8 44.3197 246.021   3
   4  -1   9 1299.99 680.234   1
  -4  -1  -9 1950.48 651.551   3
  -4   1 -10 13198.8 968.860  11
   4  -1  10 9305.84 1629.08   1
   4   1  10 13615.0 872.616   8
  -4  -1 -10 12471.9 2020.91   3
  -4  -1 -11 8855.72 1798.08   3
  -4  -1 -11 8664.85 796.582  11
   4  -1  11 6942.63 1411.41   1
   4   1  11 10614.3 796.574   8
  -4   1 -11 9713.38 867.711  11
   4  -1  11 9350.86 729.666   8
  -4   1 -12 86667.9 2639.57  11
  -4  -1 -12 85341.8 2530.41  11
   4  -1  12 83677.6 2156.18   8
   4   1  12 86698.8 2312.45   8
  -4  -1 -12 77220.9 5392.43   3
  -4  -1 -13 1930.47 415.322  11
  -4   1 -13 1998.90 423.523  11
   4  -1  13 2036.54 363.769   8
   4   1  13 2232.96 437.706   8
   4   1  14 15030.4 954.996   8
   4  -1  14 13206.7 841.853   8
  -4  -1 -14 14786.4 1054.75  11
  -4   1 -14 14660.8 1113.53  11
  -4   1 -15 92.8964 171.449   7
  -4  -1 -15 200.004 158.523  11
  -4   1 -15 104.747 171.800  11
   4   1  15 334.112 176.746   8
  -4   1 -16 379.875 197.624  11
   4   1  16 234.338 139.363  14
  -4  -1 -17 106.226 148.999  11
  -4   1 -17 168.770 116.589  11
   4  -1  17 171.449 133.551  14
   4   1  17 255.183 130.527  14
   4   2 -18 4443.94 417.815  11
   4  -2 -18 3929.35 380.895  11
  -4   2  18 5140.18 397.340   8
   4   2 -17 4192.53 507.866  11
   4  -2 -17 3947.91 497.591  11
  -4   2  17 5105.86 548.153   8
   4   2 -16 2064.94 479.425  11
   4  -2 -16 1357.35 410.118  11
  -4   2  16 1099.54 474.338   8
   4   2 -15 802.872 331.973  11
   4  -2 -15 589.567 284.819  11
  -4   2  15 982.995 290.762   8
   4   2 -14 427.473 361.549  11
   4  -2 -14 616.881 386.798  11
  -4   2  14 383.804 399.107   8
  -4   2  13 1860.09 391.892   9
  -4   2  13 2098.48 448.433   8
   4   2 -13 2043.17 435.922  11
  -4   2  12 2986.54 457.899   8
   4   2 -12 3237.13 562.690  11
   4   2 -12 3774.13 565.458  16
  -4   2  12 2921.45 430.409   9
  -4  -2  12 2569.41 832.002   1
  -4  -2  11 127.465 258.555   1
  -4   2  11 634.986 259.744   9
  -4   2  11 798.943 350.153   8
  -4  -2  10-60.8903 243.572   1
  -4  -2   9 11155.9 1558.34   1
  -4   2   9 11262.2 1387.22   1
  -4   2   8 3817.04 854.144   1
  -4  -2   8 5064.73 1024.44   1
  -4  -2   7 1775.17 608.326   1
  -4  -2   6 1555.54 512.156   1
  -4  -2   5 1842.79 574.210   1
   4   2  -4 33176.4 1674.89   2
  -4  -2   4 31728.5 1968.13   1
   4   2  -3 85256.8 2486.52   2
  -4  -2   3 81265.1 2921.59   1
   4   2  -2 47294.1 1740.41   2
  -4  -2   2 51841.5 2057.81   1
   4   2  -1 7799.58 751.791   2
  -4  -2   1 7620.11 760.079   1
   4   2   0 11902.3 948.076   2
   4   2   1 36179.7 1704.29   2
   4   2   2 6658.16 793.145   2
  -4  -2  -3 2158.68 538.918   3
   4  -2   3 2012.00 373.278   2
   4   2   3 2085.12 534.865   2
   4   2   4 41088.7 2419.97   2
  -4  -2  -4 33011.6 2153.32   3
   4   2   5 149396. 4937.05   2
  -4  -2  -5 133189. 4675.34   3
   4   2   6 1838.74 592.307   2
  -4  -2  -6 1940.72 662.706   3
   4   2   7 8445.37 1317.25   2
   4  -2   7 6735.81 1368.02   1
  -4  -2  -7 7648.54 1322.02   3
   4   2   8 2063.50 721.136   2
  -4  -2  -8 1364.08 618.732   3
   4  -2   8 1642.36 651.927   1
   4   2   9 3198.84 946.250   2
   4  -2   9 2049.62 807.328   1
  -4  -2  -9 2962.39 964.965   3
  -4   2 -10 8017.51 793.853  11
   4  -2  10 6515.37 1521.68   1
   4   2  10 8634.54 726.024   8
  -4  -2 -10 7627.69 1632.03   3
  -4   2 -10 7395.87 641.468  12
  -4   2 -11 3317.15 532.704  11
  -4   2 -11 3094.76 435.655  12
   4  -2  11 1327.82 888.192   1
   4   2  11 3756.35 514.104   8
  -4  -2 -11 2709.47 1051.38   3
  -4   2 -12 1765.14 324.014  12
  -4   2 -12 1518.90 391.499  11
   4   2  12 1505.04 336.289   8
  -4  -2 -12 1381.97 763.302   3
  -4   2 -13 59017.9 2215.56  11
   4   2  13 59538.2 1915.56   8
  -4   2 -14 574.885 289.690  11
   4   2  14 123.693 200.493   8
  -4   2 -15 77.4746 219.979   7
   4   2  15 78.7068 121.830  14
   4   2  15 136.173 156.999   8
  -4   2 -15 1.37422 181.724  11
  -4   2 -16 1836.68 260.786   7
  -4   2 -16 1871.93 387.378  11
   4   2  16 1802.03 328.103   8
   4   2  16 2500.59 303.866  14
   4   2  17 2326.83 220.852  14
   4  -2  17 2015.71 231.866  14
   4   3 -18 5.92368 84.9298  11
  -4   3  18 48.6229 97.9725   8
   4   3 -17 985.920 228.584  11
   4  -3 -17 1399.13 281.064  11
  -4   3  17 1440.48 368.144   8
   4   3 -16 239.731 210.853  11
   4  -3 -16 283.342 198.461  11
   4  -3 -15 1379.27 355.619  11
  -4   3  15 2061.16 407.948   8
   4   3 -15 1799.91 390.386  11
   4   3 -14 9272.89 866.237  11
   4  -3 -14 7569.91 884.865  11
  -4   3  14 8523.26 787.224   9
   4   3 -14 7994.77 684.399  12
  -4   3  14 9975.32 914.266   8
  -4   3  13 3037.90 555.713   8
   4   3 -13 3273.06 568.296  11
  -4   3  13 3024.60 510.823   9
   4   3 -13 3060.53 519.034  16
  -4   3  12 789.703 255.507   9
   4   3 -12 963.399 315.376  16
  -4  -3  12 704.916 539.711   1
   4   3 -12 841.196 324.523  11
  -4   3  12 1010.42 326.446   8
   4   3 -11 463.675 260.778  11
  -4   3  11-23.4579 201.906   8
  -4  -3  11 327.884 500.403   1
  -4   3  11 176.708 263.277   9
   4   3 -11 425.846 228.927  16
  -4  -3  10 19.7619 394.353   1
  -4  -3   9 6941.53 1303.21   1
  -4  -3   8 4148.42 1013.54   1
   4   3  -7 64360.3 2940.04   2
  -4  -3   7 63114.9 3565.87   1
   4   3  -6 109955. 3559.15   2
  -4  -3   6 108034. 4386.21   1
   4   3  -5 79971.9 2824.31   2
  -4  -3   5 78985.2 3499.60   1
  -4  -3   4 98825.3 3628.86   1
   4   3  -4 98605.5 2929.86   2
   4   3  -3 10385.8 903.560   2
  -4  -3   3 9717.12 1056.53   1
   4   3  -2 23757.3 1412.84   2
  -4  -3   2 22391.3 1490.23   1
   4   3  -1 52623.4 2058.67   2
  -4  -3   1 44503.6 1963.91   1
   4   3   0 64898.4 2486.59   2
   4   3   1 3029.72 560.638   2
   4   3   2 3849.98 690.394   2
   4   3   3 7426.12 1019.78   2
  -4  -3  -3 6332.86 917.235   3
   4   3   4 29491.8 2239.59   2
  -4  -3  -4 24975.9 1944.24   3
   4   3   5 9977.31 1309.29   2
  -4  -3  -5 8547.81 1242.19   3
   4   3   6 8788.36 1390.94   2
  -4  -3  -6 7083.71 1217.33   3
   4   3   7 421.630 313.966   2
  -4  -3  -7 502.817 364.429   3
   4  -3   7 208.612 297.955   1
   4   3   8 5725.69 1172.67   2
  -4  -3  -8 5187.17 1249.70   3
  -4   3  -9 3349.67 511.384  11
   4   3   9 3337.12 988.277   2
   4  -3   9 2583.80 956.145   1
   4   3   9 3601.66 439.437   8
  -4  -3  -9 3114.32 996.212   3
  -4   3 -10 17887.3 1214.37  11
   4  -3  10 16825.4 2458.56   1
  -4   3 -10 17517.2 1014.60  12
   4   3  10 19065.7 1101.32   8
  -4  -3 -10 17159.1 2494.66   3
   4  -3  11 4293.19 1549.82   1
  -4   3 -11 3089.11 441.340  12
  -4  -3 -11 1943.90 979.090   3
   4   3  11 3434.50 490.963   8
  -4   3 -11 3165.56 540.178  11
  -4   3 -12 42103.0 1844.07  11
  -4   3 -12 37675.5 1516.51  12
   4   3  12 39067.6 1609.74   8
  -4   3 -13 2561.79 485.578  11
  -4   3 -13 1754.18 394.559  12
   4   3  13 2265.09 449.473   8
  -4   3 -14 1736.23 427.333  11
   4   3  14 1743.03 365.684   8
  -4   3 -14 1249.30 301.247  12
   4   3  15-299.136 198.025   8
  -4   3 -15-95.8779 138.194   7
  -4   3 -15 160.246 183.386  11
  -4   3 -16 887.279 219.057   7
  -4   3 -16 83.3604 156.173  11
  -4   4  17 3381.48 338.619   8
   4   4 -17 3359.84 321.532  11
   4   4 -16 318.016 178.262  12
   4   4 -16 831.793 218.242  11
  -4   4  16 859.757 265.487   8
   4   4 -15-25.7361 127.543  12
   4   4 -15 265.293 168.675  11
  -4   4  15 77.5388 201.816   8
   4   4 -14 5146.66 533.813  12
   4   4 -14 5361.19 592.072  11
  -4   4  14 5479.03 670.971   8
   4   4 -13 2370.95 427.394  11
  -4   4  13 2597.77 507.030   9
   4   4 -13 2368.17 441.537  16
  -4   4  13 2758.54 531.610   8
   4   4 -12 5395.78 630.711  11
  -4   4  12 4949.79 525.989   9
   4   4 -12 6386.87 734.644  16
  -4   4  12 6320.23 636.260   8
   4   4 -11 6516.83 705.483  11
  -4   4  11 6307.82 617.247   9
  -4  -4  11 6061.55 1368.01   1
  -4   4  11 6981.57 680.038   8
   4   4 -11 7378.50 800.701  16
  -4   4  10 4483.22 535.211   8
  -4  -4  10 3119.01 937.959   1
   4   4 -10 3261.67 784.215   2
  -4   4  10 3501.60 494.954   9
   4   4 -10 3669.25 555.155  16
  -4   4   9 7108.93 723.582   9
  -4  -4   9 6151.82 1304.74   1
   4   4  -9 6372.81 740.559  16
   4   4  -9 6604.68 1070.22   2
   4   4  -8 5755.40 926.485   2
  -4  -4   8 6133.07 1266.87   1
  -4  -4   7 4452.93 1054.29   1
   4   4  -7 4885.72 819.167   2
  -4  -4   6 6074.84 1131.70   1
   4   4  -6 5613.46 846.263   2
   4   4  -5 4049.06 674.531   2
  -4  -4   5 4895.35 911.162   1
  -4  -4   4 4191.33 836.776   1
   4   4  -4 4085.19 656.768   2
  -4  -4   3 1670.93 502.862   1
   4   4  -3 1892.24 445.067   2
   4   4  -2 34095.5 1847.67   2
  -4  -4   2 31494.7 1909.65   1
  -4  -4   1 1263.61 613.425   1
   4   4   0 28032.5 1732.53   2
   4   4   1 23055.4 1643.24   2
   4   4   2 12053.0 1294.20   2
   4   4   3 6938.98 1141.14   2
   4   4   4 16047.8 1750.58   2
  -4  -4  -4 13728.1 1478.25   3
   4   4   5 18091.1 1978.97   2
  -4  -4  -5 14430.3 1670.64   3
   4  -4   6 6575.92 1384.02   1
   4   4   6 7615.68 1358.08   2
   4   4   6 4893.03 945.378   4
  -4  -4  -6 6330.31 1220.36   3
   4   4   7 5095.43 1179.35   2
   4  -4   7 3511.76 1007.78   1
  -4  -4  -7 4091.23 1048.84   3
  -4   4  -8 18875.7 1075.40  12
   4   4   8 16850.7 990.640   8
  -4   4  -8 16163.6 1131.18  11
   4  -4   8 16703.2 2308.72   1
   4   4   8 17391.8 2149.01   2
  -4  -4  -8 17706.1 2307.72   3
  -4   4  -9 282.988 179.221  11
  -4  -4  -9-138.164 345.401   3
   4   4   9-115.343 149.610   8
  -4   4 -10 961.222 317.938  12
  -4   4 -10 877.536 349.214  11
   4  -4  10 1019.06 647.596   1
   4   4  10 1114.32 285.969   8
  -4  -4 -10 2140.98 940.066   3
  -4   4 -11 3769.47 531.059  12
  -4   4 -11 3280.03 580.595  11
   4   4  11 3466.92 477.727   8
  -4   4 -12 6102.79 618.055  12
  -4   4 -12 4830.34 690.294  11
   4   4  12 6224.75 618.199   8
  -4   4 -13 6819.07 687.211  12
  -4   4 -13 7882.70 809.967  11
   4   4  13 8145.67 701.323   8
  -4   4 -14 443.167 226.167   7
  -4   4 -14 227.853 201.531  11
   4   4  14 287.469 207.867   8
  -4   4 -14 172.283 163.893  12
   4   4  15 1590.04 284.243   8
  -4   4 -15 1615.11 271.552   7
  -4   4 -15 1387.75 279.851  12
   4  -4  16 982.275 195.227  14
  -4   4 -16 320.942 133.648   7
   4   5 -16 297.290 155.654  12
  -4   5  16 1015.61 281.523   8
   4   5 -15 1026.26 261.576  12
  -4   5  15 1601.72 308.749   8
   4   5 -14 5955.56 592.636  12
  -4   5  14 5837.56 699.297   8
  -4   5  13 752.669 290.659   9
   4   5 -13 479.739 234.172  16
  -4   5  13 1198.96 304.707   8
   4   5 -13 605.424 275.244  12
  -4   5  12 3624.16 594.912   9
   4   5 -12 2916.98 515.395  16
  -4   5  12 3909.89 596.213   8
   4   5 -11-179.718 266.856  16
  -4   5  11 256.403 201.642   9
  -4   5  11 277.786 258.743   8
  -4   5  10 6866.81 636.703   9
  -4  -5  10 6257.62 1395.06   1
   4   5 -10 7367.87 845.418  16
  -4   5  10 7982.46 684.061   8
  -4  -5   9 1369.82 761.690   1
  -4   5   9 993.239 286.576   9
   4   5  -9 441.561 249.903  16
  -4   5   9 1098.17 325.719   8
  -4  -5   8 603.294 500.009   1
  -4   5   8 222.413 202.143   9
   4   5  -8 389.728 219.176  16
  -4  -5   7 623.019 401.430   1
   4   5  -7 812.617 332.114  16
   4   5  -7 500.336 202.509   4
  -4  -5   6 7422.57 1301.28   1
   4   5  -6 4689.89 1007.97   4
  -4  -5   5 22310.8 2090.30   1
   4   5  -5 20493.0 1627.50   2
   4   5  -4 5620.70 835.856   2
  -4  -5   4 6104.40 1090.28   1
   4   5  -3 128.515 192.828   2
  -4  -5   3 51.2901 266.136   1
   4   5  -2 67128.1 2856.42   2
   4   5   0 78759.6 3214.06   2
   4   5   1 11313.5 1318.55   2
   4   5   2 739.591 344.370   2
   4   5   3 1472.58 461.612   2
   4   5   4-303.457 523.721   2
   4   5   4 358.249 354.941   4
   4   5   5 377.052 306.075   4
   4  -5   5 684.122 585.946   1
   4   5   5 973.606 629.238   2
   4   5   6 2895.48 973.848   2
  -4   5  -6 3510.52 479.694  12
   4  -5   6 2505.22 936.334   1
  -4   5  -6 3533.86 513.346   6
  -4   5  -7 564.040 190.831  12
  -4   5  -7 403.655 176.009  11
   4  -5   7 518.027 448.955   1
  -4   5  -7 639.089 277.543   6
  -4   5  -7 1037.16 402.158  16
  -4  -5  -7 392.480 402.494   3
   4   5   7 1060.21 625.348   2
  -4  -5  -8 616.277 432.166   3
  -4   5  -8 2001.54 419.022  12
   4   5   8 1937.73 803.995   2
  -4   5  -8 1138.59 338.331  11
   4  -5   8 1174.49 646.405   1
  -4   5  -9 328.770 233.072  12
  -4  -5  -9-139.965 515.232   3
   4   5   9 57.9664 182.836   8
  -4   5  -9 185.120 206.117  11
  -4   5 -10 7047.80 710.811  12
  -4   5 -10 5235.88 712.035  11
   4   5  10 6068.83 622.405   8
  -4   5 -11 4235.82 522.529  12
  -4   5 -11 3880.55 588.023  11
   4   5  11 3750.94 521.418   8
  -4   5 -12 5924.07 531.507   7
  -4   5 -12 6117.16 605.481  12
  -4   5 -12 5307.73 642.527  11
   4   5  12 4626.19 541.618   8
  -4   5 -13 3820.93 541.842  11
  -4   5 -13 4828.86 529.533  12
   4   5  13 3634.10 474.930   8
  -4   5 -13 5096.74 466.126   7
  -4   5 -14 244.276 156.446  12
  -4   5 -14 188.361 163.296   7
  -4   5 -15 665.071 190.202  12
  -4   5 -15 1129.62 201.195   7
  -4   6  15 476.273 154.678   8
   4   6 -15 522.712 159.653  12
   4   6 -14 1025.34 246.431  12
  -4   6  14 1453.01 286.661   8
   4   6 -13 4284.59 534.518  12
   4   6 -13 3768.17 556.288  16
  -4   6  13 4835.95 520.533   8
  -4   6  12 966.225 213.251   9
   4   6 -12 1504.51 336.146  12
   4   6 -12 1212.07 313.249  16
  -4   6  12 1319.01 268.462   8
   4   6 -11 1123.16 307.528  16
  -4   6  11 949.810 269.220   9
  -4   6  11 1116.17 263.881   8
  -4   6  10 251.065 229.248   9
   4   6 -10 478.871 282.419  16
   4   6  -9-23.9116 203.805   6
  -4   6   9-135.339 184.583   9
   4   6  -9 133.101 225.966  16
   4   6  -8 45140.7 2176.89  16
   4   6  -8 39357.7 1814.13   6
  -4  -6   8 42282.6 3463.12   1
  -4  -6   7 6150.36 1239.77   1
   4   6  -7 6076.96 693.890   6
   4   6  -7 7011.40 633.261   5
   4   6  -7 4168.04 958.098   4
   4   6  -7 6547.78 817.188  16
   4   6  -6 1251.97 529.143   4
   4   6  -6 1679.43 340.265   5
   4   6  -6 1558.01 423.646  16
   4   6  -5 19459.6 1013.71   5
   4   6  -5 17957.4 1396.11  16
   4   6  -4 1142.13 384.777  16
   4   6  -4 799.542 479.838   4
   4   6  -3 72.3923 317.440   4
   4   6  -2 1023.32 568.881   4
   4   6  -1 3795.27 1103.27   4
   4   6   0 3255.68 1081.38   4
   4  -6   1 4542.84 1253.76   1
   4   6   1 5619.75 1342.15   4
   4  -6   2 1501.28 761.427   1
   4   6   2 1451.22 701.375   4
  -4   6  -3 222.995 178.988   6
  -4   6  -3 450.926 220.235  10
  -4   6  -3 347.282 254.958  13
  -4   6  -4 60.8374 256.310   6
  -4   6  -4 429.957 239.749  13
  -4   6  -4 96.3708 250.318  10
   4   6   4 39.9305 334.004   4
   4  -6   5 4207.94 1278.48   1
  -4   6  -5 5416.36 566.151  12
  -4   6  -5 4537.99 550.425  10
   4   6   5 2801.74 861.955   4
  -4   6  -5 4742.31 621.797   6
  -4   6  -5 5707.43 542.378  13
   4  -6   6 697.946 508.322   1
  -4   6  -6 552.764 466.746   6
  -4   6  -6 681.186 253.818  13
  -4   6  -7 562.842 211.417  13
  -4   6  -7 620.631 147.103   7
  -4   6  -7 820.748 289.860   6
  -4   6  -8 246.434 150.060   7
  -4   6  -8 437.453 261.962   6
  -4   6  -8 821.857 225.293  13
  -4   6  -9 4985.52 587.578  12
  -4   6  -9 3722.23 414.782  13
  -4   6  -9 4628.47 460.768   7
  -4   6 -10-201.876 163.141  13
  -4   6 -10-81.1701 207.510  12
  -4   6 -10 232.275 164.897   7
  -4   6 -11 143.142 135.005  13
  -4   6 -11 681.245 259.478  12
  -4   6 -11 626.047 285.599   7
  -4   6 -12 629.291 188.116   7
  -4   6 -12 862.856 263.188  12
  -4   6 -13 4619.66 479.616  12
  -4   6 -13 4616.85 381.532   7
  -4   6 -14 1585.06 219.505   7
  -4   6 -14 1403.51 239.691  12
   4   7 -14 364.778 170.381  12
   4   7 -13 1468.74 350.101  16
   4   7 -13 1740.46 327.102  12
   4   7 -12 9829.22 714.144  12
   4   7 -12 9431.16 807.236  16
   4   7 -11 3864.82 499.425  12
   4   7 -11 3437.60 542.896  16
   4   7 -10 7930.01 670.297   6
   4   7 -10 8739.92 892.429  16
   4   7  -9 895.364 307.201  16
   4   7  -9 937.252 272.563   6
   4   7  -8 11165.4 917.972   6
   4   7  -8 12504.1 1179.47  16
   4   7  -7 917.327 317.239  16
   4   7  -7 1027.35 260.233   5
   4   7  -7 928.722 322.955   6
   4   7  -6 126.251 191.661   5
   4   7  -6 304.618 188.429  16
   4   7  -6-462.536 607.418   4
   4   7  -5 2885.03 559.317  16
   4   7  -5 1638.05 724.096   4
   4   7  -4 13349.5 908.444   5
   4   7  -4 10990.1 1131.92  16
   4   7  -4 8800.19 1550.75   4
   4   7  -3 2745.47 637.714  16
   4   7  -3 2087.33 795.804   4
   4   7  -2 12810.7 948.875   5
  -4   7   2 10713.7 656.378  13
   4   7  -1 3538.85 518.528   5
   4   7  -1 2307.36 884.958   4
  -4   7   1 2811.10 338.098  13
  -4   7   0 7765.52 723.345   6
  -4   7   0 6044.35 620.592  10
   4   7   0 8072.80 808.915   5
  -4   7   0 6663.49 504.447  13
   4   7   0 5897.34 1347.45   4
  -4   7  -1 2298.13 402.216  10
  -4   7  -1 3110.13 515.801   6
  -4   7  -1 1390.81 297.610   5
  -4   7  -1 2777.37 356.943  13
   4   7   1 2024.65 769.047   4
  -4   7  -2 10103.9 636.404  13
  -4   7  -2 11306.2 920.293   6
  -4   7  -2 9084.55 792.130  10
   4   7   2 10715.7 970.681   5
   4   7   2 8407.75 1557.90   4
  -4   7  -3 1224.66 396.173   6
   4   7   3 519.238 380.207   4
  -4   7  -3 727.140 209.707  13
  -4   7  -4 4454.51 630.423   6
  -4   7  -4 3861.35 534.523  10
   4   7   4 3440.40 910.289   4
  -4   7  -4 4546.92 436.355  13
  -4   7  -4 4482.24 496.221  12
  -4   7  -5 1916.85 456.935   6
  -4   7  -5 1733.87 373.424  10
  -4   7  -5 2716.61 419.726  12
  -4   7  -5 2144.37 287.033  13
  -4   7  -6 9553.88 765.616  12
  -4   7  -6 8058.30 851.166   6
  -4   7  -6 7550.02 539.651  13
  -4   7  -7 164.800 231.360  12
  -4   7  -7 163.794 254.884   6
  -4   7  -7-10.1184 176.368  13
  -4   7  -8 13952.3 915.865  12
  -4   7  -8 11075.8 614.224  13
  -4   7  -9-78.5214 189.575  12
  -4   7  -9 60.2439 154.888   7
  -4   7 -10 1263.72 299.139  12
  -4   7 -10 1314.48 235.308   7
  -4   7 -11 325.729 127.495   7
  -4   7 -11 515.909 207.205  12
  -4   7 -12-193.865 117.485   7
  -4   7 -12 61.4835 120.425  12
  -4   7 -13 175.939 116.273   7
  -4   7 -13 291.705 140.773  12
   4   8 -12 2453.26 301.149  12
   4   8 -12 1848.74 299.554  16
   4   8 -11 268.465 154.418  12
   4   8 -11 249.469 187.647  16
   4   8 -10 2604.58 369.862  12
   4   8 -10 2252.55 320.799   6
   4   8 -10 2351.57 422.743  16
   4   8  -9 9301.63 694.124  12
   4   8  -9 8170.52 655.147   6
   4   8  -9 8673.21 817.811  16
   4   8  -8 61.6370 183.958  16
   4   8  -8 151.443 142.235   6
   4   8  -8 276.822 202.097  12
   4   8  -7 1242.11 341.994  16
   4   8  -7 1085.60 310.898   6
   4   8  -6 3213.61 533.436   6
   4   8  -6 4335.79 559.865   5
   4   8  -6 3115.83 564.724  16
   4   8  -5 2053.35 372.394   5
   4   8  -5 1505.02 440.432  16
   4   8  -4-40.4690 137.948  10
   4   8  -3 1358.37 316.721  10
   4   8  -3 2205.47 415.353   5
   4   8  -3 1833.09 484.937  16
   4   8  -2 493.312 220.331  10
  -4   8   2 570.808 246.305  10
   4   8  -2 432.003 315.579  16
  -4   8   1 4058.52 527.608   6
   4   8  -1 3216.53 453.628  10
  -4   8   1 3410.02 493.523  10
   4   8  -1 4215.46 589.819   5
   4   8  -1 3161.19 637.161  16
  -4   8   0 4579.01 561.005   6
  -4   8   0 4048.49 536.878  10
   4   8   0 3835.83 467.611  10
   4   8   0 4903.96 656.646   5
  -4   8   0 2491.81 362.162   5
  -4   8   0 3794.57 433.043  13
  -4   8  -1 1972.05 297.427  13
  -4   8  -1 2443.66 449.917   6
  -4   8  -1 2102.78 390.622  10
   4   8   1 1831.37 342.911  10
  -4   8  -1 1210.84 278.563   5
   4   8   1 2408.77 521.895   5
  -4   8  -2 1158.63 361.597   6
  -4   8  -2 834.286 204.428  13
  -4   8  -3 2400.47 489.963   6
  -4   8  -3 1966.48 369.152  10
   4   8   3 2348.15 479.033   5
  -4   8  -3 1952.50 305.581  13
  -4   8  -4 2762.87 497.697   6
  -4   8  -4 2664.50 466.978  10
   4   8   4 3044.97 563.846   5
  -4   8  -4 2608.72 358.126  13
  -4   8  -5 14109.9 1065.24   6
   4   8   5 14773.7 1101.20   5
  -4   8  -5 12094.1 660.539  13
  -4   8  -5 13590.9 863.911  12
  -4   8  -6 248.035 202.008   6
   4   8   6 216.985 296.023   5
  -4   8  -6 75.8950 135.962  12
  -4   8  -7 1185.86 266.720  12
  -4   8  -8 535.473 200.937  12
  -4   8  -9 574.321 199.488  12
  -4   8 -10 12.0849 118.228  12
   4   8  11 481.642 202.846   5
  -4   8 -11 470.378 160.478  12
   4   9 -10 4782.65 371.597  12
   4   9 -10 4505.99 434.404  16
   4   9  -9 1543.96 258.090   6
   4   9  -9 1411.09 307.863  16
   4   9  -9 1317.48 220.235  12
   4   9  -8-81.7414 121.071  12
   4   9  -8 106.806 118.323   6
   4   9  -8 53.6264 130.818  16
   4   9  -7 12016.8 803.235   6
   4   9  -7 11028.9 679.372  12
   4   9  -7 12769.2 921.089  16
   4   9  -6 194.783 168.878   6
   4   9  -6 607.288 317.184  16
   4   9  -5 377.192 235.525   6
  -4   9   5 294.920 245.916  10
   4   9  -5 545.293 234.579   5
   4   9  -4 6137.30 683.349   6
  -4   9   4 5410.51 539.994  10
   4   9  -4 7817.04 665.056   5
   4   9  -4 5932.59 702.656  16
  -4   9   3 42.4309 184.899  10
   4   9  -3-92.7587 185.528   5
   4   9  -3 4.81856 190.705  16
   4   9  -2 369.286 181.910  10
  -4   9   2 511.279 233.854  10
   4   9  -2 609.272 285.946  16
   4   9  -2 1081.44 290.504   5
   4   9  -1 3051.19 511.293  16
   4   9  -1 3225.78 423.369  10
  -4   9   0 3385.44 473.724   6
  -4   9   0 3244.96 448.760  10
   4   9   0 2918.62 527.818  16
   4   9   0 2819.63 394.771  10
   4   9   1-194.960 184.238  10
  -4   9  -1 56.7624 147.787   6
  -4   9  -1 142.724 174.467  10
   4   9   1 430.939 258.816   5
   4   9   1-104.288 197.608  16
  -4   9  -2 2271.60 381.331   6
  -4   9  -2 2332.59 388.543  10
   4   9   2 1886.58 334.198  10
   4   9   2 1557.67 357.797  16
   4   9   2 2820.87 429.093   5
  -4   9  -3 8824.32 709.854  10
   4   9   3 7422.57 584.013  10
  -4   9  -3 9579.82 778.853   6
   4   9   3 11098.5 813.589   5
  -4   9  -4 9923.69 830.368   6
   4   9   4 8320.84 606.059  10
  -4   9  -5 1984.78 389.989   6
   4   9   5 1638.89 301.130  10
   4   9   5 2478.09 398.030   5
   4   9   6 5334.52 581.989   5
  -4   9  -7 2687.41 315.917  12
   4   9   7 2062.60 346.620   5
  -4   9  -8 861.086 187.912  12
   4   9   8 580.689 240.976   5
   4   9   9 1290.18 252.785   5
  -4   9  -9 1839.11 235.957  12
  -4  10   7 3298.73 320.176  10
  -4  10   6 2529.78 304.781  10
   4  10  -6 2610.02 312.214   6
   4  10  -6 2592.00 317.336  16
   4  10  -5 138.680 125.246   6
  -4  10   5 208.583 148.826  10
   4  10  -5 114.157 124.694  16
   4  10  -4 227.724 133.641   6
   4  10  -4 299.447 202.993  16
   4  10  -3 1563.37 292.905   6
  -4  10   3 1824.35 302.456  10
   4  10  -3 1710.89 303.101  16
  -4  10   2 170.542 169.252  10
   4  10  -2 3.35638 145.885   6
   4  10  -2 504.117 214.377   5
   4  10  -2 253.924 144.838  16
   4  10  -1 534.390 174.374  16
  -4  10   1 655.861 212.752  10
   4  10  -1 620.075 212.285   5
  -4  10   0 1173.15 254.665  10
   4  10   0 1484.13 255.204   5
  -4  10  -1 2242.03 315.491   6
  -4  10  -1 2426.99 341.086  10
   4  10   1 3020.98 366.933   5
  -4  10  -2 1042.90 250.279   6
  -4  10  -2 518.634 142.769  10
   4  10   3 3707.36 407.341   5
   5   0 -18 2655.45 372.607  11
  -5   0  18 2746.07 295.348   8
   5   0 -17-359.825 240.811  11
  -5   0  17 28.7930 178.475   8
  -5   0  16 3931.06 460.586   8
   5   0 -16 4752.21 635.537  11
  -5   0  15 270.402 229.668   8
   5   0 -15-427.197 303.261  11
  -5   0  14 4781.78 579.257   8
  -5   0  13-203.268 384.953   1
  -5   0  13 62.4135 199.460   8
  -5   0  12 5694.18 561.508   9
  -5   0  12 4951.74 1185.42   1
  -5   0  12 4903.15 610.514   8
  -5   0  11-9.61156 268.049   1
  -5   0  10 28.9006 287.512   1
  -5   0   9-35.8965 311.899   1
  -5   0   8 13581.7 1690.60   1
  -5   0   7-71.2121 201.792   1
  -5   0   6 326.068 316.436   1
  -5   0   5-284.588 315.844   1
  -5   0   4 26385.5 1933.44   1
   5   0  -3-122.304 217.133   2
  -5   0   3 226.770 236.876   1
   5   0  -2 807.770 280.898   2
   5   0  -1-225.665 291.801   2
   5   0   0 14295.3 982.581   2
   5   0   1 40.1892 182.788   2
   5   0   2 8956.53 845.650   2
   5   0   3 57.6804 264.357   2
   5   0   5-11.4817 310.198   2
   5   0   6-80.9268 377.388   2
   5   0   7 147.448 293.645   2
   5   0   8 2643.05 876.995   1
   5   0   8 6183.54 1135.87   2
   5   0   9 216.587 271.975   1
  -5   0 -10 23428.7 1320.97  11
   5   0  10 23933.7 1220.45   8
  -5   0 -11 23.4869 186.168  11
   5   0  11 239.891 228.423   8
  -5   0 -12-278.082 244.248  11
   5   0  12-253.723 249.819   8
  -5   0 -13 222.134 243.358  11
   5   0  13-21.8439 159.562   8
  -5   0 -14 1348.34 365.012  11
  -5   0 -15 212.882 224.059  11
  -5   0 -16 67.0464 186.743  11
   5   0  16 275.179 154.405  14
   5   0  17 200.976 134.722  14
   5   1 -18 3875.91 429.904  11
   5  -1 -18 4252.95 446.209  11
  -5   1  18 4462.37 381.662   8
   5   1 -17 20.6944 159.903  11
   5  -1 -17 212.215 205.136  11
  -5   1  17 85.9028 176.331   8
   5   1 -16 1122.33 356.837  11
   5  -1 -16 964.697 372.093  11
  -5  -1  16 702.010 247.859   8
  -5   1  16 860.621 279.786   8
   5   1 -15-40.8998 255.924  11
   5  -1 -15 408.289 261.121  11
  -5   1  15 316.172 271.196   8
  -5  -1  15 171.961 171.217   8
   5   1 -14 11647.3 1090.59  11
  -5  -1  14 11435.1 850.777   8
  -5   1  14 12451.4 921.928   8
  -5  -1  13 376.350 280.728   8
  -5  -1  13-78.1115 417.438   1
  -5   1  13 585.201 265.734   8
  -5   1  13 776.773 321.331   9
  -5  -1  12 329.423 423.386   1
  -5   1  12 545.225 285.165   9
  -5  -1  12 782.192 297.240   8
  -5   1  12 382.985 269.878   8
  -5   1  11 14142.8 840.412   9
  -5  -1  11 14261.7 1902.91   1
  -5   1  11 12487.2 1759.55   1
  -5   1  11 13973.1 992.978   8
  -5  -1  10 254.105 402.122   1
  -5   1  10 4.45986 223.663   1
  -5   1   9 175.652 262.104   1
  -5  -1   9 310.693 250.674   1
  -5   1   8 3.79906 313.425   1
  -5  -1   8 208.647 238.084   1
  -5   1   7 10031.7 1437.33   1
  -5  -1   7 10277.5 1476.62   1
  -5   1   6 178.024 337.516   1
  -5  -1   6-4.03878 228.197   1
  -5   1   5 9330.29 1293.27   1
  -5  -1   5 11045.3 1301.44   1
  -5  -1   4 233.676 259.775   1
   5   1  -4-205.511 241.297   2
   5  -1  -3 13562.0 995.808   2
  -5  -1   3 13144.2 1257.38   1
   5   1  -3 15138.6 1110.41   2
  -5  -1   2 3206.61 632.083   1
   5  -1  -2 2534.02 396.480   2
   5   1  -2 2579.92 462.949   2
   5  -1  -1 18184.9 936.737   2
   5   1  -1 19506.8 1172.47   2
   5   1   0 2154.49 422.470   2
   5  -1   0 2207.58 372.427   2
   5   1   1 40.0116 200.923   2
   5  -1   1-343.425 249.833   2
   5   1   2 406.885 243.915   2
   5  -1   2 414.801 257.818   2
   5   1   3 10480.6 1092.76   2
   5  -1   3 12236.5 1085.25   2
   5   1   4 54611.8 2859.11   2
   5  -1   4 49281.9 2376.46   2
   5  -1   5 978.082 443.212   2
  -5  -1  -5 804.158 390.821   3
   5   1   5 1295.48 567.928   2
   5   1   6 3306.16 814.139   2
   5  -1   6 2989.15 670.426   2
  -5  -1  -6 2458.01 696.210   3
   5   1   7-191.317 192.384   1
   5  -1   7-111.042 246.855   2
  -5  -1  -7-371.652 410.938   3
   5   1   7-225.632 380.271   2
   5  -1   8-247.718 354.262   1
   5   1   8-44.0031 291.655   2
  -5  -1  -8 60.4670 297.918   3
   5   1   9 4208.55 1098.13   2
   5  -1   9 2617.57 942.251   1
  -5  -1  -9 3301.98 1027.71   3
  -5  -1 -10 29331.4 1417.96  11
  -5   1 -10 28246.7 1495.57  11
   5   1  10 31412.4 1363.87   8
   5  -1  10 27586.5 1279.29   8
  -5  -1 -10 26650.2 3045.50   3
  -5  -1 -11-264.550 264.587  11
  -5   1 -11-17.0716 178.356  11
   5  -1  11 49.8369 164.811   8
   5   1  11 24.6324 200.584   8
  -5  -1 -12 10458.8 915.535  11
  -5   1 -12 10747.9 974.503  11
   5   1  12 11095.8 863.699   8
   5  -1  12 10542.6 771.714   8
  -5   1 -13 1435.84 301.874   7
  -5  -1 -13 1501.08 363.209  11
  -5   1 -13 1649.09 433.462  11
   5   1  13 1413.26 333.701   8
  -5   1 -14-13.2271 173.072   7
  -5  -1 -14 418.341 231.564  11
  -5   1 -14-28.9490 183.574  11
   5   1  14 49.5410 176.847   8
  -5   1 -15 1034.54 339.789  11
   5   1  15 967.666 231.927  14
  -5   1 -15 1160.01 261.853   7
  -5  -1 -15 640.891 272.019  11
  -5   1 -16 204.560 150.022  11
   5   1  16 601.295 178.256  14
   5  -1  16 847.427 194.942  14
   5   1  17 1210.82 174.143  14
   5  -1  17 1203.79 191.036  14
   5   2 -18 16.6322 111.485  11
   5  -2 -18 130.044 147.857  11
  -5   2  18 205.007 200.529   8
   5  -2 -17 3560.90 473.339  11
   5   2 -17 3068.55 416.317  11
  -5   2  17 4129.48 444.267   8
   5   2 -16 8567.44 766.571  11
  -5   2  16 9342.23 716.911   8
   5  -2 -16 8546.58 777.241  11
   5   2 -15 3408.35 536.187  11
   5  -2 -15 2865.84 538.293  11
  -5   2  15 3251.59 505.338   8
   5   2 -14-194.711 211.332  11
  -5   2  14 189.195 207.482   9
  -5   2  14 175.524 228.740   8
   5   2 -13 7098.62 829.937  11
  -5   2  13 7876.18 707.173   9
  -5   2  13 7881.67 750.744   8
  -5   2  12-115.326 206.897   9
  -5   2  12 147.397 192.092   8
  -5  -2  12 207.129 477.810   1
  -5   2  11 6699.14 594.625   9
  -5   2  11 6691.41 712.185   8
  -5  -2  11 6134.75 1306.95   1
  -5  -2  10 366.405 510.003   1
  -5  -2   9 418.260 323.168   1
  -5  -2   8 3554.46 896.583   1
  -5  -2   7 35874.8 2678.48   1
   5   2  -6 296.362 319.711   2
  -5  -2   6 470.042 428.484   1
   5   2  -5 6884.39 875.644   2
  -5  -2   5 6530.79 1006.27   1
   5   2  -4 5792.98 778.493   2
  -5  -2   4 4676.55 808.967   1
  -5  -2   3 13373.4 1247.61   1
   5   2  -3 13388.9 1088.53   2
   5  -2  -3 12403.5 884.353   2
   5   2  -2 27926.9 1520.04   2
   5  -2  -2 27568.5 1063.90   2
  -5  -2   2 29648.0 1715.75   1
  -5  -2   1 8666.78 971.130   1
   5   2  -1 9195.22 888.896   2
   5  -2  -1 9334.69 592.004   2
   5   2   0 2700.05 526.514   2
   5   2   1 15970.5 1230.83   2
   5   2   2 366.279 333.358   2
   5   2   3 6761.42 957.677   2
   5  -2   3 6624.85 750.791   2
   5  -2   4 4915.45 685.716   2
   5   2   4 6361.25 1051.69   2
  -5  -2  -5 4417.25 922.233   3
   5   2   5 5866.81 1059.11   2
   5   2   6 4679.58 1014.45   2
  -5  -2  -6 3745.61 931.361   3
   5   2   7 810.487 496.167   2
  -5  -2  -7 425.991 416.008   3
   5  -2   8 3388.86 1078.01   1
   5   2   8 5905.45 1177.36   2
  -5  -2  -8 5089.44 1232.02   3
   5   2   9-464.810 493.638   2
   5  -2   9-16.6541 297.883   1
  -5   2  -9 89.4263 237.233  11
   5   2   9 85.4676 189.203   8
  -5  -2  -9-79.4137 376.881   3
   5   2  10 4029.01 531.732   8
  -5   2 -10 3050.52 419.136  12
  -5  -2 -10 2554.62 947.457   3
  -5   2 -10 2948.88 504.821  11
  -5   2 -11 635.509 322.131  11
  -5   2 -11 533.158 234.994  12
   5   2  11 714.052 259.389   8
  -5   2 -12 11424.0 801.651  12
  -5   2 -12 12050.4 1002.62  11
   5   2  12 12444.0 886.204   8
  -5   2 -13 5120.05 524.963   7
  -5   2 -13 5176.71 671.754  11
   5   2  13 4597.04 440.261  14
   5   2  13 5707.23 594.296   8
  -5   2 -14 1198.36 302.858   7
  -5   2 -14 905.525 330.393  11
   5   2  14 949.728 214.978  14
   5   2  14 1027.75 316.377   8
  -5   2 -15 700.682 197.913   7
   5   2  15 727.278 190.929  14
  -5   2 -15 602.465 262.983  11
  -5   2 -16 794.593 194.165   7
   5   2  16 967.655 175.829  14
   5  -2  16 1107.85 214.991  14
   5   3 -18 180.105 125.124  11
  -5   3  18 127.185 100.803   8
   5   3 -17 338.651 171.945  11
   5  -3 -17 142.829 123.350  11
   5   3 -16 278.485 196.890  11
   5  -3 -16 403.199 268.890  11
  -5   3  16 693.177 256.812   8
   5   3 -15 1611.42 344.304  11
   5  -3 -15 1597.63 370.779  11
  -5   3  15 2028.35 370.793   8
   5   3 -14 7689.12 784.380  11
  -5   3  14 8198.80 692.736   9
  -5   3  14 7809.50 742.901   8
  -5   3  13 5046.09 545.647   9
  -5   3  13 5261.06 586.737   8
   5   3 -13 5674.53 673.641  16
   5   3 -13 4997.21 670.051  11
   5   3 -12 3114.18 534.973  11
   5   3 -12 3236.81 954.633   2
  -5   3  12 3697.35 517.270   9
   5   3 -12 3728.73 570.227  16
  -5   3  12 3821.59 552.957   8
  -5  -3  11-423.682 560.313   1
   5   3 -11 1221.86 443.126  11
   5   3 -11-17.5296 336.132   2
  -5   3  11 642.206 274.509   9
   5   3 -11 101.205 205.000  16
  -5   3  11 394.378 260.857   8
  -5   3  10 406.742 272.899   8
   5   3 -10-96.6935 267.818   2
  -5   3  10 56.3797 208.303   9
  -5  -3  10 132.018 313.090   1
   5   3  -9 747.971 379.907   2
  -5  -3   9 1146.88 601.147   1
   5   3  -8 307.571 313.425   2
  -5  -3   8 202.827 415.312   1
   5   3  -7 11925.7 1308.18   2
  -5  -3   7 10784.8 1532.85   1
  -5  -3   6 100377. 4447.93   1
   5   3  -6 105912. 3653.67   2
   5   3  -5 15020.2 1278.42   2
  -5  -3   5 13829.8 1518.35   1
  -5  -3   4 117232. 4050.95   1
   5   3  -4 109699. 3256.70   2
   5  -3  -3-52.3482 165.556   2
   5   3  -3-129.111 248.614   2
  -5  -3   3-150.512 228.083   1
   5   3  -2 443.233 313.910   2
  -5  -3   2 214.971 228.957   1
   5   3  -1 14036.6 1219.74   2
  -5  -3   1 13558.1 1286.79   1
   5   3   0 452.947 289.570   2
   5   3   1 831.615 333.601   2
   5   3   2 1248.04 433.950   2
   5   3   3 8631.94 1130.68   2
   5   3   4 898.917 387.345   2
  -5  -3  -5 3315.04 839.113   3
   5   3   5 4504.65 915.051   2
   5   3   6 8703.10 1465.55   2
  -5  -3  -6 7593.77 1355.21   3
   5   3   7 74.1922 380.396   2
  -5  -3  -7 377.929 308.242   3
   5   3   8 82.2933 328.476   2
   5  -3   8 375.955 433.760   1
  -5  -3  -8 304.828 609.366   3
  -5   3  -9-48.7724 140.960  12
   5  -3   9-42.0153 352.625   1
  -5   3  -9-186.861 209.750  11
   5   3   9 443.911 349.780   2
   5   3   9-251.234 209.347   8
  -5  -3  -9 78.0152 425.233   3
  -5   3 -10 239.312 172.126  12
  -5   3 -10 142.650 206.687  11
  -5  -3 -10 391.396 375.331   3
   5   3  10 1092.65 302.121   8
  -5   3 -11 2884.64 439.923  12
  -5   3 -11 2510.77 457.661  11
   5   3  11 3362.72 475.839   8
   5   3  12 2698.35 468.239   8
  -5   3 -12 2343.90 433.781  12
  -5   3 -12 2747.28 510.788  11
   5   3  12 2283.57 310.585  14
  -5   3 -13 2416.30 369.348   7
  -5   3 -13 1897.32 444.249  11
   5   3  13 1751.58 387.373   8
   5   3  13 1813.21 244.926  14
  -5   3 -13 1447.64 366.402  12
  -5   3 -14 75.0919 138.560  12
  -5   3 -14 248.372 165.090   7
  -5   3 -14 239.444 200.807  11
   5   3  14 357.258 186.362   8
  -5   3 -15 675.813 211.100   7
   5  -3  15 561.419 182.748  14
  -5   3 -16 2056.74 245.027   7
   5  -3  16 2326.04 255.455  14
   5   4 -17 340.410 135.152  11
  -5   4  17 334.960 190.569   8
   5   4 -16 3903.44 413.982  11
   5   4 -16 2781.41 369.927  12
   5   4 -15 781.381 243.977  12
   5   4 -15 1436.93 295.676  11
  -5   4  15 1167.83 312.050   8
   5   4 -14-68.9620 134.685  11
  -5   4  14-49.2769 250.984   9
  -5   4  14 185.854 233.977   8
   5   4 -13 626.705 243.944  11
  -5   4  13 1334.87 337.749   9
   5   4 -13 1184.14 297.040  16
  -5   4  13 1483.99 390.282   8
   5   4 -12-323.512 223.175  11
  -5   4  12-6.67861 215.857   9
  -5   4  12-66.8675 225.257   8
   5   4 -12-56.1882 163.650  16
   5   4 -11-91.5508 462.636   2
  -5   4  11 1315.72 372.235   9
   5   4 -11 926.127 296.015  16
  -5  -4  11 1160.55 680.277   1
  -5   4  11 981.701 323.500   8
   5   4 -10 1693.03 658.668   2
  -5   4  10 1743.46 321.915   9
   5   4 -10 1851.26 442.608  16
  -5   4  10 2115.08 443.795   8
  -5  -4  10 2170.60 876.909   1
  -5   4   9 402.599 207.833   8
   5   4  -9 570.315 250.516  16
   5   4  -9 471.664 399.633   2
  -5   4   9 604.534 292.714   9
  -5  -4   9 469.188 437.124   1
   5   4  -8 12047.3 1391.41   2
  -5  -4   8 13011.0 1859.39   1
   5   4  -7 8621.26 1120.82   2
  -5  -4   7 7990.18 1441.46   1
   5   4  -6 26263.8 1836.67   2
  -5  -4   6 28096.8 2484.61   1
   5   4  -5 18098.8 1499.09   2
  -5  -4   5 19080.8 1875.14   1
   5   4  -4 764.217 415.350   2
  -5  -4   4 398.529 300.224   1
   5   4  -3 4634.91 792.958   2
  -5  -4   3 2944.26 847.520   1
   5   4  -2 3670.41 686.926   2
  -5  -4   2 2654.02 640.244   1
   5   4  -1 3755.86 704.705   2
  -5  -4   1 2821.03 656.188   1
   5   4   0 31820.7 2068.78   2
   5   4   1 21691.7 1738.97   2
   5   4   2 10820.3 1354.49   2
   5   4   3 2205.89 633.542   2
   5   4   5-238.267 444.039   2
   5   4   6 527.775 442.699   2
   5  -4   6 517.592 366.984   1
   5   4   7 1382.13 758.518   2
   5  -4   7 1549.21 763.639   1
  -5   4  -7 989.202 276.270  12
  -5  -4  -7 878.103 449.375   3
  -5   4  -8 2038.18 381.062  12
   5   4   8 1890.23 735.208   2
  -5   4  -8 1743.58 442.079  11
  -5  -4  -8 1742.03 745.152   3
   5   4   8 1655.20 367.132   8
  -5   4  -9 405.305 172.596  12
   5   4   9 747.801 612.726   2
  -5   4  -9 306.725 167.822  11
   5   4   9 279.265 172.528   8
   5  -4   9 623.382 647.223   1
  -5   4 -10 4225.11 539.696  12
  -5   4 -10 3666.72 601.992  11
   5   4  10 3800.72 525.483   8
  -5   4 -11 113.559 194.059  12
  -5   4 -11 16.6194 162.329  11
   5   4  11 431.994 263.273   8
  -5   4 -12 4089.82 457.835   7
  -5   4 -12 3177.87 566.587  11
   5   4  12 4016.90 491.244   8
  -5   4 -12 3998.45 527.539  12
  -5   4 -13 74.6826 179.233   7
  -5   4 -13 83.5374 198.931  11
   5   4  13-209.256 210.692   8
  -5   4 -13-164.913 187.943  12
  -5   4 -14 100.874 145.314   7
  -5   4 -14 217.590 178.067  12
   5  -4  14 251.075 126.772  14
  -5   4 -15 222.997 150.379  12
  -5   4 -15 340.322 147.060   7
   5  -4  15 125.326 118.925  14
   5   5 -16 69.7790 91.9126  12
  -5   5  16 246.394 174.413   8
   5   5 -15 906.171 232.920  12
  -5   5  15 1002.59 236.384   8
  -5   5  14 326.178 187.685   8
  -5   5  14-18.2454 209.795   9
  -5   5  13 1873.10 387.389   9
   5   5 -13 1721.21 386.999  16
  -5   5  13 1690.72 350.660   8
  -5   5  12 1170.23 316.074   8
  -5   5  12 1532.67 365.786   9
   5   5 -12 1220.74 340.977  16
  -5   5  11 6547.91 630.925   9
  -5   5  11 6658.96 686.738   8
   5   5 -11 6912.80 807.895  16
  -5   5  10 24092.4 1214.36   9
   5   5 -10 27017.3 1618.70  16
  -5   5  10 26022.6 1266.00   8
  -5   5   9 11936.3 843.837   9
  -5  -5   9 11571.9 1863.51   1
  -5   5   9 13971.4 924.612   8
   5   5  -9 13077.5 1133.47  16
  -5   5   8 4769.89 552.628   9
   5   5  -8 4329.91 673.585  16
  -5  -5   8 4327.85 1186.61   1
  -5   5   7 653.231 265.482   9
  -5  -5   7 419.289 389.943   1
   5   5  -7-1.19424 186.270  16
   5   5  -7 49.6174 226.504   4
   5   5  -6 8441.09 1148.10   2
  -5  -5   6 9321.65 1464.91   1
   5   5  -5 1907.24 588.296   2
  -5  -5   5 1951.02 683.618   1
  -5  -5   4 2656.53 728.701   1
   5   5  -4 2095.53 601.726   2
   5   5  -3 4025.09 751.089   2
   5   5  -2 5277.76 914.006   2
   5   5  -1 2666.59 682.322   2
   5   5   0 33664.5 2252.72   2
   5   5   1 13303.6 1521.87   2
   5   5   2-178.119 431.038   2
   5   5   4-632.573 621.390   2
   5   5   5 4525.13 1144.40   2
  -5   5  -5 5099.36 530.317  12
  -5   5  -5 4369.50 546.735   6
   5   5   5 2738.69 810.033   4
   5  -5   5 3427.18 1231.22   1
  -5   5  -6 3969.36 509.012  12
  -5   5  -6 3324.64 384.055   7
   5  -5   6 2106.63 983.565   1
  -5   5  -6 3335.82 520.529   6
   5   5   6 3827.36 1057.20   2
  -5   5  -7 1465.28 330.076  12
  -5   5  -7 1571.46 281.364   7
  -5   5  -7 1014.54 317.587  11
  -5   5  -8 1771.81 377.794  12
  -5   5  -8 1923.64 323.440   7
   5  -5   8 2136.09 899.467   1
   5   5   8 1321.40 324.371   8
   5   5   8 1201.53 744.588   2
  -5   5  -9 2667.64 417.168  12
  -5   5  -9 2975.81 415.317   7
  -5   5  -9 1812.08 437.960  11
   5   5   9 2154.76 374.896   8
  -5   5 -10 123.537 216.131  12
  -5   5 -10 288.338 223.869   7
   5   5  10-80.5878 168.270   8
  -5   5 -10 261.435 270.376  11
  -5   5 -11 1154.20 285.451  12
  -5   5 -11 1161.90 260.662   7
   5   5  11 919.649 255.055   8
  -5   5 -12 7683.88 677.972  12
  -5   5 -12 7731.15 579.042   7
  -5   5 -13 3885.84 399.002   7
  -5   5 -13 3034.91 436.807  12
  -5   5 -14 623.569 158.769  13
  -5   5 -14 691.136 178.802   7
  -5   5 -14 356.018 160.673  12
  -5   5 -15 300.121 133.600  12
  -5   6  15 866.710 169.922   8
   5   6 -15 574.757 156.440  12
  -5   6  14 1798.48 275.219   8
   5   6 -14 1609.53 287.264  12
   5   6 -13 3816.94 460.825  12
  -5   6  13 3786.75 440.095   9
  -5   6  13 3805.34 432.773   8
   5   6 -13 4090.41 532.901  16
  -5   6  12 5120.09 522.649   9
   5   6 -12 6207.51 710.033  16
  -5   6  12 6053.16 540.643   8
  -5   6  11 201.309 251.783   9
   5   6 -11 674.569 309.587  16
  -5   6  11 178.890 153.271   8
  -5   6  10 8135.16 671.663   9
   5   6 -10 7929.04 960.428  16
  -5   6   9-73.2864 182.686   9
   5   6  -9 184.083 325.995  16
   5   6  -8-302.373 240.945   6
  -5   6   8-43.3335 205.708   9
   5   6  -8 56.3162 180.408  16
   5   6  -7 23337.2 1183.02   5
  -5   6   7 19586.8 1080.49   9
   5   6  -7 21001.1 1533.27  16
   5   6  -6 4475.19 531.356   5
  -5   6   6 3710.71 508.952   9
   5   6  -6 3801.76 661.690  16
   5   6  -5 2197.92 375.299   5
   5   6  -5 1258.64 667.334   4
   5   6  -5 1975.43 519.867  16
  -5   6   4 467.695 179.687  13
   5   6  -4-295.662 258.651   4
   5   6  -3 32.3013 401.913   4
  -5   6   3 91.7430 167.359  13
   5   6  -2 5863.27 1427.59   4
  -5   6   2 7761.12 539.795  13
  -5   6   1 6199.23 507.459  13
   5   6  -1 4271.23 1249.72   4
   5   6   0 704.949 462.287   4
  -5   6   0 1068.05 299.620  13
  -5   6  -1 18919.7 1019.64  10
  -5   6  -1 20801.5 882.076  13
  -5   6  -2 3567.29 569.671   6
  -5   6  -2 2011.00 391.373  10
   5   6   2 1970.10 921.090   4
  -5   6  -2 2894.90 361.996  13
  -5   6  -3 3481.91 421.429  12
   5  -6   3 2175.07 946.353   1
  -5   6  -3 3787.90 525.209   6
  -5   6  -3 2509.60 390.127  10
  -5   6  -3 3347.51 388.645  13
   5   6   3 1670.64 725.739   4
  -5   6  -4 15719.5 920.737  12
  -5   6  -4 13632.2 1010.52   6
   5  -6   4 9215.84 1917.62   1
  -5   6  -4 10316.6 834.714  10
  -5   6  -4 13003.1 747.524  13
  -5   6  -5 8506.23 700.116  12
  -5   6  -5 7966.30 805.921   6
  -5   6  -5 6398.40 641.584  10
  -5   6  -5 8100.32 628.527  13
   5   6   5 6016.60 1236.22   4
  -5   6  -6 737.898 282.311  12
  -5   6  -6 728.426 231.174   7
  -5   6  -6 716.197 330.555   6
  -5   6  -6 962.952 290.838  13
  -5   6  -7 307.652 224.919  13
  -5   6  -7 513.404 283.085  12
  -5   6  -7 322.081 172.059   7
  -5   6  -8 3784.91 512.282  12
  -5   6  -8 3386.63 378.662   7
  -5   6  -8 3151.15 418.987  13
  -5   6  -9 3205.42 469.987  12
  -5   6  -9 3415.84 405.419   7
  -5   6  -9 3029.46 389.496  13
  -5   6 -10 1492.58 285.380  13
  -5   6 -10 2035.29 370.724  12
  -5   6 -10 1791.71 304.065   7
  -5   6 -11 7837.85 548.210   7
  -5   6 -11 7609.77 697.217  12
  -5   6 -12 43.9905 135.164  13
  -5   6 -12 108.032 168.716  12
  -5   6 -12 325.399 196.551   7
  -5   6 -13 167.429 127.430   7
  -5   6 -13 32.1851 117.441  12
  -5   6 -14 4355.63 381.942  12
  -5   6 -14 3850.55 301.447   7
   5   7 -14 3335.51 325.381  12
   5   7 -13 3345.39 375.022  12
   5   7 -13 3704.12 474.894  16
   5   7 -12 2172.17 365.250  12
   5   7 -12 2350.73 406.314  16
   5   7 -11-10.8562 171.633  16
   5   7 -10 1485.80 381.995  16
   5   7  -9 1514.34 375.003   6
   5   7  -9 1747.63 437.015  16
   5   7  -8 1588.99 382.828   6
   5   7  -8 2070.26 570.155  16
   5   7  -7-4.74265 207.143   6
   5   7  -7 3.43612 187.041   5
   5   7  -7 87.0817 228.380  16
   5   7  -6 145.757 180.618   5
   5   7  -6 157.287 193.860  16
   5   7  -5 3527.73 683.086  16
   5   7  -5 2687.07 902.444   4
   5   7  -4 5779.76 879.376  16
   5   7  -4 3802.32 1085.23   4
   5   7  -3 940.520 783.764   4
  -5   7   3 1087.14 283.025  13
   5   7  -2-3.41313 339.885   4
   5   7  -2-40.0161 200.496   5
  -5   7   2-11.2344 238.862  13
  -5   7   1 16.1751 159.439  10
   5   7  -1-76.6291 277.215   5
   5   7  -1-575.218 538.495   4
  -5   7   1 238.183 216.071  13
  -5   7   0 7384.36 695.769  10
   5   7   0 10858.6 965.100   5
  -5   7   0 10379.9 846.501   6
   5   7   0 6783.01 1449.99   4
  -5   7   0 9114.06 619.174  13
  -5   7  -1 26.4977 174.862   6
  -5   7  -1 71.7945 178.121  10
   5   7   1 57.4479 349.784   4
  -5   7  -1 51.4854 209.137  13
  -5   7  -2 11609.0 943.185   6
  -5   7  -2 9700.11 831.205  10
   5   7   2 12443.0 1016.37   5
  -5   7  -2 11291.4 714.440  13
  -5   7  -3 5210.29 657.695   6
  -5   7  -3 4218.15 559.926  10
   5   7   3 4561.48 1145.97   4
  -5   7  -3 4657.34 490.922  13
  -5   7  -4 112.529 154.664  12
  -5   7  -4 119.476 178.895   6
  -5   7  -4 286.449 213.633  10
  -5   7  -4 283.027 184.974  13
  -5   7  -5 4461.93 516.142  12
  -5   7  -5 3493.37 574.643   6
  -5   7  -5 3826.41 446.399  13
  -5   7  -6 1370.33 283.496  13
  -5   7  -6 1584.23 338.043  12
  -5   7  -6 1429.54 411.792   6
  -5   7  -7 1277.37 302.455  12
  -5   7  -7 955.491 256.124  13
  -5   7  -8 10064.2 619.791  13
  -5   7  -8 12737.8 881.083  12
  -5   7  -9 783.594 266.188  12
  -5   7  -9 323.712 162.736  13
  -5   7 -10-168.001 176.911  12
  -5   7 -10-73.9190 121.791  13
  -5   7 -11 77.5535 140.948  12
  -5   7 -11 25.4703 140.673   7
  -5   7 -12-95.2108 121.284  12
  -5   7 -12 181.135 114.967   7
   5   8 -12 1948.40 284.805  12
   5   8 -12 2038.04 319.756  16
   5   8 -11 56.9629 117.519  12
   5   8 -11-63.4311 134.710  16
   5   8 -10 8524.72 658.109  12
   5   8 -10 8559.18 579.895   6
   5   8 -10 9299.27 811.556  16
   5   8  -9 4209.05 494.374  12
   5   8  -9 3900.14 453.691   6
   5   8  -9 4262.06 600.768  16
   5   8  -8 3479.70 480.193   6
   5   8  -8 3976.04 613.933  16
   5   8  -7 6803.55 716.619   6
   5   8  -7 6683.92 835.785  16
   5   8  -6 85.8994 176.421   6
   5   8  -6 106.598 209.763   5
   5   8  -6 115.783 206.194  16
   5   8  -5 2985.05 454.374   5
   5   8  -5 2411.87 553.373  16
   5   8  -4 2510.67 573.556  16
   5   8  -4 3739.03 478.912   5
  -5   8   3 814.554 259.495  10
   5   8  -3 1002.61 299.087   5
   5   8  -3 654.827 312.857  16
   5   8  -2 1080.14 369.429  16
  -5   8   1 1985.90 394.590  10
   5   8  -1 2820.10 489.696   5
  -5   8   1 2520.99 376.410  13
  -5   8   0-115.597 173.790   6
   5   8   0 182.595 211.450   5
  -5   8   0 282.396 230.307  13
  -5   8  -1 1875.03 374.863   6
  -5   8  -1 1356.60 334.075  10
   5   8   1 2053.73 434.430   5
  -5   8  -1 1751.11 294.759  13
  -5   8  -2 5215.64 614.354   6
  -5   8  -2 4247.26 543.679  10
  -5   8  -2 5161.27 467.804  13
  -5   8  -3 7735.09 770.274   6
  -5   8  -3 7417.48 702.737  10
   5   8   3 9368.11 900.116   5
  -5   8  -3 7787.52 566.896  13
  -5   8  -4 5407.07 638.459   6
  -5   8  -4 4111.80 520.628  10
  -5   8  -4 5785.43 527.024  13
  -5   8  -5 15514.1 922.346  12
  -5   8  -5 15127.6 1071.93   6
  -5   8  -5 13990.2 714.437  13
  -5   8  -6 6495.30 560.952  12
   5   8   6 6117.82 679.977   5
  -5   8  -6 5050.10 448.491  13
  -5   8  -7 8709.64 530.336  13
  -5   8  -7 10980.3 707.588  12
  -5   8  -8 4160.95 450.450  12
  -5   8  -9 1701.26 281.989  12
  -5   8 -10 53.5195 111.126  12
   5   8  10 320.719 153.433   5
   5   9 -10-4.74702 88.7586  12
  -5   9  10-26.4388 119.529  10
   5   9 -10-199.781 141.193  16
   5   9  -9 384.645 148.086  12
   5   9  -9 250.292 139.686   6
   5   9  -9 177.319 161.193  16
   5   9  -8 33.2247 98.4933  12
   5   9  -8 166.389 157.468   6
   5   9  -8 9.47403 127.240  16
   5   9  -7 195.571 122.732  12
   5   9  -7 133.165 136.174   6
  -5   9   7 216.109 127.748  10
   5   9  -7 49.9592 143.259  16
   5   9  -6 87.6822 167.050   6
  -5   9   6 67.2625 137.228  10
   5   9  -6 194.760 213.956  16
   5   9  -5 78.8311 157.792   6
  -5   9   5 143.841 184.039  10
   5   9  -5 521.409 252.271  16
  -5   9   4 473.559 232.004  10
   5   9  -4 667.307 307.005   5
   5   9  -4 456.091 277.296  16
  -5   9   3 423.560 227.681  10
   5   9  -3 520.091 244.856   5
   5   9  -3 88.2068 200.945  16
  -5   9   2 897.167 274.436  10
   5   9  -2 1718.79 353.124   5
  -5   9   1 271.555 195.771  10
   5   9  -1 105.997 171.552  16
  -5   9   0 600.376 219.757   6
   5   9   0 500.287 289.164  16
  -5   9  -1-34.4163 158.820   6
  -5   9  -1 293.140 230.685  10
   5   9   1 330.049 246.417   5
   5   9   1 430.214 251.608  16
  -5   9  -2 8409.58 740.782   6
  -5   9  -2 9200.12 723.873  10
   5   9   2 7265.56 775.928  16
  -5   9  -3-69.2941 141.101   6
  -5   9  -3-408.338 263.248  10
   5   9   3 94.3892 230.793   5
   5   9   3-54.4427 167.660  16
  -5   9  -3-142.181 141.216  13
  -5   9  -4 1422.83 221.074  13
   5   9   4 2104.82 406.705   5
   5   9   5 2157.10 411.816   5
   5   9   6 773.764 263.315   5
  -5   9  -7 351.181 132.652  12
   5   9   7 531.321 265.294   5
   5   9   8 276.299 145.741   5
  -5   9  -8 408.711 154.098  12
   5  10  -6 543.003 195.897   6
   5  10  -6 271.458 130.348  16
   5  10  -5 1439.66 269.255   6
  -5  10   5 1263.08 244.503  10
   5  10  -5 1332.55 254.107  16
   5  10  -4 155.974 147.219   6
  -5  10   4 157.117 116.189  10
   5  10  -4 268.126 166.187  16
  -5  10   3 177.102 139.093  10
   5  10  -3 364.661 173.315   5
   5  10  -3 111.665 132.135  16
   5  10  -3-64.3746 154.297   6
  -5  10   2 66.7213 130.164  10
   5  10  -2 151.137 167.245   6
   5  10  -2 304.187 175.964   5
   5  10  -2 106.932 123.814  16
  -5  10   1 1697.17 279.741  10
   5  10  -1 1987.00 300.142   5
   5  10  -1 1366.56 281.460  16
  -5  10   0 7204.92 549.489  10
   5  10   0 7073.85 596.299  16
  -5  10  -1 440.104 116.553  10
   5  10   1 803.991 219.617   5
   5  10   3 7173.63 524.805   5
   5  10   4 94.1260 160.439   5
   6   0 -18 379.693 166.538  11
  -6   0  18 359.932 162.334   8
   6   0 -17 229.087 239.033  11
  -6   0  17 125.973 183.543   8
   6   0 -16 1877.28 415.680  11
  -6   0  16 2116.05 346.099   8
   6   0 -15 111.516 241.814  11
  -6   0  15 147.985 219.123   8
  -6   0  14 11851.5 916.544   8
  -6   0  13 12.9389 244.795   9
  -6   0  13-43.1477 214.444   8
  -6   0  13-644.895 588.025   1
  -6   0  12-266.015 306.324   1
  -6   0  12 140.814 224.666   9
  -6   0  12 28.2115 183.455   8
  -6   0  11-241.489 222.310   8
  -6   0  11-113.540 390.198   1
  -6   0  10 2032.71 749.737   1
  -6   0   9 235.608 297.240   1
  -6   0   8 2427.63 752.626   1
  -6   0   7-205.230 317.287   1
  -6   0   6 1299.12 563.479   1
  -6   0   5 192.643 279.361   1
   6   0  -4 7893.01 890.720   2
  -6   0   4 7879.09 1205.12   1
   6   0  -3 474.411 253.113   2
   6   0  -2 1390.50 316.594   2
   6   0  -1 4.01813 167.567   2
   6   0   0 5223.99 670.373   2
   6   0   1 30.5190 199.974   2
   6   0   2 8576.81 899.042   2
   6   0   3 337.428 352.775   2
   6   0   4 118779. 4165.09   2
   6   0   5-226.859 381.539   2
   6   0   6 3570.18 906.557   2
   6   0   7-197.102 427.631   2
   6   0   8 145.856 254.909   1
   6   0   8-133.543 275.873   2
  -6   0  -9-42.1201 188.240  11
   6   0   9-26.5581 167.082   8
  -6   0 -10 25511.7 1406.50  11
   6   0  10 27008.4 1259.13   8
  -6   0 -11 137.698 189.336  11
   6   0  11 73.9318 188.892   8
  -6   0 -12-58.0073 186.157  11
  -6   0 -13-324.085 256.359  11
  -6   0 -14 29.6743 181.149  11
   6   0  14 353.759 197.820  14
  -6   0 -15 47.6671 133.508  11
   6   0  15 174.918 143.030  14
   6   0  16 1660.29 237.993  14
  -6   1  18 619.558 188.981   8
   6   1 -18 396.235 169.871  11
   6  -1 -18 482.600 164.456  11
   6   1 -17 300.117 210.657  11
   6  -1 -17-9.77380 189.165  11
  -6   1  17-25.5204 137.967   8
   6   1 -16 2930.79 515.641  11
   6  -1 -16 2969.19 510.635  11
  -6  -1  16 2229.64 343.411   8
  -6   1  16 3511.94 443.180   8
   6   1 -15-97.2249 193.151  11
  -6   1  15-9.00464 181.193   8
  -6  -1  15 241.624 165.262   8
  -6  -1  14 531.614 249.755   8
  -6   1  14 589.823 276.279   9
  -6   1  14 451.007 233.691   8
  -6   1  13 399.201 263.072   9
  -6   1  13 630.512 305.626   8
  -6  -1  13 299.198 218.855   8
  -6   1  12 1594.83 399.117   8
  -6   1  12 1310.84 718.528   1
  -6  -1  12 2023.31 365.795   9
  -6   1  12 2180.61 377.934   9
  -6  -1  12 1698.75 848.953   1
  -6  -1  12 1802.80 403.346   8
  -6   1  11 335.469 238.660   8
  -6   1  11 191.549 383.860   1
  -6   1  11 47.7859 189.139   9
  -6  -1  11 310.881 414.075   1
  -6  -1  11-126.464 171.349   8
  -6   1  10 295.405 362.568   1
  -6  -1  10-59.9904 302.193   1
  -6  -1   9 5469.89 1116.35   1
  -6   1   9 4295.59 1192.70   1
  -6  -1   8 1126.79 558.856   1
  -6   1   8 1020.51 614.969   1
  -6   1   7 6204.22 1395.64   1
  -6  -1   7 8432.81 1413.08   1
   6   1  -6 944.323 423.307   2
  -6  -1   6 876.121 505.130   1
   6   1  -5-81.3838 230.767   2
  -6  -1   5-160.231 221.247   1
   6  -1  -4 22003.1 1442.64   2
   6   1  -4 23464.8 1577.05   2
  -6  -1   4 21105.2 1891.34   1
   6  -1  -3 6696.71 730.285   2
   6   1  -3 6926.71 803.173   2
  -6  -1   3 7772.31 1128.43   1
   6  -1  -2 114896. 2759.10   2
   6   1  -2 124682. 3248.12   2
   6  -1  -1-19.3523 205.417   2
   6   1  -1 291.970 255.804   2
   6   1   0 524.938 309.573   2
   6  -1   0 167.038 174.683   2
   6   1   1 1135.60 370.667   2
   6   1   2 23484.0 1563.69   2
   6  -1   2 23283.7 1416.39   2
   6   1   3 52910.9 2626.58   2
   6  -1   3 55973.5 2571.30   2
   6   1   4 84176.8 3744.54   2
   6  -1   4 73528.4 3118.21   2
   6   1   5 9298.11 1319.04   2
   6  -1   5 9239.87 1136.28   2
   6   1   6 22327.9 2159.27   2
   6  -1   6 20241.6 1805.98   2
   6   1   7 8428.40 1435.28   2
   6  -1   7 7697.69 1173.93   2
   6  -1   8 1089.77 653.124   1
   6   1   8 3505.07 950.261   2
  -6   1  -9 16470.7 1132.12  11
   6   1   9 15786.7 2017.05   2
   6   1   9 17030.7 1014.44   8
  -6   1 -10 13837.0 898.281  12
  -6  -1 -10 15349.3 1054.10  11
  -6   1 -10 15812.2 1130.89  11
   6   1  10 15756.3 1004.11   8
  -6   1 -10 14790.5 818.007   7
  -6   1 -11 1431.26 292.865   7
  -6  -1 -11 1299.60 383.308  11
  -6   1 -11 1870.78 429.410  11
   6   1  11 982.828 263.431   8
  -6   1 -12 6068.86 541.318   7
  -6  -1 -12 4858.56 680.543  11
  -6   1 -12 5988.69 739.629  11
   6   1  12 5972.43 651.005   8
   6   1  12 6136.10 515.318  14
  -6   1 -13-174.303 157.250   7
  -6  -1 -13 294.257 218.268  11
  -6   1 -13 11.9599 171.966  11
   6   1  13 20.8162 154.051  14
  -6  -1 -14 652.413 287.419  11
  -6   1 -14 1118.55 354.921  11
  -6   1 -14 953.431 235.462   7
   6   1  14 1236.38 268.525  14
   6  -1  14 1511.12 275.310  14
   6   1  15 913.911 190.120  14
   6  -1  15 1402.03 250.730  14
   6   1  16 316.817 144.138  14
   6  -1  16 56.4750 106.438  14
   6   2 -18 209.517 142.532  11
   6  -2 -18 141.751 196.602  11
  -6   2  18 28.7321 111.046   8
   6   2 -17 1843.57 334.337  11
   6  -2 -17 2011.32 378.290  11
  -6   2  17 2511.94 376.947   8
  -6   2  16 6812.03 606.943   8
   6   2 -16 6087.72 667.282  11
   6  -2 -16 6759.77 783.000  11
   6   2 -15 4889.16 663.668  11
  -6   2  15 4929.74 572.461   8
   6   2 -14 3492.07 634.880  11
  -6   2  14 4645.29 566.401   9
  -6   2  14 3615.90 555.076   8
  -6   2  13 271.059 204.989   9
  -6   2  13 871.226 334.593   8
  -6  -2  12 2550.52 843.466   1
  -6   2  12 3271.06 440.363   9
  -6   2  12 3677.18 570.645   8
  -6   2  11 8466.73 671.422   9
  -6   2  11 8030.97 811.281   8
  -6  -2  11 8516.86 1574.20   1
  -6  -2  10 357.083 450.310   1
  -6   2  10 380.290 250.455   8
  -6  -2   9 487.180 484.732   1
  -6  -2   8-212.626 342.592   1
   6   2  -8-222.512 271.282   2
  -6  -2   7 3436.27 907.374   1
   6   2  -7 3390.88 744.748   2
  -6  -2   6 1766.77 595.146   1
   6   2  -6 2173.07 587.094   2
   6   2  -5 7830.61 982.883   2
  -6  -2   5 7535.85 1127.76   1
   6  -2  -4 38274.7 1825.47   2
   6   2  -4 39531.3 2059.41   2
  -6  -2   4 42053.2 2430.30   1
   6  -2  -3 76728.4 2224.37   2
   6   2  -3 73858.4 2758.34   2
  -6  -2   2 11138.5 1219.70   1
   6  -2  -2 9983.83 734.820   2
   6   2  -2 9980.45 1018.81   2
   6   2  -1 448.658 263.834   2
   6  -2  -1 525.812 210.092   2
   6   2   0 157.332 213.915   2
   6   2   1 4713.02 777.724   2
   6  -2   1 4033.98 547.248   2
   6   2   2 2001.59 554.646   2
   6   2   3 2484.84 652.306   2
   6  -2   3 1963.28 615.494   2
   6   2   4 25735.1 2203.59   2
   6  -2   4 23871.4 1578.01   2
   6   2   5 38208.8 2796.34   2
   6  -2   5 34830.9 1984.93   2
   6   2   6 1745.86 683.509   2
   6   2   7 23293.0 2458.34   2
   6  -2   8 1337.42 739.731   1
   6   2   8 1975.86 789.042   2
  -6   2  -9 5525.69 566.441  12
   6   2   9 5849.77 1277.29   2
  -6   2  -9 5489.05 668.243  11
   6   2   9 5514.09 598.790   8
   6   2   9 5650.73 475.589  14
  -6   2 -10 28159.7 1290.51  12
  -6   2 -10 26151.1 1127.65   7
  -6   2 -10 27838.2 1555.40  11
   6   2  10 28850.8 1427.20   8
   6   2  10 26186.7 1015.68  14
  -6   2 -11 284.963 237.575   7
  -6   2 -11 228.155 235.582  11
  -6   2 -11-93.6981 166.271  12
   6   2  11 241.463 259.296   8
   6   2  11 25.6357 129.952  14
  -6   2 -12 480.088 241.670   7
  -6   2 -12 810.458 307.651  11
  -6   2 -12 468.316 277.180  12
   6   2  12 816.913 287.403   8
   6   2  12 871.980 240.477  14
  -6   2 -13 378.767 211.668   7
   6   2  13 587.434 218.508  14
  -6   2 -13 341.499 219.600  11
   6   2  13 247.450 222.874   8
  -6   2 -14 341.502 227.198   7
  -6   2 -14 62.6434 184.963  11
   6   2  14 118.290 134.471  14
   6  -2  14 167.688 164.334  14
  -6   2 -15 442.193 189.258   7
   6  -2  15 824.001 213.005  14
   6   2  16 179.893 125.230  14
  -6   2 -16 74.4465 149.563   7
   6  -2  16 282.640 131.428  14
   6   3 -17 258.413 143.215  11
   6  -3 -17 413.401 196.252  11
  -6   3  17 477.711 197.461   8
   6   3 -16 774.465 273.056  11
   6  -3 -16 515.207 293.047  11
  -6   3  16 705.715 252.445   8
  -6   3  15 398.461 248.205   8
   6   3 -15 128.297 175.988  11
   6  -3 -15 118.315 177.436  11
   6   3 -14 3460.32 559.895  11
  -6   3  14 4792.57 554.418   9
  -6   3  14 4244.05 561.518   8
   6   3 -13 6498.63 800.977  11
  -6   3  13 7681.55 671.245   9
   6   3 -13 8789.91 826.560  16
  -6   3  13 7568.57 748.814   8
   6   3 -12 1641.92 420.896  11
  -6   3  12 2234.64 399.104   9
   6   3 -12 2322.35 436.225  16
  -6   3  12 2186.20 423.925   8
   6   3 -11 6291.64 1167.35   2
  -6   3  11 6404.07 631.070   9
   6   3 -11 6794.56 747.844  16
  -6  -3  11 6389.42 1447.55   1
  -6   3  11 6804.83 703.128   8
  -6  -3  10 573.987 523.696   1
  -6   3  10 1340.28 383.309   8
   6   3 -10 814.719 479.963   2
  -6   3  10 1063.01 355.173   9
   6   3 -10 429.629 188.961  16
   6   3  -9 5169.49 1013.85   2
  -6  -3   9 5266.70 1270.69   1
   6   3  -8 38386.4 2672.31   2
  -6  -3   8 36376.8 3063.06   1
   6   3  -7 1537.95 559.236   2
  -6  -3   7 1083.23 489.948   1
  -6  -3   6 43.5175 233.949   1
   6   3  -6 358.083 341.576   2
  -6  -3   5 2554.50 656.726   1
   6   3  -5 2686.16 573.455   2
   6   3  -4 108119. 3572.08   2
  -6  -3   4 113050. 4136.54   1
   6   3  -3 42251.8 2183.78   2
  -6  -3   3 42715.9 2414.85   1
  -6  -3   2 16.2314 266.658   1
   6   3  -2 527.945 295.054   2
   6   3  -1 632.132 369.510   2
   6   3   0 3637.80 650.775   2
   6   3   1 6195.32 902.012   2
   6   3   2 1965.84 572.161   2
   6   3   3 1807.26 592.811   2
   6   3   4 656.129 507.104   2
   6   3   5 841.243 511.773   2
   6   3   6 27841.6 2701.37   2
   6   3   7 568.999 651.923   2
   6   3   8 1451.88 679.178   2
  -6   3  -8 2129.16 366.227  12
   6  -3   8 1435.68 750.545   1
  -6   3  -8 1943.60 420.719  11
   6   3   8 1986.49 389.173   8
  -6   3  -9 32.1895 150.547  12
  -6   3  -9 344.276 241.652   7
  -6   3  -9-29.5619 189.078  11
   6   3   9 169.210 177.863   8
   6   3   9-95.1565 141.940  14
   6   3   9 116.229 571.326   2
  -6   3 -10 31042.2 1470.52  12
  -6   3 -10 33354.5 1290.39   7
  -6   3 -10 33279.4 1694.46  11
   6   3  10 33202.7 1487.13   8
   6   3  10 32777.9 1111.91  14
  -6   3 -11 16391.3 1028.01  12
  -6   3 -11 17067.7 929.638   7
  -6   3 -11 17133.3 1227.31  11
   6   3  11 16522.3 783.887  14
   6   3  11 17174.7 1065.14   8
  -6   3 -12-109.078 212.726   7
  -6   3 -12-269.956 223.146  11
   6   3  12 11.6386 199.066   8
   6   3  12-170.370 150.582  14
  -6   3 -12 260.990 188.459  12
  -6   3 -13 8579.80 725.962  12
  -6   3 -13 11015.5 707.777   7
  -6   3 -13 8334.91 892.012  11
   6   3  13 9908.46 576.908  14
  -6   3 -14 1292.55 280.773  12
   6   3  14 1757.97 242.619  14
   6  -3  14 1152.94 229.617  14
  -6   3 -14 2038.56 321.522   7
  -6   3 -15 502.806 173.719   7
   6  -3  15 531.611 165.243  14
   6  -3  16 2372.97 230.343  14
  -6   4  17 587.982 177.042   8
   6   4 -17 601.483 158.709  11
   6   4 -16 925.158 230.272  12
   6   4 -16 986.096 240.668  11
  -6   4  16 1590.43 307.911   8
   6   4 -15 340.286 211.533  12
   6   4 -15 233.417 160.401  11
  -6   4  15 495.746 259.573   8
   6   4 -14 5993.76 635.722  11
  -6   4  14 7439.36 658.315   9
  -6   4  14 7824.11 684.435   8
   6   4 -13 2780.32 471.585  11
  -6   4  13 3029.35 456.805   9
   6   4 -13 3615.98 571.765  16
  -6   4  13 3192.17 484.567   8
  -6   4  12 234.212 229.260   9
   6   4 -12 198.133 223.931  16
  -6   4  12 195.966 249.910   8
  -6   4  11 523.493 258.748   9
   6   4 -11-17.6105 176.472  16
  -6   4  11 100.399 198.718   8
  -6  -4  10 7057.66 1498.02   1
   6   4 -10 5996.95 1107.56   2
  -6   4  10 7356.65 679.989   9
   6   4 -10 7540.20 819.625  16
  -6   4  10 7925.08 742.099   8
  -6   4   9 7425.95 708.454   9
   6   4  -9 7724.19 1182.17   2
   6   4  -9 8109.85 851.829  16
  -6  -4   9 7503.47 1436.56   1
  -6   4   9 8803.69 787.382   8
   6   4  -8 30968.8 2270.61   2
  -6   4   8 30421.0 1302.16   9
  -6  -4   8 30454.9 2982.19   1
   6   4  -7 11061.6 1291.64   2
  -6  -4   7 11000.2 1760.59   1
   6   4  -6 19760.1 1713.52   2
  -6  -4   6 19491.2 2102.16   1
  -6  -4   5 75105.0 3836.77   1
   6   4  -5 75606.3 3288.20   2
   6   4  -4 19156.1 1639.78   2
  -6  -4   4 18295.0 1816.55   1
   6   4  -3 7622.66 1016.32   2
  -6  -4   3 6332.83 1106.44   1
   6   4  -2 2732.98 649.256   2
  -6  -4   2 2057.99 713.404   1
   6   4  -1-96.5942 263.968   2
   6   4   0 6960.84 1052.27   2
   6   4   1 9.95160 237.272   2
   6   4   2 10713.6 1472.43   2
   6   4   3-33.7180 369.385   2
   6   4   4 638.340 491.442   2
   6   4   5 16612.5 2071.52   2
  -6   4  -6 6818.48 626.391  12
  -6   4  -6 6344.60 551.642   7
   6   4   6 7534.30 1573.50   2
   6   4   7 3652.25 1096.88   2
  -6   4  -7 2788.53 411.496  12
  -6   4  -7 2746.03 393.211   7
   6   4   7 1940.78 344.879   8
   6  -4   7 1935.12 865.381   1
  -6   4  -8 2344.34 401.307  12
   6   4   8 3210.27 1067.51   2
   6  -4   8 1091.42 725.347   1
  -6   4  -8 2187.92 345.360   7
  -6   4  -8 1712.13 427.781  11
   6   4   8 1743.90 373.840   8
  -6   4  -9 1832.76 388.965  12
  -6   4  -9 1981.51 338.425   7
  -6   4  -9 1373.81 372.604  11
   6   4   9 1883.06 406.775   8
  -6   4 -10 5170.02 660.957  12
  -6   4 -10 5752.35 731.651  11
   6   4  10 5232.30 621.775   8
  -6   4 -10 6461.40 580.556   7
  -6   4 -11 8011.22 711.903  12
  -6   4 -11 8298.98 636.129   7
   6   4  11 7378.90 675.850   8
  -6   4 -12 1141.67 282.771   7
  -6   4 -12 1105.68 319.653  12
   6  -4  12 967.958 232.406  14
  -6   4 -13 5775.47 596.378  12
   6  -4  13 6458.41 476.670  14
  -6   4 -13 7409.26 572.395   7
  -6   4 -14 8964.62 558.577   7
   6  -4  14 8288.10 504.513  14
  -6   4 -15 63.7341 104.144  12
  -6   4 -15 447.764 162.343   7
   6   5 -16 859.408 194.523  12
  -6   5  16 1520.31 258.751   8
   6   5 -15 604.903 196.055  12
  -6   5  15 810.597 211.250   8
  -6   5  14 181.105 227.463   9
   6   5 -14-22.7151 157.824  16
  -6   5  14 49.9737 156.328   8
  -6   5  13 3894.94 564.495   9
   6   5 -13 2849.01 495.445  16
  -6   5  13 2345.19 380.075   8
  -6   5  12 346.823 258.926   9
  -6   5  12-131.469 222.974   8
   6   5 -12 7.77091 202.336  16
  -6   5  11 6964.61 658.216   9
   6   5 -11 7557.83 851.887  16
  -6   5  11 6492.18 682.690   8
  -6   5  10 32036.0 1421.14   9
   6   5 -10 36158.5 1887.47  16
  -6   5  10 34931.9 1493.58   8
  -6   5   9 20357.1 1136.18   9
   6   5  -9 21142.5 1433.31  16
  -6   5   9 21774.7 1188.14   8
  -6  -5   9 18389.1 2345.01   1
  -6   5   8 17831.4 1083.23   8
  -6   5   8 16462.9 1020.36   9
   6   5  -8 17342.2 1295.87  16
  -6  -5   8 16882.9 2205.74   1
  -6  -5   7 4160.84 1103.32   1
  -6   5   7 4662.95 543.793   9
   6   5  -7 5069.15 711.054  16
  -6   5   6 4488.32 551.002   9
   6   5  -6 4545.16 692.309  16
  -6  -5   6 3787.44 1097.06   1
   6   5  -6 4159.77 854.296   2
  -6  -5   5 3258.69 866.683   1
   6   5  -5 3101.22 698.628   2
   6   5  -4 5660.87 1006.75   2
   6   5  -2 487.948 310.036   2
   6   5  -1 916.505 400.344   2
   6   5   0 1014.72 482.144   2
   6   5   1 5656.28 1073.77   2
   6   5   2 7298.36 1286.67   2
   6   5   3 2070.95 861.640   2
  -6   5  -4 1380.78 479.861  12
  -6   5  -4 78.1706 170.034   6
   6   5   4 657.140 705.401   2
  -6   5  -4 307.929 205.136  13
   6   5   5 281.244 426.501   2
  -6   5  -5 651.768 225.410  12
  -6   5  -5 818.582 262.618   7
  -6   5  -5 749.756 359.747   6
   6   5   6 982.023 836.796   2
   6  -5   6 462.053 451.604   1
  -6   5  -6 1157.92 308.911  12
  -6   5  -6 777.979 255.712   7
   6   5   7 1833.50 817.926   2
  -6   5  -7 957.293 275.908  12
  -6   5  -7 1536.93 324.305   7
   6  -5   7 401.008 479.667   1
  -6   5  -8 1329.87 326.905  12
  -6   5  -8 1111.53 264.905   7
  -6   5  -9 305.900 207.700  12
  -6   5  -9 125.401 168.072   7
  -6   5 -10 6770.30 665.423  12
  -6   5 -10 6822.17 570.998   7
  -6   5 -11 7876.36 698.918  12
  -6   5 -11 7304.87 557.327   7
  -6   5 -12 16755.9 839.140   7
  -6   5 -12 15426.8 954.972  12
  -6   5 -13 1167.41 271.190  13
  -6   5 -13 944.845 235.556   7
  -6   5 -13 813.631 220.407  12
  -6   5 -14 193.766 131.292  13
  -6   5 -14-26.1323 112.425  12
  -6   5 -14 71.9799 124.075   7
   6   6 -15 49.6711 101.447  12
  -6   6  15 21.8284 103.402   8
   6   6 -14 561.922 171.469  12
  -6   6  14 1103.10 236.917   8
  -6   6  13 382.574 233.239   9
   6   6 -13 599.386 230.505  16
  -6   6  13 518.396 184.058   8
  -6   6  12 1019.87 295.992   9
   6   6 -12 1012.86 298.731  16
  -6   6  12 1148.64 272.411   8
  -6   6  11 7201.18 641.088   9
   6   6 -11 7210.57 822.792  16
  -6   6  11 7253.93 620.278   8
  -6   6  10 139.853 194.153   9
   6   6 -10 189.647 243.907  16
  -6   6   9 2400.23 407.111   9
   6   6  -9 2528.39 569.989  16
  -6   6   8 1946.26 406.389   9
   6   6  -8 1715.74 495.835  16
   6   6  -7 68.9121 225.796   5
  -6   6   7 357.020 293.732   9
   6   6  -6 2310.82 425.819   5
  -6   6   6 2453.55 420.761   9
   6   6  -6 2264.38 561.194  16
   6   6  -6 1221.45 576.348   4
   6   6  -5 5518.78 579.136   5
  -6   6   5 4784.66 539.417   9
   6   6  -5 5051.50 763.316  16
   6   6  -5 3319.60 1109.55   4
   6   6  -4 525.160 269.238   5
  -6   6   4 392.539 197.827  13
  -6   6   4 635.941 321.422   9
   6   6  -3 1430.90 351.098   5
  -6   6   3 1289.93 305.701   9
  -6   6   3 1433.61 250.053  13
   6   6  -2 2464.82 476.206   5
  -6   6   2 2549.45 347.859  13
  -6   6   1 131.911 184.583  10
   6   6  -1 56.0507 228.840   5
  -6   6   1 60.0585 214.546  13
  -6   6   0 2056.72 365.526  10
   6   6   0 3280.55 534.273   5
  -6   6   0 2771.83 340.748  13
  -6   6  -1 3018.96 452.302   6
  -6   6  -1 3080.18 371.119  13
  -6   6  -2 12351.2 926.563   6
  -6   6  -2 9904.22 746.291  10
  -6   6  -2 12683.2 752.415  13
   6   6   2 9020.83 1700.27   4
  -6   6  -3 546.636 233.658  13
  -6   6  -3 670.670 223.355  12
  -6   6  -3 451.685 206.153   6
  -6   6  -3 408.278 312.268  10
   6   6   3 279.438 445.066   4
  -6   6  -4 739.099 283.015  13
  -6   6  -4 739.636 269.670  12
  -6   6  -4 687.243 362.949   6
  -6   6  -4 12.5088 196.281  10
   6  -6   4-61.4024 427.921   1
   6   6   4 42.1559 319.645   4
  -6   6  -5 1102.81 281.395  13
  -6   6  -5 1553.50 349.928  12
   6  -6   5 616.100 447.511   1
  -6   6  -5 1061.82 352.463   6
  -6   6  -6-99.0891 154.107  12
  -6   6  -6-25.3688 167.669   7
  -6   6  -7 1751.50 351.740  13
  -6   6  -7 1271.88 344.642  12
  -6   6  -7 1264.40 245.957   7
  -6   6  -8 2368.93 365.289  13
  -6   6  -8 2680.53 427.384  12
  -6   6  -8 2920.75 370.416   7
  -6   6  -9 752.670 234.983  13
  -6   6  -9 920.811 268.547  12
  -6   6  -9 1115.40 252.894   7
  -6   6 -10 7022.00 543.310   7
  -6   6 -10 6407.49 642.245  12
  -6   6 -10 5154.43 441.173  13
  -6   6 -11 2649.28 430.034  12
  -6   6 -11 3136.77 367.485   7
  -6   6 -11 2206.96 270.015  13
  -6   6 -12 4678.17 519.801  12
  -6   6 -12 4371.36 356.574  13
  -6   6 -12 5610.44 430.247   7
  -6   6 -13 5715.22 483.970  12
  -6   6 -13 5854.66 385.269   7
  -6   6 -13 5036.21 320.384  13
   6   7 -14 1489.14 225.572  12
   6   7 -13 7456.21 565.758  12
   6   7 -13 9136.43 688.581  16
   6   7 -12 1799.17 321.205  12
  -6   7  12 2380.35 309.203   9
   6   7 -12 2406.56 426.337  16
  -6   7  11 53.7646 179.088   9
   6   7 -11 226.993 204.192  16
  -6   7  10 9270.64 661.855   9
   6   7 -10 9826.79 952.731  16
   6   7  -9 1700.19 362.067   6
  -6   7   9 1828.79 360.518   9
   6   7  -9 1828.57 496.768  16
   6   7  -8 1122.45 380.089   6
  -6   7   8 1220.46 315.794   9
   6   7  -8 1072.31 406.554  16
   6   7  -7 516.178 264.579   6
  -6   7   7 377.764 222.209   9
   6   7  -7 525.205 377.781  16
   6   7  -6 1836.21 375.505   5
   6   7  -5 2630.66 588.966  16
   6   7  -4-182.786 238.500   5
   6   7  -4 444.172 349.911   4
   6   7  -4 59.7412 181.968  16
  -6   7   3 109.253 193.995  13
  -6   7   2 7549.62 724.774  10
   6   7  -2 12044.9 884.399   5
   6   7  -2 6067.87 1485.53   4
  -6   7   2 10976.7 685.347  13
  -6   7   1 2216.17 379.555  10
   6   7  -1 3119.15 473.874   5
  -6   7   1 2809.10 419.824  13
  -6   7   0 1800.13 357.297  10
   6   7   0 2013.74 846.743   4
   6   7   0 2518.66 456.048   5
  -6   7   0 2600.28 397.448  13
  -6   7  -1 340.910 278.432   6
  -6   7  -1 336.761 235.856  10
  -6   7  -1 274.544 228.358  13
   6   7   1 844.381 321.240   5
  -6   7  -2 8061.30 605.939  13
  -6   7  -2 7714.06 774.141   6
  -6   7  -2 5325.01 582.969  10
   6   7   2 8560.18 838.571   5
   6   7   2 5136.73 1260.10   4
  -6   7  -3 7439.56 801.893   6
  -6   7  -3 6213.38 663.290  10
  -6   7  -3 8287.15 620.926  13
  -6   7  -4 448.650 199.385  12
  -6   7  -4 155.377 203.957   6
  -6   7  -4 47.8420 209.469  10
  -6   7  -4 277.526 189.224  13
  -6   7  -5 3451.33 465.866  12
  -6   7  -5 2985.59 378.161  13
  -6   7  -6 7784.18 683.905  12
  -6   7  -6 6876.56 549.902  13
  -6   7  -7 3888.59 470.944  12
  -6   7  -7 3142.46 386.001  13
  -6   7  -8 3515.98 481.792  12
  -6   7  -8 3721.85 382.310   7
  -6   7  -8 3156.25 389.711  13
  -6   7  -9 293.887 163.335  12
  -6   7  -9-22.4776 134.325   7
  -6   7  -9 104.608 173.615  13
  -6   7 -10 444.022 180.775   7
  -6   7 -10 195.720 195.595  12
  -6   7 -11 138.528 108.343   7
  -6   7 -11 43.2227 124.209  12
  -6   7 -12 6408.39 488.250  12
  -6   7 -12 6150.84 373.283   7
   6   8 -12 843.551 184.925  12
   6   8 -12 1076.21 235.587  16
   6   8 -11 1279.37 239.640  12
   6   8 -11 1484.22 301.721  16
   6   8 -10 2079.37 335.199  12
   6   8 -10 2581.17 444.378  16
   6   8  -9 14.7127 118.756   6
   6   8  -9 46.1473 172.795  16
   6   8  -8-16.3949 173.311   6
   6   8  -8-106.705 243.395  16
   6   8  -7-142.561 221.344   6
   6   8  -7 135.945 242.857  16
   6   8  -6 169.679 172.628   5
   6   8  -6-171.250 204.577  16
   6   8  -5-88.4090 163.445   5
   6   8  -5 162.329 238.169  16
  -6   8   4 481.279 215.035  10
   6   8  -4 350.374 295.250  16
   6   8  -3 155.642 181.274   5
   6   8  -3-131.408 255.471  16
  -6   8   2 89.1078 160.661  10
   6   8  -2 296.061 253.012   5
   6   8  -2 102.522 230.866  16
  -6   8   1 9013.50 763.804  10
  -6   8   1 10870.9 696.556  13
  -6   8   0 2329.96 416.518  10
   6   8   0 3784.72 517.453   5
  -6   8   0 3442.76 481.858  13
  -6   8  -1 2536.85 436.000   6
  -6   8  -1 2389.36 401.372  10
   6   8   1 3728.66 543.068   5
  -6   8  -1 2921.83 376.847  13
  -6   8  -2 1094.79 335.217   6
  -6   8  -2 969.220 293.964  10
  -6   8  -2 968.074 241.874  13
  -6   8  -3 12823.5 977.349   6
  -6   8  -3 11274.3 842.197  10
  -6   8  -3 13600.1 749.431  13
  -6   8  -4 1854.05 306.458  13
  -6   8  -5 9436.46 672.538  12
   6   8   5 10247.8 823.065   5
  -6   8  -5 7777.10 568.326  13
  -6   8  -6 23.2676 137.363  12
   6   8   6 242.086 260.844   5
  -6   8  -6-173.774 158.000  13
  -6   8  -7 14120.0 805.032  12
   6   8   7 13470.1 929.665   5
  -6   8  -8-76.3189 151.649  12
  -6   8  -8 444.025 206.526  13
   6   8   8 322.362 221.549   5
  -6   8  -9 1223.76 254.506  12
   6   8   9 628.940 250.586   5
  -6   8 -10 256.101 127.441  12
   6   8  10 278.376 161.780   5
   6   9  -9 1956.68 266.110  12
   6   9  -9 2356.30 292.274   6
  -6   9   9 1797.98 250.468  10
   6   9  -9 2580.38 365.740  16
   6   9  -8-3.21442 90.3177  12
   6   9  -8 195.129 98.8156   6
  -6   9   8 213.425 138.982  10
   6   9  -8 151.954 130.063  16
   6   9  -7 224.156 121.714  12
   6   9  -7-84.7863 136.801   6
   6   9  -7 258.167 183.479  16
   6   9  -6-25.7726 170.397   6
  -6   9   6 21.8655 165.304  10
   6   9  -6 108.766 194.959  16
   6   9  -5 463.741 261.681   6
  -6   9   5 421.648 214.791  10
   6   9  -5 396.503 201.269   5
   6   9  -5 429.527 273.117  16
  -6   9   4 483.345 260.359  10
   6   9  -4 62.9322 176.673  16
   6   9  -3 931.247 344.777   5
   6   9  -3 316.174 179.719  16
  -6   9   2 1053.78 270.269  10
   6   9  -2 1488.08 329.374   5
   6   9  -2 1071.49 304.246  16
   6   9  -1 194.476 195.358  16
  -6   9   0 154.503 172.197  10
   6   9   0 549.913 280.141   5
   6   9   0 45.6836 170.961  16
  -6   9  -1 1515.30 304.068  10
   6   9   1 2549.89 382.589   5
   6   9   1 1551.64 387.890  16
  -6   9  -2 7363.62 629.861  10
   6   9   2 7005.35 775.076  16
  -6   9  -2 7414.80 497.045  13
   6   9   3 3953.64 496.189   5
  -6   9  -3 2977.62 333.431  13
  -6   9  -4 1279.95 280.308  13
   6   9   4 1383.99 330.078   5
   6   9   5 302.656 203.424   5
  -6   9  -5 113.978 153.498  13
   6   9   6 169.108 237.717   5
  -6   9  -6 119.817 148.231  13
  -6   9  -7 3116.96 318.487  12
   6   9   7 2825.82 367.130   5
   6  10  -5 281.002 164.226   6
  -6  10   5 194.704 130.756  10
   6  10  -5 184.988 139.053  16
   6  10  -4 834.325 195.875   6
  -6  10   4 1137.74 193.431  10
   6  10  -4 1271.90 255.190  16
  -6  10   3 219.068 118.984  10
   6  10  -3 100.696 140.473   6
   6  10  -3 249.723 146.559  16
   6  10  -3 447.355 181.471   5
  -6  10   2 184.098 137.470  10
   6  10  -2 68.8834 119.001   5
   6  10  -2 113.121 137.804  16
  -6  10   1 2423.11 307.152  10
   6  10  -1 2914.29 344.225   5
   6  10  -1 2088.40 339.486  16
  -6  10   0 473.226 122.338  10
   6  10   0 801.767 222.432  16
   6  10   1 577.782 180.963   5
   6  10   1 500.553 167.849  16
   6  10   2 5780.59 450.204   5
   7   0 -18 202.667 133.971  11
  -7   0  18 177.466 133.031   8
   7   0 -17-185.370 191.816  11
  -7   0  17 150.183 140.788   8
   7   0 -16 10567.1 992.623  11
  -7   0  16 11058.8 753.436   8
  -7   0  15 169.836 208.276   8
  -7   0  14 1858.48 439.754   8
  -7   0  13-193.206 241.529   9
  -7   0  13-217.372 264.258   8
  -7   0  12 2346.08 431.296   8
  -7   0  12 2932.23 1054.68   1
  -7   0  12 2961.29 399.758   9
  -7   0  11 297.360 265.013   8
  -7   0  11 171.379 253.365   9
  -7   0  11 348.157 360.689   1
  -7   0  10 8345.92 1699.55   1
  -7   0   9-85.2975 275.997   1
  -7   0   8 8354.98 1693.27   1
  -7   0   7 69.6686 382.039   1
   7   0  -6 222.496 239.011   2
  -7   0   6-95.0073 332.018   1
   7   0  -5-193.195 281.301   2
   7   0  -4 1046.56 361.621   2
   7   0  -3-142.912 192.625   2
   7   0  -2 35918.9 1849.73   2
   7   0  -1-62.6226 231.689   2
   7   0   1-117.906 252.255   2
   7   0   2 159877. 4156.14   2
   7   0   3-133.715 373.347   2
   7   0   4 31357.0 2353.57   2
   7   0   5-601.601 438.437   2
   7   0   6 14101.0 1779.64   2
   7   0   7-105.107 348.107   2
   7   0   8 199.825 450.193   2
  -7   0  -9 134.668 156.689  11
  -7   0 -10 10652.8 931.480  11
  -7   0 -11-59.9724 187.387  11
   7   0  11 11.9696 172.131  14
  -7   0 -12 19638.7 1308.83  11
   7   0  12 22297.7 1002.56  14
   7   0  13 228.644 188.139  14
   7   0  14 3387.46 392.194  14
   7   0  15 85.5091 130.791  14
   7   0  16 178.678 96.9793  14
   7   1 -18 67.0219 118.149  11
   7  -1 -18 228.568 160.381  11
  -7   1  18 171.967 134.906   8
   7   1 -17 460.698 241.841  11
   7  -1 -17 310.555 187.593  11
  -7   1  17 350.964 159.837   8
   7   1 -16 937.223 321.841  11
   7  -1 -16 883.705 342.418  11
  -7  -1  16 1023.76 248.802   8
  -7   1  16 1720.49 389.063   8
   7   1 -15 606.004 294.247  11
  -7   1  15 1009.48 324.726   8
  -7  -1  15 418.978 213.456   8
  -7   1  14 886.263 307.524   9
  -7  -1  14 896.979 280.912   8
  -7   1  14 704.203 280.202   8
  -7  -1  13-331.305 185.738   8
  -7   1  13-107.793 182.757   8
  -7   1  12 581.196 343.652   8
  -7  -1  12 1529.03 870.656   1
  -7   1  12 595.432 284.046   9
  -7  -1  12 756.025 286.381   8
  -7  -1  11 1895.99 386.252   8
  -7   1  11 2528.14 405.416   9
  -7  -1  11 1897.89 734.457   1
  -7   1  11 2288.16 509.002   8
   7   1 -10 13825.7 964.861  14
  -7   1  10 14060.3 1046.79   8
  -7  -1  10 13858.3 1982.48   1
   7   1  -9 3055.11 865.932   2
  -7  -1   9 3010.43 924.362   1
   7   1  -8 7371.63 1192.69   2
  -7  -1   8 5818.41 1201.96   1
  -7  -1   7 1568.97 713.988   1
   7   1  -7 2157.09 646.431   2
   7  -1  -6 403.950 269.646   2
   7   1  -6 487.398 277.298   2
  -7  -1   6 862.674 417.871   1
   7  -1  -5 390.864 340.817   2
   7   1  -5 654.411 346.059   2
  -7  -1   5 532.544 450.331   1
  -7  -1   4 31506.7 2453.94   1
   7  -1  -4 28756.3 1710.15   2
   7   1  -4 28390.8 1837.39   2
   7  -1  -3 4084.66 656.613   2
   7   1  -3 4830.20 741.163   2
   7  -1  -2 2203.51 462.830   2
   7   1  -2 2434.49 540.345   2
   7   1  -1 13020.8 1201.67   2
   7  -1  -1 11778.8 1006.34   2
   7   1   0 5792.60 827.206   2
   7  -1   0 5377.44 712.863   2
   7   1   1-355.835 295.170   2
   7  -1   1-365.818 295.817   2
   7   1   2 15807.5 1451.57   2
   7  -1   2 17974.1 1391.77   2
   7  -1   3 3988.01 821.339   2
   7   1   3 2734.67 648.796   2
   7   1   4 7267.61 1221.10   2
   7  -1   4 6184.87 943.286   2
   7  -1   5 4395.65 868.020   2
   7   1   5 5533.28 1102.75   2
   7  -1   6 2313.00 634.688   2
   7   1   6 2380.59 801.614   2
   7   1   7-209.717 368.078   2
   7  -1   7-24.7169 470.982   2
  -7   1  -8 8216.94 586.852   7
  -7   1  -8 7636.30 783.322  11
   7   1   8 9435.01 1622.91   2
   7   1   8 9019.00 755.916   8
   7   1   8 8546.82 575.504  14
   7  -1   9-370.459 387.285   1
   7   1   9-120.769 329.566   2
  -7   1  -9-205.385 180.592   7
  -7  -1  -9-243.015 247.349  11
  -7   1  -9 9.02929 181.478  11
   7   1   9 123.295 193.374   8
   7   1   9-0.97995 145.875  14
  -7   1  -9 96.3776 172.287  12
  -7   1 -10 3647.58 476.786  12
  -7   1 -10 4817.41 518.916   7
  -7  -1 -10 4033.89 588.493  11
  -7   1 -10 4423.85 629.144  11
   7   1  10 4705.36 460.324  14
  -7   1 -11 2049.81 346.608   7
  -7  -1 -11 1797.79 396.591  11
  -7   1 -11 1781.62 378.360  11
   7   1  11 2243.62 312.833  14
  -7   1 -12 422.865 250.155   7
  -7   1 -12 524.472 284.841  11
   7   1  12 531.137 228.287  14
   7  -1  12 687.323 257.280  14
  -7   1 -13-230.964 205.889   7
   7   1  13 292.077 158.427  14
   7  -1  13 10.0830 150.662  14
  -7   1 -14-146.146 147.139   7
   7   1  14 62.0701 147.340  14
   7  -1  14 126.467 146.058  14
   7  -1  15 826.383 187.839  14
   7   1  15 810.909 186.116  14
   7  -1  16 957.066 164.082  14
   7   1  16 1097.78 171.533  14
   7   2 -18 111.626 120.625  11
   7  -2 -18 76.9530 134.584  11
  -7   2  18 173.666 141.457   8
   7   2 -17 1009.93 269.480  11
   7  -2 -17 966.005 262.843  11
  -7   2  17 1069.14 247.044   8
   7   2 -16 5252.62 632.089  11
   7  -2 -16 6039.09 754.140  11
  -7   2  16 6413.60 598.411   8
  -7   2  15 1955.10 394.610   9
  -7   2  15 2061.21 390.574   8
   7   2 -14 1428.19 426.389  11
  -7   2  14 2295.45 401.206   9
  -7   2  14 1994.34 428.832   8
  -7   2  13 1404.67 334.418   9
  -7   2  13 1353.90 403.059   8
  -7   2  12 14186.7 908.114   9
  -7   2  12 13152.6 1051.93   8
  -7   2  11 370.324 259.828   8
   7   2 -11 106.218 332.847   2
  -7   2  11 659.196 295.289   9
  -7  -2  11-190.007 501.812   1
   7   2 -10 16236.5 1947.47   2
  -7   2  10 15902.8 955.638   9
   7   2 -10 13914.4 1018.64  14
  -7   2  10 15719.7 1157.30   8
  -7  -2  10 16045.5 2158.18   1
   7   2  -9 7193.68 1313.22   2
  -7  -2   9 7504.12 1453.96   1
   7   2  -8 10147.4 1412.31   2
  -7  -2   8 9477.88 1572.72   1
   7   2  -7 1868.32 559.743   2
  -7  -2   7 1488.33 598.685   1
   7  -2  -6 674.564 329.123   2
   7   2  -6 608.752 369.766   2
  -7  -2   6 510.743 402.390   1
   7  -2  -5 5974.95 896.474   2
   7   2  -5 6818.88 988.602   2
  -7  -2   5 6396.96 1195.25   1
   7   2  -4 3919.95 733.020   2
  -7  -2   4 4618.62 1023.47   1
   7  -2  -4 4059.01 640.191   2
  -7  -2   3 1760.29 552.231   1
   7  -2  -3 1543.17 328.881   2
   7   2  -3 1433.38 462.521   2
   7  -2  -2 9172.19 801.116   2
   7   2  -2 9185.41 1095.11   2
   7  -2  -1 3002.09 623.453   2
   7   2  -1 3098.96 676.584   2
   7   2   0 655.839 400.986   2
   7   2   1 5391.33 880.141   2
   7  -2   1 6000.74 677.801   2
   7   2   2 3014.02 725.483   2
   7  -2   2 3234.22 559.401   2
   7   2   3 1065.61 557.179   2
   7   2   4 1169.33 583.999   2
   7   2   6 1477.33 752.388   2
   7   2   7 2255.16 815.953   2
  -7   2  -8 12821.4 775.482   7
  -7   2  -8 11356.6 982.239  11
   7  -2   8 8706.32 1742.02   1
  -7   2  -8 12118.8 869.734  12
   7   2   8 12481.9 1950.38   2
   7   2   8 12310.6 894.963   8
   7   2   8 11978.4 681.245  14
  -7   2  -9 7345.38 673.224  12
  -7   2  -9 7395.70 797.017  11
   7  -2   9 4183.75 1290.32   1
   7   2   9 6726.62 1477.55   2
  -7   2  -9 7086.36 590.992   7
   7   2   9 7363.10 707.770   8
   7   2   9 7527.42 555.550  14
  -7   2 -10 4520.80 561.461  12
  -7   2 -10 5238.81 539.953   7
  -7   2 -10 4580.04 625.520  11
   7   2  10 5179.57 468.624  14
   7   2  10 3763.24 551.408   8
  -7   2 -11 4256.43 481.215   7
  -7   2 -11 3030.61 544.124  11
  -7   2 -11 2787.00 470.436  12
   7   2  11 3803.26 407.388  14
  -7   2 -12 343.301 225.612  12
   7   2  12 480.975 201.086  14
  -7   2 -12 505.429 197.113   7
  -7   2 -12 418.992 244.263  11
   7  -2  12 663.117 212.388  14
  -7   2 -13 284.289 134.869  12
  -7   2 -13 259.548 202.947   7
  -7   2 -13 431.992 251.151  11
   7  -2  13 601.276 208.465  14
   7   2  13 529.854 187.570  14
   7   2  14 501.357 190.147  14
   7  -2  14 186.629 158.945  14
  -7   2 -15-55.6743 131.978   7
   7   2  15-59.1398 94.6532  14
   7  -2  15 197.680 126.225  14
   7   3 -17-15.7081 100.111  11
   7  -3 -17 10.4075 133.985  11
  -7   3  17 158.825 144.527   8
   7   3 -16 3895.80 471.334  11
   7  -3 -16 2869.70 489.587  11
  -7   3  16 3884.24 490.166   8
   7   3 -15 4720.69 580.246  11
  -7   3  15 5672.28 585.613   9
  -7   3  15 5227.10 586.715   8
   7   3 -14 1211.54 338.337  11
  -7   3  14 1552.53 390.114   9
  -7   3  14 1397.81 346.471   8
   7   3 -13-71.2974 233.939  11
  -7   3  13 84.9242 211.500   9
  -7   3  13 6.87408 191.056   8
  -7   3  12 1683.76 401.878   9
  -7   3  12 1495.92 427.921   8
   7   3 -11 14585.5 1908.32   2
  -7   3  11 16062.0 1023.31   9
  -7   3  11 17176.4 1155.43   8
  -7  -3  11 14316.1 2140.86   1
  -7   3  10 990.165 360.651   8
  -7  -3  10 746.676 539.205   1
   7   3 -10 1488.24 660.130   2
  -7   3  10 863.859 288.565   9
   7   3 -10 858.806 290.542  16
  -7   3   9 1062.93 340.886   8
  -7  -3   9 688.371 496.720   1
   7   3  -9 1153.08 526.036   2
  -7   3   9 837.258 238.599   9
   7   3  -9 1306.40 403.475  14
  -7  -3   8 2634.34 937.128   1
   7   3  -8 3578.39 869.997   2
   7   3  -7 2246.52 654.016   2
  -7  -3   7 2148.98 867.922   1
   7   3  -6 338.937 330.412   2
  -7  -3   6 203.360 307.476   1
  -7  -3   5 14432.7 1784.84   1
   7   3  -5 15038.5 1491.34   2
   7   3  -4 12088.8 1366.38   2
  -7  -3   4 13653.3 1579.76   1
   7   3  -3 3936.01 763.880   2
  -7  -3   3 4031.29 871.943   1
   7   3  -2 6028.21 917.510   2
   7   3  -1 16582.1 1527.94   2
   7   3   0 5.04412 294.005   2
   7   3   2 224.469 234.583   2
   7   3   3 1957.39 642.516   2
   7   3   4 3697.72 956.103   2
   7   3   5-646.141 584.545   2
   7   3   6 59.3453 413.698   2
   7   3   7-111.816 138.011  14
   7   3   7-399.604 582.431   2
  -7   3  -7-227.557 200.599  12
  -7   3  -7 174.478 182.575   7
   7  -3   8 575.125 436.049   1
   7   3   8 1065.19 629.148   2
  -7   3  -8 977.230 277.945  12
  -7   3  -8 864.246 256.395   7
   7   3   8 714.110 190.784  14
  -7   3  -9 9497.76 812.769  12
  -7   3  -9 10454.8 718.293   7
  -7   3  -9 9230.90 934.111  11
   7   3   9 9318.49 587.386  14
  -7   3 -10 1701.54 318.352  12
  -7   3 -10 2316.25 352.719   7
   7   3  10 1438.88 247.985  14
   7  -3  10 1545.80 288.395  14
  -7   3 -11 1066.55 300.731  12
  -7   3 -11 1257.72 285.639   7
  -7   3 -11 782.161 284.179  11
   7  -3  11 949.180 236.718  14
   7   3  11 626.136 168.021  14
  -7   3 -12 16.2665 146.852  12
  -7   3 -12 316.154 208.793   7
   7   3  12-264.970 166.080  14
   7  -3  12 194.186 182.589  14
  -7   3 -13 824.740 252.155  12
  -7   3 -13 1371.08 261.870   7
   7   3  13 1290.04 228.818  14
   7   3  14 1749.37 231.005  14
   7  -3  14 1483.11 243.713  14
  -7   3 -15 194.524 123.129   7
   7  -3  15 370.211 149.543  14
  -7   4  17 291.932 127.750   8
   7   4 -16 221.039 139.329  12
   7   4 -16 583.390 171.558  11
  -7   4  16 362.870 176.493   8
   7   4 -15 353.719 253.522  12
   7   4 -15 339.357 176.650  11
   7  -4 -15 268.298 215.937  11
  -7   4  15 32.2083 210.655   9
  -7   4  15 177.463 189.270   8
   7   4 -14-17.8480 155.898  11
  -7   4  14-36.5277 195.666   9
  -7   4  14 162.275 201.464   8
   7   4 -13 214.374 164.639  11
  -7   4  13 371.691 249.624   9
   7   4 -13 96.6814 203.296  16
  -7   4  13 780.332 302.932   8
  -7   4  12 13064.7 905.786   9
   7   4 -12 13355.4 1079.10  16
  -7   4  12 12904.5 971.740   8
  -7   4  11 25731.8 1272.07   9
   7   4 -11 28174.5 1605.91  16
  -7   4  11 26518.2 1457.76   8
  -7   4  10 1071.51 359.897   8
  -7  -4  10 914.380 509.920   1
   7   4 -10 872.309 596.743   2
  -7   4  10 1477.64 406.138   9
   7   4 -10 986.777 303.200  16
  -7   4   9 740.501 326.634   8
  -7  -4   9 589.376 532.624   1
   7   4  -9 1621.06 714.367   2
  -7   4   9 269.627 187.422   9
   7   4  -9 671.262 309.971  16
  -7   4   8 54838.7 2034.96   8
   7   4  -8 49703.2 3049.30   2
  -7   4   8 49648.3 1741.47   9
   7   4  -8 53606.1 2179.38  16
   7   4  -8 44480.1 1717.75  14
  -7  -4   8 48371.8 3839.71   1
   7   4  -7 13788.7 1584.96   2
  -7   4   7 14173.9 906.283   9
  -7  -4   7 13211.0 1909.77   1
   7   4  -6 293.262 304.652   2
  -7  -4   6-32.1101 333.121   1
  -7  -4   5 2785.14 784.590   1
   7   4  -5 3139.76 733.169   2
  -7  -4   4-357.628 447.883   1
   7   4  -4-47.0377 264.848   2
  -7  -4   3 3786.67 969.293   1
   7   4  -3 4719.95 932.734   2
   7   4  -2 336.458 340.853   2
   7   4  -1 1342.60 498.132   2
   7   4   0 5147.89 938.739   2
   7   4   1 304.215 265.909   2
   7   4   2 351.036 470.511   2
   7   4   3 9123.46 1480.78   2
   7   4   4 19184.8 2322.99   2
  -7   4  -5 8757.12 685.146  12
  -7   4  -5 8513.21 592.940   7
   7   4   6-538.447 626.351   2
  -7   4  -6-98.1496 155.620  12
  -7   4  -6 466.979 279.210   7
   7  -4   7-137.667 446.787   1
   7   4   7 378.544 423.207   2
  -7   4  -7 2.01548 164.768  12
  -7   4  -7 55.8199 171.347   7
  -7   4  -8 1109.69 331.467  12
  -7   4  -8 1329.00 286.973   7
  -7   4  -9 4332.50 600.927  12
  -7   4  -9 5070.36 536.488   7
  -7   4 -10 1340.17 313.064  12
  -7   4 -10 1499.80 309.098   7
  -7   4 -11 3300.23 508.976  12
  -7   4 -11 3959.11 446.818   7
   7  -4  11 3125.15 366.350  14
  -7   4 -12 2457.68 463.299  12
  -7   4 -12 3207.86 414.643   7
   7  -4  12 2263.98 291.616  14
  -7   4 -13 838.973 266.892  12
  -7   4 -13 1356.68 292.561   7
   7  -4  13 945.520 336.779  14
  -7   4 -14 755.080 198.050  12
  -7   4 -14 1090.29 221.973   7
   7  -4  14 999.130 179.860  14
   7   5 -16 20.7511 88.4059  12
  -7   5  16 146.669 118.956   8
   7   5 -15 95.9171 129.627  12
  -7   5  15 211.085 148.556   8
  -7   5  14 71.2790 197.636   9
  -7   5  14 151.050 155.617   8
   7   5 -14 281.732 187.653  16
  -7   5  13 163.367 218.585   9
   7   5 -13-9.34714 161.139  16
  -7   5  13-9.53266 161.816   8
  -7   5  12 744.660 299.068   9
   7   5 -12 944.705 343.425  16
  -7   5  12 815.708 306.281   8
  -7   5  11 147.393 173.536   8
  -7   5  11 286.169 274.972   9
   7   5 -11 111.144 202.214  16
   7   5 -10 1675.28 428.049  16
  -7   5  10 2309.37 408.355   9
  -7   5  10 1971.37 451.969   8
  -7   5   9 51947.5 1823.11   9
   7   5  -9 55773.9 2359.98  16
  -7   5   9 53945.1 1964.87   8
  -7   5   8 36433.0 1512.47   9
  -7   5   8 39065.2 1663.42   8
   7   5  -8 38125.7 1948.73  16
  -7  -5   8 32488.0 3246.56   1
   7   5  -7 11593.3 1511.19   2
  -7   5   7 11600.6 871.411   9
   7   5  -7 12323.1 1118.62  16
  -7  -5   7 10721.5 1800.66   1
  -7  -5   6-423.560 424.907   1
  -7   5   6 195.274 232.096   9
   7   5  -6-141.290 228.427  16
   7   5  -6 93.7241 285.085   2
  -7   5   5 705.911 271.199   9
   7   5  -5 457.291 375.525   2
  -7   5   5 1129.83 295.910  13
   7   5  -4 483.321 388.758   2
  -7   5   4 836.176 275.097  13
   7   5  -3 10707.8 1418.40   2
   7   5  -2 1472.43 497.798   2
   7   5   0 7728.34 1236.86   2
   7   5   1 697.995 540.631   2
   7   5   2 27765.7 2689.64   2
  -7   5  -2 28365.7 1043.38  13
  -7   5  -3 439.873 187.753  13
  -7   5  -3 610.446 204.354  12
   7   5   3 816.139 652.351   2
  -7   5  -4 1024.79 199.767  13
  -7   5  -4 1531.45 337.632  12
  -7   5  -4 1899.51 337.361   7
   7   5   4 1461.78 734.517   2
  -7   5  -5 5280.95 576.111  12
  -7   5  -5 5137.12 500.682  13
  -7   5  -5 5528.95 506.514   7
   7   5   5 4788.40 1277.36   2
  -7   5  -6 5999.04 631.941  12
  -7   5  -6 6092.88 546.503   7
   7   5   6 6160.31 1446.69   2
  -7   5  -7 4064.79 522.608  12
  -7   5  -7 4162.44 456.367   7
  -7   5  -8 272.731 211.044  12
  -7   5  -8 102.575 182.836   7
  -7   5  -9 2890.81 444.191  12
  -7   5  -9 3092.29 411.317   7
  -7   5 -10 335.030 195.912  12
  -7   5 -10 404.228 215.713   7
  -7   5 -11 1305.66 313.761  12
  -7   5 -11 1858.17 323.134   7
  -7   5 -12 7748.48 669.279  12
  -7   5 -12 6468.51 477.927  13
  -7   5 -13 961.114 219.833  13
  -7   5 -13 700.715 185.003   7
  -7   5 -13 588.339 211.812  12
  -7   6  15 115.583 121.958   8
   7   6 -15 380.863 166.993  12
   7   6 -14 196.104 145.825  12
  -7   6  14-131.606 139.922   8
  -7   6  13 822.606 232.997   9
   7   6 -13 744.408 261.845  16
  -7   6  13 710.116 215.478   8
  -7   6  12 256.421 229.970   9
  -7   6  12 196.284 145.925   8
  -7   6  11 3326.19 416.109   9
   7   6 -11 4169.73 616.946  16
  -7   6  11 3688.54 469.046   8
  -7   6  10 8477.18 715.421   9
   7   6 -10 8229.08 925.948  16
  -7   6   9 4330.13 567.198   9
   7   6  -9 4334.26 721.548  16
  -7   6   8 3293.12 505.547   9
   7   6  -8 2756.57 591.077  16
  -7   6   7 2024.99 388.077   9
   7   6  -7 1745.06 497.569  16
  -7   6   6 6174.43 697.050   9
   7   6  -6 6172.53 904.638  16
  -7   6   5 38.4742 217.908   9
   7   6  -5 67.7054 259.264  16
  -7   6   4 127.377 204.501   9
  -7   6   4 326.427 233.468  13
   7   6  -3 2176.42 407.057   5
  -7   6   3 1769.49 400.094   9
  -7   6   3 2278.56 354.705  13
   7   6  -2 12329.3 866.155   5
  -7   6   2 10456.2 909.387   9
  -7   6   2 11187.2 713.074  13
  -7   6   1 2095.43 524.690   9
   7   6  -1 1377.30 368.912   5
  -7   6   1 1731.59 348.351  13
   7   6   0 4396.97 569.282   5
  -7   6   0 3893.46 529.810   9
  -7   6   0 4279.86 443.310  13
  -7   6  -1 1383.93 315.713   6
  -7   6  -1 1090.06 274.652  10
   7   6   1 1718.22 740.186   2
  -7   6  -1 1224.73 285.837   9
  -7   6  -1 1660.27 302.645  13
  -7   6  -2 131.323 179.405  12
  -7   6  -2-67.8585 169.740   6
  -7   6  -2 101.752 245.311  10
  -7   6  -2 204.052 192.980  13
  -7   6  -3 39324.5 1487.26  12
  -7   6  -3 30916.5 1373.32  10
   7   6   3 37245.8 3388.71   2
   7   6   3 28096.2 2991.71   4
  -7   6  -3 40086.9 1296.90  13
  -7   6  -4 8495.40 737.593  12
  -7   6  -4 8630.17 619.291  13
  -7   6  -5 1367.81 291.001  13
  -7   6  -5 992.163 302.995  12
  -7   6  -5 1172.02 258.895   7
  -7   6  -6 2086.60 355.539  13
  -7   6  -6 1580.83 375.067  12
  -7   6  -6 1959.64 330.624   7
  -7   6  -7 617.814 247.138  12
  -7   6  -7 328.139 191.069   7
  -7   6  -8 1422.19 354.211  12
  -7   6  -8 1321.54 280.333   7
  -7   6  -9-59.1093 177.763  12
  -7   6  -9-109.051 174.660   7
  -7   6 -10 128.042 177.122  13
  -7   6 -10 384.566 217.430  12
  -7   6 -10 95.7766 138.578   7
  -7   6 -11 2105.51 269.076  13
  -7   6 -11 2646.83 319.543   7
  -7   6 -11 2363.54 402.871  12
  -7   6 -12 154.407 129.971  13
  -7   6 -12 267.841 156.058  12
  -7   6 -12 284.156 148.469   7
   7   7 -13 241.958 154.708  12
   7   7 -13 95.8353 140.964  16
   7   7 -12 1638.02 311.101  12
  -7   7  12 2316.01 337.103   9
   7   7 -12 2359.46 395.272  16
  -7   7  11 891.538 265.749   9
   7   7 -11 727.434 301.186  16
  -7   7  10 1303.88 281.687   9
   7   7 -10 1437.26 390.835  16
  -7   7   9 1187.25 262.347   9
   7   7  -9 1265.59 399.718  16
   7   7  -8-20.4188 188.629   6
  -7   7   8 2.16574 200.862   9
   7   7  -8 384.372 251.662  16
  -7   7   7 2212.07 370.775   9
   7   7  -7 2622.88 598.542  16
   7   7  -6 1507.37 330.986   5
  -7   7   6 1410.56 358.956   9
   7   7  -6 1145.91 461.221  16
   7   7  -5 3905.86 485.314   5
  -7   7   5 2505.10 434.252   9
   7   7  -5 2851.01 686.552  16
  -7   7   4 3152.56 498.273   9
   7   7  -4 3914.75 453.989   5
   7   7  -4 3104.21 726.806  16
  -7   7   3 1139.25 300.409  10
   7   7  -3 2028.68 362.585   5
  -7   7   3 1418.39 352.468   9
  -7   7   3 1774.59 306.393  13
  -7   7   2 2414.42 375.583  10
   7   7  -2 4176.11 534.144   5
  -7   7   2 3870.76 503.143  13
   7   7  -1 56820.9 1941.52   5
  -7   7   1 49875.0 1508.69  13
   7   7   0 4974.58 601.469   5
  -7   7   0 4587.92 729.379  13
  -7   7  -1 71.2717 195.545   6
  -7   7  -1-128.701 216.691  10
   7   7   1 11.4778 229.799   5
  -7   7  -1-176.621 201.698  13
  -7   7  -2 1946.33 365.164  10
   7   7   2 2504.13 461.270   5
  -7   7  -2 2355.05 376.941  13
  -7   7  -3 10391.8 894.281  12
  -7   7  -3 11127.1 833.104  10
  -7   7  -4 1518.31 384.918  12
  -7   7  -4 2250.15 345.349  13
  -7   7  -5 3652.41 478.717  12
  -7   7  -5 3475.31 412.324  13
  -7   7  -6 957.917 276.609  12
  -7   7  -6 771.392 281.258  13
  -7   7  -7 8363.74 709.849  12
  -7   7  -7 7668.51 535.893   7
  -7   7  -7 6855.38 545.645  13
  -7   7  -8 369.436 222.454  12
  -7   7  -8 144.498 169.943   7
  -7   7  -8 223.171 193.355  13
  -7   7  -9 65.2674 128.415  12
  -7   7  -9 146.299 140.147   7
  -7   7  -9-98.9249 125.853  13
  -7   7 -10 777.762 181.434   7
  -7   7 -10 1121.18 277.167  12
  -7   7 -10 926.057 199.430  13
  -7   7 -11 415.910 155.966   7
  -7   7 -11 283.445 152.311  12
  -7   7 -11 312.597 155.375  13
   7   8 -11 1615.61 265.895  12
   7   8 -11 2064.07 344.043  16
   7   8 -10 63.6929 125.710  12
   7   8 -10 132.352 152.815  16
   7   8  -9 725.738 266.202  16
   7   8  -8-199.123 155.984   6
   7   8  -8 289.388 267.131  16
   7   8  -7 152.072 171.393   6
   7   8  -7 170.696 261.448  16
   7   8  -6 2033.44 397.227   6
  -7   8   6 1314.02 299.532  10
   7   8  -6 1970.46 477.950  16
  -7   8   5 244.833 208.958  10
   7   8  -5-223.005 201.918   5
  -7   8   4-48.4334 173.766  10
   7   8  -4 47.3587 247.715  16
   7   8  -4 659.133 272.091   5
  -7   8   3-35.7920 174.095  10
   7   8  -3 148.746 184.240   5
   7   8  -3-160.590 223.835  16
   7   8  -2 1852.35 529.517  16
   7   8  -2 2226.53 403.991   5
  -7   8   1 73.3961 156.499  10
   7   8  -1 411.788 185.486   5
   7   8   0 12613.5 863.059   5
  -7   8   0 12284.9 740.574  13
  -7   8  -1 154.388 157.127  10
   7   8   1 130.947 227.924   5
  -7   8  -1 215.289 264.522  13
  -7   8  -2 457.722 222.831  10
   7   8   2 1297.36 368.983   5
  -7   8  -2 986.859 215.748  13
   7   8   3 3299.88 518.987   5
  -7   8  -3 3812.98 457.229  13
   7   8   4 8685.11 756.916   5
  -7   8  -4 6885.51 529.485  13
  -7   8  -5 881.831 227.792  12
  -7   8  -5 576.860 171.377  13
  -7   8  -6 8.06033 128.332  12
   7   8   6 62.0325 193.839   5
  -7   8  -7 1570.37 364.102  12
   7   8   7 495.402 260.279   5
  -7   8  -7 1310.67 288.929  13
  -7   8  -8 144.505 106.647  12
   7   8   8 176.885 171.781   5
  -7   8  -8 182.625 147.156  13
  -7   8  -9 68.0853 102.795  12
   7   8   9 99.9701 160.544   5
  -7   8  -9 196.404 125.179  13
   7   9  -9 436.139 177.767  16
   7   9  -9 312.635 111.908  12
  -7   9   9 120.950 101.469  10
   7   9  -8 135.682 131.461  12
   7   9  -8-64.5604 104.248   6
  -7   9   8-48.0831 121.026  10
   7   9  -8 178.914 135.827  16
   7   9  -7 216.403 125.139  12
   7   9  -7 576.809 181.696   6
  -7   9   7 568.344 179.681  10
   7   9  -7 589.864 235.379  16
   7   9  -6 90.0660 131.655   6
  -7   9   6-28.4475 141.363  10
  -7   9   5 1711.93 294.264  10
   7   9  -5 670.575 278.036  16
  -7   9   4 702.580 214.660  10
   7   9  -4 1322.26 288.585   5
   7   9  -4 1197.06 307.744  16
  -7   9   3 2673.32 386.265  10
   7   9  -3 3881.46 424.612   5
   7   9  -3 3278.18 539.262  16
  -7   9   2 79.5735 185.008  10
   7   9  -2 389.273 249.343  16
  -7   9   1 1076.86 281.040  10
   7   9  -1 1249.15 266.734   5
   7   9  -1 1058.55 330.493  16
  -7   9   0 1605.63 303.011  10
   7   9   0 1858.20 328.676   5
   7   9   0 1619.17 372.903  16
  -7   9  -1 1386.87 262.116  10
   7   9   1 2102.37 459.503  16
   7   9   2 154.667 226.786   5
   7   9   2-145.361 218.076  16
  -7   9  -2 12.1260 148.424  13
   7   9   3 179.145 174.307   5
  -7   9  -3 259.992 205.996  13
  -7   9  -4 275.033 167.403  13
   7   9   4-81.9764 156.052   5
   7   9   5 780.046 222.261   5
  -7   9  -5 576.166 155.979  13
   7   9   6 395.816 172.497   5
  -7   9  -6 573.410 171.420  13
  -7  10   3 200.911 122.786  10
   7  10  -3-6.28800 135.672   6
   7  10  -3 368.059 163.668   5
  -7  10   2 199.341 118.185  10
   7  10  -2 203.826 115.759   5
   7  10  -2 352.249 172.850  16
   7  10  -1 1163.75 202.448   5
   7  10  -1 983.009 231.893  16
   7  10   0 3738.50 358.967   5
   7  10   0 2720.46 355.964  16
   7  10   1 628.751 181.864  16
   8   0 -18 3783.09 438.659  11
  -8   0  18 4112.63 336.749   8
   8   0 -17 63.1831 178.414  11
  -8   0  17-148.172 128.847   8
   8   0 -16 5460.39 716.309  11
  -8   0  16 5888.03 545.355   8
  -8   0  15-154.944 197.790   8
  -8   0  14 1242.87 347.169   8
  -8   0  13 140.335 209.496   9
  -8   0  13-216.034 243.204   8
  -8   0  12 326.446 240.325   8
  -8   0  12-62.3884 194.551   9
  -8   0  11 306.648 509.442   1
   8   0 -11-173.157 363.446   2
  -8   0  11-234.019 225.252   8
  -8   0  10 43.1367 326.715   1
  -8   0  10 98.6340 191.393   8
   8   0 -10 553.097 542.774   2
  -8   0  10-90.3205 221.157   9
   8   0 -10 33.1135 237.446  14
   8   0  -9-186.299 417.029   2
  -8   0   9-281.090 408.618   1
   8   0  -8 752.648 460.472   2
  -8   0   8 1161.13 682.294   1
   8   0  -7-268.010 329.323   2
   8   0  -6 1234.01 512.046   2
   8   0  -5-91.0671 271.289   2
   8   0  -4 55073.1 2514.96   2
   8   0  -3 115.065 335.238   2
   8   0  -2 100141. 3330.81   2
   8   0  -1-235.458 345.247   2
   8   0   0 5292.91 788.982   2
   8   0   1-483.522 377.332   2
   8   0   2 4945.47 824.477   2
   8   0   3-19.7289 305.302   2
   8   0   4 3608.92 884.053   2
   8   0   5 37.7819 335.433   2
   8   0   6 724.138 598.862   2
   8   0   7-243.548 514.515   2
   8   0   7 76.5779 158.612  14
   8   0   8-6.45213 528.834   2
  -8   0  -8 43.8733 173.327  11
   8   0   8 678.660 271.651  14
  -8   0  -9-73.2406 171.434  11
   8   0   9 474.993 219.511  14
   8   0  10 5743.28 528.453  14
  -8   0 -11-107.675 163.991  11
   8   0  11 173.204 192.967  14
   8   0  12 3207.08 386.761  14
   8   0  13 0.52733 138.491  14
   8   0  14 4077.67 386.096  14
   8   0  15 118.380 112.432  14
   8   1 -18 901.708 224.903  11
   8  -1 -18 682.184 200.693  11
  -8   1  18 1061.47 203.875   8
   8   1 -17 3106.88 486.924  11
   8  -1 -17 3356.94 520.033  11
  -8   1  17 3130.82 368.234   8
   8   1 -16 2147.82 480.443  11
   8  -1 -16 1814.77 415.072  11
  -8  -1  16 2056.65 315.061   8
  -8   1  16 2221.81 397.297   8
   8   1 -15 1343.40 405.768  11
  -8   1  15 1817.15 379.911   8
  -8  -1  15 1671.13 335.312   8
  -8   1  14 743.477 275.448   9
  -8   1  14 737.358 296.142   8
  -8  -1  14 846.467 261.773   8
  -8   1  13 799.044 327.120   9
  -8  -1  13 213.672 239.339   8
  -8   1  13 482.075 290.594   8
  -8   1  12 7560.77 656.228   9
  -8  -1  12 6859.83 725.545   8
  -8   1  12 6650.12 776.729   8
  -8   1  11 974.582 393.969   8
   8   1 -11 1204.22 791.953   2
  -8   1  11 570.272 209.270   9
  -8  -1  11 769.198 301.346   8
  -8  -1  11 1489.60 791.605   1
   8   1 -10 25159.2 2546.18   2
  -8   1  10 24422.2 1166.28   9
   8   1 -10 23982.6 1286.48  14
  -8  -1  10 21249.6 1328.24   8
  -8   1  10 24605.7 1473.68   8
  -8  -1  10 28041.5 3079.08   1
   8  -1  -9 7916.04 1340.85   2
   8   1  -9 7155.64 1266.15   2
  -8  -1   9 6842.48 1428.58   1
   8  -1  -8 32525.0 2483.26   2
   8   1  -8 32230.7 2536.68   2
  -8  -1   8 35481.5 3255.11   1
   8  -1  -7 20621.4 1831.63   2
   8   1  -7 20605.5 1886.66   2
  -8  -1   7 22068.4 2415.39   1
  -8  -1   6 34983.7 3079.46   1
   8  -1  -6 36689.3 2299.16   2
   8   1  -6 37682.3 2405.64   2
   8  -1  -5 28331.6 1893.37   2
   8   1  -5 27091.4 1948.28   2
   8  -1  -4 14028.7 1270.69   2
   8   1  -4 13615.7 1390.70   2
   8  -1  -3 7913.84 950.422   2
   8   1  -3 8103.27 1033.64   2
   8  -1  -2 25.5715 203.786   2
   8   1  -2 28.8288 230.411   2
   8   1  -1 57.6016 216.211   2
   8  -1  -1-20.2874 229.169   2
   8   1   0 11286.3 1245.34   2
   8  -1   0 10476.6 1079.96   2
   8  -1   1 8.68547 193.231   2
   8   1   1 752.553 366.491   2
   8   1   2 22215.1 1786.60   2
   8  -1   2 23705.4 1733.82   2
   8   1   3 2543.56 686.216   2
   8  -1   3 2639.33 589.700   2
   8   1   4 2992.28 852.129   2
   8  -1   4 2561.46 681.749   2
   8   1   5 11778.1 1651.07   2
   8  -1   5 11457.7 1484.79   2
   8   1   6 6393.83 1364.22   2
   8  -1   6 5367.96 1037.79   2
  -8   1  -7 3598.78 453.857  12
   8   1   7 4638.65 1239.96   2
  -8   1  -7 3902.03 435.315   7
   8  -1   7 4504.08 1025.18   2
  -8   1  -7 3252.43 518.190  11
   8   1   7 4186.14 412.734  14
   8  -1   7 4292.52 440.849  14
  -8   1  -8 18.4292 159.200  12
   8   1   8 884.177 790.052   2
  -8   1  -8 320.369 224.048   7
  -8   1  -8 321.857 243.154  11
   8   1   8 263.017 198.640  14
   8  -1   8 652.763 223.608  14
  -8   1  -9 4636.94 565.892  12
  -8   1  -9 5145.75 508.871   7
  -8   1  -9 4423.68 606.838  11
   8   1   9 4333.22 1185.34   2
   8   1   9 5937.77 531.616  14
   8  -1   9 5627.25 499.717  14
  -8   1 -10 20483.1 992.145   7
   8   1  10 20870.5 964.795  14
   8  -1  10 19686.1 975.795  14
  -8   1 -11 870.834 269.351   7
   8   1  11 1068.29 257.094  14
   8  -1  11 1376.57 287.478  14
  -8   1 -12-445.123 233.441   7
   8   1  12-121.489 146.725  14
   8  -1  12 190.830 202.786  14
  -8   1 -13-183.927 143.207   7
   8   1  13-0.53032 149.450  14
   8  -1  13 74.6806 135.959  14
   8  -1  14 560.940 193.013  14
   8   1  14 223.381 145.877  14
   8   1  15 1.74223 102.420  14
   8  -1  15 149.581 119.790  14
   8   2 -17 860.625 260.365  11
   8  -2 -17 835.523 276.649  11
  -8   2  17 1091.59 253.969   8
   8   2 -16 3905.33 544.789  11
   8  -2 -16 4300.18 609.215  11
  -8   2  16 4734.53 522.928   8
   8   2 -15 684.448 302.455  11
  -8   2  15 1028.68 311.763   9
  -8   2  15 773.757 259.618   8
  -8   2  14 269.824 266.861   9
  -8   2  14 147.850 247.896   8
  -8   2  13 7685.92 680.192   9
  -8   2  13 6242.83 746.325   8
  -8   2  12 889.708 299.917   8
  -8   2  12 1097.25 315.637   9
  -8  -2  11 4935.17 1325.12   1
  -8   2  11 5534.96 611.268   9
   8   2 -11 4974.30 1127.54   2
  -8   2  11 5411.93 702.045   8
   8   2 -10 6076.89 1216.73   2
  -8  -2  10 5439.36 1339.12   1
  -8   2  10 5686.77 606.566   9
   8   2 -10 5610.61 645.471  14
  -8   2   9 104.816 207.843   8
  -8  -2   9-391.137 506.740   1
   8  -2  -9 250.887 405.433   2
  -8   2   9 198.093 173.116   9
   8   2  -9 160.934 211.043  14
  -8  -2   8 1455.22 746.161   1
   8  -2  -8 2404.23 712.288   2
   8   2  -8 1709.65 645.113   2
   8  -2  -7 31.2826 345.196   2
   8   2  -7 220.891 378.164   2
  -8  -2   7-37.2899 289.828   1
   8  -2  -6 7531.76 1064.83   2
   8   2  -6 7423.33 1095.72   2
  -8  -2   6 7415.01 1614.70   1
  -8  -2   5 82.9335 379.604   1
   8  -2  -5 35.1432 236.729   2
   8   2  -5 141.681 257.069   2
   8  -2  -4 8254.19 947.354   2
   8   2  -4 8892.33 1127.05   2
   8   2  -3 128.229 317.513   2
   8   2  -2 15776.1 1530.95   2
   8  -2  -2 15086.5 1140.95   2
   8   2  -1 20074.0 1720.40   2
   8  -2  -1 20421.3 1311.05   2
   8   2   0 647.283 364.470   2
   8   2   1 3975.23 767.581   2
   8   2   2 3769.98 799.359   2
   8   2   3 6433.99 1138.47   2
   8   2   4 7094.03 1297.01   2
   8   2   5 156.899 475.866   2
   8   2   6 1366.46 638.254   2
  -8   2  -7 11011.4 849.303  12
  -8   2  -7 11467.5 733.926   7
  -8   2  -7 10077.7 937.193  11
   8   2   7 13487.1 2062.04   2
   8   2   7 11026.4 657.163  14
   8  -2   7 11136.2 686.192  14
   8  -2   8 799.078 679.238   1
   8   2   8 444.971 172.581  14
  -8   2  -8 353.517 183.565  12
   8   2   8 193.368 469.778   2
  -8   2  -8 446.030 207.315   7
   8  -2   8 377.858 212.817  14
  -8   2  -9 2780.18 475.663  12
  -8   2  -9 3744.40 468.033   7
   8   2   9 3093.91 386.413  14
   8  -2   9 3114.48 407.334  14
  -8   2 -10 1211.11 317.617  12
  -8   2 -10 1806.79 344.369   7
   8   2  10 1828.02 320.496  14
   8  -2  10 1966.86 364.525  14
  -8   2 -11 412.627 203.300   7
   8   2  11 467.498 210.240  14
   8  -2  11 441.681 243.022  14
  -8   2 -11 211.905 155.415  12
  -8   2 -12 12.9438 140.715  12
   8   2  12 45.8396 222.129  14
   8  -2  12 76.7881 158.707  14
  -8   2 -13-71.7402 213.780   7
   8   2  13 289.066 157.277  14
   8  -2  13 161.148 133.658  14
  -8   2 -14 364.872 188.553   7
   8   2  14 315.506 139.077  14
   8  -2  14 537.176 162.051  14
  -8   2 -15 117.798 148.166   7
   8  -2  15 395.086 142.107  14
   8   2  15 280.626 122.899  14
   8   3 -17 62.7774 105.953  11
   8  -3 -17-38.9374 208.969  11
  -8   3  17 240.296 137.112   8
   8   3 -16 817.713 251.197  11
   8  -3 -16 386.289 262.166  11
  -8   3  16 1076.26 280.189   8
   8   3 -15 1750.68 367.937  11
  -8   3  15 2124.76 382.165   9
  -8   3  15 1756.51 350.420   8
   8   3 -14 5259.73 651.394  11
  -8   3  14 6586.90 651.563   9
  -8   3  14 6384.40 660.896   8
   8   3 -13 6221.40 767.814  11
  -8   3  13 8362.57 695.662   9
  -8   3  13 7712.51 799.680   8
  -8   3  12 32638.7 1456.52   9
  -8   3  12 31964.7 1652.69   8
  -8   3  11 23758.8 1245.44   9
  -8   3  11 25611.8 1482.23   8
   8   3 -10 6650.99 1274.98   2
  -8   3  10 6844.83 683.382   9
   8   3 -10 6942.89 752.062  14
  -8   3  10 7205.48 808.151   8
  -8  -3  10 6382.76 1472.86   1
   8   3  -9 11521.5 1613.41   2
  -8   3   9 12346.9 899.601   9
   8   3  -9 11651.5 916.471  14
  -8   3   9 12626.8 1079.27   8
  -8  -3   9 11140.8 1916.51   1
  -8  -3   8 290.144 466.712   1
   8   3  -8 328.745 331.769   2
  -8   3   8 502.610 229.909   9
   8   3  -8 715.864 335.401  14
  -8  -3   7 134.683 327.554   1
   8   3  -7 392.985 337.509   2
   8   3  -6 7684.02 1198.48   2
  -8  -3   6 7330.80 1530.73   1
   8   3  -5 4036.01 863.967   2
  -8  -3   5 4449.84 1139.90   1
   8   3  -4 3088.30 763.466   2
  -8  -3   4 2872.86 835.637   1
   8   3  -3 4200.96 868.056   2
   8   3  -2 520.799 377.249   2
   8   3  -1 1558.73 575.797   2
   8   3   0 282.533 221.390   2
   8   3   1 6484.32 1096.23   2
   8   3   2 2969.11 810.978   2
   8   3   3 1054.74 589.591   2
   8   3   4 6173.32 1314.03   2
  -8   3  -5 26745.1 1233.81  12
  -8   3  -5 25884.5 1038.21   7
   8   3   5 28532.2 2826.49   2
  -8   3  -6 5950.20 608.378  12
  -8   3  -6 5948.06 533.666   7
   8   3   6 5604.17 471.973  14
   8   3   6 5364.95 1334.00   2
   8   3   7 3850.91 1238.77   2
  -8   3  -7 3411.96 441.340   7
  -8   3  -7 2835.05 428.747  12
   8   3   7 2777.51 354.330  14
   8  -3   7 2841.23 360.140  14
   8  -3   8 1257.70 869.692   1
  -8   3  -8 2268.18 434.622  12
  -8   3  -8 2732.57 388.440   7
   8  -3   8 2108.67 345.892  14
   8   3   8 2277.09 329.805  14
  -8   3  -9 1526.38 402.789  12
  -8   3  -9 2267.27 396.230   7
   8   3   9 1691.78 324.711  14
   8  -3   9 1611.24 305.892  14
  -8   3 -10 3544.27 517.117  12
  -8   3 -10 3914.04 465.858   7
   8   3  10 2979.86 366.997  14
   8  -3  10 3443.18 407.461  14
  -8   3 -11 3444.82 558.354  12
  -8   3 -11 5232.52 515.288   7
   8   3  11 4342.83 405.942  14
   8  -3  11 4425.03 457.170  14
  -8   3 -12 132.465 180.527  12
   8   3  12 192.182 127.839  14
   8  -3  12 151.991 142.191  14
   8   3  13 78.1415 122.293  14
   8  -3  13 296.953 159.912  14
  -8   3 -14 1237.48 228.800   7
   8   3  14 1252.99 189.336  14
   8  -3  14 1488.19 216.359  14
   8   4 -16 403.931 177.136  12
   8  -4 -16 548.517 200.204  11
  -8   4  16 912.863 214.956   8
   8  -4 -15-153.419 210.940  11
  -8   4  15-30.4223 179.151   9
  -8   4  15-193.717 181.611   8
  -8   4  14 784.552 297.958   9
  -8   4  14 1052.92 296.975   8
  -8   4  13 13762.0 923.463   9
   8   4 -13 15233.3 1051.13  16
  -8   4  13 14743.0 1000.73   8
   8   4 -12 956.524 325.816  16
  -8   4  12 812.070 311.961   9
  -8   4  12 922.065 342.964   8
  -8   4  11 403.547 328.496   9
   8   4 -11 92.3917 207.334  16
  -8   4  11 138.547 199.230   8
  -8   4  10 3993.45 522.892   9
   8   4 -10 4540.02 683.494  16
  -8   4  10 3883.29 622.077   8
  -8   4   9 789.471 324.473   8
  -8  -4   9 277.341 331.293   1
   8   4  -9 68.9612 351.992   2
  -8   4   9 1137.19 480.439   9
   8   4  -9 838.759 337.974  16
   8   4  -9 1241.91 380.145  14
   8   4  -8 6965.90 1207.18   2
  -8   4   8 6731.04 674.431   9
   8   4  -8 7202.02 838.905  16
   8   4  -8 6255.42 689.558  14
  -8   4   8 6966.66 790.263   8
  -8  -4   8 6285.83 1466.75   1
  -8   4   7 831.999 395.203   8
  -8  -4   7 346.306 527.739   1
   8   4  -7 545.436 457.513   2
  -8   4   7 649.540 229.269   9
   8   4  -7 485.728 249.955  16
   8   4  -7 602.015 257.058  14
   8   4  -6 1632.95 583.588   2
  -8   4   6 1547.15 311.627   9
  -8  -4   6 1446.30 725.351   1
  -8  -4   5 140.482 286.642   1
   8   4  -5 203.886 284.971   2
   8   4  -4-194.505 357.591   2
   8   4  -3 872.159 436.026   2
   8   4  -2 1450.27 598.101   2
   8   4  -1 1813.12 654.811   2
   8   4   1 1486.45 529.829   2
   8   4   2 366.419 422.470   2
  -8   4  -3 862.762 255.727  13
   8   4   3 548.802 463.814   2
  -8   4  -4 13356.8 880.680  12
  -8   4  -4 12471.3 719.032   7
   8   4   4 14981.9 2124.51   2
  -8   4  -5 182.169 170.797  12
   8   4   5 156.524 469.167   2
  -8   4  -6 23522.6 1222.28  12
  -8   4  -6 23380.6 1074.60   7
   8   4   6 25340.6 2989.87   2
  -8   4  -7 15.7395 179.657  12
  -8   4  -7-92.0427 183.139   7
  -8   4  -8 7628.48 800.321  12
  -8   4  -8 9674.17 723.053   7
  -8   4  -9 5602.71 673.847  12
  -8   4  -9 6731.66 625.981   7
  -8   4 -10 5463.34 647.330  12
  -8   4 -10 6647.97 595.550   7
  -8   4 -11 1014.54 308.239  12
   8  -4  11 155.721 135.098  14
  -8   4 -12-83.4645 156.090  12
  -8   4 -12 114.397 167.785   7
   8  -4  12-258.635 156.329  14
  -8   4 -13-37.7522 133.049  12
  -8   4 -13 355.709 155.473   7
  -8   4 -14 4884.37 363.243   7
  -8   4 -14 5129.71 360.150  13
   8   5 -15 1916.98 293.939  12
  -8   5  15 2821.45 356.675   8
  -8   5  14 6068.07 557.028   9
  -8   5  14 5919.68 558.660   8
  -8   5  13 404.399 252.192   9
   8   5 -13 444.720 236.554  16
  -8   5  13-256.861 205.347   8
  -8   5  12 2224.18 399.681   9
   8   5 -12 2431.89 457.879  16
  -8   5  12 1892.20 420.547   8
  -8   5  11 9312.74 768.772   9
   8   5 -11 9917.81 940.134  16
  -8   5  11 8525.72 802.556   8
   8   5 -10 2520.14 559.103  16
  -8   5  10 2059.25 446.444   9
  -8   5  10 2102.41 464.132   8
  -8   5   9 30810.9 1433.21   9
   8   5  -9 33608.0 1858.76  16
  -8   5   9 32021.3 1565.03   8
  -8   5   8 7297.45 749.810   9
   8   5  -8 7668.18 896.500  16
   8   5  -8 5873.23 656.473  14
  -8   5   8 6689.41 736.215   8
   8   5  -7 17519.7 1909.42   2
  -8   5   7 20687.3 1178.39   9
   8   5  -7 20905.7 1504.36  16
  -8   5   7 19546.9 1219.40   8
   8   5  -7 18553.7 1081.86  14
   8   5  -6 1232.59 632.422   2
  -8   5   6 759.222 301.803   9
   8   5  -6 1342.50 462.314  16
  -8   5   5-133.663 220.518   9
   8   5  -5 37.7471 411.984   2
  -8   5   5 40.1937 174.037  13
  -8   5   4 2305.25 446.454   9
  -8   5   4 2273.80 339.941  13
  -8   5   3 25.6434 249.369   9
   8   5  -3-167.450 285.654   2
  -8   5   2-127.289 183.735   9
   8   5  -2 100.919 237.438   2
  -8   5   2 322.097 228.000  13
   8   5  -1 1643.10 639.613   2
  -8   5   1 1525.29 285.776  13
  -8   5   1 1505.98 357.647   9
  -8   5   0 115.757 228.202   9
   8   5   0-327.444 419.037   2
  -8   5   0-119.145 170.599  13
  -8   5  -1 2774.94 345.868  13
  -8   5  -1 2884.94 405.166  12
   8   5   1 2237.40 763.041   2
  -8   5  -2 5470.27 570.034  12
  -8   5  -2 5192.29 460.491   7
   8   5   2 5535.91 1269.08   2
  -8   5  -2 5690.06 519.968  13
  -8   5  -3 35.3476 172.048  12
  -8   5  -3 183.432 247.110   7
   8   5   3 358.439 594.071   2
  -8   5  -4 11122.3 856.321  12
  -8   5  -4 12049.9 714.048   7
   8   5   4 12287.9 2073.86   2
  -8   5  -4 12572.2 824.679  13
  -8   5  -5 5122.12 593.582  12
  -8   5  -5 5669.23 529.080   7
  -8   5  -5 5600.27 521.732  13
  -8   5  -6 724.949 277.107  13
  -8   5  -6 662.895 249.309  12
  -8   5  -6 730.641 284.986   7
  -8   5  -7 19290.9 1161.85  12
  -8   5  -7 19586.8 979.224   7
  -8   5  -7 20594.5 1013.08  13
  -8   5  -8 1867.03 377.892  13
  -8   5  -8 1644.15 376.144  12
  -8   5  -8 1986.23 363.071   7
  -8   5  -9-69.5531 173.760  13
  -8   5  -9 64.7494 184.367  12
  -8   5  -9-374.706 228.773   7
  -8   5 -10 699.499 302.780  13
  -8   5 -10 293.321 194.201  12
  -8   5 -10 862.342 259.608   7
  -8   5 -11 4392.30 538.272  12
  -8   5 -11 5027.03 452.925   7
  -8   5 -11 4705.51 422.030  13
  -8   5 -12 3194.31 409.166  12
  -8   5 -12 3483.48 363.501   7
  -8   5 -12 2915.06 314.875  13
  -8   5 -13 487.550 153.252  12
  -8   5 -13 713.329 154.306   7
   8   6 -14 943.333 212.523  12
  -8   6  14 969.008 238.331   9
  -8   6  14 481.861 139.034   8
  -8   6  13 1108.86 262.908   9
   8   6 -13 1142.52 275.716  16
  -8   6  13 1505.29 279.353   8
   8   6 -12 133.138 220.115  16
  -8   6  12 12.8220 135.647   8
  -8   6  11 1119.99 254.732   9
   8   6 -11 1215.72 340.712  16
  -8   6  11 1065.88 248.847   8
  -8   6  10 12957.1 877.781   9
   8   6 -10 12287.4 1110.20  16
  -8   6  10 10882.4 806.901   8
  -8   6   9 1086.19 316.862   9
   8   6  -9 1039.81 410.765  16
  -8   6   8 2173.52 486.937   9
   8   6  -8 1403.99 397.340  16
  -8   6   7 1790.60 439.297   9
   8   6  -7 1132.82 424.815  16
  -8   6   6 9411.79 847.028   9
   8   6  -6 9101.10 1097.19  16
  -8   6   5 301.324 320.364   9
   8   6  -5 53.9365 242.865  16
  -8   6   4 716.718 333.135   9
  -8   6   4 564.185 196.555  13
  -8   6   3 2102.97 469.306   9
  -8   6   3 2023.93 327.967  13
  -8   6   2-198.754 218.495   9
  -8   6   2 152.248 224.959  13
  -8   6   1 321.016 200.848   9
  -8   6   1 319.874 208.329  13
  -8   6   0 2816.41 501.509   9
   8   6   0 4018.37 524.059   5
   8   6   0 3263.38 903.054   2
  -8   6   0 3571.89 437.989  13
   8   6   1 1434.17 359.482   5
  -8   6  -1 1040.40 354.001   9
   8   6   1 454.255 491.142   2
  -8   6  -1 1931.98 349.448  13
  -8   6  -2 1343.04 312.057  12
  -8   6  -2 1311.90 397.367   9
  -8   6  -2 1780.02 335.922  13
  -8   6  -3 9000.79 740.922  12
  -8   6  -3 8741.70 643.473  13
  -8   6  -4 53649.8 1940.93  12
  -8   6  -4 57293.2 1528.97   7
  -8   6  -4 57030.0 1616.27  13
  -8   6  -5 6330.94 667.331  12
  -8   6  -5 6662.63 545.431   7
  -8   6  -5 6723.64 563.330  13
  -8   6  -6 160.518 196.449  13
  -8   6  -6 63.4746 160.145  12
  -8   6  -6-230.360 181.063   7
  -8   6  -7 127.512 184.010  13
  -8   6  -7 99.4034 162.859  12
  -8   6  -7-72.9244 180.515   7
  -8   6  -8 991.506 266.308  13
  -8   6  -8 1031.12 276.444  12
  -8   6  -8 1013.86 267.243   7
  -8   6  -9 1884.61 346.329  13
  -8   6  -9 1236.59 307.887  12
  -8   6  -9 1939.27 335.169   7
  -8   6 -10 5227.26 606.768  12
  -8   6 -10 6056.27 483.413   7
  -8   6 -10 5609.54 461.936  13
  -8   6 -11 1223.94 249.549  13
  -8   6 -11 962.946 258.069  12
  -8   6 -11 1129.84 222.786   7
  -8   6 -12 7672.82 526.085  12
  -8   6 -12 8069.04 446.419   7
  -8   6 -12 6927.62 384.001  13
   8   7 -13 1516.07 251.030  12
   8   7 -13 1565.15 248.217  16
  -8   7  12 130.971 142.880   9
   8   7 -12 355.760 192.896  16
  -8   7  11 3240.05 435.024   9
   8   7 -11 1584.44 348.694  16
  -8   7  10 92.8769 223.010   9
   8   7 -10-118.819 157.856  16
  -8   7   9 799.605 272.104   9
   8   7  -9 655.263 307.979  16
  -8   7   8 264.698 232.632   9
   8   7  -8 362.662 217.860  16
  -8   7   7-19.2081 191.518   9
   8   7  -7-76.6426 271.898  16
  -8   7   6 410.889 284.116   9
   8   7  -6 541.283 294.615  16
  -8   7   5 438.548 228.946   9
   8   7  -5 890.533 407.915  16
  -8   7   4 312.043 249.770   9
   8   7  -4 193.862 325.349  16
   8   7  -3 811.720 235.271   5
  -8   7   3 495.023 201.913   9
   8   7  -2 125.763 187.933   5
  -8   7   2-77.1510 194.774   9
  -8   7   2 223.809 250.884  13
   8   7  -1 15154.5 969.367   5
  -8   7   1 14074.2 812.854  13
  -8   7   0 82.1804 170.804  10
   8   7   0-64.9054 301.635   5
  -8   7   0-44.6861 307.588   9
  -8   7  -1 1427.30 328.462  10
   8   7   1 2146.13 469.338   5
  -8   7  -1 1090.83 336.824   9
  -8   7  -1 1805.00 357.957  13
  -8   7  -2 192.546 168.628  10
  -8   7  -2 233.972 174.399   9
  -8   7  -2 230.714 171.499  13
  -8   7  -3 2542.28 444.708  12
   8   7   3 3775.49 534.564   5
  -8   7  -3 3723.42 438.790  13
  -8   7  -3 2349.70 427.839   9
  -8   7  -4 1652.40 337.917  13
  -8   7  -4 845.882 256.228  12
  -8   7  -4 854.092 298.157   9
  -8   7  -5 219.526 174.714  12
  -8   7  -5 452.332 229.912   9
  -8   7  -5 910.544 261.236  13
  -8   7  -6-154.613 151.181  12
  -8   7  -6 245.979 194.898   9
  -8   7  -6-201.775 174.582  13
  -8   7  -7 1877.47 357.291  12
  -8   7  -7 1845.84 326.213   9
  -8   7  -7 1894.15 301.671  13
  -8   7  -8 414.094 233.277  12
  -8   7  -8 340.063 189.447   9
  -8   7  -8 231.188 151.867  13
  -8   7  -9 49.5205 174.041  12
  -8   7  -9 339.321 185.866  13
  -8   7 -10 150.288 137.207  12
  -8   7 -10 103.644 119.241  13
   8   8 -11 135.297 109.305  12
   8   8 -11 124.777 102.241  16
   8   8 -10 134.422 128.420  12
   8   8 -10 246.178 160.468  16
   8   8  -9 19.7799 159.321  16
   8   8  -8 100.957 217.965  16
   8   8  -7-18.6599 134.567   6
   8   8  -7-132.483 229.429  16
   8   8  -6 1210.44 303.615   6
  -8   8   6 1185.61 284.179  10
   8   8  -6 1351.71 410.685  16
  -8   8   5 1353.23 304.527  10
   8   8  -5 2521.99 378.251   5
  -8   8   4-133.738 203.387  10
   8   8  -4-139.487 191.420   5
   8   8  -4 125.511 242.177  16
  -8   8   3 1821.90 317.650  10
   8   8  -3 2863.49 386.015   5
   8   8  -3 2477.27 569.846  16
  -8   8   2 562.856 207.872  10
   8   8  -2 1020.37 357.504  16
  -8   8   1 204.478 189.982  10
  -8   8   1 453.389 309.404  13
   8   8   0 8678.74 693.980   5
  -8   8   0 7671.64 582.446  13
  -8   8  -1 569.502 183.630  10
   8   8   1 497.754 200.313   5
   8   8   2 19230.2 1058.04   5
  -8   8  -2 16466.8 819.980  13
   8   8   3 678.313 314.731   5
  -8   8  -3 500.673 185.854  13
   8   8   4 3144.00 511.911   5
  -8   8  -4 1848.52 280.364  13
  -8   8  -5 1760.39 310.383  12
   8   8   5 1909.97 372.718   5
  -8   8  -5 1340.77 226.558  13
  -8   8  -6 62.3318 111.046  12
   8   8   6 329.945 212.403   5
  -8   8  -6-116.778 159.394  13
  -8   8  -7 21.7951 107.976  12
   8   8   7-74.0749 194.525   5
  -8   8  -7 359.760 190.995  13
  -8   8  -8 107.714 131.616  12
   8   8   8 391.697 209.904   5
  -8   8  -8 235.959 141.684  13
   8   9  -8 28.5817 80.0246  12
   8   9  -8 44.8801 154.387  16
   8   9  -7 45.7791 102.204   6
   8   9  -7-212.162 161.268  16
   8   9  -6 236.144 173.093   6
  -8   9   6-8.93992 134.042  10
   8   9  -5 417.430 221.022  16
  -8   9   5 671.301 188.317  10
   8   9  -5 254.654 161.266   6
  -8   9   4 32.1710 115.953  10
   8   9  -4-131.966 139.794   5
   8   9  -4-61.6660 149.498  16
  -8   9   3 1019.49 199.125  10
   8   9  -3 1228.58 347.624  16
  -8   9   2 210.503 174.962  10
   8   9  -2 111.539 135.485   5
   8   9  -2 229.947 194.393  16
  -8   9   1 1365.63 287.933  10
   8   9  -1 1752.02 292.159   5
   8   9  -1 1291.67 333.401  16
   8   9   0 693.547 217.088   5
   8   9   0 594.087 230.974  16
   8   9   1-326.885 194.830   5
   8   9   1-111.957 207.195  16
   8   9   2-130.916 158.790  16
   8   9   3 181.482 153.487   5
  -8   9  -3 806.378 222.405  13
   8   9   4 1801.00 288.023   5
  -8   9  -4 1679.54 231.268  13
   8   9   5 3602.44 355.105   5
  -8   9  -5 3836.90 286.021  13
   9   0 -17-44.2470 158.201  11
  -9   0  17-56.3814 114.498   8
   9   0 -16 896.427 320.369  11
  -9   0  16 931.405 243.457   8
  -9   0  15-50.4800 173.588   8
  -9   0  14 310.078 189.884   8
  -9   0  13-149.941 207.647   9
  -9   0  13-162.897 202.029   8
  -9   0  12 145.234 196.059   8
  -9   0  12 323.208 229.102   9
  -9   0  11 52.4611 207.767   8
   9   0 -11-313.665 589.889   2
  -9   0  11-83.8744 221.362   9
   9   0 -10 21489.7 2373.33   2
   9   0 -10 20386.5 1216.81  14
  -9   0  10 19769.6 1358.38   8
   9   0  -9-102.074 284.329   2
   9   0  -8-200.670 439.176   2
   9   0  -7-379.427 395.844   2
   9   0  -6 15764.4 1560.84   2
   9   0  -5-388.729 342.286   2
   9   0  -4 5551.32 877.067   2
   9   0  -3 44.4506 278.247   2
   9   0  -2 28669.6 1944.17   2
   9   0  -1 241.058 337.982   2
   9   0   0 326.818 345.325   2
   9   0   1 102.019 211.208   2
   9   0   2 331.015 274.883   2
   9   0   3-422.749 319.224   2
   9   0   5-21.6583 399.499   2
   9   0   6 6072.81 1239.84   2
   9   0   6 4661.45 482.149  14
   9   0   7 69.8999 416.539   2
   9   0   7 147.631 156.243  14
   9   0   8 6756.01 1374.16   2
   9   0   8 8930.83 643.835  14
   9   0   9 16.2181 154.944  14
   9   0  10 645.996 228.374  14
   9   0  11 392.336 252.166  14
   9   0  12 107.886 152.063  14
   9   0  13 96.3920 142.907  14
   9   0  14 227.177 127.476  14
   9   0  15-217.706 119.302  14
   9   1 -17 542.602 185.961  11
   9  -1 -17 946.520 282.895  11
  -9   1  17 744.033 222.481   8
   9   1 -16 3642.34 566.270  11
   9  -1 -16 4041.00 595.601  11
  -9   1  16 4751.11 486.389   8
  -9  -1  15 738.643 232.923   8
  -9   1  15 861.132 291.840   8
  -9   1  14 750.745 259.703   9
  -9  -1  14 896.808 291.046   8
  -9   1  14 936.140 320.415   8
  -9   1  13 377.221 250.842   8
  -9   1  13 141.308 205.241   9
  -9  -1  13 697.409 295.009   8
  -9   1  12 32386.3 1701.08   8
  -9  -1  12 30123.6 1565.87   8
  -9  -1  11 280.494 221.412   8
  -9   1  11 143.926 231.968   8
  -9  -1  11 396.608 540.251   1
   9  -1 -11-167.598 460.370   2
  -9   1  11 364.938 296.744   9
  -9  -1  10 15199.4 2420.11   1
   9  -1 -10 15364.8 1995.34   2
   9   1 -10 15696.0 2003.44   2
  -9   1  10 15775.2 977.468   9
   9  -1 -10 15580.7 1055.70  14
   9   1 -10 15667.3 1093.00  14
  -9   1  10 14545.0 1215.59   8
  -9  -1  10 13459.3 1105.15   8
   9  -1  -9 2637.66 733.280   2
   9   1  -9 3203.39 878.216   2
  -9   1   9 3087.60 450.686   9
  -9  -1   9 3351.54 1061.75   1
   9   1  -9 3489.96 512.848  14
   9  -1  -8 4562.39 977.409   2
   9   1  -8 4483.60 1011.68   2
   9  -1  -7 7541.31 1139.41   2
   9   1  -7 7684.64 1205.86   2
   9  -1  -6 1321.89 440.926   2
   9   1  -6 2017.40 607.636   2
   9  -1  -5 1765.86 535.424   2
   9   1  -5 2070.66 627.024   2
   9  -1  -4 7782.02 1009.01   2
   9   1  -4 7636.79 1100.57   2
   9   1  -3 258.179 262.127   2
   9  -1  -3-335.858 340.165   2
   9   1  -2 4798.35 827.742   2
   9  -1  -2 4708.35 773.522   2
   9   1  -1 8809.97 1143.69   2
   9  -1  -1 8224.88 997.696   2
   9  -1   0 1745.76 489.291   2
   9   1   0 1498.23 518.607   2
   9  -1   1 4214.51 762.670   2
   9   1   1 4100.67 840.067   2
   9   1   2 11901.9 1427.17   2
   9  -1   2 12958.9 1393.87   2
   9   1   3 1650.99 679.212   2
   9  -1   3 1039.71 465.550   2
   9   1   4 980.847 548.821   2
   9  -1   4 162.443 294.716   2
   9  -1   5 5758.55 1154.09   2
   9   1   5 4670.99 1114.54   2
  -9   1  -6 8156.49 722.059  12
  -9   1  -6 8173.73 612.958   7
   9   1   6 8770.97 1643.41   2
   9   1   6 8287.92 596.714  14
   9  -1   6 8714.00 595.390  14
   9   1   7 512.738 589.239   2
  -9   1  -7 296.116 178.323  12
  -9   1  -7 645.132 249.955   7
   9   1   7 211.403 162.442  14
   9  -1   7 760.203 230.248  14
  -9   1  -8 3889.62 522.434  12
  -9   1  -8 4829.80 516.129   7
   9   1   8 4440.61 1086.93   2
   9   1   8 5199.72 496.432  14
   9  -1   8 5682.34 534.964  14
  -9   1  -9 10633.1 746.054   7
   9   1   9 11511.4 725.638  14
   9  -1   9 11176.1 733.065  14
  -9   1 -10 2498.42 370.891   7
   9   1  10 2842.96 400.754  14
   9  -1  10 2908.21 396.057  14
  -9   1 -11 1560.60 292.294   7
   9   1  11 1959.43 330.117  14
   9  -1  11 1799.35 325.518  14
  -9   1 -12-134.597 181.048   7
   9   1  12 151.106 172.640  14
   9  -1  12 451.779 222.258  14
   9   1  13-12.6157 128.636  14
   9  -1  13 182.649 141.168  14
   9  -1  14 131.670 112.699  14
   9   1  14 315.304 139.611  14
   9   2 -17 301.577 140.982  11
   9  -2 -17 512.180 233.546  11
  -9   2  17 597.470 216.752   8
   9   2 -16 550.684 218.471  11
   9  -2 -16 809.301 320.240  11
  -9   2  16 796.614 230.336   8
   9   2 -15 6023.30 707.884  11
  -9   2  15 7315.53 696.921   8
  -9   2  14 3993.26 486.505   9
  -9   2  14 3773.82 542.184   8
  -9   2  13 2297.71 394.166   9
  -9   2  13 2100.88 472.405   8
  -9   2  12 2192.75 490.892   8
  -9   2  12 2911.92 462.624   9
  -9   2  11 4594.34 547.521   9
  -9   2  11 4241.18 655.992   8
  -9   2  10 3325.57 589.669   8
   9  -2 -10 3803.15 1060.71   2
   9   2 -10 2918.89 913.789   2
  -9   2  10 3687.45 471.719   9
  -9  -2  10 4492.64 1338.11   1
   9   2 -10 3830.49 583.683  14
   9  -2  -9 572.867 344.174   2
   9   2  -9 100.597 336.745   2
  -9   2   9 809.798 291.144   9
  -9  -2   9 1228.88 745.118   1
  -9  -2   8 5794.81 1492.73   1
   9  -2  -8 5500.11 1029.03   2
   9   2  -8 4984.35 1067.30   2
  -9   2   8 5816.89 593.314   9
  -9   2   8 6632.85 700.485  15
   9   2  -8 6096.53 642.555  14
   9  -2  -7 285.217 354.643   2
   9   2  -7 49.2818 249.711   2
  -9  -2   7 253.619 320.317   1
   9  -2  -6 3019.13 706.282   2
   9   2  -6 3856.27 889.301   2
   9  -2  -5 254.354 248.826   2
   9   2  -5 333.432 285.566   2
   9   2  -4 682.206 460.037   2
   9   2  -3-338.092 416.428   2
   9   2  -2 19549.1 1779.88   2
   9   2   0-156.593 235.842   2
   9   2   1 2187.69 665.123   2
   9   2   2 257.273 364.153   2
   9   2   3 540.381 397.869   2
   9   2   4 891.704 647.577   2
  -9   2  -5 800.177 220.753  12
  -9   2  -5 1142.37 271.466   7
   9   2   5 1268.00 697.231   2
   9   2   5 862.890 227.239  14
  -9   2  -6 11754.6 874.547  12
  -9   2  -6 11080.7 713.731   7
   9   2   6 12495.4 1978.14   2
   9   2   6 11158.1 697.398  14
   9  -2   6 10994.5 691.099  14
   9   2   7 574.770 492.718   2
  -9   2  -7 463.632 204.265  12
  -9   2  -7 882.732 282.391   7
   9   2   7 539.168 219.653  14
   9  -2   7 279.151 142.023  14
  -9   2  -8 2868.06 489.817  12
  -9   2  -8 3845.76 440.420   7
   9   2   8 3636.61 417.993  14
   9  -2   8 3208.49 409.695  14
  -9   2  -9 950.010 365.759  12
  -9   2  -9 1564.30 390.569   7
   9   2   9 1479.21 301.492  14
   9  -2   9 1253.40 280.153  14
  -9   2 -10 5.52498 203.630  12
  -9   2 -10 519.953 259.457   7
   9   2  10 188.142 175.507  14
   9  -2  10 409.254 208.212  14
  -9   2 -11 453.454 223.536   7
   9   2  11 229.726 181.673  14
   9  -2  11 99.4897 187.800  14
  -9   2 -12 671.595 262.595   7
   9   2  12 774.882 240.825  14
   9  -2  12 723.090 269.283  14
  -9   2 -13 118.564 135.902   7
   9   2  13-62.1404 114.074  14
   9  -2  13-35.5246 125.453  14
   9   2  14 1254.20 203.385  14
   9  -2  14 1640.58 232.366  14
   9   3 -17 7.62117 74.6085  11
   9  -3 -17-9.35701 122.935  11
  -9   3  17 43.4148 105.672   8
   9   3 -16 262.443 150.331  11
   9  -3 -16 85.1057 161.032  11
  -9   3  16 59.1195 146.249   8
   9   3 -15 164.017 131.473  11
  -9   3  15 137.807 177.880   9
  -9   3  15 330.121 175.256   8
  -9   3  14 15875.9 959.440   9
  -9   3  14 15063.7 993.029   8
  -9   3  13 12204.8 856.981   9
  -9   3  13 11649.5 930.510   8
  -9   3  12 135.128 221.417   8
  -9   3  12 398.139 277.514   9
  -9   3  11 2571.71 480.650   8
  -9   3  11 3081.41 504.026   9
  -9   3  10 19934.8 1147.84   9
   9   3 -10 17788.9 1181.02  14
  -9   3  10 18923.5 1314.38   8
  -9  -3   9 6415.74 1620.90   1
   9   3  -9 6341.65 1227.37   2
  -9   3   9 6680.13 680.140   9
   9   3  -9 6074.81 701.505  14
  -9   3   9 6875.21 815.532   8
   9   3  -8 17388.3 1998.85   2
  -9   3   8 17915.6 1082.53   9
   9   3  -8 17411.6 1088.96  14
  -9   3   8 17357.1 1330.09   8
  -9  -3   8 20020.5 2696.13   1
  -9  -3   7 1302.77 785.680   1
   9   3  -7 1713.56 687.964   2
  -9   3   7 1661.81 308.041   9
   9   3  -7 2598.82 440.217  14
   9   3  -6 1295.83 557.391   2
  -9   3   6 1405.12 281.940   9
  -9  -3   6 1603.45 748.018   1
   9   3  -5 1314.17 641.514   2
   9   3  -4 13.9890 285.596   2
   9   3  -3 651.134 439.616   2
   9   3  -2 132.055 235.328   2
   9   3  -1 3661.08 847.878   2
   9   3   0-413.283 452.632   2
   9   3   1 2341.60 729.202   2
   9   3   2 6492.25 1213.65   2
   9   3   3 8337.71 1454.57   2
  -9   3  -4 279.182 186.561  12
  -9   3  -4-2.01154 157.287   7
   9   3   4 64.2035 183.653  14
   9   3   4 267.714 602.881   2
  -9   3  -5 4277.43 521.307  12
  -9   3  -5 4167.33 462.906   7
   9   3   5 4048.44 439.702  14
   9   3   5 4011.58 1093.32   2
  -9   3  -6 13836.8 979.288  12
  -9   3  -6 13333.4 804.969   7
   9   3   6 15321.3 2301.90   2
   9   3   6 12457.6 729.696  14
  -9   3  -7-165.730 210.580  12
  -9   3  -7 281.038 210.526   7
   9   3   7 220.337 208.183  14
   9  -3   7 123.053 187.585  14
  -9   3  -8 16487.5 1204.72  12
  -9   3  -8 19234.8 1002.73   7
   9   3   8 18493.7 886.084  14
   9  -3   8 18176.7 907.314  14
  -9   3  -9 236.707 196.180  12
  -9   3  -9 521.960 265.046   7
   9   3   9-70.5636 143.561  14
   9  -3   9 150.390 162.942  14
  -9   3 -10 423.229 249.320  12
  -9   3 -10 77.7197 185.955   7
   9   3  10 40.2739 134.213  14
   9  -3  10-53.7613 140.974  14
  -9   3 -11 1049.31 311.478  12
  -9   3 -11 1891.05 346.486   7
   9   3  11 1200.60 249.304  14
   9  -3  11 1214.71 252.766  14
  -9   3 -12 1075.62 273.675   7
   9   3  12 864.732 215.770  14
   9  -3  12 1044.43 242.384  14
  -9   3 -13 86.2219 137.076   7
   9   3  13 172.212 131.637  14
   9  -3  13 80.3226 127.732  14
   9  -3  14 109.821 120.511  14
   9  -4 -16 1022.29 267.159  11
  -9   4  16 1935.54 314.669   8
  -9   4  15 915.190 255.843   9
  -9   4  15 409.228 181.186   8
  -9   4  14 231.007 250.882   9
  -9   4  14 240.189 168.344   8
  -9   4  13 548.559 287.715   9
  -9   4  13 8.49691 197.856   8
  -9   4  12 1929.17 394.133   9
  -9   4  12 1669.01 355.626   8
  -9   4  11 221.016 232.029   8
  -9   4  11-7.63297 257.148   9
   9   4 -11 160.360 179.283  16
  -9   4  10 613.559 355.535   8
  -9   4  10 185.655 268.826   9
   9   4 -10-254.808 277.003  16
  -9   4   9 6610.54 718.363   9
   9   4  -9 6690.84 808.726  16
   9   4  -9 6465.36 741.228  14
  -9   4   9 5982.94 818.926   8
  -9   4   8-214.776 264.759   8
  -9   4   8 333.465 235.837   9
  -9  -4   8-256.559 329.896   1
   9   4  -8 207.434 244.334  16
   9   4  -8 71.0010 227.161  14
  -9  -4   7 440.789 456.717   1
   9   4  -7-201.287 342.732   2
   9   4  -7 142.557 189.355  16
   9   4  -7 104.737 245.683  14
  -9   4   7 117.165 223.903   9
   9   4  -6 5940.79 1173.94   2
  -9   4   6 6688.95 724.301   9
   9   4  -6 7964.43 882.795  16
   9   4  -6 6661.19 651.774  14
   9   4  -5 795.633 457.594   2
  -9   4   5 972.092 358.991   9
   9   4  -5 997.598 307.578  14
   9   4  -4 1778.84 680.521   2
  -9   4   4 1545.36 334.141   9
   9   4  -4 2789.13 449.125  14
  -9   4   4 1997.44 302.842  13
  -9   4   3 2292.38 405.627   9
  -9   4   2 134.584 184.310   9
   9   4  -2 132.456 383.153   2
  -9   4   1 1111.39 329.658   9
   9   4  -1 1115.67 502.432   2
   9   4   0 19.4826 268.078   2
  -9   4  -1 7.31489 161.871  13
   9   4   1-68.3281 452.841   2
  -9   4  -2 2375.99 360.156  13
  -9   4  -2 2028.36 339.459  12
  -9   4  -2 2081.99 306.180   7
   9   4   2 1302.22 690.706   2
  -9   4  -3-168.290 184.516  13
  -9   4  -3-380.822 224.892  12
  -9   4  -3-10.9917 142.600   7
   9   4   3-626.700 719.504   2
  -9   4  -4-134.800 155.094  12
  -9   4  -4 33.4999 168.975   7
  -9   4  -5 900.323 259.273  12
  -9   4  -5 1196.72 305.614   7
   9   4   5 1113.97 834.590   2
  -9   4  -6 32023.9 1525.24  12
  -9   4  -6 30906.4 1231.80   7
  -9   4  -7 910.105 282.014  12
  -9   4  -7 597.974 253.705   7
  -9   4  -8 2288.20 427.360  12
  -9   4  -8 3291.80 436.814   7
  -9   4  -9 3795.45 562.051  12
  -9   4  -9 4367.61 489.852   7
  -9   4 -10 266.428 217.444  12
  -9   4 -10 1087.15 300.357   7
  -9   4 -11 17.5168 138.979  12
  -9   4 -11 246.410 184.433   7
  -9   4 -12 285.322 181.787   7
  -9   4 -13 521.988 177.286  13
  -9   4 -13 784.505 203.341   7
   9   5 -15 1777.76 290.980  12
  -9   5  15 2570.12 315.894   8
  -9   5  14-0.80364 205.709   9
  -9   5  14 118.644 146.199   8
  -9   5  13 4012.18 480.038   9
   9   5 -13 4038.67 497.625  16
  -9   5  13 3951.68 480.497   8
  -9   5  12 2187.70 392.164   9
   9   5 -12 2127.68 404.596  16
  -9   5  12 1481.41 364.806   8
  -9   5  11 2048.51 428.615   9
   9   5 -11 1680.98 391.949  16
  -9   5  11 1582.96 373.258   8
  -9   5  10 4521.32 590.051   9
   9   5 -10 5060.03 702.869  16
  -9   5  10 3900.01 580.367   8
  -9   5   9 792.609 327.496   8
  -9   5   9 955.587 394.570   9
   9   5  -9 699.974 337.556  16
  -9   5   8 15457.7 1076.16   9
   9   5  -8 15175.7 1256.93  16
   9   5  -8 12166.1 956.003  14
  -9   5   8 13400.0 1048.05   8
   9   5  -7 2510.27 541.751  16
  -9   5   7 2638.05 464.760   8
  -9   5   7 2761.72 483.638   9
   9   5  -7 2208.37 451.076  14
  -9   5   6 812.300 364.864   9
   9   5  -6 591.644 395.091   2
   9   5  -6 245.758 185.383  14
   9   5  -6 536.686 327.749  16
   9   5  -5 1043.95 484.482   2
  -9   5   5 1560.41 416.185   9
  -9   5   5 1010.17 236.247  13
  -9   5   4 644.900 303.671   9
   9   5  -4 80.3159 346.193   2
  -9   5   4 305.121 198.033  13
  -9   5   3 416.403 295.883   9
   9   5  -3 169.915 266.993   2
  -9   5   3 311.342 188.654  13
  -9   5   2 135.374 253.493   9
   9   5  -2-48.3055 356.016   2
  -9   5   2 109.438 166.515  13
  -9   5   1 1198.07 339.504   9
   9   5  -1 1807.96 686.442   2
  -9   5   1 1205.70 282.162  13
  -9   5   0 5801.82 659.645   9
   9   5   0 5036.55 1079.45   2
  -9   5   0 6575.15 541.188  13
  -9   5  -1 22250.2 1140.17  12
   9   5   1 20373.9 2362.74   2
  -9   5  -1 22565.6 975.692  13
  -9   5  -2 16850.9 1020.97  12
   9   5   2 16336.7 2244.37   2
  -9   5  -2 17128.3 873.523  13
  -9   5  -3 257.994 256.134  13
  -9   5  -3 450.819 246.739  12
  -9   5  -3 237.876 189.467   7
   9   5   3 424.707 1161.44   2
  -9   5  -4 992.049 320.390  12
  -9   5  -4 1314.20 311.230   7
  -9   5  -5 2076.32 362.446  13
  -9   5  -5 1641.28 401.634  12
  -9   5  -5 2021.83 339.964   7
  -9   5  -6-136.295 223.831  13
  -9   5  -6 465.968 257.914  12
  -9   5  -6 148.750 159.257   7
  -9   5  -7 2480.27 395.583  13
  -9   5  -7 2016.97 398.353  12
  -9   5  -7 2230.20 373.272   7
  -9   5  -8 834.194 245.631  13
  -9   5  -8 1015.07 338.771  12
  -9   5  -8 1012.50 241.618   7
  -9   5  -9 4106.50 545.270  12
  -9   5  -9 4646.94 483.327   7
  -9   5  -9 4070.17 455.305  13
  -9   5 -10 141.592 190.109  13
  -9   5 -10-22.7283 150.734  12
  -9   5 -10 136.367 180.435   7
  -9   5 -11 162.960 176.077  13
  -9   5 -11-84.6009 141.170  12
  -9   5 -11 291.546 200.208   7
  -9   5 -12 2482.31 282.309   7
  -9   5 -12 2366.19 274.429  13
   9   6 -14 648.268 179.121  12
  -9   6  14 692.483 188.035   9
  -9   6  14 751.742 176.368   8
  -9   6  13-19.9209 163.967   9
   9   6 -13-183.034 150.500  16
  -9   6  13 46.8942 121.479   8
  -9   6  12 2523.27 365.952   9
   9   6 -12 2514.13 399.954  16
  -9   6  12 2469.09 337.646   8
  -9   6  11 9224.00 710.635   9
   9   6 -11 10070.5 856.320  16
  -9   6  11 7710.02 652.418   8
  -9   6  10 6948.50 647.647   9
   9   6 -10 7756.85 811.511  16
  -9   6  10 5990.71 582.027   8
  -9   6   9 17492.4 1088.09   9
   9   6  -9 17343.9 1325.88  16
  -9   6   8 1309.28 319.184   9
   9   6  -8 862.243 365.637  16
   9   6  -7 2486.50 524.139  16
  -9   6   6 2884.49 492.240   9
   9   6  -6 2123.62 555.409  16
  -9   6   5 3177.03 544.187   9
   9   6  -5 2885.63 632.763  16
  -9   6   4 1870.87 437.048   9
  -9   6   4 1775.38 325.809  13
  -9   6   3 7698.81 794.114   9
  -9   6   3 8417.65 639.205  13
  -9   6   2 1544.02 440.490   9
  -9   6   2 1814.35 376.353  13
  -9   6   1 9229.01 870.474   9
  -9   6   1 11108.2 729.556  13
  -9   6   0 1480.59 445.563   9
  -9   6   0 1903.53 422.097  13
   9   6   1-149.140 232.433   5
  -9   6  -1 271.127 188.852   9
  -9   6  -1 585.931 261.899  13
  -9   6  -2 1022.30 342.160  12
  -9   6  -2 1214.66 328.216   9
  -9   6  -2 1587.21 301.452  13
  -9   6  -3 28.6302 145.780  12
  -9   6  -3 61.1872 189.021  13
  -9   6  -4 10426.9 812.879  12
  -9   6  -4 10446.8 721.541  13
  -9   6  -5 3197.85 411.044  13
  -9   6  -5 3062.61 462.624  12
  -9   6  -6 2625.00 366.918  13
  -9   6  -6 3130.29 402.332   7
  -9   6  -6 2480.89 447.014  12
  -9   6  -7 1112.75 291.260  13
  -9   6  -7 1033.70 324.312  12
  -9   6  -7 1272.24 270.953   7
  -9   6  -8 2541.53 428.604  12
  -9   6  -8 2390.48 342.888   7
  -9   6  -8 2846.11 402.597  13
  -9   6  -9 493.652 234.883  13
  -9   6  -9 76.0372 159.278  12
  -9   6  -9 352.262 215.924   7
  -9   6 -10 316.129 164.840  13
  -9   6 -10 130.321 169.532  12
  -9   6 -11-223.898 151.479  12
  -9   6 -11 245.773 156.468  13
  -9   7  12 643.973 199.844   9
   9   7 -12 638.760 208.656  16
  -9   7  11 148.860 170.511   9
   9   7 -11 352.127 183.644  16
  -9   7  10 238.887 208.579   9
   9   7 -10 183.838 156.065  16
  -9   7   9 3761.83 449.508   9
   9   7  -9 3647.72 557.408  16
  -9   7   8 1067.06 326.717   9
   9   7  -8 741.763 300.322  16
  -9   7   7 3525.63 503.351   9
   9   7  -7 3046.00 566.106  16
  -9   7   6-189.279 240.406   9
   9   7  -6 45.6712 186.874  16
  -9   7   5 395.322 255.862   9
   9   7  -5 353.769 314.772  16
  -9   7   4 271.415 280.902   9
   9   7  -4 136.944 222.223  16
  -9   7   3 380.771 218.748   9
  -9   7   3 650.883 243.552  13
  -9   7   2 2422.38 468.734   9
  -9   7   2 3366.72 423.404  13
  -9   7   1 531.477 345.990   9
  -9   7   1 898.888 306.880  13
  -9   7   0 391.311 271.018   9
   9   7   0 410.288 230.577   5
  -9   7   0 1026.39 289.921  13
   9   7   1-27.8811 215.849   5
  -9   7  -1 250.110 227.224   9
  -9   7  -1 504.904 270.841  13
   9   7   2 8455.88 739.895   5
  -9   7  -2 8225.95 627.519  13
  -9   7  -3 192.301 168.553  12
  -9   7  -3 220.043 229.438   9
  -9   7  -3 591.732 251.447  13
  -9   7  -4 267.049 193.887  12
  -9   7  -4-16.3147 184.450   9
   9   7   4 47.7367 239.470   5
  -9   7  -4 467.045 229.903  13
  -9   7  -5 5771.36 573.095  12
  -9   7  -5 4300.30 512.348   9
   9   7   5 5170.09 578.818   5
  -9   7  -5 5445.04 488.417  13
  -9   7  -6 271.408 167.503  12
  -9   7  -6 45.4137 162.328   9
  -9   7  -6-213.393 159.554  13
  -9   7  -7 986.986 274.866  12
  -9   7  -7 795.492 250.000   9
  -9   7  -7 1175.45 239.786  13
  -9   7  -8 562.561 219.333  12
  -9   7  -8 1032.19 247.724   9
  -9   7  -8 963.610 226.018  13
  -9   7  -9 216.325 137.021  12
  -9   7  -9 17.2410 135.599   9
  -9   7  -9-33.2104 130.517  13
   9   8 -10 430.857 159.813  12
   9   8 -10 974.220 243.263  16
  -9   8   9 84.1341 136.214   9
   9   8  -9 387.757 186.209  16
  -9   8   8 3005.87 335.035   9
   9   8  -8 2558.65 463.123  16
   9   8  -7-152.349 165.872   6
  -9   8   7 120.322 197.592   9
   9   8  -7 25.4571 222.900  16
  -9   8   6 1139.18 274.572   9
   9   8  -6 912.307 348.978  16
  -9   8   5 457.118 251.641   9
  -9   8   4 368.448 229.448   9
   9   8  -4 268.100 315.215  16
  -9   8   3 1789.61 324.094   9
   9   8  -3 1888.85 507.410  16
  -9   8   2 2777.16 443.392   9
   9   8  -2 2546.17 356.545   5
   9   8  -2 2339.50 548.019  16
   9   8  -1 282.756 219.060   5
  -9   8   1 453.043 298.970  13
  -9   8   0 1136.85 287.987  13
   9   8   1 213.062 209.583   5
  -9   8  -1 464.877 264.125  13
   9   8   2 683.002 240.476   5
  -9   8  -2 112.832 175.250  13
   9   8   3 483.981 242.821   5
  -9   8  -3 628.794 200.617  13
   9   8   4 765.598 278.473   5
  -9   8  -4 812.967 219.616  13
   9   8   5 1172.75 292.522   5
  -9   8  -5 1032.17 235.832  13
  -9   8  -6 2522.75 304.410  13
  -9   8  -7 590.010 165.428  13
   9   9  -6 193.001 159.220  16
   9   9  -6 160.061 121.698   6
   9   9  -5-23.3494 116.507   6
   9   9  -5 197.138 169.800  16
   9   9  -4 28.4544 131.161  16
   9   9  -3 2027.49 373.533  16
   9   9  -2 5209.53 433.493   5
   9   9  -2 4430.70 557.702  16
   9   9  -1 6265.12 491.978   5
   9   9  -1 4987.99 629.306  16
   9   9   0 3226.12 348.196   5
   9   9   0 2549.48 423.097  16
   9   9   1 4907.29 387.066   5
   9   9   1 4019.88 522.238  16
   9   9   2-6.00621 122.699   5
   9   9   2-14.9098 144.454  16
   9   9   3 213.719 185.523  16
   9   9   3 215.001 188.330   5
  -9   9  -4 945.036 175.199  13
  10   0 -17-90.8486 129.744  11
 -10   0  17 210.482 126.925   8
  10   0 -16 2884.97 536.156  11
 -10   0  16 3059.11 403.145   8
 -10   0  15-219.276 187.228   8
 -10   0  14 85.1692 214.442   8
 -10   0  13-30.0640 189.432   8
 -10   0  13-477.035 237.431   9
 -10   0  12 23270.9 1153.91   9
 -10   0  12 19376.2 1333.50   8
 -10   0  11 166.789 249.043   8
  10   0 -10 81954.9 4583.10   2
  10   0 -10 83311.6 2525.96  14
 -10   0  10 81974.7 2762.77   8
  10   0  -9 149.484 442.212   2
  10   0  -9 25.0744 221.263  14
  10   0  -8 640.542 537.967   2
 -10   0   8 235.345 248.290  15
  10   0  -8 103.282 205.535  14
  10   0  -7 481.212 388.536   2
 -10   0   7 58.7206 281.204  15
  10   0  -6 3014.39 801.989   2
  10   0  -5-241.020 315.152   2
  10   0  -4 9803.59 1269.26   2
  10   0  -3-335.867 384.094   2
  10   0  -2-305.166 351.748   2
  10   0  -1-174.322 310.565   2
  10   0   0 3688.19 817.010   2
  10   0   1-190.425 234.811   2
  10   0   2 13259.6 1639.40   2
  10   0   3 2.32634 396.674   2
  10   0   4 4282.75 446.515  14
  10   0   4 5174.07 1174.71   2
  10   0   5 156.592 199.081  14
  10   0   5-840.108 640.889   2
  10   0   6 2633.45 963.059   2
 -10   0  -6 2826.54 375.670   7
  10   0   6 2709.34 364.127  14
 -10   0  -7-258.414 181.270   7
  10   0   7 79.0044 167.408  14
 -10   0  -8 8292.14 620.071   7
  10   0   8 9044.09 675.950  14
 -10   0  -9-100.259 171.207   7
  10   0   9 376.629 207.703  14
  10   0  10 8791.88 642.798  14
  10   0  11 55.7259 146.831  14
  10   0  12 781.708 226.574  14
  10   0  13-128.975 120.312  14
  10   0  14 1285.66 195.584  14
  10   1 -17 132.715 133.913  11
  10  -1 -17-305.150 194.798  11
 -10   1  17 69.2982 134.480   8
  10   1 -16 850.126 291.789  11
 -10   1  16 1142.19 265.927   8
 -10  -1  15 968.935 229.887   8
 -10   1  15 835.727 236.226   8
 -10  -1  14 5577.96 614.925   8
 -10   1  14 6686.16 704.155   8
 -10   1  13 764.857 312.480   8
 -10   1  13 1367.77 344.934   9
 -10  -1  13 558.486 259.438   8
 -10  -1  12 538.810 257.155   8
 -10   1  12 434.841 276.613   8
 -10   1  12 905.032 286.373   9
 -10  -1  11 54.0890 225.153   8
 -10   1  11 524.150 377.119   8
 -10   1  11 341.809 209.602   9
  10   1 -11 497.503 321.355  14
 -10  -1  10 57.4773 201.513   8
 -10   1  10 542.120 335.212   8
  10  -1 -10 240.386 406.720   2
  10   1 -10 684.760 499.316   2
 -10   1  10 420.866 285.994   9
  10  -1 -10 341.355 285.151  14
  10   1 -10 533.882 286.029  14
  10  -1  -9 321.576 298.700   2
  10   1  -9 136.667 306.307   2
 -10   1   9-318.677 266.503   9
  10   1  -9-236.206 215.103  14
  10  -1  -8 10532.3 1535.91   2
  10   1  -8 10793.9 1578.33   2
 -10   1   8 11519.7 797.622   9
 -10   1   8 12661.4 923.746  15
  10  -1  -8 10472.2 842.140  14
  10   1  -8 12059.9 903.367  14
  10  -1  -7 1255.23 439.724   2
  10   1  -7 1330.71 580.580   2
 -10  -1   7 1479.92 420.937  15
 -10   1   7 2525.64 501.173  15
  10   1  -7 2048.10 412.595  14
  10  -1  -6 874.816 468.425   2
  10   1  -6 1001.17 513.017   2
  10  -1  -5 975.871 460.302   2
  10   1  -5 1020.33 442.645   2
  10  -1  -4 5310.15 913.888   2
  10   1  -4 4853.62 985.180   2
  10   1  -3 1612.46 566.207   2
  10  -1  -3 1080.28 430.031   2
  10   1  -2 1494.51 564.650   2
  10   1  -1-246.556 373.153   2
  10  -1  -1 95.1458 256.468   2
  10   1   0 719.502 422.118   2
  10  -1   0 869.935 404.580   2
  10   1   1 2341.30 694.151   2
  10  -1   1 2863.02 707.006   2
  10   1   2 1593.30 700.302   2
  10  -1   2 1387.20 506.436   2
  10   1   3 8508.73 1412.03   2
 -10   1  -4 828.275 234.377   7
  10   1   4 1037.28 255.871  14
  10  -1   4 778.449 223.258  14
  10   1   4 1196.25 551.218   2
 -10   1  -5 1126.14 274.467   7
  10  -1   5 1518.05 287.989  14
  10   1   5 1253.45 261.117  14
  10   1   5 1721.89 639.849   2
  10   1   6-109.433 616.042   2
 -10   1  -6-25.4588 166.056   7
  10   1   6 100.242 152.266  14
  10  -1   6-49.5872 155.487  14
 -10   1  -7-168.559 177.459   7
  10   1   7 269.204 184.754  14
  10  -1   7 2.57819 148.891  14
 -10   1  -8 827.041 244.611   7
  10   1   8 1176.05 274.852  14
  10  -1   8 615.501 246.072  14
 -10   1  -9-131.616 197.745   7
  10   1   9-63.6428 149.288  14
  10  -1   9 165.755 198.069  14
 -10   1 -10 4403.55 445.890   7
  10   1  10 5364.68 507.530  14
  10  -1  10 5493.89 510.778  14
 -10   1 -11 69.0484 144.338   7
  10  -1  11 30.8995 157.551  14
  10   1  12 342.984 188.344  14
  10  -1  12 285.886 166.031  14
  10   1  13 851.726 204.201  14
  10  -1  13 736.023 200.719  14
  10   1  14 6704.50 409.249  14
  10  -1  14 6705.61 400.715  14
  10   2 -17 67.3415 125.653  11
  10  -2 -17 17.7822 146.232  11
 -10   2  17-54.0643 105.672   8
  10   2 -16 2096.37 354.105  11
 -10   2  16 2546.87 358.809   8
  10   2 -15 6793.84 724.910  11
 -10   2  15 8183.04 715.095   8
 -10   2  14 9920.30 748.790   9
 -10   2  14 8453.07 788.484   8
 -10   2  13 446.824 293.722   8
 -10   2  13 1003.43 300.006   9
 -10   2  12 4841.07 579.553   9
 -10   2  12 6087.13 740.649   8
 -10   2  11 13215.5 958.526   9
 -10   2  11 11498.1 1029.95   8
 -10   2  10 20580.8 1137.48   9
  10   2 -10 18777.1 1218.12  14
 -10   2  10 18011.7 1387.41   8
  10   2  -9 14273.1 1902.17   2
 -10   2   9 16984.3 1044.04   9
  10   2  -9 17064.0 1160.27  14
 -10   2   9 17171.1 1395.66   8
  10   2  -8 6415.80 1232.21   2
 -10   2   8 5674.48 610.993   9
 -10   2   8 6864.26 784.593  15
  10   2  -8 5889.74 652.190  14
  10   2  -7 978.970 547.162   2
 -10   2   7 922.694 302.929   9
 -10   2   7 1558.68 425.101  15
  10   2  -7 1008.33 317.876  14
  10   2  -6 471.900 421.197   2
 -10  -2   6 38.7559 242.204  15
  10   2  -6 372.281 318.767  14
  10   2  -5 154.567 288.250   2
  10   2  -4 94.0459 236.444   2
  10   2  -3 2843.66 741.734   2
  10   2  -2 12485.8 1548.65   2
  10   2  -1 5049.87 1021.27   2
  10   2   0 371.538 257.121   2
  10   2   1 1527.68 603.908   2
  10   2   2 7117.36 1228.26   2
  10   2   3 5179.58 504.679  14
 -10   2  -3 5199.12 576.460  12
 -10   2  -3 4393.58 435.673   7
  10   2   3 5298.42 1177.90   2
 -10   2  -4 9290.94 770.890  12
 -10   2  -4 8292.42 623.332   7
  10   2   4 9891.80 1722.24   2
  10   2   4 9166.68 650.856  14
  10  -2   4 9102.80 635.805  14
 -10   2  -5 231.057 227.452  12
 -10   2  -5 621.817 237.372   7
  10   2   5 464.028 228.318  14
  10  -2   5 216.345 163.376  14
  10   2   5 868.168 651.248   2
  10   2   6 2351.17 872.572   2
 -10   2  -6 2191.34 493.513  12
 -10   2  -6 2961.81 426.343   7
  10   2   6 2717.39 372.438  14
  10  -2   6 2626.38 365.115  14
 -10   2  -7 1038.77 308.339  12
 -10   2  -7 1155.76 283.113   7
  10   2   7 1444.09 275.684  14
  10  -2   7 1174.57 276.614  14
 -10   2  -8 32010.3 1294.84   7
  10   2   8 33034.0 1229.57  14
  10  -2   8 33934.7 1245.85  14
 -10   2  -9 1995.54 341.346   7
  10   2   9 1969.54 324.978  14
  10  -2   9 2191.38 346.475  14
 -10   2 -10 1619.71 336.052   7
  10   2  10 1911.05 333.054  14
  10  -2  10 1741.19 295.845  14
 -10   2 -11 2063.96 360.864   7
  10   2  11 1652.21 266.065  14
  10  -2  11 2212.38 347.127  14
 -10   2 -12 154.782 151.217   7
  10   2  12 553.644 201.061  14
  10  -2  12 563.843 216.923  14
  10   2  13 25.3185 126.479  14
  10  -2  13-159.902 140.491  14
  10   3 -16 1312.54 228.994  11
  10  -3 -16 1145.83 314.447  11
 -10   3  16 1964.53 310.838   8
  10   3 -15 221.416 194.160  11
 -10   3  15-147.407 170.285   8
  10   3 -14 355.346 211.979  11
 -10   3  14 588.818 236.149   9
 -10   3  14 121.921 204.699   8
  10   3 -13 170.749 176.838  11
 -10   3  13 260.967 233.104   9
 -10   3  13 111.724 199.544   8
 -10   3  12 2815.10 518.899   8
 -10   3  12 2403.77 428.300   9
 -10   3  11 98.9619 211.077   8
 -10   3  11 394.276 279.413   9
 -10   3  10 1160.43 374.696   8
 -10   3  10 1580.17 421.554   9
  10   3 -10 1165.96 390.849  14
 -10   3   9 1316.61 465.150   8
 -10   3   9 1866.49 438.200   9
  10   3  -9 1515.19 365.187  14
  10   3  -8 471.505 335.141   2
 -10   3   8 197.979 217.964   9
  10   3  -8 574.246 314.873  14
 -10   3   7 1218.07 370.326   9
 -10   3   7 1258.08 313.557  15
  10   3  -7 1357.69 348.582  14
 -10   3   6 93.8038 176.758   9
 -10   3   6-136.543 226.856  15
  10   3  -6-139.604 340.641   2
  10   3  -6 58.6823 188.872  14
  10   3  -5 2782.54 839.224   2
 -10   3   5 2268.47 444.607   9
 -10   3   5 2329.51 403.929  15
  10   3  -5 2792.19 449.065  14
 -10   3   4 376.656 171.096   9
  10   3  -4 910.510 296.140  14
 -10   3   3 2969.32 452.319   9
  10   3  -3 2935.74 805.993   2
  10   3  -2 2206.69 683.899   2
  10   3  -1 9140.15 1405.68   2
  10   3   0 911.725 598.566   2
  10   3   1 24200.3 2338.75   2
  10   3   1 25422.0 1066.84  14
 -10   3  -2 8266.73 679.288  12
  10   3   2 8261.75 1494.66   2
  10   3   2 7434.54 593.758  14
 -10   3  -3 36916.0 1526.63  12
 -10   3  -3 33093.1 1232.16   7
  10   3   3 37247.8 3323.26   2
  10   3   3 32780.0 1255.06  14
  10   3   4 11559.4 742.894  14
 -10   3  -4 13094.4 903.552  12
 -10   3  -4 12026.5 749.007   7
 -10   3  -5 384.018 250.862  12
 -10   3  -5 465.850 240.490   7
  10   3   5 398.719 223.169  14
 -10   3  -6 27.5159 170.931  12
 -10   3  -6 202.567 189.135   7
  10   3   6 20.2043 153.938  14
 -10   3  -7 2022.38 428.680  12
 -10   3  -7 2123.74 368.700   7
  10   3   7 1898.08 301.333  14
  10  -3   7 1749.40 281.042  14
 -10   3  -8 1640.39 358.133  12
 -10   3  -8 1674.11 351.711   7
  10   3   8 1790.24 321.520  14
  10  -3   8 1709.51 304.118  14
 -10   3  -9 941.166 319.036  12
 -10   3  -9 1002.05 285.371   7
  10   3   9 1174.14 263.025  14
  10  -3   9 678.542 193.600  14
 -10   3 -10 2832.86 392.584   7
  10   3  10 2623.91 345.034  14
  10  -3  10 2780.27 355.170  14
 -10   3 -11 1227.86 271.088   7
  10   3  11 1151.31 219.955  14
  10  -3  11 1078.89 256.461  14
 -10   3 -12 755.390 227.145   7
  10   3  12 886.067 206.420  14
  10  -3  12 970.385 206.554  14
  10  -3  13 1159.32 231.389  14
  10   3  13 92.6516 129.501  14
 -10   4  15 1215.07 276.332   9
 -10   4  15 1359.68 284.967   8
 -10   4  14 483.135 246.765   9
 -10   4  14 304.362 163.111   8
 -10   4  13 850.288 300.152   9
 -10   4  13 859.271 332.879   8
 -10   4  12 5290.13 612.560   9
 -10   4  12 5637.87 638.390   8
 -10   4  11 11319.4 873.504   9
 -10   4  11 10329.2 925.089   8
 -10   4  10-120.887 265.230   8
 -10   4  10 183.202 296.796   9
 -10   4   9 1581.92 483.201   8
 -10   4   9 1537.67 358.505   9
  10   4  -9 1548.05 362.063  14
 -10   4   8 602.347 421.191   8
 -10   4   8 641.709 261.874   9
  10   4  -8 728.766 342.823  16
 -10   4   7 1020.89 490.406   8
 -10   4   7 789.776 279.936   9
  10   4  -7 700.206 333.497  16
  10   4  -7 790.689 323.675  14
 -10   4   6-278.648 270.413   9
  10   4  -6-509.424 578.933   2
  10   4  -6 206.983 227.320  16
  10   4  -6 223.963 246.644  14
 -10   4   5-7.36264 213.592   9
  10   4  -5 391.734 447.876   2
  10   4  -5 210.773 249.581  14
 -10   4   4-58.2592 209.191   9
  10   4  -4 89.0696 291.928   2
 -10   4   3 115.031 267.164   9
  10   4  -3 342.800 402.299   2
  10   4  -3 3.97179 205.279  14
  10   4  -2 8811.67 1456.43   2
 -10   4   2 7987.04 765.770   9
  10   4  -2 8644.67 684.299  14
 -10   4   2 8765.39 589.279  13
 -10   4   1 1882.96 457.217   9
  10   4  -1 1777.48 371.433  14
 -10   4   1 2129.87 405.978  13
  10   4   0 309.970 417.411   2
  10   4   0-5.83888 192.273  14
 -10   4   0 572.041 268.660  13
  10   4   1 6792.24 1320.14   2
  10   4   1 6136.05 589.590  14
 -10   4  -1 6839.63 515.732  13
 -10   4  -2 46009.3 1700.89  12
  10   4   2 43698.8 3561.69   2
  10   4   2 41381.1 1406.99  14
 -10   4  -2 46157.6 1399.19  13
 -10   4  -3 1129.76 294.990  13
 -10   4  -3 1159.17 314.627  12
  10   4   3 1017.91 254.861  14
  10   4   3 1673.90 695.883   2
 -10   4  -4 450.477 263.007  13
 -10   4  -4 405.058 248.175  12
 -10   4  -4 599.869 252.709   7
  10   4   4-126.521 160.956  14
 -10   4  -5 1702.66 356.899  13
 -10   4  -5 1533.62 361.378  12
 -10   4  -5 1957.74 375.145   7
  10   4   5 1671.95 327.902  14
 -10   4  -6 7106.98 727.565  12
 -10   4  -6 7079.81 609.850   7
  10   4   6 5900.12 513.458  14
 -10   4  -7 5423.58 646.718  12
 -10   4  -7 5882.77 584.038   7
  10   4   7 4435.19 437.340  14
 -10   4  -8 9872.47 830.565  12
 -10   4  -8 9963.90 711.102   7
  10   4   8 7729.61 572.598  14
 -10   4  -9 3361.34 422.038   7
 -10   4  -9 2568.13 445.207  12
 -10   4 -10 451.711 215.406  12
 -10   4 -10 226.703 185.007   7
 -10   4 -11 597.322 233.725  13
 -10   4 -11 631.889 222.970   7
 -10   4 -12-114.103 143.375  13
 -10   5  14 891.917 206.632   9
 -10   5  14 1082.22 223.220   8
 -10   5  13 413.183 207.761   9
 -10   5  13 333.930 188.173   8
 -10   5  12 129.080 221.743   9
  10   5 -12 492.931 235.026  16
 -10   5  12 412.550 231.672   8
 -10   5  11 244.226 216.452   9
  10   5 -11 463.064 228.272  16
 -10   5  11 357.156 258.656   8
 -10   5  10 5293.08 633.772   9
  10   5 -10 5589.74 706.893  16
 -10   5  10 4555.39 619.506   8
 -10   5   9 1023.74 389.283   8
 -10   5   9 1725.51 405.016   9
  10   5  -9 1659.15 436.222  16
 -10   5   8 3171.83 493.744   8
 -10   5   8 3826.93 577.466   9
  10   5  -8 3638.59 616.768  16
  10   5  -8 3099.07 483.831  14
 -10   5   7-97.3818 229.979   9
  10   5  -7 246.945 282.286  16
  10   5  -7 184.055 226.129  14
 -10   5   6 605.960 330.813   8
 -10   5   6 665.720 352.934   9
  10   5  -6 522.293 245.760  16
  10   5  -6 556.013 259.245  14
 -10   5   5 1304.99 302.417   9
  10   5  -5 1685.71 334.733  14
 -10   5   5 1326.34 253.850  13
 -10   5   4 3796.06 560.385   9
  10   5  -4 3517.43 493.754  14
 -10   5   4 3506.42 399.339  13
  10   5  -3 9567.73 1674.23   2
 -10   5   3 12099.0 929.896   9
 -10   5   3 11406.7 711.555  13
 -10   5   2 2090.93 532.762   9
  10   5  -2 1054.56 707.128   2
 -10   5   2 2547.19 455.596  13
 -10   5   1 948.442 373.635   9
  10   5  -1 293.357 773.372   2
 -10   5   1 1322.04 359.871  13
 -10   5   0 13522.5 1001.97   9
 -10   5   0 13195.0 768.383  13
 -10   5  -1 30923.6 1483.07   9
 -10   5  -1 30616.3 1176.72  13
 -10   5  -2 8037.26 716.753  12
 -10   5  -2 8083.90 607.422  13
 -10   5  -3 420.564 205.348  13
 -10   5  -3 275.463 206.031  12
 -10   5  -4 2452.72 373.484  13
 -10   5  -4 2454.62 452.218  12
 -10   5  -5 1371.21 333.114  13
 -10   5  -5 870.743 317.489  12
 -10   5  -6 2639.37 419.206  13
 -10   5  -6 2121.09 428.216  12
 -10   5  -6 2010.66 347.553   7
 -10   5  -7 3283.39 498.594  12
 -10   5  -7 3470.03 442.441   7
 -10   5  -7 3357.69 438.275  13
 -10   5  -8 833.503 278.888  13
 -10   5  -8 543.071 239.126  12
 -10   5  -8 764.225 253.764   7
 -10   5  -9 34.7450 180.583  13
 -10   5  -9 99.7525 150.562  12
 -10   5  -9 201.740 196.591   7
 -10   5 -11 250.448 159.687  13
 -10   6  13 1630.41 304.567   9
  10   6 -13 1243.85 233.439  16
 -10   6  13 1423.73 225.136   8
 -10   6  12-5.06517 197.212   9
  10   6 -12 32.7186 136.111  16
 -10   6  12 250.795 170.907   8
 -10   6  11 8563.29 685.062   9
  10   6 -11 9070.20 756.181  16
 -10   6  11 8265.08 612.301   8
 -10   6  10 1801.66 452.149   9
  10   6 -10 1533.69 361.883  16
 -10   6  10 1064.68 333.558   8
 -10   6   9 2112.27 444.385   9
  10   6  -9 2108.95 444.208  16
 -10   6   8 74.6200 248.720   9
  10   6  -8 102.912 213.042  16
 -10   6   6-35.4208 210.367   9
  10   6  -6 137.531 187.780  16
 -10   6   5 767.940 269.635   9
  10   6  -5 826.828 353.914  16
 -10   6   4 2374.82 488.510   9
 -10   6   4 2989.71 405.168  13
 -10   6   3 143.951 245.179   9
 -10   6   3-186.363 176.286  13
 -10   6   2 2299.37 500.749   9
 -10   6   2 2661.54 387.406  13
 -10   6   1 360.685 336.983   9
 -10   6   1 163.140 235.769  13
 -10   6   0 4486.09 610.467   9
 -10   6   0 5128.41 511.169  13
 -10   6  -1 213.952 234.236   9
 -10   6  -1 534.893 291.291  13
 -10   6  -2 8038.03 785.963   9
 -10   6  -2 9010.96 670.927  13
 -10   6  -3 8408.74 724.834  12
 -10   6  -3 8736.87 774.004   9
 -10   6  -3 9017.04 659.983  13
 -10   6  -4 4133.70 513.311  12
 -10   6  -4 4479.46 557.022   9
 -10   6  -4 4319.29 477.466  13
 -10   6  -5 3834.31 504.313  12
 -10   6  -5 3970.83 435.709  13
 -10   6  -6 447.617 210.174  13
 -10   6  -6 259.553 207.775  12
 -10   6  -7 605.338 180.823  13
 -10   6  -7 1006.46 302.079  12
 -10   6  -8 668.999 207.576  13
 -10   6  -8 595.462 224.189  12
 -10   6  -9 140.353 135.167  13
 -10   6 -10 1022.58 188.834  13
 -10   7  11 12036.1 637.515   9
  10   7 -11 12728.3 770.493  16
 -10   7  10 14527.9 779.431   9
  10   7 -10 14855.5 924.663  16
 -10   7   9 4334.29 476.404   9
  10   7  -9 4619.24 587.995  16
 -10   7   8-74.8860 179.054   9
  10   7  -8 169.559 197.006  16
 -10   7   7 2640.96 408.486   9
  10   7  -7 3124.99 550.214  16
 -10   7   6-156.571 226.788   9
  10   7  -6-226.584 164.457  16
 -10   7   5 4400.04 535.368   9
  10   7  -5 4347.19 708.742  16
 -10   7   4 988.155 260.074   9
  10   7  -4 1130.34 415.056  16
 -10   7   3 2114.86 417.235   9
 -10   7   3 1775.16 311.213  13
 -10   7   2 289.345 315.745   9
 -10   7   2 621.279 310.301  13
 -10   7   1 7877.24 743.080   9
 -10   7   1 8494.43 639.428  13
 -10   7   0-78.4451 275.452   9
 -10   7   0 487.773 331.858  13
 -10   7  -1-276.875 193.407   9
 -10   7  -1 278.073 215.076  13
  10   7   2 707.201 248.286   5
 -10   7  -2 681.298 306.074   9
 -10   7  -2 584.610 245.307  13
  10   7   3 155.909 202.491   5
 -10   7  -3 756.353 299.442   9
 -10   7  -3 798.421 254.395  13
  10   7   4 846.282 243.616   5
 -10   7  -4 1153.69 294.002   9
 -10   7  -4 1460.42 306.984  13
 -10   7  -5 662.734 224.276   9
 -10   7  -5 1173.13 265.619  13
  10   7   6 8.20054 195.484   5
 -10   7  -6-211.676 163.319  13
  10   7   7 305.170 170.439   5
 -10   7  -7 211.598 142.851   9
 -10   7  -7 587.420 182.952  13
  10   7   8 1381.20 302.213   5
 -10   7  -8 1408.60 249.101   9
 -10   7  -8 1365.78 213.268  13
 -10   8   9 1188.15 214.281   9
  10   8  -9 1339.15 297.746  16
 -10   8   8 88.2533 146.675   9
  10   8  -8 603.189 243.733  16
 -10   8   7 509.641 192.558   9
  10   8  -7 596.407 244.584  16
  10   8  -6 1506.48 299.149   6
 -10   8   6 2070.50 327.240   9
  10   8  -6 1488.74 364.068  16
 -10   8   5 361.346 179.866   9
  10   8  -5 555.150 267.970  16
  10   8  -4 160.280 246.936  16
 -10   8   4-39.9137 170.083   9
 -10   8   3 1066.63 257.102   9
  10   8  -3 1460.07 399.788  16
 -10   8   2 423.594 231.690   9
  10   8  -2 352.481 219.599  16
 -10   8   1 263.845 243.935   9
 -10   8   0 4464.95 465.060   9
 -10   8   0 5002.98 458.827  13
 -10   8  -1-107.117 148.542   9
 -10   8  -1-104.879 200.651  13
  10   8   2 1718.12 267.681   5
 -10   8  -2 2071.87 320.460   9
 -10   8  -2 1896.44 300.975  13
  10   8   3 198.992 175.474   5
 -10   8  -3 290.184 171.391  13
  10   8   4 139.261 165.227   5
 -10   8  -4 181.321 143.030  13
  10   8   5 76.9108 130.978   5
 -10   8  -5 20.4233 137.108  13
  10   8   6-8.63297 121.116   5
 -10   8  -6 269.382 136.924  13
  10   9  -4 3383.56 421.812  16
  10   9  -3 312.479 176.773  16
  10   9  -1 162.072 188.177  16
  10   9   0 1715.62 306.658  16
  10   9   1 1425.71 285.583  16
  11   0 -16 933.952 299.586  11
 -11   0  16 948.640 220.744   8
 -11   0  15-29.4570 172.767   8
 -11   0  14 5186.24 626.133   8
 -11   0  13 68.0141 210.671   8
 -11   0  12 293.735 315.807   8
  11   0 -10 14488.6 1088.92  14
  11   0  -9 230.767 520.855   2
  11   0  -9 176.463 247.744  14
  11   0  -8 617.099 536.920   2
 -11   0   8 319.844 350.566  15
  11   0  -8 58.9798 211.554  14
  11   0  -7-41.8777 281.206   2
 -11   0   7-6.76778 285.264  15
  11   0  -7 9.04930 238.932  14
 -11   0   6 48.4264 215.458  15
  11   0  -6 114.209 241.140   2
  11   0  -6 225.671 228.915  14
  11   0  -5 424.296 471.994   2
 -11   0   5-131.618 202.131  15
  11   0  -5-246.666 216.167  14
  11   0  -4 5123.96 998.462   2
  11   0  -3 190.842 293.719   2
  11   0  -2 117.131 286.452   2
  11   0  -1 86.5429 250.848   2
  11   0   0 9579.00 1297.80   2
  11   0   1 374.442 380.962   2
  11   0   1 490.028 234.187  14
  11   0   2 1090.34 448.408   2
  11   0   2 2065.44 352.052  14
  11   0   3-161.858 153.040  14
  11   0   3-793.945 672.241   2
  11   0   4 8814.66 1583.44   2
  11   0   4 9272.61 679.327  14
  11   0   5-267.831 168.968  14
  11   0   6 1520.54 296.404  14
  11   0   7-23.0417 169.505  14
  11   0   8-114.063 167.980  14
  11   0   9 49.3177 185.657  14
  11   0  10 273.643 168.213  14
  11   0  11 358.763 182.808  14
  11   0  12 1221.89 238.417  14
  11   0  13 244.407 136.369  14
  11   1 -16 1719.36 352.412  11
 -11   1  16 1633.80 272.309   8
 -11  -1  15 7292.40 555.730   8
 -11   1  15 8481.75 673.134   8
 -11   1  14 3990.87 466.155   9
 -11  -1  14 2592.09 410.827   8
 -11   1  14 3241.93 486.756   8
 -11   1  13 1071.39 325.987   8
 -11   1  13 1457.32 314.689   9
 -11  -1  13 851.149 267.132   8
 -11  -1  12 2043.17 427.672   8
 -11   1  12 2376.66 528.899   8
 -11   1  12 2855.65 434.017   9
 -11  -1  11 2893.43 533.931   8
 -11   1  11 3411.00 507.653   9
  11   1 -11 4161.19 619.987  14
 -11  -1  10 1792.91 475.876   8
 -11   1  10 1792.49 452.764   8
 -11   1  10 1992.31 385.651   9
  11  -1 -10 1945.06 430.818  14
  11   1 -10 2480.52 504.518  14
 -11   1   9 10699.5 810.868   9
  11  -1  -9 9370.10 842.334  14
  11   1  -9 10696.3 941.967  14
 -11   1   8 17477.8 1124.75  15
  11  -1  -8 13322.1 1755.33   2
  11   1  -8 16036.1 1948.58   2
 -11   1   8 16847.4 971.705   9
  11  -1  -8 15823.4 1100.48  14
  11   1  -8 17023.5 1116.87  14
  11  -1  -7 174.402 258.869   2
  11   1  -7 863.604 545.199   2
 -11  -1   7 386.605 242.733  15
 -11   1   7 449.549 290.752  15
  11   1  -7 617.285 294.521  14
  11   1  -6 309.067 312.197   2
 -11   1   6 625.168 233.991   9
 -11  -1   6 541.482 214.966  15
 -11   1   6 470.846 318.615  15
  11  -1  -6 528.366 324.259  14
  11   1  -6 835.122 324.395  14
  11  -1  -5 504.615 332.366   2
  11   1  -5 680.431 484.116   2
 -11  -1   5 341.268 334.053  15
 -11   1   5 177.889 200.096  15
  11   1  -5-143.297 198.643  14
  11   1  -4 35.0195 300.013   2
  11  -1  -4 338.746 320.481   2
  11   1  -4 97.8342 232.627  14
  11  -1  -3 973.498 419.827   2
  11   1  -3 1027.49 525.797   2
  11   1  -2 751.665 423.722   2
  11  -1  -2 601.615 322.503   2
  11   1  -1 5609.86 1065.25   2
  11   1   0 5723.52 557.138  14
  11   1   0 5175.33 1014.80   2
  11   1   1 583.175 496.227   2
  11   1   1 298.740 205.757  14
  11   1   2 4912.68 506.022  14
  11  -1   2 4279.33 455.746  14
  11   1   2 4278.29 980.940   2
  11  -1   3 7668.99 622.565  14
  11   1   3 7405.29 1467.16   2
  11   1   3 8148.98 631.920  14
  11   1   4 1797.25 332.833  14
  11  -1   4 1669.36 336.902  14
  11   1   5 436.307 211.501  14
  11  -1   5 450.603 210.492  14
  11   1   6 113.704 156.846  14
  11  -1   6 231.579 176.670  14
  11   1   7 1265.10 317.446  14
  11  -1   7 1070.01 252.979  14
  11   1   8 3378.62 431.546  14
  11  -1   8 3716.88 446.769  14
  11   1   9 600.814 211.119  14
  11  -1   9 251.484 156.636  14
  11   1  10 319.432 170.418  14
  11  -1  10-72.7931 168.598  14
  11   1  11 381.328 181.750  14
  11  -1  11 743.822 219.651  14
  11   1  12 1763.67 270.389  14
  11  -1  12 1604.78 258.393  14
  11   1  13 1413.20 248.694  14
  11  -1  13 696.863 192.843  14
  11   2 -16 720.552 209.648  11
 -11   2  16 892.315 241.221   8
  11   2 -15 2986.67 438.676  11
 -11   2  15 3009.17 445.924   8
 -11   2  14 517.125 248.277   9
 -11   2  14-200.130 225.266   8
 -11   2  13-109.604 259.675   8
 -11   2  13-402.910 255.146   9
 -11   2  12 985.052 350.036   8
 -11   2  12 1580.85 356.334   9
 -11   2  11 548.195 432.606   8
 -11   2  11 43.2366 242.907   9
  11   2 -11 372.208 306.853  14
 -11   2  10 982.673 454.424   8
 -11   2  10 374.387 289.365   9
  11   2 -10 550.037 300.917  14
 -11  -2   9-141.035 321.657   8
 -11   2   9 57.0510 219.971   9
 -11   2   9 322.686 302.332  15
  11   2  -9 441.813 295.129  14
 -11   2   8 3452.94 532.259   9
  11   2  -8 2619.90 782.876   2
 -11   2   8 3458.94 549.613  15
  11   2  -8 3147.08 480.582  14
 -11   2   7 537.514 263.567   9
 -11   2   7 1376.60 411.751  15
  11   2  -7 1270.56 390.667  14
  11   2  -6 1008.93 577.874   2
 -11   2   6 686.184 292.653   9
 -11  -2   6 580.164 337.844  15
 -11   2   6 275.821 257.561  15
  11   2  -6 895.807 303.985  14
  11   2  -5 417.795 537.826   2
 -11   2   5 425.454 234.540   9
 -11   2   5 498.308 336.484  15
  11   2  -5 328.090 221.030  14
  11   2  -4 975.791 589.048   2
 -11   2   4 308.542 192.091   9
 -11   2   4 1011.17 359.007  15
  11   2  -4 52.4536 167.076  14
  11   2  -3 8997.42 1439.93   2
 -11   2   3 8940.97 708.902   9
  11   2  -3 9962.87 732.573  14
 -11   2   2 4506.51 556.179   9
  11   2  -2 3813.27 942.498   2
  11   2  -2 4201.09 484.949  14
  11   2  -1 12901.6 1696.66   2
 -11   2   1 14747.7 933.441   9
  11   2  -1 13876.1 844.765  14
  11   2   0 6542.40 1249.54   2
  11   2   0 7026.05 606.582  14
  11   2   1 871.112 452.844   2
  11   2   1 917.609 278.988  14
  11   2   2 15804.7 2034.37   2
  11   2   2 16056.6 887.394  14
  11  -2   2 16341.6 875.430  14
  11   2   3 9307.34 1738.28   2
  11   2   3 8745.42 658.539  14
  11  -2   3 8300.73 635.791  14
  11   2   4 1531.44 318.324  14
  11  -2   4 1190.48 288.785  14
  11   2   5 76.3935 153.303  14
  11  -2   5 17.3567 165.660  14
 -11   2  -6 7702.93 668.857   7
  11   2   6 8213.18 635.873  14
  11  -2   6 8419.29 640.739  14
 -11   2  -7 674.658 231.884   7
  11   2   7 896.015 259.791  14
  11  -2   7 1071.87 277.550  14
 -11   2  -8 2060.25 352.866   7
  11   2   8 2215.86 343.786  14
  11  -2   8 2520.10 381.678  14
  11   2   9 3526.57 416.601  14
  11  -2   9 3663.31 421.815  14
  11   2  10 373.359 183.981  14
  11  -2  10 916.081 240.648  14
  11   2  11 328.508 202.726  14
  11  -2  11 341.671 189.755  14
  11   2  12 832.494 212.907  14
  11  -2  12 223.555 167.745  14
  11   3 -15 46.8430 104.275  11
 -11   3  15 160.310 149.710   8
  11   3 -14 117.437 149.953  11
 -11   3  14 399.614 217.367   9
 -11   3  14 161.920 216.912   8
  11   3 -13-103.258 146.762  11
 -11   3  13 54.3860 176.632   9
 -11   3  13 54.4867 235.247   8
 -11   3  12 1003.79 377.315   8
 -11   3  12 1278.92 329.757   9
 -11   3  11 1592.91 437.395   8
 -11   3  11 1513.88 372.979   9
 -11   3  10 2545.68 474.901   9
  11   3 -10 2417.96 522.920  14
 -11   3   9 2175.11 552.959   8
 -11   3   9 2499.24 456.631   9
  11   3  -9 2617.67 497.122  14
 -11   3   8 386.466 215.568   9
 -11   3   8 520.166 238.404  15
  11   3  -8 347.887 241.394  14
 -11   3   7 400.179 282.113   9
 -11   3   7 607.355 319.178  15
  11   3  -7 337.036 253.013  14
  11   3  -6 850.738 631.737   2
 -11   3   6 1218.72 424.333  15
  11   3  -6 1810.22 376.874  14
  11   3  -5 606.282 396.715   2
 -11   3   5 1304.01 328.657   9
 -11   3   5 1651.10 411.496  15
  11   3  -5 1652.20 391.487  14
  11   3  -4 10405.2 1569.56   2
 -11   3   4 11750.3 880.096   9
 -11   3   4 12788.7 988.131  15
  11   3  -4 10973.9 815.907  14
 -11   3   3 458.936 214.855   9
  11   3  -3 526.612 297.494  14
 -11   3   2 5267.62 619.017   9
  11   3  -2 4427.41 1043.83   2
  11   3  -2 5177.23 579.219  14
 -11   3   1 5847.68 688.100   9
  11   3  -1 5761.53 571.056  14
  11   3  -1 5082.42 1125.45   2
  11   3   0 4136.29 482.912  14
  11   3   0 4064.89 1037.38   2
  11   3   1 8441.97 1490.90   2
  11   3   1 9477.55 700.406  14
 -11   3  -1 9674.65 636.146  13
 -11   3  -2 2821.34 384.663  13
  11   3   2 3300.22 442.958  14
  11   3   2 3036.58 919.197   2
  11   3   3 8523.77 672.405  14
  11   3   3 7845.78 1606.71   2
 -11   3  -3 7661.64 605.641  13
  11   3   4 32142.0 1271.61  14
  11   3   5 10773.9 737.890  14
 -11   3  -6 952.813 278.039   7
  11   3   6 816.325 265.701  14
  11  -3   6 925.058 219.701  14
 -11   3  -7 9164.89 717.086   7
  11   3   7 9186.84 658.457  14
  11  -3   7 8645.27 633.589  14
 -11   3  -8 1918.81 386.563   7
  11   3   8 1396.22 297.121  14
  11  -3   8 1134.38 274.017  14
  11   3   9-6.38284 170.957  14
  11  -3   9 170.548 183.685  14
  11   3  10 194.692 190.733  14
  11  -3  10 284.466 194.309  14
  11   3  11 873.846 210.380  14
  11  -3  11 1278.36 251.393  14
 -11   3 -12 1358.40 256.783  13
  11   3  12 1415.67 222.505  14
 -11   4  15 1814.50 286.955   9
 -11   4  15 1051.66 218.007   8
 -11   4  14 839.476 247.909   9
 -11   4  14 900.657 246.149   8
 -11   4  13 2245.18 375.612   9
 -11   4  13 2362.18 400.151   8
 -11   4  12 1290.18 326.573   9
 -11   4  12 1369.21 350.248   8
 -11   4  11 1102.84 524.864   8
 -11   4  11 529.211 327.609   9
 -11   4  10 13644.5 979.083   9
 -11   4  10 12924.6 1073.62   8
 -11   4   9 1894.29 473.000   8
 -11   4   9 2164.25 486.984   9
  11   4  -9 1707.98 410.015  14
 -11   4   8 98.7841 325.264   8
 -11   4   8 343.119 292.028   9
 -11   4   7-202.099 262.781   8
  11   4  -7 297.800 180.155  16
 -11   4   7 140.971 241.688   9
  11   4  -7 217.901 204.788  14
 -11   4   6 2555.38 472.871   9
  11   4  -6 2538.92 523.914  16
  11   4  -6 2914.57 480.403  14
 -11   4   5 2531.34 476.509   9
 -11   4   5 2455.08 401.575  15
  11   4  -5 3165.83 499.460  14
 -11   4   4 1060.12 363.090   9
  11   4  -4 1491.61 810.192   2
 -11   4   4 1220.64 356.279  15
  11   4  -4 1144.19 313.410  14
 -11   4   3 4935.18 639.529   9
  11   4  -3 4343.53 1043.22   2
  11   4  -3 4913.44 561.167  14
 -11   4   3 5358.09 460.159  13
  11   4  -2 157.410 379.325   2
 -11   4   2 522.286 354.725   9
  11   4  -2 160.979 257.663  14
 -11   4   2 527.992 302.108  13
 -11   4   1 2954.00 505.278   9
  11   4  -1 2741.04 838.956   2
  11   4  -1 1553.57 242.186  14
 -11   4   1 2801.94 371.093  13
  11   4   0 18122.5 2235.11   2
 -11   4   0 20244.4 1237.39   9
  11   4   0 18942.7 1020.59  14
 -11   4   0 21151.9 927.401  13
  11   4   1 9365.56 690.228  14
 -11   4  -1 10036.4 649.922  13
 -11   4  -2-133.588 198.418  13
  11   4   2-33.7775 162.627  14
 -11   4  -3 1187.92 289.902  13
  11   4   3 1340.36 304.958  14
  11   4   4 3160.04 406.839  14
 -11   4  -4 3832.23 470.595  13
 -11   4  -5 2664.08 477.446  12
  11   4   5 2733.97 369.197  14
 -11   4  -5 3376.62 468.095  13
 -11   4  -6 9518.96 844.103  12
  11   4   6 8136.80 623.915  14
 -11   4  -6 9924.12 714.612  13
 -11   4  -7 2636.46 401.355  13
  11   4   7 1990.57 320.179  14
 -11   4  -8 603.111 221.862  13
  11   4   8 778.165 208.786  14
 -11   4  -9 342.782 196.133  13
  11   4   9-219.604 142.660  14
 -11   4 -10 729.642 216.731  13
 -11   4 -11 107.244 140.085  13
 -11   5  14 3239.92 356.082   9
 -11   5  14 2799.45 314.006   8
 -11   5  13-73.7878 154.470   9
 -11   5  13 312.389 193.616   8
 -11   5  12 350.938 223.913   9
 -11   5  12 436.747 198.823   8
 -11   5  11 1875.00 370.118   9
 -11   5  11 1227.73 328.511   8
 -11   5  10 157.633 232.674   8
 -11   5  10-243.812 242.236   9
  11   5 -10-157.687 149.379  16
 -11   5   9 1437.50 392.598   8
 -11   5   9 1397.83 375.901   9
  11   5  -9 1137.36 329.023  16
 -11   5   8 342.872 191.254   8
 -11   5   8 902.384 314.226   9
  11   5  -8 656.180 297.411  16
  11   5  -8 572.894 259.659  14
 -11   5   7 304.861 267.885   9
  11   5  -7 358.692 224.279  16
  11   5  -7 207.805 230.951  14
 -11   5   6 1393.12 459.269   8
 -11   5   6 1274.09 422.224   9
  11   5  -6 1347.26 396.249  16
  11   5  -6 1119.20 326.404  14
 -11   5   5 781.444 385.591   8
  11   5  -5 788.173 308.400  14
 -11   5   4 1898.22 433.999   9
  11   5  -4 1170.79 328.692  14
 -11   5   4 1595.74 255.430  13
 -11   5   3 18715.8 1193.26   9
  11   5  -3 16229.5 991.329  14
 -11   5   3 17661.4 868.658  13
 -11   5   2 1138.89 566.250   9
  11   5  -2 511.904 377.482  14
 -11   5   2 1255.13 457.580  13
 -11   5   1 2034.58 435.263   9
 -11   5   1 2080.93 324.424  13
 -11   5   0-41.5910 235.751   9
 -11   5   0 463.541 247.044  13
 -11   5  -1-13.6857 202.276   9
 -11   5  -1 394.572 229.424  13
 -11   5  -2-77.1157 234.418   9
 -11   5  -2-238.806 208.044  13
 -11   5  -3 11356.9 724.885  13
 -11   5  -4 28204.0 1130.54  13
 -11   5  -5 1980.68 289.285  13
 -11   5  -6 1108.72 299.405  13
 -11   5  -7 319.952 226.171  13
 -11   5  -8 644.502 240.217  13
 -11   5  -9 1424.22 269.670  13
 -11   5 -10-51.0879 123.307  13
 -11   6  12 262.560 200.112   9
 -11   6  12 461.655 175.219   8
 -11   6  11 2609.71 375.016   9
  11   6 -11 2373.38 352.139  16
 -11   6  11 2455.39 329.895   8
 -11   6  10 3510.52 493.136   9
  11   6 -10 3021.08 438.329  16
 -11   6  10 2811.18 401.322   8
 -11   6   9 1538.44 361.514   9
  11   6  -9 1769.31 381.858  16
 -11   6   8 463.593 275.969   9
  11   6  -8 392.796 229.039  16
 -11   6   7-62.7116 221.812   9
  11   6  -7-146.130 226.826  16
 -11   6   6 658.083 307.057   9
  11   6  -6 530.217 307.911  16
 -11   6   5 928.613 363.731   9
  11   6  -5 675.672 325.460  16
 -11   6   3 219.589 237.862   9
 -11   6   3 481.602 272.998  13
 -11   6   2 1453.21 361.109   9
 -11   6   2 1517.01 313.017  13
 -11   6   1 347.924 295.249   9
 -11   6   1 246.946 255.363  13
 -11   6   0 4111.67 570.870   9
 -11   6   0 4456.04 478.833  13
 -11   6  -1 2354.80 461.219   9
 -11   6  -1 2403.59 373.757  13
 -11   6  -2 922.669 276.927   9
 -11   6  -2 1220.26 319.593  13
 -11   6  -3 222.128 367.050   9
 -11   6  -3 213.103 202.843  13
 -11   6  -4 1751.82 339.256   9
 -11   6  -4 1536.30 295.552  13
 -11   6  -5 1016.91 340.113   9
 -11   6  -5 878.993 266.625  13
 -11   6  -6 108.434 166.849   9
 -11   6  -6 315.019 205.400  13
 -11   6  -7 14.6221 160.392   9
 -11   6  -7 374.637 183.480  13
 -11   6  -8 2726.68 373.102   9
 -11   6  -8 2285.79 283.417  13
 -11   6  -9 366.073 184.438   9
  11   6   9 254.467 182.894   5
 -11   6  -9-24.6835 122.311  13
 -11   7  10 428.133 279.855   9
  11   7 -10 42.4415 119.200  16
 -11   7   9 1713.14 320.524   9
  11   7  -9 1412.42 302.019  16
 -11   7   8 727.517 233.679   9
  11   7  -8 811.020 284.530  16
 -11   7   7 707.758 287.600   9
  11   7  -7 719.880 264.416  16
 -11   7   6 1748.71 365.227   9
  11   7  -6 971.619 329.598  16
 -11   7   5 1065.69 299.811   9
  11   7  -5 974.260 341.056  16
 -11   7   4 2472.39 430.332   9
  11   7  -4 2583.18 534.179  16
 -11   7   3 2784.27 477.144   9
  11   7  -3 2437.24 528.457  16
 -11   7   2 94.3819 242.090   9
 -11   7   2 275.102 267.888  13
 -11   7   1 1484.53 366.897   9
 -11   7   1 1970.24 326.316  13
 -11   7   0 620.143 308.695   9
 -11   7   0 789.447 273.299  13
 -11   7  -1 1128.99 340.613   9
 -11   7  -1 1667.42 320.334  13
 -11   7  -2 295.600 237.645   9
 -11   7  -2 91.4811 192.075  13
 -11   7  -3 701.606 275.010   9
 -11   7  -3 48.4796 169.414  13
 -11   7  -4-258.232 219.936   9
 -11   7  -4-132.985 188.568  13
 -11   7  -5 2979.98 395.514   9
 -11   7  -5 2954.30 348.094  13
 -11   7  -6 659.650 216.407   9
 -11   7  -6 467.434 168.714  13
 -11   7  -7-72.8956 142.799   9
 -11   7  -7 36.7176 114.212  13
 -11   8   8 875.078 172.432   9
  11   8  -8 1010.10 224.751  16
 -11   8   7 1955.60 279.676   9
  11   8  -7 1365.95 271.624  16
 -11   8   6 416.835 176.649   9
  11   8  -6 97.9711 153.323  16
 -11   8   5 614.607 198.950   9
  11   8  -5 583.581 231.205  16
 -11   8   4 3490.70 383.304   9
  11   8  -4 2635.78 464.821  16
  11   8  -3 149.971 222.116  16
 -11   8   2 1122.45 262.065   9
  11   8  -2 1016.05 337.533  16
 -11   8   1 99.7268 193.190   9
  11   8  -1 96.4925 176.958  16
 -11   8   0 1458.04 260.655   9
 -11   8   0 1964.03 298.654  13
 -11   8  -1 372.516 160.727   9
 -11   8  -1 780.232 210.147  13
 -11   8  -2-355.943 187.064   9
 -11   8  -2 285.755 167.456  13
 -11   8  -3 1058.35 231.757   9
 -11   8  -3 1125.46 208.677  13
 -11   8  -4 2009.56 240.321  13
  12   0 -16 357.466 187.157  11
 -12   0  16 401.367 143.362   8
 -12   0  15-62.8673 121.475   8
 -12   0  14 34.1720 146.540   8
 -12   0  13-114.804 212.382   8
 -12   0  12 2058.21 513.275   8
  12   0 -10 5891.39 721.855  14
  12   0  -9-84.6478 241.581  14
 -12   0   8-388.565 338.114  15
  12   0  -8-68.5520 231.722  14
  12   0  -7-197.176 325.089   2
  12   0  -7 474.523 296.628  14
  12   0  -6 4763.10 1079.06   2
 -12   0   6 5338.79 693.386  15
  12   0  -6 4724.12 591.994  14
  12   0  -5-129.439 380.123   2
 -12   0   5 378.702 330.243  15
  12   0  -5-151.807 243.661  14
  12   0  -4 9.79553 410.805   2
 -12   0   4-199.768 266.530  15
  12   0  -4 663.203 286.982  14
  12   0  -3-178.536 440.107   2
 -12   0   3 348.329 251.602  15
  12   0  -3 217.058 249.286  14
 -12   0   2 3324.57 552.805  15
  12   0  -2 2531.63 808.391   2
  12   0  -2 2337.89 369.042  14
  12   0  -1 421.097 375.439   2
  12   0  -1 78.5803 210.190  14
  12   0   0 16673.7 1826.34   2
  12   0   0 21238.0 1079.54  14
  12   0   1-340.656 413.102   2
  12   0   1-499.297 263.977  14
  12   0   2 59728.6 3958.34   2
  12   0   2 65456.6 1864.06  14
  12   0   3-50.2562 190.388  14
  12   0   4 31911.0 1301.40  14
  12   0   5-251.992 203.328  14
  12   0   6 5193.69 538.676  14
  12   0   7 303.271 202.368  14
  12   0   8-15.8753 175.021  14
  12   0   9 13.8763 182.118  14
  12   0  10 370.179 148.795  14
  12   0  11 0.82878 135.842  14
  12   0  12 844.848 194.713  14
  12   1 -16 76.0153 124.260  11
  12  -1 -16 91.2567 137.051  11
 -12   1  16 19.9604 116.041   8
 -12   1  15 3812.43 431.702   8
 -12  -1  14 1555.55 552.602   8
 -12   1  14 438.659 254.841   8
 -12   1  13 248.695 232.273   8
 -12   1  13 475.160 259.875   9
 -12  -1  13 305.420 277.173   8
 -12  -1  12 1795.62 413.034   8
 -12   1  12 2356.05 476.138   8
 -12   1  12 3238.50 451.352   9
 -12  -1  11 500.706 324.062   8
 -12   1  11 323.902 225.690   9
 -12   1  10 12322.9 855.371   9
  12  -1 -10 13181.8 1013.16  14
  12   1 -10 14448.7 1080.82  14
 -12  -1  10 9568.18 997.131   8
 -12   1  10 11028.0 1112.28   8
 -12   1   9 1719.40 359.756   9
  12  -1  -9 2171.30 447.138  14
  12   1  -9 2258.73 488.866  14
 -12   1   8 25984.5 1234.69   9
 -12   1   8 23516.5 1337.33  15
  12  -1  -8 24308.5 1358.06  14
  12   1  -8 26527.7 1409.39  14
 -12   1   7 1852.81 409.259   9
  12   1  -7 2012.32 774.716   2
 -12  -1   7 1159.59 393.418  15
 -12   1   7 1412.05 418.704  15
  12   1  -7 1672.78 409.141  14
 -12   1   6 617.174 301.199   9
  12   1  -6-221.825 497.202   2
 -12   1   6 972.001 513.591  15
  12  -1  -6-219.354 217.976  14
  12   1  -6 207.795 263.526  14
 -12   1   5 2326.05 390.825   9
  12   1  -5 2137.36 743.143   2
 -12  -1   5 2572.66 490.443  15
 -12   1   5 1949.48 433.570  15
  12  -1  -5 2246.61 442.348  14
  12   1  -5 2688.17 445.928  14
 -12   1   4 4608.44 544.758   9
  12   1  -4 2848.55 805.033   2
 -12   1   4 4380.41 603.369  15
 -12  -1   4 3699.66 513.716  15
  12  -1  -4 3563.95 502.714  14
  12   1  -4 3687.18 512.817  14
  12   1  -3 573.953 476.459   2
 -12  -1   3 817.032 316.212  15
 -12   1   3 645.598 288.508  15
  12  -1  -3 711.816 291.231  14
  12   1  -3 264.344 168.049  14
 -12  -1   2 415.000 330.274  15
  12   1  -2 303.319 429.817   2
  12  -1  -2 448.251 277.707  14
  12   1  -2 314.399 217.452  14
 -12   1   1 251.219 206.018   9
 -12  -1   1 323.627 263.927  15
  12   1  -1 462.621 231.489  14
  12  -1  -1 457.123 282.256  14
  12   1   0 270.639 470.855   2
  12   1   0 582.113 200.534  14
  12  -1   0 987.431 271.080  14
  12   1   1 8147.59 1375.93   2
  12   1   1 9618.78 729.954  14
  12  -1   1 9124.86 696.981  14
  12   1   2 31604.7 1285.56  14
  12  -1   2 30009.7 1263.49  14
  12   1   3 61.6503 191.481  14
  12  -1   3 255.254 224.244  14
  12   1   3 149.437 660.616   2
  12   1   4 14549.5 890.408  14
  12  -1   4 14683.7 887.491  14
  12   1   5 9723.24 728.606  14
  12  -1   5 9879.79 727.073  14
  12   1   6 2772.26 404.769  14
  12  -1   6 2674.74 407.451  14
  12   1   7 5207.19 541.401  14
  12  -1   7 5643.48 543.294  14
  12   1   8 5416.17 531.814  14
  12  -1   8 5458.26 533.493  14
  12   1   9 448.294 214.048  14
  12  -1   9 388.578 185.364  14
  12   1  10 1318.89 265.675  14
  12  -1  10 1136.60 265.424  14
  12   1  11 233.660 184.972  14
  12  -1  11 81.7362 143.376  14
  12   1  12 8895.60 497.912  14
  12  -1  12 9189.89 508.013  14
  12   2 -15 433.215 196.092  11
 -12   2  15 555.818 206.923   8
 -12   2  14-29.1805 173.815   9
 -12   2  14 306.280 199.847   8
 -12   2  13 1961.08 386.326   8
 -12   2  13 2534.31 381.664   9
 -12   2  12 1772.99 458.942   8
 -12   2  12 1991.06 380.858   9
 -12   2  11 4548.47 538.958   9
  12   2 -11 5436.43 692.254  14
 -12   2  11 4071.84 642.042   8
 -12  -2  10 589.347 297.243   8
 -12   2  10 531.969 381.357   8
 -12   2  10 395.134 187.536   9
 -12  -2   9 2329.21 493.944   8
 -12   2   9 2386.30 541.199   8
 -12   2   9 3072.79 480.357   9
  12   2  -9 3431.20 562.086  14
 -12   2   8 209.647 242.531  15
  12   2  -8 150.789 217.635  14
 -12   2   7 2659.92 457.639   9
 -12   2   7 3243.73 574.941  15
  12   2  -7 3243.93 512.875  14
 -12   2   6 1770.90 405.781   9
 -12  -2   6 1595.47 450.072  15
 -12   2   6 2129.35 442.111  15
  12   2  -6 2461.95 471.905  14
 -12   2   5 439.675 276.131   9
  12   2  -5 599.673 464.479   2
 -12  -2   5 394.433 340.416  15
 -12   2   5 701.379 360.781  15
 -12   2   4 394.895 227.424   9
  12   2  -4 363.746 537.450   2
 -12  -2   4 39.3867 238.566  15
 -12   2   4 744.070 336.937  15
  12   2  -4 539.624 286.232  14
 -12   2   3 3398.89 488.510   9
 -12   2   3 4204.85 609.250  15
 -12  -2   3 3781.40 558.405  15
  12   2  -3 3683.84 1053.67   2
  12   2  -3 3810.09 504.744  14
 -12   2   2 330.921 249.114   9
  12   2  -2 220.861 386.599   2
  12   2  -2 524.948 290.219  14
 -12   2   1-691.287 310.213   9
  12   2  -1-153.214 311.531   2
  12   2  -1-773.753 320.769  14
 -12   2   0 34276.0 1461.21   9
  12   2   0 31951.4 1346.27  14
  12   2   1 9875.76 1631.69   2
  12   2   1 11431.5 854.803  14
  12  -2   1 9939.43 700.557  14
  12   2   2 11252.2 1842.01   2
  12   2   2 13991.5 870.816  14
  12  -2   2 12746.7 824.215  14
 -12   2  -3 2857.12 394.870  13
  12   2   3 3523.84 469.892  14
  12  -2   3 2915.73 405.806  14
  12   2   4 9894.25 751.499  14
  12  -2   4 9011.97 687.369  14
  12   2   5 378.142 245.023  14
  12  -2   5 264.301 212.632  14
  12   2   6 297.443 217.228  14
  12  -2   6 172.460 180.085  14
  12   2   7 2137.37 347.347  14
  12  -2   7 2052.61 345.700  14
  12   2   8 2395.14 363.575  14
  12  -2   8 2300.65 354.878  14
  12   2   9 440.576 208.614  14
  12  -2   9 214.686 205.345  14
  12   2  10 190.538 173.715  14
  12  -2  10 32.5735 142.122  14
  12   2  11 3505.92 351.026  14
  12  -2  11 3801.52 362.568  14
 -12   2 -12 886.054 224.204  13
  12  -2  12 337.621 161.729  14
 -12   3  15 175.545 143.148   8
 -12   3  14 918.643 267.561   9
 -12   3  14 397.131 214.079   8
 -12   3  13 3385.19 448.034   9
 -12   3  13 2429.37 447.630   8
 -12   3  12 247.773 242.579   8
 -12   3  12 93.8734 200.341   9
 -12   3  11-113.999 226.599   8
 -12   3  11 274.455 254.013   9
 -12   3  10 5524.03 624.067   9
  12   3 -10 6021.51 719.823  14
 -12   3  10 4408.51 672.035   8
 -12   3   9 1757.29 502.407   8
 -12   3   9 2163.06 427.434   9
  12   3  -9 2090.57 457.094  14
 -12   3   8 1187.63 349.845   9
 -12   3   8 1309.38 348.602  15
  12   3  -8 1430.11 402.299  14
 -12   3   7 23.6681 245.391   9
 -12   3   7 144.086 214.104  15
  12   3  -7 188.158 261.864  14
 -12   3   6 166.809 274.337   9
 -12   3   6 191.713 307.618  15
  12   3  -6 397.158 317.653  14
 -12   3   5 3121.19 450.062   9
 -12   3   5 3048.30 528.648  15
  12   3  -5 3113.02 497.054  14
 -12   3   4 12134.5 893.346   9
 -12   3   4 12223.2 969.546  15
  12   3  -4 12148.2 887.156  14
 -12   3   3 1359.31 374.908   9
  12   3  -3 910.989 577.972   2
  12   3  -3 750.956 338.535  14
 -12   3   2 12072.4 924.888   9
  12   3  -2 11099.8 828.976  14
 -12   3   1 31360.3 1481.64   9
  12   3  -1 28160.0 1285.61  14
 -12   3   0 19812.8 1211.38   9
  12   3   0 17675.0 1016.39  14
 -12   3  -1-93.6311 214.427  13
  12   3   1 694.064 222.184  14
  12   3   2 7198.78 633.574  14
 -12   3  -2 6311.07 540.971  13
 -12   3  -3 1063.89 282.013  13
  12   3   3 1477.17 313.447  14
  12   3   4 3457.62 449.426  14
 -12   3  -4 3635.12 441.430  13
 -12   3  -5-304.720 258.096  13
  12   3   5 230.793 180.185  14
  12   3   6 6880.00 595.356  14
  12  -3   6 6623.47 562.095  14
 -12   3  -6 6542.61 592.787  13
 -12   3  -7 572.576 225.467  13
  12   3   7 275.394 234.495  14
  12  -3   7 350.373 186.176  14
  12   3   8 271.195 173.660  14
  12  -3   8 276.545 191.271  14
 -12   3  -9-59.9575 162.301  13
  12   3   9 346.657 203.422  14
  12  -3   9-206.498 321.496  14
 -12   3 -10 1203.42 273.293  13
  12   3  10 1488.19 252.755  14
  12  -3  10 1488.58 253.331  14
 -12   3 -11 637.159 215.138  13
  12   3  11 492.942 163.604  14
 -12   4  14 17.5321 146.840   9
 -12   4  14-14.4590 129.455   8
 -12   4  13 125.700 160.526   9
 -12   4  13 356.357 225.899   8
 -12   4  12-64.1921 173.308   9
 -12   4  12 335.885 246.044   8
 -12   4  11 367.224 224.742   8
 -12   4  11 197.221 256.484   9
 -12   4  10 1621.36 406.645   8
 -12   4  10 1692.33 384.613   9
 -12   4   9 3558.22 591.572   8
 -12   4   9 4754.62 595.253   9
  12   4  -9 4607.49 596.976  14
 -12   4   8-183.679 298.423   8
 -12   4   7 1411.22 492.124   8
 -12   4   7 1382.45 374.854   9
  12   4  -7 1844.00 414.182  14
 -12   4   6 2606.82 500.527   9
 -12   4   6 2371.26 396.015  15
  12   4  -6 3164.30 509.800  14
 -12   4   5 1708.84 433.947   9
 -12   4   5 1881.14 415.356  15
  12   4  -5 2529.94 456.118  14
 -12   4   4 1776.29 435.921   9
 -12   4   4 2037.41 416.048  15
  12   4  -4 1849.98 368.071  14
 -12   4   3 4758.65 653.051   9
 -12   4   3 7066.11 737.479  15
  12   4  -3 5610.09 615.596  14
 -12   4   3 5693.46 493.772  13
 -12   4   2 344.570 383.900   9
  12   4  -2 478.146 311.090  14
 -12   4   2 963.147 327.908  13
 -12   4   1 2968.90 521.766   9
  12   4  -1 3306.11 440.724  14
 -12   4   1 3598.24 412.516  13
 -12   4   0 2232.31 481.734   9
  12   4   0 2235.60 387.973  14
 -12   4   0 2257.50 352.114  13
 -12   4  -1 481.608 305.471   9
  12   4   1 688.228 273.079  14
 -12   4  -1 790.753 268.045  13
 -12   4  -2 8.93588 163.931  13
  12   4   2-71.4802 196.177  14
  12   4   3 6801.04 608.325  14
 -12   4  -3 7046.13 566.580  13
 -12   4  -4 2006.41 331.441  13
  12   4   4 1707.35 324.859  14
 -12   4  -5 1130.12 304.678  13
  12   4   5 520.491 205.744  14
  12   4   6 1861.26 326.375  14
 -12   4  -7 304.503 199.947  13
  12   4   7 73.6449 173.385  14
 -12   4  -8 717.618 227.661  13
  12   4   8 516.986 167.365  14
  12   4   9 1107.46 213.453  14
 -12   4 -10-230.359 151.697  13
 -12   5  13 407.260 140.157   9
 -12   5  13 352.083 146.524   8
 -12   5  12-214.705 176.204   9
 -12   5  12 249.248 153.988   8
 -12   5  11 285.547 245.624   9
 -12   5  11 237.149 205.229   8
 -12   5  10 393.443 187.204   9
 -12   5  10 100.184 211.909   8
 -12   5   9 147.782 202.930   8
 -12   5   9 690.073 314.872   9
 -12   5   8 2083.44 437.668   8
 -12   5   8 3485.13 544.696   9
  12   5  -8 2913.56 481.553  16
  12   5  -8 3005.31 479.022  14
 -12   5   7 1484.10 379.524   9
  12   5  -7 1088.85 343.772  14
 -12   5   6 696.687 347.074   8
 -12   5   6 1393.35 376.587   9
  12   5  -6 1168.69 378.726  16
  12   5  -6 799.712 236.244  14
 -12   5   5 2059.34 451.952   9
  12   5  -5 1976.19 442.930  16
  12   5  -5 2051.79 405.549  14
 -12   5   4 156.866 245.908   9
  12   5  -4 173.723 219.788  14
 -12   5   4-139.124 160.197  13
 -12   5   3 331.484 275.012   9
 -12   5   3-314.380 251.004  15
 -12   5   3-41.0775 169.318  13
 -12   5   2 4452.82 658.926   9
 -12   5   2 4688.99 573.328  15
  12   5  -2 3389.17 480.098  14
 -12   5   2 4696.47 465.001  13
 -12   5   1 7796.63 824.583   9
  12   5  -1 5684.22 589.378  14
 -12   5   1 7846.66 611.274  13
 -12   5   0 5658.00 696.920   9
  12   5   0 4534.35 524.108  14
 -12   5   0 5515.79 545.488  13
 -12   5  -1 1465.38 328.530   9
  12   5   1 1638.35 313.405  14
 -12   5  -1 1671.31 297.496  13
 -12   5  -2 4202.81 613.022   9
 -12   5  -2 4441.56 469.134  13
 -12   5  -3 4440.48 607.441   9
 -12   5  -3 4644.51 466.488  13
 -12   5  -4 3143.99 510.953   9
 -12   5  -4 3053.55 400.101  13
 -12   5  -5 2644.11 371.422  13
 -12   5  -6 108.780 201.077  13
 -12   5  -7 88.1809 192.089  13
 -12   5  -8 363.679 199.289  13
 -12   5  -9 1293.40 229.674  13
 -12   6  11 140.711 175.138   9
 -12   6  10 449.046 216.350   9
  12   6 -10 54.0238 122.506  16
 -12   6   9 347.036 190.935   9
  12   6  -9 156.367 161.902  16
 -12   6   8 49.3863 211.709   9
  12   6  -8 13.2436 156.637  16
 -12   6   7 496.611 297.459   9
  12   6  -7 487.051 240.883  16
 -12   6   6 383.865 273.640   9
  12   6  -6 411.556 276.724  16
 -12   6   5 916.803 332.126   9
  12   6  -5 529.623 255.436  16
 -12   6   4 162.517 223.154   9
  12   6  -4-310.217 238.031  16
 -12   6   3-214.181 285.457   9
 -12   6   3 48.2681 187.642  13
 -12   6   2 889.488 279.492   9
 -12   6   2 1098.88 277.312  13
 -12   6   1 74.9507 225.157   9
 -12   6   1 526.004 251.614  13
 -12   6   0 2245.97 456.603   9
 -12   6   0 2441.57 371.381  13
 -12   6  -1 235.431 218.221   9
 -12   6  -1 786.142 257.748  13
 -12   6  -2 1219.97 326.151   9
 -12   6  -2 1389.85 300.134  13
 -12   6  -3 3622.75 553.342   9
 -12   6  -3 3685.72 421.620  13
 -12   6  -4 1457.68 318.098   9
 -12   6  -4 1481.51 277.486  13
 -12   6  -5 2132.09 377.861   9
 -12   6  -5 2184.14 304.906  13
 -12   6  -6 783.033 248.739   9
 -12   6  -6 1276.85 244.992  13
 -12   6  -7 763.184 239.678   9
 -12   6  -7 778.320 205.756  13
 -12   6  -8 626.858 196.927   9
 -12   6  -8 608.165 164.348  13
 -12   7   9 275.214 155.760   9
  12   7  -9 390.797 172.302  16
 -12   7   8 5.37396 165.504   9
  12   7  -8-311.114 193.826  16
 -12   7   7 553.551 249.878   9
  12   7  -7 528.820 218.247  16
 -12   7   6 1622.03 344.587   9
  12   7  -6 1205.54 295.648  16
  12   7  -5 4.90497 144.105  16
 -12   7   4-205.674 223.053   9
  12   7  -4 602.669 252.736  16
 -12   7   3 92.9848 183.437   9
  12   7  -3 102.194 169.393  16
 -12   7   2 1426.22 346.140   9
 -12   7   1 488.837 281.607   9
 -12   7   1 635.423 256.654  13
 -12   7   0 73.7559 169.143   9
 -12   7   0 420.939 231.511  13
 -12   7  -1 412.526 234.161   9
 -12   7  -1 592.054 233.940  13
 -12   7  -2 154.708 187.232   9
 -12   7  -2-49.0501 141.382  13
 -12   7  -3 102.868 178.581   9
 -12   7  -3 164.886 191.069  13
 -12   7  -4 1768.12 316.499   9
 -12   7  -4 1757.90 258.234  13
 -12   7  -5 974.547 232.461   9
 -12   7  -5 1064.28 221.632  13
 -12   8   5 1460.84 260.034   9
  12   8  -5 1088.55 255.782  16
 -12   8   4-70.5498 150.306   9
  12   8  -4-158.613 153.722  16
 -12   8   3 634.342 233.438   9
  12   8  -3-18.9674 132.728  16
 -12   8   2 4151.99 425.993   9
  12   8  -2 2553.62 401.165  16
 -12   8   1 3058.00 419.356   9
  12   8  -1 1114.42 299.205  16
 -12   8   0 426.935 210.794   9
  12   8   0-27.3351 166.644  16
 -12   8  -1 4286.61 373.882   9
  12   8   1 2425.37 364.567  16
 -12   8  -2 553.015 175.413   9
 -12   8  -2 603.993 162.012  13
 -13   0  15-2.74366 244.335   8
 -13   0  14 649.286 225.175   8
 -13   0  13-156.506 169.412   8
 -13   0  12 986.163 349.260   8
  13   0 -10 8282.38 803.704  14
 -13   0  10 5845.65 798.370   8
 -13   0   8 4124.31 631.287  15
  13   0  -8 4868.31 635.216  14
 -13   0   7 497.094 359.443  15
  13   0  -7 441.005 325.683  14
 -13   0   6 126.754 241.015  15
  13   0  -6 479.821 255.069  14
 -13   0   5-151.566 303.676  15
  13   0  -5 69.9736 200.068  14
  13   0  -4 725.840 386.631   2
 -13   0   4 1164.05 373.029  15
  13   0  -4 1338.73 333.008  14
 -13   0   3 472.968 355.573  15
  13   0  -3 30.6642 190.481  14
  13   0  -2 320.744 251.887  14
 -13   0   1-54.7491 263.679  15
  13   0  -1-268.423 224.728  14
  13   0   0 12631.5 870.846  14
  13   0   1-16.9711 211.619  14
  13   0   2 9404.92 750.510  14
  13   0   3 32.0244 193.080  14
  13   0   4 2015.52 357.035  14
  13   0   5-72.0672 179.687  14
  13   0   6 1580.07 330.269  14
  13   0   7 132.432 196.189  14
  13   0   8 2160.40 355.912  14
  13   0   9 366.618 188.698  14
  13   0  10 2817.18 342.409  14
  13   0  11-423.314 158.412  14
  13   1 -15 806.417 222.869  11
 -13   1  15 818.729 202.089   8
 -13  -1  14 484.823 201.605   8
 -13   1  14 397.536 222.085   8
 -13   1  13 370.730 250.578   8
 -13  -1  13 269.844 167.258   8
 -13  -1  12 967.917 308.735   8
 -13   1  12 920.340 379.327   8
 -13   1  12 806.615 270.271   9
 -13  -1  11 26.6132 197.642   8
 -13   1  11 2.01639 248.445   8
 -13   1  11 54.3716 195.236   9
 -13  -1  10 1199.61 356.515   8
 -13   1  10 1541.87 434.622   8
 -13   1  10 1620.32 318.323   9
  13  -1 -10 1878.34 407.758  14
  13   1 -10 2770.34 494.431  14
 -13   1   9-300.322 243.223   9
  13  -1  -9 114.349 225.877  14
  13   1  -9 299.826 272.223  14
 -13   1   8 1599.34 358.343   9
 -13   1   8 1596.87 484.089  15
  13  -1  -8 1568.50 378.031  14
  13   1  -8 1847.36 387.142  14
 -13   1   7-82.5893 207.954   9
 -13  -1   7 55.1233 296.475  15
 -13   1   7 92.5283 288.613  15
  13  -1  -7-161.527 260.956  14
  13   1  -7 295.927 306.075  14
 -13   1   6 3548.69 506.716   9
 -13  -1   6 3312.76 557.350  15
 -13   1   6 3362.91 561.250  15
  13  -1  -6 3329.80 532.993  14
  13   1  -6 3461.22 524.727  14
 -13   1   5 133.420 182.099   9
 -13  -1   5 380.676 303.064  15
 -13   1   5-25.9707 333.032  15
  13  -1  -5-26.4219 249.773  14
  13   1  -5 463.682 325.514  14
 -13   1   4-151.122 214.102   9
 -13  -1   4 555.420 346.155  15
  13  -1  -4 89.3310 223.156  14
  13   1  -4-337.510 283.369  14
 -13   1   3 959.701 299.178   9
 -13  -1   3 1353.65 320.863  15
 -13   1   3 1572.72 436.069  15
  13   1  -3 411.280 564.395   2
  13  -1  -3 622.718 281.978  14
  13   1  -3 1008.48 335.278  14
 -13   1   2 4082.92 547.017   9
 -13   1   2 4607.12 626.770  15
  13   1  -2 4016.79 538.318  14
  13  -1  -2 3654.92 496.609  14
 -13   1   1 549.833 195.010   9
 -13  -1   1 388.355 242.598  15
  13   1  -1 929.211 661.856   2
  13  -1  -1 1478.42 358.422  14
  13   1  -1 1092.04 279.607  14
 -13   1   0 21311.6 1146.02   9
 -13  -1   0 22265.3 1265.13  15
  13   1   0 22042.3 1154.38  14
  13  -1   0 21244.3 1131.52  14
 -13   1  -1 132.604 252.105   9
  13   1   1 643.681 240.374  14
  13  -1   1 192.211 263.628  14
  13   1   2 6229.91 620.374  14
  13  -1   2 5753.51 596.886  14
  13   1   3 367.022 213.727  14
  13  -1   3 373.679 189.614  14
  13   1   4 21988.9 1124.86  14
  13  -1   4 23056.9 1132.44  14
  13   1   5 2785.88 417.764  14
  13  -1   5 2603.99 407.062  14
  13   1   6 1955.01 353.950  14
  13  -1   6 1971.73 372.018  14
  13   1   7 215.184 213.862  14
  13  -1   7 435.033 217.563  14
  13   1   8 951.371 258.872  14
  13  -1   8 521.098 231.465  14
  13   1   9 548.568 229.071  14
  13  -1   9 321.210 210.188  14
  13   1  10 153.753 145.199  14
  13  -1  10 330.030 159.842  14
 -13   1 -11 1039.97 232.139  13
  13   1  11 1275.07 207.004  14
  13  -1  11 1352.14 242.864  14
  13   2 -14 0.97210 126.285  11
 -13   2  14 118.633 155.512   9
 -13   2  14 284.818 200.500   8
 -13   2  13 6916.57 573.298   9
 -13   2  13 5153.33 592.425   8
 -13   2  12-196.003 208.412   8
 -13   2  12 189.855 196.439   9
 -13   2  11 15613.4 914.679   9
 -13   2  11 11867.4 1040.55   8
 -13  -2  10 1761.65 406.834   8
 -13   2  10 2417.36 530.054   8
 -13   2  10 3273.07 515.954   9
  13   2 -10 2971.57 537.611  14
 -13   2   9 1836.24 523.846   8
 -13   2   9 3184.47 485.700   9
  13   2  -9 2995.80 513.125  14
 -13   2   8 181.113 188.140   9
 -13   2   8 141.969 293.989  15
  13   2  -8 729.140 335.654  14
 -13   2   7 343.739 209.867   9
 -13   2   7 222.638 330.243  15
 -13   2   6 8.60265 199.053   9
 -13  -2   6 105.302 271.560  15
 -13   2   6 333.503 329.413  15
 -13   2   5 2211.42 419.366   9
 -13  -2   5 2054.91 500.352  15
 -13   2   5 2513.90 514.954  15
  13   2  -5 2790.10 462.317  14
 -13   2   4 9051.92 776.409   9
 -13  -2   4 8451.69 822.506  15
 -13   2   4 9476.34 911.275  15
  13   2  -4 9625.92 789.915  14
 -13   2   3 154.697 234.055   9
 -13  -2   3-199.563 299.470  15
 -13   2   3-44.6909 239.528  15
  13   2  -3 240.758 239.607  14
 -13   2   2 17601.0 1094.00   9
 -13  -2   2 17787.7 1127.14  15
  13   2  -2 19118.7 1103.06  14
 -13   2   1 13259.7 986.386   9
 -13  -2   1 9998.46 869.325  15
  13   2  -1 12770.4 953.372  14
 -13   2   0 5011.48 630.940   9
  13   2   0 5122.13 581.572  14
  13  -2   0 3736.16 439.809  14
 -13   2  -1 6112.01 650.802   9
  13   2   1 6368.18 638.208  14
  13  -2   1 5009.66 539.035  14
  13   2   2 5709.88 592.044  14
  13  -2   2 4559.81 507.823  14
  13   2   3-149.062 189.066  14
  13  -2   3 174.006 177.700  14
 -13   2  -4-227.663 223.990  13
  13   2   4 194.174 198.303  14
  13  -2   4 134.499 196.823  14
 -13   2  -5 285.028 232.339  13
  13   2   5 335.722 235.475  14
  13  -2   5 384.437 188.370  14
 -13   2  -6 1119.46 307.780  13
  13   2   6 809.321 279.425  14
  13  -2   6 540.667 228.452  14
 -13   2  -7-507.587 240.370  13
  13   2   7-264.879 156.307  14
  13  -2   7-56.6812 178.268  14
 -13   2  -8 99.9338 168.190  13
  13   2   8 24.3970 161.637  14
  13  -2   8 302.203 196.343  14
 -13   2  -9 1188.13 277.586  13
  13   2   9 2116.37 320.622  14
  13  -2   9 1916.31 308.605  14
 -13   2 -10 167.001 157.661  13
  13   2  10 579.364 174.488  14
  13  -2  10 402.139 169.986  14
 -13   3  14 824.582 195.516   9
 -13   3  14 505.559 198.068   8
 -13   3  13 368.187 179.497   9
 -13   3  13 624.947 251.316   8
 -13   3  12 1080.55 341.321   8
 -13   3  12 1243.17 342.439   9
 -13   3  11 248.590 267.610   8
 -13   3  11 629.888 358.554   9
 -13   3  10 7667.02 688.384   9
  13   3 -10 8077.82 777.728  14
 -13   3  10 6386.71 775.174   8
 -13   3   9 406.423 307.728   8
 -13   3   9 212.382 230.122   9
  13   3  -9 437.976 324.279  14
 -13   3   8 6453.78 676.746   9
 -13   3   8 7093.50 736.272  15
  13   3  -8 7217.32 744.239  14
 -13   3   8 5897.54 808.712   8
 -13   3   7 1212.05 348.745   9
 -13   3   7 1286.72 412.115  15
  13   3  -7 845.814 326.430  14
 -13   3   6 6042.86 656.720   9
 -13   3   6 5813.21 705.951  15
  13   3  -6 5262.24 644.220  14
 -13   3   5 1606.76 388.330   9
 -13   3   5 1475.79 421.428  15
  13   3  -5 1334.65 311.490  14
 -13   3   4-285.877 232.872   9
 -13   3   4 396.632 302.084  15
  13   3  -4-46.0125 222.300  14
 -13   3   3 5080.38 647.048   9
 -13   3   3 5378.65 711.176  15
  13   3  -3 5613.60 629.935  14
 -13   3   2 23949.2 1330.63   9
  13   3  -2 23691.3 1232.00  14
 -13   3   1 10464.5 971.666   9
  13   3  -1 9077.09 816.195  14
 -13   3   0 191.776 263.803   9
  13   3   0 364.281 227.716  14
 -13   3  -1 441.992 295.068   9
  13   3   1 26.6987 204.385  14
 -13   3  -2 126.966 212.505  13
  13   3   2 90.8530 218.586  14
 -13   3  -3 1368.61 296.096  13
  13   3   3 1353.95 328.222  14
 -13   3  -4 308.056 213.089  13
  13   3   4 274.343 214.921  14
  13   3   5 248.819 238.748  14
 -13   3  -6 594.928 216.474  13
  13   3   6 713.821 234.647  14
 -13   3  -7-63.6493 180.272  13
  13   3   7-14.3995 148.171  14
  13  -3   7-249.224 176.222  14
  13   3   8 311.709 174.313  14
  13  -3   8 96.8518 136.858  14
  13   3   9 215.299 156.114  14
 -13   3 -10-194.183 145.153  13
  13   3  10-305.338 152.091  14
 -13   4  13 1078.40 253.964   9
 -13   4  13 463.226 178.340   8
 -13   4  12 827.804 249.555   9
 -13   4  12 454.683 215.313   8
 -13   4  11 389.403 238.488   8
 -13   4  11 187.064 204.472   9
 -13   4  10 728.522 384.605   8
 -13   4  10 1116.54 323.783   9
 -13   4   9 739.667 315.563   8
 -13   4   9 1254.67 333.988   9
  13   4  -9 1670.06 382.949  14
 -13   4   8 337.703 295.387   8
 -13   4   8 427.952 262.717   9
 -13   4   7 788.663 315.883   9
 -13   4   7 807.416 346.462  15
  13   4  -7 1325.86 374.495  14
 -13   4   6 1369.63 388.861   9
 -13   4   6 1068.02 330.717  15
  13   4  -6 1652.50 374.507  14
 -13   4   5 480.648 277.936   9
 -13   4   5 573.183 340.833  15
  13   4  -5 188.502 189.066  14
 -13   4   4 6782.75 752.759   9
 -13   4   4 6912.46 732.316  15
  13   4  -4 7502.60 714.898  14
 -13   4   3 5628.74 726.811   9
 -13   4   3 5901.33 724.872  15
  13   4  -3 5687.85 613.050  14
 -13   4   2 6355.34 748.611   9
 -13   4   2 8518.72 850.089  15
  13   4  -2 6755.58 682.692  14
 -13   4   1 8862.06 864.828   9
  13   4  -1 8810.36 752.875  14
 -13   4   1 8610.39 612.547  13
 -13   4   0 7092.94 762.964   9
  13   4   0 6849.51 654.277  14
 -13   4   0 6876.72 541.505  13
 -13   4  -1-570.316 350.764   9
  13   4   1-326.385 223.509  14
 -13   4  -1-854.066 272.547  13
 -13   4  -2 8106.05 782.141   9
  13   4   2 7426.42 642.520  14
 -13   4  -2 6933.41 559.848  13
 -13   4  -3 5575.05 641.069   9
  13   4   3 4750.34 512.973  14
 -13   4  -3 4991.21 461.276  13
 -13   4  -4 2869.76 385.188  13
  13   4   4 2745.79 395.821  14
 -13   4  -5 1315.55 280.696  13
  13   4   5 1196.85 282.997  14
 -13   4  -6 1369.90 338.751  13
  13   4   6 892.813 242.710  14
 -13   4  -7 126.887 172.171  13
  13   4   7 445.034 276.285  14
 -13   4  -8 358.725 206.370  13
  13   4   8 269.570 158.855  14
 -13   4  -9 1243.91 228.753  13
 -13   5  12 1325.43 256.180   9
 -13   5  12 952.945 182.967   8
 -13   5  11 21.1437 183.333   9
 -13   5  11 376.159 200.551   8
 -13   5  10 2455.51 385.687   9
 -13   5  10 1679.06 342.723   8
 -13   5   9 1136.79 355.306   8
 -13   5   9 1588.86 360.070   9
 -13   5   8-131.669 226.395   8
 -13   5   8 438.735 261.813   9
  13   5  -8 45.2658 210.296  14
 -13   5   7 188.336 204.995   8
  13   5  -7 159.262 237.687  14
 -13   5   6 533.747 297.204   8
 -13   5   6 1525.60 392.969   9
  13   5  -6 736.351 273.022  16
  13   5  -6 1124.89 305.677  14
 -13   5   5 649.411 292.695   9
  13   5  -5 283.310 257.193  16
  13   5  -5 542.165 265.820  14
 -13   5   4 1134.86 394.746   9
  13   5  -4 642.912 240.418  14
 -13   5   3 175.098 296.782   9
  13   5  -3 11.8446 169.916  14
 -13   5   3 596.668 262.065  13
 -13   5   2 289.219 279.807   9
  13   5  -2 406.688 237.916  14
 -13   5   2 194.433 163.791  13
 -13   5   1 1628.90 429.205   9
  13   5  -1 1128.65 307.886  14
 -13   5   1 1386.35 265.068  13
 -13   5   0 513.770 300.471   9
  13   5   0 62.8297 160.840  14
 -13   5   0-75.9560 217.018  13
 -13   5  -1 2708.70 519.258   9
  13   5   1 2469.48 375.913  14
 -13   5  -1 2665.87 353.228  13
 -13   5  -2 449.555 308.935   9
  13   5   2 542.789 202.165  14
 -13   5  -2 84.9335 189.374  13
 -13   5  -3 3753.59 538.972   9
  13   5   3 3534.79 405.096  14
 -13   5  -3 4120.66 463.210  13
 -13   5  -4 3143.71 455.962   9
 -13   5  -4 4500.02 461.290  13
 -13   5  -5 650.553 281.359   9
 -13   5  -5 951.465 261.655  13
 -13   5  -6 285.315 192.517   9
 -13   5  -6 451.333 211.091  13
 -13   5  -7 267.517 155.659   9
 -13   5  -7 434.545 159.134  13
 -13   5  -8 264.555 176.347   9
 -13   5  -8 337.381 170.809  13
 -13   6  10 403.278 195.766   9
 -13   6   9 530.029 223.649   9
 -13   6   8 36.8249 169.682   9
  13   6  -8 92.5752 147.461  16
 -13   6   7 1113.03 298.346   9
  13   6  -7 711.739 248.668  16
  13   6  -6-0.76929 151.100  16
 -13   6   5 848.966 297.382   9
  13   6  -5 754.855 289.652  16
 -13   6   4-82.4281 256.415   9
  13   6  -4 4.12614 158.321  16
 -13   6   3 2811.89 460.780   9
 -13   6   2 638.542 313.192   9
 -13   6   2 569.016 245.056  13
 -13   6   1 470.127 272.385   9
 -13   6   1 680.204 279.714  13
 -13   6   0 436.657 224.438   9
 -13   6   0 651.564 274.123  15
 -13   6  -1 6759.09 654.680   9
 -13   6  -1 7325.61 533.122  13
 -13   6  -2 4638.14 523.774   9
 -13   6  -2 4866.69 444.783  13
 -13   6  -3 1483.18 332.397   9
 -13   6  -3 1739.58 286.248  13
 -13   6  -4 349.521 227.825   9
 -13   6  -4-226.013 192.165  13
 -13   6  -5 72.2455 163.726   9
 -13   6  -5 190.406 151.702  13
 -13   6  -6 141.310 138.720   9
 -13   6  -6 711.577 190.402  13
 -13   7   7 1020.15 251.421   9
  13   7  -7 831.408 220.397  16
 -13   7   6 164.330 149.399   9
  13   7  -6 62.4558 132.760  16
 -13   7   5 1054.20 243.183   9
  13   7  -5 1005.84 263.773  16
 -13   7   4 1354.64 312.506   9
  13   7  -4 1550.74 348.022  16
 -13   7   3 277.979 186.950   9
  13   7  -3 464.521 225.600  16
 -13   7   2 278.761 204.194   9
  13   7  -2 295.375 239.856  16
 -13   7   1 902.844 282.985   9
 -13   7   0 820.039 316.239   9
 -13   7   0 597.802 185.309  13
 -13   7  -1 1915.57 355.787   9
 -13   7  -1 2088.82 263.363  13
 -13   7  -2 2841.15 357.648   9
 -13   7  -2 3246.05 320.140  13
 -13   7  -3 3367.28 374.801   9
 -13   7  -3 4262.40 347.538  13
 -14   0  14 1910.87 313.682   8
 -14   0  13 177.775 198.731   8
 -14   0  12 343.437 215.652   8
 -14   0  11 323.249 379.271   8
 -14   0  10 1078.09 357.109   8
  14   0 -10 987.489 317.290  14
  14   0  -9 511.246 324.525  14
  14   0  -8 151.509 248.903  14
 -14   0   7 574.446 370.766  15
  14   0  -7-17.2987 223.602  14
 -14   0   6 20154.7 1290.91  15
  14   0  -6 21267.8 1247.26  14
 -14   0   5 90.0303 306.192  15
  14   0  -5-104.044 204.887  14
 -14   0   4 489.968 335.515  15
  14   0  -4 304.545 329.450  14
 -14   0   3 79.5531 336.156  15
  14   0  -3 695.455 303.474  14
 -14   0   2 26621.7 1473.61  15
  14   0  -2 28680.0 1357.31  14
  14   0  -1 3669.43 664.983  14
 -14   0   0 455.502 243.640  15
  14   0   0 76.8722 202.788  14
  14   0   1-28.9647 283.251  14
  14   0   2 26547.4 1274.58  14
  14   0   3 6.56460 206.425  14
  14   0   4-72.4455 201.819  14
  14   0   5-232.656 192.928  14
  14   0   6 1960.15 371.525  14
  14   0   7-96.6744 169.728  14
  14   0   8 564.650 225.836  14
  14   0   9 293.962 194.103  14
  14   0  10 395.025 149.202  14
 -14   1  14 1568.22 290.794   8
 -14  -1  13-25.1010 146.861   8
 -14   1  13 294.362 204.864   8
 -14  -1  12 24.8878 162.658   8
 -14   1  12 38.2299 199.295   8
 -14  -1  11 107.326 218.584   8
 -14   1  11 740.778 326.426   8
 -14  -1  10-187.453 226.642   8
 -14   1  10-306.378 253.967   8
  14   1 -10 448.871 298.816  14
  14  -1  -9 3016.46 514.370  14
 -14   1   8 2525.27 508.598  15
  14  -1  -8 1927.48 433.385  14
  14   1  -8 2658.48 485.853  14
 -14  -1   7 537.950 368.474  15
 -14   1   7 560.528 344.177  15
  14  -1  -7 333.330 306.048  14
  14   1  -7 140.465 258.926  14
 -14  -1   6 429.378 355.746  15
 -14   1   6 699.102 348.252  15
  14  -1  -6 21.8954 201.245  14
  14   1  -6-120.494 244.409  14
 -14  -1   5 1133.50 386.315  15
 -14   1   5 1187.43 448.469  15
  14  -1  -5 699.861 327.632  14
  14   1  -5 1219.72 338.313  14
 -14  -1   4 1912.90 467.165  15
 -14   1   4 1853.35 459.362  15
  14  -1  -4 1769.51 435.721  14
  14   1  -4 1886.07 394.788  14
 -14  -1   3 2049.34 490.147  15
 -14   1   3 1607.06 447.526  15
  14  -1  -3 1376.26 363.425  14
  14   1  -3 1597.96 402.979  14
 -14  -1   2 3352.98 555.265  15
  14  -1  -2 4315.04 545.157  14
  14   1  -2 4493.77 562.048  14
 -14   1   1 2869.26 471.884   9
 -14   1   1 2980.66 571.435  15
  14  -1  -1 2788.68 468.635  14
  14   1  -1 2743.32 454.990  14
 -14   1   0 9199.51 749.727   9
 -14  -1   0 8681.44 815.678  15
  14  -1   0 9113.62 751.686  14
  14   1   0 9470.54 780.241  14
 -14   1  -1-126.793 253.178   9
  14   1   1 486.821 194.030  14
  14  -1   1 314.282 189.315  14
 -14   1  -2 35429.1 1504.02   9
 -14  -1  -2 37262.0 1659.87  15
  14   1   2 41014.0 1560.78  14
  14  -1   2 39282.2 1521.07  14
 -14  -1  -3 100.435 233.566  15
  14   1   3 444.774 218.646  14
  14  -1   3 907.479 316.035  14
  14   1   4 2240.81 385.966  14
  14  -1   4 1761.63 355.143  14
  14   1   5 644.187 270.720  14
  14  -1   5 433.868 222.441  14
  14   1   6-106.602 180.345  14
  14  -1   6 385.621 237.000  14
  14   1   7 237.598 212.183  14
  14  -1   7 86.6567 169.785  14
  14   1   8 292.081 186.459  14
  14  -1   8 658.937 242.621  14
  14   1   9 63.3507 151.173  14
  14  -1   9 407.866 162.180  14
 -14   2  14 1989.53 300.846   8
 -14   2  13 503.395 207.946   9
 -14   2  13 301.304 198.860   8
 -14   2  12-304.465 255.904   8
 -14   2  12 543.751 189.480   9
 -14   2  11 1908.91 451.337   8
 -14   2  11 3016.56 417.314   9
 -14  -2  10 875.297 268.349   8
 -14   2  10 600.196 286.041   8
 -14   2  10 1475.50 330.174   9
 -14  -2   9 1587.79 414.838   8
 -14   2   9 2863.58 424.787   9
  14   2  -9 3152.67 502.780  14
 -14   2   8 2212.90 418.191   9
 -14   2   8 2391.72 514.722  15
  14   2  -8 2070.73 467.275  14
 -14   2   7 432.228 274.462   9
  14   2  -7 200.954 270.561  14
 -14   2   6 2415.20 447.606   9
 -14   2   6 2465.37 475.222  15
  14   2  -6 2415.59 478.543  14
 -14   2   5 10134.9 809.762   9
 -14  -2   5 9384.21 862.618  15
 -14   2   5 10372.9 928.773  15
  14   2  -5 11404.9 923.911  14
 -14   2   4 5493.85 624.390   9
 -14  -2   4 5092.52 651.532  15
 -14   2   4 5096.17 661.249  15
  14   2  -4 5521.08 634.660  14
 -14   2   3 2758.84 485.253   9
 -14  -2   3 1965.95 458.160  15
 -14   2   3 2705.93 559.145  15
  14   2  -3 3116.92 536.681  14
 -14   2   2 1554.60 390.828   9
 -14  -2   2 1496.24 394.371  15
 -14   2   2 1708.61 436.912  15
  14   2  -2 2017.63 417.929  14
 -14   2   1 722.968 315.202   9
 -14  -2   1 749.508 309.463  15
  14   2  -1 954.663 326.936  14
 -14   2   0 1124.39 343.944   9
  14  -2   0 658.557 254.001  14
  14   2   0 950.887 293.127  14
 -14   2  -1 5604.05 610.977   9
  14  -2   1 4933.30 536.873  14
  14   2   1 6179.88 636.595  14
 -14   2  -2-320.510 249.968   9
  14   2   2 475.638 269.990  14
  14  -2   2 41.6171 200.031  14
 -14   2  -3 24515.7 1258.68   9
  14   2   3 25350.0 1221.89  14
  14  -2   3 23323.8 1126.06  14
  14   2   4 3854.74 506.037  14
  14  -2   4 2916.92 399.424  14
  14   2   5 3466.90 453.174  14
  14  -2   5 2929.96 407.066  14
 -14   2  -6 485.452 212.573  13
  14   2   6 954.327 258.080  14
  14  -2   6 580.333 189.938  14
  14   2   7 463.195 224.595  14
  14  -2   7 795.850 231.511  14
 -14   2  -8 303.124 173.982  13
  14   2   8 325.610 162.487  14
  14  -2   8 554.446 185.129  14
  14  -2   9 2381.13 330.783  14
  14   2   9 1688.78 274.256  14
 -14   3  13 1875.69 296.422   9
 -14   3  13 1260.47 292.818   8
 -14   3  12-76.7256 165.743   8
 -14   3  12-257.249 187.035   9
 -14   3  11 29.9907 201.286   8
 -14   3  11 21.3598 175.101   9
 -14   3  10 6462.35 597.209   9
 -14   3  10 5272.39 671.834   8
 -14   3   9 11112.8 835.633   9
  14   3  -9 11326.1 864.164  14
 -14   3   9 8578.92 887.299   8
 -14   3   8 2627.99 419.824   9
 -14   3   8 2516.95 479.949  15
  14   3  -8 3261.48 494.848  14
 -14   3   7 463.550 250.087   9
 -14   3   7 456.575 245.237  15
  14   3  -7 443.519 283.478  14
 -14   3   6-166.292 261.719   9
 -14   3   6 443.876 337.040  15
 -14   3   5 1335.34 409.150   9
 -14   3   5 1285.63 406.431  15
  14   3  -5 1567.19 350.086  14
 -14   3   4 6679.60 691.773   9
 -14   3   4 6930.02 790.032  15
  14   3  -4 7220.49 704.708  14
 -14   3   3 664.364 360.528   9
 -14   3   3 306.677 289.993  15
  14   3  -3 8.36576 230.090  14
 -14   3   2 2723.18 469.620   9
 -14   3   2 2899.99 529.268  15
  14   3  -2 2769.19 465.855  14
 -14   3   1 1787.88 446.631   9
  14   3  -1 1486.75 372.468  14
 -14   3   0 8709.41 777.736   9
  14   3   0 8245.65 715.996  14
 -14   3  -1 614.042 218.882   9
  14   3   1 1501.54 333.673  14
 -14   3  -2 5247.08 605.903   9
  14   3   2 5497.05 582.944  14
 -14   3  -3 2545.52 443.507   9
 -14   3  -3 2496.30 353.110  13
 -14   3  -4 204.097 231.848   9
  14   3   4 700.798 239.906  14
 -14   3  -4 362.896 186.687  13
 -14   3  -5 723.991 227.403  13
  14   3   5 426.013 190.046  14
 -14   3  -6-0.02558 153.173  13
  14   3   6 517.697 220.331  14
 -14   3  -7 589.567 201.608  13
  14   3   7 430.938 200.033  14
 -14   3  -8 265.568 155.572  13
  14   3   8-169.996 141.322  14
 -14   3  -9 191.451 149.288   9
 -14   3  -9 472.013 185.735  13
 -14   4  12 665.681 192.094   9
 -14   4  12 402.418 183.186   8
 -14   4  11 794.780 239.721   9
 -14   4  11 497.299 211.735   8
 -14   4  10 27.0495 159.414   8
 -14   4  10 358.872 222.470   9
 -14   4   9 161.073 190.351   8
 -14   4   9 649.290 262.884   9
  14   4  -9 466.534 258.889  14
 -14   4   8 376.059 324.078   8
 -14   4   8 117.617 198.073   9
  14   4  -8 207.005 263.877  14
 -14   4   7 194.427 242.616   8
 -14   4   7-326.261 223.156  15
  14   4  -7-211.172 187.579  14
 -14   4   6 188.879 213.035   9
 -14   4   6 92.8797 256.997  15
  14   4  -6-124.048 213.176  14
 -14   4   5 684.331 355.217   9
 -14   4   5 170.941 252.483  15
 -14   4   4-144.767 228.468   9
 -14   4   4-101.642 265.411  15
  14   4  -4 280.198 366.895  14
 -14   4   3 287.137 282.355   9
 -14   4   3 200.643 292.706  15
  14   4  -3 290.355 245.758  14
 -14   4   2 1757.72 424.954   9
 -14   4   2 1597.00 412.568  15
  14   4  -2 1447.02 353.081  14
 -14   4   1 4653.48 634.979   9
 -14   4   1 6066.00 740.437  15
  14   4  -1 4529.54 537.692  14
 -14   4   0-5.69386 306.014   9
  14   4   0-89.6264 252.856  14
 -14   4   0 704.573 242.338  13
 -14   4  -1 1622.89 421.099   9
  14   4   1 1386.75 316.727  14
 -14   4  -1 1633.09 284.741  13
 -14   4  -2 1517.95 339.317   9
  14   4   2 1685.55 314.975  14
 -14   4  -2 1575.75 267.536  13
 -14   4  -3 1515.66 399.543   9
  14   4   3 1459.75 292.182  14
 -14   4  -3 1633.13 313.991  13
 -14   4  -4 28.7750 194.588   9
  14   4   4 50.6525 146.293  14
 -14   4  -4-25.3031 148.306  13
 -14   4  -5 1804.36 395.744   9
  14   4   5 1811.71 307.529  14
 -14   4  -5 2008.46 326.393  13
 -14   4  -6 318.477 222.900   9
  14   4   6 264.354 150.852  14
 -14   4  -6 275.005 159.220  13
 -14   4  -7 2095.58 357.142   9
  14   4   7 2212.17 270.124  14
 -14   4  -7 2085.61 274.677  13
 -14   4  -8 1657.47 288.243   9
 -14   4  -8 1440.23 238.194  13
 -14   5  11 141.513 176.669   9
 -14   5  10 4346.87 453.553   9
 -14   5  10 2996.78 367.299   8
 -14   5   9 602.158 225.523   8
 -14   5   9 253.286 194.617   9
 -14   5   8 6201.21 603.326   9
  14   5  -8 6081.21 548.882  14
 -14   5   7 1193.87 320.133   8
 -14   5   7 2395.07 430.583   9
  14   5  -7 2119.25 361.701  14
 -14   5   6 210.552 234.789   9
 -14   5   5 7840.09 737.720   9
  14   5  -5 7386.30 642.954  14
 -14   5   4 517.552 316.454   9
  14   5  -4-404.304 229.406  16
 -14   5   4 308.284 193.996  15
  14   5  -4-32.4807 203.889  14
 -14   5   3 2816.66 511.927   9
 -14   5   3 2257.97 388.843  15
 -14   5   2 1385.82 423.931   9
 -14   5   2 1164.59 349.690  15
  14   5  -2 1183.48 337.684  14
 -14   5   2 2121.60 341.791  13
 -14   5   1 1430.18 409.565   9
 -14   5   1 1327.43 395.308  15
  14   5  -1 1285.49 304.017  14
 -14   5   1 2001.60 330.620  13
 -14   5   0 1113.50 364.803   9
 -14   5   0 1216.41 322.113  15
  14   5   0 560.876 247.816  14
 -14   5   0 706.589 223.084  13
 -14   5  -1 6911.15 678.515   9
  14   5   1 7292.28 571.192  14
 -14   5  -1 7193.47 505.271  13
 -14   5  -2 10083.4 791.876   9
  14   5   2 8887.88 608.828  14
 -14   5  -2 10263.1 596.325  13
 -14   5  -3 874.977 303.685   9
  14   5   3 330.370 149.479  14
 -14   5  -3 486.195 163.931  13
 -14   5  -4 2076.99 367.667   9
 -14   5  -4 1822.18 286.711  13
 -14   5  -5 199.059 198.473   9
 -14   5  -5 190.204 152.850  13
 -14   5  -6 446.057 204.371   9
 -14   5  -6 458.606 160.521  13
 -14   6   8 570.703 222.413   9
 -14   6   7 27.1306 155.438   9
 -14   6   6 232.101 227.407   9
  14   6  -6 52.2554 133.792  16
 -14   6   5 1012.43 270.299   9
  14   6  -5 334.741 184.272  16
 -14   6   4 1341.10 320.216   9
  14   6  -4 960.667 282.872  16
 -14   6   3 284.089 237.062   9
  14   6  -3-176.723 147.397  16
 -14   6   1 580.587 275.511   9
 -14   6   1 467.625 190.464  13
 -14   6   0 322.185 244.727   9
 -14   6   0 214.571 251.706  15
 -14   6   0 64.9791 145.462  13
 -14   6  -1 267.944 210.718   9
 -14   6  -1 497.594 242.859  15
 -14   6  -1 260.141 174.020  13
 -14   6  -2 90.0293 175.950   9
 -14   6  -2 408.993 247.885  15
 -14   6  -2 116.591 157.019  13
 -14   6  -3 1400.33 273.405   9
 -14   6  -3 1699.83 333.603  15
 -14   6  -3 992.543 206.336  13
 -14   6  -4 195.158 172.747   9
 -14   6  -4 50.7552 129.268  13
 -14   7   4 2994.85 361.556   9
  14   7  -4 2145.75 333.356  16
 -14   7   3 624.029 244.600   9
  14   7  -3 565.685 225.108  16
 -14   7   2 1486.36 291.100   9
  14   7  -2 988.709 240.729  16
 -14   7   1 443.628 228.279   9
  14   7  -1 255.445 168.925  16
 -14   7   0 163.126 180.496   9
 -15   0  13-170.444 150.277   8
 -15   0  12 1701.89 325.469   8
 -15   0  11 36.3774 178.096   8
 -15   0  10-295.170 221.777   8
  15   0 -10 95.6266 227.404  14
  15   0  -9 498.382 273.272  14
  15   0  -8 259.116 240.713  14
 -15   0   7-68.6326 250.380  15
  15   0  -7 525.761 326.972  14
 -15   0   6 1444.25 477.572  15
  15   0  -6 923.279 306.147  14
 -15   0   5-106.442 300.562  15
  15   0  -5 165.542 234.404  14
 -15   0   4 3039.99 521.367  15
  15   0  -4 3741.90 512.439  14
 -15   0   3 18.5295 265.774  15
  15   0  -3 541.277 279.153  14
 -15   0   2 13643.4 1050.11  15
  15   0  -2 15261.2 1002.16  14
 -15   0   1 737.093 361.083  15
  15   0  -1 1765.29 509.669  14
 -15   0   0 550.590 341.262  15
  15   0   0 258.195 213.508  14
  15   0   1 50.8324 214.944  14
 -15   0  -2 9137.86 850.715  15
  15   0   2 8850.54 735.728  14
 -15   0  -3-100.763 254.003  15
  15   0   3-338.366 237.625  14
  15   0   4 284.979 202.236  14
  15   0   5 540.156 252.558  14
  15   0   6 802.874 239.480  14
  15   0   7 283.237 202.207  14
  15   0   8 633.994 219.763  14
 -15  -1  13 262.450 146.791   8
 -15   1  13 480.063 222.876   8
 -15   1  12-47.2160 152.621   8
 -15  -1  12 91.0369 143.655   8
 -15  -1  11 272.955 204.622   8
 -15   1  11 592.648 295.906   8
 -15   1  10 12.9810 199.152   8
  15   1 -10 289.430 235.371  14
  15  -1  -9-103.846 248.470  14
  15   1  -9 884.893 338.515  14
  15  -1  -8-103.868 268.185  14
  15   1  -8-12.9401 215.548  14
 -15   1   7 302.021 246.134  15
  15  -1  -7 364.423 241.897  14
  15   1  -7 648.721 322.246  14
 -15  -1   6 6889.03 782.160  15
 -15   1   6 7078.10 799.050  15
  15  -1  -6 5742.85 642.409  14
  15   1  -6 7625.72 763.117  14
 -15  -1   5 10266.0 915.592  15
 -15   1   5 10592.9 948.588  15
  15  -1  -5 9315.27 803.251  14
  15   1  -5 10601.7 877.230  14
 -15  -1   4 11551.2 965.531  15
 -15   1   4 12098.8 1035.08  15
  15  -1  -4 11049.1 851.827  14
  15   1  -4 13510.1 956.862  14
 -15  -1   3 11039.7 991.728  15
 -15   1   3 11076.5 983.522  15
  15  -1  -3 11669.6 910.893  14
  15   1  -3 13429.4 993.859  14
 -15  -1   2 2747.27 567.957  15
 -15   1   2 2930.55 591.398  15
  15  -1  -2 4542.85 597.177  14
  15   1  -2 4786.20 640.112  14
 -15  -1   1 1638.59 404.594  15
 -15   1   1 2341.23 530.200  15
  15  -1  -1 1700.02 372.579  14
  15   1  -1 2371.39 434.845  14
 -15  -1   0 1453.61 412.937  15
 -15   1   0 1656.52 477.766  15
  15  -1   0 1582.18 361.083  14
  15   1   0 1829.04 384.486  14
  15  -1   1 380.702 246.960  14
  15   1   1 136.798 213.121  14
 -15  -1  -2 4849.63 634.452  15
  15   1   2 6241.11 618.615  14
  15  -1   2 6730.29 659.266  14
 -15   1  -3 5225.29 545.613   9
  15   1   3 6058.41 632.684  14
  15  -1   3 5360.49 553.816  14
 -15   1  -4-46.9771 208.940   9
  15   1   4 708.728 238.802  14
 -15   1  -5-89.3969 162.713   9
  15  -1   5 79.4428 202.737  14
 -15   1  -6 248.550 198.482   9
  15   1   6 487.568 208.594  14
  15  -1   6 160.221 156.194  14
 -15   1  -7 862.095 267.162   9
  15   1   7 1250.81 255.934  14
  15  -1   7 1348.59 268.249  14
  15   1   8 384.729 163.019  14
  15  -1   8 306.383 184.272  14
 -15   2  12 2422.09 415.944   8
 -15   2  11 971.556 318.259   8
 -15   2  11 1261.50 262.189   9
 -15   2  10 4139.05 453.312   9
  15   2 -10 5129.66 590.754  14
 -15  -2   9 469.658 262.499   8
 -15   2   9 191.255 225.703   8
 -15   2   9 1508.81 321.330   9
  15   2  -9 1433.35 358.270  14
 -15   2   8 94.9423 209.363   9
  15   2  -8 216.409 252.921  14
 -15   2   7 482.743 236.759   9
 -15   2   7 636.934 329.258  15
  15   2  -7 382.315 251.689  14
 -15   2   6 2195.38 388.372   9
 -15   2   6 2286.90 440.977  15
 -15   2   5 303.164 262.992   9
 -15   2   5 400.933 318.426  15
 -15   2   4 4158.76 521.341   9
 -15  -2   4 3070.87 511.087  15
 -15   2   4 3615.07 548.490  15
  15   2  -4 4665.01 618.804  14
 -15   2   3 1256.56 368.695   9
 -15  -2   3 395.601 258.885  15
 -15   2   3 1142.48 425.421  15
  15   2  -3 1075.89 373.213  14
 -15   2   2 36.1274 199.652   9
 -15  -2   2-351.657 311.658  15
 -15   2   2 148.290 321.871  15
  15   2  -2 151.470 282.041  14
 -15   2   1-303.778 258.220   9
 -15  -2   1 0.37231 317.984  15
  15   2  -1 224.647 269.741  14
 -15   2   0 33.0932 212.883   9
 -15   2   0 313.549 331.376  15
  15  -2   0-134.857 220.872  14
  15   2   0 62.6811 244.256  14
 -15   2  -1 38.3330 203.856   9
  15  -2   1 183.999 286.875  14
  15   2   1 643.171 295.195  14
 -15   2  -2-190.847 244.764   9
  15  -2   2 301.553 183.806  14
  15   2   2 201.418 180.317  14
 -15   2  -3 4194.54 525.819   9
  15  -2   3 4842.67 517.385  14
  15   2   3 4870.66 546.486  14
 -15   2  -4 1081.26 310.234   9
  15   2   4 1369.66 328.669  14
  15  -2   4 1100.30 289.209  14
 -15   2  -5 3772.70 492.146   9
  15   2   5 4105.16 478.377  14
  15  -2   5 3716.35 437.777  14
 -15   2  -6 143.082 198.978   9
  15   2   6 393.813 193.977  14
  15  -2   6-173.783 180.173  14
 -15   2  -7 499.372 201.428   9
  15   2   7 615.248 196.787  14
  15  -2   7 682.676 202.398  14
 -15   2  -8 453.252 203.537   9
  15   2   8 341.415 144.184  14
  15  -2   8 394.702 188.600  14
 -15   3  12 639.114 195.056   9
 -15   3  12 393.322 178.830   8
 -15   3  11 75.9791 172.335   8
 -15   3  11-191.083 175.768   9
 -15   3  10 196.042 198.398   8
 -15   3  10-146.346 152.937   9
 -15   3   9 5746.16 534.520   9
  15   3  -9 6573.71 649.354  14
 -15   3   8 474.628 274.558   8
 -15   3   8 106.217 196.300   9
 -15   3   7 2011.69 360.193   9
 -15   3   7 2508.75 450.894  15
  15   3  -7 2649.10 450.071  14
 -15   3   6 2252.39 423.849   9
 -15   3   6 1964.16 424.701  15
  15   3  -6 2851.94 463.893  14
 -15   3   5 375.217 207.704   9
 -15   3   5 156.930 282.757  15
  15   3  -5 574.701 273.553  14
 -15   3   4 919.190 278.550   9
 -15   3   4 1211.28 402.115  15
  15   3  -4 897.909 307.007  14
 -15   3   3 990.898 369.017   9
 -15   3   3 1262.10 405.553  15
  15   3  -3 1437.01 356.515  14
 -15   3   2 2078.67 460.158   9
 -15   3   2 1190.04 353.254  15
  15   3  -2 1362.79 343.766  14
 -15   3   1 2265.86 450.304   9
  15   3  -1 1848.35 417.142  14
 -15   3   0 249.035 240.966   9
 -15   3   0 749.399 394.070  15
  15   3   0 360.955 231.298  14
 -15   3  -1 1786.02 381.730   9
  15   3   1 2432.50 403.366  14
 -15   3  -2 1292.47 378.995   9
  15   3   2 1182.42 337.971  14
 -15   3  -3 4627.13 616.789   9
  15   3   3 5069.42 511.234  14
 -15   3  -4 1457.20 374.980   9
  15   3   4 1524.92 287.861  14
 -15   3  -5 667.734 225.880   9
  15   3   5 854.246 241.209  14
 -15   3  -6 386.725 210.549   9
  15   3   6 464.233 198.492  14
 -15   3  -7 1500.57 273.592   9
  15   3   7 1471.33 247.894  14
 -15   4  11 242.111 151.322   9
 -15   4  10 6987.96 525.161   9
 -15   4  10 3952.42 501.381   8
 -15   4   9 1097.30 329.951   8
 -15   4   9 125.580 189.749   9
 -15   4   8 479.726 216.568   8
 -15   4   8 828.475 295.280   9
  15   4  -8 892.211 299.262  14
 -15   4   7 564.147 279.095   8
 -15   4   7 1683.16 362.025   9
 -15   4   6 3497.31 500.401   9
 -15   4   6 3341.81 509.971  15
  15   4  -6 3474.71 460.429  14
 -15   4   5-80.9441 195.842   9
 -15   4   5 170.203 237.276  15
 -15   4   4 1222.44 345.755   9
 -15   4   4 1292.52 334.816  15
  15   4  -4 1036.74 274.008  14
 -15   4   3-494.669 308.877  15
  15   4  -3-121.699 203.561  14
 -15   4   2 90.7567 199.697   9
  15   4  -2 117.825 193.834  14
 -15   4   1 1508.30 370.199   9
 -15   4   1 1655.55 402.187  15
  15   4  -1 1194.79 304.440  14
 -15   4   0 897.411 321.672   9
 -15   4   0 1672.72 406.035  15
  15   4   0 1785.82 361.263  14
 -15   4  -1 3278.30 475.124   9
  15   4   1 4111.50 471.818  14
 -15   4  -2 4478.28 555.792   9
  15   4   2 4980.96 493.217  14
 -15   4  -3 278.770 204.837   9
  15   4   3 825.624 247.098  14
 -15   4  -3 771.460 224.816  13
 -15   4  -4 590.071 273.213   9
  15   4   4 420.807 205.577  14
 -15   4  -4 156.759 130.249  13
 -15   4  -5 2322.44 363.026   9
  15   4   5 2326.82 291.140  14
 -15   4  -5 2276.72 300.059  13
 -15   4  -6 1230.71 268.640   9
  15   4   6 1416.82 234.479  14
 -15   4  -6 1377.76 209.725  13
 -15   5   9 3253.79 373.484   9
 -15   5   9 2199.45 276.797   8
 -15   5   8 1002.28 228.270   8
 -15   5   8 1224.85 271.058   9
 -15   5   7 2587.42 390.586   9
  15   5  -7 2364.81 332.791  14
 -15   5   6 6562.83 593.750   9
  15   5  -6 7222.29 576.178  14
 -15   5   5-44.3717 184.795   9
  15   5  -5-129.751 182.008  14
 -15   5   4 1200.77 309.899   9
 -15   5   4 1623.47 386.306  15
  15   5  -4 1916.35 349.623  14
 -15   5   3 1470.36 460.255  15
  15   5  -3 2128.17 369.806  14
 -15   5   2 3650.21 487.075   9
 -15   5   2 5826.68 610.109  15
 -15   5   1 1479.71 394.962   9
 -15   5   1 785.461 306.704  15
  15   5  -1 1090.04 367.959  14
 -15   5   0 664.473 316.032   9
 -15   5   0 453.898 296.408  15
 -15   5  -1 353.640 224.021   9
  15   5   1 79.9613 167.430  14
 -15   5  -1-49.7014 154.203  13
 -15   5  -2 772.897 263.621   9
  15   5   2 275.738 154.260  14
 -15   5  -2 445.892 177.100  13
 -15   5  -3 719.787 235.953   9
 -15   5  -3 1234.38 301.411  15
 -15   5  -3 534.060 196.434  13
 -15   5  -4 262.397 192.855   9
 -15   5  -4 435.845 173.876  13
 -15   6   6 650.433 222.073   9
 -15   6   5 1845.01 308.943   9
 -15   6   4 220.866 165.841   9
 -15   6   3 375.269 221.972   9
  15   6  -3 92.4914 162.218  16
 -15   6   2 142.202 182.001   9
  15   6  -2 1202.83 318.174  16
 -15   6   1 808.629 268.309   9
  15   6  -1 1978.70 365.599  16
 -15   6   0 5591.11 485.330   9
 -15   6  -1 6319.43 503.468   9
 -15   6  -1 7201.93 564.138  15
 -16   0  11 218.428 188.198   8
 -16   0  10 255.464 193.788   8
 -16   0   9 78.0245 227.325   8
  16   0  -9-251.007 234.116  14
  16   0  -8 13213.2 889.146  14
  16   0  -7 464.942 275.926  14
 -16   0   6 21064.8 1292.32  15
  16   0  -6 22197.6 1187.84  14
 -16   0   5 75.5596 238.522  15
  16   0  -5-425.970 305.574  14
 -16   0   4 545.703 336.347  15
  16   0  -4 320.376 219.525  14
 -16   0   3-124.873 293.893  15
  16   0  -3 445.059 275.989  14
 -16   0   2 5990.23 711.594  15
  16   0  -2 5734.92 627.408  14
 -16   0   1 8.91030 290.525  15
  16   0  -1 704.520 358.645  14
 -16   0   0 5711.65 683.359  15
  16   0   0 6096.70 608.842  14
  16   0   1 430.747 320.868  14
 -16   0  -2 22.9052 229.766  15
  16   0   2 390.542 246.749  14
 -16   0  -3 95.8861 259.239  15
  16   0   3 515.945 255.348  14
 -16   0  -4 3122.91 427.835  15
  16   0   4 4199.95 485.494  14
 -16   0  -5-201.373 201.411  15
  16   0   5 76.9416 180.942  14
  16   0   6 899.973 238.210  14
 -16  -1  11 643.588 215.940   8
 -16   1  11 185.046 215.321   8
 -16  -1  10 1628.70 354.342   8
 -16   1  10 2529.35 429.761   8
 -16  -1   9 915.470 318.334   8
 -16   1   9 1367.54 418.937   8
  16  -1  -8 9264.78 732.249  14
 -16   1   7-37.5198 227.792  15
  16  -1  -7-60.2143 212.722  14
  16   1  -7 287.265 252.554  14
 -16   1   6 398.509 355.230  15
  16  -1  -6 317.290 299.522  14
  16   1  -6 355.628 257.949  14
 -16  -1   5 3706.84 568.512  15
 -16   1   5 3581.54 557.219  15
  16   1  -5 2883.27 485.045  14
 -16  -1   4 2567.72 485.044  15
 -16   1   4 2491.49 508.171  15
  16   1  -4 3146.66 486.816  14
 -16  -1   3 3780.92 587.646  15
 -16   1   3 4138.80 615.136  15
  16  -1  -3 4143.30 562.557  14
  16   1  -3 4609.38 590.478  14
 -16  -1   2 1790.70 461.716  15
 -16   1   2 1585.19 428.514  15
  16  -1  -2 2100.93 453.926  14
  16   1  -2 2359.40 455.129  14
 -16  -1   1-328.723 254.606  15
 -16   1   1 149.841 300.192  15
  16  -1  -1-4.66735 196.144  14
  16   1  -1 149.516 262.415  14
 -16  -1   0 603.879 285.371  15
 -16   1   0 630.252 374.296  15
  16  -1   0 296.245 224.322  14
  16   1   0 786.145 295.031  14
 -16  -1  -1 292.352 307.727  15
 -16   1  -1 283.509 302.694  15
  16  -1   1 363.870 240.983  14
  16   1   1 109.311 204.924  14
  16  -1   2 180.258 196.862  14
  16   1   2 402.471 235.199  14
 -16   1  -3 1994.40 464.007  15
  16  -1   3 2712.65 420.608  14
  16   1   3 1880.23 351.358  14
 -16   1  -4 2260.68 430.589  15
  16  -1   4 1835.39 318.256  14
  16   1   4 2051.68 336.894  14
 -16   1  -5 667.529 320.230  15
  16  -1   5 542.574 213.743  14
  16   1   5 192.109 188.173  14
  16  -1   6 4050.54 391.411  14
  16   1   6 3760.19 402.601  14
 -16   2  11 390.439 223.401   8
 -16   2  10 1087.95 303.197   8
 -16  -2   9 182.890 227.584   8
 -16   2   9 119.389 189.507   8
  16   2  -9 769.872 277.216  14
 -16  -2   8 555.639 234.894   8
  16   2  -8 1006.88 302.697  14
 -16   2   7 214.816 292.235  15
  16   2  -7 29.0937 224.032  14
 -16   2   6 2038.46 338.760   9
 -16   2   6 2380.39 456.253  15
  16   2  -6 2537.23 430.861  14
 -16   2   5 4140.07 480.273   9
 -16   2   5 5642.08 650.579  15
  16   2  -5 5448.06 605.812  14
 -16   2   4 1935.02 392.315   9
 -16   2   4 2596.17 505.777  15
  16   2  -4 2700.35 470.856  14
 -16   2   3 1501.01 373.198   9
 -16  -2   3 1003.21 363.417  15
 -16   2   3 800.399 278.929  15
  16   2  -3 1425.03 394.647  14
 -16   2   2 2061.78 386.096   9
 -16  -2   2 1950.59 454.750  15
 -16   2   2 2458.91 489.087  15
  16   2  -2 2812.23 468.275  14
 -16   2   1 3300.68 495.568   9
 -16   2   1 3184.30 561.592  15
  16   2  -1 2928.55 473.313  14
 -16   2   0 1384.38 350.722   9
 -16   2   0 2446.87 492.813  15
  16   2   0 2211.87 394.232  14
 -16   2  -1 80.6637 199.170   9
  16  -2   1-124.337 203.000  14
  16   2   1-208.543 236.393  14
 -16   2  -2 1390.62 316.572   9
  16   2   2 1987.71 357.487  14
 -16   2  -3 86.2424 184.491   9
 -16   2  -3 779.567 304.628  15
  16  -2   3 285.439 227.796  14
  16   2   3 361.895 216.072  14
 -16   2  -4 3456.29 443.007   9
  16  -2   4 3493.52 397.361  14
  16   2   4 3781.30 429.179  14
 -16   2  -5 28.9879 152.720   9
 -16   2  -5 45.5438 234.578  15
  16  -2   5-76.6962 143.962  14
  16   2   5 89.4681 165.959  14
 -16   2  -6 593.213 191.716   9
 -16   2  -6 518.861 277.104  15
  16  -2   6 641.153 196.033  14
  16   2   6 390.368 176.145  14
 -16   3  10 487.513 207.559   8
 -16   3  10 251.446 152.953   9
 -16   3   9 163.917 189.249   8
 -16   3   9-6.02357 142.862   9
  16   3  -9 214.454 212.607  14
 -16   3   8 63.3797 177.556   8
 -16   3   8-38.1347 160.989   9
  16   3  -8 137.818 191.452  14
 -16   3   7 280.092 190.816   9
  16   3  -7 218.007 211.161  14
 -16   3   6 1863.68 338.903   9
 -16   3   6 2208.27 457.138  15
  16   3  -6 2211.10 393.508  14
 -16   3   5 1198.66 324.232   9
 -16   3   5 1039.04 332.974  15
  16   3  -5 1321.96 349.322  14
 -16   3   4 482.956 259.960   9
 -16   3   4 107.234 218.215  15
  16   3  -4 137.181 221.402  14
 -16   3   3 59.0263 188.505   9
 -16   3   3 229.031 263.349  15
  16   3  -3 424.274 255.475  14
 -16   3   2 1260.00 312.110   9
 -16   3   2 1192.61 342.495  15
  16   3  -2 892.049 274.279  14
 -16   3   1 120.859 221.890   9
  16   3  -1 428.250 261.728  14
 -16   3   0 3473.29 476.718   9
 -16   3   0 4321.06 585.646  15
  16   3   0 3763.75 462.703  14
 -16   3  -1 735.145 222.957   9
  16   3   1 1106.55 292.478  14
 -16   3  -2 139.293 217.557   9
 -16   3  -2 582.002 309.588  15
  16   3   2-16.7678 181.407  14
 -16   3  -3 2753.53 382.205   9
 -16   3  -3 4184.43 539.807  15
  16   3   3 3515.55 408.160  14
 -16   3  -4 924.780 262.839   9
 -16   3  -4 1204.23 347.292  15
  16   3   4 853.669 219.693  14
 -16   3  -5 2802.40 364.760   9
  16   3   5 3232.41 344.812  14
 -16   4   9 283.304 175.362   9
 -16   4   8 676.498 248.728   8
 -16   4   8 1473.13 271.914   9
  16   4  -8 1491.71 280.507  14
 -16   4   7 2071.95 322.903   9
  16   4  -7 1866.81 315.110  14
 -16   4   6 194.260 250.473   8
 -16   4   6 831.479 276.118   9
 -16   4   6 925.364 294.089  15
  16   4  -6 471.386 236.334  14
 -16   4   5 217.477 210.888   9
 -16   4   5-183.342 244.094  15
  16   4  -5 255.305 209.647  14
 -16   4   4-17.1196 187.115   9
 -16   4   4 180.348 190.105  15
  16   4  -4 165.896 162.823  14
 -16   4   3 12.8004 216.313   9
 -16   4   3 113.181 248.702  15
  16   4  -3 527.666 234.469  14
 -16   4   2 130.563 235.869  15
  16   4  -2 395.697 202.302  14
 -16   4   1 95.1710 195.795   9
 -16   4   1 228.146 209.502  15
  16   4  -1 358.409 212.006  14
 -16   4   0 130.681 172.582   9
 -16   4   0-29.7067 210.578  15
  16   4   0 296.684 182.408  14
 -16   4  -1-25.2680 175.770   9
 -16   4  -1 446.577 260.591  15
  16   4   1 712.830 262.211  14
 -16   4  -2 5018.26 495.359   9
  16   4   2 5021.67 452.759  14
 -16   4  -3 355.576 204.340   9
 -16   4  -3 348.071 230.340  15
  16   4   3 290.496 168.892  14
 -16   4  -4 1983.07 300.423   9
 -16   5   6 453.279 200.700   9
  16   5  -6 302.620 180.773  14
 -16   5   5 117.179 152.339   9
  16   5  -5 357.864 154.855  14
 -16   5   4 565.690 228.703   9
 -16   5   4 447.576 217.259  15
 -16   5   3 608.781 248.802   9
 -16   5   3 449.366 241.747  15
  16   5  -3 205.237 172.579  14
 -16   5   2 733.441 257.426   9
 -16   5   2 692.003 240.146  15
  16   5  -2 1172.57 246.225  14
 -16   5   1 818.366 249.823  15
  16   5  -1 1097.40 257.952  14
 -16   5   0 6253.61 523.487   9
 -16   5   0 7939.13 588.138  15
  16   5   0 6827.81 469.755  14
 -16   5  -1 490.659 197.111  15
  16   5   1 126.411 161.304  14
 -17   0  10 414.547 218.279   8
 -17   0   9 153.129 177.027   8
  17   0  -8 20407.8 973.905  14
  17   0  -6 19953.6 1050.91  14
 -17   0   5-192.602 276.421  15
  17   0  -5-884.414 364.384  14
 -17   0   4 1509.32 407.685  15
  17   0  -4 2100.22 410.753  14
 -17   0   3 578.603 328.790  15
  17   0  -3 1010.38 326.028  14
 -17   0   2 884.995 331.362  15
  17   0  -2 798.267 317.271  14
 -17   0   1 124.981 246.363  15
  17   0  -1 375.267 303.690  14
 -17   0   0 50.2313 280.482  15
  17   0   0 475.661 218.122  14
 -17   0  -1 14.4822 249.813  15
  17   0   1 199.275 204.398  14
 -17   0  -2 3920.18 484.300  15
  17   0   2 4264.01 469.347  14
 -17   0  -3-240.831 211.583  15
  17   0   3 330.300 203.915  14
  17   0   4 265.352 174.454  14
 -17  -1   9 286.677 316.595   8
  17   1  -9 960.219 270.362  14
 -17  -1   8 1316.78 352.924   8
 -17   1   8 1829.42 430.172   8
  17   1  -7 505.926 244.636  14
 -17   1   6 1181.97 336.757  15
  17  -1  -6 471.952 228.200  14
  17   1  -6 674.714 275.888  14
 -17   1   5 2081.04 442.414  15
  17  -1  -5 1920.66 363.888  14
  17   1  -5 2195.36 374.036  14
 -17  -1   4 1065.62 297.516  15
 -17   1   4 1669.25 407.735  15
  17   1  -4 1056.62 300.812  14
 -17  -1   3 440.877 307.362  15
 -17   1   3 208.497 251.555  15
  17  -1  -3 464.676 247.742  14
  17   1  -3 848.373 306.715  14
 -17  -1   2 1276.69 335.807  15
 -17   1   2 1323.09 354.223  15
  17  -1  -2 1787.52 402.101  14
  17   1  -2 1801.54 382.916  14
 -17   1   1 142.423 300.524  15
  17  -1  -1 63.0910 226.864  14
  17   1  -1 48.7886 223.105  14
 -17  -1   0 167.054 228.805  15
 -17   1   0 292.064 288.747  15
  17  -1   0 367.930 259.103  14
  17   1   0 195.178 191.162  14
 -17   1  -1 173.043 212.995  15
  17  -1   1-114.365 162.435  14
  17   1   1 89.9863 203.164  14
 -17   1  -2 386.949 279.716  15
  17  -1   2 399.544 214.942  14
  17   1   2-174.047 174.401  14
 -17   1  -3 903.765 298.497  15
  17  -1   3 740.413 235.990  14
  17   1   3 1102.31 261.824  14
 -17   1  -4 1347.32 306.462  15
  17  -1   4 827.054 240.855  14
  17   1   4 744.054 231.652  14
 -17   2   9 318.215 211.606   8
 -17   2   8 351.298 214.484   8
  17   2  -8 488.283 199.701  14
 -17   2   6 702.797 292.590  15
  17   2  -6 574.548 249.238  14
 -17   2   5 11813.9 856.850  15
  17   2  -5 11857.4 796.815  14
 -17   2   4 263.888 228.947  15
  17   2  -4 926.536 303.038  14
 -17   2   3 1538.30 414.218  15
 -17   2   2 361.117 292.697  15
  17   2  -2 561.356 269.822  14
 -17   2   1 5353.94 627.792  15
  17   2  -1 5645.87 556.382  14
 -17   2   0 2195.77 420.062  15
  17   2   0 1849.49 338.517  14
 -17   2  -1 5281.85 564.408  15
  17   2   1 5797.31 534.027  14
  17   2   2 324.920 205.695  14
 -17   2  -3 310.168 239.135  15
  17   2   3-114.026 139.745  14
 -17   3   8 710.379 213.527   9
  17   3  -8 642.030 228.926  14
 -17   3   7 164.420 186.055   8
 -17   3   7 785.952 296.017   9
  17   3  -7 464.695 231.727  14
 -17   3   6 1039.28 247.481   9
  17   3  -6 1013.26 261.386  14
 -17   3   5-57.4934 187.180   9
 -17   3   5 303.560 248.330  15
  17   3  -5 457.818 194.064  14
 -17   3   4 55.4312 175.390   9
 -17   3   4 484.201 262.619  15
  17   3  -4 621.507 252.089  14
 -17   3   3 314.862 187.365   9
 -17   3   3 66.9121 195.486  15
  17   3  -3-16.7754 162.273  14
 -17   3   2 1900.03 335.014   9
 -17   3   2 2387.80 410.553  15
  17   3  -2 2335.91 376.951  14
 -17   3   1 1602.47 334.062   9
 -17   3   1 1145.78 336.543  15
  17   3  -1 980.168 293.100  14
 -17   3   0 2051.39 335.795   9
 -17   3   0 2254.92 370.371  15
  17   3   0 2555.74 360.647  14
 -17   3  -1-305.429 204.249   9
 -17   3  -1 393.107 239.330  15
  17   3   1 261.745 198.137  14
 -17   3  -2 117.571 176.139   9
  17   3   2 547.477 201.727  14
 -17   4   5 278.522 182.774   8
 -17   4   5 632.807 219.867   9
 -17   4   5 713.491 243.085  15
 -17   4   4 281.662 212.740   8
 -17   4   4 90.2387 176.834  15
  17   4  -4 400.490 194.634  14
 -17   4   3 334.482 208.908   9
 -17   4   3 498.323 253.881  15
  17   4  -3 394.401 199.883  14
 -17   4   2 1440.57 295.958   9
 -17   4   2 983.060 282.887  15
  17   4  -2 917.923 246.930  14
 -17   4   1 411.847 222.593   9
 -17   4   1 333.916 210.263  15
  17   4  -1 300.721 169.492  14
 -17   4   0 60.5862 164.979   9
 -17   4   0 189.080 175.617  15
  17   4   0 398.018 170.312  14
  18   0  -7 786.068 239.151  14
  18   0  -6 4351.86 512.878  14
  18   0  -5 477.193 255.699  14
  18   0  -4 4270.17 467.739  14
 -18   0   3 161.436 256.048  15
 -18   0   2 424.168 241.965  15
  18   0  -2 137.933 207.499  14
 -18   0   1 414.605 278.691  15
  18   0  -1 595.626 236.024  14
  18   0   0 370.639 212.409  14
 -18   0  -1 222.043 306.514  15
  18   0   1 701.382 211.140  14
  18   1  -7 750.620 231.411  14
  18   1  -5 1124.61 284.053  14
 -18   1   4 6412.87 599.658  15
  18   1  -4 5836.58 541.332  14
 -18   1   3 936.781 359.746  15
  18   1  -3 2073.82 367.333  14
 -18   1   2 717.925 346.475  15
  18   1  -2 392.390 227.465  14
 -18   1   1 1608.05 356.905  15
  18  -1  -1 2658.64 392.741  14
  18   1  -1 1755.22 310.119  14
 -18   1   0 1691.51 350.208  15
  18  -1   0 1167.12 265.626  14
  18   1   0 1132.85 284.641  14
  18  -1   1 523.740 206.245  14
  18   1   1 314.184 190.639  14
  18   2  -5 2272.75 350.362  14
 -18   2   4 4001.24 465.159  15
  18   2  -4 4042.39 431.098  14
 -18   2   3 358.167 239.686  15
  18   2  -3 773.540 249.351  14
 -18   2   2 335.399 206.834  15
  18   2  -2 125.866 163.971  14
 -18   2   1-50.7355 191.025  15
   0   0   0    0.00    0.00   0

TITL FENG003 in P2(1)/c
REM P2(1)/c (#14 in standard setting)
CELL 1.54184  15.498111   9.142238  15.921999  90.0000  98.9391  90.0000
ZERR    1.00   0.001741   0.000715   0.001177   0.0000   0.0101   0.0000
LATT  1
SYMM -x, y+1/2,-z+1/2
SFAC C H
UNIT 124.00 112.00
TREF
HKLF 4
END
;
_shelx_hkl_checksum              85240
_shelx_shelxl_version_number     2014/7
_olex2_submission_special_instructions 'No special instructions were received'
_oxdiff_exptl_absorpt_empirical_details
;
Empirical correction (ABSPACK) includes:
- Absorption correction using spherical harmonics
- Frame scaling
;
_oxdiff_exptl_absorpt_empirical_full_max 1.552
_oxdiff_exptl_absorpt_empirical_full_min 0.564
loop_
_space_group_symop_operation_xyz
'x, y, z'
'-x, y+1/2, -z+1/2'
'-x, -y, -z'
'x, -y-1/2, z-1/2'
loop_
_atom_site_label
_atom_site_type_symbol
_atom_site_fract_x
_atom_site_fract_y
_atom_site_fract_z
_atom_site_U_iso_or_equiv
_atom_site_adp_type
_atom_site_occupancy
_atom_site_site_symmetry_order
_atom_site_calc_flag
_atom_site_refinement_flags_posn
C13 C 0.7985(2) 0.3096(3) 0.66000(18) 0.0252(6) Uani 1 1 d .
C10 C 0.5780(2) 0.2201(3) 0.39704(17) 0.0249(6) Uani 1 1 d .
C3 C 0.5819(2) 0.4866(3) 0.56399(17) 0.0226(6) Uani 1 1 d .
C5 C 0.7180(2) 0.3412(3) 0.59922(18) 0.0244(6) Uani 1 1 d .
C1 C 0.6165(2) 0.2908(3) 0.47281(18) 0.0229(6) Uani 1 1 d .
C6 C 0.6948(2) 0.2556(3) 0.52272(18) 0.0238(6) Uani 1 1 d .
C4 C 0.6622(2) 0.4529(3) 0.61724(18) 0.0248(6) Uani 1 1 d .
H4 H 0.6781 0.5079 0.6663 0.030 Uiso 1 1 calc R
C23 C 0.4303(2) 0.2436(3) 0.29351(17) 0.0229(6) Uani 1 1 d .
C28 C 0.4500(2) 0.2599(3) 0.21094(17) 0.0238(6) Uani 1 1 d .
C12 C 0.4834(2) 0.4028(3) 0.42543(17) 0.0233(6) Uani 1 1 d .
C2 C 0.5606(2) 0.4023(3) 0.49174(18) 0.0232(6) Uani 1 1 d .
C24 C 0.3532(2) 0.1725(3) 0.30691(18) 0.0249(6) Uani 1 1 d .
C11 C 0.4937(2) 0.2925(3) 0.36845(17) 0.0240(6) Uani 1 1 d .
C27 C 0.3898(2) 0.2088(3) 0.14232(18) 0.0276(7) Uani 1 1 d .
H27 H 0.4021 0.2199 0.0874 0.033 Uiso 1 1 calc R
C25 C 0.2958(2) 0.1235(3) 0.23673(19) 0.0262(6) Uani 1 1 d .
H25 H 0.2445 0.0768 0.2453 0.031 Uiso 1 1 calc R
C16 C 0.9501(2) 0.2567(3) 0.7810(2) 0.0295(7) Uani 1 1 d .
C18 C 0.8794(2) 0.2908(3) 0.63513(19) 0.0276(7) Uani 1 1 d .
H18 H 0.8842 0.2957 0.5777 0.033 Uiso 1 1 calc R
C9 C 0.6230(2) 0.1033(3) 0.36996(18) 0.0263(7) Uani 1 1 d .
H9 H 0.6009 0.0522 0.3208 0.032 Uiso 1 1 calc R
C31 C 0.5330(2) 0.3337(4) 0.19527(19) 0.0285(7) Uani 1 1 d .
H31A H 0.5428 0.4196 0.2301 0.043 Uiso 1 1 calc GR
H31B H 0.5278 0.3609 0.1365 0.043 Uiso 1 1 calc GR
H31C H 0.5812 0.2676 0.2093 0.043 Uiso 1 1 calc GR
C26 C 0.3126(2) 0.1423(3) 0.15424(19) 0.0285(7) Uani 1 1 d .
C7 C 0.7397(2) 0.1349(3) 0.49255(19) 0.0258(6) Uani 1 1 d .
H7 H 0.7931 0.1046 0.5224 0.031 Uiso 1 1 calc R
C8 C 0.7039(2) 0.0634(3) 0.41913(19) 0.0276(7) Uani 1 1 d .
H8 H 0.7343 -0.0151 0.4009 0.033 Uiso 1 1 calc R
C14 C 0.7943(2) 0.2993(4) 0.74663(19) 0.0295(7) Uani 1 1 d .
H14 H 0.7407 0.3087 0.7655 0.035 Uiso 1 1 calc R
C17 C 0.9541(2) 0.2648(3) 0.6944(2) 0.0288(7) Uani 1 1 d .
H17 H 1.0076 0.2526 0.6757 0.035 Uiso 1 1 calc R
C15 C 0.8691(2) 0.2753(4) 0.8050(2) 0.0322(7) Uani 1 1 d .
H15 H 0.8644 0.2716 0.8625 0.039 Uiso 1 1 calc R
C29 C 0.3322(2) 0.1460(4) 0.39490(19) 0.0324(7) Uani 1 1 d .
H29A H 0.3805 0.0975 0.4287 0.049 Uiso 1 1 calc GR
H29B H 0.2811 0.0857 0.3913 0.049 Uiso 1 1 calc GR
H29C H 0.3217 0.2378 0.4207 0.049 Uiso 1 1 calc GR
C19 C 1.0319(2) 0.2324(4) 0.8477(2) 0.0352(8) Uani 1 1 d .
C30 C 0.2458(2) 0.0931(4) 0.0795(2) 0.0380(8) Uani 1 1 d .
H30A H 0.2062 0.1720 0.0618 0.057 Uiso 1 1 calc GR
H30B H 0.2137 0.0110 0.0962 0.057 Uiso 1 1 calc GR
H30C H 0.2752 0.0652 0.0332 0.057 Uiso 1 1 calc GR
C20 C 1.0110(3) 0.1251(4) 0.9156(2) 0.0399(9) Uani 1 1 d .
H20A H 0.9683 0.1676 0.9459 0.060 Uiso 1 1 calc GR
H20B H 1.0633 0.1043 0.9546 0.060 Uiso 1 1 calc GR
H20C H 0.9884 0.0360 0.8888 0.060 Uiso 1 1 calc GR
C22 C 1.1080(2) 0.1717(4) 0.8083(2) 0.0408(9) Uani 1 1 d .
H22A H 1.0914 0.0799 0.7812 0.061 Uiso 1 1 calc GR
H22B H 1.1574 0.1574 0.8519 0.061 Uiso 1 1 calc GR
H22C H 1.1230 0.2395 0.7669 0.061 Uiso 1 1 calc GR
C21 C 1.0586(3) 0.3806(5) 0.8902(3) 0.0599(13) Uani 1 1 d .
H21A H 1.0748 0.4469 0.8486 0.090 Uiso 1 1 calc GR
H21B H 1.1073 0.3666 0.9347 0.090 Uiso 1 1 calc GR
H21C H 1.0103 0.4205 0.9137 0.090 Uiso 1 1 calc GR
loop_
_atom_site_aniso_label
_atom_site_aniso_U_11
_atom_site_aniso_U_22
_atom_site_aniso_U_33
_atom_site_aniso_U_23
_atom_site_aniso_U_13
_atom_site_aniso_U_12
C13 0.0338(17) 0.0207(14) 0.0203(14) 0.0010(11) 0.0022(12) -0.0015(12)
C10 0.0327(16) 0.0256(15) 0.0164(13) -0.0007(11) 0.0039(11) -0.0017(13)
C3 0.0307(16) 0.0203(14) 0.0173(13) 0.0011(11) 0.0056(11) -0.0016(12)
C5 0.0307(16) 0.0238(15) 0.0191(13) 0.0025(11) 0.0055(11) -0.0003(12)
C1 0.0298(16) 0.0180(14) 0.0216(13) -0.0023(11) 0.0060(12) -0.0013(11)
C6 0.0317(16) 0.0208(14) 0.0195(13) 0.0022(11) 0.0058(11) -0.0008(12)
C4 0.0330(16) 0.0239(15) 0.0174(13) -0.0006(11) 0.0037(12) -0.0014(12)
C23 0.0321(16) 0.0195(14) 0.0160(13) -0.0040(11) 0.0008(11) 0.0025(12)
C28 0.0339(16) 0.0195(14) 0.0174(13) -0.0011(11) 0.0018(11) 0.0024(12)
C12 0.0326(16) 0.0203(14) 0.0169(13) 0.0012(11) 0.0039(11) -0.0001(12)
C2 0.0288(16) 0.0209(14) 0.0198(13) 0.0015(11) 0.0038(11) -0.0002(12)
C24 0.0340(17) 0.0223(14) 0.0178(13) -0.0027(11) 0.0020(12) 0.0042(12)
C11 0.0327(16) 0.0249(15) 0.0144(12) -0.0010(11) 0.0035(11) -0.0024(12)
C27 0.0382(18) 0.0305(16) 0.0142(13) -0.0039(12) 0.0041(12) 0.0034(13)
C25 0.0293(16) 0.0249(15) 0.0244(14) -0.0015(12) 0.0039(12) -0.0001(12)
C16 0.0355(17) 0.0199(15) 0.0306(15) 0.0024(12) -0.0032(13) -0.0022(12)
C18 0.0353(17) 0.0261(15) 0.0213(14) 0.0002(12) 0.0044(12) -0.0009(13)
C9 0.0366(17) 0.0218(15) 0.0207(14) -0.0048(11) 0.0056(12) -0.0025(12)
C31 0.0343(17) 0.0299(16) 0.0215(14) -0.0002(12) 0.0050(12) 0.0012(13)
C26 0.0369(18) 0.0261(16) 0.0210(14) -0.0071(12) -0.0004(12) 0.0036(13)
C7 0.0290(16) 0.0239(15) 0.0241(14) 0.0033(12) 0.0030(12) 0.0032(12)
C8 0.0371(17) 0.0208(14) 0.0261(15) -0.0013(12) 0.0083(13) 0.0023(13)
C14 0.0307(17) 0.0355(17) 0.0225(14) 0.0013(13) 0.0050(12) 0.0013(13)
C17 0.0292(16) 0.0257(16) 0.0318(16) -0.0020(12) 0.0060(13) 0.0006(12)
C15 0.0346(18) 0.0372(18) 0.0242(15) 0.0042(13) 0.0032(13) -0.0004(14)
C29 0.0362(18) 0.0381(18) 0.0232(15) 0.0019(13) 0.0057(13) -0.0006(14)
C19 0.0364(18) 0.0299(17) 0.0349(17) 0.0006(14) -0.0079(14) -0.0007(14)
C30 0.044(2) 0.044(2) 0.0248(16) -0.0079(14) 0.0004(14) -0.0013(16)
C20 0.045(2) 0.046(2) 0.0261(16) 0.0068(15) -0.0016(14) 0.0108(17)
C22 0.0314(18) 0.041(2) 0.048(2) 0.0140(16) -0.0020(15) 0.0004(15)
C21 0.057(3) 0.035(2) 0.074(3) -0.009(2) -0.031(2) 0.0026(19)
loop_
_atom_type_symbol
_atom_type_description
_atom_type_scat_dispersion_real
_atom_type_scat_dispersion_imag
_atom_type_scat_source
C C 0.0181 0.0091 'International Tables Vol C Tables 4.2.6.8 and 6.1.1.4'
H H 0.0000 0.0000 'International Tables Vol C Tables 4.2.6.8 and 6.1.1.4'
loop_
_exptl_crystal_face_index_h
_exptl_crystal_face_index_k
_exptl_crystal_face_index_l
_exptl_crystal_face_perp_dist
-1 0 0 0.0050
1 0 0 0.0040
0 -1 1 0.0989
0 1 -1 0.0989
0 1 1 0.0912
0 -1 -1 0.1142
0 0 1 0.1404
0 0 -1 0.1404
loop_
_geom_angle_atom_site_label_1
_geom_angle_atom_site_label_2
_geom_angle_atom_site_label_3
_geom_angle
_geom_angle_site_symmetry_1
_geom_angle_site_symmetry_3
C18 C13 C5 123.1(3) . .
C18 C13 C14 117.2(3) . .
C14 C13 C5 119.7(3) . .
C1 C10 C11 107.1(3) . .
C9 C10 C1 117.0(3) . .
C9 C10 C11 135.9(3) . .
C4 C3 C12 129.6(3) . 3_666
C2 C3 C4 116.6(3) . .
C2 C3 C12 113.7(3) . 3_666
C6 C5 C13 121.2(3) . .
C4 C5 C13 119.5(3) . .
C4 C5 C6 119.2(3) . .
C6 C1 C10 126.8(3) . .
C6 C1 C2 124.3(3) . .
C2 C1 C10 108.8(3) . .
C1 C6 C5 116.1(3) . .
C1 C6 C7 114.7(3) . .
C7 C6 C5 129.2(3) . .
C3 C4 H4 118.4 . .
C5 C4 C3 123.1(3) . .
C5 C4 H4 118.4 . .
C28 C23 C24 120.4(3) . .
C28 C23 C11 120.3(3) . .
C24 C23 C11 119.2(3) . .
C23 C28 C31 121.2(3) . .
C27 C28 C23 118.6(3) . .
C27 C28 C31 120.1(3) . .
C3 C12 C2 115.0(3) 3_666 .
C11 C12 C3 137.3(3) . 3_666
C11 C12 C2 107.7(3) . .
C3 C2 C1 120.6(3) . .
C3 C2 C12 131.3(3) . .
C1 C2 C12 108.1(2) . .
C23 C24 C29 121.8(3) . .
C25 C24 C23 118.7(3) . .
C25 C24 C29 119.4(3) . .
C10 C11 C23 123.7(3) . .
C12 C11 C10 108.3(3) . .
C12 C11 C23 127.9(3) . .
C28 C27 H27 119.1 . .
C26 C27 C28 121.7(3) . .
C26 C27 H27 119.1 . .
C24 C25 H25 119.0 . .
C26 C25 C24 122.0(3) . .
C26 C25 H25 119.0 . .
C17 C16 C19 122.2(3) . .
C15 C16 C17 116.8(3) . .
C15 C16 C19 121.0(3) . .
C13 C18 H18 119.3 . .
C13 C18 C17 121.4(3) . .
C17 C18 H18 119.3 . .
C10 C9 H9 120.9 . .
C10 C9 C8 118.2(3) . .
C8 C9 H9 120.9 . .
C28 C31 H31A 109.5 . .
C28 C31 H31B 109.5 . .
C28 C31 H31C 109.5 . .
H31A C31 H31B 109.5 . .
H31A C31 H31C 109.5 . .
H31B C31 H31C 109.5 . .
C27 C26 C25 118.6(3) . .
C27 C26 C30 121.5(3) . .
C25 C26 C30 120.0(3) . .
C6 C7 H7 120.0 . .
C8 C7 C6 119.9(3) . .
C8 C7 H7 120.0 . .
C9 C8 H8 118.3 . .
C7 C8 C9 123.4(3) . .
C7 C8 H8 118.3 . .
C13 C14 H14 119.6 . .
C15 C14 C13 120.8(3) . .
C15 C14 H14 119.6 . .
C16 C17 C18 121.3(3) . .
C16 C17 H17 119.4 . .
C18 C17 H17 119.4 . .
C16 C15 C14 122.5(3) . .
C16 C15 H15 118.8 . .
C14 C15 H15 118.8 . .
C24 C29 H29A 109.5 . .
C24 C29 H29B 109.5 . .
C24 C29 H29C 109.5 . .
H29A C29 H29B 109.5 . .
H29A C29 H29C 109.5 . .
H29B C29 H29C 109.5 . .
C16 C19 C21 108.2(3) . .
C20 C19 C16 109.7(3) . .
C20 C19 C21 109.0(3) . .
C22 C19 C16 112.1(3) . .
C22 C19 C20 108.6(3) . .
C22 C19 C21 109.2(3) . .
C26 C30 H30A 109.5 . .
C26 C30 H30B 109.5 . .
C26 C30 H30C 109.5 . .
H30A C30 H30B 109.5 . .
H30A C30 H30C 109.5 . .
H30B C30 H30C 109.5 . .
C19 C20 H20A 109.5 . .
C19 C20 H20B 109.5 . .
C19 C20 H20C 109.5 . .
H20A C20 H20B 109.5 . .
H20A C20 H20C 109.5 . .
H20B C20 H20C 109.5 . .
C19 C22 H22A 109.5 . .
C19 C22 H22B 109.5 . .
C19 C22 H22C 109.5 . .
H22A C22 H22B 109.5 . .
H22A C22 H22C 109.5 . .
H22B C22 H22C 109.5 . .
C19 C21 H21A 109.5 . .
C19 C21 H21B 109.5 . .
C19 C21 H21C 109.5 . .
H21A C21 H21B 109.5 . .
H21A C21 H21C 109.5 . .
H21B C21 H21C 109.5 . .
loop_
_geom_bond_atom_site_label_1
_geom_bond_atom_site_label_2
_geom_bond_distance
_geom_bond_site_symmetry_2
C13 C5 1.483(4) .
C13 C18 1.384(5) .
C13 C14 1.394(4) .
C10 C1 1.416(4) .
C10 C11 1.473(4) .
C10 C9 1.380(4) .
C3 C4 1.426(4) .
C3 C12 1.459(4) 3_666
C3 C2 1.381(4) .
C5 C6 1.445(4) .
C5 C4 1.396(4) .
C1 C6 1.381(4) .
C1 C2 1.400(4) .
C6 C7 1.427(4) .
C4 H4 0.9300 .
C23 C28 1.403(4) .
C23 C24 1.405(4) .
C23 C11 1.492(4) .
C28 C27 1.402(4) .
C28 C31 1.508(4) .
C12 C3 1.459(4) 3_666
C12 C2 1.468(4) .
C12 C11 1.383(4) .
C24 C25 1.391(4) .
C24 C29 1.506(4) .
C27 H27 0.9300 .
C27 C26 1.381(5) .
C25 H25 0.9300 .
C25 C26 1.389(4) .
C16 C17 1.391(5) .
C16 C15 1.379(5) .
C16 C19 1.538(4) .
C18 H18 0.9300 .
C18 C17 1.396(5) .
C9 H9 0.9300 .
C9 C8 1.418(5) .
C31 H31A 0.9600 .
C31 H31B 0.9600 .
C31 H31C 0.9600 .
C26 C30 1.519(4) .
C7 H7 0.9300 .
C7 C8 1.379(4) .
C8 H8 0.9300 .
C14 H14 0.9300 .
C14 C15 1.385(5) .
C17 H17 0.9300 .
C15 H15 0.9300 .
C29 H29A 0.9600 .
C29 H29B 0.9600 .
C29 H29C 0.9600 .
C19 C20 1.531(5) .
C19 C22 1.523(5) .
C19 C21 1.542(5) .
C30 H30A 0.9600 .
C30 H30B 0.9600 .
C30 H30C 0.9600 .
C20 H20A 0.9600 .
C20 H20B 0.9600 .
C20 H20C 0.9600 .
C22 H22A 0.9600 .
C22 H22B 0.9600 .
C22 H22C 0.9600 .
C21 H21A 0.9600 .
C21 H21B 0.9600 .
C21 H21C 0.9600 .
loop_
_geom_torsion_atom_site_label_1
_geom_torsion_atom_site_label_2
_geom_torsion_atom_site_label_3
_geom_torsion_atom_site_label_4
_geom_torsion
_geom_torsion_site_symmetry_1
C13 C5 C6 C1 177.3(3) .
C13 C5 C6 C7 0.0(5) .
C13 C5 C4 C3 -177.5(3) .
C13 C18 C17 C16 0.0(5) .
C13 C14 C15 C16 -1.7(5) .
C10 C1 C6 C5 -177.5(3) .
C10 C1 C6 C7 0.2(4) .
C10 C1 C2 C3 178.5(3) .
C10 C1 C2 C12 -0.1(3) .
C10 C9 C8 C7 0.1(5) .
C3 C12 C2 C3 1.5(5) 3_666
C3 C12 C2 C1 179.9(2) 3_666
C3 C12 C11 C10 -179.9(3) 3_666
C3 C12 C11 C23 -3.8(6) 3_666
C5 C13 C18 C17 178.4(3) .
C5 C13 C14 C15 -177.6(3) .
C5 C6 C7 C8 176.9(3) .
C1 C10 C11 C23 -175.9(3) .
C1 C10 C11 C12 0.3(3) .
C1 C10 C9 C8 -0.3(4) .
C1 C6 C7 C8 -0.4(4) .
C6 C5 C4 C3 0.7(4) .
C6 C1 C2 C3 0.4(5) .
C6 C1 C2 C12 -178.2(3) .
C6 C7 C8 C9 0.2(5) .
C4 C3 C2 C1 -0.6(4) .
C4 C3 C2 C12 177.7(3) .
C4 C5 C6 C1 -0.9(4) .
C4 C5 C6 C7 -178.1(3) .
C23 C28 C27 C26 -0.5(5) .
C23 C24 C25 C26 0.3(5) .
C28 C23 C24 C25 -2.2(4) .
C28 C23 C24 C29 176.7(3) .
C28 C23 C11 C10 -69.2(4) .
C28 C23 C11 C12 115.3(4) .
C28 C27 C26 C25 -1.3(5) .
C28 C27 C26 C30 177.3(3) .
C12 C3 C4 C5 179.0(3) 3_666
C12 C3 C2 C1 -179.7(3) 3_666
C12 C3 C2 C12 -1.5(5) 3_666
C2 C3 C4 C5 0.0(4) .
C2 C1 C6 C5 0.4(4) .
C2 C1 C6 C7 178.0(3) .
C2 C12 C11 C10 -0.4(3) .
C2 C12 C11 C23 175.7(3) .
C24 C23 C28 C27 2.3(4) .
C24 C23 C28 C31 -179.0(3) .
C24 C23 C11 C10 106.7(3) .
C24 C23 C11 C12 -68.7(4) .
C24 C25 C26 C27 1.5(5) .
C24 C25 C26 C30 -177.2(3) .
C11 C10 C1 C6 178.0(3) .
C11 C10 C1 C2 -0.2(3) .
C11 C10 C9 C8 -177.3(3) .
C11 C23 C28 C27 178.2(3) .
C11 C23 C28 C31 -3.1(4) .
C11 C23 C24 C25 -178.1(3) .
C11 C23 C24 C29 0.8(4) .
C11 C12 C2 C3 -178.1(3) .
C11 C12 C2 C1 0.3(3) .
C18 C13 C5 C6 48.7(4) .
C18 C13 C5 C4 -133.1(3) .
C18 C13 C14 C15 1.8(5) .
C9 C10 C1 C6 0.2(5) .
C9 C10 C1 C2 -177.9(3) .
C9 C10 C11 C23 1.2(5) .
C9 C10 C11 C12 177.5(3) .
C31 C28 C27 C26 -179.2(3) .
C14 C13 C5 C6 -132.0(3) .
C14 C13 C5 C4 46.2(4) .
C14 C13 C18 C17 -0.9(5) .
C17 C16 C15 C14 0.7(5) .
C17 C16 C19 C20 -138.9(3) .
C17 C16 C19 C22 -18.1(4) .
C17 C16 C19 C21 102.3(4) .
C15 C16 C17 C18 0.1(5) .
C15 C16 C19 C20 42.8(4) .
C15 C16 C19 C22 163.5(3) .
C15 C16 C19 C21 -76.0(4) .
C29 C24 C25 C26 -178.7(3) .
C19 C16 C17 C18 -178.3(3) .
C19 C16 C15 C14 179.1(3) .
loop_
_exptl_oxdiff_crystal_face_indexfrac_h
_exptl_oxdiff_crystal_face_indexfrac_k
_exptl_oxdiff_crystal_face_indexfrac_l
_exptl_oxdiff_crystal_face_x
_exptl_oxdiff_crystal_face_y
_exptl_oxdiff_crystal_face_z
-1.0000 0.0011 0.0000 0.0062 0.0981 0.0221
1.0000 -0.0011 -0.0000 -0.0062 -0.0981 -0.0221
-0.0034 -0.9985 1.0002 -0.0968 0.0284 -0.1663
0.0034 0.9985 -1.0002 0.0968 -0.0284 0.1663
0.0056 0.9997 1.0000 -0.0983 -0.0466 0.1614
-0.0056 -0.9997 -1.0000 0.0983 0.0466 -0.1614
0.0011 0.0006 1.0001 -0.0976 -0.0091 -0.0025
-0.0011 -0.0006 -1.0001 0.0976 0.0091 0.0025
