#------------------------------------------------------------------------------
#$Date: 2017-11-04 02:17:28 +0200 (Sat, 04 Nov 2017) $
#$Revision: 202569 $
#$URL: file:///home/coder/svn-repositories/cod/cif/4/12/66/4126686.cif $
#------------------------------------------------------------------------------
#
# This file is available in the Crystallography Open Database (COD),
# http://www.crystallography.net/
#
# All data on this site have been placed in the public domain by the
# contributors.
#
data_4126686
loop_
_publ_author_name
'Zhang, Haoke'
'Zheng, Xiaoyan'
'Xie, Ni'
'He, Zikai'
'Liu, Junkai'
'Leung, Nelson L. C.'
'Niu, Yingli'
'Huang, Xuhui'
'Wong, Kam Sing'
'Kwok, Ryan T. K.'
'Sung, Herman H. Y.'
'Williams, Ian D.'
'Qin, Anjun'
'Lam, Jacky W. Y.'
'Tang, Ben Zhong'
_publ_section_title
;
 Why do simple molecules with &quot;isolated&quot; phenyl rings emit
 visible light?
;
_journal_name_full               'Journal of the American Chemical Society'
_journal_paper_doi               10.1021/jacs.7b08592
_journal_year                    2017
_chemical_formula_moiety         'C19 H24'
_chemical_formula_sum            'C19 H24'
_chemical_formula_weight         252.38
_chemical_name_systematic
;
 ? 
;
_space_group_crystal_system      triclinic
_space_group_IT_number           2
_space_group_name_Hall           '-P 1'
_space_group_name_H-M_alt        'P -1'
_symmetry_space_group_name_Hall  '-P 1'
_symmetry_space_group_name_H-M   'P -1'
_atom_sites_solution_hydrogens   geom
_atom_sites_solution_primary     direct
_audit_creation_date             2016-05-24
_audit_creation_method
;
Olex2 1.2
(compiled 2016.02.19 svn.r3266 for OlexSys, GUI svn.r5155)
;
_cell_angle_alpha                87.481(5)
_cell_angle_beta                 88.173(6)
_cell_angle_gamma                70.205(6)
_cell_formula_units_Z            2
_cell_length_a                   5.1628(4)
_cell_length_b                   7.1504(4)
_cell_length_c                   21.1147(15)
_cell_measurement_reflns_used    2806
_cell_measurement_temperature    99.94(18)
_cell_measurement_theta_max      29.4630
_cell_measurement_theta_min      4.2620
_cell_volume                     732.58(9)
_computing_cell_refinement
;
CrysAlisPro, Agilent Technologies,
Version 1.171.37.35 (release 13-08-2014 CrysAlis171 .NET)
(compiled Aug 13 2014,18:06:01)
;
_computing_data_collection
;
CrysAlisPro, Agilent Technologies,
Version 1.171.37.35 (release 13-08-2014 CrysAlis171 .NET)
(compiled Aug 13 2014,18:06:01)
;
_computing_data_reduction
;
CrysAlisPro, Agilent Technologies,
Version 1.171.37.35 (release 13-08-2014 CrysAlis171 .NET)
(compiled Aug 13 2014,18:06:01)
;
_computing_molecular_graphics    'Olex2 (Dolomanov et al., 2009)'
_computing_publication_material  'Olex2 (Dolomanov et al., 2009)'
_computing_structure_refinement  'ShelXL (Sheldrick, 2015)'
_computing_structure_solution    'ShelXS (Sheldrick, 2008)'
_diffrn_ambient_environment      N~2~
_diffrn_ambient_temperature      99.94(18)
_diffrn_detector                 'CCD plate'
_diffrn_detector_area_resol_mean 10.3587
_diffrn_detector_type            Atlas
_diffrn_measured_fraction_theta_full 0.983
_diffrn_measured_fraction_theta_max 0.983
_diffrn_measurement_details
;
#__ type_ start__ end____ width___ exp.time_
  1 omega   -2.00   87.00   1.0000   25.0000
omega____ theta____ kappa____ phi______ frames
    -       15.8574   77.0000   60.0000 89

#__ type_ start__ end____ width___ exp.time_
  2 omega    0.00   90.00   1.0000   25.0000
omega____ theta____ kappa____ phi______ frames
    -       15.8574   77.0000  -60.0000 90

#__ type_ start__ end____ width___ exp.time_
  3 omega   -5.00   90.00   1.0000   25.0000
omega____ theta____ kappa____ phi______ frames
    -       15.8574   77.0000 -180.0000 95
;
_diffrn_measurement_device       'kappa diffractometer'
_diffrn_measurement_device_type  'SuperNova, Dual, Cu at zero, Atlas'
_diffrn_measurement_method       '\w scans'
_diffrn_orient_matrix_UB_11      0.0422952000
_diffrn_orient_matrix_UB_12      -0.1053133000
_diffrn_orient_matrix_UB_13      0.0002633000
_diffrn_orient_matrix_UB_21      0.1291374000
_diffrn_orient_matrix_UB_22      -0.0038000000
_diffrn_orient_matrix_UB_23      -0.0135286000
_diffrn_orient_matrix_UB_31      0.0534978000
_diffrn_orient_matrix_UB_32      -0.0048322000
_diffrn_orient_matrix_UB_33      0.0307885000
_diffrn_radiation_monochromator  mirror
_diffrn_radiation_probe          x-ray
_diffrn_radiation_type           MoK\a
_diffrn_radiation_wavelength     0.71073
_diffrn_reflns_av_R_equivalents  0.0197
_diffrn_reflns_av_unetI/netI     0.0327
_diffrn_reflns_limit_h_max       6
_diffrn_reflns_limit_h_min       -6
_diffrn_reflns_limit_k_max       8
_diffrn_reflns_limit_k_min       -8
_diffrn_reflns_limit_l_max       17
_diffrn_reflns_limit_l_min       -26
_diffrn_reflns_number            4206
_diffrn_reflns_theta_full        25.000
_diffrn_reflns_theta_max         25.999
_diffrn_reflns_theta_min         3.651
_diffrn_source                   'SuperNova (Mo) X-ray Source'
_diffrn_source_current           0.80
_diffrn_source_power             0.040
_diffrn_source_target            Cu
_diffrn_source_voltage           50
_exptl_absorpt_coefficient_mu    0.064
_exptl_absorpt_correction_T_max  1.00000
_exptl_absorpt_correction_T_min  0.70813
_exptl_absorpt_correction_type   multi-scan
_exptl_absorpt_process_details
;
CrysAlisPro, Agilent Technologies,
Version 1.171.37.35 (release 13-08-2014 CrysAlis171 .NET)
(compiled Aug 13 2014,18:06:01)
Empirical absorption correction using spherical harmonics,
 implemented in SCALE3 ABSPACK scaling algorithm.
;
_exptl_crystal_colour            colourless
_exptl_crystal_density_diffrn    1.144
_exptl_crystal_density_method    'not measured'
_exptl_crystal_description       plate
_exptl_crystal_F_000             276
_exptl_crystal_size_max          0.25
_exptl_crystal_size_mid          0.18
_exptl_crystal_size_min          0.05
_refine_diff_density_max         0.179
_refine_diff_density_min         -0.194
_refine_diff_density_rms         0.037
_refine_ls_extinction_method     none
_refine_ls_goodness_of_fit_ref   1.001
_refine_ls_hydrogen_treatment    constr
_refine_ls_matrix_type           full
_refine_ls_number_parameters     178
_refine_ls_number_reflns         2826
_refine_ls_number_restraints     0
_refine_ls_restrained_S_all      1.001
_refine_ls_R_factor_all          0.0470
_refine_ls_R_factor_gt           0.0410
_refine_ls_shift/su_max          0.000
_refine_ls_shift/su_mean         0.000
_refine_ls_structure_factor_coef Fsqd
_refine_ls_weighting_details
'w=1/[\s^2^(Fo^2^)+(0.0670P)^2^+0.1500P] where P=(Fo^2^+2Fc^2^)/3'
_refine_ls_weighting_scheme      calc
_refine_ls_wR_factor_gt          0.1141
_refine_ls_wR_factor_ref         0.1188
_reflns_Friedel_coverage         0.000
_reflns_number_gt                2432
_reflns_number_total             2826
_reflns_threshold_expression     'I > 2\s(I)'
_cod_data_source_file            ja7b08592_si_003.cif
_cod_data_source_block           haoke6molt
_cod_database_code               4126686
_shelx_space_group_comment
;
The symmetry employed for this shelxl refinement is uniquely defined
by the following loop, which should always be used as a source of
symmetry information in preference to the above space-group names.
They are only intended as comments.
;
_reflns_odcompleteness_completeness 98.67
_reflns_odcompleteness_iscentric 1
_reflns_odcompleteness_theta     27.04
_olex2_refinement_description
;
1. Fixed Uiso
 At 1.2 times of:
  All C(H) groups, All C(H,H) groups
 At 1.5 times of:
  All C(H,H,H) groups
2.a Secondary CH2 refined with riding coordinates:
 C1(H1A,H1B)
2.b Aromatic/amide H refined with riding coordinates:
 C13(H13), C16(H16), C23(H23), C26(H26)
2.c Idealised Me refined as rotating group:
 C17(H17A,H17B,H17C), C18(H18A,H18B,H18C), C19(H19A,H19B,H19C), C27(H27A,H27B,
 H27C), C28(H28A,H28B,H28C), C29(H29A,H29B,H29C)
;
_shelx_res_file
;
    haoke6molt.res created by SHELXL-2014/7

TITL haoke6MoLT in P-1 #2
REM reset to P-1 #2
CELL 0.71073 5.162793 7.150403 21.114666 87.4807 88.173 70.2048
ZERR 2 0.000363 0.00044 0.0015 0.0054 0.0057 0.006
LATT 1
SFAC C H
UNIT 38 48

L.S. 4
PLAN  20
TEMP -173
BOND
CONF
fmap 2
acta 50
OMIT 0 52
OMIT -3 -3 9
OMIT 0 4 0
OMIT 3 0 9
OMIT 0 -3 6
OMIT 4 0 0
OMIT 0 6 12
OMIT 0 0 15
OMIT 0 0 14
OMIT -3 -3 3
OMIT 1 3 8
OMIT 3 3 18
OMIT 0 -4 2
OMIT 1 5 11
OMIT 0 4 6
OMIT 2 2 10
OMIT 0 7 14
OMIT 0 4 5
OMIT 4 4 19
OMIT 3 6 17
OMIT -2 2 5
OMIT 4 -4 4
REM <olex2.extras>
REM <HklSrc "%.\\haoke6MoLT.hkl">
REM </olex2.extras>

WGHT    0.067000    0.150000
FVAR      11.18156
C1    1    0.725894    0.713252    0.233492    11.00000    0.02165    0.02069 =
         0.01984   -0.00095    0.00036   -0.00949
AFIX  23
H1A   2    0.665067    0.850037    0.214593    11.00000   -1.20000
H1B   2    0.927970    0.670396    0.238297    11.00000   -1.20000
AFIX   0
C11   1    0.592880    0.718826    0.299222    11.00000    0.01459    0.01589 =
         0.01768    0.00045   -0.00232   -0.00286
C12   1    0.604310    0.860846    0.341763    11.00000    0.01497    0.01420 =
         0.02218    0.00075   -0.00372   -0.00283
C13   1    0.478615    0.863780    0.401376    11.00000    0.01876    0.01469 =
         0.01984   -0.00273   -0.00380   -0.00267
AFIX  43
H13   2    0.483640    0.961267    0.430013    11.00000   -1.20000
AFIX   0
C14   1    0.345952    0.729934    0.420771    11.00000    0.01538    0.01625 =
         0.01809    0.00050   -0.00251   -0.00015
C15   1    0.338947    0.585784    0.378734    11.00000    0.01390    0.01497 =
         0.02010    0.00110   -0.00260   -0.00217
C16   1    0.462196    0.583364    0.318682    11.00000    0.01627    0.01529 =
         0.01781   -0.00194   -0.00248   -0.00396
AFIX  43
H16   2    0.456860    0.485960    0.290047    11.00000   -1.20000
AFIX   0
C17   1    0.750107    1.007037    0.323980    11.00000    0.02314    0.01718 =
         0.02496   -0.00139   -0.00237   -0.00823
AFIX 137
H17A  2    0.660901    1.089939    0.287313    11.00000   -1.50000
H17B  2    0.943209    0.934340    0.313249    11.00000   -1.50000
H17C  2    0.740821    1.091701    0.359840    11.00000   -1.50000
AFIX   0
C18   1    0.206786    0.743185    0.485056    11.00000    0.02176    0.02110 =
         0.02137   -0.00294    0.00093   -0.00314
AFIX 137
H18A  2    0.237462    0.848977    0.508455    11.00000   -1.50000
H18B  2    0.283685    0.616056    0.508645    11.00000   -1.50000
H18C  2    0.008702    0.773139    0.479875    11.00000   -1.50000
AFIX   0
C19   1    0.196812    0.438044    0.397291    11.00000    0.01981    0.02046 =
         0.02150    0.00115   -0.00081   -0.00745
AFIX 137
H19A  2    0.231004    0.339524    0.364410    11.00000   -1.50000
H19B  2   -0.001704    0.507954    0.401825    11.00000   -1.50000
H19C  2    0.268853    0.370734    0.437687    11.00000   -1.50000
AFIX   0
C21   1    0.662853    0.577962    0.187690    11.00000    0.01995    0.02341 =
         0.01468   -0.00104    0.00373   -0.01074
C22   1    0.818146    0.374998    0.185278    11.00000    0.01702    0.02365 =
         0.01657    0.00040    0.00255   -0.00865
C23   1    0.741762    0.260267    0.142537    11.00000    0.01963    0.02098 =
         0.02059   -0.00391    0.00428   -0.00670
AFIX  43
H23   2    0.845600    0.122523    0.141040    11.00000   -1.20000
AFIX   0
C24   1    0.520157    0.338580    0.101970    11.00000    0.02046    0.03034 =
         0.01628   -0.00454    0.00503   -0.01275
C25   1    0.368186    0.542121    0.103719    11.00000    0.01772    0.02932 =
         0.01602    0.00003    0.00187   -0.00945
C26   1    0.442897    0.656333    0.146669    11.00000    0.01972    0.02189 =
         0.01822    0.00007    0.00322   -0.00606
AFIX  43
H26   2    0.339106    0.794104    0.148079    11.00000   -1.20000
AFIX   0
C27   1    1.063111    0.280855    0.227201    11.00000    0.02047    0.02638 =
         0.02262    0.00025   -0.00232   -0.00865
AFIX 137
H27A  2    1.135611    0.137212    0.221014    11.00000   -1.50000
H27B  2    1.006406    0.305513    0.271668    11.00000   -1.50000
H27C  2    1.206355    0.338719    0.216139    11.00000   -1.50000
AFIX   0
C28   1    0.442644    0.204130    0.058523    11.00000    0.02696    0.03588 =
         0.02589   -0.00886   -0.00041   -0.01425
AFIX 137
H28A  2    0.449619    0.251350    0.014433    11.00000   -1.50000
H28B  2    0.255809    0.205819    0.069261    11.00000   -1.50000
H28C  2    0.572278    0.068104    0.063721    11.00000   -1.50000
AFIX   0
C29   1    0.125684    0.636302    0.061006    11.00000    0.02306    0.03802 =
         0.02139   -0.00033   -0.00272   -0.00972
AFIX 137
H29A  2   -0.018939    0.579521    0.071771    11.00000   -1.50000
H29B  2    0.184667    0.610330    0.016720    11.00000   -1.50000
H29C  2    0.054002    0.780154    0.066816    11.00000   -1.50000
AFIX   0
HKLF 4

REM  haoke6MoLT in P-1 #2
REM R1 =  0.0410 for    2432 Fo > 4sig(Fo)  and  0.0470 for all    2826 data
REM    178 parameters refined using      0 restraints

END

WGHT      0.0518      0.1590

REM Highest difference peak  0.179,  deepest hole -0.194,  1-sigma level  0.037
Q1    1   0.2313  0.5872  0.0893  11.00000  0.05    0.18
Q2    1   0.6967  0.6292  0.2177  11.00000  0.05    0.18
Q3    1   0.3585  0.5830  0.1404  11.00000  0.05    0.17
Q4    1   0.7438  0.3094  0.1801  11.00000  0.05    0.17
Q5    1   0.9293  0.3259  0.2108  11.00000  0.05    0.16
Q6    1   0.6197  0.6392  0.1523  11.00000  0.05    0.16
Q7    1   0.6522  0.9388  0.3313  11.00000  0.05    0.15
Q8    1   0.5526  0.2943  0.1332  11.00000  0.05    0.15
Q9    1   0.8307  0.3316  0.1498  11.00000  0.05    0.15
Q10   1   0.2682  0.5242  0.3870  11.00000  0.05    0.15
Q11   1   0.5210  0.8339  0.3088  11.00000  0.05    0.15
Q12   1   0.7244  0.4730  0.1874  11.00000  0.05    0.15
Q13   1   0.6514  0.7588  0.3274  11.00000  0.05    0.15
Q14   1   0.5187  0.6007  0.1769  11.00000  0.05    0.14
Q15   1   0.3939  0.6242  0.4084  11.00000  0.05    0.14
Q16   1   0.6521  0.7157  0.2683  11.00000  0.05    0.14
Q17   1   0.4736  0.4422  0.0933  11.00000  0.05    0.14
Q18   1   0.3207  0.6687  0.3993  11.00000  0.05    0.13
Q19   1   0.5768  0.6432  0.3105  11.00000  0.05    0.13
Q20   1   0.4724  0.7612  0.4206  11.00000  0.05    0.13
;
_shelx_res_checksum              36008
_shelx_hkl_file
;
   0   0  -4 172448. 3063.30   3
   0   0  -5 879.824 67.4161   3
   0   0  -6 2536.44 124.117   3
   0   0  -7 46778.8 958.499   3
   0   0  -8 18563.9 474.417   3
   0   0  -9 5849.26 228.243   3
   0   0 -10 40124.3 888.511   3
   0   0 -11 122801. 2350.11   3
   0   0 -12 13475.4 421.759   3
   0   0 -13 12964.3 416.670   3
   0   0 -14 3685.04 205.799   3
   0   0 -15 3021.54 307.533   2
   0   0 -15 2352.05 166.609   3
   0   0 -16 2863.13 307.717   2
   0   0 -16 2273.24 163.649   3
   0   0 -17 5001.89 410.436   2
   0   0 -17 4769.75 242.637   3
   0   0 -18 2270.18 163.227   3
   0   0 -18 2218.37 284.267   2
   0   0 -19 266.964 117.135   2
   0   0 -19 144.660 48.3767   3
   0   0 -20 3168.99 199.783   3
   0   0 -20 3068.80 355.685   2
   0   0 -21 26412.6 1146.69   2
   0   0 -21 25919.4 714.636   3
   0   0 -22 3792.37 428.356   2
   0   0 -22 3748.74 226.801   3
   0   0 -23 9578.54 710.082   2
   0   0 -24 45184.7 1733.62   2
   0   0 -25 16857.9 1015.07   2
   0   0 -26 847.797 241.912   2
   0   0 -27 7445.45 689.825   2
   0   1 -27 10772.6 927.123   2
   0   1 -26 86.0655 96.8523   2
   0   1 -25 4043.75 479.932   2
   0   1 -24 20512.5 1081.36   2
   0   1 -23 12568.8 808.740   2
   0   1 -22 831.383 207.907   2
   0   1 -21 13640.8 448.208   3
   0   1 -21 13535.5 787.191   2
   0   1 -20 92.8811 44.0143   3
   0   1 -20 115.328 82.9447   2
   0   1 -19 177.480 51.8664   3
   0   1 -19 226.185 95.3886   2
   0   1 -18 77.5843 79.9534   2
   0   1 -18 182.276 50.5138   3
   0   1 -17 7079.34 303.287   3
   0   1 -17 6598.06 475.470   2
   0   1 -16 294.262 111.419   2
   0   1 -16 332.135 62.8708   3
   0   1 -15 374.882 106.979   2
   0   1 -15 208.125 48.9082   3
   0   1 -14 17572.7 515.833   3
   0   1 -14 18340.7 750.209   2
   0   1 -13 15012.3 649.930   2
   0   1 -12 39592.8 1147.59   2
   0   1 -11 9523.12 463.362   2
   0   1 -10 55493.6 1375.66   2
   0   1  -9 29187.3 842.907   2
   0   1  -8 8073.71 361.700   2
   0   1  -7 4836.73 258.493   2
   0   1  -6 42009.3 990.310   2
   0   1  -5 13423.0 426.003   2
   0   1  -4 28260.4 670.174   2
   0   1  -3 36130.1 789.273   2
   0   1  -3 37269.1 711.778   3
   0   1  -2 288714. 5099.13   2
   0  -1  -3 108124. 1976.67   3
   0  -1  -3 109488. 1932.50   1
   0  -1  -4 35924.0 732.589   3
   0  -1  -5 13798.3 352.704   3
   0  -1  -6 1294.25 89.6967   3
   0  -1  -7 15088.8 403.213   3
   0   1   8 386.941 63.3090   3
   0  -1  -8 301.279 47.8146   3
   0  -1  -9 2386.03 138.489   3
   0   1   9 2361.90 162.596   3
   0  -1 -10 29730.7 701.636   3
   0  -1 -11 14629.7 431.797   3
   0  -1 -12 3827.21 197.561   3
   0  -1 -13 3502.54 194.232   3
   0  -1 -14 6515.87 281.914   3
   0  -1 -15 20022.2 581.049   3
   0  -1 -16 23846.1 664.436   3
   0  -1 -17 6993.16 312.131   3
   0  -1 -18 145.067 50.4300   3
   0  -1 -19 265.505 62.0663   3
   0  -1 -20 3152.01 211.048   3
   0  -1 -21 1102.27 123.480   3
   0  -1 -22 1287.55 135.162   3
   0  -1 -22 1609.47 283.247   2
   0  -1 -23 234.644 61.4289   3
   0  -1 -23 227.825 101.213   2
   0  -1 -24 5872.16 563.473   2
   0  -1 -24 6150.64 313.038   3
   0  -1 -25 4035.32 479.866   2
   0  -1 -26 1996.74 348.392   2
   0  -1 -27 2232.47 383.017   2
   0   2 -26 2459.13 383.226   2
   0   2 -25 3450.48 443.127   2
   0   2 -24 86.3387 73.7946   2
   0   2 -23 1036.00 243.878   2
   0   2 -22 15696.3 893.369   2
   0   2 -21 3814.99 417.791   2
   0   2 -20 1348.47 124.678   3
   0   2 -20 1368.91 245.605   2
   0   2 -19 3893.23 396.955   2
   0   2 -19 3484.10 208.286   3
   0   2 -18 1440.63 234.515   2
   0   2 -18 1238.75 121.493   3
   0   2 -17 573.099 151.111   2
   0   2 -16 2628.15 291.244   2
   0   2 -15 230.139 97.0079   2
   0   2 -14 28804.4 1003.46   2
   0   2 -13 51291.4 1429.07   2
   0   2 -12 22150.7 797.747   2
   0   2 -11 18840.5 696.612   2
   0   2 -10 10935.8 338.938   3
   0   2 -10 11714.5 500.874   2
   0  -2   9 7293.53 377.234   2
   0   2  -9 7058.95 361.695   2
   0   2  -9 6680.65 241.000   3
   0   2  -8 1286.65 141.825   2
   0  -2   8 1455.25 157.710   2
   0   2  -8 1390.35 93.0122   3
   0   2  -7 17424.0 573.557   2
   0   2  -7 18576.4 447.182   3
   0   2  -6 5427.03 270.100   2
   0   2  -6 5971.79 196.600   3
   0   2  -5 10681.3 385.643   2
   0   2  -5 11541.8 298.119   3
   0   2  -4 1895.54 95.3361   3
   0  -2   4 1899.09 115.599   3
   0   2  -4 1899.19 135.474   2
   0   2  -3 81234.2 1502.81   3
   0  -2   3 80076.1 1541.04   3
   0   2  -3 80795.6 1607.55   2
   0   2  -2 21853.5 567.914   2
   0  -2   2 23271.4 525.255   3
   0   2  -2 24445.7 508.118   3
   0   2  -1 36.5060 31.7287   2
   0  -2   1 197.869 34.4889   3
   0   2   0 112484. 2153.37   2
   0  -2   0 133964. 2110.96   3
   0   2   1 38223.3 727.601   1
   0  -2  -1 37243.9 767.939   3
   0   2   2 58355.2 1093.12   1
   0  -2  -2 60302.3 1150.01   3
   0  -2  -3 83795.0 1458.07   1
   0  -2  -3 78626.3 1543.84   3
   0   2   3 82727.9 1476.76   1
   0  -2  -4 265772. 4625.94   1
   0   2   4 265914. 4635.98   1
   0  -2  -4 260596. 4719.44   3
   0  -2  -5 2364.63 128.786   3
   0  -2  -5 2199.89 89.9341   1
   0  -2  -6 19295.8 434.035   1
   0  -2  -6 19844.5 501.034   3
   0  -2  -7 22711.0 516.591   1
   0  -2  -7 23204.4 579.383   3
   0  -2  -8 25806.9 649.855   3
   0  -2  -8 27008.5 605.263   1
   0  -2  -9 5.92338 24.0206   3
   0   2   9 43.9319 32.0828   3
   0  -2  -9 71.1668 27.8806   1
   0  -2 -10 48129.5 1071.20   3
   0  -2 -10 48708.4 1048.67   1
   0  -2 -11 77099.9 1593.21   3
   0  -2 -12 25114.6 675.668   3
   0  -2 -13 7362.20 315.407   3
   0  -2 -14 114889. 2290.31   3
   0  -2 -15 21543.2 636.087   3
   0  -2 -16 4579.84 257.659   3
   0  -2 -17 73736.0 1606.07   3
   0  -2 -18 21101.9 648.226   3
   0  -2 -19 2008.24 174.991   3
   0  -2 -20 4835.35 279.064   3
   0  -2 -21 1111.70 135.407   3
   0  -2 -22 10132.6 428.199   3
   0  -2 -23 161.049 62.2061   3
   0  -2 -24 2476.75 203.344   3
   0  -2 -25 9432.03 421.024   3
   0  -2 -26 443.302 191.330   2
   0   3 -26 2778.16 409.386   2
   0   3 -25-24.1522 88.8485   2
   0   3 -24 3262.06 419.077   2
   0   3 -23 11990.8 786.857   2
   0   3 -22 1320.99 251.857   2
   0   3 -21 9099.75 647.808   2
   0   3 -20 8542.63 609.324   2
   0   3 -19 318.909 126.704   2
   0   3 -18 334.480 128.145   2
   0   3 -17 222.397 103.983   2
   0   3 -16 4328.76 372.895   2
   0   3 -16 3669.00 187.082   3
   0   3 -15 113.544 77.8852   2
   0   3 -15 85.1790 36.3079   3
   0   3 -14 243.974 44.8723   3
   0   3 -14 221.511 88.3380   2
   0   3 -13 19929.3 781.191   2
   0   3 -13 21202.6 531.647   3
   0   3 -12 428.555 106.099   2
   0   3 -12 507.291 63.1136   3
   0   3 -11-0.41427 33.5166   2
   0   3 -11 42.5596 23.7206   3
   0   3 -10 4053.44 179.996   3
   0   3 -10 3837.54 278.099   2
   0   3  -9 1419.11 100.229   3
   0   3  -9 1492.60 166.412   2
   0   3  -8 12.8314 15.9569   3
   0   3  -8 45.2415 41.8837   2
   0   3  -7 844.828 114.133   2
   0   3  -7 822.617 73.4526   3
   0   3  -6 7136.67 245.662   3
   0  -3   6 8002.48 392.865   2
   0   3  -6 7581.08 348.373   2
   0  -3   5 9078.11 334.861   3
   0   3  -5 8499.16 360.737   2
   0  -3   5 9238.73 407.111   2
   0   3  -5 9351.93 281.043   3
   0  -3   4 4362.23 260.714   2
   0   3  -4 4457.91 241.177   2
   0  -3   4 4773.09 219.788   3
   0   3  -4 4555.02 181.447   3
   0  -3   3 45464.8 996.751   3
   0   3  -3 46387.8 950.889   3
   0   3  -3 41775.1 1040.10   2
   0   3  -2 105466. 2005.37   3
   0   3  -2 108692. 2129.68   2
   0  -3   2 109378. 2165.22   2
   0  -3   2 105574. 2040.39   3
   0   3  -1 1462.33 128.814   2
   0   3  -1 1418.85 102.001   3
   0  -3   1 1277.99 100.615   3
   0  -3   1 1402.61 128.455   2
   0  -3   0 48876.4 1005.06   3
   0  -3   0 45931.6 1087.97   2
   0   3   1 60533.0 1156.83   1
   0  -3  -1 59291.4 1218.07   3
   0   3   2 51.2058 20.8041   1
   0  -3  -2 76.1503 30.1544   3
   0  -3  -3 766.223 79.3507   3
   0   3   3 650.075 55.3248   1
   0   3   4 56380.9 1083.84   1
   0  -3  -4 57058.3 1176.74   3
   0  -3  -5 60292.9 1251.78   3
   0   3   5 60115.4 1137.21   1
   0  -3  -6 34193.6 784.792   3
   0  -3  -6 32355.4 641.655   1
   0  -3  -7 5913.05 176.924   1
   0  -3  -7 5825.66 254.858   3
   0  -3  -8 10176.0 359.013   3
   0  -3  -8 9685.17 265.786   1
   0  -3  -9 17956.4 526.357   3
   0  -3  -9 17372.1 426.597   1
   0  -3 -10 12.1030 20.9670   3
   0  -3 -10 74.7615 42.7285   1
   0  -3 -11 11138.4 351.615   1
   0  -3 -11 11288.8 407.173   3
   0  -3 -12 276.165 54.2912   1
   0  -3 -12 304.721 72.3089   3
   0  -3 -13 49.5004 28.9947   1
   0  -3 -13 89.8922 43.9804   3
   0  -3 -14 2400.10 173.346   1
   0  -3 -14 2559.72 190.406   3
   0  -3 -15 41197.3 1017.34   3
   0  -3 -15 39081.1 994.274   1
   0  -3 -16 38624.3 996.306   1
   0  -3 -16 39179.1 998.837   3
   0  -3 -17 5336.62 302.845   1
   0  -3 -17 5427.42 297.155   3
   0  -3 -18 7647.10 366.845   3
   0  -3 -19 3342.05 237.062   3
   0  -3 -20 346.033 83.8661   3
   0  -3 -21 3666.31 257.081   3
   0  -3 -22 18724.4 649.289   3
   0  -3 -23 61.8911 58.1916   3
   0  -3 -24 334.093 84.6562   3
   0  -3 -25 5374.98 327.073   3
   0   4 -25-104.181 93.7481   2
   0   4 -24 640.848 194.071   2
   0   4 -23 875.714 216.446   2
   0   4 -22 2279.63 322.818   2
   0   4 -21 1003.04 216.269   2
   0   4 -20 3401.80 372.536   2
   0   4 -19 6128.77 491.476   2
   0   4 -18 10084.2 618.108   2
   0   4 -17 96.7412 81.4088   2
   0   4 -16 196.714 113.566   2
   0   4 -15 27954.1 1016.64   2
   0   4 -14 8366.40 500.090   2
   0   4 -14 8574.50 299.773   3
   0   4 -13 15177.9 430.525   3
   0   4 -13 14146.0 655.659   2
   0   4 -12 20420.3 780.204   2
   0   4 -12 20333.4 527.781   3
   0   4 -11 2749.25 153.765   3
   0   4 -11 2493.67 240.755   2
   0   4 -10 16.5371 28.8999   3
   0   4 -10-11.6657 57.1745   2
   0   4  -9 3122.06 164.889   3
   0   4  -9 3436.61 263.385   2
   0   4  -8 13521.7 543.861   2
   0   4  -8 12993.1 389.552   3
   0   4  -7 5043.65 308.827   2
   0   4  -7 5562.50 228.239   3
   0   4  -6 1300.09 149.691   2
   0  -4   6 1527.08 147.758   3
   0   4  -6 1569.82 118.496   3
   0   4  -5 66928.4 1370.38   3
   0  -4   5 66202.9 1474.61   3
   0   4  -5 69297.6 1543.51   2
   0  -4   4 33939.6 870.873   3
   0   4  -4 31772.1 899.085   2
   0   4  -4 35411.4 796.858   3
   0  -4   3 919.420 105.242   3
   0   4  -3 664.883 101.866   2
   0   4  -3 773.494 85.3240   3
   0  -4   2 3329.24 196.395   3
   0   4  -2 3075.08 219.611   2
   0   4  -2 3635.61 190.239   3
   0   4  -1 1238.09 111.663   3
   0  -4   1 1161.47 111.749   3
   0   4   0 1484.04 109.648   1
   0  -4   0 1650.54 136.683   3
   0   4   0 1168.37 117.538   3
   0  -4  -1 21799.8 592.600   3
   0   4   1 20780.4 519.975   1
   0   4   1 22174.4 609.274   3
   0   4   2 1079.98 86.6969   1
   0  -4  -2 1045.45 105.886   3
   0   4   3 1820.20 108.619   1
   0  -4  -3 2051.63 148.217   3
   0   4   4 17496.8 430.777   1
   0  -4  -4 18830.9 618.929   2
   0  -4  -4 16524.1 508.416   3
   0   4   5 606.768 58.5908   1
   0  -4  -5 629.503 84.7253   3
   0   4   6 3416.55 136.893   1
   0  -4  -6 3680.06 209.228   3
   0  -4  -7 9166.81 359.200   3
   0  -4  -8 36522.3 909.583   3
   0  -4  -9 9584.36 234.194   1
   0  -4  -9 9855.37 385.805   3
   0  -4 -10 23.6282 14.8061   1
   0  -4 -10 101.327 56.3564   3
   0  -4 -11 48921.4 968.144   1
   0  -4 -11 48946.4 1167.09   3
   0  -4 -12 20309.4 637.524   3
   0  -4 -12 20485.0 488.939   1
   0  -4 -13 692.471 71.6761   1
   0  -4 -13 756.648 110.516   3
   0  -4 -14 2201.42 138.506   1
   0  -4 -14 2786.53 209.751   3
   0  -4 -15 640.352 105.440   3
   0  -4 -16 2160.97 191.065   3
   0  -4 -17 1075.50 138.995   3
   0  -4 -18 2930.35 231.062   3
   0  -4 -19 921.476 138.239   3
   0  -4 -20 3407.59 258.710   3
   0  -4 -21 6876.62 379.797   3
   0  -4 -22 1333.94 165.341   3
   0  -4 -23 449.958 101.647   3
   0  -4 -24 1162.05 158.319   3
   0  -4 -25 745.098 127.756   3
   0  -4 -26 873.404 145.496   3
   0   5 -23 216.792 125.409   2
   0   5 -22 82.6705 72.4112   2
   0   5 -21 2264.20 314.251   2
   0   5 -20 2241.24 309.957   2
   0   5 -19-17.5303 72.1894   2
   0   5 -18 11629.8 687.827   2
   0   5 -17 31673.2 1178.65   2
   0   5 -16 80752.1 2132.77   2
   0   5 -15 29710.9 1079.91   2
   0   5 -14 20254.6 840.943   2
   0   5 -13 9969.97 553.918   2
   0   5 -12 25082.6 914.073   2
   0   5 -11 4076.66 327.998   2
   0   5 -10 2190.00 232.370   2
   0   5  -9 589.847 123.199   2
   0   5  -8 201.791 83.4337   2
   0   5  -7 10607.8 496.109   2
   0  -5   6 37676.2 1049.36   3
   0   5  -6 39088.4 1091.55   2
   0   5  -5 2799.68 234.691   2
   0  -5   5 2402.13 205.622   3
   0   5  -4 2386.63 216.276   2
   0  -5   4 2199.01 192.312   3
   0   5  -3 9229.88 444.989   2
   0  -5   3 10707.3 434.337   3
   0   5  -2 578.131 82.8132   1
   0  -5   2 634.878 99.7669   3
   0  -5   1 289.100 69.3404   3
   0   5  -1 366.090 61.0614   1
   0  -5   0 255.620 65.0671   3
   0   5   0 299.321 58.5579   1
   0   5   1 937.409 94.7182   1
   0  -5  -1 972.331 120.871   3
   0  -5  -2 5671.90 290.018   3
   0   5   2 5699.16 241.651   1
   0  -5  -3 851.532 111.341   3
   0   5   3 976.524 92.7284   1
   0  -5  -4 6523.75 315.954   3
   0   5   4 6538.10 244.016   1
   0  -5  -5 6499.27 318.361   3
   0   5   5 6109.81 229.751   1
   0  -5  -6 1225.59 136.461   3
   0   5   6 1147.51 81.9839   1
   0   5   7 2601.10 112.304   1
   0  -5  -7 2769.97 206.672   3
   0  -5  -8 64840.5 1474.55   3
   0  -5  -9 40436.8 1043.51   3
   0  -5 -10 2541.26 207.653   3
   0  -5 -11 29551.2 853.932   3
   0  -5 -12 24348.2 757.975   3
   0  -5 -13 4360.02 284.095   3
   0  -5 -14 2945.61 235.976   3
   0  -5 -15 1586.59 173.232   3
   0  -5 -16 117.360 57.7135   3
   0  -5 -17 826.763 135.992   3
   0  -5 -18 4098.67 294.752   3
   0  -5 -19 7251.55 405.470   3
   0  -5 -20 3389.43 276.051   3
   0  -5 -21 994.051 153.468   3
   0  -5 -22 5413.77 361.046   3
   0  -5 -23 3053.61 273.751   3
   0  -5 -24 157.265 69.8623   3
   0  -5 -25 331.796 103.445   3
   0   6 -21 78.8807 82.6527   2
   0   6 -20 610.385 178.794   2
   0   6 -19 293.334 102.576   2
   0   6 -18 6838.85 525.618   2
   0   6 -17 41.9614 66.7158   2
   0   6 -16 21275.7 937.754   2
   0   6 -15 45.6524 56.4997   2
   0   6 -14 932.123 185.571   2
   0   6 -13 1979.55 248.077   2
   0   6 -12 8369.50 509.518   2
   0   6 -11 1208.12 190.243   2
   0   6 -10 2554.54 264.883   2
   0   6  -9 761.820 153.608   2
   0   6  -8 1824.06 219.035   2
   0   6  -7 366.872 107.103   2
   0  -6   6 448.181 105.629   3
   0   6  -6 469.785 118.001   2
   0   6  -5 3385.79 283.770   2
   0  -6   5 3357.55 273.061   3
   0  -6   4-39.9599 44.0354   3
   0   6  -4 23.8910 31.5933   1
   0   6  -3 2058.07 173.186   1
   0  -6   3 2076.17 209.595   3
   0  -6   2 1947.80 199.356   3
   0   6  -2 1939.68 162.608   1
   0  -6   1 31535.8 935.666   3
   0   6  -1 31981.9 828.593   1
   0  -6   0 8990.87 430.466   3
   0   6   0 8974.26 358.138   1
   0  -6  -1 277.790 75.1310   3
   0   6   1 186.671 56.8221   1
   0   6   2 2097.78 155.723   1
   0  -6  -2 2020.01 191.532   3
   0   6   3 271.784 62.3718   1
   0  -6  -3 292.300 82.4587   3
   0  -6  -4 2224.92 205.685   3
   0   6   4 2557.51 156.175   1
   0  -6  -5 4473.54 292.916   3
   0   6   5 4936.45 215.591   1
   0  -6  -6 639.088 117.977   3
   0   6   6 469.767 58.2592   1
   0  -6  -7 864.313 129.922   3
   0   6   7 954.158 61.9502   1
   0  -6  -8 724.233 123.979   3
   0  -6  -9 22169.1 749.082   3
   0  -6 -10 5177.01 331.592   3
   0  -6 -11 134.867 66.6701   3
   0  -6 -12 2038.21 215.108   3
   0  -6 -13 8008.83 433.586   3
   0  -6 -14 1097.78 160.033   3
   0  -6 -15 2144.96 225.408   3
   0  -6 -16 261.674 96.7289   3
   0  -6 -17 25.1190 49.1760   3
   0  -6 -18 292.933 101.583   3
   0  -6 -19 1275.28 183.643   3
   0  -6 -20 7707.81 460.827   3
   0  -6 -21 4139.83 337.080   3
   0   7 -18 332.632 141.390   2
   0   7 -17 433.214 144.145   2
   0   7 -16 1989.29 281.280   2
   0   7 -15 493.770 149.390   2
   0   7 -14 7047.74 519.023   2
   0   7 -13 7364.49 519.200   2
   0   7 -12-15.6714 65.1320   2
   0   7 -11 5081.95 412.087   2
   0   7 -10 4286.50 370.393   2
   0   7  -9 316.106 97.2486   2
   0   7  -8 70.4918 81.7864   2
   0   7  -7 145.635 71.5664   1
   0   7  -7 207.581 105.443   2
   0   7  -6 1198.15 157.114   1
   0  -7   6 1134.73 187.155   3
   0  -7   5 8014.97 485.076   3
   0   7  -5 8134.94 406.057   1
   0  -7   4 41.0651 76.8647   3
   0   7  -4 70.5093 54.8806   1
   0  -7   3 18612.7 746.135   3
   0   7  -3 16847.1 606.364   1
   0  -7   2 40673.2 1240.53   3
   0   7  -2 42771.4 1089.91   1
   0  -7   1 17448.4 712.510   3
   0   7  -1 17213.8 589.497   1
   0  -7   0 39516.4 1166.97   3
   0   7   0 38055.1 994.888   1
   0  -7  -1 30568.7 989.663   3
   0   7   1 31010.9 835.412   1
   0  -7  -2 107.266 71.3962   3
   0   7   2 80.8811 54.1698   1
   0  -7  -3 1756.95 200.878   3
   0  -7  -4 3723.06 294.911   3
   0  -7  -5 19.5846 48.1315   3
   0  -7  -6 438.535 104.979   3
   0  -7  -7 412.281 116.012   3
   0  -7  -8 980.129 158.036   3
   0  -7  -9 12056.0 573.942   3
   0  -7 -10 10947.8 545.064   3
   0  -7 -11 16790.5 701.017   3
   0  -7 -12 4760.53 356.115   3
   0  -7 -13-16.6791 53.5056   3
   0  -7 -14 1647.76 220.096   3
   0  -7 -15 41.6605 63.7196   3
   0  -7 -16 18.4510 50.8408   3
   0   8 -14 1885.54 258.377   1
   0   8 -13 4394.68 421.349   2
   0   8 -13 4908.43 400.414   1
   0   8 -12 1761.60 240.135   1
   0   8 -12 1393.42 246.854   2
   0   8 -11 5418.53 403.226   1
   0   8 -11 4495.42 423.868   2
   0   8 -10 419.914 126.720   1
   0   8  -9 4381.54 347.339   1
   0   8  -8 583.702 130.725   1
   0   8  -7-47.8444 52.1948   1
   0   8  -6 833.561 146.276   1
   0  -8   5 518.410 134.514   3
   0  -8   4 265.718 111.186   3
   0  -8   3 899.851 177.823   3
   0  -8   2 12123.2 647.352   3
   0  -8   1 11483.3 627.918   3
   0  -8   0 3089.88 313.385   3
   0  -8  -1 1447.67 218.274   3
   0  -8  -2 7980.13 502.325   3
   0  -8  -3 76.1030 78.2864   3
   0  -8  -4 391.181 116.201   3
   0  -8  -5 245.913 101.373   3
   0  -8  -6 7063.41 471.596   3
   0  -8  -7 380.169 129.882   3
   0  -8  -8 543.341 133.941   3
   0  -8  -9 4009.74 357.053   3
   0  -8 -10 1446.19 217.696   3
   0  -9   4 5922.12 504.185   3
   0  -9   3 2197.55 307.691   3
   0  -9   2 2036.14 295.549   3
   0  -9   1 2484.67 325.339   3
   0  -9   0 213.796 103.061   3
   1  -8  -4 116.648 79.7466   3
   1  -8  -3 2933.34 349.853   3
   1  -8  -2 235.782 118.361   3
   1  -8  -1 1255.26 232.626   3
   1  -8   0 1070.95 227.435   3
   1  -8   1 46807.9 1601.65   3
  -1   8  -8 1424.28 218.735   1
  -1   8  -9 798.451 172.564   1
  -1   8 -10 1551.14 244.781   1
   1  -7 -13 4838.99 405.775   3
   1  -7 -12 196.832 110.127   3
   1  -7 -11 1063.14 191.946   3
   1  -7 -10 6889.08 478.469   3
   1  -7  -9 10827.6 605.547   3
   1  -7  -8 10287.6 588.299   3
   1  -7  -7 5775.48 432.988   3
   1  -7  -6 684.319 161.102   3
   1  -7  -5 1282.43 206.028   3
   1  -7  -4 753.619 163.016   3
   1  -7  -3 1183.94 197.578   3
   1  -7  -2 359.699 121.674   3
   1  -7  -1 819.061 165.125   3
  -1   7   1 747.733 123.357   1
   1  -7   0 202.973 84.8920   3
  -1   7   0 230.112 72.0853   1
   1  -7   1 1194.93 207.778   3
  -1   7  -1 1284.93 170.824   1
   1  -7   2 15041.9 762.530   3
  -1   7  -2 15417.8 636.349   1
  -1   7  -3 25676.6 887.184   1
  -1   7  -4 7844.45 452.909   1
  -1   7  -5 166.976 83.2855   1
  -1   7  -6 3797.50 317.453   1
  -1   7  -7 3944.95 327.886   1
  -1   7  -8 1732.38 223.155   1
  -1   7  -9 164.034 83.3443   1
  -1   7 -10 627.005 146.058   1
  -1   7 -11 7545.69 488.910   1
  -1   7 -12 1818.53 246.592   1
  -1   7 -13 315.314 119.621   1
  -1   7 -14 2800.45 312.724   1
   1  -6 -19 557.338 148.190   3
   1  -6 -18 4144.88 356.879   3
   1  -6 -17 7711.88 490.368   3
   1  -6 -16 2207.50 257.362   3
   1  -6 -15 37.4593 50.4535   3
   1  -6 -14-17.7509 57.1054   3
   1  -6 -13 9456.33 523.629   3
   1  -6 -12 1475.44 200.282   3
   1  -6 -11 191.384 70.2274   3
   1  -6 -10 1311.14 180.757   3
   1  -6  -9 1322.66 191.206   3
   1  -6  -8 141.604 74.5252   3
  -1   6   7 1079.12 125.908   1
   1  -6  -7 958.060 159.219   3
  -1   6   6 214.921 67.6947   1
   1  -6  -6 271.425 94.4592   3
  -1   6   5 108.234 44.5394   1
   1  -6  -5 309.440 107.118   3
  -1   6   4 400.243 84.3254   1
   1  -6  -4 378.615 113.945   3
   1  -6  -3 852.599 158.260   3
  -1   6   3 727.649 110.606   1
  -1   6   2 21769.2 700.495   1
   1  -6  -2 21513.2 831.298   3
  -1   6   1 2393.71 207.237   1
   1  -6  -1 2069.52 241.328   3
   1  -6   0 5507.25 393.063   3
  -1   6   0 5701.84 330.230   1
   1  -6   1 8851.80 512.559   3
  -1   6  -1 9538.79 449.095   1
  -1   6  -2 1466.07 174.515   1
   1  -6   2 1168.20 188.710   3
  -1   6  -3 518.723 109.153   1
   1  -6   3 568.783 125.477   3
  -1   6  -4 1091.16 151.020   1
  -1   6  -5 4804.29 321.671   1
  -1   6  -6 429.882 104.101   1
  -1   6  -7 4836.08 333.841   1
  -1   6  -8 5434.78 362.969   2
  -1   6  -8 4809.93 341.800   1
  -1   6  -9 1159.00 178.099   1
  -1   6  -9 1008.73 160.913   2
  -1   6 -10-25.1001 60.0092   1
  -1   6 -10 31.4233 60.6208   2
  -1   6 -11 1789.26 218.890   1
  -1   6 -11 1459.21 202.291   2
  -1   6 -12 76.1423 71.7380   1
  -1   6 -12 137.739 96.5693   2
  -1   6 -13 918.476 164.834   1
  -1   6 -13 1008.17 176.909   2
  -1   6 -14 161.519 80.1291   1
  -1   6 -14 215.806 109.561   2
  -1   6 -15 1477.05 211.084   1
  -1   6 -15 1347.45 210.583   2
  -1   6 -16 10056.9 588.738   2
  -1   6 -16 10574.5 599.651   1
   1  -5 -23 117.208 81.1474   3
   1  -5 -22 3434.72 307.270   3
   1  -5 -21 765.317 153.119   3
   1  -5 -20 2164.96 237.085   3
   1  -5 -19 15655.1 666.715   3
   1  -5 -18 1653.40 202.773   3
   1  -5 -17 2636.02 250.353   3
   1  -5 -16 1668.00 199.937   3
   1  -5 -15 5235.57 349.756   3
   1  -5 -14 1152.82 168.114   3
   1  -5 -13 5108.90 338.915   3
   1  -5 -12 16009.3 631.436   3
   1  -5 -11 66.0263 56.3882   3
   1  -5 -10 1142.55 154.732   3
  -1   5   9 6473.11 296.910   1
   1  -5  -9 6140.55 364.345   3
  -1   5   8 379.966 72.3103   1
   1  -5  -8 345.070 86.0228   3
   1  -5  -7 226.707 68.6518   3
  -1   5   7 332.501 69.1707   1
   1  -5  -6 307.180 89.8668   3
  -1   5   6 315.670 70.4372   1
  -1   5   5 411.992 80.8910   1
   1  -5  -5 323.990 89.8763   3
  -1   5   4 179.180 55.4676   1
   1  -5  -4 196.337 74.5792   3
  -1   5   3 171.640 54.1694   1
   1  -5  -3 193.502 75.5356   3
  -1   5   2 5049.88 281.729   1
   1  -5  -2 5082.53 330.637   3
   1  -5  -1 1180.51 161.372   3
  -1   5   1 1007.75 126.052   1
  -1   5   0 966.510 125.559   1
   1  -5   0 834.224 136.865   3
   1  -5   1 2712.51 247.729   3
  -1   5  -1 2549.03 204.709   1
  -1   5  -2 349.084 86.7294   1
   1  -5   2 257.773 76.9622   3
   1  -5   3 302.640 90.8586   3
  -1   5  -3 405.835 88.4029   1
  -1   5  -4 44.7812 56.0700   1
  -1   5  -5 10049.6 443.760   1
  -1   5  -6 9030.03 428.408   2
  -1   5  -6 9587.67 437.412   1
  -1   5  -7 7474.81 385.698   1
  -1   5  -7 6438.02 359.954   2
  -1   5  -8 14945.2 593.144   2
  -1   5  -8 15518.9 601.781   1
  -1   5  -9 46620.1 1264.95   2
  -1   5  -9 49169.1 1280.36   1
  -1   5 -10 9986.62 484.849   2
  -1   5 -10 10145.7 489.413   1
  -1   5 -11 6092.48 377.540   2
  -1   5 -12 7639.95 435.683   2
  -1   5 -13 4908.57 359.230   2
  -1   5 -14 1224.42 188.460   2
  -1   5 -15 1601.00 217.838   2
  -1   5 -16 6064.55 435.194   2
  -1   5 -17 12976.9 678.287   2
  -1   5 -18 4024.70 373.814   2
  -1   5 -19 3708.93 370.719   2
  -1   5 -20 14523.1 776.256   2
  -1   5 -21 8697.12 602.192   2
   1  -4 -24 220.651 80.6945   3
   1  -4 -23 483.989 110.922   3
   1  -4 -22-23.0871 51.5995   3
   1  -4 -21 383.190 91.3960   3
   1  -4 -20 1673.80 187.109   3
   1  -4 -19 258.624 84.1194   3
   1  -4 -18 573.883 108.248   3
   1  -4 -17 4467.44 298.712   3
   1  -4 -16 21376.8 716.410   3
   1  -4 -15 13543.7 534.063   3
   1  -4 -14 26676.0 809.985   3
   1  -4 -13 83803.0 1853.93   3
   1  -4 -12 39714.4 957.779   1
   1  -4 -12 39648.9 1043.05   3
   1  -4 -11 5520.31 309.535   3
   1  -4 -11 5663.05 269.821   1
   1  -4 -10 2840.66 181.058   1
   1  -4 -10 2640.90 208.671   3
  -1   4   9 217.847 59.4702   1
   1  -4  -9 343.747 62.3071   1
   1  -4  -9 234.666 65.4541   3
   1  -4  -8 2402.09 152.175   1
  -1   4   8 2126.89 163.741   1
   1  -4  -8 2268.28 190.862   3
   1  -4  -7 5589.52 236.539   1
   1  -4  -7 5652.18 303.495   3
  -1   4   7 5337.41 265.536   1
   1  -4  -6 1369.96 145.874   3
  -1   4   6 1431.09 133.966   1
   1  -4  -6 1478.88 115.314   1
  -1   4   5 4691.30 250.415   1
   1  -4  -5 4287.18 263.045   3
   1  -4  -4 9708.89 388.569   3
  -1   4   4 9570.37 343.799   1
   1  -4  -3 13767.7 508.244   3
  -1   4   3 13005.5 455.445   1
  -1   4   2 14739.4 492.597   1
   1  -4  -2 15201.3 549.140   3
   1  -4  -1 4514.18 282.243   3
  -1   4   1 5215.92 264.012   1
  -1   4   0 3103.65 205.880   1
   1  -4   0 3172.55 234.608   3
   1  -4   1 5497.60 300.764   2
   1  -4   1 5556.85 322.003   3
  -1   4  -1 5574.68 280.570   1
  -1   4  -2 3499.01 218.581   1
   1  -4   2 3233.51 250.408   3
   1  -4   2 3491.81 240.373   2
  -1   4  -3 2666.11 193.488   1
   1  -4   3 2795.23 233.218   3
   1  -4   3 2887.24 222.948   2
  -1   4  -4 2376.96 183.456   1
  -1   4  -4 2423.69 187.681   2
  -1   4  -5 378.919 79.6416   2
  -1   4  -5 516.150 90.2294   1
  -1   4  -6 166.337 64.8096   1
  -1   4  -6 119.474 51.1459   2
  -1   4  -7 3683.72 244.810   2
  -1   4  -7 4481.23 273.604   1
  -1   4  -8 77798.4 1290.71   2
   1  -4   8 23111.7 1016.08   2
  -1   4  -9 37488.2 1017.02   2
  -1   4 -10 5439.13 326.098   2
  -1   4 -11 15741.4 613.758   2
  -1   4 -12 35399.8 1048.95   2
  -1   4 -13 7433.79 428.962   2
  -1   4 -14 3395.10 293.416   2
  -1   4 -15 1244.06 185.080   2
  -1   4 -16-34.4586 90.1562   2
  -1   4 -17 1797.80 240.106   2
  -1   4 -18 4614.43 398.503   2
  -1   4 -19 360.033 126.642   2
  -1   4 -20 149.924 97.6949   2
  -1   4 -21 42.2984 76.3203   2
  -1   4 -22 1681.10 267.982   2
  -1   4 -23 727.829 189.837   2
  -1   4 -24 160.276 97.4604   2
   1  -3 -24 932.441 139.712   3
   1  -3 -23 3920.29 275.372   3
   1  -3 -22 1030.89 138.536   3
   1  -3 -21 653.449 105.080   3
   1  -3 -20 1835.24 177.193   3
   1  -3 -19 3763.45 252.336   3
   1  -3 -18 443.373 93.1137   3
   1  -3 -17 3513.24 233.945   3
   1  -3 -16 11032.5 436.604   3
   1  -3 -15 112590. 2309.06   3
   1  -3 -15 114205. 2398.34   1
   1  -3 -14 4420.18 256.799   3
   1  -3 -14 3989.28 263.275   1
   1  -3 -13 83725.3 1734.51   3
   1  -3 -13 78328.3 1749.16   1
   1  -3 -12 9851.23 398.896   1
   1  -3 -12 11216.9 414.723   3
   1  -3 -11 25090.4 702.728   3
   1  -3 -11 24406.2 684.379   1
   1  -3 -10-22.3717 30.3813   1
   1  -3 -10-2.91378 29.4166   3
   1  -3  -9 3.24848 29.7533   1
   1  -3  -9 45.4431 33.7957   3
   1  -3  -8 583.139 78.5494   1
  -1   3   8 625.258 85.0285   1
   1  -3  -8 705.270 90.0104   3
  -1   3   7 5202.24 254.477   1
   1  -3  -7 5134.55 235.104   1
   1  -3  -7 5459.68 264.208   3
   1  -3  -6 36.2693 27.0542   1
   1  -3  -6 86.4037 44.5150   3
  -1   3   6 42.8008 25.2231   1
   1  -3  -5 72531.7 1445.72   1
   1  -3  -5 69395.4 1508.21   3
  -1   3   5 71372.5 1501.00   1
   1  -3  -4 822.624 100.173   3
   1  -3  -4 828.961 84.3725   1
  -1   3   4 879.288 96.6821   1
  -1   3   3 14736.9 463.989   1
   1  -3  -3 15235.3 493.881   3
   1  -3  -3 15649.9 431.304   1
   1  -3  -2 10568.1 399.205   3
  -1   3   2 10827.3 377.540   1
   1  -3  -2 10643.4 382.978   2
   1  -3  -2 10980.9 342.590   1
  -1   3   1 89094.2 1771.60   1
   1  -3  -1 86903.9 1826.16   3
   1  -3  -1 85507.9 1770.88   2
   1  -3   0 3244.14 189.092   2
   1  -3   0 3022.22 206.804   3
  -1   3   0 2998.95 183.823   1
   1  -3   1 4212.02 218.064   2
  -1   3  -1 3359.39 195.267   1
   1  -3   1 3198.71 216.604   3
   1  -3   2 9125.87 346.597   2
   1  -3   2 8149.71 372.530   3
  -1   3  -2 8857.61 323.237   3
  -1   3  -2 8218.10 325.875   1
   1  -3   3 915.332 105.326   2
  -1   3  -3 954.174 102.626   1
  -1   3  -3 955.615 98.5379   3
  -1   3  -3 879.969 94.2850   2
  -1   3  -4 353.584 68.4947   1
   1  -3   4 262.100 61.8279   2
  -1   3  -4 309.628 59.1830   2
  -1   3  -4 198.878 48.0433   3
  -1   3  -5 1296.14 118.968   3
  -1   3  -5 1433.68 132.710   1
  -1   3  -5 1419.33 125.816   2
   1  -3   5 1490.90 147.425   2
  -1   3  -6 2475.87 171.679   2
  -1   3  -6 2608.66 173.126   3
   1  -3   6 2549.75 200.079   2
  -1   3  -7 134.431 45.5126   2
   1  -3   7 205.575 66.5741   2
  -1   3  -7 136.031 45.4697   3
   1  -3   8 5505.53 318.729   2
  -1   3  -8 4779.69 267.431   2
  -1   3  -8 5200.36 261.443   3
  -1   3  -9 13594.7 508.013   2
  -1   3  -9 14361.1 485.029   3
  -1   3 -10 2272.83 176.794   3
  -1   3 -10 2100.95 189.552   2
   1  -3  11 321.882 88.9598   2
  -1   3 -11 395.515 90.1282   2
  -1   3 -12 5244.98 329.823   2
  -1   3 -13 1597.27 186.147   2
  -1   3 -14 21.6300 37.8895   2
  -1   3 -15 51.2424 40.8524   2
  -1   3 -16 835.367 154.756   2
  -1   3 -17 538.088 131.053   2
  -1   3 -18 609.327 147.603   2
  -1   3 -19 3399.31 350.371   2
  -1   3 -20 617.364 160.283   2
  -1   3 -21 1083.35 208.577   2
  -1   3 -22 633.391 192.453   2
  -1   3 -23 17058.8 925.462   2
  -1   3 -24 7654.19 621.124   2
  -1   3 -25 384.116 166.530   2
  -1   3 -26 202.374 114.190   2
   1  -2 -25 34072.2 1545.03   2
   1  -2 -24 2807.37 405.378   2
   1  -2 -23 26.1045 41.6310   3
   1  -2 -22 351.486 79.3003   3
   1  -2 -21 197.825 62.2159   3
   1  -2 -20 146.445 62.3551   3
   1  -2 -19 158.100 49.7951   3
   1  -2 -18 375.364 71.5700   3
   1  -2 -17 1441.70 134.297   3
   1  -2 -16 4603.82 239.140   3
   1  -2 -15 1573.51 133.967   3
   1  -2 -14 66454.3 1538.53   1
   1  -2 -14 64603.6 1383.70   3
   1  -2 -13 17504.0 513.196   3
   1  -2 -13 17763.6 606.989   1
   1  -2 -12 4053.05 251.301   1
   1  -2 -12 3914.94 204.602   3
   1  -2 -11 7186.77 332.684   1
   1  -2 -11 6949.73 281.090   3
   1  -2 -10 3261.68 181.251   3
   1  -2 -10 3310.11 209.664   1
   1  -2  -9 1167.66 104.338   3
   1  -2  -9 1221.01 121.113   1
  -1   2   8 442.755 70.6150   1
   1  -2  -8 551.979 82.3199   1
   1  -2  -8 545.336 70.3761   3
   1  -2  -7 710.133 81.1606   1
   1  -2  -7 961.715 92.1114   3
  -1   2   7 871.457 89.3827   3
  -1   2   7 908.133 97.3161   1
  -1   2   6 946.353 98.9863   1
   1  -2  -6 932.817 90.0400   3
   1  -2  -6 823.033 86.5644   1
   1  -2  -5 44109.6 977.460   1
  -1   2   5 44386.1 994.300   1
   1  -2  -5 45524.9 981.734   3
  -1   2   4 52623.5 1131.12   1
   1  -2  -4 52181.9 1096.33   1
   1  -2  -4 51404.6 1113.18   3
   1  -2  -3 1305.25 111.226   3
   1  -2  -3 1445.84 111.990   1
  -1   2   3 1296.34 108.796   1
   1  -2  -2 75861.0 1481.23   1
  -1   2   2 73571.9 1506.60   1
   1  -2  -2 75162.0 1527.07   3
  -1   2   1 85962.4 1703.16   1
   1  -2  -1 83384.2 1737.03   3
   1  -2  -1 88554.8 1669.41   1
   1  -2   0 24282.1 577.576   1
   1  -2   0 22995.8 563.947   2
   1  -2   0 25130.5 651.886   3
  -1   2   0 24003.4 609.251   1
   1  -2   1 3848.03 217.863   3
  -1   2  -1 4015.53 195.119   1
   1  -2   1 4319.49 179.674   2
   1  -2   2 1399.36 100.106   2
  -1   2  -2 1096.77 83.6628   2
  -1   2  -2 1379.59 109.577   1
  -1   2  -3 66599.6 1375.71   1
  -1   2  -3 63813.1 1313.80   2
  -1   2  -4 27143.8 666.171   1
   1  -2   4 27147.9 670.711   2
  -1   2  -4 26328.3 678.856   3
  -1   2  -4 25943.0 618.711   2
  -1   2  -5 8222.56 290.455   2
   1  -2   5 9133.78 342.210   2
  -1   2  -5 8027.42 318.896   3
  -1   2  -6 9446.33 353.240   3
  -1   2  -6 8837.71 323.133   2
   1  -2   6 9111.27 353.842   2
  -1   2  -7 19572.8 571.786   2
  -1   2  -7 19683.7 591.522   3
  -1   2  -8 48301.8 1128.84   3
  -1   2  -8 46546.9 1116.45   2
   1  -2   8 51153.3 1183.35   2
  -1   2  -9 21452.1 663.530   2
  -1   2 -10 2901.29 223.314   2
  -1   2 -11 9708.51 448.785   2
  -1   2 -12 9506.27 459.303   2
  -1   2 -13 3694.24 290.242   2
  -1   2 -14 18772.4 740.400   2
  -1   2 -15 16602.0 714.533   2
  -1   2 -16-15.6701 63.1709   2
  -1   2 -17 0.83719 49.2828   2
  -1   2 -18 66.9514 62.6325   2
  -1   2 -19 13402.9 730.591   2
  -1   2 -20 9115.37 609.564   2
  -1   2 -21 2735.76 339.211   2
  -1   2 -22 12603.1 771.433   2
  -1   2 -23 1850.44 297.174   2
  -1   2 -24-214.113 116.924   2
  -1   2 -25 1078.55 237.026   2
  -1   2 -26-60.8328 84.9136   2
  -1   2 -27 37.4249 88.4752   2
   1  -1 -26 4062.21 512.264   2
   1  -1 -25 1657.19 320.416   2
   1  -1 -24 113.601 86.4675   2
   1  -1 -23 13.2826 76.3685   2
   1  -1 -22 380.043 146.853   2
   1  -1 -22 544.013 78.7862   3
   1  -1 -21 670.183 200.008   2
   1  -1 -21 782.442 90.6664   3
   1  -1 -20 444.378 155.493   2
   1  -1 -20 480.868 71.1247   3
   1  -1 -19 50.8307 32.4447   3
   1  -1 -18 5765.97 249.473   3
   1  -1 -17 7793.62 293.209   3
   1  -1 -16 7905.19 290.694   3
   1  -1 -15 47370.3 1018.81   3
   1  -1 -14 37680.6 843.078   3
  -1   1  14 38265.8 964.154   3
   1  -1 -13 1433.46 105.805   3
  -1   1  13 1312.37 129.866   3
   1  -1 -13 1443.82 160.233   1
   1  -1 -12 8603.07 387.997   1
  -1   1  12 7345.40 315.027   3
   1  -1 -12 8412.89 277.714   3
   1  -1 -11 1227.79 92.5873   3
  -1   1  11 1115.39 106.306   3
   1  -1 -11 1045.61 124.726   1
  -1   1  10 22695.5 594.913   3
   1  -1 -10 24329.1 563.803   3
   1  -1 -10 24564.4 698.683   1
   1  -1  -9 82271.7 1592.53   3
   1  -1  -9 84811.4 1742.10   1
  -1   1   9 82518.1 1629.10   3
   1  -1  -8 8638.98 339.061   1
  -1   1   8 8249.61 277.247   3
   1  -1  -8 8526.78 267.622   3
   1  -1  -7 5407.89 245.508   1
  -1   1   7 5103.65 198.197   3
   1  -1  -7 4914.38 188.554   3
  -1   1   6 217.408 38.1058   3
  -1   1   6 133.878 41.6447   1
   1  -1  -6 134.905 40.9087   1
   1  -1  -6 314.335 45.5974   3
  -1   1   5 37878.6 855.410   1
   1  -1  -5 36770.7 792.611   3
   1  -1  -5 38272.9 858.723   1
  -1   1   4 12250.5 371.147   1
   1  -1  -4 12141.8 337.268   3
   1  -1  -4 11585.1 359.101   1
   1  -1  -3 7737.15 263.305   1
  -1   1   3 7651.01 273.866   1
   1  -1  -3 7074.44 247.201   3
   1  -1  -2 20100.2 503.633   3
  -1   1   2 19750.4 503.264   1
   1  -1  -1 186934. 3447.02   3
  -1   1   1 189566. 3430.76   1
  -1   1   0 9062.31 290.104   1
  -1   1  -1 446309. 7646.18   1
   1  -1   1 428478. 7524.57   2
  -1   1  -2 996795. 17337.1   1
   1  -1   2 992772. 17242.0   2
  -1   1  -2 999999. 17221.0   2
   1  -1   3 58230.0 1088.11   2
  -1   1  -3 55899.0 1068.09   2
  -1   1  -3 55445.9 1145.54   1
  -1   1  -4 13242.8 379.281   1
   1  -1   4 13184.1 353.435   2
  -1   1  -4 13715.5 346.073   2
  -1   1  -5 157250. 2891.78   2
  -1   1  -6 4160.78 203.881   2
  -1   1  -7 35582.8 858.813   2
  -1   1  -8 3712.87 221.124   2
  -1   1  -9 64297.7 1448.92   2
  -1   1 -10 96161.8 2059.42   2
  -1   1 -11 9072.93 430.505   2
  -1   1 -12 70147.7 1687.59   2
  -1   1 -13 23219.0 816.474   2
  -1   1 -14 914.988 152.039   2
  -1   1 -15 9970.09 537.818   2
  -1   1 -16 5212.67 395.595   2
  -1   1 -17 10913.4 605.080   2
  -1   1 -18 121.799 81.5482   2
  -1   1 -19-24.8165 66.1123   2
  -1   1 -20 42.7340 33.2135   3
  -1   1 -20-33.6047 63.6173   2
  -1   1 -21 149.993 62.7476   3
  -1   1 -21 144.066 106.140   2
  -1   1 -22 78.0955 43.3660   3
  -1   1 -22 137.553 101.855   2
  -1   1 -23 1393.66 262.393   2
  -1   1 -23 1128.67 153.818   3
  -1   1 -24-79.0343 95.3798   2
  -1   1 -25 23.3990 88.9080   2
  -1   1 -26 1002.78 247.005   2
  -1   1 -27 89.7735 102.190   2
   1   0 -26 23.7943 88.9068   2
   1   0 -25 10352.5 784.650   2
   1   0 -24 810.829 219.343   2
   1   0 -23 303.902 136.965   2
   1   0 -22 211.146 118.659   2
   1   0 -21 773.721 191.362   2
   1   0 -21 772.794 79.4694   3
   1   0 -20-0.79092 21.0206   3
   1   0 -20 81.4309 76.1365   2
   1   0 -19 243.931 125.611   2
   1   0 -19 245.882 48.3789   3
   1   0 -18 6096.29 226.573   3
   1   0 -18 6543.18 495.897   2
   1   0 -17 172.223 94.1311   2
   1   0 -17 290.217 47.8219   3
   1   0 -16 238.488 41.4281   3
   1   0 -16 177.249 77.2603   2
   1   0 -15 7597.91 490.597   2
   1   0 -15 7637.83 244.104   3
   1   0 -14 2651.62 275.792   2
   1   0 -14 2644.06 126.306   3
   1   0 -13 294.734 94.5453   2
   1   0 -13 478.981 51.5082   3
   1   0 -12 18940.2 740.210   2
   1   0 -12 19463.1 445.622   3
  -1   0  12 18504.0 514.855   3
   1   0 -11 11719.4 295.998   3
  -1   0  11 11013.9 349.614   3
   1   0 -11 11841.1 540.618   2
   1   0 -10 42733.3 1210.15   2
  -1   0  10 45861.1 964.746   3
   1   0 -10 47055.2 900.654   3
   1   0  -9 886.899 129.587   2
   1   0  -9 1131.68 67.3769   3
  -1   0   9 990.854 76.9306   3
  -1   0   8 33114.0 709.174   3
   1   0  -8 36047.1 696.471   3
   1   0  -8 36032.9 875.209   1
   1   0  -8 34222.0 948.879   2
   1   0  -7 261297. 4605.55   3
  -1   0   7 262926. 4616.32   3
   1   0  -6 4237.73 138.934   3
  -1   0   6 4089.99 133.469   3
   1   0  -6 4079.83 238.013   2
   1   0  -5 249044. 4533.44   2
   1   0  -5 245747. 4336.19   3
  -1   0   5 245614. 4312.68   3
   1   0  -4 211628. 3723.28   3
   1   0  -4 210150. 3856.42   2
  -1   0   4 206290. 3812.30   1
   1   0  -3 139921. 2554.59   3
  -1   0   3 141257. 2620.60   1
   1   0  -3 143096. 2625.35   2
   1   0  -2 28533.8 630.077   2
  -1   0   2 28973.0 651.505   1
  -1   0   1 36225.5 777.684   1
  -1   0   0 376345. 6629.58   1
  -1   0  -1 48777.0 979.907   1
  -1   0  -2 44473.6 902.845   1
  -1   0  -3 629794. 10984.4   1
  -1   0  -4 219479. 3924.46   1
  -1   0 -16 5042.15 393.772   2
  -1   0 -17 4087.07 282.498   3
  -1   0 -17 4706.24 391.847   2
  -1   0 -18 16163.0 617.884   3
  -1   0 -18 16902.7 805.586   2
  -1   0 -19 21570.5 744.945   3
  -1   0 -19 21935.7 969.272   2
  -1   0 -20 50821.4 1318.97   3
  -1   0 -20 50092.7 1639.37   2
  -1   0 -21 17215.2 660.902   3
  -1   0 -21 18892.7 930.343   2
  -1   0 -22 2160.71 214.997   3
  -1   0 -22 2288.99 328.191   2
  -1   0 -23 5498.62 515.927   2
  -1   0 -23 4491.39 311.669   3
  -1   0 -24 774.209 126.039   3
  -1   0 -24 866.502 207.080   2
  -1   0 -25 680.749 202.981   2
  -1   0 -26 81.3428 84.7939   2
  -1   0 -27-39.7410 85.1801   2
   1   1 -26 3256.26 462.887   2
   1   1 -25 16019.3 1000.98   2
   1   1 -24 121.404 120.254   2
   1   1 -23 3089.98 402.109   2
   1   1 -22 93.5021 73.0969   2
   1   1 -21 138.233 123.046   2
   1   1 -20 13449.0 782.279   2
   1   1 -19 2992.57 124.877   3
   1   1 -19 3080.07 347.345   2
   1   1 -18 139.554 27.3984   3
   1   1 -18 115.960 86.2995   2
   1   1 -17 9191.68 243.765   3
   1   1 -17 7830.13 537.122   2
   1   1 -16 990.772 180.908   2
   1   1 -16 984.385 62.5292   3
   1   1 -15 1.20063 49.6197   2
   1   1 -15 7.50644 10.3320   3
   1   1 -14 587.069 131.965   2
   1   1 -14 674.869 46.9431   3
   1   1 -13 2738.27 269.780   2
   1   1 -13 3211.35 106.199   3
   1   1 -12 2728.97 90.8882   3
   1   1 -12 2608.78 253.813   2
   1   1 -11 2511.32 237.460   2
   1   1 -11 2736.11 85.5900   3
   1   1 -10 35013.8 649.245   3
   1   1 -10 37084.8 1038.11   2
   1   1  -9 25048.4 470.861   3
   1   1  -9 27342.1 815.239   2
   1   1  -8 58955.8 1407.80   2
   1   1  -7 118619. 2431.48   2
   1   1  -6 102291. 2124.74   2
   1   1  -5 244820. 4532.31   2
   1   1  -4 750150. 13182.5   2
   1   1  -3 753880. 13209.2   2
  -1  -1   2 37452.4 791.422   1
   1   1  -2 36570.9 804.148   2
  -1  -1   1 65825.4 1271.58   1
   1   1  -1 65020.5 1278.14   2
   1   1   0 62955.9 1219.94   2
  -1  -1   0 64184.8 1224.68   1
   1   1   1 24965.5 551.347   2
  -1  -1  -1 25950.5 554.438   1
  -1  -1  -2 40632.4 808.130   1
  -1  -1  -3 25849.5 547.826   1
  -1  -1  -4 62537.2 1184.86   1
  -1  -1  -5 46588.1 913.018   1
  -1  -1 -11 445.400 90.0757   3
  -1  -1 -12 2395.60 195.714   3
  -1  -1 -13 2247.10 193.812   3
  -1  -1 -14 1798.45 177.262   3
  -1  -1 -15 15696.2 589.137   3
  -1  -1 -16 13122.1 532.913   3
  -1  -1 -17 60288.9 1476.40   3
  -1  -1 -18 49717.4 1290.63   3
  -1  -1 -19 79062.1 1835.23   3
  -1  -1 -20 5977.85 358.628   3
  -1  -1 -21 37839.9 1078.62   3
  -1  -1 -22 4922.69 326.075   3
  -1  -1 -23 7079.65 596.184   2
  -1  -1 -23 6252.21 367.946   3
  -1  -1 -24 2060.59 327.356   2
  -1  -1 -24 1545.04 177.285   3
  -1  -1 -25 13.3925 47.8376   3
  -1  -1 -25 102.177 102.194   2
  -1  -1 -26 284.302 126.268   2
  -1  -1 -27 3762.31 480.906   2
   1   2 -26-220.538 138.758   2
   1   2 -25 1616.19 305.258   2
   1   2 -24 2811.71 393.492   2
   1   2 -23 207.180 121.099   2
   1   2 -22 2375.59 343.010   2
   1   2 -21 3888.54 428.575   2
   1   2 -20 6645.65 553.802   2
   1   2 -19 17275.3 887.506   2
   1   2 -18 2536.87 324.883   2
   1   2 -17 14758.6 764.984   2
   1   2 -16 1891.24 260.792   2
   1   2 -15 2021.34 256.329   2
   1   2 -14 8998.19 528.390   2
   1   2 -13 1421.16 197.342   2
   1   2 -12 1382.76 189.980   2
   1   2 -11 2464.50 236.946   2
   1   2 -10 4951.52 330.769   2
   1   2  -9 680.966 118.260   2
   1   2  -8 2332.50 204.606   2
   1   2  -7 25297.4 764.927   2
   1   2  -6 10173.2 413.217   2
   1   2  -5 4958.52 262.383   2
  -1  -2   5 4845.73 123.124   3
   1   2  -5 5136.48 148.252   3
   1   2  -4 4144.40 144.639   3
   1   2  -4 4577.13 238.489   2
  -1  -2   4 4392.13 120.876   3
   1   2  -3 42453.7 860.028   3
   1   2  -3 42691.7 991.258   2
  -1  -2   3 43552.8 819.307   3
   1   2  -2 1280.11 112.393   2
   1   2  -2 1137.96 82.7947   3
  -1  -2   2 1177.55 70.2418   3
   1   2  -1 34911.4 760.366   3
  -1  -2   1 35514.5 723.938   3
   1   2  -1 33434.0 798.822   2
   1   2   0 10682.4 334.110   3
  -1  -2   0 10560.5 311.486   3
   1   2   0 11150.0 358.333   2
   1   2   0 11384.6 301.556   1
   1   2   1 25.0560 35.0670   1
   1   2   1 22.7616 26.7090   2
  -1  -2  -1 4.21973 18.3847   3
  -1  -2  -2 888.866 88.1236   3
  -1  -2  -2 1067.94 63.4125   1
   1   2   2 818.395 60.8434   1
  -1  -2  -3 5702.29 158.946   1
  -1  -2  -3 5572.91 242.558   3
   1   2   3 5601.85 152.768   1
  -1  -2  -4 3941.58 206.229   3
   1   2   4 4211.37 114.678   1
  -1  -2  -4 4127.27 126.052   1
  -1  -2  -5 9807.79 364.262   3
  -1  -2  -5 10013.8 240.291   1
  -1  -2  -6 14439.0 472.147   3
  -1  -2  -6 14119.7 320.723   1
  -1  -2  -7 418200. 7699.72   3
  -1  -2  -7 430764. 7462.07   1
  -1  -2  -8 218.666 75.2735   3
  -1  -2  -9 33180.7 885.323   3
  -1  -2 -10 44.5359 42.9944   3
  -1  -2 -11 16952.8 585.221   3
  -1  -2 -12 2258.53 195.511   3
  -1  -2 -13 763.373 113.549   3
  -1  -2 -14 925.031 129.385   3
  -1  -2 -15 973.261 131.761   3
  -1  -2 -16 4223.81 285.809   3
  -1  -2 -17 58103.9 1431.26   3
  -1  -2 -18 31665.4 939.364   3
  -1  -2 -19 1219.81 155.918   3
  -1  -2 -20 10268.3 475.495   3
  -1  -2 -21 22990.6 773.015   3
  -1  -2 -22 847.210 130.195   3
  -1  -2 -23 1961.67 202.790   3
  -1  -2 -24 174.082 67.4314   3
  -1  -2 -25 1431.51 175.183   3
  -1  -2 -26 310.532 97.1922   3
  -1  -2 -27 840.596 235.199   2
   1   3 -25 288.659 158.767   2
   1   3 -24 138.989 106.563   2
   1   3 -23 575.990 196.369   2
   1   3 -22-23.0143 103.018   2
   1   3 -21 233.456 118.195   2
   1   3 -20 2358.76 325.497   2
   1   3 -19 185.629 112.542   2
   1   3 -18 8806.77 595.585   2
   1   3 -17 14850.3 774.334   2
   1   3 -16 22513.3 948.485   2
   1   3 -15 804.336 174.316   2
   1   3 -14 28078.1 1024.59   2
   1   3 -13 4632.39 363.696   2
   1   3 -12 855.562 147.729   2
   1   3 -11 103.055 16.3418   3
   1   3 -11 176.078 77.3325   2
   1   3 -10 14230.4 312.067   3
   1   3 -10 14070.3 594.426   2
   1   3  -9 8309.50 431.541   2
   1   3  -9 8532.03 219.015   3
   1   3  -8 4196.24 286.957   2
   1   3  -8 4760.68 153.343   3
   1   3  -7 46817.7 925.816   3
  -1  -3   7 48762.7 952.599   3
   1   3  -7 46541.2 1204.39   2
   1   3  -6 166.446 50.1381   2
  -1  -3   6 287.370 36.6827   3
   1   3  -6 288.356 38.0648   3
   1   3  -5 10321.4 291.383   3
  -1  -3   5 10591.5 275.336   3
   1   3  -5 10599.1 429.285   2
   1   3  -4 4702.10 267.757   2
  -1  -3   4 5039.35 167.597   3
   1   3  -4 5109.66 192.478   3
   1   3  -3 226871. 4308.08   2
  -1  -3   3 238410. 4079.65   3
   1   3  -3 239303. 4144.19   3
  -1  -3   2 40148.5 825.737   3
   1   3  -2 41186.3 881.414   3
   1   3  -2 39102.7 973.961   2
   1   3  -1 11656.5 417.042   2
   1   3  -1 11062.0 356.131   3
  -1  -3   1 10733.2 312.006   3
  -1  -3   0 16584.6 429.971   3
   1   3   0 16207.9 513.423   2
   1   3   0 15941.4 472.816   3
   1   3   1 24765.5 659.679   3
   1   3   1 27255.6 710.069   2
  -1  -3  -1 24908.8 609.972   3
  -1  -3  -2 4172.22 197.588   3
   1   3   2 4092.28 141.027   1
  -1  -3  -3 9694.26 331.363   3
   1   3   3 9023.74 216.148   1
  -1  -3  -4 33274.5 804.019   3
  -1  -3  -5 29135.8 743.592   3
  -1  -3  -6 49814.5 1130.70   3
  -1  -3  -7 135016. 2642.37   3
  -1  -3  -8 3094.48 204.802   3
  -1  -3  -9 7391.91 335.314   3
  -1  -3  -9 6840.38 183.926   1
  -1  -3 -10 1159.06 129.158   3
  -1  -3 -10 1249.43 68.5862   1
  -1  -3 -11 2815.92 209.627   3
  -1  -3 -12 7564.66 362.053   3
  -1  -3 -13 2756.98 213.301   3
  -1  -3 -14 2170.57 192.630   3
  -1  -3 -15 56.1100 43.1574   3
  -1  -3 -16-5.15906 48.6079   3
  -1  -3 -17 10542.7 476.827   3
  -1  -3 -18 34430.0 1003.66   3
  -1  -3 -19 964.530 142.948   3
  -1  -3 -20 2307.56 219.631   3
  -1  -3 -21 5967.47 368.764   3
  -1  -3 -22 216.608 72.8263   3
  -1  -3 -23 2624.37 242.300   3
  -1  -3 -24-9.15746 45.1327   3
  -1  -3 -25 386.534 96.1022   3
  -1  -3 -26 254.179 95.5005   3
  -1  -3 -27 683.123 134.266   3
   1   4 -24 259.008 117.481   2
   1   4 -23 26.9017 81.8738   2
   1   4 -22 72.0504 83.9527   2
   1   4 -21-1.50979 60.7071   2
   1   4 -20 300.776 117.051   2
   1   4 -19 2052.92 291.321   2
   1   4 -18 3141.45 349.891   2
   1   4 -17 78.4993 74.9802   2
   1   4 -16 43120.1 1408.86   2
   1   4 -15 72937.3 1957.24   2
   1   4 -14 13788.7 676.622   2
   1   4 -14 13235.9 315.577   3
   1   4 -13 7081.48 459.427   2
   1   4 -13 7035.72 209.976   3
   1   4 -12 20916.0 826.444   2
   1   4 -12 21643.8 487.277   3
   1   4 -11 8682.52 256.973   3
   1   4 -11 7985.12 468.464   2
   1   4 -10 2465.43 243.850   2
   1   4 -10 2530.60 126.347   3
   1   4  -9 1386.74 176.227   2
   1   4  -9 1345.06 93.6481   3
   1   4  -8 996.361 82.5747   3
   1   4  -8 729.757 125.672   2
  -1  -4   8 861.221 89.1982   3
   1   4  -7 5209.66 333.986   2
   1   4  -7 5934.97 228.569   3
  -1  -4   7 6390.08 247.923   3
   1   4  -6 12645.6 383.057   3
  -1  -4   6 13808.1 388.549   3
   1   4  -6 13008.4 536.605   2
   1   4  -5 61282.7 1264.86   3
   1   4  -5 60668.6 1466.31   2
  -1  -4   5 61634.3 1244.71   3
   1   4  -4 96557.6 2128.92   2
  -1  -4   4 102596. 1912.80   3
   1   4  -4 99522.3 1947.03   3
   1   4  -3 9954.46 436.349   2
  -1  -4   3 10279.2 315.300   3
   1   4  -3 10117.0 351.452   3
  -1  -4   2 7248.38 256.654   3
   1   4  -2 7208.45 357.590   2
   1   4  -2 7405.24 298.516   3
   1   4  -1 33946.0 920.666   2
  -1  -4   1 32851.2 759.602   3
   1   4  -1 35213.2 839.881   3
   1   4   0 15407.6 550.795   2
  -1  -4   0 15655.8 439.047   3
   1   4   0 14452.5 487.279   3
  -1  -4  -1 312.295 56.2258   3
   1   4   1 378.167 72.7750   3
   1   4   2 1082.33 126.170   3
  -1  -4  -2 1267.51 110.931   3
   1   4   3 122.170 44.9521   3
   1   4   3 178.130 25.5091   1
  -1  -4  -3 111.067 37.2177   3
  -1  -4  -4-3.78551 25.1711   3
  -1  -4  -5 5692.52 273.377   3
  -1  -4  -6 3646.35 222.046   3
  -1  -4  -7 7672.05 341.005   3
  -1  -4  -8 18.2077 29.7894   3
  -1  -4  -9 1943.26 173.188   3
  -1  -4 -10 6898.27 345.012   3
  -1  -4 -11 723.196 111.935   3
  -1  -4 -12 467.051 94.1424   3
  -1  -4 -13 32.2838 12.6657   1
  -1  -4 -13 32.4288 14.7572   1
  -1  -4 -13 42.9340 45.4636   3
  -1  -4 -14 2994.40 239.872   3
  -1  -4 -14 2585.32 109.254   1
  -1  -4 -14 2750.45 130.839   1
  -1  -4 -15 578.715 106.975   3
  -1  -4 -15 644.568 70.3720   1
  -1  -4 -15 566.205 61.8528   1
  -1  -4 -16 2132.42 207.406   3
  -1  -4 -17 11063.7 503.043   3
  -1  -4 -18 3153.28 260.159   3
  -1  -4 -19 3942.46 295.812   3
  -1  -4 -20 6375.98 386.006   3
  -1  -4 -21 927.903 147.736   3
  -1  -4 -22 5239.96 355.363   3
  -1  -4 -23 2245.34 233.962   3
  -1  -4 -24 11620.5 554.835   3
  -1  -4 -25 2219.14 230.665   3
  -1  -4 -26 363.899 97.6756   3
  -1  -4 -27 2350.69 243.199   3
   1   5 -22 971.160 239.233   2
   1   5 -21 2645.56 356.518   2
   1   5 -20 5666.00 515.188   2
   1   5 -19 5999.54 509.888   2
   1   5 -18 2888.69 354.077   2
   1   5 -17 1530.38 244.230   2
   1   5 -16 25577.7 1050.92   2
   1   5 -15 9097.53 577.186   2
   1   5 -14 39957.6 1320.06   2
   1   5 -13 19534.8 830.308   2
   1   5 -12 2.50886 48.1372   2
   1   5 -11 4163.65 343.779   2
   1   5 -11 4295.59 201.415   3
   1   5 -10 5.61923 24.2344   3
   1   5 -10-18.1060 46.6572   2
   1   5  -9 3370.87 184.139   3
   1   5  -9 3018.71 278.229   2
   1   5  -8 1765.88 134.072   3
   1   5  -8 1686.79 202.886   2
  -1  -5   8 1658.48 146.161   3
   1   5  -7 3196.76 272.921   2
  -1  -5   7 3968.80 223.934   3
   1   5  -7 3410.92 196.132   3
  -1  -5   6 310.337 64.1240   3
   1   5  -6 218.317 52.6689   3
   1   5  -6 333.743 96.2734   2
   1   5  -5 528.559 112.501   2
   1   5  -5 447.598 71.1229   3
  -1  -5   5 582.426 79.8095   3
   1   5  -4 1785.94 196.227   2
  -1  -5   4 2095.62 149.877   3
   1   5  -4 2373.91 166.730   3
  -1  -5   3 1095.12 108.083   3
   1   5  -3 1308.95 127.780   3
   1   5  -3 1251.97 166.455   2
   1   5  -2 8879.48 436.919   2
  -1  -5   2 8669.26 325.866   3
   1   5  -1 855.101 134.573   2
  -1  -5   1 684.913 86.3448   3
  -1  -5   0 205.768 52.3654   3
  -1  -5  -1 14959.9 468.634   3
  -1  -5  -2 5420.57 260.428   3
   1   5   3 2549.39 104.492   1
  -1  -5  -3 2752.14 185.368   3
  -1  -5  -4 41547.3 1005.79   3
  -1  -5  -5 53354.9 1231.29   3
  -1  -5  -6 576.551 96.8394   3
  -1  -5  -7 55617.6 1301.64   3
  -1  -5  -8 12650.9 484.595   3
  -1  -5  -9 5242.57 299.615   3
  -1  -5 -10 17.9655 43.0959   3
  -1  -5 -11 746.633 117.868   3
  -1  -5 -12 5549.76 327.918   3
  -1  -5 -13 70.6631 55.7934   3
  -1  -5 -14 4284.83 298.428   3
  -1  -5 -15 367.588 97.1039   3
  -1  -5 -16 147.241 72.2930   3
  -1  -5 -17 50.9326 62.2044   3
  -1  -5 -18 1296.99 175.014   3
  -1  -5 -19 99.0567 71.6365   3
  -1  -5 -20 124.475 68.7885   3
  -1  -5 -21 110.360 71.2942   3
  -1  -5 -22 12647.2 591.736   3
  -1  -5 -23 1626.72 210.312   3
  -1  -5 -24 445.372 127.623   3
  -1  -5 -25 820.397 153.065   3
   1   6 -20 7146.24 586.762   2
   1   6 -19 18555.4 957.910   2
   1   6 -18 5.98189 102.215   2
   1   6 -17 10815.6 689.886   2
   1   6 -16 24994.2 1065.69   2
   1   6 -15 81.0132 87.2363   2
   1   6 -14 472.284 140.638   2
   1   6 -13 1712.00 237.594   2
   1   6 -12 4270.94 374.279   2
   1   6 -11 1958.14 248.964   2
   1   6 -10 986.369 170.669   2
   1   6  -9 1929.38 234.141   2
  -1  -6   8 1612.52 168.281   3
   1   6  -8 1414.90 195.691   2
  -1  -6   7 42.7181 36.5214   3
   1   6  -7 39.4817 61.7421   2
  -1  -6   6 134.786 59.6011   3
   1   6  -6-39.2042 62.2508   2
   1   6  -5 57.1187 72.4742   2
  -1  -6   5 51.5654 41.3259   3
  -1  -6   4 559.326 89.2095   3
   1   6  -4 635.209 127.086   2
  -1  -6   3 782.913 105.619   3
   1   6  -3 925.425 156.108   2
  -1  -6   2 3876.78 235.078   3
  -1  -6   1 29566.5 798.357   3
  -1  -6   0 6905.10 326.920   3
  -1  -6  -1 8149.70 358.075   3
   1   6   1 8044.62 273.464   1
   1   6   2 102496. 1916.85   1
  -1  -6  -2 100530. 2102.45   3
  -1  -6  -3 41557.9 1043.76   3
   1   6   3 41749.3 850.290   1
  -1  -6  -4 27228.1 751.776   3
   1   6   4 24280.9 507.239   1
  -1  -6  -5 20148.3 647.372   3
  -1  -6  -6 11712.8 470.673   3
  -1  -6  -7 11283.5 466.691   3
  -1  -6  -8 26369.3 804.283   3
  -1  -6  -9 6947.80 369.743   3
  -1  -6 -10 4590.84 299.955   3
  -1  -6 -11 770.675 128.488   3
  -1  -6 -12 10603.5 492.856   3
  -1  -6 -13 18559.2 691.646   3
  -1  -6 -14 8135.76 435.599   3
  -1  -6 -15 79.6323 69.8204   3
  -1  -6 -16 2081.95 220.667   3
  -1  -6 -17 1220.21 172.252   3
  -1  -6 -18 658.891 131.651   3
  -1  -6 -19 213.522 97.0872   3
  -1  -6 -20 1026.48 165.334   3
  -1  -6 -21 3304.45 298.399   3
  -1  -6 -22 297.957 99.2347   3
   1   7 -18 177.800 106.428   2
   1   7 -17 1372.96 245.472   2
   1   7 -16 3290.45 370.709   2
   1   7 -15 184.130 98.1896   2
   1   7 -14 138.331 92.5187   2
   1   7 -13 840.553 186.274   2
   1   7 -12-51.4424 80.9638   2
   1   7 -11 7677.25 524.429   2
   1   7 -10 9547.19 583.534   2
   1   7  -9 10383.1 603.445   2
   1   7  -8 7953.64 522.557   2
  -1  -7   8 9951.52 490.364   3
   1   7  -7 8838.23 539.745   2
  -1  -7   7 8745.41 455.959   3
   1   7  -6 2133.67 259.954   2
  -1  -7   6 1813.67 197.646   3
  -1  -7   5 1153.54 157.770   3
   1   7  -5 1232.93 200.128   2
  -1  -7   4 1523.55 175.611   3
  -1  -7   3 147.191 60.9388   3
  -1  -7   2 169.786 63.6723   3
   1   7  -1 1286.49 123.410   1
  -1  -7   1 1223.66 148.562   3
  -1  -7   0 23433.6 743.406   3
   1   7   0 22351.1 604.470   1
   1   7   1 45251.6 991.114   1
  -1  -7  -1 43593.9 1154.33   3
  -1  -7  -2 294.669 81.5545   3
   1   7   2 236.434 50.0263   1
  -1  -7  -3 13146.2 534.761   3
  -1  -7  -4 16720.7 617.718   3
  -1  -7  -5 3681.41 269.907   3
  -1  -7  -6 2431.21 221.659   3
  -1  -7  -7 4960.57 322.458   3
  -1  -7  -8 18.1682 34.8453   3
  -1  -7  -9 2018.59 206.914   3
  -1  -7 -10 12.4357 54.6038   3
  -1  -7 -11 808.916 137.840   3
  -1  -7 -12 1952.45 212.630   3
  -1  -7 -13-98.3891 85.1775   3
  -1  -7 -14 3.20251 46.7075   3
  -1  -7 -15 6693.86 420.493   3
  -1  -7 -16 3946.33 322.142   3
  -1  -7 -17 182.029 101.066   3
  -1  -7 -18 11738.8 592.002   3
   1   8 -14-12.4129 89.7281   2
   1   8 -13 171.960 136.680   2
   1   8 -12 791.655 184.203   2
   1   8 -11 705.915 177.655   2
   1   8 -10 15.8850 69.3986   2
   1   8  -9 8356.11 567.291   2
   1   8  -8 3178.70 348.307   2
   1   8  -7-8.16081 90.0441   2
  -1  -8   7-67.5771 61.1599   3
  -1  -8   6 2300.58 249.740   3
  -1  -8   5 6014.16 403.066   3
  -1  -8   4 41.5233 65.3955   3
  -1  -8   3 199.311 87.2531   3
  -1  -8   2 217.194 82.7299   3
  -1  -8   1 1217.68 174.021   3
  -1  -8   0-2.15492 45.9006   3
  -1  -8  -1 663.013 128.083   3
  -1  -8  -2 9703.68 497.298   3
  -1  -8  -3 13.3320 52.9729   3
  -1  -8  -4 983.878 158.862   3
  -1  -8  -5 18086.8 712.086   3
  -1  -8  -6 89.8831 69.9325   3
  -1  -8  -7 79.2260 69.4341   3
  -1  -8  -8 49.4322 64.8158   3
  -1  -8  -9 373.217 110.715   3
  -1  -8 -10 7.24371 49.2212   3
  -1  -8 -11 327.077 117.522   3
  -1  -8 -12 237.865 107.447   3
  -1  -8 -13-17.8217 60.5417   3
  -1  -9   5 37.5712 57.1736   3
  -1  -9   4 90.1890 74.7722   3
  -1  -9   3 41.3678 76.0421   3
  -1  -9   2 1229.69 201.911   3
  -1  -9   1-16.0889 54.7037   3
  -1  -9   0 1974.39 247.951   3
  -1  -9  -1 2133.85 253.344   3
  -1  -9  -2 1185.88 192.068   3
  -1  -9  -3 4199.50 356.857   3
  -1  -9  -4 4330.38 365.243   3
  -1  -9  -5 277.358 97.9815   3
  -1  -9  -6 188.457 88.4311   3
   2  -7  -7 2262.19 319.763   3
   2  -7  -6 2414.48 332.321   3
   2  -7  -5 672.144 164.326   3
   2  -7  -4 189.481 125.877   3
   2  -7  -3 5572.79 503.357   3
  -2   7  -1 860.414 165.322   1
  -2   7  -2 32.8917 87.8008   1
  -2   7  -3 3083.99 310.553   1
  -2   7  -4 2265.05 271.817   1
  -2   7  -5 289.003 111.754   1
  -2   7  -6 311.134 121.517   1
  -2   7  -7 4130.44 387.190   1
  -2   7  -8 80.5578 74.4754   1
  -2   7  -9 341.043 141.955   1
  -2   7 -10 3197.44 353.491   1
  -2   7 -11 322.398 121.149   1
   2  -6 -15 740.237 190.576   3
   2  -6 -14 9962.70 626.686   3
   2  -6 -13 148.414 102.696   3
   2  -6 -12 470.006 141.506   3
   2  -6 -11 678.915 166.845   3
   2  -6 -10 1066.09 212.558   3
   2  -6  -9 952.433 184.482   3
   2  -6  -8 727.292 164.931   3
   2  -6  -7 619.377 156.135   3
   2  -6  -6 4307.59 396.232   3
  -2   6   6 4723.08 336.216   1
  -2   6   5 63.4232 58.0133   1
   2  -6  -5-56.4200 56.9219   3
   2  -6  -4 1076.08 196.948   3
  -2   6   4 978.113 155.077   1
  -2   6   3 5677.67 374.075   1
   2  -6  -3 6084.33 476.020   3
   2  -6  -2 222.514 99.9648   3
  -2   6   2 301.881 93.2926   1
  -2   6   1 361.897 103.893   1
  -2   6   0 814.673 146.051   1
  -2   6  -1 2176.66 238.557   1
  -2   6  -2 394.345 115.711   1
  -2   6  -3 438.045 112.362   1
  -2   6  -4 2250.19 256.003   1
  -2   6  -5 829.230 162.482   1
  -2   6  -6 1049.84 180.824   1
  -2   6  -7 1374.47 210.562   1
  -2   6  -8 31126.8 1103.63   1
  -2   6  -9 4301.17 377.908   1
  -2   6 -10 3474.81 340.645   1
  -2   6 -11 4583.88 397.865   1
  -2   6 -12 4321.36 396.326   1
  -2   6 -13 293.641 125.725   1
  -2   6 -14 110.304 92.0145   1
   2  -5 -21-80.0815 72.2582   3
   2  -5 -20 208.735 100.072   3
   2  -5 -19-8.90204 72.1407   3
   2  -5 -18 97.9323 89.8301   3
   2  -5 -17 304.311 113.307   3
   2  -5 -16 4392.58 370.407   3
   2  -5 -15 115.696 87.7606   3
   2  -5 -14 51.3364 55.2476   3
   2  -5 -13 379.529 115.199   3
   2  -5 -12 9557.52 548.193   3
  -2   5  11 3091.32 255.777   1
   2  -5 -11 3393.36 318.244   3
   2  -5 -10 1220.31 195.878   3
  -2   5  10 1096.05 154.286   1
   2  -5  -9 4.27805 60.9080   3
  -2   5   9 19.9588 48.0969   1
   2  -5  -8 581.457 135.041   3
  -2   5   8 251.606 81.1119   1
  -2   5   7 4661.35 320.688   1
   2  -5  -7 4556.78 371.500   3
  -2   5   6 16984.3 662.647   1
   2  -5  -6 16977.6 748.877   3
   2  -5  -5 512.099 131.910   3
  -2   5   5 568.019 122.063   1
   2  -5  -4 1.98297 53.7228   3
  -2   5   4 35.0774 68.0162   1
  -2   5   3 7416.91 408.476   1
   2  -5  -3 7403.45 484.005   3
   2  -5  -2 6834.18 469.047   3
  -2   5   2 7541.71 414.758   1
   2  -5  -1 4725.35 386.174   3
  -2   5   1 4447.44 316.534   1
  -2   5   0 1366.63 178.822   1
  -2   5  -1 8820.58 462.495   1
  -2   5  -2-10.6656 45.6839   1
  -2   5  -3 100.433 65.6392   1
  -2   5  -4 2293.73 241.047   1
  -2   5  -5 257.164 92.6109   1
  -2   5  -6 23.1419 69.9283   1
  -2   5  -7 392.680 116.462   1
  -2   5  -8 2292.38 252.446   1
  -2   5  -9 7345.10 457.624   1
  -2   5 -10 9691.22 541.205   1
  -2   5 -11 57.5920 64.2387   1
  -2   5 -12 190.517 96.8972   1
  -2   5 -13 1800.42 236.012   1
  -2   5 -14 1625.20 228.380   1
  -2   5 -15 53.6027 91.1379   1
  -2   5 -16 2159.84 272.413   1
  -2   5 -17 2758.51 313.590   1
   2  -4 -22 100.068 80.7222   3
   2  -4 -21 68.9663 62.5123   3
   2  -4 -20 7477.70 464.223   3
   2  -4 -19 4287.50 339.814   3
   2  -4 -18 1348.27 190.381   3
   2  -4 -17 25654.3 901.053   3
   2  -4 -16 7917.51 457.136   3
   2  -4 -15 345.526 101.384   3
   2  -4 -14 15672.8 660.863   3
   2  -4 -13 30287.4 983.396   3
   2  -4 -12 6190.49 391.236   3
   2  -4 -11 30499.2 995.387   3
  -2   4  11 32327.8 954.152   1
  -2   4  10 26249.5 835.963   1
   2  -4 -10 26296.3 894.217   3
  -2   4   9 2133.07 209.194   1
   2  -4  -9 1960.00 217.119   3
   2  -4  -8 120.956 69.2559   3
  -2   4   8 163.511 60.9393   1
   2  -4  -7 134.348 63.6982   3
  -2   4   7 252.196 80.0058   1
   2  -4  -6 1598.32 194.354   3
  -2   4   6 1473.39 178.569   1
   2  -4  -5 627.205 123.420   3
  -2   4   5 807.671 130.428   1
   2  -4  -4 3745.21 307.501   3
  -2   4   4 4204.99 290.901   1
   2  -4  -3 19315.2 754.264   3
  -2   4   3 18647.7 661.899   1
  -2   4   2 595.431 112.448   1
   2  -4  -2 849.757 152.649   3
   2  -4  -1 5603.58 387.625   3
   2  -4  -1 6397.41 311.997   2
  -2   4   1 6111.03 352.686   1
  -2   4   0 17945.4 657.405   1
   2  -4   0 18074.6 583.626   2
   2  -4   1 9512.41 393.977   2
  -2   4  -1 9436.33 449.860   1
   2  -4   2 5379.25 286.818   2
  -2   4  -2 5142.36 327.720   1
   2  -4   3 22.3155 45.4478   2
  -2   4  -3 125.891 68.2207   1
  -2   4  -4 27214.1 868.998   1
   2  -4   4 25710.9 769.988   2
   2  -4   5 37175.0 987.742   2
  -2   4  -5 35603.0 1057.55   1
  -2   4  -6 1076.82 160.448   1
   2  -4   6 980.759 131.308   2
   2  -4   7 13186.2 524.707   2
  -2   4  -7 13437.3 582.413   1
  -2   4  -8 30080.2 794.531   2
  -2   4  -8 29723.9 950.315   1
   2  -4   8 28597.0 887.508   2
  -2   4  -9 4939.42 274.545   2
  -2   4  -9 4871.77 343.875   1
  -2   4 -10 1019.90 162.289   1
  -2   4 -10 863.057 115.263   2
  -2   4 -11 1787.26 174.509   2
  -2   4 -11 1410.37 189.761   1
  -2   4 -12 49.1050 63.7312   1
  -2   4 -12 42.9013 42.6317   2
  -2   4 -13 18.9614 43.6276   2
  -2   4 -13 60.2561 54.4207   1
  -2   4 -14 23.8758 69.0043   1
  -2   4 -14 17.1674 45.9691   2
  -2   4 -15 38.0044 44.7794   2
  -2   4 -15 162.900 77.7904   1
  -2   4 -16 58.7217 78.8710   1
  -2   4 -16 1.13101 60.8530   2
  -2   4 -17 103.733 75.5180   1
  -2   4 -18 110.910 121.766   1
  -2   4 -19 202.229 109.815   1
  -2   4 -20 191.607 93.7002   1
   2  -3 -22 7415.36 425.142   3
   2  -3 -21 131.247 80.1886   3
   2  -3 -20 21772.0 774.643   3
   2  -3 -19 24440.7 824.939   3
   2  -3 -18 2214.15 219.477   3
   2  -3 -17 14889.3 596.893   3
   2  -3 -16 20949.7 731.042   3
   2  -3 -15 20886.6 721.508   3
   2  -3 -14 452.148 102.691   3
   2  -3 -13 34809.1 996.893   3
   2  -3 -12 60275.4 1470.82   3
  -2   3  11 4584.76 300.978   1
   2  -3 -11 4593.22 300.214   3
  -2   3  10 14764.1 573.482   1
   2  -3 -10 13787.5 556.887   3
  -2   3   9 9827.09 450.176   1
   2  -3  -9 9511.05 448.163   3
  -2   3   8 8243.58 406.975   1
   2  -3  -8 8108.47 414.324   3
   2  -3  -7 28.4004 61.0481   3
  -2   3   7-11.3878 41.0307   1
   2  -3  -6 52.7644 53.1394   3
  -2   3   6 65.3761 53.1271   1
   2  -3  -5 238.055 65.0466   3
  -2   3   5 194.657 63.9644   1
   2  -3  -4 695.415 115.947   3
  -2   3   4 762.414 117.418   1
  -2   3   3 3390.07 240.749   1
   2  -3  -3 3140.96 255.621   3
   2  -3  -2 108.693 55.6550   3
  -2   3   2 86.8700 58.3978   1
   2  -3  -2 144.304 46.2494   2
   2  -3  -1 13660.5 430.910   2
  -2   3   1 13435.6 522.273   1
  -2   3   0 239.092 79.5818   1
   2  -3   0 261.638 54.1406   2
  -2   3  -1 5240.75 307.176   1
   2  -3   1 5258.33 238.564   2
  -2   3  -2 5937.31 328.941   1
   2  -3   2 5498.14 244.585   2
   2  -3   3 26.6395 24.8602   2
  -2   3  -3 131.528 73.5829   1
  -2   3  -4 15427.3 581.176   1
   2  -3   4 15365.7 473.375   2
  -2   3  -5 128672. 2668.21   1
   2  -3   5 129379. 2520.21   2
  -2   3  -6 5546.05 234.054   2
  -2   3  -6 5399.47 323.676   1
   2  -3   6 4603.61 249.800   2
  -2   3  -7 7523.32 291.607   2
  -2   3  -7 7780.74 399.766   1
   2  -3   7 7321.53 328.475   2
  -2   3  -8 44667.3 994.916   2
  -2   3  -8 42988.3 1161.08   1
   2  -3   8 41695.7 1063.98   2
  -2   3  -9 867.094 137.110   1
  -2   3  -9 892.409 105.978   2
  -2   3 -10 2238.10 173.728   2
  -2   3 -10 2300.44 215.504   1
  -2   3 -11 70.7911 58.5848   1
  -2   3 -11 124.519 46.2207   2
  -2   3 -12 761.911 110.712   2
  -2   3 -12 928.922 145.714   1
  -2   3 -13 3092.84 240.024   2
  -2   3 -13 2696.41 263.543   1
  -2   3 -14 360.971 85.7944   2
  -2   3 -14 371.007 94.3637   1
  -2   3 -15 4537.61 321.166   2
  -2   3 -15 4116.54 315.345   1
  -2   3 -16 4092.03 316.623   2
  -2   3 -16 3817.21 311.323   1
  -2   3 -17 1756.77 212.840   2
  -2   3 -17 1878.27 225.018   1
  -2   3 -18-3.75589 57.5556   2
  -2   3 -18-19.4589 47.3828   1
  -2   3 -19 178.630 59.6558   2
  -2   3 -19 188.911 98.7741   1
  -2   3 -20 461.804 130.524   2
  -2   3 -20 535.678 136.174   1
  -2   3 -21 957.613 191.148   2
  -2   3 -21 1220.75 195.183   1
  -2   3 -22 1304.75 212.530   1
   2  -2 -24 591.654 199.771   2
   2  -2 -23 40.1791 183.536   2
   2  -2 -22 4404.05 487.573   2
   2  -2 -21 527.237 162.223   2
   2  -2 -21 511.621 102.991   3
   2  -2 -20 847.038 123.530   3
   2  -2 -20 659.673 187.856   2
   2  -2 -19 6007.10 330.659   3
   2  -2 -18 4369.31 277.416   3
   2  -2 -17 1765.54 172.233   3
   2  -2 -16 8318.00 385.222   3
   2  -2 -15 481.657 95.0956   3
   2  -2 -14 322.508 73.0667   3
   2  -2 -13-10.2131 28.6941   3
   2  -2 -12 8432.35 380.481   3
   2  -2 -11 1057.34 128.211   3
   2  -2 -10 30.2056 42.5156   3
  -2   2  10-5.04533 31.7834   1
  -2   2   9 15961.6 586.136   1
   2  -2  -9 16415.6 564.681   3
   2  -2  -8 308.998 75.8767   3
   2  -2  -8 340.813 73.3322   1
  -2   2   8 416.235 86.0295   1
   2  -2  -7 3722.45 245.001   3
  -2   2   7 3936.84 263.877   1
   2  -2  -7 3691.55 243.211   1
  -2   2   6 23196.2 724.595   1
   2  -2  -6 23046.4 698.430   1
   2  -2  -6 23614.6 716.113   3
   2  -2  -5 10577.3 412.561   1
  -2   2   5 9785.34 427.460   1
   2  -2  -5 9666.45 423.884   3
   2  -2  -4 5701.93 292.423   1
   2  -2  -4 5430.86 311.352   3
  -2   2   4 5307.15 302.605   1
   2  -2  -3 7825.57 342.455   1
   2  -2  -3 6999.31 359.135   3
  -2   2   3 6911.61 346.091   1
   2  -2  -2 1096.34 121.191   1
  -2   2   2 950.694 120.106   1
   2  -2  -1 876.713 76.6164   2
   2  -2  -1 898.210 109.207   1
  -2   2   1 844.965 113.281   1
  -2   2   0 13361.2 499.574   1
   2  -2   0 14982.9 370.642   2
   2  -2   0 13599.4 465.676   1
  -2   2  -1 15371.5 540.527   1
   2  -2   1 16138.1 390.057   2
   2  -2   1 15683.1 503.283   1
  -2   2  -2 5735.02 307.213   1
   2  -2   2 6256.98 199.350   2
   2  -2   2 5565.40 274.188   1
  -2   2  -3 107269. 2297.97   1
   2  -2   3 113566. 2070.19   2
  -2   2  -4 107156. 2260.59   1
   2  -2   4 109696. 2028.44   2
  -2   2  -5 1101.62 133.494   1
  -2   2  -5 1282.87 80.0934   2
  -2   2  -6 6164.87 324.675   1
  -2   2  -6 6419.06 217.703   2
  -2   2  -7 24768.2 745.356   1
  -2   2  -7 24206.0 582.456   2
  -2   2  -8 19776.3 650.879   1
  -2   2  -8 20932.7 550.038   2
  -2   2  -9 2791.49 218.986   1
  -2   2  -9 3151.26 188.250   2
  -2   2 -10 166.437 69.8260   1
  -2   2 -10 99.5083 41.3828   2
  -2   2 -11 4131.44 248.284   2
  -2   2 -11 4045.90 271.353   1
  -2   2 -12 6345.86 338.215   2
  -2   2 -12 6207.72 347.882   1
  -2   2 -13 7417.05 393.268   2
  -2   2 -13 7706.03 399.289   1
  -2   2 -14 22082.6 775.659   2
  -2   2 -14 23151.3 765.539   1
  -2   2 -15 1826.57 208.161   2
  -2   2 -15 2104.00 212.441   1
  -2   2 -16 6191.54 407.296   2
  -2   2 -17 9936.56 548.259   2
  -2   2 -18 22597.8 904.617   2
  -2   2 -19 424.030 119.761   2
  -2   2 -20 1004.64 189.499   2
  -2   2 -21 266.318 94.2719   2
  -2   2 -22 103.999 58.9779   2
  -2   2 -23 641.652 164.212   2
  -2   2 -24 415.704 150.616   2
   2  -1 -25-0.41242 90.6086   2
   2  -1 -24 695.981 220.445   2
   2  -1 -23 776.122 223.823   2
   2  -1 -22 1146.77 260.946   2
   2  -1 -21 0.32394 72.4277   2
   2  -1 -20 735.126 196.063   2
   2  -1 -20 782.961 107.114   3
   2  -1 -19 15283.4 516.516   3
   2  -1 -19 15706.8 854.157   2
   2  -1 -18 4497.46 251.220   3
   2  -1 -18 3999.66 406.719   2
   2  -1 -17 305.360 73.9058   3
   2  -1 -17 319.453 124.110   2
   2  -1 -16 4466.64 242.950   3
   2  -1 -16 4236.22 395.175   2
   2  -1 -15 4.25926 60.5873   2
   2  -1 -15 99.9161 45.4471   3
   2  -1 -14 540.630 84.0703   3
   2  -1 -14 90.7418 71.7670   2
   2  -1 -13 103.062 44.0215   3
   2  -1 -12 223.622 58.5245   3
   2  -1 -11 543.780 83.0602   3
   2  -1 -10 8609.89 350.474   3
   2  -1  -9 478.596 77.3069   3
  -2   1   9 1102.61 142.805   1
   2  -1  -9 813.388 129.590   1
  -2   1   8 90829.2 1957.13   1
   2  -1  -8 91066.3 1866.21   3
   2  -1  -8 90818.7 1968.05   1
  -2   1   8 89929.1 1766.55   3
  -2   1   7 20214.9 527.408   3
  -2   1   7 20115.9 652.379   1
   2  -1  -7 20491.8 649.522   1
   2  -1  -7 20430.2 606.513   3
  -2   1   6 158281. 3180.38   1
   2  -1  -6 161136. 3120.74   3
  -2   1   6 165071. 3016.66   3
   2  -1  -6 161074. 3152.35   1
  -2   1   5 26.0491 43.3081   1
  -2   1   5-14.4688 28.6557   3
   2  -1  -5 57.3879 39.0168   3
   2  -1  -5 9.32908 40.5548   1
  -2   1   4 16019.2 552.999   1
  -2   1   4 16838.8 475.983   3
   2  -1  -4 16221.0 533.472   1
   2  -1  -3 4627.70 252.284   1
  -2   1   3 4745.10 271.079   1
  -2   1   2 580.369 92.0672   1
  -2   1   1 656.315 94.5966   1
  -2   1   0 262.797 63.5000   1
   2  -1   0 217.616 28.9170   2
  -2   1  -1 64758.0 1435.44   1
  -2   1  -2 35593.1 902.085   1
  -2   1  -3 56861.0 1294.09   1
  -2   1  -4 30980.6 821.278   1
  -2   1  -5 515796. 9123.73   1
  -2   1  -5 507512. 8834.59   2
  -2   1  -6 9763.72 387.931   1
  -2   1  -6 8887.21 256.562   2
  -2   1  -7 1851.32 163.242   1
  -2   1  -7 1819.62 116.111   2
  -2   1  -8 8587.49 366.730   1
  -2   1  -8 8495.29 314.158   2
  -2   1  -9 5002.10 280.175   1
  -2   1  -9 5957.60 278.559   2
  -2   1 -10 1473.25 149.386   1
  -2   1 -10 1582.22 151.363   2
  -2   1 -11 87.5444 52.1618   1
  -2   1 -11 7.71246 24.6288   2
  -2   1 -12 1100.29 142.647   2
  -2   1 -12 1346.06 146.633   1
  -2   1 -13 42.9761 46.0218   2
  -2   1 -13 71.0602 46.2239   1
  -2   1 -14 1011.33 152.156   2
  -2   1 -14 864.150 124.986   1
  -2   1 -15 386.736 104.356   2
  -2   1 -16 45025.3 1336.00   2
  -2   1 -17 173.501 84.6515   2
  -2   1 -18 2313.93 271.520   2
  -2   1 -19 5732.49 452.667   2
  -2   1 -20 93.4936 80.5718   2
  -2   1 -21-114.403 84.7422   2
  -2   1 -22 1043.73 216.591   2
  -2   1 -23 1805.41 293.002   2
  -2   1 -24 78.2734 64.6703   2
  -2   1 -24 59.4098 57.9727   3
  -2   1 -25 206.063 117.917   2
  -2   1 -26 5428.72 556.407   2
  -2   1 -27 1265.33 277.432   2
   2   0 -25 270.590 114.106   2
   2   0 -24-85.8660 87.6541   2
   2   0 -23 360.718 159.233   2
   2   0 -22 10823.4 757.923   2
   2   0 -21 339.478 142.946   2
   2   0 -20 586.452 178.259   2
   2   0 -19 9069.37 635.666   2
   2   0 -19 9259.27 339.317   3
   2   0 -18 28640.9 715.505   3
   2   0 -18 28417.4 1159.60   2
   2   0 -17 37.7976 31.3095   3
   2   0 -17-13.5985 64.6470   2
  -2   0  17-41.7337 36.2244   3
  -2   0  16 9590.14 366.580   3
   2   0 -16 9115.53 331.957   3
   2   0 -16 9650.24 598.747   2
  -2   0  15 997.249 106.472   3
   2   0 -15 825.863 178.240   2
   2   0 -15 919.470 92.8893   3
  -2   0  14 1118.81 105.214   3
   2   0 -14 1047.13 184.661   2
   2   0 -14 1153.53 103.122   3
   2   0 -13 219.808 46.1130   3
  -2   0  13 149.426 39.5352   3
   2   0 -13 199.104 84.2722   2
   2   0 -12 6922.98 272.711   3
   2   0 -12 6371.82 419.352   2
  -2   0  12 7254.71 260.072   3
   2   0 -11 39.0472 25.9168   3
  -2   0  11 14.3638 16.3092   3
   2   0 -11 74.3421 72.5111   2
   2   0 -10 59.2287 32.0361   3
  -2   0  10 54.8704 28.7694   3
   2   0 -10 70.8671 58.8415   2
   2   0  -9 2648.50 162.375   3
   2   0  -9 2763.09 222.503   1
   2   0  -9 2712.84 238.186   2
  -2   0   9 2870.38 137.149   3
   2   0  -8 48159.2 1190.48   1
   2   0  -8 45071.4 1203.95   2
  -2   0   8 46921.6 954.213   3
  -2   0   7 32115.1 876.670   1
   2   0  -7 30744.8 896.946   2
  -2   0   7 32996.8 705.851   3
   2   0  -6 4917.11 279.227   2
  -2   0   6 5266.96 203.192   3
  -2   0   6 5020.41 279.188   1
  -2   0   5 2384.68 186.308   1
   2   0  -5 2531.66 182.849   2
  -2   0   5 2429.81 137.655   3
  -2   0   4 3000.00 203.581   1
  -2   0   4 3201.91 168.589   3
   2   0  -4 2886.89 183.499   2
  -2   0   3 1453.19 141.275   1
   2   0  -3 1346.08 119.885   2
  -2   0   3 1525.71 119.820   3
   2   0  -2 75.6536 28.9988   2
  -2   0   2 73.1374 52.5939   1
   2   0  -1 48156.5 952.830   2
  -2   0   1 45731.9 1100.38   1
   2   0   0 4198.69 138.583   2
  -2   0   0 4087.80 224.462   1
  -2   0  -1 7748.08 322.370   1
  -2   0  -2 4755.37 242.754   1
  -2   0  -3 171930. 3257.37   1
  -2   0  -4 23444.5 651.612   1
  -2   0  -5 74907.7 1581.86   1
  -2   0  -6 65894.4 1418.68   1
  -2   0  -7 3206.97 200.980   1
  -2   0  -8 2006.90 158.543   1
  -2   0  -9 650.343 90.6464   1
  -2   0 -10 657.511 95.2845   1
  -2   0 -11 1045.09 119.025   1
  -2   0 -12 2666.52 193.534   1
  -2   0 -13 4704.87 267.553   1
  -2   0 -14 1741.85 161.653   1
  -2   0 -15 4298.33 341.246   2
  -2   0 -16 2209.43 253.622   2
  -2   0 -17 4465.23 374.726   2
  -2   0 -18 9989.83 594.877   2
  -2   0 -19 3418.88 349.913   2
  -2   0 -20 20432.7 940.520   2
  -2   0 -21 23043.4 1041.62   2
  -2   0 -22 4932.30 386.226   3
  -2   0 -22 5182.27 485.034   2
  -2   0 -23 83.6831 99.9047   2
  -2   0 -23 24.1112 46.1906   3
  -2   0 -24 783.033 159.489   3
  -2   0 -24 755.430 202.754   2
  -2   0 -25 150.240 107.449   2
  -2   0 -25 122.676 56.8922   3
  -2   0 -26 486.791 174.595   2
  -2   0 -27 1668.86 308.994   2
  -2   0 -28 830.267 250.088   2
   2   1 -25 572.698 209.060   2
   2   1 -24 402.208 185.066   2
   2   1 -23 1120.60 266.806   2
   2   1 -22 317.184 116.625   2
   2   1 -21 539.397 176.161   2
   2   1 -20 4485.95 459.130   2
   2   1 -19 1793.58 279.417   2
   2   1 -18 7730.27 573.776   2
   2   1 -17 12862.9 725.381   2
   2   1 -16 4162.97 386.740   2
   2   1 -15 7201.40 497.380   2
   2   1 -14 5103.70 405.866   2
  -2  -1  13 821.876 67.1777   3
   2   1 -13 665.925 143.170   2
  -2  -1  12 4724.44 167.663   3
   2   1 -12 4560.60 354.368   2
  -2  -1  11 24143.6 516.174   3
   2   1 -11 25849.6 897.124   2
   2   1 -10 4548.41 331.674   2
  -2  -1  10 3836.46 134.925   3
  -2  -1   9 29993.0 599.828   3
   2   1  -9 29500.4 947.629   2
   2   1  -8 184750. 3681.76   2
  -2  -1   8 182156. 3261.25   3
   2   1  -7 110745. 2380.12   2
  -2  -1   7 113226. 2056.48   3
  -2  -1   7 114343. 2397.48   2
   2   1  -6 6421.17 335.148   2
  -2  -1   6 7618.76 233.293   3
  -2  -1   6 7042.91 355.018   2
  -2  -1   5 89923.1 1909.76   1
   2   1  -5 90610.9 1918.80   2
  -2  -1   5 92794.5 1749.72   3
  -2  -1   5 92467.5 1939.95   2
  -2  -1   4 48346.1 1113.13   1
   2   1  -4 47003.0 1103.58   2
  -2  -1   4 45994.3 1112.59   2
   2   1  -3 3563.36 196.582   2
  -2  -1   3 3525.56 215.227   1
  -2  -1   3 3955.88 218.129   2
   2   1  -2 25526.1 632.466   2
  -2  -1   2 24266.3 677.794   1
  -2  -1   2 25294.7 659.023   2
   2   1  -1 5334.58 219.467   2
  -2  -1   1 5455.82 261.400   1
  -2  -1   1 5541.31 235.395   2
   2   1   0 8611.05 276.769   2
  -2  -1   0 8348.07 280.911   2
  -2  -1   0 8408.33 332.942   1
  -2  -1  -1 108.310 30.4941   2
  -2  -1  -1 66.9085 40.7214   1
   2   1   1 97.1449 27.3026   2
  -2  -1  -2 5212.87 195.966   2
  -2  -1  -2 4974.97 235.755   1
  -2  -1  -3 1304.95 90.9783   2
  -2  -1  -3 1288.27 117.332   1
  -2  -1  -4 1751.25 134.767   1
  -2  -1  -4 1831.35 110.801   2
  -2  -1  -5 341.407 62.9525   1
   2   1   5 347.583 56.0563   1
  -2  -1  -6 298.769 59.2046   1
   2   1   6 298.847 52.6975   1
  -2  -1  -7 2981.42 180.909   1
  -2  -1  -8 31753.6 784.769   1
  -2  -1  -9 111384. 2195.01   1
  -2  -1 -10 254.847 58.6288   1
  -2  -1 -11 8718.32 343.592   1
  -2  -1 -12 34824.0 870.098   1
  -2  -1 -13 19679.8 591.841   1
  -2  -1 -14 6059.81 296.682   1
  -2  -1 -15 7859.65 352.996   1
  -2  -1 -18 11887.6 591.188   3
  -2  -1 -19 80860.0 2017.11   3
  -2  -1 -20 9354.38 528.341   3
  -2  -1 -21 169.579 78.7107   3
  -2  -1 -22 22352.4 878.793   3
  -2  -1 -23 10358.0 569.927   3
  -2  -1 -23 10675.8 740.420   2
  -2  -1 -24 2890.75 293.995   3
  -2  -1 -24 2588.21 365.255   2
  -2  -1 -25 1197.15 189.351   3
  -2  -1 -25 1474.90 285.135   2
  -2  -1 -26 810.765 155.436   3
  -2  -1 -26 468.808 164.138   2
  -2  -1 -27 1099.34 173.995   1
  -2  -1 -27 713.777 212.993   2
  -2  -1 -28-45.5211 56.1140   1
   2   2 -25 10.3152 98.5194   2
   2   2 -24 265.603 140.384   2
   2   2 -23-47.7538 131.817   2
   2   2 -22 134.994 130.463   2
   2   2 -21 17.3969 82.0001   2
   2   2 -20 258.492 129.409   2
   2   2 -19 90.3154 99.1873   2
   2   2 -18 76.9436 80.2740   2
   2   2 -17 53.8222 78.6652   2
   2   2 -16 1061.83 196.978   2
   2   2 -15 5275.23 424.307   2
   2   2 -14 465.437 129.052   2
   2   2 -13 620.263 126.648   2
   2   2 -12 61.6556 58.0142   2
   2   2 -11 83448.2 2021.81   2
   2   2 -10 19365.1 742.637   2
   2   2  -9 4226.33 308.335   2
   2   2  -8 258516. 4984.92   2
  -2  -2   7 62100.9 1159.90   3
   2   2  -7 63215.0 1502.92   2
  -2  -2   7 64761.2 1551.69   2
   2   2  -6 4442.71 277.348   2
  -2  -2   6 4524.54 300.042   2
   2   2  -5 15342.2 547.134   2
  -2  -2   5 17944.6 621.419   2
   2   2  -4 70329.4 1608.82   2
  -2  -2   4 79830.5 1683.87   2
   2   2  -3-35.9226 50.8734   2
  -2  -2   3 36.7594 39.7341   2
  -2  -2   2 13380.8 448.134   1
   2   2  -2 13658.0 454.085   2
  -2  -2   2 13757.3 474.322   2
   2   2  -1 99010.9 1959.66   2
  -2  -2   1 96525.9 1949.40   1
  -2  -2   1 97994.4 1984.09   2
   2   2   0 2856.22 174.188   2
  -2  -2   0 2942.93 176.779   1
  -2  -2   0 2526.22 171.020   2
   2   2   0 2643.17 168.741   1
   2   2   1 2308.49 152.344   2
  -2  -2  -1 2282.21 155.426   2
  -2  -2  -1 2173.39 146.815   1
   2   2   1 2137.11 142.706   1
  -2  -2  -2 97.0038 43.8972   2
  -2  -2  -2 38.6848 24.1279   1
   2   2   2 67.7339 33.0207   1
   2   2   3 17695.5 486.024   1
  -2  -2  -3 18307.4 522.287   2
  -2  -2  -3 18139.9 507.224   1
  -2  -2  -4 71.9258 31.9391   1
   2   2   4 112.428 33.3847   1
  -2  -2  -4 95.9528 41.4731   2
  -2  -2  -5 1257.46 117.155   2
   2   2   5 1172.49 93.7259   1
  -2  -2  -5 1072.93 98.1303   1
  -2  -2  -6 899.592 92.6764   1
   2   2   6 844.341 78.4747   1
  -2  -2  -7 31616.5 752.168   1
  -2  -2  -8 490.766 71.5099   1
  -2  -2  -9 29354.7 722.569   1
  -2  -2 -10 12836.3 410.903   1
  -2  -2 -11 6163.32 268.803   1
  -2  -2 -12 6838.01 413.834   3
  -2  -2 -12 7094.54 293.385   1
  -2  -2 -13 8428.65 458.579   3
  -2  -2 -13 8724.42 337.519   1
  -2  -2 -14 45690.6 1280.45   3
  -2  -2 -14 44327.4 1041.27   1
  -2  -2 -15 743.080 144.948   3
  -2  -2 -15 763.703 98.0739   1
  -2  -2 -16 43894.8 1267.42   3
  -2  -2 -16 41923.1 1023.33   1
  -2  -2 -17 36498.4 1141.76   3
  -2  -2 -17 36115.0 927.359   1
  -2  -2 -18 544.263 124.038   3
  -2  -2 -18 619.297 98.5153   1
  -2  -2 -19 5604.24 395.111   3
  -2  -2 -19 5304.16 294.311   1
  -2  -2 -20 3370.68 308.585   3
  -2  -2 -20 3026.38 226.120   1
  -2  -2 -21 7564.69 471.207   3
  -2  -2 -21 7059.17 363.790   1
  -2  -2 -22 1335.80 195.160   3
  -2  -2 -22 1283.53 156.214   1
  -2  -2 -23 154.016 64.9820   1
  -2  -2 -23 260.842 94.0122   3
  -2  -2 -24 939.503 169.870   3
  -2  -2 -24 1083.76 149.645   1
  -2  -2 -25 396.701 115.128   3
  -2  -2 -25 66.7248 51.2172   1
  -2  -2 -26 392.335 114.178   3
  -2  -2 -27-33.2733 51.0294   3
  -2  -2 -27 181.071 120.264   2
   2   3 -24 620.900 186.782   2
   2   3 -23 1674.59 311.470   2
   2   3 -22 3832.43 450.010   2
   2   3 -21 7117.84 596.952   2
   2   3 -20 3751.69 420.618   2
   2   3 -19 1670.00 274.150   2
   2   3 -18 5662.41 487.960   2
   2   3 -17 542.424 152.867   2
   2   3 -16 3568.73 361.338   2
   2   3 -15 3129.40 328.214   2
   2   3 -14 28266.9 1056.24   2
   2   3 -13 62814.5 1723.81   2
   2   3 -12 6732.45 439.378   2
   2   3 -11 25888.0 912.778   2
   2   3 -10 21864.5 805.393   2
   2   3  -9 7816.60 433.544   2
   2   3  -8 120.767 59.3397   2
   2   3  -7 300.368 81.5265   2
  -2  -3   7 231.388 24.8480   3
   2   3  -6 9527.72 450.097   2
  -2  -3   6 9837.34 252.684   3
   2   3  -5 12927.4 519.135   2
  -2  -3   5 13437.4 341.730   3
   2   3  -4 33419.9 891.309   1
   2   3  -4 34563.0 936.780   2
  -2  -3   4 33774.9 738.481   3
   2   3  -3 46901.6 1165.82   2
   2   3  -3 48202.3 1127.31   1
  -2  -3   3 47492.9 1012.61   3
  -2  -3   2 48486.2 1056.55   3
   2   3  -2 47506.3 1162.28   2
   2   3  -2 48974.9 1121.46   1
  -2  -3   1 1354.02 120.166   3
   2   3  -1 1558.18 150.787   2
   2   3  -1 1515.02 130.478   1
  -2  -3   0 24998.5 689.865   3
   2   3   0 26425.2 736.728   2
   2   3   0 26375.9 676.962   1
   2   3   1 122776. 2435.71   2
  -2  -3  -1 123232. 2464.93   2
  -2  -3  -1 121910. 2414.42   3
   2   3   1 119075. 2337.46   1
  -2  -3  -2 98396.4 1919.44   1
  -2  -3  -2 99781.5 2057.20   2
  -2  -3  -2 98337.7 2052.70   3
   2   3   2 98895.4 1914.66   1
  -2  -3  -3 107522. 2203.52   3
  -2  -3  -3 110570. 2192.69   2
  -2  -3  -3 103540. 2038.11   1
   2   3   3 105965. 2026.02   1
  -2  -3  -4 27424.9 804.647   3
   2   3   4 27615.7 643.275   1
  -2  -3  -4 29203.4 796.092   2
  -2  -3  -4 28468.1 663.425   1
  -2  -3  -5 3162.71 232.598   3
   2   3   5 3165.86 145.421   1
  -2  -3  -5 3108.84 212.589   2
  -2  -3  -5 2959.40 154.422   1
  -2  -3  -6 9246.21 432.937   3
   2   3   6 9460.38 275.489   1
  -2  -3  -6 9874.55 315.273   1
  -2  -3  -6 9808.01 411.670   2
  -2  -3  -7 15768.8 599.529   3
  -2  -3  -7 16705.3 440.533   1
  -2  -3  -8 4503.46 302.633   3
  -2  -3  -8 4593.74 197.134   1
  -2  -3  -9 7375.07 267.926   1
  -2  -3  -9 7365.96 397.607   3
  -2  -3 -10 986.996 91.7570   1
  -2  -3 -10 890.370 139.320   3
  -2  -3 -11 1419.95 184.352   3
  -2  -3 -11 1465.22 116.783   1
  -2  -3 -12 355.909 95.0235   3
  -2  -3 -12 316.614 56.1345   1
  -2  -3 -13 1700.19 198.463   3
  -2  -3 -13 1669.26 130.480   1
  -2  -3 -14 209.252 80.9334   3
  -2  -3 -14 171.491 51.7588   1
  -2  -3 -15 100.866 55.2273   3
  -2  -3 -15 101.087 47.2256   1
  -2  -3 -16 852.898 148.439   3
  -2  -3 -16 929.384 105.812   1
  -2  -3 -17 110.743 46.0290   1
  -2  -3 -17 193.430 88.8084   3
  -2  -3 -18 1216.69 184.171   3
  -2  -3 -18 1070.79 121.046   1
  -2  -3 -19 571.252 132.027   3
  -2  -3 -19 570.142 93.8368   1
  -2  -3 -20 3189.77 296.477   3
  -2  -3 -20 3288.77 221.886   1
  -2  -3 -21 279.246 98.1216   3
  -2  -3 -21 372.234 82.7220   1
  -2  -3 -22 1303.90 192.659   3
  -2  -3 -22 1352.32 151.002   1
  -2  -3 -23 1251.83 185.511   3
  -2  -3 -24 3991.16 335.505   3
  -2  -3 -25 8125.90 482.811   3
  -2  -3 -26 14780.6 690.567   3
  -2  -3 -27 2953.69 293.275   3
   2   4 -23 15177.9 924.367   2
   2   4 -22 15495.5 914.823   2
   2   4 -21 9102.07 675.091   2
   2   4 -20 2344.44 333.405   2
   2   4 -19-33.2792 58.7775   2
   2   4 -18 1803.18 272.221   2
   2   4 -17 271.507 124.017   2
   2   4 -16 2337.76 294.493   2
   2   4 -15 9018.28 573.000   2
   2   4 -14 3171.61 325.520   2
   2   4 -13 21579.1 888.758   2
   2   4 -12 62383.6 1706.41   2
   2   4 -11 69744.7 1822.38   2
   2   4 -10 19379.5 780.232   2
   2   4  -9 4428.33 334.831   2
  -2  -4   9 4540.24 150.075   3
   2   4  -8 417.252 105.087   2
  -2  -4   8 386.018 40.1350   3
   2   4  -7 19373.6 731.027   2
  -2  -4   7 20038.1 446.225   3
   2   4  -6 8716.67 449.698   2
  -2  -4   6 9285.89 262.762   3
   2   4  -5 3130.41 255.374   2
  -2  -4   5 2996.04 137.847   3
   2   4  -4 1397.61 164.807   2
  -2  -4   4 1532.67 103.269   3
   2   4  -3 373.104 73.5158   1
   2   4  -3 475.228 95.3453   2
  -2  -4   3 452.174 59.7995   3
   2   4  -2 3942.34 271.163   2
   2   4  -2 3486.53 217.669   1
  -2  -4   2 3347.38 178.859   3
  -2  -4   1 2928.16 174.271   3
   2   4  -1 3389.09 246.026   2
   2   4  -1 3483.69 207.959   1
   2   4   0 22517.1 707.122   2
   2   4   0 21246.2 591.099   1
  -2  -4   0 19707.0 572.048   3
   2   4   1 8590.19 403.887   2
   2   4   1 8749.55 317.963   1
  -2  -4  -1 8339.15 339.340   3
   2   4   2 6728.68 261.817   1
  -2  -4  -2 6541.82 303.629   3
  -2  -4  -3 44395.0 1111.96   3
   2   4   3 47824.2 980.005   1
  -2  -4  -4 21715.8 675.815   3
   2   4   4 22008.0 519.594   1
  -2  -4  -5 326.980 78.7208   3
   2   4   5 444.503 45.4406   1
  -2  -4  -6 1660.21 169.145   3
   2   4   6 1840.60 83.9715   1
  -2  -4  -7 4218.78 149.815   1
  -2  -4  -7 3578.53 260.801   3
  -2  -4  -8 2372.26 107.218   1
  -2  -4  -8 2587.53 221.540   3
  -2  -4  -9 5387.47 332.918   3
  -2  -4  -9 5238.10 175.061   1
  -2  -4 -10 3902.56 287.677   3
  -2  -4 -10 3821.21 150.183   1
  -2  -4 -11 445.474 106.071   3
  -2  -4 -11 366.836 47.8260   1
  -2  -4 -12 151.101 73.7629   3
  -2  -4 -12 86.4759 27.9135   1
  -2  -4 -13 9386.41 482.776   3
  -2  -4 -13 9723.91 303.644   1
  -2  -4 -14 20838.1 525.167   1
  -2  -4 -14 19412.9 748.847   3
  -2  -4 -15 5080.61 356.185   3
  -2  -4 -15 5653.74 235.252   1
  -2  -4 -16 5647.81 381.401   3
  -2  -4 -16 5564.22 245.958   1
  -2  -4 -17 2951.36 178.381   1
  -2  -4 -17 3107.49 277.486   3
  -2  -4 -18 566.853 124.501   3
  -2  -4 -19 311.149 87.1626   3
  -2  -4 -20 1956.29 224.831   3
  -2  -4 -21 39.1942 54.4831   3
  -2  -4 -22 402.407 108.831   3
  -2  -4 -23 499.172 128.210   3
  -2  -4 -24 16437.6 734.550   3
  -2  -4 -25 1.18224 49.7625   3
  -2  -4 -26 456.930 123.023   3
   2   5 -21 695.766 216.604   2
   2   5 -20 191.155 129.617   2
   2   5 -19 86.6028 86.1202   2
   2   5 -18 1359.76 238.732   2
   2   5 -17 664.335 183.671   2
   2   5 -16-10.2700 93.2961   2
   2   5 -15 586.163 145.686   2
   2   5 -14 585.030 147.234   2
   2   5 -13 8791.17 559.090   2
   2   5 -12 6.53957 86.9436   2
   2   5 -11 5776.10 424.664   2
   2   5 -10 10773.6 579.170   2
  -2  -5   9 899.056 82.4841   3
   2   5  -9 642.278 134.528   2
   2   5  -8 3878.89 324.608   2
  -2  -5   8 4374.64 189.237   3
   2   5  -7 2883.02 271.044   2
  -2  -5   7 2661.30 143.385   3
   2   5  -6 8400.31 369.689   3
   2   5  -6 9397.14 492.689   2
  -2  -5   6 9479.16 300.028   3
   2   5  -5 254.886 84.6589   2
  -2  -5   5 281.798 51.7476   3
   2   5  -5 211.655 64.1167   3
   2   5  -4 1086.13 159.291   2
   2   5  -4 1159.87 131.115   3
  -2  -5   4 1135.02 98.1609   3
   2   5  -3 2757.64 246.786   2
   2   5  -3 2437.96 211.155   3
  -2  -5   3 2725.78 158.933   3
   2   5  -2 1920.03 184.788   3
   2   5  -2 1825.61 203.180   2
   2   5  -2 1754.65 158.527   1
  -2  -5   2 1935.24 138.928   3
  -2  -5   1 71.5730 36.5215   3
   2   5  -1 30.1561 36.4291   3
   2   5  -1 90.5922 46.0631   1
   2   5  -1 38.0363 50.6769   2
   2   5   0 28180.6 887.876   2
   2   5   0 26864.3 713.617   1
  -2  -5   0 25749.0 701.195   3
  -2  -5  -1 10060.4 388.218   3
   2   5   1 10403.1 362.191   1
   2   5   2 19.5936 21.0368   1
  -2  -5  -2 58.1908 42.9613   3
  -2  -5  -3 11507.9 448.455   3
   2   5   3 12141.5 353.887   1
   2   5   4 104510. 1917.26   1
  -2  -5  -4 100823. 2155.54   3
   2   5   5 15810.2 340.192   1
  -2  -5  -5 17031.0 581.166   3
  -2  -5  -6 336.860 80.4689   3
  -2  -5  -7 1883.64 184.051   3
  -2  -5  -8-54.0224 63.5794   3
  -2  -5  -9 1861.14 192.632   3
  -2  -5 -10 1756.10 191.496   3
  -2  -5 -11-34.7893 58.6281   3
  -2  -5 -12 4509.87 320.950   3
  -2  -5 -13-73.3806 59.2963   3
  -2  -5 -14 26056.4 891.775   3
  -2  -5 -15 9560.71 502.010   3
  -2  -5 -16 2615.76 258.292   3
  -2  -5 -17 800.535 151.611   3
  -2  -5 -18 9534.75 524.134   3
  -2  -5 -19 144.268 60.8255   3
  -2  -5 -20 1495.17 206.441   3
  -2  -5 -21-25.1059 67.3000   3
  -2  -5 -22 433.371 102.014   3
  -2  -5 -23 17.9301 49.9023   3
  -2  -5 -24 1669.23 225.507   3
   2   6 -19 37.9349 83.0485   2
   2   6 -18 106.799 101.215   2
   2   6 -17-109.365 129.432   2
   2   6 -16 592.061 167.987   2
   2   6 -15 16.4134 74.5707   2
   2   6 -14 785.463 179.602   2
   2   6 -13 2334.04 288.487   2
   2   6 -12 97.2337 94.3570   2
   2   6 -11-60.9479 69.6274   2
  -2  -6  10 1500.84 133.673   3
   2   6 -10 1146.31 193.148   2
   2   6  -9 15521.8 733.810   2
  -2  -6   9 16780.9 516.806   3
   2   6  -8 13861.5 677.224   2
  -2  -6   8 15195.3 476.664   3
   2   6  -7 3740.06 335.757   2
  -2  -6   7 4002.68 214.322   3
  -2  -6   6 16400.3 497.059   3
   2   6  -6 17455.5 741.911   2
   2   6  -5 4626.25 359.052   2
  -2  -6   5 4152.61 217.982   3
  -2  -6   4 208.023 54.8963   3
   2   6  -4 254.010 90.4475   2
  -2  -6   3 210.279 55.9393   3
   2   6  -3 288.723 100.608   2
  -2  -6   2 47.5093 44.4033   3
   2   6  -2 97.9993 72.0514   2
   2   6  -1 1177.67 184.735   2
  -2  -6   1 1101.60 117.794   3
  -2  -6   0 29206.9 766.833   3
   2   6   0 26998.3 747.679   1
   2   6   1 12664.1 429.708   1
  -2  -6  -1 13264.1 469.828   3
   2   6   2 61259.4 1286.35   1
  -2  -6  -2 61859.0 1398.81   3
  -2  -6  -3 107214. 2207.39   3
   2   6   3 105661. 2014.84   1
  -2  -6  -4 45382.8 1143.22   3
  -2  -6  -5 23782.0 743.051   3
  -2  -6  -6 34580.2 972.211   3
  -2  -6  -7 2131.43 203.353   3
  -2  -6  -8 858.056 135.020   3
  -2  -6  -9 7589.18 411.471   3
  -2  -6 -10 2096.03 217.022   3
  -2  -6 -11 98.7210 63.9659   3
  -2  -6 -12 36.2689 48.4833   3
  -2  -6 -13 401.106 106.558   3
  -2  -6 -14 2145.16 232.362   3
  -2  -6 -15 1575.48 204.009   3
  -2  -6 -16 4948.46 367.010   3
  -2  -6 -17 8645.42 497.394   3
  -2  -6 -18 1799.17 227.443   3
  -2  -6 -19 530.946 128.446   3
  -2  -6 -20 554.178 124.451   3
  -2  -6 -21 391.444 120.306   3
   2   7 -17 370.248 141.141   2
   2   7 -16 173.255 139.461   2
   2   7 -15-13.1553 70.8266   2
   2   7 -14 577.646 166.594   2
   2   7 -13 129.979 97.5583   2
   2   7 -12 21.3411 56.7234   2
   2   7 -11 210.467 102.290   2
   2   7 -10 238.408 102.570   2
  -2  -7   9 346.755 76.8098   3
   2   7  -9 240.443 111.386   2
  -2  -7   8 1988.58 181.101   3
   2   7  -8 1787.74 247.905   2
   2   7  -7 5906.73 449.052   2
  -2  -7   7 5757.06 306.789   3
  -2  -7   6 344.005 76.6987   3
   2   7  -6 468.458 141.891   2
  -2  -7   5-1.70454 40.9704   3
   2   7  -5 29.8649 50.5119   2
  -2  -7   4 1150.71 129.863   3
   2   7  -4 1218.49 201.032   2
  -2  -7   3 87.1565 45.3512   3
   2   7  -3 353.788 114.645   2
  -2  -7   2 4648.33 266.321   3
  -2  -7   1 1034.55 128.486   3
  -2  -7   0 12188.0 467.933   3
  -2  -7  -1 32484.3 887.552   3
  -2  -7  -2 8365.38 385.887   3
  -2  -7  -3 24770.4 759.225   3
  -2  -7  -4 576.681 105.960   3
  -2  -7  -5 9830.13 450.875   3
  -2  -7  -6 127.664 68.2313   3
  -2  -7  -7 1239.25 163.310   3
  -2  -7  -8 747.088 131.654   3
  -2  -7  -9 405.038 98.5901   3
  -2  -7 -10 283.531 93.5571   3
  -2  -7 -11 37.2907 58.0113   3
  -2  -7 -12 814.114 145.356   3
  -2  -7 -13 720.980 140.842   3
  -2  -7 -14 1555.87 203.000   3
  -2  -7 -15 362.289 112.068   3
  -2  -7 -16 81.1619 76.9384   3
  -2  -7 -17 1839.15 230.698   3
  -2  -7 -18 14023.8 672.202   3
   2   8 -13 3927.89 427.520   2
   2   8 -12 2958.94 358.278   2
   2   8 -11 131.207 96.2227   2
   2   8 -10 1561.90 257.717   2
   2   8  -9 9524.77 630.610   2
   2   8  -8 343.976 143.244   2
   2   8  -7 93.7757 104.447   2
  -2  -8   6 23.2885 42.8408   3
   2   8  -6 237.175 118.553   2
   2   8  -5 2504.73 314.238   2
  -2  -8   5 2546.02 223.581   3
  -2  -8   4 288.445 71.1382   3
  -2  -8   3 843.289 128.676   3
  -2  -8   2 89.5893 41.4913   3
  -2  -8   1-3.51630 41.8016   3
  -2  -8   0 564.814 105.512   3
  -2  -8  -1 178.728 73.5207   3
  -2  -8  -2 1975.35 199.853   3
  -2  -8  -3 381.318 94.5395   3
  -2  -8  -4 465.044 108.588   3
  -2  -8  -5 39.0298 40.2088   3
  -2  -8  -6 3130.30 262.846   3
  -2  -8  -7 1187.27 166.673   3
  -2  -8  -8 11621.5 548.241   3
  -2  -8  -9 14763.2 637.680   3
  -2  -8 -10 4222.08 330.505   3
  -2  -8 -11 10937.3 554.978   3
  -2  -8 -12 750.751 153.605   3
  -2  -8 -13 2069.10 242.803   3
  -2  -8 -14 3839.77 333.557   3
  -2  -9   4 819.799 147.618   3
  -2  -9   3 51.3180 53.5044   3
  -2  -9   2 1068.67 165.494   3
  -2  -9   1 4433.19 331.100   3
  -2  -9   0 2442.59 245.335   3
  -2  -9  -1 4444.80 332.345   3
  -2  -9  -2 4036.63 318.092   3
  -2  -9  -3 700.592 139.422   3
  -2  -9  -4 101.735 77.6431   3
  -2  -9  -5 282.974 102.507   3
  -2  -9  -6 1236.28 187.203   3
  -2  -9  -7 3174.27 297.007   3
  -2  -9  -8 3883.25 329.479   3
  -3   6   4 160.764 83.5093   1
  -3   6   3 253.296 117.510   1
  -3   6   2 775.489 173.127   1
  -3   6   1 863.429 172.243   1
  -3   6   0 5125.88 417.134   1
  -3   6  -1 63.2462 66.1762   1
  -3   6  -2 1028.09 187.373   1
  -3   6  -3 773.967 174.103   1
  -3   6  -4 3732.30 370.975   1
  -3   6  -5 389.275 153.558   1
  -3   6  -6 312.245 126.616   1
  -3   6  -7 2614.66 321.584   1
  -3   6  -8 513.415 156.125   1
  -3   6  -9 682.085 185.990   1
  -3   6 -10 5381.83 483.528   1
   3  -5 -16 547.538 158.672   3
   3  -5 -15 1710.46 266.999   3
   3  -5 -14 122.644 92.5697   3
   3  -5 -13 2182.11 302.938   3
   3  -5 -12 9367.60 635.779   3
   3  -5 -11-41.5851 75.0496   3
   3  -5 -10 1.90701 117.597   3
  -3   5  10 6.97211 63.7560   1
  -3   5   9 29055.3 1037.78   1
  -3   5   8 21038.1 856.536   1
  -3   5   7 2432.45 272.001   1
  -3   5   6 1446.08 207.485   1
  -3   5   5 486.750 124.871   1
  -3   5   4 2187.76 261.325   1
  -3   5   3 256.066 101.523   1
  -3   5   2 2404.28 272.040   1
  -3   5   1 5660.38 411.142   1
  -3   5   0 231.026 93.0464   1
  -3   5  -1 658.715 147.256   1
  -3   5  -2 9758.65 562.594   1
  -3   5  -3 24558.6 965.952   1
  -3   5  -4 7055.96 487.164   1
  -3   5  -5 53.4667 65.1980   1
  -3   5  -6 422.554 127.715   1
  -3   5  -7 32.5339 71.7109   1
  -3   5  -8 207.676 109.971   1
  -3   5  -9-73.9415 83.0187   1
  -3   5 -10 78.4003 78.7040   1
  -3   5 -11-58.7031 99.6984   1
  -3   5 -12 920.301 204.148   1
  -3   5 -13 3972.20 406.022   1
   3  -4 -20 925.501 188.149   3
   3  -4 -20 1275.58 267.871   2
   3  -4 -19 229.959 91.6111   3
   3  -4 -18 797.482 185.052   3
   3  -4 -17 592.912 164.324   3
   3  -4 -16 464.302 126.750   3
   3  -4 -15 43.5223 67.2343   3
   3  -4 -14 1471.09 230.553   3
   3  -4 -13 2089.23 271.357   3
   3  -4 -12 1724.46 245.877   3
  -3   4  12 1642.30 216.496   1
   3  -4 -11 20801.0 905.737   3
  -3   4  11 20523.3 824.888   1
  -3   4  10 72163.6 1860.74   1
   3  -4 -10 70332.2 1960.60   3
  -3   4   9 1462.41 212.900   1
   3  -4  -9 1699.17 254.787   3
  -3   4   8 16225.2 718.521   1
  -3   4   7 4294.13 345.863   1
  -3   4   6 9963.35 546.835   1
  -3   4   5 89.7515 73.4632   1
  -3   4   4 154.978 73.1974   1
  -3   4   3 1043.90 176.691   1
  -3   4   2 3115.45 293.998   1
  -3   4   1 78.6218 77.0135   1
  -3   4   0 12813.8 613.029   1
  -3   4  -1 452.021 119.844   1
  -3   4  -2 676.906 141.663   1
  -3   4  -3 3631.58 323.082   1
  -3   4  -4 8683.92 514.243   1
  -3   4  -5 232.240 97.5184   1
  -3   4  -6 149.684 86.6311   1
  -3   4  -7 6554.07 458.034   1
  -3   4  -8 742.647 163.729   1
  -3   4  -9 252.484 97.3633   1
  -3   4 -10 1749.55 245.104   1
  -3   4 -11 1364.40 213.580   1
  -3   4 -12 70.4452 70.8000   1
  -3   4 -13 54.4699 93.9165   1
  -3   4 -14 5897.18 477.357   1
  -3   4 -15 3392.09 356.566   1
  -3   4 -16 205.078 125.457   1
   3  -3 -22 1241.96 283.290   2
   3  -3 -21 2445.59 367.004   2
   3  -3 -20 34394.3 1179.03   3
   3  -3 -20 32610.7 1416.57   2
   3  -3 -19 131.546 91.0496   3
   3  -3 -19 341.154 151.756   2
   3  -3 -18-0.61221 61.9377   3
   3  -3 -18 31.5249 75.1036   2
   3  -3 -17 927.309 171.984   3
   3  -3 -17 780.870 193.539   2
   3  -3 -16 1684.14 222.208   3
   3  -3 -15 22.9964 67.9628   3
   3  -3 -14 264.749 99.8749   3
   3  -3 -13 29.3778 52.5548   3
  -3   3  12 1575.30 206.807   1
   3  -3 -12 1734.38 226.851   3
  -3   3  11 200.863 90.4934   1
   3  -3 -11 138.572 62.4384   3
  -3   3  10 6181.49 413.001   1
   3  -3 -10 6056.85 423.733   3
  -3   3   9 9565.68 526.618   1
  -3   3   8 3399.56 303.295   1
  -3   3   7 1130.40 170.281   1
  -3   3   6 916.011 153.079   1
  -3   3   5 126.691 71.5098   1
  -3   3   4 778.676 141.649   1
   3  -3  -3 1369.97 123.499   2
  -3   3   3 1850.61 224.353   1
  -3   3   2 218.807 89.7150   1
   3  -3  -2 373.463 62.1884   2
  -3   3   1 105.925 64.9816   1
   3  -3  -1 236.774 46.5524   2
  -3   3   0 27641.4 926.203   1
   3  -3   0 27399.6 631.656   2
   3  -3   1 44472.2 904.037   2
  -3   3  -1 46532.3 1297.55   1
  -3   3  -2 1874.06 216.089   1
  -3   3  -3 9492.66 509.945   1
  -3   3  -4 17933.4 728.496   1
  -3   3  -5 60506.2 1602.52   1
  -3   3  -6 24723.6 898.856   1
  -3   3  -7 463.438 127.824   1
  -3   3  -8 7750.16 480.047   1
  -3   3  -9 5177.72 389.407   1
  -3   3 -10 263.032 107.067   1
  -3   3 -11 45.5962 69.6589   1
  -3   3 -12 1839.07 240.200   1
  -3   3 -13 3783.13 341.181   1
  -3   3 -14 264.646 103.375   1
  -3   3 -15 1910.41 253.411   1
  -3   3 -16 6545.95 467.787   1
  -3   3 -17 1433.60 231.322   1
  -3   3 -18 432.664 137.590   1
  -3   3 -19 8526.73 565.448   1
   3  -2 -23 14018.1 937.605   2
   3  -2 -22 9456.74 743.214   2
   3  -2 -21 7289.96 627.919   2
   3  -2 -20 14946.8 893.819   2
   3  -2 -19 8751.79 489.648   3
   3  -2 -19 7708.66 614.607   2
   3  -2 -18 610.728 125.164   3
   3  -2 -18 286.442 123.640   2
   3  -2 -17-42.1537 65.4146   3
   3  -2 -17 77.2345 67.4875   2
   3  -2 -16 366.842 95.8288   3
   3  -2 -16 349.210 120.337   2
   3  -2 -15 1846.03 258.628   2
   3  -2 -15 2053.16 226.815   3
   3  -2 -14 1987.39 218.245   3
   3  -2 -14 2000.75 269.400   2
   3  -2 -13 721.005 151.834   2
   3  -2 -13 827.464 139.162   3
   3  -2 -12 334.832 114.302   2
   3  -2 -11 68.2439 59.0053   2
  -3   2  11 21.2866 52.6002   1
  -3   2  10 48.4198 42.7223   1
  -3   2   9 22.3032 50.5847   1
  -3   2   8 3588.28 302.172   1
  -3   2   7 5289.54 361.351   1
  -3   2   6 12320.6 573.150   1
  -3   2   5 18590.4 726.882   1
  -3   2   4 21356.6 789.413   1
  -3   2   3 6388.56 396.930   1
   3  -2  -3 6332.11 281.230   2
  -3   2   2 728.492 130.157   1
   3  -2  -2 736.048 80.9763   2
   3  -2  -1 136.356 31.3789   2
  -3   2   1 15.6359 62.5465   1
   3  -2  -1 126.025 29.4309   2
  -3   2   0 16812.8 659.110   1
  -3   2  -1 33914.6 1028.32   1
  -3   2  -2 19028.7 712.438   1
  -3   2  -3 7739.67 431.181   1
  -3   2  -4 112224. 2483.03   1
  -3   2  -5 5999.41 378.415   1
  -3   2  -6 53467.7 1427.67   1
  -3   2  -7 99443.4 2280.60   1
  -3   2  -8 13194.9 598.204   1
  -3   2  -9 852.033 165.640   1
  -3   2 -10 7582.78 444.809   1
  -3   2 -10 7085.59 230.056   2
  -3   2 -11 6682.31 418.584   1
  -3   2 -11 6318.41 242.406   2
  -3   2 -12 28.2339 25.1431   2
  -3   2 -12 46.3048 62.0520   1
  -3   2 -13 183.413 50.0679   2
  -3   2 -13 454.896 116.079   1
  -3   2 -14 110.029 86.8265   1
  -3   2 -15 337.768 107.392   1
  -3   2 -16 248.841 97.4036   1
  -3   2 -17 4653.80 373.072   1
  -3   2 -18 21404.7 877.197   1
  -3   2 -19 142.594 101.170   1
  -3   2 -20 106.759 76.5398   1
  -3   2 -21 449.745 143.649   1
   3  -1 -23 1144.83 262.268   2
   3  -1 -22 979.300 241.562   2
   3  -1 -21 1713.17 305.936   2
   3  -1 -20 46.8281 73.0573   2
   3  -1 -19 1871.36 298.997   2
   3  -1 -18 191.470 118.327   2
   3  -1 -17 246.130 98.8080   2
   3  -1 -16 1373.27 231.347   2
   3  -1 -15 794.920 171.615   2
   3  -1 -14 3722.61 357.188   2
   3  -1 -13 2123.98 261.137   2
   3  -1 -12 11126.5 590.356   2
   3  -1 -11 481.298 123.862   2
  -3   1  10 1878.04 214.128   1
   3  -1 -10 1885.34 217.014   2
  -3   1   9 14578.8 620.399   1
   3  -1  -9 13283.3 592.457   2
  -3   1   8 3283.98 279.791   1
   3  -1  -8 3735.86 282.212   2
  -3   1   7 3660.08 292.035   1
   3  -1  -7 3320.54 251.943   2
  -3   1   6 52910.7 1367.58   1
   3  -1  -6 48072.1 1228.76   2
  -3   1   5 13525.3 585.094   1
   3  -1  -5 14146.9 500.457   2
  -3   1   4 651.906 120.439   1
   3  -1  -4 680.256 92.3837   2
  -3   1   3 8223.37 440.096   1
   3  -1  -3 8869.67 330.954   2
   3  -1  -2 12278.1 361.261   2
  -3   1   2 11681.7 532.535   1
   3  -1  -1 2737.82 116.821   2
  -3   1   1 2832.57 244.113   1
  -3   1   0 4353.07 297.204   1
  -3   1  -1 3241.05 254.227   1
  -3   1  -2 79.4694 65.3834   1
  -3   1  -3 29.1237 40.3527   1
  -3   1  -4 22221.4 757.907   1
  -3   1  -5 20047.9 711.286   1
  -3   1  -6 10742.2 495.635   1
  -3   1  -7 1336.00 173.148   1
  -3   1  -8 7099.45 403.646   1
  -3   1  -9 13568.0 576.055   1
  -3   1  -9 13061.6 338.432   2
  -3   1 -10 975.256 150.141   1
  -3   1 -10 811.899 79.8842   2
  -3   1 -11 8503.21 446.796   1
  -3   1 -11 8275.57 322.883   2
  -3   1 -12 7984.06 444.698   1
  -3   1 -12 8840.51 364.096   2
  -3   1 -13 1141.22 172.974   1
  -3   1 -13 1140.32 134.395   2
  -3   1 -14 2684.18 256.507   1
  -3   1 -14 2511.36 215.417   2
  -3   1 -15 6475.96 409.917   1
  -3   1 -15 6369.71 374.239   2
  -3   1 -16 192.189 77.8448   2
  -3   1 -16 254.659 102.996   1
  -3   1 -17 512.440 124.190   2
  -3   1 -17 666.776 136.667   1
  -3   1 -18 216.879 86.3614   2
  -3   1 -18 229.633 103.495   1
  -3   1 -19 884.483 166.849   1
  -3   1 -19 897.852 173.399   2
  -3   1 -20 1283.88 199.608   1
  -3   1 -21 404.399 127.897   1
  -3   1 -22 2443.54 277.650   1
  -3   1 -23 12410.1 647.717   1
   3   0 -24 3462.74 477.978   2
   3   0 -23 9172.77 743.198   2
   3   0 -22 9731.00 739.688   2
   3   0 -21 1276.52 266.655   2
   3   0 -20 1669.95 286.310   2
   3   0 -19 880.118 203.301   2
   3   0 -18 3869.68 409.352   2
   3   0 -17 83.8997 110.603   2
   3   0 -16 1925.92 274.184   2
   3   0 -15 14457.6 746.009   2
   3   0 -14 5160.71 418.769   2
   3   0 -13 4945.01 397.858   2
   3   0 -12 33613.1 1122.99   2
   3   0 -11 1882.54 225.637   2
   3   0 -10 5389.36 370.140   2
  -3   0   9 19378.9 729.901   1
   3   0  -9 19044.7 727.516   2
  -3   0   8 3472.27 280.476   1
   3   0  -8 3778.33 289.515   2
   3   0  -7 101.620 55.6835   2
  -3   0   7 96.7950 58.8792   1
   3   0  -6 278.373 77.3534   2
  -3   0   6 275.336 90.0899   1
  -3   0   5 6532.88 377.184   1
   3   0  -5 6216.80 314.573   2
  -3   0   4 67.0531 48.0286   1
   3   0  -4 41.8973 33.2654   2
   3   0  -3 1171.43 112.854   2
  -3   0   3 1094.94 150.895   1
   3   0  -2 5207.91 213.315   2
  -3   0   2 5269.69 328.651   1
   3   0  -1 15944.2 404.938   2
  -3   0   1 14954.8 593.496   1
   3   0   0 4020.84 146.438   2
  -3   0   0 5342.28 333.095   1
  -3   0  -1 46887.4 1211.89   1
  -3   0  -2 74661.1 1711.39   1
  -3   0  -3 1220.77 151.783   1
  -3   0  -4 1013.19 140.143   1
  -3   0  -5 1695.60 180.427   1
  -3   0  -6 5625.54 156.608   2
  -3   0  -6 5561.60 172.436   2
  -3   0  -7 142.793 32.8872   2
  -3   0  -7 136.547 65.1261   1
  -3   0  -7 117.607 25.0037   2
  -3   0  -8 1444.90 167.579   1
  -3   0  -8 1261.05 102.638   2
  -3   0  -9 8195.83 431.712   1
  -3   0  -9 9417.98 346.805   2
  -3   0 -10 23329.9 777.607   1
  -3   0 -10 23104.8 662.508   2
  -3   0 -11 35687.6 1020.55   1
  -3   0 -11 33916.9 909.973   2
  -3   0 -12 15129.7 611.579   1
  -3   0 -12 16523.5 589.293   2
  -3   0 -13 17.4154 45.0654   1
  -3   0 -13 92.5385 71.1230   2
  -3   0 -14 1294.59 166.868   1
  -3   0 -14 1193.07 158.859   2
  -3   0 -15 3124.61 264.838   1
  -3   0 -15 3187.86 277.693   2
  -3   0 -16 1029.30 154.856   1
  -3   0 -16 1200.76 179.385   2
  -3   0 -17 11.5637 48.5300   2
  -3   0 -17-16.0208 55.4647   1
  -3   0 -18 197.161 91.0581   2
  -3   0 -18 46.4211 55.5665   1
  -3   0 -19 1702.04 208.789   1
  -3   0 -19 1729.17 243.700   2
  -3   0 -20 12097.5 592.105   1
  -3   0 -20 14732.5 758.273   2
  -3   0 -21 21723.2 838.040   1
  -3   0 -21 23053.6 1011.84   2
  -3   0 -22 23962.4 889.334   1
  -3   0 -22 22691.8 1037.31   2
  -3   0 -23 16917.7 736.232   1
  -3   0 -23 15935.5 870.947   2
  -3   0 -24 15427.3 713.969   1
  -3   0 -25 514.898 160.720   1
  -3   0 -25 255.625 106.620   3
  -3   0 -26 10638.4 690.247   3
   3   1 -24 12297.2 875.024   2
   3   1 -23 398.327 156.819   2
   3   1 -22 5933.61 570.792   2
   3   1 -21 774.838 207.727   2
   3   1 -20 676.377 202.737   2
   3   1 -19 2496.24 343.941   2
   3   1 -18 14.3778 69.6372   2
   3   1 -17 1049.14 216.872   2
   3   1 -16 3183.23 355.355   2
   3   1 -15 4226.58 395.180   2
   3   1 -14 6290.75 473.968   2
  -3  -1  14 6152.38 228.408   3
   3   1 -13 1192.24 195.243   2
  -3  -1  13 1261.81 92.7835   3
   3   1 -12 6208.25 435.192   2
  -3  -1  12 6128.25 219.993   3
   3   1 -11 7.52102 55.4225   2
  -3  -1  11 22.3349 22.3412   3
   3   1 -10 830.785 145.303   2
  -3  -1  10 789.012 74.9983   3
   3   1  -9 6933.08 411.095   2
  -3  -1   9 7423.17 260.522   3
   3   1  -8 669.010 116.696   2
  -3  -1   8 707.167 76.6893   3
  -3  -1   7 5375.53 341.481   1
   3   1  -7 4995.25 321.889   2
  -3  -1   7 5567.58 244.261   3
  -3  -1   6 8661.85 437.734   1
  -3  -1   6 9223.83 343.610   3
   3   1  -6 9259.53 424.934   2
  -3  -1   5 1922.36 198.566   1
   3   1  -5 1602.84 158.756   2
  -3  -1   5 1600.71 139.054   3
  -3  -1   5 1682.07 173.861   2
   3   1  -4 282.247 62.4496   2
  -3  -1   4 295.262 70.3569   2
  -3  -1   4 370.158 92.3607   1
  -3  -1   3 99.7647 50.3822   1
   3   1  -3 103.448 40.9403   2
  -3  -1   3 111.843 45.3467   2
   3   1  -2 13298.9 429.013   2
  -3  -1   2 12944.1 524.169   1
  -3  -1   2 12218.0 443.166   2
   3   1  -1 11137.9 361.876   2
  -3  -1   1 10663.0 468.647   1
  -3  -1   1 10299.3 377.310   2
   3   1   0 9428.53 311.598   2
  -3  -1   0 8385.45 411.028   1
  -3  -1   0 9230.83 342.353   2
   3   1   1 45587.2 956.804   2
  -3  -1  -1 45401.6 997.392   2
  -3  -1  -1 44877.4 1171.27   1
  -3  -1  -2 20700.9 529.238   2
  -3  -1  -2 20677.8 678.879   1
  -3  -1  -3 7197.35 254.716   2
  -3  -1  -3 6531.49 341.488   1
  -3  -1  -4 6057.61 227.965   2
  -3  -1  -4 5832.58 323.269   1
  -3  -1  -5 1260.86 97.1583   2
  -3  -1  -5 1090.02 134.310   1
  -3  -1  -6 230.461 65.5586   1
  -3  -1  -6 201.748 43.1704   2
  -3  -1  -7 652.285 107.924   1
  -3  -1  -7 562.927 69.8944   2
  -3  -1  -8 14256.2 542.091   1
  -3  -1  -9 257.313 79.6810   1
  -3  -1 -10 295.477 79.2001   1
  -3  -1 -11 3816.11 269.525   1
  -3  -1 -12 49104.3 1261.18   1
  -3  -1 -13 48.7569 54.6319   1
  -3  -1 -14 1659.02 185.874   1
  -3  -1 -15 333.861 92.8749   1
  -3  -1 -16 8856.51 443.392   1
  -3  -1 -17 652.186 122.683   1
  -3  -1 -18 419.207 106.670   1
  -3  -1 -19 655.132 129.282   1
  -3  -1 -20 439.675 113.500   1
  -3  -1 -21 1939.82 223.233   1
  -3  -1 -21 2148.77 308.845   2
  -3  -1 -22 19734.7 927.054   3
  -3  -1 -22 20521.8 791.880   1
  -3  -1 -22 21645.0 1029.81   2
  -3  -1 -23 4507.32 426.720   3
  -3  -1 -23 4842.33 365.360   1
  -3  -1 -23 5322.37 502.735   2
  -3  -1 -24 1332.60 264.895   2
  -3  -1 -24 1761.94 262.063   3
  -3  -1 -24 1856.77 230.325   1
  -3  -1 -25 11.2177 53.3298   3
  -3  -1 -25 181.360 104.485   1
  -3  -1 -26 6861.20 525.430   3
  -3  -1 -26 6952.79 469.752   1
  -3  -1 -26 8027.07 679.170   2
   3   2 -23-24.7190 77.9669   2
   3   2 -22 367.944 154.378   2
   3   2 -21 658.302 200.148   2
   3   2 -20 781.530 202.999   2
   3   2 -19 1465.24 265.548   2
   3   2 -18 2100.52 304.598   2
   3   2 -17 52.5514 64.7716   2
   3   2 -16 112.061 81.2027   2
   3   2 -15 24701.2 1018.42   2
   3   2 -14 3194.25 334.543   2
   3   2 -13 20836.7 881.089   2
   3   2 -12 18326.6 799.517   2
  -3  -2  12 18595.6 392.449   3
   3   2 -11 152145. 3315.75   2
  -3  -2  11 152507. 2713.17   3
   3   2 -10-5.28868 43.5629   2
  -3  -2  10 140.588 28.3296   3
   3   2  -9 90192.9 2151.53   2
  -3  -2   9 93916.8 1749.24   3
   3   2  -8 317.416 88.1108   2
  -3  -2   8 74.5664 26.3708   3
   3   2  -7 5753.38 349.071   2
  -3  -2   7 6169.27 250.641   3
   3   2  -6 148.376 62.6413   2
  -3  -2   6 219.213 76.3150   2
  -3  -2   5 18534.5 665.009   1
   3   2  -5 19698.4 663.197   2
  -3  -2   5 18856.0 684.314   2
  -3  -2   4 2035.20 194.684   1
   3   2  -4 2440.21 198.035   2
  -3  -2   4 2481.74 220.926   2
  -3  -2   3 3126.46 240.861   1
   3   2  -3 3002.85 210.661   2
  -3  -2   3 2910.13 229.766   2
   3   2  -2 13445.2 467.179   2
  -3  -2   2 12748.5 511.381   1
  -3  -2   2 11911.7 480.476   2
   3   2  -1 27440.3 739.029   2
  -3  -2   1 27191.5 820.765   1
  -3  -2   1 29189.4 803.209   2
   3   2   0 27379.4 711.377   2
  -3  -2   0 24831.9 719.763   2
  -3  -2   0 25978.3 781.682   1
  -3  -2  -1 695.636 110.494   1
  -3  -2  -1 840.670 102.317   2
   3   2   1 651.498 85.4862   2
  -3  -2  -2 57175.3 1278.05   2
  -3  -2  -2 57448.8 1362.23   1
  -3  -2  -3 37372.6 920.110   2
  -3  -2  -3 39023.0 1015.59   1
  -3  -2  -4 8219.19 326.629   2
  -3  -2  -4 6864.78 345.847   1
  -3  -2  -5 10756.5 387.743   2
  -3  -2  -5 10003.6 420.817   1
  -3  -2  -6 7554.04 319.767   2
  -3  -2  -6 7304.35 348.046   1
  -3  -2  -7-13.0376 29.2493   2
  -3  -2  -7 6.00076 34.5646   1
  -3  -2  -8 7978.20 369.272   1
  -3  -2  -8 8180.92 349.460   2
  -3  -2  -9 16104.6 564.356   1
  -3  -2 -10 58100.5 1368.56   1
  -3  -2 -11 11187.7 462.984   1
  -3  -2 -12 80449.8 1798.17   1
  -3  -2 -13 55572.1 1365.04   1
  -3  -2 -14 2389.29 210.639   1
  -3  -2 -15 5305.81 319.563   1
  -3  -2 -16 7325.88 388.583   1
  -3  -2 -17 135.497 59.4962   1
  -3  -2 -18 210.791 77.9661   1
  -3  -2 -18 109.926 96.5994   3
  -3  -2 -19 362.246 96.9994   1
  -3  -2 -19 607.568 155.190   3
  -3  -2 -20 3079.35 335.026   3
  -3  -2 -20 2871.21 252.732   1
  -3  -2 -21 670.207 171.439   3
  -3  -2 -21 381.968 100.600   1
  -3  -2 -22 139.382 90.6326   3
  -3  -2 -22 258.342 88.1361   1
  -3  -2 -23 1648.60 246.996   3
  -3  -2 -23 1924.08 221.559   1
  -3  -2 -24 654.559 157.835   3
  -3  -2 -24 710.997 135.894   1
  -3  -2 -25 663.183 165.411   3
  -3  -2 -25 431.753 110.950   1
  -3  -2 -26 54.7334 52.3102   3
  -3  -2 -26 331.742 127.691   2
  -3  -2 -27 5453.35 458.314   3
   3   3 -23 211.757 139.398   2
   3   3 -22 2599.38 379.383   2
   3   3 -21 15314.6 916.192   2
   3   3 -20 4603.75 479.861   2
   3   3 -19 164.058 85.5768   2
   3   3 -18 546.780 180.631   2
   3   3 -17 58.6344 54.3765   2
   3   3 -16 2397.20 307.799   2
   3   3 -15 15576.1 791.863   2
   3   3 -14 1483.22 228.136   2
   3   3 -13 8787.46 542.489   2
   3   3 -12 39643.8 1272.68   2
   3   3 -11 164873. 3542.19   2
  -3  -3  10 46402.5 879.418   3
  -3  -3  10 51135.1 891.710   3
  -3  -3   9 8900.00 255.234   3
   3   3  -9 8607.65 490.381   2
  -3  -3   9 8317.74 237.914   3
  -3  -3   8 3072.64 153.746   3
   3   3  -8 2801.85 262.205   2
  -3  -3   7 28391.4 689.097   3
   3   3  -7 27664.4 918.533   2
   3   3  -6 11004.8 510.956   2
   3   3  -5 992.093 138.071   2
   3   3  -4 10913.3 479.171   2
  -3  -3   3 801.723 138.815   2
   3   3  -3 743.421 120.697   2
  -3  -3   2 3980.23 262.893   1
   3   3  -2 4562.58 274.188   2
  -3  -3   2 4305.40 293.676   2
   3   3  -2 3276.29 247.224   1
   3   3  -1 6984.54 349.015   2
  -3  -3   1 6993.63 350.000   1
  -3  -3   1 7515.28 384.590   2
   3   3   0 17085.4 577.857   2
  -3  -3   0 16553.5 575.215   1
  -3  -3   0 15890.3 595.014   2
   3   3   1 17282.8 578.012   2
  -3  -3  -1 17114.6 581.035   1
  -3  -3  -1 17484.1 612.263   2
  -3  -3  -2 13156.9 501.698   2
  -3  -3  -2 12450.2 473.772   1
   3   3   3 11634.0 439.615   1
  -3  -3  -3 13108.9 493.554   2
  -3  -3  -3 11955.1 456.452   1
   3   3   4 2616.79 187.108   1
  -3  -3  -4 2768.21 210.679   2
  -3  -3  -4 2509.66 192.447   1
  -3  -3  -5 16.1701 36.3067   1
  -3  -3  -5 30.7094 44.3799   2
   3   3   5 22.1626 35.8265   1
   3   3   6 762.511 95.7921   1
  -3  -3  -6 1020.72 124.889   1
  -3  -3  -6 648.922 104.788   2
   3   3   7 45.5724 33.9964   1
  -3  -3  -7-13.0997 28.6896   1
  -3  -3  -7-16.5787 38.2924   2
  -3  -3  -8-42.6102 40.5837   1
  -3  -3  -9 23871.9 700.537   1
  -3  -3 -10 32317.3 868.469   1
  -3  -3 -11 1543.17 211.494   3
  -3  -3 -11 1461.21 147.928   1
  -3  -3 -12 8536.55 382.550   1
  -3  -3 -12 8358.09 510.605   3
  -3  -3 -13 24380.2 945.485   3
  -3  -3 -13 25226.2 753.346   1
  -3  -3 -14 2718.90 293.287   3
  -3  -3 -14 2723.55 210.627   1
  -3  -3 -15 1557.05 166.209   1
  -3  -3 -15 1188.44 215.486   3
  -3  -3 -16 3165.00 331.274   3
  -3  -3 -16 3147.27 240.733   1
  -3  -3 -17 79.1855 51.6162   3
  -3  -3 -17 197.881 65.6858   1
  -3  -3 -18 407.830 134.032   3
  -3  -3 -18 414.557 101.702   1
  -3  -3 -19 266.612 111.387   3
  -3  -3 -19 293.983 79.7740   1
  -3  -3 -20 1139.14 153.776   1
  -3  -3 -20 1393.25 225.982   3
  -3  -3 -21 318.148 92.3269   1
  -3  -3 -21 351.812 127.436   3
  -3  -3 -22 126.047 89.0482   3
  -3  -3 -23 2426.37 301.917   3
  -3  -3 -24 14.9321 62.0965   3
  -3  -3 -25 1855.09 264.597   3
  -3  -3 -26 10084.2 633.753   3
   3   4 -22 10593.7 767.147   2
   3   4 -21 692.494 201.895   2
   3   4 -20 1723.36 298.776   2
   3   4 -19 2367.07 335.194   2
   3   4 -18 489.294 162.380   2
   3   4 -17-5.77555 63.8432   2
   3   4 -16 1211.21 221.832   2
   3   4 -15 84.5453 98.4598   2
   3   4 -14 8.55330 63.2216   2
   3   4 -13 1797.05 250.094   2
   3   4 -12 6173.68 456.179   2
   3   4 -11 4238.90 365.371   2
   3   4 -10 1633.10 216.815   2
   3   4  -9 3757.06 324.230   2
  -3  -4   9 3967.15 123.533   3
   3   4  -8 10883.2 555.577   2
  -3  -4   8 11389.6 297.187   3
   3   4  -7 730.840 137.955   2
  -3  -4   7 642.254 64.3482   3
  -3  -4   6 22.1226 19.1970   3
   3   4  -6 19.7425 50.8084   2
  -3  -4   5 70.7871 31.5568   3
   3   4  -5 135.458 72.2880   2
  -3  -4   4 7433.98 315.924   3
   3   4  -4 7844.30 423.807   2
  -3  -4   3 2073.39 165.287   3
   3   4  -3 2152.74 214.853   2
  -3  -4   2 5101.48 280.183   3
   3   4  -2 4663.53 314.676   2
  -3  -4   1 80184.4 1758.51   3
   3   4  -1 79183.2 1839.48   2
  -3  -4   0 16746.3 595.758   3
   3   4   0 16138.0 612.299   2
  -3  -4  -1 275.417 77.7297   3
   3   4   1 281.689 79.7722   2
  -3  -4  -2 216.607 66.8796   3
  -3  -4  -2 231.121 61.2798   1
   3   4   2 198.722 53.0920   1
  -3  -4  -3 16100.4 628.813   3
  -3  -4  -3 15545.3 527.599   1
   3   4   3 16652.0 526.214   1
   3   4   4 740.872 94.9363   1
  -3  -4  -4 724.669 127.549   3
  -3  -4  -4 796.486 101.601   1
  -3  -4  -5 16448.5 668.238   3
   3   4   5 17718.7 528.537   1
  -3  -4  -5 16766.2 537.686   1
  -3  -4  -6 49813.7 1359.95   3
   3   4   6 47542.5 1075.81   1
  -3  -4  -6 49781.1 1136.69   1
  -3  -4  -7 3939.25 315.305   3
   3   4   7 3216.41 174.846   1
  -3  -4  -7 3265.63 204.175   1
  -3  -4  -8 11.9901 28.3915   1
  -3  -4  -8-41.9673 61.5455   3
  -3  -4  -9 5090.05 375.756   3
  -3  -4  -9 5064.96 262.241   1
  -3  -4 -10 8742.63 502.767   3
  -3  -4 -10 8028.49 344.764   1
  -3  -4 -11 102.250 68.4811   3
  -3  -4 -11-11.3894 33.5453   1
  -3  -4 -12 2244.84 266.223   3
  -3  -4 -12 2367.07 174.368   1
  -3  -4 -13 319.930 101.973   3
  -3  -4 -13 138.341 47.1862   1
  -3  -4 -14 1186.01 194.550   3
  -3  -4 -14 1360.84 138.423   1
  -3  -4 -15 2010.75 252.548   3
  -3  -4 -15 1857.63 164.409   1
  -3  -4 -16 2640.78 296.828   3
  -3  -4 -16 3267.46 224.839   1
  -3  -4 -17 18286.5 830.841   3
  -3  -4 -17 17978.3 605.409   1
  -3  -4 -18 557.523 144.937   3
  -3  -4 -19 308.631 108.484   3
  -3  -4 -20 9911.19 604.802   3
  -3  -4 -21 1854.51 260.824   3
  -3  -4 -22 1616.25 241.529   3
  -3  -4 -23 9060.83 580.742   3
  -3  -4 -24 10582.6 631.853   3
   3   5 -20 122.774 109.543   2
   3   5 -19-14.6224 101.308   2
   3   5 -18 717.061 200.257   2
   3   5 -17 923.118 210.666   2
   3   5 -16 49.0074 79.9711   2
   3   5 -15 2693.39 331.643   2
   3   5 -14 12475.9 721.219   2
   3   5 -13 2506.28 299.676   2
   3   5 -12 1510.64 230.417   2
   3   5 -11 16315.5 775.408   2
   3   5 -10 992.686 173.591   2
  -3  -5  10 803.437 52.0779   3
  -3  -5   9 14.2824 12.3379   3
   3   5  -9 33.5882 52.1934   2
   3   5  -8 2782.17 285.868   2
  -3  -5   8 2818.45 127.739   3
   3   5  -7 18751.3 783.103   2
  -3  -5   7 19311.3 476.109   3
   3   5  -6 9033.77 504.854   2
  -3  -5   6 8865.15 298.005   3
  -3  -5   5 53.8288 33.2114   3
   3   5  -5 162.169 92.3991   2
   3   5  -4 17297.0 709.422   2
  -3  -5   4 17494.0 514.610   3
   3   5  -3 844.543 150.101   2
  -3  -5   3 848.015 98.5677   3
  -3  -5   2 13.8528 34.4134   3
   3   5  -2 60.8849 63.8187   2
   3   5  -1 5956.23 365.919   2
  -3  -5   1 5544.57 272.344   3
   3   5   0 15286.2 638.908   2
  -3  -5   0 14637.6 527.331   3
  -3  -5  -1 2661.97 213.179   3
  -3  -5  -2 545.274 102.867   3
   3   5   2 534.750 84.1458   1
  -3  -5  -3 12361.1 524.052   3
   3   5   3 12696.4 440.455   1
  -3  -5  -4 59572.9 1504.82   3
   3   5   4 61097.5 1308.30   1
  -3  -5  -5 15910.8 645.557   3
   3   5   5 17088.4 491.445   1
  -3  -5  -6 8280.08 452.143   3
   3   5   6 8623.08 295.325   1
  -3  -5  -7 85468.6 1992.99   3
   3   5   7 81776.9 1594.87   1
  -3  -5  -8 33305.1 1058.96   3
  -3  -5  -9 2152.11 238.263   3
  -3  -5  -9 2313.73 144.158   1
  -3  -5 -10 3300.16 300.747   3
  -3  -5 -10 3775.81 184.434   1
  -3  -5 -11 16623.9 732.840   3
  -3  -5 -11 18093.6 487.359   1
  -3  -5 -12 1064.06 180.375   3
  -3  -5 -12 924.571 88.2508   1
  -3  -5 -13 6100.33 431.555   3
  -3  -5 -14 2079.31 256.392   3
  -3  -5 -15 2707.28 292.083   3
  -3  -5 -16 204.128 88.3691   3
  -3  -5 -17 5655.66 429.930   3
  -3  -5 -18 9223.52 563.874   3
  -3  -5 -19 5916.29 448.237   3
  -3  -5 -20 797.608 167.557   3
  -3  -5 -21 648.561 155.742   3
  -3  -5 -22 407.703 118.001   3
   3   6 -18 181.503 125.315   2
   3   6 -17 408.968 145.015   2
   3   6 -16 2080.23 304.986   2
   3   6 -15 1469.28 255.311   2
   3   6 -14 2667.49 334.997   2
   3   6 -13 1687.43 262.024   2
   3   6 -12 1318.27 234.359   2
   3   6 -11 3072.80 339.375   2
   3   6 -10 1721.80 242.234   2
   3   6  -9 237.514 123.810   2
  -3  -6   8 172.774 36.2884   3
   3   6  -8 214.824 106.483   2
  -3  -6   7 240.148 49.2142   3
   3   6  -7 288.543 120.119   2
   3   6  -6 4613.11 379.006   2
  -3  -6   6 4801.58 217.774   3
   3   6  -5 4744.21 380.233   2
  -3  -6   5 4916.42 231.073   3
   3   6  -4 10956.9 587.316   2
  -3  -6   4 11246.7 391.762   3
   3   6  -3 9770.01 547.186   2
  -3  -6   3 9996.13 378.221   3
   3   6  -2 2464.29 264.106   2
  -3  -6   2 2588.94 187.138   3
   3   6  -1 2841.81 284.339   2
  -3  -6   1 2339.22 184.816   3
  -3  -6   0 5318.23 294.099   3
  -3  -6  -1 3537.93 245.802   3
  -3  -6  -2 60.2994 43.8782   3
   3   6   2-4.39379 44.4089   1
  -3  -6  -3 199.072 64.4728   3
   3   6   3 182.276 52.5631   1
   3   6   4 1192.81 112.297   1
  -3  -6  -4 1405.47 166.524   3
   3   6   5 17651.9 467.988   1
  -3  -6  -5 17090.5 655.819   3
  -3  -6  -6 26499.4 874.333   3
  -3  -6  -7 17.6044 45.9296   3
  -3  -6  -8 807.705 140.299   3
  -3  -6  -9 3165.84 284.203   3
  -3  -6 -10 1871.26 219.738   3
  -3  -6 -11 1626.71 207.093   3
  -3  -6 -12 1011.81 170.936   3
  -3  -6 -13 252.959 89.2073   3
  -3  -6 -14 5131.62 389.976   3
  -3  -6 -15 32.7896 57.1530   3
  -3  -6 -16 533.686 128.869   3
  -3  -6 -17 108.107 77.1851   3
  -3  -6 -18 178.368 80.3212   3
  -3  -6 -19 2179.99 267.921   3
  -3  -6 -20 62.4623 74.2700   3
   3   7 -15 9652.81 682.625   2
   3   7 -14 11452.9 727.642   2
   3   7 -13 488.073 147.911   2
   3   7 -12 366.370 129.079   2
   3   7 -11 633.696 168.801   2
   3   7 -10 2559.70 321.434   2
   3   7  -9 108.110 98.3604   2
   3   7  -8 75.2115 73.9102   2
  -3  -7   7 1843.40 144.837   3
   3   7  -7 1856.33 261.275   2
   3   7  -6 3967.18 376.510   2
  -3  -7   6 4103.11 228.262   3
  -3  -7   5 51.9445 47.3532   3
   3   7  -5 25.4293 76.4664   2
   3   7  -4 15305.7 747.127   2
  -3  -7   4 14959.2 489.558   3
   3   7  -3 42407.5 1357.73   2
  -3  -7   3 40399.4 997.491   3
   3   7  -2 4039.79 372.650   2
  -3  -7   2 4005.55 244.149   3
  -3  -7   1 13432.3 494.811   3
  -3  -7   0 23776.7 724.950   3
  -3  -7  -1 4796.91 290.329   3
  -3  -7  -2 33.2070 53.9417   3
  -3  -7  -3 1459.34 168.730   3
  -3  -7  -4 3800.40 279.493   3
  -3  -7  -5 79.5114 64.0637   3
  -3  -7  -6 456.032 107.391   3
  -3  -7  -7 163.936 76.1812   3
  -3  -7  -8 1530.97 198.129   3
  -3  -7  -9 610.425 131.262   3
  -3  -7 -10 11682.0 584.154   3
  -3  -7 -11 8816.85 506.805   3
  -3  -7 -12 1210.38 191.031   3
  -3  -7 -13 3476.79 322.700   3
  -3  -7 -14 77.6565 56.9927   3
  -3  -7 -15 1488.57 218.375   3
  -3  -7 -16 276.131 100.917   3
  -3  -7 -17 573.942 139.788   3
   3   8 -11 7.15537 102.961   2
   3   8 -10-53.4602 68.8332   2
   3   8  -9 146.145 96.3617   2
   3   8  -8 191.167 114.144   2
   3   8  -7 141.050 111.495   2
   3   8  -6 12683.3 734.437   2
  -3  -8   5 182.542 62.4578   3
   3   8  -5 206.025 124.421   2
   3   8  -4 1973.30 288.457   2
  -3  -8   4 1973.96 180.545   3
  -3  -8   3 9134.02 403.763   3
  -3  -8   2 4807.79 288.074   3
  -3  -8   1 891.075 126.426   3
  -3  -8   0 9395.13 425.200   3
  -3  -8  -1 1672.06 178.443   3
  -3  -8  -2-11.2528 40.8513   3
  -3  -8  -3 1522.88 179.982   3
  -3  -8  -4 231.428 85.7143   3
  -3  -8  -5 1448.73 180.994   3
  -3  -8  -6 367.995 104.961   3
  -3  -8  -7 1362.19 187.980   3
  -3  -8  -8 312.354 100.382   3
  -3  -8  -9 5038.26 366.443   3
  -3  -8 -10 7427.37 458.720   3
  -3  -8 -11 6320.54 432.467   3
  -3  -8 -12 4472.29 364.872   3
  -3  -8 -13 1788.62 237.985   3
  -3  -9   2 0.92337 51.9575   3
  -3  -9   1 6988.32 396.091   3
  -3  -9   0 6693.61 387.772   3
  -3  -9  -1 2160.92 217.220   3
  -3  -9  -2 3564.55 283.784   3
  -3  -9  -3 5736.91 367.887   3
  -3  -9  -4 211.649 87.4040   3
  -3  -9  -5 444.721 118.190   3
  -3  -9  -6 233.669 89.6751   3
  -3  -9  -7 2077.86 236.075   3
  -3  -9  -8 8834.46 503.902   3
  -4   5   8 12893.6 734.598   1
  -4   5   7 733.102 182.639   1
  -4   5   6 8918.56 597.983   1
  -4   5   5 6498.17 514.174   1
  -4   5   4 8128.62 579.732   1
  -4   5   3 825.306 185.426   1
  -4   5   2-19.2140 96.3577   1
  -4   5   1 7867.78 572.123   1
  -4   5   0 1575.67 261.932   1
  -4   5  -1 341.631 121.125   1
  -4   5  -2 894.956 197.216   1
  -4   5  -3 5436.40 472.903   1
  -4   5  -4 3295.66 373.154   1
  -4   5  -5 6939.41 549.634   1
  -4   5  -6 1912.29 286.726   1
  -4   5  -7 2365.12 324.409   1
  -4   4  13 1725.08 260.431   1
  -4   4  12 200.365 92.7484   1
  -4   4  11 2525.55 306.980   1
  -4   4  10 6768.97 507.105   1
  -4   4   9 553.915 163.356   1
  -4   4   8 9072.33 594.226   1
  -4   4   7 19122.7 887.468   1
  -4   4   6 2158.24 292.104   1
  -4   4   5 186.607 84.8026   1
  -4   4   4 3134.59 344.083   1
  -4   4   3 519.174 154.378   1
  -4   4   2 109.595 83.0981   1
  -4   4   1 2485.97 304.647   1
  -4   4   0 7942.46 547.448   1
  -4   4  -1 154.378 79.9976   1
  -4   4  -2 26.7995 74.8247   1
  -4   4  -3-3.18460 72.3673   1
  -4   4  -4 961.342 192.650   1
  -4   4  -5 95.9460 76.6750   1
  -4   4  -6 243.455 124.718   1
  -4   4  -7 2432.85 320.896   1
  -4   4  -8 5481.21 477.768   1
  -4   4  -9 383.269 163.379   1
  -4   4 -10 23677.6 1060.88   1
  -4   4 -11 2405.73 327.235   1
  -4   3  12 219.492 96.8704   1
  -4   3  11 2333.94 289.630   1
  -4   3  10 1017.57 195.754   1
  -4   3   9 83.4508 74.9540   1
  -4   3   8 37.6750 67.2147   1
  -4   3   7 2471.78 295.380   1
  -4   3   6 3202.52 332.073   1
  -4   3   5 2453.76 291.877   1
  -4   3   4 3514.49 351.275   1
  -4   3   3 68.2338 87.5666   1
  -4   3   2 9821.50 594.341   1
  -4   3   1 8545.16 556.710   1
  -4   3   0 3385.57 335.010   1
  -4   3  -1 2215.95 272.642   1
  -4   3  -2 1148.20 198.184   1
  -4   3  -3 129.296 78.0417   1
  -4   3  -4 644.936 151.776   1
  -4   3  -5 11090.0 639.036   1
  -4   3  -6 12318.8 684.446   1
  -4   3  -7 1063.99 209.983   1
  -4   3  -8 40235.8 1368.75   1
  -4   3  -9 41244.7 1406.72   1
  -4   3 -10 956.158 202.623   1
  -4   3 -11 271.218 160.120   1
  -4   3 -12 5215.58 456.077   1
  -4   3 -13 4277.60 425.631   1
  -4   3 -14 1520.77 260.428   1
  -4   3 -15-110.292 74.9607   1
   4  -2 -21 1207.48 263.291   2
   4  -2 -20 658.781 196.945   2
   4  -2 -19 1242.67 260.983   2
   4  -2 -18 1163.19 239.708   2
   4  -2 -17 95.4057 96.6423   2
   4  -2 -16 672.305 171.650   2
   4  -2 -15-56.0817 70.5679   2
   4  -2 -14 30.1444 72.0345   2
   4  -2 -13 59.3252 63.2581   2
   4  -2 -12 822.032 163.708   2
  -4   2  12 1192.10 204.911   1
   4  -2 -11 99.7658 66.1692   2
  -4   2  11 35.3461 68.3401   1
  -4   2  10 2393.31 280.062   1
   4  -2 -10 2307.39 252.062   2
   4  -2  -9 5.56240 49.2216   2
  -4   2   9 91.4874 77.6241   1
   4  -2  -8 103.664 58.3542   2
  -4   2   8 162.861 79.0264   1
   4  -2  -7 22.8089 40.5637   2
  -4   2   7 1.73752 56.4570   1
  -4   2   6 1810.68 242.112   1
   4  -2  -6 1822.37 181.391   2
  -4   2   5 4608.74 385.856   1
   4  -2  -5 4479.67 257.920   2
  -4   2   4 330.738 125.073   1
  -4   2   3 88269.8 2235.59   1
  -4   2   2 19869.0 850.745   1
  -4   2   1 28046.9 1040.95   1
  -4   2   0 10469.9 587.368   1
  -4   2  -1 18939.7 807.445   1
  -4   2  -2 1653.50 223.504   1
  -4   2  -3 1937.00 242.258   1
  -4   2  -4 89.3335 74.2241   1
  -4   2  -5 91.1933 73.4458   1
  -4   2  -6 7274.47 489.800   1
  -4   2  -7 17892.7 806.414   1
  -4   2  -8 4571.19 389.301   1
  -4   2  -9 5912.54 446.503   1
  -4   2 -10 26287.6 1023.66   1
  -4   2 -11 7935.54 530.438   1
  -4   2 -12 347.503 137.957   1
  -4   2 -13 2559.23 306.635   1
  -4   2 -14 670.342 168.350   1
  -4   2 -15 1793.66 263.537   1
  -4   2 -16-70.0479 85.9823   1
  -4   2 -17-40.7926 76.6371   1
   4  -1 -22 84.3912 101.603   2
   4  -1 -21 45.0274 89.6462   2
   4  -1 -20 1425.44 276.025   2
   4  -1 -19 79.3698 111.880   2
   4  -1 -18 915.210 221.549   2
   4  -1 -17 308.489 130.004   2
   4  -1 -16 4351.44 427.921   2
   4  -1 -15 237.168 136.271   2
   4  -1 -14 5956.54 475.228   2
   4  -1 -13 5715.55 449.818   2
   4  -1 -12 2956.35 311.934   2
   4  -1 -11 10.9892 68.5917   2
  -4   1  11 97.6249 67.1800   1
  -4   1  10 8519.25 535.411   1
   4  -1 -10 8305.53 503.105   2
  -4   1   9 1779.83 236.190   1
   4  -1  -9 1582.21 198.295   2
   4  -1  -8 136.821 46.9928   2
  -4   1   8 127.911 84.6176   1
   4  -1  -7 984.036 139.016   2
  -4   1   7 981.147 175.610   1
  -4   1   6 1572.34 218.693   1
   4  -1  -6 1445.04 155.892   2
  -4   1   5 1490.79 208.535   1
   4  -1  -5 1487.49 147.219   2
  -4   1   4 996.784 173.477   1
   4  -1  -4 834.100 96.3870   2
   4  -1  -3 50211.1 1049.78   2
  -4   1   3 50230.6 1470.93   1
   4  -1  -2 6589.94 184.918   2
  -4   1   2 7007.41 460.039   1
  -4   1   1 204.707 96.2101   1
  -4   1   0 12817.7 637.844   1
  -4   1  -1 8184.10 486.989   1
  -4   1  -2 20.3828 64.8138   1
  -4   1  -3 394.320 112.025   1
  -4   1  -4 5658.13 402.468   1
  -4   1  -5 491.350 122.191   1
  -4   1  -6 33.7048 60.2106   1
  -4   1  -7 5850.81 422.151   1
  -4   1  -8 1173.22 195.501   1
  -4   1  -9 492.082 130.253   1
  -4   1 -10 436.809 126.965   1
  -4   1 -11 447.411 139.477   1
  -4   1 -12 8863.18 546.677   1
  -4   1 -13 3677.69 351.413   1
  -4   1 -14 3799.00 359.981   1
  -4   1 -15 104.705 76.8754   1
  -4   1 -16 970.317 194.565   1
  -4   1 -17 61.3419 88.6837   1
  -4   1 -18 66.8084 63.4020   1
  -4   1 -19 58.2397 71.6387   1
  -4   1 -20 134.066 94.5668   1
   4   0 -22 9893.66 769.176   2
   4   0 -21 3086.65 414.870   2
   4   0 -20 377.382 172.624   2
   4   0 -19 135.854 116.509   2
   4   0 -18-11.2134 108.904   2
   4   0 -17 5909.23 513.138   2
   4   0 -16 12206.1 734.727   2
   4   0 -15 400.782 137.306   2
   4   0 -14 1103.17 207.208   2
   4   0 -13 2171.47 275.228   2
   4   0 -12 30616.8 1094.52   2
   4   0 -11 7702.73 481.832   2
   4   0 -10 94.2225 73.0978   2
  -4   0  10 35.6449 56.0115   1
   4   0  -9 188.192 71.4418   2
  -4   0   9 281.248 110.768   1
   4   0  -8 436.598 104.780   2
  -4   0   8 344.775 112.293   1
   4   0  -7 144.916 64.9853   2
  -4   0   7 158.830 88.3224   1
   4   0  -6 851.158 125.147   2
  -4   0   6 694.634 145.693   1
  -4   0   5 1552.53 211.944   1
   4   0  -5 1239.81 134.314   2
  -4   0   4 415.967 121.261   1
   4   0  -4 349.039 69.9637   2
   4   0  -3 5405.58 246.013   2
  -4   0   3 5334.06 387.577   1
  -4   0   2 1091.26 179.544   1
   4   0  -2 1317.84 101.009   2
   4   0  -1 1934.66 102.451   2
  -4   0   1 1800.61 222.255   1
  -4   0   0 2258.98 257.807   1
  -4   0  -1 334.682 92.6258   1
  -4   0  -2 229.831 95.3751   1
  -4   0  -3 22.6546 54.0677   1
  -4   0  -4 238.183 93.3655   1
  -4   0  -5 240.808 88.8024   1
  -4   0  -6 286.745 97.8327   1
  -4   0  -7 4726.16 357.657   1
  -4   0  -8 14461.4 658.193   1
  -4   0  -9 3577.00 312.002   1
  -4   0 -10 91.6609 85.9851   1
  -4   0 -11 12661.4 618.648   1
  -4   0 -12 8385.28 504.920   1
  -4   0 -13 12262.5 620.689   1
  -4   0 -14 15049.7 710.054   1
  -4   0 -15 1098.84 196.416   1
  -4   0 -16 1554.61 227.778   1
  -4   0 -17 4639.57 395.318   1
  -4   0 -18 338.037 118.532   1
  -4   0 -19 783.914 171.388   1
  -4   0 -20-81.7334 93.7586   1
  -4   0 -21 815.701 189.091   1
  -4   0 -22 4076.09 391.025   1
   4   1 -22 517.002 176.307   2
   4   1 -21 778.403 213.192   2
   4   1 -20 152.742 109.598   2
   4   1 -19 7.33093 85.3806   2
   4   1 -18 4.52298 62.8518   2
   4   1 -17 589.297 163.544   2
   4   1 -16 9961.21 645.753   2
   4   1 -15 3247.14 353.284   2
   4   1 -14 1511.94 232.347   2
   4   1 -13 2607.78 301.638   2
   4   1 -12 2029.12 257.812   2
   4   1 -11 409.408 121.965   2
   4   1 -10 3450.43 308.716   2
  -4  -1   9 11171.4 588.120   1
   4   1  -9 9739.02 511.237   2
  -4  -1   8 2236.05 255.937   1
   4   1  -8 1992.59 211.943   2
  -4  -1   7 6000.66 414.629   1
   4   1  -7 5880.29 351.901   2
  -4  -1   6 15955.5 698.948   1
   4   1  -6 15027.8 580.952   2
  -4  -1   5 7763.18 470.589   1
   4   1  -5 7371.53 369.610   2
   4   1  -4 1078.16 125.257   2
  -4  -1   4 1007.55 173.946   1
   4   1  -3 60308.8 1326.52   2
  -4  -1   3 56001.5 1551.76   1
   4   1  -2 15072.4 475.159   2
  -4  -1   2 14615.4 649.648   1
   4   1  -1 10241.6 350.546   2
  -4  -1   1 9038.82 500.615   1
  -4  -1   0 152.573 79.6960   1
  -4  -1   0 179.435 51.2301   2
   4   1   0 126.971 38.0725   2
  -4  -1  -1 16046.9 690.537   1
  -4  -1  -1 17106.1 500.289   2
  -4  -1  -2 4693.47 347.369   1
  -4  -1  -2 4146.81 204.241   2
  -4  -1  -3 5412.43 224.646   2
  -4  -1  -3 5086.11 363.995   1
  -4  -1  -4 29140.5 680.112   2
  -4  -1  -4 28527.0 943.984   1
  -4  -1  -5 4327.16 188.508   2
  -4  -1  -5 4294.04 322.332   1
  -4  -1  -6 208.200 38.7593   2
  -4  -1  -6 292.592 88.9229   1
  -4  -1  -7 482.914 60.3693   2
  -4  -1  -7 538.579 117.028   1
  -4  -1  -8 12309.3 374.739   2
  -4  -1  -8 12748.7 587.734   1
  -4  -1  -9 3428.67 180.326   2
  -4  -1  -9 3377.97 291.226   1
  -4  -1 -10 136.767 76.8676   1
  -4  -1 -11 5945.67 401.694   1
  -4  -1 -12 3375.31 296.470   1
  -4  -1 -13 52.7662 85.0552   1
  -4  -1 -14 2259.17 248.703   1
  -4  -1 -15 51.5823 74.1950   1
  -4  -1 -16 703.676 150.910   1
  -4  -1 -17 569.192 140.474   1
  -4  -1 -18 1373.49 212.774   1
  -4  -1 -19 13065.7 670.157   1
  -4  -1 -20 426.065 131.433   1
  -4  -1 -21 4593.13 393.214   1
  -4  -1 -22 14363.3 726.264   1
  -4  -1 -23 322.124 139.123   1
  -4  -1 -24 296.612 115.375   1
   4   2 -22 491.235 186.961   2
   4   2 -21 70.8247 91.6451   2
   4   2 -20 6932.51 602.749   2
   4   2 -19 3104.11 396.121   2
   4   2 -18 3932.47 428.303   2
   4   2 -17 1950.87 303.554   2
   4   2 -16 7699.79 569.286   2
   4   2 -15 5921.56 479.955   2
   4   2 -14 452.339 138.899   2
   4   2 -13 4618.26 397.932   2
   4   2 -12 680.536 142.295   2
   4   2 -11 12958.8 642.887   2
   4   2 -10 1763.07 223.967   2
  -4  -2  10 1790.21 130.765   3
   4   2  -9 52743.1 1454.22   2
   4   2  -8 79584.9 1926.44   2
  -4  -2   7 12134.8 592.082   1
   4   2  -7 11672.5 542.062   2
  -4  -2   6 14073.8 650.050   1
   4   2  -6 15668.3 618.719   2
  -4  -2   5 3376.14 293.995   1
   4   2  -5 2891.19 235.592   2
  -4  -2   4 7051.66 428.430   1
   4   2  -4 6222.14 342.351   2
  -4  -2   4 6595.00 392.272   2
  -4  -2   3 470.153 95.7665   2
  -4  -2   3 697.527 135.789   1
   4   2  -3 605.948 104.529   2
   4   2  -2 7294.17 341.964   2
  -4  -2   2 6580.73 414.763   1
  -4  -2   2 6960.74 375.993   2
   4   2  -1 8991.19 377.462   2
  -4  -2   1 8075.80 458.049   1
  -4  -2   1 9402.19 442.760   2
   4   2   0 4496.89 248.296   2
  -4  -2   0 4009.73 311.608   1
  -4  -2   0 4232.64 272.742   2
  -4  -2  -1 15774.8 662.077   1
  -4  -2  -1 16965.3 581.430   2
  -4  -2  -2 17516.3 590.244   2
  -4  -2  -2 18855.1 722.141   1
  -4  -2  -3 20959.0 629.336   2
  -4  -2  -3 20665.9 771.737   1
  -4  -2  -4 7.87075 32.5831   2
  -4  -2  -4 14.4391 56.4984   1
  -4  -2  -5 20.3196 43.3871   2
  -4  -2  -5 100.882 66.1364   1
  -4  -2  -6 18456.9 570.550   2
  -4  -2  -6 18298.4 701.759   1
  -4  -2  -7 7879.35 344.323   2
  -4  -2  -7 8029.38 437.012   1
  -4  -2  -8 18210.3 576.303   2
  -4  -2  -8 19578.9 723.655   1
  -4  -2  -9 12546.1 460.621   2
  -4  -2  -9 12152.5 557.794   1
  -4  -2 -10 1647.58 158.207   2
  -4  -2 -10 1659.30 196.414   1
  -4  -2 -11 4332.87 328.941   1
  -4  -2 -12 10008.1 514.458   1
  -4  -2 -13 481.837 120.379   1
  -4  -2 -14 713.829 131.017   1
  -4  -2 -15 18.2243 57.4188   1
  -4  -2 -16 575.052 129.454   1
  -4  -2 -17 102.736 64.5444   1
  -4  -2 -18 98.1060 71.2591   1
  -4  -2 -19 1263.16 196.081   1
  -4  -2 -20 86.2787 65.9065   1
  -4  -2 -21 79.9913 83.0589   3
  -4  -2 -21 375.705 118.952   1
  -4  -2 -22 2212.69 329.915   3
  -4  -2 -22 2352.55 276.236   1
  -4  -2 -23-257.733 124.314   3
  -4  -2 -23 56.2041 65.1403   1
  -4  -2 -24 443.634 132.391   1
   4   3 -21 5731.07 547.590   2
   4   3 -20 1615.66 290.191   2
   4   3 -19 3539.85 416.947   2
   4   3 -18 25933.1 1155.18   2
   4   3 -17 9195.85 642.623   2
   4   3 -16 31869.7 1241.57   2
   4   3 -15 27363.4 1113.91   2
   4   3 -14 4065.63 387.373   2
   4   3 -13 7302.22 510.292   2
   4   3 -12 6772.00 482.012   2
   4   3 -11 6583.21 459.210   2
   4   3 -10 12071.3 621.598   2
   4   3  -9 7434.12 472.304   2
  -4  -3   9 7857.48 303.952   3
   4   3  -8 17734.6 735.187   2
  -4  -3   8 17115.8 535.574   3
   4   3  -7 23958.9 857.879   2
   4   3  -6 13564.9 595.813   2
   4   3  -5 447.196 108.530   2
  -4  -3   4 180.550 76.6502   1
   4   3  -4 211.036 77.4704   2
  -4  -3   3 383.219 110.248   1
   4   3  -3 291.616 83.6103   2
  -4  -3   2 808.571 140.004   1
   4   3  -2 832.334 127.541   2
  -4  -3   1 190.816 73.0982   1
   4   3  -1 266.449 81.5582   2
  -4  -3   0 847.537 132.742   2
   4   3   0 723.294 115.800   2
  -4  -3   0 760.817 133.006   1
   4   3   1 9809.40 427.327   2
  -4  -3  -1 9361.56 475.595   1
  -4  -3  -1 8510.49 427.938   2
  -4  -3  -2 2313.27 209.686   2
  -4  -3  -2 1969.65 207.821   1
  -4  -3  -3 2180.10 201.224   2
  -4  -3  -3 2066.64 213.034   1
  -4  -3  -4 350.847 73.9619   2
  -4  -3  -4 564.962 113.572   1
  -4  -3  -5 19046.6 664.622   2
  -4  -3  -5 21124.5 751.880   1
  -4  -3  -6 20584.4 691.819   2
  -4  -3  -6 21161.6 758.161   1
  -4  -3  -7 6721.95 397.435   1
  -4  -3  -8 108397. 2393.71   1
  -4  -3  -9 51379.4 1352.67   1
  -4  -3 -10 5005.91 329.309   1
  -4  -3 -11 5373.70 349.928   1
  -4  -3 -12 994.400 150.445   1
  -4  -3 -13 143.306 63.3914   1
  -4  -3 -14 611.313 123.939   1
  -4  -3 -15 257.795 90.7800   1
  -4  -3 -16 2212.99 234.018   1
  -4  -3 -17 969.090 159.839   1
  -4  -3 -17 1121.41 225.097   3
  -4  -3 -18 2722.66 267.220   1
  -4  -3 -18 3171.46 368.910   3
  -4  -3 -19 7046.42 573.371   3
  -4  -3 -19 6489.75 421.359   1
  -4  -3 -20 364.392 119.819   1
  -4  -3 -20 356.174 132.516   3
  -4  -3 -21 314.708 102.100   1
  -4  -3 -21 606.373 180.798   3
  -4  -3 -22 1215.05 238.531   3
   4   4 -20 1804.11 318.726   2
   4   4 -19 8016.37 643.737   2
   4   4 -18 5197.51 502.045   2
   4   4 -17 413.450 158.918   2
   4   4 -16 13584.9 791.616   2
   4   4 -15 12786.5 747.997   2
   4   4 -14 3502.31 370.428   2
   4   4 -13 5373.84 457.682   2
   4   4 -12 4909.32 425.932   2
   4   4 -11 266.182 78.0470   2
   4   4 -10 1277.20 202.626   2
  -4  -4   9 3932.09 196.575   3
   4   4  -9 3877.46 343.242   2
   4   4  -8 385.513 112.244   2
  -4  -4   8 476.753 77.7744   3
  -4  -4   7 365.446 71.6236   3
   4   4  -7 370.540 103.468   2
  -4  -4   6 7256.06 349.503   3
   4   4  -6 6915.13 436.593   2
  -4  -4   5 626.234 103.369   3
   4   4  -5 852.795 149.315   2
  -4  -4   4 10243.1 469.171   3
   4   4  -4 11135.0 534.169   2
  -4  -4   3 51.4618 36.8274   3
   4   4  -3 69.9523 59.8452   2
   4   4  -2 14372.0 611.288   2
  -4  -4   1-2.44560 41.1571   1
   4   4  -1 23.6599 51.6225   2
  -4  -4   0 755.101 138.528   1
   4   4   0 897.280 148.832   2
  -4  -4  -1 149.316 70.9512   1
  -4  -4  -2 339.054 87.0465   1
  -4  -4  -3 852.575 138.205   1
  -4  -4  -4 338.007 86.3912   1
  -4  -4  -5 3472.64 265.945   1
  -4  -4  -6 78753.7 1822.20   1
  -4  -4  -7 527.234 110.506   1
  -4  -4  -8 38346.0 1286.79   3
  -4  -4  -8 37226.7 1071.62   1
  -4  -4  -9 13737.5 716.723   3
  -4  -4  -9 13650.4 563.877   1
  -4  -4 -10 33401.4 1209.09   3
  -4  -4 -10 31317.8 960.357   1
  -4  -4 -11 398.723 147.661   3
  -4  -4 -11 735.374 124.597   1
  -4  -4 -12 9657.12 612.786   3
  -4  -4 -12 9539.70 466.117   1
  -4  -4 -13 149.610 112.682   3
  -4  -4 -13 167.515 70.7503   1
  -4  -4 -14 211.451 109.485   3
  -4  -4 -14 305.802 82.4585   1
  -4  -4 -15 578.213 159.995   3
  -4  -4 -15 455.405 98.3747   1
  -4  -4 -16 4968.97 456.296   3
  -4  -4 -16 4423.52 315.895   1
  -4  -4 -17 571.103 159.287   3
  -4  -4 -17 787.305 139.143   1
  -4  -4 -18 1040.49 220.435   3
  -4  -4 -19 220.659 104.870   3
  -4  -4 -20 23918.8 1095.03   3
  -4  -4 -21 3316.87 389.014   3
   4   5 -18 1755.98 294.315   2
   4   5 -17 5.06056 89.6296   2
   4   5 -16 143.364 95.1204   2
   4   5 -15 650.765 169.098   2
   4   5 -14 206.492 87.7960   2
   4   5 -13 101.499 69.4565   2
   4   5 -12 1114.70 203.665   2
   4   5 -11 405.781 131.731   2
   4   5 -10 198.540 103.343   2
   4   5  -9 165.741 101.805   2
  -4  -5   8 1339.98 106.814   3
   4   5  -8 1505.61 222.784   2
   4   5  -7 3524.97 327.263   2
  -4  -5   7 2668.68 167.159   3
   4   5  -6 473.118 128.132   2
  -4  -5   6 618.403 88.5152   3
  -4  -5   5 14283.1 505.836   3
   4   5  -5 14917.4 685.810   2
  -4  -5   4 58110.5 1367.37   3
   4   5  -4 56979.1 1582.48   2
  -4  -5   3 7866.02 389.624   3
   4   5  -3 7518.45 460.918   2
  -4  -5   2 482.150 99.5111   3
   4   5  -2 363.957 109.766   2
  -4  -5   1 246.178 73.2283   3
   4   5  -1 316.011 96.4808   2
  -4  -5   0 3957.09 300.902   3
   4   5   0 4310.36 336.405   2
  -4  -5  -1 318.103 97.2759   3
  -4  -5  -2 102.085 56.3717   3
  -4  -5  -3 1979.75 230.020   3
  -4  -5  -4 784.003 150.084   3
  -4  -5  -4 783.641 119.952   1
  -4  -5  -5 1829.33 233.162   3
  -4  -5  -5 2002.28 191.678   1
  -4  -5  -6 337.905 116.608   3
  -4  -5  -6 84.5311 41.6650   1
  -4  -5  -7 52084.3 1553.19   3
  -4  -5  -7 53359.5 1317.29   1
  -4  -5  -8 35233.3 1200.30   3
  -4  -5  -8 33420.9 950.053   1
  -4  -5  -9 1427.62 229.517   3
  -4  -5  -9 2007.48 188.424   1
  -4  -5 -10 7854.73 535.518   3
  -4  -5 -10 8189.80 395.332   1
  -4  -5 -11 12187.7 676.449   3
  -4  -5 -11 10890.8 464.622   1
  -4  -5 -12 67.7241 42.1052   1
  -4  -5 -12-42.4522 69.3550   3
  -4  -5 -13 199.238 114.523   3
  -4  -5 -14 2788.04 334.264   3
  -4  -5 -15 167.765 87.2010   3
  -4  -5 -16 6249.98 512.616   3
  -4  -5 -17 4147.10 417.207   3
  -4  -5 -18 40.7660 99.7547   3
  -4  -5 -19 12628.6 753.606   3
  -4  -5 -20 10107.8 672.051   3
   4   6 -16 932.829 230.380   2
   4   6 -15 9126.27 660.192   2
   4   6 -14 6401.69 536.263   2
   4   6 -13 9780.46 660.141   2
   4   6 -12 4494.90 436.822   2
   4   6 -11-42.6727 76.2447   2
   4   6 -10 19.6192 70.9658   2
   4   6  -9 91.0488 96.4800   2
   4   6  -8 1017.83 197.650   2
   4   6  -7 1259.69 214.120   2
   4   6  -6 1165.01 200.800   2
  -4  -6   6 1148.89 112.513   3
   4   6  -5 6064.59 453.046   2
  -4  -6   5 5907.21 285.059   3
   4   6  -4 1797.67 242.714   2
  -4  -6   4 1573.81 149.843   3
  -4  -6   3-32.0332 47.5280   3
   4   6  -3 48.3911 91.2425   2
  -4  -6   2-30.3429 50.3831   3
   4   6  -2 62.6151 85.5269   2
  -4  -6   1 4.16446 52.8856   3
   4   6  -1 80.0683 65.6844   2
  -4  -6   0 228.817 63.6450   3
  -4  -6  -1 262.749 82.6501   3
  -4  -6  -2 41.5249 56.0428   3
  -4  -6  -3 927.024 150.534   3
  -4  -6  -4 534.321 119.847   3
  -4  -6  -5 590.980 135.130   3
  -4  -6  -6 17846.5 763.827   3
  -4  -6  -7 8814.57 524.141   3
  -4  -6  -8 2707.99 291.013   3
  -4  -6  -9 1319.22 210.001   3
  -4  -6 -10 1304.51 211.130   3
  -4  -6 -11 597.735 151.983   3
  -4  -6 -12 2779.73 314.344   3
  -4  -6 -13 4017.73 384.233   3
  -4  -6 -14 161.898 97.4499   3
  -4  -6 -15 446.736 144.199   3
  -4  -6 -16 148.376 95.0357   3
  -4  -6 -17 366.922 138.531   3
  -4  -6 -18 1183.89 225.516   3
   4   7 -13 213.823 133.236   2
   4   7 -12 1326.01 258.622   2
   4   7 -11 7130.16 563.614   2
   4   7 -10 1186.34 230.991   2
   4   7  -9 58.3550 80.7260   2
   4   7  -8 6980.60 535.471   2
   4   7  -7 4682.08 430.273   2
   4   7  -6 1018.29 220.605   2
   4   7  -5 1338.72 231.054   2
  -4  -7   5 1288.30 128.339   3
   4   7  -4 25016.9 1015.33   2
  -4  -7   4 23482.8 689.596   3
  -4  -7   3 196.373 63.1809   3
   4   7  -3 108.355 101.093   2
  -4  -7   2 33.2908 38.7810   3
   4   7  -2 18.8886 76.9112   2
  -4  -7   1 31.5126 47.1898   3
  -4  -7   0 911.364 136.490   3
  -4  -7  -1 60.0052 47.2740   3
  -4  -7  -2 114.853 68.4006   3
  -4  -7  -3 617.936 121.136   3
  -4  -7  -4 415.188 103.169   3
  -4  -7  -5 152.758 60.0158   3
  -4  -7  -6 1932.43 226.243   3
  -4  -7  -7 955.721 161.059   3
  -4  -7  -8 150.908 65.3161   3
  -4  -7  -9 2224.79 261.470   3
  -4  -7 -10-67.3112 74.2955   3
  -4  -7 -11 9119.22 559.137   3
  -4  -7 -12 2007.71 260.573   3
  -4  -7 -13 6590.40 488.233   3
  -4  -7 -14 12778.2 699.753   3
  -4  -7 -15 2449.71 301.375   3
   4   8  -8 11088.7 722.138   2
   4   8  -7 27504.9 1174.78   2
   4   8  -6 6312.99 525.215   2
   4   8  -5 6925.54 554.190   2
   4   8  -4 13951.0 791.768   2
  -4  -8   2 1651.72 170.183   3
  -4  -8   1 1409.02 161.855   3
  -4  -8   0 502.064 103.337   3
  -4  -8  -1 8380.94 433.800   3
  -4  -8  -2 5002.66 335.592   3
  -4  -8  -3-80.0056 62.0001   3
  -4  -8  -4 3793.27 308.685   3
  -4  -8  -5 1331.49 188.872   3
  -4  -8  -6-9.09157 52.1928   3
  -4  -8  -7 69.7012 63.6627   3
  -4  -8  -8 25.5071 56.6405   3
  -4  -8  -9 214.707 95.1503   3
  -4  -8 -10 1452.10 218.645   3
  -4  -8 -11 3292.24 333.382   3
  -4  -8 -12 2199.51 276.708   3
  -4  -9   0 300.295 79.5224   3
  -4  -9  -1-51.4404 50.3054   3
  -4  -9  -2 6183.94 383.748   3
  -4  -9  -3 5573.16 373.489   3
  -4  -9  -4 8578.97 480.007   3
  -4  -9  -5 764.025 151.485   3
  -4  -9  -6 8011.71 480.237   3
  -4  -9  -7 395.669 125.749   3
  -5   3  12 186.756 116.469   1
  -5   3  11 102.122 92.5209   1
  -5   3  10 1195.69 230.056   1
  -5   3   9 375.574 144.231   1
  -5   3   8 358.754 157.803   1
  -5   3   7 270.429 133.314   1
  -5   3   6 584.423 175.720   1
  -5   3   5 752.939 191.463   1
  -5   3   4 2087.31 307.105   1
  -5   3   3 5373.96 495.454   1
  -5   3   2 7622.97 592.852   1
  -5   3   1 4141.69 439.483   1
  -5   3   0 4966.20 476.065   1
  -5   3  -1 4876.62 472.037   1
  -5   3  -2 1692.33 287.894   1
  -5   3  -3 39.4049 92.8544   1
  -5   3  -4-80.7883 100.103   1
  -5   3  -5 267.872 98.5366   1
  -5   3  -6 5024.84 473.240   1
  -5   2  12 2225.53 317.172   1
  -5   2  11 5724.43 505.443   1
  -5   2  10 466.302 165.654   1
  -5   2   9 1097.50 233.210   1
  -5   2   8 1337.94 239.314   1
  -5   2   7 8889.95 627.385   1
  -5   2   6 353.893 133.506   1
  -5   2   5 951.905 203.439   1
  -5   2   4 8007.72 580.264   1
  -5   2   3 3432.75 384.642   1
  -5   2   2 1812.55 278.932   1
  -5   2   1 10146.1 667.016   1
  -5   2   0 446.004 154.039   1
  -5   2  -1 650.205 172.313   1
  -5   2  -2 72.2592 76.2557   1
  -5   2  -3 384.560 132.770   1
  -5   2  -4 207.242 110.511   1
  -5   2  -5 541.824 154.313   1
  -5   2  -6 2481.41 316.680   1
  -5   2  -7 661.364 167.630   1
  -5   2  -8 891.340 208.036   1
  -5   2  -9 5387.24 487.457   1
  -5   2 -10 327.701 135.096   1
  -5   2 -11 1610.24 278.795   1
  -5   1  12 275.125 126.737   1
  -5   1  11 3354.98 377.936   1
  -5   1  10 6135.41 506.327   1
  -5   1   9 9489.36 632.075   1
  -5   1   8 8979.89 617.281   1
  -5   1   7 36281.2 1350.51   1
  -5   1   6 17405.6 876.906   1
  -5   1   5 1481.71 244.391   1
  -5   1   4 19843.8 927.606   1
  -5   1   3 18534.9 893.238   1
  -5   1   2-45.8179 67.7579   1
  -5   1   1 356.349 147.576   1
  -5   1   0 575.833 152.724   1
  -5   1  -1 645.233 172.997   1
  -5   1  -2 65.6477 74.6785   1
  -5   1  -3 60.8864 74.4907   1
  -5   1  -4 193.793 88.8896   1
  -5   1  -5 113.345 90.9812   1
  -5   1  -6 61.1178 69.4122   1
  -5   1  -7 356.151 111.335   1
  -5   1  -8 113.446 88.6215   1
  -5   1  -9 206.048 81.2124   1
  -5   1 -10 1977.50 283.458   1
  -5   1 -11 3431.90 374.595   1
  -5   1 -12 864.601 194.225   1
  -5   1 -13 468.826 161.780   1
  -5   1 -14-44.7310 89.3258   1
   5   0 -16 377.631 135.777   2
   5   0 -15-9.21146 60.2794   2
   5   0 -14 1119.27 198.414   2
   5   0 -13 1348.31 212.759   2
   5   0 -12 128.721 76.0817   2
  -5   0  11 128.928 87.1045   1
  -5   0  10-89.3005 119.609   1
  -5   0   9 2173.55 291.603   1
  -5   0   8 14.9921 64.7813   1
  -5   0   7 10981.2 668.422   1
  -5   0   6 16844.3 840.390   1
  -5   0   5 1779.10 258.152   1
  -5   0   4 2027.85 270.961   1
  -5   0   3 4798.69 420.223   1
  -5   0   2 604.174 157.648   1
  -5   0   1 2014.08 272.380   1
  -5   0   0 633.718 151.629   1
  -5   0  -1 1903.70 260.308   1
  -5   0  -2 556.039 148.232   1
  -5   0  -3 7164.53 520.266   1
  -5   0  -4 1859.94 258.995   1
  -5   0  -5 2033.31 265.981   1
  -5   0  -6 1924.27 262.447   1
  -5   0  -7 5294.75 436.968   1
  -5   0  -8 601.052 152.754   1
  -5   0  -9 292.236 124.626   1
  -5   0 -10 3115.02 337.908   1
  -5   0 -11 1124.68 210.643   1
  -5   0 -12 892.152 200.991   1
  -5   0 -13 1886.40 279.253   1
  -5   0 -14 2074.38 294.697   1
  -5   0 -15 267.112 119.192   1
  -5   0 -16 1659.31 265.096   1
  -5   0 -17 32.4985 86.5761   1
   5   1 -20 4969.61 511.608   2
   5   1 -19 720.335 204.055   2
   5   1 -18 175.303 98.2481   2
   5   1 -17 17552.1 920.782   2
   5   1 -16 292.591 112.235   2
   5   1 -15 59.0016 72.9673   2
   5   1 -14 185.228 88.6484   2
   5   1 -13 1169.44 196.792   2
   5   1 -12 45.5788 78.0713   2
   5   1 -11 147.962 89.2588   2
  -5  -1  10 9120.99 599.290   1
   5   1 -10 7962.02 482.394   2
   5   1  -9 1001.21 160.442   2
  -5  -1   9 882.726 195.824   1
  -5  -1   8 5620.09 462.676   1
   5   1  -8 5981.78 379.780   2
  -5  -1   7 13875.6 736.329   1
   5   1  -7 14144.4 584.695   2
  -5  -1   6 68519.7 1932.91   1
   5   1  -6 67634.2 1606.77   2
  -5  -1   5 389.835 126.388   1
   5   1  -5 235.972 81.1524   2
   5   1  -4 7675.08 346.481   2
  -5  -1   4 7499.35 526.277   1
   5   1  -3 6854.50 308.489   2
  -5  -1   3 7036.77 499.272   1
  -5  -1   2 172.034 69.5761   1
   5   1  -2 172.678 46.2906   2
  -5  -1   1 238.344 100.481   1
  -5  -1   0 1871.31 258.420   1
  -5  -1  -1 4041.01 373.174   1
  -5  -1  -2 490.302 142.246   1
  -5  -1  -3 13766.3 719.442   1
  -5  -1  -4-19.9717 56.1873   1
  -5  -1  -5 31995.5 1163.22   1
  -5  -1  -6 114.702 90.4795   1
  -5  -1  -7 26383.3 1020.68   1
  -5  -1  -8 1272.18 207.020   1
  -5  -1  -9 1482.97 227.408   1
  -5  -1 -10-41.8540 63.0729   1
  -5  -1 -11 377.315 124.199   1
  -5  -1 -12 313.374 116.909   1
  -5  -1 -13 366.054 122.682   1
  -5  -1 -14 356.567 131.049   1
  -5  -1 -15 9368.26 597.224   1
  -5  -1 -16 48.4116 79.2859   1
  -5  -1 -17 3702.05 379.389   1
  -5  -1 -18 7253.43 537.347   1
  -5  -1 -19 188.626 108.229   1
   5   2 -20 30.6242 81.8574   2
   5   2 -19 10379.2 722.063   2
   5   2 -18 1939.99 303.864   2
   5   2 -17 5168.10 478.557   2
   5   2 -16 6041.76 508.489   2
   5   2 -15 2316.44 304.858   2
   5   2 -14 183.164 81.1264   2
   5   2 -13 27.6467 49.5867   2
   5   2 -12 525.498 136.071   2
   5   2 -11 449.155 135.096   2
   5   2 -10 2839.27 292.538   2
   5   2  -9 78.5585 60.5961   2
  -5  -2   8 18789.0 869.636   1
   5   2  -8 20320.7 784.979   2
  -5  -2   7 12495.5 687.314   1
   5   2  -7 11562.0 553.984   2
  -5  -2   6 78896.3 2114.59   1
   5   2  -6 79809.6 1878.40   2
  -5  -2   5 19649.6 870.450   1
   5   2  -5 19189.1 695.870   2
   5   2  -4 8884.61 419.238   2
  -5  -2   4 8834.18 560.982   1
   5   2  -3 463.102 92.9456   2
  -5  -2   3 580.001 142.804   1
   5   2  -2 2407.49 194.142   2
  -5  -2   2 2057.66 260.477   1
   5   2  -1 2447.62 187.233   2
  -5  -2   1 2338.60 279.878   1
  -5  -2   0 804.471 158.070   1
  -5  -2  -1 2334.22 273.569   1
  -5  -2  -2 475.562 133.086   1
  -5  -2  -3 113.345 72.6656   1
  -5  -2  -4 166.025 82.4807   1
  -5  -2  -5 10819.4 606.894   1
  -5  -2  -6 2524.83 293.043   1
  -5  -2  -7 27.0996 63.7009   1
  -5  -2  -8-62.7628 60.8276   1
  -5  -2  -9 2798.62 292.652   1
  -5  -2 -10 1502.84 223.672   1
  -5  -2 -11 912.511 175.368   1
  -5  -2 -12 231.591 100.034   1
  -5  -2 -13 494.192 130.319   1
  -5  -2 -14 5160.21 417.162   1
  -5  -2 -15 8731.26 554.903   1
  -5  -2 -16 186.736 94.2997   1
  -5  -2 -17 169.767 105.847   1
  -5  -2 -18 9231.19 591.322   1
  -5  -2 -19 4248.75 401.266   1
  -5  -2 -20 1420.10 236.843   1
  -5  -2 -21 9.19009 64.2600   1
   5   3 -19 2654.62 371.076   2
   5   3 -18 4300.69 466.332   2
   5   3 -17 7171.35 584.704   2
   5   3 -16 1668.67 272.380   2
   5   3 -15 274.862 117.800   2
   5   3 -14-6.32404 77.8950   2
   5   3 -13 41.5913 78.2108   2
   5   3 -12-99.1426 94.8506   2
   5   3 -11 919.204 173.042   2
   5   3 -10 584.925 143.487   2
   5   3  -9 223.861 92.8038   2
   5   3  -8 2567.34 269.952   2
   5   3  -7 4932.49 367.223   2
  -5  -3   6 196.508 109.813   1
   5   3  -6 19.8728 49.7984   2
  -5  -3   5 508.833 141.156   1
   5   3  -5 726.101 131.389   2
  -5  -3   4 197.380 84.3034   1
   5   3  -4 276.100 83.4882   2
  -5  -3   3 490.541 138.601   1
   5   3  -3 447.514 105.714   2
   5   3  -2 3858.45 280.920   2
  -5  -3   2 3725.42 346.065   1
   5   3  -1 587.514 108.576   2
  -5  -3   1 462.804 133.635   1
  -5  -3   0 99.0279 61.5067   1
  -5  -3  -1 8941.85 536.777   1
  -5  -3  -2 6699.05 459.360   1
  -5  -3  -3 685.472 147.448   1
  -5  -3  -4 38190.6 1237.88   1
  -5  -3  -5 17081.1 760.579   1
  -5  -3  -6 1021.95 180.094   1
  -5  -3  -7 1478.85 209.963   1
  -5  -3  -8 30172.2 1082.76   1
  -5  -3  -9 148.022 115.587   1
  -5  -3 -10 15341.8 728.896   1
  -5  -3 -11 30200.6 1072.71   1
  -5  -3 -12 3753.25 339.738   1
  -5  -3 -13 17.8790 60.8556   1
  -5  -3 -14 1299.51 201.266   1
  -5  -3 -15 49.9543 61.4236   1
  -5  -3 -16 311.608 95.9774   1
  -5  -3 -17 40.4351 61.1518   1
  -5  -3 -18 3833.32 364.119   1
  -5  -3 -19 164.274 85.7667   1
   5   4 -18 1603.24 304.407   2
   5   4 -17 4763.63 495.059   2
   5   4 -16 3146.07 386.198   2
   5   4 -15 13.7557 98.9302   2
   5   4 -14-19.9532 107.052   2
   5   4 -13 1041.42 195.753   2
   5   4 -12 86.8646 73.7297   2
   5   4 -11 53.2435 63.3464   2
   5   4 -10-194.508 95.6330   2
   5   4  -9 69.5595 63.3430   2
   5   4  -8 644.264 147.685   2
   5   4  -7 321.716 104.371   2
   5   4  -6 390.140 110.130   2
   5   4  -5 328.540 101.625   2
   5   4  -4 721.390 143.991   2
  -5  -4   3 416.555 115.714   1
   5   4  -3 568.984 128.418   2
   5   4  -2 32733.3 1031.83   2
  -5  -4   2 31268.1 1105.37   1
   5   4  -1 10452.2 514.130   2
  -5  -4   1 9837.93 558.845   1
  -5  -4   0 790.005 153.543   1
  -5  -4  -1 29158.1 1031.74   1
  -5  -4  -2 10277.1 565.400   1
  -5  -4  -3 2354.78 262.282   1
  -5  -4  -4 19830.2 819.234   1
  -5  -4  -5 53246.4 1513.48   1
  -5  -4  -6 15655.6 700.678   1
  -5  -4  -7 1859.40 230.128   1
  -5  -4  -8 24341.3 915.128   1
  -5  -4  -9 35258.3 1156.99   1
  -5  -4 -10 12807.2 634.986   1
  -5  -4 -11 3124.37 303.066   1
  -5  -4 -12 12422.5 635.009   1
  -5  -4 -13 11147.8 595.059   1
  -5  -4 -14 289.090 149.209   3
  -5  -4 -14 251.875 94.4476   1
  -5  -4 -15 299.800 134.548   3
  -5  -4 -15 314.945 103.634   1
  -5  -4 -16 2968.63 396.866   3
  -5  -4 -17 155.633 135.270   3
   5   5 -16 1083.52 228.750   2
   5   5 -15 2219.80 325.604   2
   5   5 -14 1602.47 266.607   2
   5   5 -13 292.915 113.676   2
   5   5 -12 4557.24 434.581   2
   5   5 -11 2441.15 306.163   2
   5   5 -10 357.375 133.932   2
   5   5  -9 4232.49 394.531   2
   5   5  -8 2498.99 293.194   2
   5   5  -7 674.139 150.664   2
  -5  -5   6 2325.95 214.031   3
   5   5  -6 2338.05 278.149   2
  -5  -5   5 1689.44 191.409   3
   5   5  -5 1871.11 246.266   2
  -5  -5   4 1622.26 195.100   3
   5   5  -4 1349.76 207.966   2
  -5  -5   3 630.789 125.072   3
   5   5  -3 609.194 135.897   2
  -5  -5   2 18.5831 46.2166   3
   5   5  -2 186.636 91.1595   2
  -5  -5   1 3665.29 325.744   3
   5   5  -1 4111.55 345.157   2
  -5  -5   0 958.277 183.281   3
  -5  -5  -1 3.39483 62.1992   3
  -5  -5  -1-25.7281 59.3742   1
  -5  -5  -2 1474.00 221.199   3
  -5  -5  -2 1276.55 187.141   1
  -5  -5  -3 3592.17 358.487   3
  -5  -5  -3 3239.33 300.516   1
  -5  -5  -4 1306.32 224.365   3
  -5  -5  -4 1150.90 175.697   1
  -5  -5  -5 3581.35 367.794   3
  -5  -5  -5 3522.96 306.396   1
  -5  -5  -6 905.484 191.495   3
  -5  -5  -6 885.505 152.509   1
  -5  -5  -7 1771.09 264.446   3
  -5  -5  -7 1466.21 197.716   1
  -5  -5  -8 428.333 145.701   3
  -5  -5  -8 296.680 96.0653   1
  -5  -5  -9 49.8629 72.4801   3
  -5  -5  -9 84.7205 60.5765   1
  -5  -5 -10 5406.63 506.251   3
  -5  -5 -10 5569.69 385.607   1
  -5  -5 -11 2971.47 369.677   3
  -5  -5 -11 2263.72 243.222   1
  -5  -5 -12 3189.22 384.887   3
  -5  -5 -13 720.374 185.690   3
  -5  -5 -14-137.816 99.8681   3
  -5  -5 -15 9892.69 712.943   3
  -5  -5 -16 4055.63 459.507   3
   5   6 -13 6783.96 559.058   2
   5   6 -12 878.669 204.167   2
   5   6 -11 1505.40 258.034   2
   5   6 -10 7102.79 594.580   2
   5   6  -9 32156.5 1238.25   2
   5   6  -8 5262.15 456.137   2
   5   6  -7 375.048 139.502   2
   5   6  -6 94.2331 80.4991   2
   5   6  -5 908.176 179.512   2
  -5  -6   4 100.765 62.6804   3
   5   6  -4 20.4758 69.5032   2
  -5  -6   3 1611.02 187.605   3
   5   6  -3 1391.08 229.152   2
  -5  -6   2 4593.71 334.477   3
   5   6  -2 3987.45 375.309   2
  -5  -6   1 311.490 96.5151   3
  -5  -6   0 73.4161 71.1820   3
  -5  -6  -1 870.859 163.501   3
  -5  -6  -2 16355.1 752.496   3
  -5  -6  -3 2424.11 277.695   3
  -5  -6  -4 309.635 106.517   3
  -5  -6  -5 2062.22 276.580   3
  -5  -6  -6 841.616 180.004   3
  -5  -6  -7 178.914 94.0513   3
  -5  -6  -8 326.338 125.665   3
  -5  -6  -9 4388.08 432.232   3
  -5  -6 -10-1.69227 64.7760   3
  -5  -6 -11 175.380 91.2596   3
  -5  -6 -12 340.228 142.355   3
  -5  -6 -13 20539.7 1022.78   3
  -5  -6 -14 374.633 175.628   3
   5   7 -10 94.3088 129.318   2
   5   7  -9 84.1705 96.2571   2
   5   7  -8 1085.20 216.237   2
   5   7  -7 1201.08 227.380   2
   5   7  -6-99.4721 108.116   2
   5   7  -5 59.6686 77.7068   2
   5   7  -4 1099.22 219.813   2
   5   7  -3 391.570 147.850   2
  -5  -7   2-205.107 75.2984   3
  -5  -7   1 6772.40 400.344   3
  -5  -7   0 83.2538 49.6479   3
  -5  -7  -1 19.5557 53.4417   3
  -5  -7  -2 1934.11 230.229   3
  -5  -7  -3 12591.7 629.841   3
  -5  -7  -4 724.139 150.548   3
  -5  -7  -5 4208.09 373.849   3
  -5  -7  -6 194.982 112.894   3
  -5  -7  -7 352.222 133.592   3
  -5  -7  -8 340.597 119.978   3
  -5  -7  -9 3.77879 76.3135   3
  -5  -7 -10 627.572 168.952   3
  -5  -7 -11 71.3406 55.3880   3
  -5  -7 -12 460.684 155.830   3
  -5  -8   0 46.2066 62.2788   3
  -5  -8  -1 1799.71 213.727   3
  -5  -8  -2 1060.37 169.435   3
  -5  -8  -3 225.887 70.0770   3
  -5  -8  -4 8713.84 518.617   3
  -5  -8  -5 6267.58 446.775   3
  -5  -8  -6 8210.90 529.432   3
  -5  -8  -7 4136.10 376.447   3
  -5  -8  -8 3812.47 367.375   3
  -5  -8  -9 172.507 104.007   3
  -5  -9  -4 483.105 122.797   3
  -6   0   7 14862.6 874.061   1
  -6   0   6 4834.48 489.548   1
  -6   0   5 15514.9 890.449   1
  -6   0   4 13098.1 812.032   1
  -6   0   3 1133.09 250.103   1
  -6   0   2 4104.97 438.300   1
  -6   0   1 1222.59 243.679   1
  -6   0   0-4.92952 101.805   1
  -6   0  -1 163.464 118.778   1
  -6   0  -2 1592.14 274.843   1
  -6   0  -3 1557.44 278.896   1
  -6   0  -4 175.106 113.854   1
  -6   0  -5 2850.63 375.765   1
  -6   0  -6 1640.09 288.733   1
  -6   0  -7 9146.89 670.550   1
  -6   0  -8 2126.91 323.528   1
  -6  -1   9 592.907 167.620   1
  -6  -1   8 921.667 224.594   1
  -6  -1   7 14326.8 839.438   1
  -6  -1   6 7368.42 581.513   1
  -6  -1   5 820.295 211.680   1
  -6  -1   4 25680.8 1156.33   1
  -6  -1   3 22248.2 1058.26   1
  -6  -1   2 7050.27 566.591   1
  -6  -1   1 316.392 148.017   1
  -6  -1   0 14839.7 829.220   1
  -6  -1  -1 64.9023 90.6696   1
  -6  -1  -2 448.874 149.173   1
  -6  -1  -3 1595.41 278.594   1
  -6  -1  -4 1134.95 231.996   1
  -6  -1  -5 510.153 156.644   1
  -6  -1  -6 5.97816 91.0143   1
  -6  -1  -7 8037.08 606.449   1
  -6  -1  -8 2773.67 359.596   1
  -6  -1  -9 285.091 156.565   1
  -6  -1 -10 99.4058 78.0970   1
  -6  -1 -11 37.3149 85.6530   1
  -6  -1 -12 154.220 91.2835   1
  -6  -2   8 221.163 118.087   1
  -6  -2   7 26.5437 86.6644   1
  -6  -2   6 780.982 181.964   1
  -6  -2   5 5061.32 469.559   1
  -6  -2   4 1981.69 298.251   1
  -6  -2   3 782.314 200.903   1
  -6  -2   2 3878.21 409.396   1
  -6  -2   1 3306.66 374.394   1
  -6  -2   0 9959.68 658.823   1
  -6  -2  -1 8489.70 602.954   1
  -6  -2  -2 4.65073 72.9623   1
  -6  -2  -3 3550.47 384.204   1
  -6  -2  -4 1552.23 260.376   1
  -6  -2  -5 235.999 109.712   1
  -6  -2  -6 1159.91 219.575   1
  -6  -2  -7-88.4348 101.347   1
  -6  -2  -8 131.071 98.7465   1
  -6  -2  -9 3900.15 413.578   1
  -6  -2 -10 101.480 115.324   1
  -6  -2 -11 3550.69 400.322   1
  -6  -2 -12 14678.5 816.317   1
  -6  -2 -13 23186.3 1051.74   1
  -6  -2 -14 2867.92 357.885   1
  -6  -2 -15 848.475 192.942   1
  -6  -3   6 160.414 118.492   1
  -6  -3   5 819.750 192.916   1
  -6  -3   4 1389.31 239.655   1
  -6  -3   3 977.212 206.040   1
  -6  -3   2 40.1616 84.1587   1
  -6  -3   1 5407.51 470.978   1
  -6  -3   0 9830.53 644.937   1
  -6  -3  -1 5707.12 483.432   1
  -6  -3  -2 87.5853 90.5322   1
  -6  -3  -3 3588.73 375.616   1
  -6  -3  -4 212.377 103.534   1
  -6  -3  -5 629.816 165.676   1
  -6  -3  -6 283.714 133.800   1
  -6  -3  -7 256.940 101.531   1
  -6  -3  -8 1968.06 279.876   1
  -6  -3  -9-23.8294 66.8913   1
  -6  -3 -10 5518.65 477.457   1
  -6  -3 -11 42845.5 1502.57   1
  -6  -3 -12 662.072 188.668   1
  -6  -3 -13 8303.77 596.126   1
  -6  -3 -14 3744.18 401.214   1
  -6  -3 -15 15041.0 832.146   1
  -6  -3 -16 254.694 109.800   1
   6   4 -14 18.5052 79.2143   2
   6   4 -13 210.403 98.5504   2
   6   4 -12 570.064 161.075   2
   6   4 -11 111.673 86.0362   2
   6   4 -10 1992.35 269.620   2
   6   4  -9 84.9296 100.866   2
   6   4  -8 79.0409 81.0468   2
   6   4  -7 1361.84 214.927   2
   6   4  -6 477.899 130.961   2
   6   4  -5 924.311 169.794   2
   6   4  -4 92.5876 69.3083   2
   6   4  -3 4882.89 363.425   2
  -6  -4   3 4541.87 429.380   1
  -6  -4   2 5511.61 469.443   1
  -6  -4   1 482.440 143.265   1
  -6  -4   0 14331.0 766.489   1
  -6  -4  -1 53824.3 1682.71   1
  -6  -4  -2 55.3389 80.6996   1
  -6  -4  -3 200.097 106.338   1
  -6  -4  -4 1034.39 204.064   1
  -6  -4  -5 2741.30 323.482   1
  -6  -4  -6 254.537 121.654   1
  -6  -4  -7-48.2636 71.0060   1
  -6  -4  -8 363.542 121.650   1
  -6  -4  -9 1234.61 220.831   1
  -6  -4 -10 51.4342 71.0560   1
  -6  -4 -11 898.807 189.275   1
  -6  -4 -12 10446.0 650.285   1
  -6  -4 -13 4434.72 415.896   1
  -6  -4 -14 677.398 171.650   1
   6   5 -13 144.695 125.966   2
   6   5 -12 1194.01 231.489   2
   6   5 -11 5619.49 486.978   2
   6   5 -10 1417.66 243.311   2
   6   5  -9 175.473 122.110   2
   6   5  -8 13314.7 726.133   2
   6   5  -7 8217.40 549.302   2
   6   5  -6 60.0875 64.8647   2
   6   5  -5 211.590 98.9430   2
   6   5  -4 121.556 99.6190   2
  -6  -5   3 5368.91 431.005   3
   6   5  -3 5276.97 417.528   2
  -6  -5   2 13189.3 714.413   3
  -6  -5   1 8996.82 586.937   3
  -6  -5   0 16364.4 833.688   3
  -6  -5   0 14548.9 769.478   1
  -6  -5  -1 20458.2 961.755   3
  -6  -5  -1 17791.7 853.748   1
  -6  -5  -2 7256.14 556.574   3
  -6  -5  -2 6599.96 496.575   1
  -6  -5  -3 1229.64 229.996   3
  -6  -5  -3 1277.46 225.444   1
  -6  -5  -4 674.788 169.867   3
  -6  -5  -4 641.456 152.878   1
  -6  -5  -5 120.968 108.516   3
  -6  -5  -5 199.262 86.7885   1
  -6  -5  -6 90.0425 85.8549   3
  -6  -5  -6 202.432 95.2273   1
  -6  -5  -7 8.65175 100.932   3
  -6  -5  -7 46.4190 65.0872   1
  -6  -5  -8 50.7154 91.2066   3
  -6  -5  -8 419.972 140.164   1
  -6  -5  -9 58.8630 105.923   3
  -6  -5  -9 233.774 102.517   1
  -6  -5 -10 1598.19 304.822   3
  -6  -5 -11 765.858 205.932   3
   6   6 -10 475.076 175.209   2
   6   6  -9 5778.20 505.870   2
   6   6  -8-85.1167 119.517   2
   6   6  -7 730.795 186.352   2
   6   6  -6 800.646 181.774   2
   6   6  -5 212.223 124.580   2
   6   6  -4 282.290 110.276   2
   6   6  -3 425.286 137.613   2
  -6  -6   1 1.11920 62.2612   3
  -6  -6   0 947.615 180.998   3
  -6  -6  -1 1208.74 214.930   3
  -6  -6  -2 2871.58 337.057   3
  -6  -6  -3 202.888 92.7643   3
  -6  -6  -4 1699.73 276.395   3
  -6  -6  -5 180.704 131.375   3
  -6  -6  -6 29.3111 85.4014   3
  -6  -6  -7 425.148 141.759   3
  -6  -6  -8 576.648 186.597   3
  -6  -6  -9 2084.09 337.148   3
   6   7  -6 244.146 149.162   2
   6   7  -5 7271.33 571.065   2
  -6  -7  -1 996.920 187.773   3
  -6  -7  -2 79.3990 59.2957   3
  -6  -7  -3 2000.22 278.813   3
  -6  -7  -4 613.809 165.329   3
  -6  -7  -5 163.865 97.3473   3
  -6  -7  -6 9170.65 637.917   3
  -6  -7  -7 6774.43 554.712   3
  -7  -5  -4 58.3617 76.0207   1
   0   0   0    0.00    0.00   0
TITL haoke6MoLT in P-1
REM P-1 (#2 in standard setting)
CELL 0.71073   5.162793   7.150403  21.114666  87.4807  88.1730  70.2048
ZERR    2.00   0.000363   0.000440   0.001500   0.0054   0.0057   0.0060
LATT  1
SFAC C H
UNIT 38.00 60.00
TREF
HKLF 4
END
;
_shelx_hkl_checksum              28808
_shelx_shelxl_version_number     2014/7
_olex2_date_sample_data_collection 2016-05-23
_olex2_submission_special_instructions 'No special instructions were received'
loop_
_space_group_symop_operation_xyz
'x, y, z'
'-x, -y, -z'
loop_
_atom_site_label
_atom_site_type_symbol
_atom_site_fract_x
_atom_site_fract_y
_atom_site_fract_z
_atom_site_U_iso_or_equiv
_atom_site_adp_type
_atom_site_occupancy
_atom_site_site_symmetry_order
_atom_site_calc_flag
_atom_site_refinement_flags_posn
C1 C 0.7259(2) 0.71325(17) 0.23349(6) 0.0201(3) Uani 1 1 d .
H1A H 0.6651 0.8500 0.2146 0.024 Uiso 1 1 calc R
H1B H 0.9280 0.6704 0.2383 0.024 Uiso 1 1 calc R
C11 C 0.5929(2) 0.71883(16) 0.29922(5) 0.0166(3) Uani 1 1 d .
C12 C 0.6043(2) 0.86085(16) 0.34176(6) 0.0176(3) Uani 1 1 d .
C13 C 0.4786(2) 0.86378(16) 0.40138(5) 0.0184(3) Uani 1 1 d .
H13 H 0.4836 0.9613 0.4300 0.022 Uiso 1 1 calc R
C14 C 0.3460(2) 0.72993(16) 0.42077(5) 0.0179(3) Uani 1 1 d .
C15 C 0.3389(2) 0.58578(16) 0.37873(6) 0.0170(3) Uani 1 1 d .
C16 C 0.4622(2) 0.58336(16) 0.31868(5) 0.0167(3) Uani 1 1 d .
H16 H 0.4569 0.4860 0.2900 0.020 Uiso 1 1 calc R
C17 C 0.7501(2) 1.00704(17) 0.32398(6) 0.0213(3) Uani 1 1 d .
H17A H 0.6609 1.0899 0.2873 0.032 Uiso 1 1 calc GR
H17B H 0.9432 0.9343 0.3132 0.032 Uiso 1 1 calc GR
H17C H 0.7408 1.0917 0.3598 0.032 Uiso 1 1 calc GR
C18 C 0.2068(3) 0.74318(18) 0.48506(6) 0.0224(3) Uani 1 1 d .
H18A H 0.2375 0.8490 0.5085 0.034 Uiso 1 1 calc GR
H18B H 0.2837 0.6161 0.5086 0.034 Uiso 1 1 calc GR
H18C H 0.0087 0.7731 0.4799 0.034 Uiso 1 1 calc GR
C19 C 0.1968(2) 0.43804(17) 0.39729(6) 0.0205(3) Uani 1 1 d .
H19A H 0.2310 0.3395 0.3644 0.031 Uiso 1 1 calc GR
H19B H -0.0017 0.5080 0.4018 0.031 Uiso 1 1 calc GR
H19C H 0.2689 0.3707 0.4377 0.031 Uiso 1 1 calc GR
C21 C 0.6629(2) 0.57796(17) 0.18769(5) 0.0186(3) Uani 1 1 d .
C22 C 0.8181(2) 0.37500(17) 0.18528(5) 0.0187(3) Uani 1 1 d .
C23 C 0.7418(2) 0.26027(17) 0.14254(6) 0.0204(3) Uani 1 1 d .
H23 H 0.8456 0.1225 0.1410 0.025 Uiso 1 1 calc R
C24 C 0.5202(2) 0.33858(18) 0.10197(6) 0.0213(3) Uani 1 1 d .
C25 C 0.3682(2) 0.54212(18) 0.10372(6) 0.0207(3) Uani 1 1 d .
C26 C 0.4429(2) 0.65633(17) 0.14667(6) 0.0203(3) Uani 1 1 d .
H26 H 0.3391 0.7941 0.1481 0.024 Uiso 1 1 calc R
C27 C 1.0631(2) 0.28085(18) 0.22720(6) 0.0230(3) Uani 1 1 d .
H27A H 1.1356 0.1372 0.2210 0.034 Uiso 1 1 calc GR
H27B H 1.0064 0.3055 0.2717 0.034 Uiso 1 1 calc GR
H27C H 1.2064 0.3387 0.2161 0.034 Uiso 1 1 calc GR
C28 C 0.4426(3) 0.2041(2) 0.05852(6) 0.0284(3) Uani 1 1 d .
H28A H 0.4496 0.2514 0.0144 0.043 Uiso 1 1 calc GR
H28B H 0.2558 0.2058 0.0693 0.043 Uiso 1 1 calc GR
H28C H 0.5723 0.0681 0.0637 0.043 Uiso 1 1 calc GR
C29 C 0.1257(3) 0.6363(2) 0.06101(6) 0.0276(3) Uani 1 1 d .
H29A H -0.0189 0.5795 0.0718 0.041 Uiso 1 1 calc GR
H29B H 0.1847 0.6103 0.0167 0.041 Uiso 1 1 calc GR
H29C H 0.0540 0.7802 0.0668 0.041 Uiso 1 1 calc GR
loop_
_atom_site_aniso_label
_atom_site_aniso_U_11
_atom_site_aniso_U_22
_atom_site_aniso_U_33
_atom_site_aniso_U_23
_atom_site_aniso_U_13
_atom_site_aniso_U_12
C1 0.0216(6) 0.0207(6) 0.0198(6) -0.0009(5) 0.0004(5) -0.0095(5)
C11 0.0146(6) 0.0159(5) 0.0177(6) 0.0004(4) -0.0023(4) -0.0029(4)
C12 0.0150(6) 0.0142(5) 0.0222(6) 0.0007(4) -0.0037(4) -0.0028(4)
C13 0.0188(6) 0.0147(5) 0.0198(6) -0.0027(4) -0.0038(5) -0.0027(4)
C14 0.0154(6) 0.0163(5) 0.0181(6) 0.0005(4) -0.0025(4) -0.0001(4)
C15 0.0139(5) 0.0150(5) 0.0201(6) 0.0011(4) -0.0026(4) -0.0022(4)
C16 0.0163(6) 0.0153(5) 0.0178(6) -0.0019(4) -0.0025(4) -0.0040(4)
C17 0.0231(6) 0.0172(6) 0.0250(6) -0.0014(5) -0.0024(5) -0.0082(5)
C18 0.0218(6) 0.0211(6) 0.0214(6) -0.0029(5) 0.0009(5) -0.0031(5)
C19 0.0198(6) 0.0205(6) 0.0215(6) 0.0012(5) -0.0008(5) -0.0074(5)
C21 0.0200(6) 0.0234(6) 0.0147(6) -0.0010(5) 0.0037(4) -0.0107(5)
C22 0.0170(6) 0.0237(6) 0.0166(6) 0.0004(5) 0.0025(4) -0.0086(5)
C23 0.0196(6) 0.0210(6) 0.0206(6) -0.0039(5) 0.0043(5) -0.0067(5)
C24 0.0205(6) 0.0303(7) 0.0163(6) -0.0045(5) 0.0050(5) -0.0128(5)
C25 0.0177(6) 0.0293(6) 0.0160(6) 0.0000(5) 0.0019(4) -0.0095(5)
C26 0.0197(6) 0.0219(6) 0.0182(6) 0.0001(5) 0.0032(5) -0.0061(5)
C27 0.0205(6) 0.0264(6) 0.0226(6) 0.0002(5) -0.0023(5) -0.0087(5)
C28 0.0270(7) 0.0359(7) 0.0259(7) -0.0089(5) -0.0004(5) -0.0142(6)
C29 0.0231(7) 0.0380(7) 0.0214(6) -0.0003(5) -0.0027(5) -0.0097(6)
loop_
_atom_type_symbol
_atom_type_description
_atom_type_scat_dispersion_real
_atom_type_scat_dispersion_imag
_atom_type_scat_source
C C 0.0033 0.0016 'International Tables Vol C Tables 4.2.6.8 and 6.1.1.4'
H H 0.0000 0.0000 'International Tables Vol C Tables 4.2.6.8 and 6.1.1.4'
loop_
_geom_angle_atom_site_label_1
_geom_angle_atom_site_label_2
_geom_angle_atom_site_label_3
_geom_angle
C21 C1 C11 115.41(9)
C12 C11 C1 119.65(10)
C16 C11 C1 121.52(10)
C16 C11 C12 118.82(10)
C11 C12 C17 121.10(10)
C13 C12 C11 118.44(10)
C13 C12 C17 120.45(10)
C14 C13 C12 122.90(10)
C13 C14 C15 118.66(10)
C13 C14 C18 120.73(10)
C15 C14 C18 120.59(10)
C14 C15 C19 120.76(10)
C16 C15 C14 118.70(10)
C16 C15 C19 120.54(10)
C11 C16 C15 122.47(10)
C22 C21 C1 122.12(10)
C26 C21 C1 119.29(10)
C26 C21 C22 118.59(10)
C21 C22 C27 121.53(10)
C23 C22 C21 118.30(11)
C23 C22 C27 120.18(10)
C24 C23 C22 123.01(11)
C23 C24 C25 118.58(11)
C23 C24 C28 120.19(11)
C25 C24 C28 121.22(11)
C24 C25 C29 121.22(11)
C26 C25 C24 118.45(11)
C26 C25 C29 120.32(11)
C25 C26 C21 123.07(11)
loop_
_geom_bond_atom_site_label_1
_geom_bond_atom_site_label_2
_geom_bond_distance
C1 C11 1.5248(16)
C1 C21 1.5141(15)
C11 C12 1.4020(16)
C11 C16 1.3972(16)
C12 C13 1.3953(17)
C12 C17 1.5102(15)
C13 C14 1.3944(16)
C14 C15 1.3998(16)
C14 C18 1.5068(16)
C15 C16 1.3986(17)
C15 C19 1.5094(15)
C21 C22 1.4026(17)
C21 C26 1.3938(17)
C22 C23 1.3964(16)
C22 C27 1.5095(16)
C23 C24 1.3938(17)
C24 C25 1.4016(17)
C24 C28 1.5124(16)
C25 C26 1.3924(16)
C25 C29 1.5106(17)
loop_
_geom_torsion_atom_site_label_1
_geom_torsion_atom_site_label_2
_geom_torsion_atom_site_label_3
_geom_torsion_atom_site_label_4
_geom_torsion
C1 C11 C12 C13 179.40(10)
C1 C11 C12 C17 -0.91(16)
C1 C11 C16 C15 179.99(10)
C1 C21 C22 C23 178.60(10)
C1 C21 C22 C27 -1.74(17)
C1 C21 C26 C25 -179.07(10)
C11 C1 C21 C22 -86.32(13)
C11 C1 C21 C26 93.36(13)
C11 C12 C13 C14 0.98(17)
C12 C11 C16 C15 0.90(17)
C12 C13 C14 C15 0.18(17)
C12 C13 C14 C18 -178.33(10)
C13 C14 C15 C16 -0.80(16)
C13 C14 C15 C19 -179.70(10)
C14 C15 C16 C11 0.27(17)
C16 C11 C12 C13 -1.49(16)
C16 C11 C12 C17 178.20(10)
C17 C12 C13 C14 -178.70(10)
C18 C14 C15 C16 177.71(10)
C18 C14 C15 C19 -1.19(16)
C19 C15 C16 C11 179.17(10)
C21 C1 C11 C12 -170.47(10)
C21 C1 C11 C16 10.45(16)
C21 C22 C23 C24 0.52(17)
C22 C21 C26 C25 0.62(17)
C22 C23 C24 C25 0.55(18)
C22 C23 C24 C28 -177.79(11)
C23 C24 C25 C26 -1.01(17)
C23 C24 C25 C29 180.00(10)
C24 C25 C26 C21 0.45(17)
C26 C21 C22 C23 -1.08(16)
C26 C21 C22 C27 178.58(10)
C27 C22 C23 C24 -179.14(10)
C28 C24 C25 C26 177.30(10)
C28 C24 C25 C29 -1.68(17)
C29 C25 C26 C21 179.44(10)
